=
 OpenBabel10222422093D

 29 32  0  0  1  0  0  0  0  0999 V2000
  188.4150  177.6930  147.7240 C   0  0  0  0  0  3  0  0  0  0  0  0
  188.2750  177.5400  144.9230 C   0  0  0  0  0  0  0  0  0  0  0  0
  187.2110  177.9490  147.0680 C   0  0  0  0  0  3  0  0  0  0  0  0
  189.5550  177.3720  146.9870 C   0  0  0  0  0  0  0  0  0  0  0  0
  189.4800  177.2880  145.5960 C   0  0  0  0  0  3  0  0  0  0  0  0
  187.1170  177.8880  145.6670 C   0  0  0  0  0  0  0  0  0  0  0  0
  183.5080  178.9790  145.2280 C   0  0  0  0  0  3  0  0  0  0  0  0
  184.3720  178.3310  143.0650 C   0  0  0  0  0  3  0  0  0  0  0  0
  185.8030  178.1870  145.0310 C   0  0  0  0  0  0  0  0  0  0  0  0
  183.3220  178.8050  143.8560 C   0  0  0  0  0  0  0  0  0  0  0  0
  185.6040  178.0270  143.6500 C   0  0  0  0  0  3  0  0  0  0  0  0
  184.7420  178.6750  145.8110 C   0  0  0  0  0  3  0  0  0  0  0  0
  182.0560  179.1160  143.2560 C   0  0  0  0  0  0  0  0  0  0  0  0
  181.0350  179.3650  142.7710 N   0  0  0  0  0  0  0  0  0  0  0  0
  190.8370  177.0750  147.6840 C   0  0  0  0  0  2  0  0  0  0  0  0
  191.8680  176.7460  146.7140 N   0  0  0  0  0  2  0  0  0  0  0  0
  192.4050  175.4500  147.0870 C   0  0  0  0  0  1  0  0  0  0  0  0
  188.2190  177.4090  143.4960 N   0  0  0  0  0  2  0  0  0  0  0  0
  188.8460  178.8440  136.6800 C   0  0  0  0  0  1  0  0  0  0  0  0
  187.4320  179.2810  141.1460 O   0  0  0  0  0  0  0  0  0  0  0  0
  189.9030  176.9180  140.8110 C   0  0  1  0  0  3  0  0  0  0  0  0
  188.3890  178.5660  138.0310 N   0  0  0  0  0  2  0  0  0  0  0  0
  189.1850  177.8300  138.9590 C   0  0  0  0  0  0  0  0  0  0  0  0
  190.8890  176.7180  139.8120 N   0  0  0  0  0  2  0  0  0  0  0  0
  188.3220  178.4050  141.3070 C   0  0  0  0  0  0  0  0  0  0  0  0
  190.1780  177.2730  142.0630 C   0  0  0  0  0  2  0  0  0  0  0  0
  189.0660  178.1580  142.5760 C   0  0  2  0  0  3  0  0  0  0  0  0
  190.3540  177.3400  138.6710 N   0  0  0  0  0  0  0  0  0  0  0  0
  188.7590  177.5340  140.2850 N   0  0  0  0  0  0  0  0  0  0  0  0
  2  5  2  0  0  0  0
  2  6  1  0  0  0  0
  3  1  1  0  0  0  0
  4 15  1  0  0  0  0
  4  1  2  0  0  0  0
  5  4  1  0  0  0  0
  6  3  2  0  0  0  0
  7 12  1  0  0  0  0
  8 11  2  0  0  0  0
  8 10  1  0  0  0  0
  9  6  1  0  0  0  0
  9 12  2  0  0  0  0
 10  7  2  0  0  0  0
 11  9  1  0  0  0  0
 13 10  1  0  0  0  0
 14 13  3  0  0  0  0
 16 17  1  0  0  0  0
 16 15  1  0  0  0  0
 18  2  1  0  0  0  0
 19 22  1  0  0  0  0
 20 25  2  0  0  0  0
 21 26  1  1  0  0  0
 22 23  1  0  0  0  0
 23 29  1  0  0  0  0
 24 21  1  0  0  0  0
 25 27  1  0  0  0  0
 26 27  1  0  0  0  0
 27 18  1  1  0  0  0
 28 23  2  0  0  0  0
 28 24  1  0  0  0  0
 29 21  1  0  0  0  0
 29 25  1  0  0  0  0
M  END
>  <MODEL>
1

>  <REMARK>
 VINA RESULT:     -10.4      0.000      0.000
  Name = 
  6 active torsions:
  status: ('A' for Active; 'I' for Inactive)
    1  A    between atoms: C_1  and  C_12
    2  A    between atoms: C_4  and  C_17
    3  A    between atoms: C_4  and  N_23
    4  A    between atoms: C_11  and  C_27
    5  A    between atoms: C_15  and  N_21
    6  A    between atoms: C_20  and  N_21
                            x       y       z     vdW  Elec       q    Type
                         _______ _______ _______ _____ _____    ______ ____

>  <TORSDO>
F 6

$$$$
=
 OpenBabel10222422093D

 29 32  0  0  1  0  0  0  0  0999 V2000
  184.0000  178.8430  145.5510 C   0  0  0  0  0  3  0  0  0  0  0  0
  186.0160  178.0580  143.7600 C   0  0  0  0  0  0  0  0  0  0  0  0
  185.2650  178.5000  146.0280 C   0  0  0  0  0  3  0  0  0  0  0  0
  183.7320  178.7840  144.1840 C   0  0  0  0  0  0  0  0  0  0  0  0
  184.7380  178.4030  143.2960 C   0  0  0  0  0  3  0  0  0  0  0  0
  186.2880  178.0950  145.1530 C   0  0  0  0  0  0  0  0  0  0  0  0
  189.0180  177.3590  147.6860 C   0  0  0  0  0  3  0  0  0  0  0  0
  189.9210  176.9980  145.4730 C   0  0  0  0  0  3  0  0  0  0  0  0
  187.6120  177.7300  145.7310 C   0  0  0  0  0  0  0  0  0  0  0  0
  190.0840  177.0000  146.8590 C   0  0  0  0  0  0  0  0  0  0  0  0
  188.6910  177.3570  144.9140 C   0  0  0  0  0  3  0  0  0  0  0  0
  187.7890  177.7170  147.1250 C   0  0  0  0  0  3  0  0  0  0  0  0
  191.3470  176.6330  147.4340 C   0  0  0  0  0  0  0  0  0  0  0  0
  192.3670  176.3380  147.8970 N   0  0  0  0  0  0  0  0  0  0  0  0
  182.3890  179.1720  143.6690 C   0  0  0  0  0  2  0  0  0  0  0  0
  182.2660  178.8010  142.2690 N   0  0  0  0  0  2  0  0  0  0  0  0
  180.9230  179.1610  141.8510 C   0  0  0  0  0  1  0  0  0  0  0  0
  187.0410  177.7060  142.8210 N   0  0  0  0  0  2  0  0  0  0  0  0
  187.5650  178.6090  135.9050 C   0  0  0  0  0  1  0  0  0  0  0  0
  185.7720  178.8930  140.2460 O   0  0  0  0  0  0  0  0  0  0  0  0
  188.9740  177.6490  140.2630 C   0  0  1  0  0  3  0  0  0  0  0  0
  187.1530  178.3080  137.2650 N   0  0  0  0  0  2  0  0  0  0  0  0
  188.0990  178.0290  138.2970 C   0  0  0  0  0  0  0  0  0  0  0  0
  190.0320  177.7500  139.3230 N   0  0  0  0  0  2  0  0  0  0  0  0
  186.9140  178.4490  140.5340 C   0  0  0  0  0  0  0  0  0  0  0  0
  189.0020  178.2010  141.4730 C   0  0  0  0  0  2  0  0  0  0  0  0
  187.6030  178.6320  141.8460 C   0  0  2  0  0  3  0  0  0  0  0  0
  189.3840  178.0040  138.1030 N   0  0  0  0  0  0  0  0  0  0  0  0
  187.7230  177.7210  139.6350 N   0  0  0  0  0  0  0  0  0  0  0  0
  1  3  1  0  0  0  0
  2  6  1  0  0  0  0
  4  1  2  0  0  0  0
  5  2  2  0  0  0  0
  5  4  1  0  0  0  0
  6  9  1  0  0  0  0
  6  3  2  0  0  0  0
  8 10  1  0  0  0  0
  9 12  2  0  0  0  0
 10 13  1  0  0  0  0
 10  7  2  0  0  0  0
 11  8  2  0  0  0  0
 11  9  1  0  0  0  0
 12  7  1  0  0  0  0
 13 14  3  0  0  0  0
 15  4  1  0  0  0  0
 16 15  1  0  0  0  0
 17 16  1  0  0  0  0
 18  2  1  0  0  0  0
 19 22  1  0  0  0  0
 20 25  2  0  0  0  0
 21 26  1  1  0  0  0
 22 23  1  0  0  0  0
 23 29  1  0  0  0  0
 24 21  1  0  0  0  0
 25 27  1  0  0  0  0
 26 27  1  0  0  0  0
 27 18  1  1  0  0  0
 28 23  2  0  0  0  0
 28 24  1  0  0  0  0
 29 21  1  0  0  0  0
 29 25  1  0  0  0  0
M  END
>  <MODEL>
2

>  <REMARK>
 VINA RESULT:      -9.9      1.061      5.741
  Name = 
  6 active torsions:
  status: ('A' for Active; 'I' for Inactive)
    1  A    between atoms: C_1  and  C_12
    2  A    between atoms: C_4  and  C_17
    3  A    between atoms: C_4  and  N_23
    4  A    between atoms: C_11  and  C_27
    5  A    between atoms: C_15  and  N_21
    6  A    between atoms: C_20  and  N_21
                            x       y       z     vdW  Elec       q    Type
                         _______ _______ _______ _____ _____    ______ ____

>  <TORSDO>
F 6

$$$$
=
 OpenBabel10222422093D

 29 32  0  0  1  0  0  0  0  0999 V2000
  189.2280  176.9850  146.5940 C   0  0  0  0  0  3  0  0  0  0  0  0
  188.7770  177.9130  143.9820 C   0  0  0  0  0  0  0  0  0  0  0  0
  187.9340  177.3000  146.1770 C   0  0  0  0  0  3  0  0  0  0  0  0
  190.3000  177.1440  145.7180 C   0  0  0  0  0  0  0  0  0  0  0  0
  190.0720  177.5960  144.4180 C   0  0  0  0  0  3  0  0  0  0  0  0
  187.6840  177.7750  144.8770 C   0  0  0  0  0  0  0  0  0  0  0  0
  184.0960  178.9900  145.1160 C   0  0  0  0  0  3  0  0  0  0  0  0
  184.4930  178.2410  142.8520 C   0  0  0  0  0  3  0  0  0  0  0  0
  186.2800  178.1040  144.5020 C   0  0  0  0  0  0  0  0  0  0  0  0
  183.6370  178.7810  143.8140 C   0  0  0  0  0  0  0  0  0  0  0  0
  185.8070  177.9090  143.1940 C   0  0  0  0  0  3  0  0  0  0  0  0
  185.4100  178.6580  145.4560 C   0  0  0  0  0  3  0  0  0  0  0  0
  182.2870  179.1210  143.4640 C   0  0  0  0  0  0  0  0  0  0  0  0
  181.1990  179.3970  143.1800 N   0  0  0  0  0  0  0  0  0  0  0  0
  191.6790  176.7870  146.1530 C   0  0  0  0  0  2  0  0  0  0  0  0
  191.7570  176.7740  147.6040 N   0  0  0  0  0  2  0  0  0  0  0  0
  192.6500  175.6900  147.9720 C   0  0  0  0  0  1  0  0  0  0  0  0
  188.5680  178.3400  142.6300 N   0  0  0  0  0  2  0  0  0  0  0  0
  192.1870  175.7550  137.2310 C   0  0  0  0  0  1  0  0  0  0  0  0
  190.4730  176.1130  141.5980 O   0  0  0  0  0  0  0  0  0  0  0  0
  188.9700  178.3310  139.4480 C   0  0  1  0  0  3  0  0  0  0  0  0
  191.7280  176.2680  138.5100 N   0  0  0  0  0  2  0  0  0  0  0  0
  190.5970  177.1340  138.6140 C   0  0  0  0  0  0  0  0  0  0  0  0
  188.8420  178.3370  138.0350 N   0  0  0  0  0  2  0  0  0  0  0  0
  189.7590  176.9850  141.0350 C   0  0  0  0  0  0  0  0  0  0  0  0
  187.9460  178.1880  140.2840 C   0  0  0  0  0  2  0  0  0  0  0  0
  188.4130  177.4270  141.5030 C   0  0  2  0  0  3  0  0  0  0  0  0
  189.9110  177.5420  137.5890 N   0  0  0  0  0  0  0  0  0  0  0  0
  190.1320  177.6590  139.8530 N   0  0  0  0  0  0  0  0  0  0  0  0
  2  5  2  0  0  0  0
  2  6  1  0  0  0  0
  3  1  1  0  0  0  0
  4 15  1  0  0  0  0
  4  1  2  0  0  0  0
  5  4  1  0  0  0  0
  6  3  2  0  0  0  0
  7 12  1  0  0  0  0
  8 11  2  0  0  0  0
  8 10  1  0  0  0  0
  9  6  1  0  0  0  0
  9 12  2  0  0  0  0
 10  7  2  0  0  0  0
 11  9  1  0  0  0  0
 13 10  1  0  0  0  0
 14 13  3  0  0  0  0
 15 16  1  0  0  0  0
 16 17  1  0  0  0  0
 18  2  1  0  0  0  0
 19 22  1  0  0  0  0
 21 29  1  0  0  0  0
 21 26  1  1  0  0  0
 22 23  1  0  0  0  0
 23 29  1  0  0  0  0
 24 21  1  0  0  0  0
 25 27  1  0  0  0  0
 25 20  2  0  0  0  0
 26 27  1  0  0  0  0
 27 18  1  1  0  0  0
 28 24  1  0  0  0  0
 28 23  2  0  0  0  0
 29 25  1  0  0  0  0
M  END
>  <MODEL>
3

>  <REMARK>
 VINA RESULT:      -9.8      1.458      1.969
  Name = 
  6 active torsions:
  status: ('A' for Active; 'I' for Inactive)
    1  A    between atoms: C_1  and  C_12
    2  A    between atoms: C_4  and  C_17
    3  A    between atoms: C_4  and  N_23
    4  A    between atoms: C_11  and  C_27
    5  A    between atoms: C_15  and  N_21
    6  A    between atoms: C_20  and  N_21
                            x       y       z     vdW  Elec       q    Type
                         _______ _______ _______ _____ _____    ______ ____

>  <TORSDO>
F 6

$$$$
=
 OpenBabel10222422093D

 29 32  0  0  1  0  0  0  0  0999 V2000
  184.3880  178.5600  145.6500 C   0  0  0  0  0  3  0  0  0  0  0  0
  186.6000  178.2470  143.9480 C   0  0  0  0  0  0  0  0  0  0  0  0
  185.6250  178.1810  146.1720 C   0  0  0  0  0  3  0  0  0  0  0  0
  184.2460  178.7720  144.2800 C   0  0  0  0  0  0  0  0  0  0  0  0
  185.3490  178.6250  143.4380 C   0  0  0  0  0  3  0  0  0  0  0  0
  186.7450  178.0090  145.3400 C   0  0  0  0  0  0  0  0  0  0  0  0
  190.3340  176.8300  145.7140 C   0  0  0  0  0  3  0  0  0  0  0  0
  189.4330  177.2290  147.9220 C   0  0  0  0  0  3  0  0  0  0  0  0
  188.0320  177.5910  145.9620 C   0  0  0  0  0  0  0  0  0  0  0  0
  190.4940  176.8400  147.1010 C   0  0  0  0  0  0  0  0  0  0  0  0
  188.2120  177.6050  147.3540 C   0  0  0  0  0  3  0  0  0  0  0  0
  189.1120  177.2070  145.1490 C   0  0  0  0  0  3  0  0  0  0  0  0
  191.7470  176.4530  147.6840 C   0  0  0  0  0  0  0  0  0  0  0  0
  192.7580  176.1400  148.1520 N   0  0  0  0  0  0  0  0  0  0  0  0
  182.9330  179.1990  143.7220 C   0  0  0  0  0  2  0  0  0  0  0  0
  182.8280  178.7960  142.3290 N   0  0  0  0  0  2  0  0  0  0  0  0
  181.4180  178.8270  141.9830 C   0  0  0  0  0  1  0  0  0  0  0  0
  187.7240  178.1410  143.0640 N   0  0  0  0  0  2  0  0  0  0  0  0
  191.9710  176.2610  137.8350 C   0  0  0  0  0  1  0  0  0  0  0  0
  189.7300  176.0390  141.9660 O   0  0  0  0  0  0  0  0  0  0  0  0
  188.5170  178.5710  139.9870 C   0  0  1  0  0  3  0  0  0  0  0  0
  191.3590  176.5990  139.1090 N   0  0  0  0  0  2  0  0  0  0  0  0
  190.2290  177.4670  139.1960 C   0  0  0  0  0  0  0  0  0  0  0  0
  188.5650  178.7790  138.5850 N   0  0  0  0  0  2  0  0  0  0  0  0
  189.0960  176.9970  141.4510 C   0  0  0  0  0  0  0  0  0  0  0  0
  187.3960  178.3350  140.6630 C   0  0  0  0  0  2  0  0  0  0  0  0
  187.7050  177.4000  141.8090 C   0  0  2  0  0  3  0  0  0  0  0  0
  189.6770  178.0310  138.1640 N   0  0  0  0  0  0  0  0  0  0  0  0
  189.6160  177.8230  140.4300 N   0  0  0  0  0  0  0  0  0  0  0  0
  1  3  1  0  0  0  0
  2  6  1  0  0  0  0
  4  1  2  0  0  0  0
  5  2  2  0  0  0  0
  5  4  1  0  0  0  0
  6  9  1  0  0  0  0
  6  3  2  0  0  0  0
  7 10  1  0  0  0  0
  9 11  2  0  0  0  0
 10 13  1  0  0  0  0
 10  8  2  0  0  0  0
 11  8  1  0  0  0  0
 12  7  2  0  0  0  0
 12  9  1  0  0  0  0
 13 14  3  0  0  0  0
 15  4  1  0  0  0  0
 16 15  1  0  0  0  0
 17 16  1  0  0  0  0
 18  2  1  0  0  0  0
 19 22  1  0  0  0  0
 21 29  1  0  0  0  0
 21 26  1  6  0  0  0
 22 23  1  0  0  0  0
 23 29  1  0  0  0  0
 24 21  1  0  0  0  0
 25 27  1  0  0  0  0
 25 20  2  0  0  0  0
 26 27  1  0  0  0  0
 27 18  1  1  0  0  0
 28 24  1  0  0  0  0
 28 23  2  0  0  0  0
 29 25  1  0  0  0  0
M  END
>  <MODEL>
4

>  <REMARK>
 VINA RESULT:      -9.4      1.413      5.974
  Name = 
  6 active torsions:
  status: ('A' for Active; 'I' for Inactive)
    1  A    between atoms: C_1  and  C_12
    2  A    between atoms: C_4  and  C_17
    3  A    between atoms: C_4  and  N_23
    4  A    between atoms: C_11  and  C_27
    5  A    between atoms: C_15  and  N_21
    6  A    between atoms: C_20  and  N_21
                            x       y       z     vdW  Elec       q    Type
                         _______ _______ _______ _____ _____    ______ ____

>  <TORSDO>
F 6

$$$$
=
 OpenBabel10222422093D

 29 32  0  0  1  0  0  0  0  0999 V2000
  190.0120  177.2850  139.3520 C   0  0  0  0  0  3  0  0  0  0  0  0
  188.5600  178.1290  141.6030 C   0  0  0  0  0  0  0  0  0  0  0  0
  190.4830  177.0040  140.6350 C   0  0  0  0  0  3  0  0  0  0  0  0
  188.8250  177.9970  139.1870 C   0  0  0  0  0  0  0  0  0  0  0  0
  188.1000  178.4070  140.3060 C   0  0  0  0  0  3  0  0  0  0  0  0
  189.7790  177.4240  141.7780 C   0  0  0  0  0  0  0  0  0  0  0  0
  191.6070  175.5920  144.5540 C   0  0  0  0  0  3  0  0  0  0  0  0
  190.7800  177.6820  145.4430 C   0  0  0  0  0  3  0  0  0  0  0  0
  190.3450  177.1010  143.1170 C   0  0  0  0  0  0  0  0  0  0  0  0
  191.4690  176.4810  145.6210 C   0  0  0  0  0  0  0  0  0  0  0  0
  190.2250  177.9900  144.1970 C   0  0  0  0  0  3  0  0  0  0  0  0
  191.0520  175.9020  143.3090 C   0  0  0  0  0  3  0  0  0  0  0  0
  192.0380  176.1640  146.9000 C   0  0  0  0  0  0  0  0  0  0  0  0
  192.4970  175.9090  147.9330 N   0  0  0  0  0  0  0  0  0  0  0  0
  188.3070  178.2780  137.8190 C   0  0  0  0  0  2  0  0  0  0  0  0
  186.8860  178.5800  137.8760 N   0  0  0  0  0  2  0  0  0  0  0  0
  186.1910  177.4750  137.2420 C   0  0  0  0  0  1  0  0  0  0  0  0
  187.7750  178.5300  142.7340 N   0  0  0  0  0  2  0  0  0  0  0  0
  180.9060  178.8700  144.0070 C   0  0  0  0  0  1  0  0  0  0  0  0
  184.9010  178.0380  141.6640 O   0  0  0  0  0  0  0  0  0  0  0  0
  185.4860  178.7890  144.9650 C   0  0  1  0  0  3  0  0  0  0  0  0
  182.2510  178.9670  143.4670 N   0  0  0  0  0  2  0  0  0  0  0  0
  183.4070  178.9110  144.3030 C   0  0  0  0  0  0  0  0  0  0  0  0
  184.6540  178.7150  146.1110 N   0  0  0  0  0  2  0  0  0  0  0  0
  185.3850  178.2540  142.8060 C   0  0  0  0  0  0  0  0  0  0  0  0
  186.5560  178.0220  144.7750 C   0  0  0  0  0  2  0  0  0  0  0  0
  186.6940  177.7320  143.2980 C   0  0  2  0  0  3  0  0  0  0  0  0
  183.3500  178.7880  145.5960 N   0  0  0  0  0  0  0  0  0  0  0  0
  184.7350  179.0140  143.8030 N   0  0  0  0  0  0  0  0  0  0  0  0
  1  3  1  0  0  0  0
  2  6  1  0  0  0  0
  2 18  1  0  0  0  0
  3  6  2  0  0  0  0
  4  1  2  0  0  0  0
  4  5  1  0  0  0  0
  5  2  2  0  0  0  0
  6  9  1  0  0  0  0
  7 10  1  0  0  0  0
  8 10  2  0  0  0  0
  9 12  1  0  0  0  0
  9 11  2  0  0  0  0
 10 13  1  0  0  0  0
 11  8  1  0  0  0  0
 12  7  2  0  0  0  0
 13 14  3  0  0  0  0
 15 16  1  0  0  0  0
 15  4  1  0  0  0  0
 17 16  1  0  0  0  0
 20 25  2  0  0  0  0
 21 26  1  6  0  0  0
 21 24  1  0  0  0  0
 22 19  1  0  0  0  0
 22 23  1  0  0  0  0
 23 28  2  0  0  0  0
 25 27  1  0  0  0  0
 25 29  1  0  0  0  0
 27 18  1  6  0  0  0
 27 26  1  0  0  0  0
 28 24  1  0  0  0  0
 29 23  1  0  0  0  0
 29 21  1  0  0  0  0
M  END
>  <MODEL>
5

>  <REMARK>
 VINA RESULT:      -9.2      1.938      7.755
  Name = 
  6 active torsions:
  status: ('A' for Active; 'I' for Inactive)
    1  A    between atoms: C_1  and  C_12
    2  A    between atoms: C_4  and  C_17
    3  A    between atoms: C_4  and  N_23
    4  A    between atoms: C_11  and  C_27
    5  A    between atoms: C_15  and  N_21
    6  A    between atoms: C_20  and  N_21
                            x       y       z     vdW  Elec       q    Type
                         _______ _______ _______ _____ _____    ______ ____

>  <TORSDO>
F 6

$$$$
=
 OpenBabel10222422093D

 29 32  0  0  1  0  0  0  0  0999 V2000
  191.7940  176.5300  144.8800 C   0  0  0  0  0  3  0  0  0  0  0  0
  189.2800  177.5580  144.1620 C   0  0  0  0  0  0  0  0  0  0  0  0
  191.4890  176.7620  143.5390 C   0  0  0  0  0  3  0  0  0  0  0  0
  190.8440  176.7960  145.8660 C   0  0  0  0  0  0  0  0  0  0  0  0
  189.6000  177.3160  145.5070 C   0  0  0  0  0  3  0  0  0  0  0  0
  190.2350  177.2670  143.1530 C   0  0  0  0  0  0  0  0  0  0  0  0
  190.5860  177.0830  139.3780 C   0  0  0  0  0  3  0  0  0  0  0  0
  188.6150  178.3830  139.8930 C   0  0  0  0  0  3  0  0  0  0  0  0
  189.9730  177.4800  141.7020 C   0  0  0  0  0  0  0  0  0  0  0  0
  189.4800  177.8200  138.9520 C   0  0  0  0  0  0  0  0  0  0  0  0
  188.8590  178.2100  141.2580 C   0  0  0  0  0  3  0  0  0  0  0  0
  190.8280  176.9100  140.7440 C   0  0  0  0  0  3  0  0  0  0  0  0
  189.2310  177.9990  137.5500 C   0  0  0  0  0  0  0  0  0  0  0  0
  189.0280  178.1440  136.4200 N   0  0  0  0  0  0  0  0  0  0  0  0
  191.1740  176.5720  147.3010 C   0  0  0  0  0  2  0  0  0  0  0  0
  192.1810  175.5320  147.4240 N   0  0  0  0  0  2  0  0  0  0  0  0
  192.9790  175.8490  148.5940 C   0  0  0  0  0  1  0  0  0  0  0  0
  188.0080  178.1270  143.8270 N   0  0  0  0  0  2  0  0  0  0  0  0
  181.1370  179.2710  143.2010 C   0  0  0  0  0  1  0  0  0  0  0  0
  185.4730  177.8540  142.0520 O   0  0  0  0  0  0  0  0  0  0  0  0
  185.2650  178.7910  145.3510 C   0  0  1  0  0  3  0  0  0  0  0  0
  182.5780  179.1870  143.0360 N   0  0  0  0  0  2  0  0  0  0  0  0
  183.4600  179.0760  144.1530 C   0  0  0  0  0  0  0  0  0  0  0  0
  184.1620  178.8920  146.2360 N   0  0  0  0  0  2  0  0  0  0  0  0
  185.6660  178.1050  143.2710 C   0  0  0  0  0  0  0  0  0  0  0  0
  186.2480  177.9050  145.4890 C   0  0  0  0  0  2  0  0  0  0  0  0
  186.7290  177.4910  144.1190 C   0  0  2  0  0  3  0  0  0  0  0  0
  183.0550  179.0600  145.3870 N   0  0  0  0  0  0  0  0  0  0  0  0
  184.8750  179.0030  144.0210 N   0  0  0  0  0  0  0  0  0  0  0  0
  1  4  1  0  0  0  0
  2  5  1  0  0  0  0
  3  1  2  0  0  0  0
  4 15  1  0  0  0  0
  5  4  2  0  0  0  0
  6  3  1  0  0  0  0
  6  2  2  0  0  0  0
  7 12  1  0  0  0  0
  8 11  2  0  0  0  0
  9  6  1  0  0  0  0
 10  7  2  0  0  0  0
 10  8  1  0  0  0  0
 11  9  1  0  0  0  0
 12  9  2  0  0  0  0
 13 10  1  0  0  0  0
 14 13  3  0  0  0  0
 15 16  1  0  0  0  0
 16 17  1  0  0  0  0
 18  2  1  0  0  0  0
 20 25  2  0  0  0  0
 21 26  1  6  0  0  0
 21 24  1  0  0  0  0
 22 19  1  0  0  0  0
 22 23  1  0  0  0  0
 23 28  2  0  0  0  0
 25 29  1  0  0  0  0
 25 27  1  0  0  0  0
 27 18  1  6  0  0  0
 27 26  1  0  0  0  0
 28 24  1  0  0  0  0
 29 23  1  0  0  0  0
 29 21  1  0  0  0  0
M  END
>  <MODEL>
6

>  <REMARK>
 VINA RESULT:      -8.8      1.782      6.179
  Name = 
  6 active torsions:
  status: ('A' for Active; 'I' for Inactive)
    1  A    between atoms: C_1  and  C_12
    2  A    between atoms: C_4  and  C_17
    3  A    between atoms: C_4  and  N_23
    4  A    between atoms: C_11  and  C_27
    5  A    between atoms: C_15  and  N_21
    6  A    between atoms: C_20  and  N_21
                            x       y       z     vdW  Elec       q    Type
                         _______ _______ _______ _____ _____    ______ ____

>  <TORSDO>
F 6

$$$$
=
 OpenBabel10222422093D

 29 32  0  0  1  0  0  0  0  0999 V2000
  185.1780  178.6600  144.4530 C   0  0  0  0  0  3  0  0  0  0  0  0
  187.4300  177.6310  143.1260 C   0  0  0  0  0  0  0  0  0  0  0  0
  186.3250  178.3270  145.1740 C   0  0  0  0  0  3  0  0  0  0  0  0
  185.1450  178.4690  143.0720 C   0  0  0  0  0  0  0  0  0  0  0  0
  186.2680  177.9670  142.4140 C   0  0  0  0  0  3  0  0  0  0  0  0
  187.4610  177.8020  144.5350 C   0  0  0  0  0  0  0  0  0  0  0  0
  189.6020  176.9440  147.5500 C   0  0  0  0  0  3  0  0  0  0  0  0
  191.0120  176.9130  145.5860 C   0  0  0  0  0  3  0  0  0  0  0  0
  188.6470  177.4570  145.3680 C   0  0  0  0  0  0  0  0  0  0  0  0
  190.8560  176.7590  146.9650 C   0  0  0  0  0  0  0  0  0  0  0  0
  189.9130  177.2570  144.7940 C   0  0  0  0  0  3  0  0  0  0  0  0
  188.5040  177.2870  146.7550 C   0  0  0  0  0  3  0  0  0  0  0  0
  191.9840  176.4070  147.7800 C   0  0  0  0  0  0  0  0  0  0  0  0
  192.8940  176.1220  148.4360 N   0  0  0  0  0  0  0  0  0  0  0  0
  183.9310  178.8440  142.2950 C   0  0  0  0  0  2  0  0  0  0  0  0
  184.2200  178.8120  140.8710 N   0  0  0  0  0  2  0  0  0  0  0  0
  183.1780  178.0200  140.2440 C   0  0  0  0  0  1  0  0  0  0  0  0
  188.5810  177.1520  142.4190 N   0  0  0  0  0  2  0  0  0  0  0  0
  191.6500  176.1640  136.2120 C   0  0  0  0  0  1  0  0  0  0  0  0
  188.2320  176.9990  139.3360 O   0  0  0  0  0  0  0  0  0  0  0  0
  191.3430  177.0800  140.7900 C   0  0  1  0  0  3  0  0  0  0  0  0
  190.8030  176.1350  137.3920 N   0  0  0  0  0  2  0  0  0  0  0  0
  191.2830  176.5320  138.6760 C   0  0  0  0  0  0  0  0  0  0  0  0
  192.6360  177.2900  140.2450 N   0  0  0  0  0  2  0  0  0  0  0  0
  189.2270  177.1080  140.1000 C   0  0  0  0  0  0  0  0  0  0  0  0
  190.7450  177.9250  141.6250 C   0  0  0  0  0  2  0  0  0  0  0  0
  189.2570  177.8990  141.3650 C   0  0  2  0  0  3  0  0  0  0  0  0
  192.5020  176.9270  138.8950 N   0  0  0  0  0  0  0  0  0  0  0  0
  190.4790  176.5040  139.8500 N   0  0  0  0  0  0  0  0  0  0  0  0
  1  3  1  0  0  0  0
  2  6  1  0  0  0  0
  4  1  2  0  0  0  0
  5  4  1  0  0  0  0
  5  2  2  0  0  0  0
  6  3  2  0  0  0  0
  6  9  1  0  0  0  0
  8 10  2  0  0  0  0
  9 12  1  0  0  0  0
 10  7  1  0  0  0  0
 10 13  1  0  0  0  0
 11  9  2  0  0  0  0
 11  8  1  0  0  0  0
 12  7  2  0  0  0  0
 13 14  3  0  0  0  0
 15  4  1  0  0  0  0
 16 15  1  0  0  0  0
 17 16  1  0  0  0  0
 18  2  1  0  0  0  0
 19 22  1  0  0  0  0
 20 25  2  0  0  0  0
 21 26  1  6  0  0  0
 22 23  1  0  0  0  0
 23 28  2  0  0  0  0
 23 29  1  0  0  0  0
 24 21  1  0  0  0  0
 25 27  1  0  0  0  0
 27 26  1  0  0  0  0
 27 18  1  1  0  0  0
 28 24  1  0  0  0  0
 29 25  1  0  0  0  0
 29 21  1  0  0  0  0
M  END
>  <MODEL>
7

>  <REMARK>
 VINA RESULT:      -8.8      1.782      5.857
  Name = 
  6 active torsions:
  status: ('A' for Active; 'I' for Inactive)
    1  A    between atoms: C_1  and  C_12
    2  A    between atoms: C_4  and  C_17
    3  A    between atoms: C_4  and  N_23
    4  A    between atoms: C_11  and  C_27
    5  A    between atoms: C_15  and  N_21
    6  A    between atoms: C_20  and  N_21
                            x       y       z     vdW  Elec       q    Type
                         _______ _______ _______ _____ _____    ______ ____

>  <TORSDO>
F 6

$$$$
=
 OpenBabel10222422093D

 29 32  0  0  1  0  0  0  0  0999 V2000
  190.6240  177.7550  144.6940 C   0  0  0  0  0  3  0  0  0  0  0  0
  188.1660  177.6200  143.3420 C   0  0  0  0  0  0  0  0  0  0  0  0
  190.5940  177.7000  143.3000 C   0  0  0  0  0  3  0  0  0  0  0  0
  189.4330  177.7290  145.4180 C   0  0  0  0  0  0  0  0  0  0  0  0
  188.2130  177.6720  144.7440 C   0  0  0  0  0  3  0  0  0  0  0  0
  189.3760  177.6240  142.6010 C   0  0  0  0  0  0  0  0  0  0  0  0
  188.8210  178.5090  138.9520 C   0  0  0  0  0  3  0  0  0  0  0  0
  190.1640  176.5010  139.0480 C   0  0  0  0  0  3  0  0  0  0  0  0
  189.4170  177.5560  141.1130 C   0  0  0  0  0  0  0  0  0  0  0  0
  189.5130  177.4850  138.3020 C   0  0  0  0  0  0  0  0  0  0  0  0
  190.1180  176.5390  140.4450 C   0  0  0  0  0  3  0  0  0  0  0  0
  188.7760  178.5450  140.3480 C   0  0  0  0  0  3  0  0  0  0  0  0
  189.5590  177.4460  136.8680 C   0  0  0  0  0  0  0  0  0  0  0  0
  189.5960  177.4120  135.7110 N   0  0  0  0  0  0  0  0  0  0  0  0
  189.4610  177.8100  146.9050 C   0  0  0  0  0  2  0  0  0  0  0  0
  188.4340  176.9510  147.4710 N   0  0  0  0  0  2  0  0  0  0  0  0
  187.8570  177.6630  148.5960 C   0  0  0  0  0  1  0  0  0  0  0  0
  186.8970  177.6000  142.6760 N   0  0  0  0  0  2  0  0  0  0  0  0
  180.1640  179.3500  143.3950 C   0  0  0  0  0  1  0  0  0  0  0  0
  184.6480  178.5720  144.5860 O   0  0  0  0  0  0  0  0  0  0  0  0
  184.1880  178.4490  141.1840 C   0  0  1  0  0  3  0  0  0  0  0  0
  181.4990  178.7890  143.5060 N   0  0  0  0  0  2  0  0  0  0  0  0
  182.3870  178.7280  142.3900 C   0  0  0  0  0  0  0  0  0  0  0  0
  183.1780  178.9890  140.3470 N   0  0  0  0  0  2  0  0  0  0  0  0
  184.7620  178.4980  143.3340 C   0  0  0  0  0  0  0  0  0  0  0  0
  185.4560  178.8490  141.1670 C   0  0  0  0  0  2  0  0  0  0  0  0
  186.0160  178.7570  142.5680 C   0  0  2  0  0  3  0  0  0  0  0  0
  182.0720  179.1450  141.2000 N   0  0  0  0  0  0  0  0  0  0  0  0
  183.6960  178.1740  142.4670 N   0  0  0  0  0  0  0  0  0  0  0  0
  1  4  1  0  0  0  0
  2  5  1  0  0  0  0
  3  1  2  0  0  0  0
  4 15  1  0  0  0  0
  5  4  2  0  0  0  0
  6  3  1  0  0  0  0
  6  2  2  0  0  0  0
  7 12  1  0  0  0  0
  8 11  2  0  0  0  0
  9  6  1  0  0  0  0
 10  7  2  0  0  0  0
 10  8  1  0  0  0  0
 11  9  1  0  0  0  0
 12  9  2  0  0  0  0
 13 10  1  0  0  0  0
 14 13  3  0  0  0  0
 15 16  1  0  0  0  0
 16 17  1  0  0  0  0
 18  2  1  0  0  0  0
 19 22  1  0  0  0  0
 21 26  1  1  0  0  0
 21 29  1  0  0  0  0
 23 29  1  0  0  0  0
 23 22  1  0  0  0  0
 24 21  1  0  0  0  0
 24 28  1  0  0  0  0
 25 20  2  0  0  0  0
 26 27  1  0  0  0  0
 27 18  1  6  0  0  0
 27 25  1  0  0  0  0
 28 23  2  0  0  0  0
 29 25  1  0  0  0  0
M  END
>  <MODEL>
8

>  <REMARK>
 VINA RESULT:      -8.1      2.132      6.358
  Name = 
  6 active torsions:
  status: ('A' for Active; 'I' for Inactive)
    1  A    between atoms: C_1  and  C_12
    2  A    between atoms: C_4  and  C_17
    3  A    between atoms: C_4  and  N_23
    4  A    between atoms: C_11  and  C_27
    5  A    between atoms: C_15  and  N_21
    6  A    between atoms: C_20  and  N_21
                            x       y       z     vdW  Elec       q    Type
                         _______ _______ _______ _____ _____    ______ ____

>  <TORSDO>
F 6

$$$$
=
 OpenBabel10222422093D

 29 32  0  0  1  0  0  0  0  0999 V2000
  190.6760  177.4750  140.9600 C   0  0  0  0  0  3  0  0  0  0  0  0
  188.0070  177.7800  141.7790 C   0  0  0  0  0  0  0  0  0  0  0  0
  190.3570  177.4840  142.3180 C   0  0  0  0  0  3  0  0  0  0  0  0
  189.6700  177.6310  140.0070 C   0  0  0  0  0  0  0  0  0  0  0  0
  188.3440  177.7720  140.4160 C   0  0  0  0  0  3  0  0  0  0  0  0
  189.0300  177.6440  142.7530 C   0  0  0  0  0  0  0  0  0  0  0  0
  189.5960  177.7750  146.5040 C   0  0  0  0  0  3  0  0  0  0  0  0
  187.2150  177.6580  146.1010 C   0  0  0  0  0  3  0  0  0  0  0  0
  188.7610  177.6570  144.2180 C   0  0  0  0  0  0  0  0  0  0  0  0
  188.2880  177.7310  146.9920 C   0  0  0  0  0  0  0  0  0  0  0  0
  187.4520  177.6240  144.7240 C   0  0  0  0  0  3  0  0  0  0  0  0
  189.8300  177.7420  145.1270 C   0  0  0  0  0  3  0  0  0  0  0  0
  188.0460  177.7640  148.4060 C   0  0  0  0  0  0  0  0  0  0  0  0
  187.8500  177.7890  149.5470 N   0  0  0  0  0  0  0  0  0  0  0  0
  190.0040  177.5990  138.5560 C   0  0  0  0  0  2  0  0  0  0  0  0
  188.7930  177.7280  137.7630 N   0  0  0  0  0  2  0  0  0  0  0  0
  188.9490  178.9140  136.9400 C   0  0  0  0  0  1  0  0  0  0  0  0
  186.6320  177.8890  142.1680 N   0  0  0  0  0  2  0  0  0  0  0  0
  180.0150  180.0470  142.8590 C   0  0  0  0  0  1  0  0  0  0  0  0
  184.5870  179.5250  143.8380 O   0  0  0  0  0  0  0  0  0  0  0  0
  183.7980  178.3070  140.7250 C   0  0  1  0  0  3  0  0  0  0  0  0
  181.3490  179.5000  143.0310 N   0  0  0  0  0  2  0  0  0  0  0  0
  182.1250  179.0390  141.9240 C   0  0  0  0  0  0  0  0  0  0  0  0
  182.7160  178.5810  139.8500 N   0  0  0  0  0  2  0  0  0  0  0  0
  184.5780  179.0380  142.6770 C   0  0  0  0  0  0  0  0  0  0  0  0
  185.0620  178.6280  140.4640 C   0  0  0  0  0  2  0  0  0  0  0  0
  185.7540  178.9800  141.7600 C   0  0  2  0  0  3  0  0  0  0  0  0
  181.7000  179.0530  140.6960 N   0  0  0  0  0  0  0  0  0  0  0  0
  183.4300  178.4900  142.0650 N   0  0  0  0  0  0  0  0  0  0  0  0
  1  3  1  0  0  0  0
  2 18  1  0  0  0  0
  2  6  1  0  0  0  0
  3  6  2  0  0  0  0
  4  5  1  0  0  0  0
  4  1  2  0  0  0  0
  5  2  2  0  0  0  0
  6  9  1  0  0  0  0
  7 10  1  0  0  0  0
  8 10  2  0  0  0  0
  9 11  2  0  0  0  0
  9 12  1  0  0  0  0
 10 13  1  0  0  0  0
 11  8  1  0  0  0  0
 12  7  2  0  0  0  0
 13 14  3  0  0  0  0
 15  4  1  0  0  0  0
 16 15  1  0  0  0  0
 17 16  1  0  0  0  0
 19 22  1  0  0  0  0
 21 26  1  6  0  0  0
 21 29  1  0  0  0  0
 23 29  1  0  0  0  0
 23 22  1  0  0  0  0
 24 28  1  0  0  0  0
 24 21  1  0  0  0  0
 25 20  2  0  0  0  0
 26 27  1  0  0  0  0
 27 18  1  1  0  0  0
 27 25  1  0  0  0  0
 28 23  2  0  0  0  0
 29 25  1  0  0  0  0
M  END
>  <MODEL>
9

>  <REMARK>
 VINA RESULT:      -7.9      1.999      6.785
  Name = 
  6 active torsions:
  status: ('A' for Active; 'I' for Inactive)
    1  A    between atoms: C_1  and  C_12
    2  A    between atoms: C_4  and  C_17
    3  A    between atoms: C_4  and  N_23
    4  A    between atoms: C_11  and  C_27
    5  A    between atoms: C_15  and  N_21
    6  A    between atoms: C_20  and  N_21
                            x       y       z     vdW  Elec       q    Type
                         _______ _______ _______ _____ _____    ______ ____

>  <TORSDO>
F 6

$$$$
