=
 OpenBabel10232409423D

 35 40  0  0  0  0  0  0  0  0999 V2000
  183.1290  179.1400  143.5780 C   0  0  0  0  0  0  0  0  0  0  0  0
  186.4460  178.1050  144.2300 C   0  0  0  0  0  3  0  0  0  0  0  0
  182.3450  177.9870  140.4020 C   0  0  0  0  0  3  0  0  0  0  0  0
  180.0600  177.7680  142.2190 C   0  0  0  0  0  2  0  0  0  0  0  0
  181.2710  178.5400  142.4860 N   0  0  0  0  0  0  0  0  0  0  0  0
  186.5380  178.0610  145.6370 C   0  0  0  0  0  0  0  0  0  0  0  0
  181.7360  178.8740  143.7700 N   0  0  0  0  0  2  0  0  0  0  0  0
  179.9820  177.3890  140.7560 C   0  0  0  0  0  3  0  0  0  0  0  0
  184.8300  178.5430  142.3420 C   0  0  0  0  0  0  0  0  0  0  0  0
  183.5450  178.9580  142.3180 N   0  0  0  0  0  0  0  0  0  0  0  0
  182.3950  178.5240  141.6170 C   0  0  0  0  0  0  0  0  0  0  0  0
  185.4120  178.3980  146.4280 C   0  0  0  0  0  3  0  0  0  0  0  0
  184.1670  178.8910  144.4490 C   0  0  0  0  0  0  0  0  0  0  0  0
  184.2010  178.8000  145.8360 C   0  0  0  0  0  3  0  0  0  0  0  0
  181.0440  177.4650  139.9360 C   0  0  0  0  0  3  0  0  0  0  0  0
  185.2500  178.5390  143.6650 C   0  0  0  0  0  0  0  0  0  0  0  0
  187.9670  177.3720  147.6250 C   0  0  0  0  0  3  0  0  0  0  0  0
  189.2410  176.9990  147.8480 N   0  0  0  0  0  2  0  0  0  0  0  0
  189.0000  177.4180  145.6350 C   0  0  0  0  0  3  0  0  0  0  0  0
  189.8540  177.0370  146.6500 C   0  0  0  0  0  0  0  0  0  0  0  0
  187.7960  177.6340  146.2780 C   0  0  0  0  0  0  0  0  0  0  0  0
  191.2750  176.6460  146.4500 C   0  0  0  0  0  2  0  0  0  0  0  0
  192.0130  176.9630  147.5900 O   0  0  0  0  0  1  0  0  0  0  0  0
  185.5860  178.0050  141.1700 C   0  0  0  0  0  2  0  0  0  0  0  0
  185.6770  179.0360  140.0490 C   0  0  0  0  0  2  0  0  0  0  0  0
  185.3890  178.4230  138.6840 C   0  0  0  0  0  2  0  0  0  0  0  0
  186.6660  177.9180  138.0390 C   0  0  0  0  0  2  0  0  0  0  0  0
  187.8080  178.5710  138.6590 N   0  0  0  0  0  2  0  0  0  0  0  0
  191.1620  176.7740  138.4670 C   0  0  0  0  0  2  0  0  0  0  0  0
  189.0020  177.8760  139.0310 C   0  0  0  0  0  0  0  0  0  0  0  0
  190.5620  176.5470  142.1100 C   0  0  0  0  0  1  0  0  0  0  0  0
  189.9130  177.5310  138.1100 C   0  0  0  0  0  3  0  0  0  0  0  0
  190.2190  176.5440  140.7010 N   0  0  0  0  0  0  0  0  0  0  0  0
  191.4420  176.8540  139.9660 C   0  0  0  0  0  2  0  0  0  0  0  0
  189.2730  177.6420  140.4950 C   0  0  0  0  0  2  0  0  0  0  0  0
  1  7  1  0  0  0  0
  1 13  2  0  0  0  0
  2  6  2  0  0  0  0
  3 11  2  0  0  0  0
  4  5  1  0  0  0  0
  5  7  1  0  0  0  0
  6 21  1  0  0  0  0
  6 12  1  0  0  0  0
  8  4  1  0  0  0  0
  9 16  2  0  0  0  0
 10  9  1  0  0  0  0
 10  1  1  0  0  0  0
 11 10  1  0  0  0  0
 11  5  1  0  0  0  0
 13 14  1  0  0  0  0
 14 12  2  0  0  0  0
 15  3  1  0  0  0  0
 15  8  2  0  0  0  0
 16  2  1  0  0  0  0
 16 13  1  0  0  0  0
 17 18  1  0  0  0  0
 19 21  1  0  0  0  0
 19 20  2  0  0  0  0
 20 18  1  0  0  0  0
 21 17  2  0  0  0  0
 22 20  1  0  0  0  0
 22 23  1  0  0  0  0
 24  9  1  0  0  0  0
 25 24  1  0  0  0  0
 26 25  1  0  0  0  0
 27 28  1  0  0  0  0
 27 26  1  0  0  0  0
 28 30  1  0  0  0  0
 29 34  1  0  0  0  0
 30 35  1  0  0  0  0
 32 29  1  0  0  0  0
 32 30  2  0  0  0  0
 33 31  1  0  0  0  0
 34 33  1  0  0  0  0
 35 33  1  0  0  0  0
M  END
>  <MODEL>
1

>  <REMARK>
 VINA RESULT:      -9.4      0.000      0.000
  Name = 
  8 active torsions:
  status: ('A' for Active; 'I' for Inactive)
    1  A    between atoms: C_5  and  CA_20
    2  A    between atoms: C_6  and  N_21
    3  A    between atoms: C_8  and  C_23
    4  A    between atoms: C_8  and  C_27
    5  A    between atoms: C_13  and  C_17
    6  A    between atoms: C_13  and  C_27
    7  A    between atoms: C_14  and  C_31
    8  A    between atoms: C_17  and  N_21
                            x       y       z     vdW  Elec       q    Type
                         _______ _______ _______ _____ _____    ______ ____

>  <TORSDO>
F 8

$$$$
=
 OpenBabel10232409423D

 35 40  0  0  0  0  0  0  0  0999 V2000
  185.4540  178.0990  137.9680 C   0  0  0  0  0  0  0  0  0  0  0  0
  186.0420  178.6480  141.4100 C   0  0  0  0  0  3  0  0  0  0  0  0
  188.4560  177.0060  136.6190 C   0  0  0  0  0  3  0  0  0  0  0  0
  186.1730  175.6000  135.4410 C   0  0  0  0  0  2  0  0  0  0  0  0
  186.0830  176.8140  136.2480 N   0  0  0  0  0  0  0  0  0  0  0  0
  184.7740  178.5240  142.0160 C   0  0  0  0  0  0  0  0  0  0  0  0
  184.9440  177.2080  136.9720 N   0  0  0  0  0  2  0  0  0  0  0  0
  187.6010  175.3610  134.9970 C   0  0  0  0  0  3  0  0  0  0  0  0
  187.2280  178.4630  139.1900 C   0  0  0  0  0  0  0  0  0  0  0  0
  186.7850  178.2420  137.9340 N   0  0  0  0  0  0  0  0  0  0  0  0
  187.2130  177.3940  136.8860 C   0  0  0  0  0  0  0  0  0  0  0  0
  183.6380  178.2350  141.2190 C   0  0  0  0  0  3  0  0  0  0  0  0
  185.0010  178.2770  139.2570 C   0  0  0  0  0  0  0  0  0  0  0  0
  183.7460  178.0870  139.8250 C   0  0  0  0  0  3  0  0  0  0  0  0
  188.6450  175.9890  135.5630 C   0  0  0  0  0  3  0  0  0  0  0  0
  186.1220  178.5340  140.0250 C   0  0  0  0  0  0  0  0  0  0  0  0
  183.4900  179.0340  144.1510 C   0  0  0  0  0  3  0  0  0  0  0  0
  183.7340  179.0510  145.4740 N   0  0  0  0  0  2  0  0  0  0  0  0
  185.6370  178.4450  144.4080 C   0  0  0  0  0  3  0  0  0  0  0  0
  185.0260  178.7040  145.6170 C   0  0  0  0  0  0  0  0  0  0  0  0
  184.6400  178.6660  143.4770 C   0  0  0  0  0  0  0  0  0  0  0  0
  185.6870  178.5560  146.9410 C   0  0  0  0  0  2  0  0  0  0  0  0
  185.8210  179.8080  147.5410 O   0  0  0  0  0  1  0  0  0  0  0  0
  188.6610  178.4400  139.6180 C   0  0  0  0  0  2  0  0  0  0  0  0
  189.0450  177.0790  140.1900 C   0  0  0  0  0  2  0  0  0  0  0  0
  190.1760  177.1850  141.2060 C   0  0  0  0  0  2  0  0  0  0  0  0
  189.7270  177.9530  142.4350 C   0  0  0  0  0  2  0  0  0  0  0  0
  190.7940  177.9430  143.4240 N   0  0  0  0  0  2  0  0  0  0  0  0
  189.2470  177.7200  146.8980 C   0  0  0  0  0  2  0  0  0  0  0  0
  190.5850  177.6160  144.8000 C   0  0  0  0  0  0  0  0  0  0  0  0
  192.3460  175.7880  147.4900 C   0  0  0  0  0  1  0  0  0  0  0  0
  189.4810  178.0230  145.4440 C   0  0  0  0  0  3  0  0  0  0  0  0
  191.5200  176.8460  146.9380 N   0  0  0  0  0  0  0  0  0  0  0  0
  190.1520  176.5840  147.3730 C   0  0  0  0  0  2  0  0  0  0  0  0
  191.5710  176.7040  145.4830 C   0  0  0  0  0  2  0  0  0  0  0  0
  1 13  2  0  0  0  0
  2  6  2  0  0  0  0
  3 11  2  0  0  0  0
  4  5  1  0  0  0  0
  5 11  1  0  0  0  0
  5  7  1  0  0  0  0
  6 21  1  0  0  0  0
  7  1  1  0  0  0  0
  8  4  1  0  0  0  0
  8 15  2  0  0  0  0
  9 24  1  0  0  0  0
  9 16  2  0  0  0  0
 10  1  1  0  0  0  0
 10  9  1  0  0  0  0
 11 10  1  0  0  0  0
 12  6  1  0  0  0  0
 13 14  1  0  0  0  0
 13 16  1  0  0  0  0
 14 12  2  0  0  0  0
 15  3  1  0  0  0  0
 16  2  1  0  0  0  0
 17 18  1  0  0  0  0
 18 20  1  0  0  0  0
 19 20  2  0  0  0  0
 20 22  1  0  0  0  0
 21 17  2  0  0  0  0
 21 19  1  0  0  0  0
 22 23  1  0  0  0  0
 24 25  1  0  0  0  0
 25 26  1  0  0  0  0
 26 27  1  0  0  0  0
 27 28  1  0  0  0  0
 28 30  1  0  0  0  0
 29 34  1  0  0  0  0
 30 32  2  0  0  0  0
 30 35  1  0  0  0  0
 32 29  1  0  0  0  0
 33 34  1  0  0  0  0
 33 31  1  0  0  0  0
 35 33  1  0  0  0  0
M  END
>  <MODEL>
2

>  <REMARK>
 VINA RESULT:      -9.2      2.207      6.248
  Name = 
  8 active torsions:
  status: ('A' for Active; 'I' for Inactive)
    1  A    between atoms: C_5  and  CA_20
    2  A    between atoms: C_6  and  N_21
    3  A    between atoms: C_8  and  C_23
    4  A    between atoms: C_8  and  C_27
    5  A    between atoms: C_13  and  C_17
    6  A    between atoms: C_13  and  C_27
    7  A    between atoms: C_14  and  C_31
    8  A    between atoms: C_17  and  N_21
                            x       y       z     vdW  Elec       q    Type
                         _______ _______ _______ _____ _____    ______ ____

>  <TORSDO>
F 8

$$$$
=
 OpenBabel10232409423D

 35 40  0  0  0  0  0  0  0  0999 V2000
  183.0310  179.1810  143.6870 C   0  0  0  0  0  0  0  0  0  0  0  0
  186.3810  178.2380  144.3090 C   0  0  0  0  0  3  0  0  0  0  0  0
  182.3220  178.2080  140.4350 C   0  0  0  0  0  3  0  0  0  0  0  0
  180.0310  177.7810  142.2080 C   0  0  0  0  0  2  0  0  0  0  0  0
  181.2080  178.5810  142.5380 N   0  0  0  0  0  0  0  0  0  0  0  0
  186.4620  178.1050  145.7120 C   0  0  0  0  0  0  0  0  0  0  0  0
  181.6480  178.8490  143.8460 N   0  0  0  0  0  2  0  0  0  0  0  0
  179.9820  177.4950  140.7220 C   0  0  0  0  0  3  0  0  0  0  0  0
  184.7650  178.7340  142.4350 C   0  0  0  0  0  0  0  0  0  0  0  0
  183.4650  179.0990  142.4230 N   0  0  0  0  0  0  0  0  0  0  0  0
  182.3400  178.6660  141.6830 C   0  0  0  0  0  0  0  0  0  0  0  0
  185.3160  178.3460  146.5100 C   0  0  0  0  0  3  0  0  0  0  0  0
  184.0700  178.9170  144.5520 C   0  0  0  0  0  0  0  0  0  0  0  0
  184.0960  178.7370  145.9310 C   0  0  0  0  0  3  0  0  0  0  0  0
  181.0470  177.6660  139.9210 C   0  0  0  0  0  3  0  0  0  0  0  0
  185.1740  178.6610  143.7600 C   0  0  0  0  0  0  0  0  0  0  0  0
  187.9390  177.5020  147.6920 C   0  0  0  0  0  3  0  0  0  0  0  0
  189.2100  177.1120  147.8980 N   0  0  0  0  0  2  0  0  0  0  0  0
  188.9080  177.4060  145.6730 C   0  0  0  0  0  3  0  0  0  0  0  0
  189.7850  177.0660  146.6820 C   0  0  0  0  0  0  0  0  0  0  0  0
  187.7300  177.6880  146.3380 C   0  0  0  0  0  0  0  0  0  0  0  0
  191.1900  176.6290  146.4630 C   0  0  0  0  0  2  0  0  0  0  0  0
  191.9440  176.8840  147.6070 O   0  0  0  0  0  1  0  0  0  0  0  0
  185.5530  178.3040  141.2400 C   0  0  0  0  0  2  0  0  0  0  0  0
  186.9670  178.8750  141.2740 C   0  0  0  0  0  2  0  0  0  0  0  0
  187.9930  177.8940  140.7190 C   0  0  0  0  0  2  0  0  0  0  0  0
  188.7570  178.5090  139.5620 C   0  0  0  0  0  2  0  0  0  0  0  0
  187.8660  178.6560  138.4220 N   0  0  0  0  0  2  0  0  0  0  0  0
  185.0140  176.5080  137.0940 C   0  0  0  0  0  2  0  0  0  0  0  0
  187.1370  177.5670  137.8500 C   0  0  0  0  0  0  0  0  0  0  0  0
  187.8280  174.1650  136.5750 C   0  0  0  0  0  1  0  0  0  0  0  0
  185.8120  177.6480  137.6650 C   0  0  0  0  0  3  0  0  0  0  0  0
  187.0520  175.1840  137.2550 N   0  0  0  0  0  0  0  0  0  0  0  0
  185.9220  175.5040  136.3870 C   0  0  0  0  0  2  0  0  0  0  0  0
  187.9040  176.3700  137.3500 C   0  0  0  0  0  2  0  0  0  0  0  0
  1  7  1  0  0  0  0
  1 13  2  0  0  0  0
  2  6  2  0  0  0  0
  3 11  2  0  0  0  0
  4  5  1  0  0  0  0
  5  7  1  0  0  0  0
  6 21  1  0  0  0  0
  6 12  1  0  0  0  0
  8  4  1  0  0  0  0
  9 16  2  0  0  0  0
 10  9  1  0  0  0  0
 10  1  1  0  0  0  0
 11 10  1  0  0  0  0
 11  5  1  0  0  0  0
 13 14  1  0  0  0  0
 14 12  2  0  0  0  0
 15  3  1  0  0  0  0
 15  8  2  0  0  0  0
 16  2  1  0  0  0  0
 16 13  1  0  0  0  0
 17 18  1  0  0  0  0
 19 21  1  0  0  0  0
 19 20  2  0  0  0  0
 20 18  1  0  0  0  0
 21 17  2  0  0  0  0
 22 20  1  0  0  0  0
 22 23  1  0  0  0  0
 24 25  1  0  0  0  0
 24  9  1  0  0  0  0
 26 25  1  0  0  0  0
 27 26  1  0  0  0  0
 28 27  1  0  0  0  0
 29 32  1  0  0  0  0
 30 28  1  0  0  0  0
 31 33  1  0  0  0  0
 32 30  2  0  0  0  0
 33 35  1  0  0  0  0
 34 29  1  0  0  0  0
 34 33  1  0  0  0  0
 35 30  1  0  0  0  0
M  END
>  <MODEL>
3

>  <REMARK>
 VINA RESULT:      -9.2      1.286      2.449
  Name = 
  8 active torsions:
  status: ('A' for Active; 'I' for Inactive)
    1  A    between atoms: C_5  and  CA_20
    2  A    between atoms: C_6  and  N_21
    3  A    between atoms: C_8  and  C_23
    4  A    between atoms: C_8  and  C_27
    5  A    between atoms: C_13  and  C_17
    6  A    between atoms: C_13  and  C_27
    7  A    between atoms: C_14  and  C_31
    8  A    between atoms: C_17  and  N_21
                            x       y       z     vdW  Elec       q    Type
                         _______ _______ _______ _____ _____    ______ ____

>  <TORSDO>
F 8

$$$$
=
 OpenBabel10232409423D

 35 40  0  0  0  0  0  0  0  0999 V2000
  184.6320  178.6830  139.4850 C   0  0  0  0  0  0  0  0  0  0  0  0
  186.5150  178.5730  142.4740 C   0  0  0  0  0  3  0  0  0  0  0  0
  186.7400  177.6010  136.9530 C   0  0  0  0  0  3  0  0  0  0  0  0
  184.0100  176.6140  136.5730 C   0  0  0  0  0  2  0  0  0  0  0  0
  184.3960  177.6720  137.5040 N   0  0  0  0  0  0  0  0  0  0  0  0
  185.5540  178.4490  143.5000 C   0  0  0  0  0  0  0  0  0  0  0  0
  183.6700  178.0240  138.6550 N   0  0  0  0  0  2  0  0  0  0  0  0
  185.1250  176.3400  135.5860 C   0  0  0  0  0  3  0  0  0  0  0  0
  186.7630  178.6820  139.9660 C   0  0  0  0  0  0  0  0  0  0  0  0
  185.8630  178.7210  138.9600 N   0  0  0  0  0  0  0  0  0  0  0  0
  185.7510  178.0370  137.7270 C   0  0  0  0  0  0  0  0  0  0  0  0
  184.1760  178.3970  143.1720 C   0  0  0  0  0  3  0  0  0  0  0  0
  184.7140  178.6700  140.8600 C   0  0  0  0  0  0  0  0  0  0  0  0
  183.7420  178.4870  141.8380 C   0  0  0  0  0  3  0  0  0  0  0  0
  186.3820  176.7730  135.7830 C   0  0  0  0  0  3  0  0  0  0  0  0
  186.0630  178.6960  141.1640 C   0  0  0  0  0  0  0  0  0  0  0  0
  185.3340  178.8890  145.9950 C   0  0  0  0  0  3  0  0  0  0  0  0
  186.0100  178.5850  147.1190 N   0  0  0  0  0  2  0  0  0  0  0  0
  187.1100  177.6770  145.3590 C   0  0  0  0  0  3  0  0  0  0  0  0
  187.0770  177.8650  146.7250 C   0  0  0  0  0  0  0  0  0  0  0  0
  185.9880  178.3440  144.9060 C   0  0  0  0  0  0  0  0  0  0  0  0
  188.0650  177.2880  147.6770 C   0  0  0  0  0  2  0  0  0  0  0  0
  188.0160  177.9860  148.8830 O   0  0  0  0  0  1  0  0  0  0  0  0
  188.2340  178.4680  139.8010 C   0  0  0  0  0  2  0  0  0  0  0  0
  188.5840  176.9840  139.8450 C   0  0  0  0  0  2  0  0  0  0  0  0
  189.9150  176.6910  139.1630 C   0  0  0  0  0  2  0  0  0  0  0  0
  191.0720  176.9150  140.1190 C   0  0  0  0  0  2  0  0  0  0  0  0
  190.7930  176.2420  141.3780 N   0  0  0  0  0  2  0  0  0  0  0  0
  190.4910  178.9120  144.0790 C   0  0  0  0  0  2  0  0  0  0  0  0
  190.8280  176.9040  142.6450 C   0  0  0  0  0  0  0  0  0  0  0  0
  191.7900  176.1210  146.1300 C   0  0  0  0  0  1  0  0  0  0  0  0
  190.4380  178.1800  142.7660 C   0  0  0  0  0  3  0  0  0  0  0  0
  191.6620  176.9640  144.9570 N   0  0  0  0  0  0  0  0  0  0  0  0
  190.6090  177.9330  145.2460 C   0  0  0  0  0  2  0  0  0  0  0  0
  191.2020  176.1040  143.8660 C   0  0  0  0  0  2  0  0  0  0  0  0
  1 13  2  0  0  0  0
  2  6  2  0  0  0  0
  3 11  2  0  0  0  0
  4  5  1  0  0  0  0
  5 11  1  0  0  0  0
  5  7  1  0  0  0  0
  6 21  1  0  0  0  0
  7  1  1  0  0  0  0
  8 15  2  0  0  0  0
  8  4  1  0  0  0  0
  9 16  2  0  0  0  0
 10  1  1  0  0  0  0
 10  9  1  0  0  0  0
 11 10  1  0  0  0  0
 12  6  1  0  0  0  0
 13 16  1  0  0  0  0
 13 14  1  0  0  0  0
 14 12  2  0  0  0  0
 15  3  1  0  0  0  0
 16  2  1  0  0  0  0
 17 18  1  0  0  0  0
 19 20  2  0  0  0  0
 20 18  1  0  0  0  0
 20 22  1  0  0  0  0
 21 19  1  0  0  0  0
 21 17  2  0  0  0  0
 22 23  1  0  0  0  0
 24 25  1  0  0  0  0
 24  9  1  0  0  0  0
 26 25  1  0  0  0  0
 26 27  1  0  0  0  0
 27 28  1  0  0  0  0
 28 30  1  0  0  0  0
 29 34  1  0  0  0  0
 30 32  2  0  0  0  0
 30 35  1  0  0  0  0
 32 29  1  0  0  0  0
 33 34  1  0  0  0  0
 33 31  1  0  0  0  0
 35 33  1  0  0  0  0
M  END
>  <MODEL>
4

>  <REMARK>
 VINA RESULT:      -8.8      2.253      4.484
  Name = 
  8 active torsions:
  status: ('A' for Active; 'I' for Inactive)
    1  A    between atoms: C_5  and  CA_20
    2  A    between atoms: C_6  and  N_21
    3  A    between atoms: C_8  and  C_23
    4  A    between atoms: C_8  and  C_27
    5  A    between atoms: C_13  and  C_17
    6  A    between atoms: C_13  and  C_27
    7  A    between atoms: C_14  and  C_31
    8  A    between atoms: C_17  and  N_21
                            x       y       z     vdW  Elec       q    Type
                         _______ _______ _______ _____ _____    ______ ____

>  <TORSDO>
F 8

$$$$
=
 OpenBabel10232409423D

 35 40  0  0  0  0  0  0  0  0999 V2000
  184.4630  179.0010  142.0300 C   0  0  0  0  0  0  0  0  0  0  0  0
  187.4650  178.1420  143.6870 C   0  0  0  0  0  3  0  0  0  0  0  0
  184.9180  178.1950  138.6880 C   0  0  0  0  0  3  0  0  0  0  0  0
  182.1970  177.5840  139.5790 C   0  0  0  0  0  2  0  0  0  0  0  0
  183.1550  178.4050  140.3160 N   0  0  0  0  0  0  0  0  0  0  0  0
  187.0870  177.9300  145.0300 C   0  0  0  0  0  0  0  0  0  0  0  0
  183.1250  178.6100  141.7060 N   0  0  0  0  0  2  0  0  0  0  0  0
  182.6550  177.3840  138.1500 C   0  0  0  0  0  3  0  0  0  0  0  0
  186.5340  178.6900  141.4070 C   0  0  0  0  0  0  0  0  0  0  0  0
  185.2930  179.0080  140.9800 N   0  0  0  0  0  0  0  0  0  0  0  0
  184.4990  178.5800  139.8890 C   0  0  0  0  0  0  0  0  0  0  0  0
  185.7300  178.0830  145.4120 C   0  0  0  0  0  3  0  0  0  0  0  0
  185.1710  178.7240  143.1790 C   0  0  0  0  0  0  0  0  0  0  0  0
  184.7500  178.4640  144.4790 C   0  0  0  0  0  3  0  0  0  0  0  0
  183.9150  177.6400  137.7570 C   0  0  0  0  0  3  0  0  0  0  0  0
  186.4860  178.5530  142.7870 C   0  0  0  0  0  0  0  0  0  0  0  0
  187.8800  177.3670  147.3800 C   0  0  0  0  0  3  0  0  0  0  0  0
  189.0230  176.9770  147.9730 N   0  0  0  0  0  2  0  0  0  0  0  0
  189.4190  177.2190  145.7560 C   0  0  0  0  0  3  0  0  0  0  0  0
  189.9410  176.8990  146.9920 C   0  0  0  0  0  0  0  0  0  0  0  0
  188.0970  177.5220  146.0230 C   0  0  0  0  0  0  0  0  0  0  0  0
  191.3410  176.4510  147.2230 C   0  0  0  0  0  2  0  0  0  0  0  0
  191.9320  176.1140  146.0050 O   0  0  0  0  0  1  0  0  0  0  0  0
  187.6940  178.3580  140.5230 C   0  0  0  0  0  2  0  0  0  0  0  0
  188.9650  178.1400  141.3380 C   0  0  0  0  0  2  0  0  0  0  0  0
  189.7670  176.9460  140.8350 C   0  0  0  0  0  2  0  0  0  0  0  0
  190.9260  177.4000  139.9680 C   0  0  0  0  0  2  0  0  0  0  0  0
  190.7730  176.8460  138.6320 N   0  0  0  0  0  2  0  0  0  0  0  0
  188.0490  178.4500  136.5050 C   0  0  0  0  0  2  0  0  0  0  0  0
  189.5960  177.0250  137.8380 C   0  0  0  0  0  0  0  0  0  0  0  0
  186.7600  174.9840  136.6260 C   0  0  0  0  0  1  0  0  0  0  0  0
  189.2930  178.2230  137.3180 C   0  0  0  0  0  3  0  0  0  0  0  0
  187.3980  176.1860  137.1280 N   0  0  0  0  0  0  0  0  0  0  0  0
  187.4680  177.1260  136.0130 C   0  0  0  0  0  2  0  0  0  0  0  0
  188.7640  175.8160  137.4990 C   0  0  0  0  0  2  0  0  0  0  0  0
  1 13  2  0  0  0  0
  2  6  2  0  0  0  0
  3 11  2  0  0  0  0
  4  5  1  0  0  0  0
  5  7  1  0  0  0  0
  6 12  1  0  0  0  0
  6 21  1  0  0  0  0
  7  1  1  0  0  0  0
  8  4  1  0  0  0  0
  9 16  2  0  0  0  0
 10  9  1  0  0  0  0
 10  1  1  0  0  0  0
 11  5  1  0  0  0  0
 11 10  1  0  0  0  0
 13 14  1  0  0  0  0
 14 12  2  0  0  0  0
 15  8  2  0  0  0  0
 15  3  1  0  0  0  0
 16 13  1  0  0  0  0
 16  2  1  0  0  0  0
 17 18  1  0  0  0  0
 19 21  1  0  0  0  0
 19 20  2  0  0  0  0
 20 22  1  0  0  0  0
 20 18  1  0  0  0  0
 21 17  2  0  0  0  0
 23 22  1  0  0  0  0
 24 25  1  0  0  0  0
 24  9  1  0  0  0  0
 26 25  1  0  0  0  0
 27 26  1  0  0  0  0
 28 27  1  0  0  0  0
 29 32  1  0  0  0  0
 30 28  1  0  0  0  0
 31 33  1  0  0  0  0
 32 30  2  0  0  0  0
 33 35  1  0  0  0  0
 34 29  1  0  0  0  0
 34 33  1  0  0  0  0
 35 30  1  0  0  0  0
M  END
>  <MODEL>
5

>  <REMARK>
 VINA RESULT:      -8.7      1.512      2.968
  Name = 
  8 active torsions:
  status: ('A' for Active; 'I' for Inactive)
    1  A    between atoms: C_5  and  CA_20
    2  A    between atoms: C_6  and  N_21
    3  A    between atoms: C_8  and  C_23
    4  A    between atoms: C_8  and  C_27
    5  A    between atoms: C_13  and  C_17
    6  A    between atoms: C_13  and  C_27
    7  A    between atoms: C_14  and  C_31
    8  A    between atoms: C_17  and  N_21
                            x       y       z     vdW  Elec       q    Type
                         _______ _______ _______ _____ _____    ______ ____

>  <TORSDO>
F 8

$$$$
=
 OpenBabel10232409423D

 35 40  0  0  1  0  0  0  0  0999 V2000
  186.3580  177.5940  145.9960 C   0  0  0  0  0  0  0  0  0  0  0  0
  185.9820  177.8670  142.4920 C   0  0  0  0  0  3  0  0  0  0  0  0
  189.7110  176.9240  146.5760 C   0  0  0  0  0  3  0  0  0  0  0  0
  188.6130  178.7370  148.5960 C   0  0  0  0  0  2  0  0  0  0  0  0
  187.8190  177.9550  147.6520 N   0  0  0  0  0  0  0  0  0  0  0  0
  184.8330  178.6680  142.3150 C   0  0  0  0  0  0  0  0  0  0  0  0
  186.5180  178.2890  147.2370 N   0  0  0  0  0  2  0  0  0  0  0  0
  190.0400  178.2320  148.6370 C   0  0  0  0  0  3  0  0  0  0  0  0
  187.4980  176.9030  144.2640 C   0  0  0  0  0  0  0  0  0  0  0  0
  187.4470  176.9150  145.6130 N   0  0  0  0  0  0  0  0  0  0  0  0
  188.4060  177.1730  146.6210 C   0  0  0  0  0  0  0  0  0  0  0  0
  184.1330  179.1550  143.4470 C   0  0  0  0  0  3  0  0  0  0  0  0
  185.6490  177.9960  144.8860 C   0  0  0  0  0  0  0  0  0  0  0  0
  184.5490  178.8370  144.7520 C   0  0  0  0  0  3  0  0  0  0  0  0
  190.5440  177.4230  147.6890 C   0  0  0  0  0  3  0  0  0  0  0  0
  186.3560  177.5350  143.7900 C   0  0  0  0  0  0  0  0  0  0  0  0
  185.1990  179.1630  139.8470 C   0  0  0  0  0  3  0  0  0  0  0  0
  184.4460  179.4780  138.7780 N   0  0  0  0  0  0  0  0  0  0  0  0
  183.0780  179.2510  140.5680 C   0  0  0  0  0  3  0  0  0  0  0  0
  183.1770  179.5360  139.2220 C   0  0  0  0  0  0  0  0  0  0  0  0
  184.3840  179.0190  140.9550 C   0  0  1  0  0  3  0  0  0  0  0  0
  182.0160  179.8110  138.3340 C   0  0  0  0  0  2  0  0  0  0  0  0
  181.9220  178.8160  137.3620 O   0  0  0  0  0  1  0  0  0  0  0  0
  188.6690  176.4600  143.4470 C   0  0  0  0  0  2  0  0  0  0  0  0
  189.5350  177.6460  143.0330 C   0  0  0  0  0  2  0  0  0  0  0  0
  191.0030  177.2590  142.8960 C   0  0  0  0  0  2  0  0  0  0  0  0
  191.4350  177.2890  141.4420 C   0  0  0  0  0  2  0  0  0  0  0  0
  190.4820  176.5350  140.6420 N   0  0  0  0  0  2  0  0  0  0  0  0
  188.3790  178.4140  138.0800 C   0  0  0  0  0  2  0  0  0  0  0  0
  189.9560  177.0080  139.3990 C   0  0  0  0  0  0  0  0  0  0  0  0
  190.4980  176.4310  135.7860 C   0  0  0  0  0  1  0  0  0  0  0  0
  188.9730  177.9200  139.3700 C   0  0  0  0  0  3  0  0  0  0  0  0
  189.7090  176.6990  136.9730 N   0  0  0  0  0  0  0  0  0  0  0  0
  189.2950  178.0970  136.8990 C   0  0  0  0  0  2  0  0  0  0  0  0
  190.6060  176.5500  138.1200 C   0  0  0  0  0  2  0  0  0  0  0  0
  1  7  1  0  0  0  0
  2 16  1  0  0  0  0
  3 11  2  0  0  0  0
  3 15  1  0  0  0  0
  4  8  1  0  0  0  0
  5  4  1  0  0  0  0
  6  2  2  0  0  0  0
  6 12  1  0  0  0  0
  7  5  1  0  0  0  0
  9 10  1  0  0  0  0
 10  1  1  0  0  0  0
 10 11  1  0  0  0  0
 11  5  1  0  0  0  0
 12 14  2  0  0  0  0
 13  1  2  0  0  0  0
 14 13  1  0  0  0  0
 15  8  2  0  0  0  0
 16  9  2  0  0  0  0
 16 13  1  0  0  0  0
 17 21  1  0  0  0  0
 18 20  1  0  0  0  0
 18 17  2  0  0  0  0
 19 21  1  0  0  0  0
 20 19  2  0  0  0  0
 21  6  1  6  0  0  0
 22 20  1  0  0  0  0
 23 22  1  0  0  0  0
 24  9  1  0  0  0  0
 25 24  1  0  0  0  0
 26 25  1  0  0  0  0
 27 26  1  0  0  0  0
 28 27  1  0  0  0  0
 29 32  1  0  0  0  0
 30 28  1  0  0  0  0
 31 33  1  0  0  0  0
 32 30  2  0  0  0  0
 33 35  1  0  0  0  0
 34 33  1  0  0  0  0
 34 29  1  0  0  0  0
 35 30  1  0  0  0  0
M  END
>  <MODEL>
6

>  <REMARK>
 VINA RESULT:      -8.6      3.208      7.155
  Name = 
  8 active torsions:
  status: ('A' for Active; 'I' for Inactive)
    1  A    between atoms: C_5  and  CA_20
    2  A    between atoms: C_6  and  N_21
    3  A    between atoms: C_8  and  C_23
    4  A    between atoms: C_8  and  C_27
    5  A    between atoms: C_13  and  C_17
    6  A    between atoms: C_13  and  C_27
    7  A    between atoms: C_14  and  C_31
    8  A    between atoms: C_17  and  N_21
                            x       y       z     vdW  Elec       q    Type
                         _______ _______ _______ _____ _____    ______ ____

>  <TORSDO>
F 8

$$$$
=
 OpenBabel10232409423D

 35 40  0  0  0  0  0  0  0  0999 V2000
  183.1210  179.0930  143.0720 C   0  0  0  0  0  0  0  0  0  0  0  0
  186.3340  178.1830  144.2310 C   0  0  0  0  0  3  0  0  0  0  0  0
  182.8480  177.8460  139.8480 C   0  0  0  0  0  3  0  0  0  0  0  0
  180.3270  177.5920  141.3150 C   0  0  0  0  0  2  0  0  0  0  0  0
  181.4620  178.4090  141.7360 N   0  0  0  0  0  0  0  0  0  0  0  0
  186.2190  178.1720  145.6370 C   0  0  0  0  0  0  0  0  0  0  0  0
  181.7230  178.7860  143.0650 N   0  0  0  0  0  2  0  0  0  0  0  0
  180.4760  177.1780  139.8670 C   0  0  0  0  0  3  0  0  0  0  0  0
  185.0020  178.5260  142.1150 C   0  0  0  0  0  0  0  0  0  0  0  0
  183.7230  178.8980  141.8920 N   0  0  0  0  0  0  0  0  0  0  0  0
  182.7020  178.4110  141.0420 C   0  0  0  0  0  0  0  0  0  0  0  0
  184.9790  178.4900  146.2450 C   0  0  0  0  0  3  0  0  0  0  0  0
  184.0260  178.8980  144.0920 C   0  0  0  0  0  0  0  0  0  0  0  0
  183.8580  178.8390  145.4720 C   0  0  0  0  0  3  0  0  0  0  0  0
  181.6450  177.2710  139.2100 C   0  0  0  0  0  3  0  0  0  0  0  0
  185.2230  178.5650  143.4850 C   0  0  0  0  0  0  0  0  0  0  0  0
  187.5080  178.0280  147.8250 C   0  0  0  0  0  3  0  0  0  0  0  0
  188.6930  177.5490  148.2470 N   0  0  0  0  0  2  0  0  0  0  0  0
  188.5210  177.1600  146.0230 C   0  0  0  0  0  3  0  0  0  0  0  0
  189.2950  177.0380  147.1580 C   0  0  0  0  0  0  0  0  0  0  0  0
  187.3800  177.8020  146.4670 C   0  0  0  0  0  0  0  0  0  0  0  0
  190.6190  176.3610  147.2040 C   0  0  0  0  0  2  0  0  0  0  0  0
  191.5940  177.2650  147.6250 O   0  0  0  0  0  1  0  0  0  0  0  0
  185.9380  177.9870  141.0820 C   0  0  0  0  0  2  0  0  0  0  0  0
  187.2630  178.7440  141.0880 C   0  0  0  0  0  2  0  0  0  0  0  0
  187.9820  178.6460  139.7480 C   0  0  0  0  0  2  0  0  0  0  0  0
  189.1330  177.6610  139.8230 C   0  0  0  0  0  2  0  0  0  0  0  0
  188.9970  176.8540  141.0250 N   0  0  0  0  0  2  0  0  0  0  0  0
  191.3150  175.8450  143.8750 C   0  0  0  0  0  2  0  0  0  0  0  0
  189.9110  176.9220  142.1230 C   0  0  0  0  0  0  0  0  0  0  0  0
  191.6000  179.5230  144.1370 C   0  0  0  0  0  1  0  0  0  0  0  0
  190.3760  175.8050  142.7010 C   0  0  0  0  0  3  0  0  0  0  0  0
  190.9400  178.2510  143.9160 N   0  0  0  0  0  0  0  0  0  0  0  0
  191.9680  177.2190  144.0080 C   0  0  0  0  0  2  0  0  0  0  0  0
  190.4340  178.2710  142.5430 C   0  0  0  0  0  2  0  0  0  0  0  0
  1 13  2  0  0  0  0
  2  6  2  0  0  0  0
  3 11  2  0  0  0  0
  4  5  1  0  0  0  0
  5  7  1  0  0  0  0
  6 12  1  0  0  0  0
  6 21  1  0  0  0  0
  7  1  1  0  0  0  0
  8  4  1  0  0  0  0
  9 16  2  0  0  0  0
 10  9  1  0  0  0  0
 10  1  1  0  0  0  0
 11  5  1  0  0  0  0
 11 10  1  0  0  0  0
 13 14  1  0  0  0  0
 14 12  2  0  0  0  0
 15  3  1  0  0  0  0
 15  8  2  0  0  0  0
 16 13  1  0  0  0  0
 16  2  1  0  0  0  0
 17 18  1  0  0  0  0
 19 21  1  0  0  0  0
 19 20  2  0  0  0  0
 20 22  1  0  0  0  0
 20 18  1  0  0  0  0
 21 17  2  0  0  0  0
 22 23  1  0  0  0  0
 24 25  1  0  0  0  0
 24  9  1  0  0  0  0
 26 27  1  0  0  0  0
 26 25  1  0  0  0  0
 27 28  1  0  0  0  0
 28 30  1  0  0  0  0
 29 34  1  0  0  0  0
 30 35  1  0  0  0  0
 30 32  2  0  0  0  0
 32 29  1  0  0  0  0
 33 34  1  0  0  0  0
 33 31  1  0  0  0  0
 35 33  1  0  0  0  0
M  END
>  <MODEL>
7

>  <REMARK>
 VINA RESULT:      -8.5      1.301      2.123
  Name = 
  8 active torsions:
  status: ('A' for Active; 'I' for Inactive)
    1  A    between atoms: C_5  and  CA_20
    2  A    between atoms: C_6  and  N_21
    3  A    between atoms: C_8  and  C_23
    4  A    between atoms: C_8  and  C_27
    5  A    between atoms: C_13  and  C_17
    6  A    between atoms: C_13  and  C_27
    7  A    between atoms: C_14  and  C_31
    8  A    between atoms: C_17  and  N_21
                            x       y       z     vdW  Elec       q    Type
                         _______ _______ _______ _____ _____    ______ ____

>  <TORSDO>
F 8

$$$$
=
 OpenBabel10232409423D

 35 40  0  0  1  0  0  0  0  0999 V2000
  184.1510  179.2860  144.6820 C   0  0  0  0  0  0  0  0  0  0  0  0
  187.4490  178.0550  144.3620 C   0  0  0  0  0  3  0  0  0  0  0  0
  182.5510  178.6070  141.6810 C   0  0  0  0  0  3  0  0  0  0  0  0
  180.7590  178.2230  143.9650 C   0  0  0  0  0  2  0  0  0  0  0  0
  182.0480  178.9080  144.0180 N   0  0  0  0  0  0  0  0  0  0  0  0
  187.8730  177.8150  145.6870 C   0  0  0  0  0  0  0  0  0  0  0  0
  182.8290  179.0460  145.1780 N   0  0  0  0  0  2  0  0  0  0  0  0
  180.3070  178.0500  142.5300 C   0  0  0  0  0  3  0  0  0  0  0  0
  185.4600  178.8050  143.0010 C   0  0  0  0  0  0  0  0  0  0  0  0
  184.2380  179.2640  143.3470 N   0  0  0  0  0  0  0  0  0  0  0  0
  182.9270  178.9710  142.9030 C   0  0  0  0  0  0  0  0  0  0  0  0
  186.9940  178.0810  146.7670 C   0  0  0  0  0  3  0  0  0  0  0  0
  185.3470  178.8840  145.2330 C   0  0  0  0  0  0  0  0  0  0  0  0
  185.7070  178.6020  146.5460 C   0  0  0  0  0  3  0  0  0  0  0  0
  181.1440  178.2000  141.4890 C   0  0  0  0  0  3  0  0  0  0  0  0
  186.1850  178.6050  144.1680 C   0  0  0  0  0  0  0  0  0  0  0  0
  190.1610  176.9630  144.9760 C   0  0  0  0  0  3  0  0  0  0  0  0
  191.2690  176.4850  145.5710 N   0  0  0  0  0  0  0  0  0  0  0  0
  189.7470  176.9590  147.1790 C   0  0  0  0  0  3  0  0  0  0  0  0
  191.0080  176.4790  146.8910 C   0  0  0  0  0  0  0  0  0  0  0  0
  189.2150  177.2600  145.9400 C   0  0  1  0  0  3  0  0  0  0  0  0
  192.0020  176.0610  147.9150 C   0  0  0  0  0  2  0  0  0  0  0  0
  193.0660  175.4050  147.2960 O   0  0  0  0  0  1  0  0  0  0  0  0
  185.8750  178.4050  141.6210 C   0  0  0  0  0  2  0  0  0  0  0  0
  187.2730  178.9210  141.2930 C   0  0  0  0  0  2  0  0  0  0  0  0
  188.0630  177.9290  140.4480 C   0  0  0  0  0  2  0  0  0  0  0  0
  188.1620  178.4040  139.0110 C   0  0  0  0  0  2  0  0  0  0  0  0
  189.4800  178.0800  138.4870 N   0  0  0  0  0  2  0  0  0  0  0  0
  189.2430  174.5930  136.9720 C   0  0  0  0  0  2  0  0  0  0  0  0
  189.8330  176.7830  138.0000 C   0  0  0  0  0  0  0  0  0  0  0  0
  192.8640  174.6810  137.7230 C   0  0  0  0  0  1  0  0  0  0  0  0
  188.9080  175.9730  137.4660 C   0  0  0  0  0  3  0  0  0  0  0  0
  191.4530  174.9340  137.9390 N   0  0  0  0  0  0  0  0  0  0  0  0
  190.7480  174.4370  136.7620 C   0  0  0  0  0  2  0  0  0  0  0  0
  191.2870  176.3880  137.9890 C   0  0  0  0  0  2  0  0  0  0  0  0
  1  7  1  0  0  0  0
  1 13  2  0  0  0  0
  2  6  2  0  0  0  0
  3 11  2  0  0  0  0
  4  5  1  0  0  0  0
  5  7  1  0  0  0  0
  6 12  1  0  0  0  0
  8  4  1  0  0  0  0
  9 10  1  0  0  0  0
  9 16  2  0  0  0  0
 10  1  1  0  0  0  0
 11 10  1  0  0  0  0
 11  5  1  0  0  0  0
 13 14  1  0  0  0  0
 14 12  2  0  0  0  0
 15  3  1  0  0  0  0
 15  8  2  0  0  0  0
 16  2  1  0  0  0  0
 16 13  1  0  0  0  0
 17 18  2  0  0  0  0
 17 21  1  0  0  0  0
 18 20  1  0  0  0  0
 20 19  2  0  0  0  0
 20 22  1  0  0  0  0
 21  6  1  1  0  0  0
 21 19  1  0  0  0  0
 23 22  1  0  0  0  0
 24  9  1  0  0  0  0
 25 24  1  0  0  0  0
 26 25  1  0  0  0  0
 27 26  1  0  0  0  0
 28 27  1  0  0  0  0
 29 32  1  0  0  0  0
 30 28  1  0  0  0  0
 31 33  1  0  0  0  0
 32 30  2  0  0  0  0
 33 35  1  0  0  0  0
 34 29  1  0  0  0  0
 34 33  1  0  0  0  0
 35 30  1  0  0  0  0
M  END
>  <MODEL>
8

>  <REMARK>
 VINA RESULT:      -8.5      1.591      2.267
  Name = 
  8 active torsions:
  status: ('A' for Active; 'I' for Inactive)
    1  A    between atoms: C_5  and  CA_20
    2  A    between atoms: C_6  and  N_21
    3  A    between atoms: C_8  and  C_23
    4  A    between atoms: C_8  and  C_27
    5  A    between atoms: C_13  and  C_17
    6  A    between atoms: C_13  and  C_27
    7  A    between atoms: C_14  and  C_31
    8  A    between atoms: C_17  and  N_21
                            x       y       z     vdW  Elec       q    Type
                         _______ _______ _______ _____ _____    ______ ____

>  <TORSDO>
F 8

$$$$
=
 OpenBabel10232409423D

 35 40  0  0  1  0  0  0  0  0999 V2000
  190.9200  177.9950  142.8450 C   0  0  0  0  0  0  0  0  0  0  0  0
  189.0190  177.1890  139.9750 C   0  0  0  0  0  3  0  0  0  0  0  0
  188.8530  177.4570  145.5770 C   0  0  0  0  0  3  0  0  0  0  0  0
  191.6060  176.6320  146.1350 C   0  0  0  0  0  2  0  0  0  0  0  0
  191.1910  177.4500  144.9980 N   0  0  0  0  0  0  0  0  0  0  0  0
  189.9760  176.8610  138.9910 C   0  0  0  0  0  0  0  0  0  0  0  0
  191.9010  177.5540  143.7890 N   0  0  0  0  0  2  0  0  0  0  0  0
  190.5040  176.5610  147.1700 C   0  0  0  0  0  3  0  0  0  0  0  0
  188.7860  177.8460  142.4010 C   0  0  0  0  0  0  0  0  0  0  0  0
  189.6920  178.1230  143.3630 N   0  0  0  0  0  0  0  0  0  0  0  0
  189.8270  177.7310  144.7150 C   0  0  0  0  0  0  0  0  0  0  0  0
  191.3570  176.9100  139.3070 C   0  0  0  0  0  3  0  0  0  0  0  0
  190.8290  177.6760  141.5080 C   0  0  0  0  0  0  0  0  0  0  0  0
  191.7970  177.3010  140.5830 C   0  0  0  0  0  3  0  0  0  0  0  0
  189.2360  176.9140  146.8970 C   0  0  0  0  0  3  0  0  0  0  0  0
  189.4770  177.6080  141.2210 C   0  0  0  0  0  0  0  0  0  0  0  0
  189.7280  177.1470  136.4760 C   0  0  0  0  0  3  0  0  0  0  0  0
  189.2030  176.4570  135.4470 N   0  0  0  0  0  0  0  0  0  0  0  0
  188.8670  175.2690  137.3460 C   0  0  0  0  0  3  0  0  0  0  0  0
  188.6830  175.3360  135.9800 C   0  0  0  0  0  0  0  0  0  0  0  0
  189.5340  176.4400  137.6490 C   0  0  1  0  0  3  0  0  0  0  0  0
  188.0430  174.2690  135.1650 C   0  0  0  0  0  2  0  0  0  0  0  0
  186.8580  173.8590  135.7760 O   0  0  0  0  0  1  0  0  0  0  0  0
  187.3210  177.6440  142.6250 C   0  0  0  0  0  2  0  0  0  0  0  0
  186.5120  178.8180  142.0840 C   0  0  0  0  0  2  0  0  0  0  0  0
  185.0400  178.7230  142.4680 C   0  0  0  0  0  2  0  0  0  0  0  0
  184.1520  178.8670  141.2470 C   0  0  0  0  0  2  0  0  0  0  0  0
  184.9720  179.2060  140.0940 N   0  0  0  0  0  2  0  0  0  0  0  0
  186.0250  177.6620  136.7740 C   0  0  0  0  0  2  0  0  0  0  0  0
  184.9470  178.4670  138.8700 C   0  0  0  0  0  0  0  0  0  0  0  0
  182.5420  176.4280  136.9380 C   0  0  0  0  0  1  0  0  0  0  0  0
  186.0300  178.4060  138.0810 C   0  0  0  0  0  3  0  0  0  0  0  0
  183.6290  177.3720  137.1070 N   0  0  0  0  0  0  0  0  0  0  0  0
  184.8530  176.6850  136.7050 C   0  0  0  0  0  2  0  0  0  0  0  0
  183.7190  177.6600  138.5400 C   0  0  0  0  0  2  0  0  0  0  0  0
  1 10  1  0  0  0  0
  1  7  1  0  0  0  0
  2 16  1  0  0  0  0
  3 15  1  0  0  0  0
  4  8  1  0  0  0  0
  5  4  1  0  0  0  0
  6 12  1  0  0  0  0
  6  2  2  0  0  0  0
  7  5  1  0  0  0  0
  9 24  1  0  0  0  0
  9 10  1  0  0  0  0
 10 11  1  0  0  0  0
 11  5  1  0  0  0  0
 11  3  2  0  0  0  0
 12 14  2  0  0  0  0
 13  1  2  0  0  0  0
 14 13  1  0  0  0  0
 15  8  2  0  0  0  0
 16 13  1  0  0  0  0
 16  9  2  0  0  0  0
 17 21  1  0  0  0  0
 18 20  1  0  0  0  0
 18 17  2  0  0  0  0
 19 21  1  0  0  0  0
 20 19  2  0  0  0  0
 21  6  1  6  0  0  0
 22 23  1  0  0  0  0
 22 20  1  0  0  0  0
 25 26  1  0  0  0  0
 25 24  1  0  0  0  0
 27 26  1  0  0  0  0
 28 27  1  0  0  0  0
 29 32  1  0  0  0  0
 30 28  1  0  0  0  0
 31 33  1  0  0  0  0
 32 30  2  0  0  0  0
 33 35  1  0  0  0  0
 34 29  1  0  0  0  0
 34 33  1  0  0  0  0
 35 30  1  0  0  0  0
M  END
>  <MODEL>
9

>  <REMARK>
 VINA RESULT:      -8.5      3.281      8.356
  Name = 
  8 active torsions:
  status: ('A' for Active; 'I' for Inactive)
    1  A    between atoms: C_5  and  CA_20
    2  A    between atoms: C_6  and  N_21
    3  A    between atoms: C_8  and  C_23
    4  A    between atoms: C_8  and  C_27
    5  A    between atoms: C_13  and  C_17
    6  A    between atoms: C_13  and  C_27
    7  A    between atoms: C_14  and  C_31
    8  A    between atoms: C_17  and  N_21
                            x       y       z     vdW  Elec       q    Type
                         _______ _______ _______ _____ _____    ______ ____

>  <TORSDO>
F 8

$$$$
