=
 OpenBabel10222421443D

 31 34  0  0  1  0  0  0  0  0999 V2000
  185.1730  178.8550  140.0480 C   0  0  0  0  0  2  0  0  0  0  0  0
  186.0380  177.8850  139.2470 C   0  0  2  0  0  3  0  0  0  0  0  0
  185.4410  178.7760  141.5430 C   0  0  0  0  0  2  0  0  0  0  0  0
  187.8390  178.3440  141.6800 N   0  0  0  0  0  0  0  0  0  0  0  0
  186.8040  179.3600  141.8670 C   0  0  0  0  0  2  0  0  0  0  0  0
  187.4790  178.4280  139.1320 C   0  0  1  0  0  3  0  0  0  0  0  0
  189.4470  177.5330  140.1900 O   0  0  0  0  0  0  0  0  0  0  0  0
  188.3070  178.0570  140.3470 C   0  0  0  0  0  0  0  0  0  0  0  0
  189.3160  178.0940  135.8920 C   0  0  0  0  0  3  0  0  0  0  0  0
  188.7860  178.8940  136.9340 C   0  0  0  0  0  3  0  0  0  0  0  0
  189.0990  175.5220  135.8380 C   0  0  0  0  0  0  0  0  0  0  0  0
  188.9710  176.8120  136.2700 C   0  0  0  0  0  0  0  0  0  0  0  0
  188.4590  174.7460  136.8170 C   0  0  0  0  0  3  0  0  0  0  0  0
  187.9740  175.5800  137.7820 N   0  0  0  0  0  2  0  0  0  0  0  0
  188.1640  178.0360  137.8490 C   0  0  0  0  0  0  0  0  0  0  0  0
  189.7550  175.0620  134.6620 N   0  0  0  0  0  1  0  0  0  0  0  0
  188.3160  176.7930  137.3910 N   0  0  0  0  0  0  0  0  0  0  0  0
  189.2140  178.2200  143.6530 C   0  0  0  0  0  3  0  0  0  0  0  0
  187.8130  176.2500  143.1180 C   0  0  0  0  0  1  0  0  0  0  0  0
  188.3360  177.6230  142.8300 C   0  0  0  0  0  0  0  0  0  0  0  0
  189.2410  177.7590  146.0790 N   0  0  0  0  0  0  0  0  0  0  0  0
  189.8470  177.6820  144.8740 C   0  0  0  0  0  0  0  0  0  0  0  0
  191.3660  176.9610  145.0150 S   0  0  0  0  0  0  0  0  0  0  0  0
  189.9910  177.2340  147.0850 C   0  0  0  0  0  3  0  0  0  0  0  0
  191.2210  176.7330  146.6750 C   0  0  0  0  0  0  0  0  0  0  0  0
  192.2290  176.1180  147.5450 C   0  0  0  0  0  0  0  0  0  0  0  0
  192.6690  176.7900  148.7220 N   0  0  0  0  0  1  0  0  0  0  0  0
  192.7150  174.9940  147.2560 O   0  0  0  0  0  0  0  0  0  0  0  0
  185.4310  177.6960  137.9340 N   0  0  0  0  0  2  0  0  0  0  0  0
  183.1730  176.5190  137.6790 N   0  0  0  0  0  0  0  0  0  0  0  0
  184.1940  177.0520  137.7950 C   0  0  0  0  0  0  0  0  0  0  0  0
  1  3  1  0  0  0  0
  2 29  1  6  0  0  0
  2  1  1  0  0  0  0
  3  5  1  0  0  0  0
  4  5  1  0  0  0  0
  4 20  1  0  0  0  0
  6 15  1  6  0  0  0
  6  2  1  0  0  0  0
  6  8  1  0  0  0  0
  7  8  2  0  0  0  0
  8  4  1  0  0  0  0
  9 12  2  0  0  0  0
  9 10  1  0  0  0  0
 10 15  2  0  0  0  0
 11 12  1  0  0  0  0
 11 13  2  0  0  0  0
 12 17  1  0  0  0  0
 13 14  1  0  0  0  0
 16 11  1  0  0  0  0
 17 14  1  0  0  0  0
 17 15  1  0  0  0  0
 18 22  1  0  0  0  0
 20 19  1  0  0  0  0
 20 18  2  0  0  0  0
 21 24  1  0  0  0  0
 22 23  1  0  0  0  0
 22 21  2  0  0  0  0
 23 25  1  0  0  0  0
 25 24  2  0  0  0  0
 25 26  1  0  0  0  0
 26 27  1  0  0  0  0
 28 26  2  0  0  0  0
 30 31  3  0  0  0  0
 31 29  1  0  0  0  0
M  END
>  <MODEL>
1

>  <REMARK>
 VINA RESULT:      -6.3      0.000      0.000
  Name = 
  6 active torsions:
  status: ('A' for Active; 'I' for Inactive)
    1  A    between atoms: C_3  and  C_29
    2  A    between atoms: N_5  and  C_14
    3  A    between atoms: N_5  and  C_19
    4  A    between atoms: C_11  and  C_21
    5  A    between atoms: N_18  and  C_28
    6  A    between atoms: C_20  and  C_23
                            x       y       z     vdW  Elec       q    Type
                         _______ _______ _______ _____ _____    ______ ____

>  <TORSDO>
F 6

$$$$
=
 OpenBabel10222421443D

 31 34  0  0  1  0  0  0  0  0999 V2000
  190.2470  174.6120  136.1540 C   0  0  0  0  0  2  0  0  0  0  0  0
  191.5070  174.2930  136.9560 C   0  0  2  0  0  3  0  0  0  0  0  0
  189.2430  175.4310  136.9490 C   0  0  0  0  0  2  0  0  0  0  0  0
  190.6400  176.8970  138.3110 N   0  0  0  0  0  0  0  0  0  0  0  0
  189.7550  176.8460  137.1480 C   0  0  0  0  0  2  0  0  0  0  0  0
  192.4160  175.5390  137.0350 C   0  0  1  0  0  3  0  0  0  0  0  0
  192.8770  176.8650  138.9900 O   0  0  0  0  0  0  0  0  0  0  0  0
  192.0040  176.4500  138.1750 C   0  0  0  0  0  0  0  0  0  0  0  0
  195.8860  174.2850  137.6500 C   0  0  0  0  0  3  0  0  0  0  0  0
  194.5060  174.3070  137.9700 C   0  0  0  0  0  3  0  0  0  0  0  0
  196.9160  175.6970  135.7510 C   0  0  0  0  0  0  0  0  0  0  0  0
  195.9810  175.1720  136.5970 C   0  0  0  0  0  0  0  0  0  0  0  0
  196.2000  176.5670  134.9140 C   0  0  0  0  0  3  0  0  0  0  0  0
  194.8860  176.5380  135.2800 N   0  0  0  0  0  2  0  0  0  0  0  0
  193.8840  175.2030  137.0920 C   0  0  0  0  0  0  0  0  0  0  0  0
  198.3090  175.4130  135.7140 N   0  0  0  0  0  1  0  0  0  0  0  0
  194.8290  175.6870  136.2860 N   0  0  0  0  0  0  0  0  0  0  0  0
  190.6270  176.8590  140.7190 C   0  0  0  0  0  3  0  0  0  0  0  0
  189.0580  178.4130  139.5980 C   0  0  0  0  0  1  0  0  0  0  0  0
  190.1150  177.3530  139.5790 C   0  0  0  0  0  0  0  0  0  0  0  0
  190.9730  178.0380  142.8620 N   0  0  0  0  0  0  0  0  0  0  0  0
  190.2500  177.1770  142.1120 C   0  0  0  0  0  0  0  0  0  0  0  0
  188.9690  176.5380  143.0040 S   0  0  0  0  0  0  0  0  0  0  0  0
  190.4860  178.1790  144.1240 C   0  0  0  0  0  3  0  0  0  0  0  0
  189.3570  177.4130  144.3870 C   0  0  0  0  0  0  0  0  0  0  0  0
  188.6310  177.3650  145.6610 C   0  0  0  0  0  0  0  0  0  0  0  0
  187.2840  177.8230  145.7380 N   0  0  0  0  0  1  0  0  0  0  0  0
  189.1950  176.9210  146.6950 O   0  0  0  0  0  0  0  0  0  0  0  0
  192.1900  173.1710  136.3200 N   0  0  0  0  0  2  0  0  0  0  0  0
  191.0430  171.7810  134.5040 N   0  0  0  0  0  0  0  0  0  0  0  0
  191.5620  172.4110  135.3250 C   0  0  0  0  0  0  0  0  0  0  0  0
  1  3  1  0  0  0  0
  1  2  1  0  0  0  0
  2 29  1  6  0  0  0
  2  6  1  0  0  0  0
  3  5  1  0  0  0  0
  4 20  1  0  0  0  0
  5  4  1  0  0  0  0
  6 15  1  1  0  0  0
  6  8  1  0  0  0  0
  8  4  1  0  0  0  0
  8  7  2  0  0  0  0
  9 10  1  0  0  0  0
 11 12  1  0  0  0  0
 12  9  2  0  0  0  0
 13 14  1  0  0  0  0
 13 11  2  0  0  0  0
 14 17  1  0  0  0  0
 15 10  2  0  0  0  0
 16 11  1  0  0  0  0
 17 12  1  0  0  0  0
 17 15  1  0  0  0  0
 18 22  1  0  0  0  0
 20 19  1  0  0  0  0
 20 18  2  0  0  0  0
 21 24  1  0  0  0  0
 22 21  2  0  0  0  0
 22 23  1  0  0  0  0
 23 25  1  0  0  0  0
 24 25  2  0  0  0  0
 25 26  1  0  0  0  0
 26 27  1  0  0  0  0
 26 28  2  0  0  0  0
 30 31  3  0  0  0  0
 31 29  1  0  0  0  0
M  END
>  <MODEL>
2

>  <REMARK>
 VINA RESULT:      -6.2      4.267      6.245
  Name = 
  6 active torsions:
  status: ('A' for Active; 'I' for Inactive)
    1  A    between atoms: C_3  and  C_29
    2  A    between atoms: N_5  and  C_14
    3  A    between atoms: N_5  and  C_19
    4  A    between atoms: C_11  and  C_21
    5  A    between atoms: N_18  and  C_28
    6  A    between atoms: C_20  and  C_23
                            x       y       z     vdW  Elec       q    Type
                         _______ _______ _______ _____ _____    ______ ____

>  <TORSDO>
F 6

$$$$
=
 OpenBabel10222421443D

 31 34  0  0  1  0  0  0  0  0999 V2000
  187.7750  178.3570  139.1110 C   0  0  0  0  0  2  0  0  0  0  0  0
  188.3420  178.5120  140.5200 C   0  0  2  0  0  3  0  0  0  0  0  0
  188.8410  177.9910  138.0910 C   0  0  0  0  0  2  0  0  0  0  0  0
  190.3550  176.5350  139.3330 N   0  0  0  0  0  0  0  0  0  0  0  0
  189.3120  176.5640  138.3090 C   0  0  0  0  0  2  0  0  0  0  0  0
  188.6170  177.1240  141.1380 C   0  0  1  0  0  3  0  0  0  0  0  0
  190.7700  176.1520  141.6010 O   0  0  0  0  0  0  0  0  0  0  0  0
  189.9760  176.5940  140.7220 C   0  0  0  0  0  0  0  0  0  0  0  0
  187.6740  176.6390  144.7240 C   0  0  0  0  0  3  0  0  0  0  0  0
  187.4410  176.4140  143.3450 C   0  0  0  0  0  3  0  0  0  0  0  0
  189.6390  178.0580  145.6110 C   0  0  0  0  0  0  0  0  0  0  0  0
  188.8020  177.4330  144.7300 C   0  0  0  0  0  0  0  0  0  0  0  0
  190.6000  178.6940  144.8100 C   0  0  0  0  0  3  0  0  0  0  0  0
  190.3120  178.4370  143.5010 N   0  0  0  0  0  2  0  0  0  0  0  0
  188.4390  177.0910  142.6340 C   0  0  0  0  0  0  0  0  0  0  0  0
  189.5640  178.0530  147.0320 N   0  0  0  0  0  1  0  0  0  0  0  0
  189.2310  177.6810  143.5290 N   0  0  0  0  0  0  0  0  0  0  0  0
  192.1050  175.6960  137.9060 C   0  0  0  0  0  3  0  0  0  0  0  0
  192.7360  177.3800  139.6070 C   0  0  0  0  0  1  0  0  0  0  0  0
  191.7420  176.4910  138.9270 C   0  0  0  0  0  0  0  0  0  0  0  0
  193.8070  176.0670  136.1550 N   0  0  0  0  0  0  0  0  0  0  0  0
  193.4480  175.4940  137.3250 C   0  0  0  0  0  0  0  0  0  0  0  0
  194.6990  174.5370  137.9310 S   0  0  0  0  0  0  0  0  0  0  0  0
  195.0710  175.7420  135.7720 C   0  0  0  0  0  3  0  0  0  0  0  0
  195.7310  174.8910  136.6500 C   0  0  0  0  0  0  0  0  0  0  0  0
  197.0940  174.3750  136.4830 C   0  0  0  0  0  0  0  0  0  0  0  0
  198.1910  175.2750  136.3510 N   0  0  0  0  0  1  0  0  0  0  0  0
  197.3030  173.1340  136.4540 O   0  0  0  0  0  0  0  0  0  0  0  0
  187.3930  179.2770  141.3220 N   0  0  0  0  0  2  0  0  0  0  0  0
  184.8740  179.1040  140.9100 N   0  0  0  0  0  0  0  0  0  0  0  0
  186.0140  179.1830  141.0960 C   0  0  0  0  0  0  0  0  0  0  0  0
  1  2  1  0  0  0  0
  2  6  1  0  0  0  0
  2 29  1  1  0  0  0
  3  5  1  0  0  0  0
  3  1  1  0  0  0  0
  4  8  1  0  0  0  0
  5  4  1  0  0  0  0
  6 15  1  1  0  0  0
  8  6  1  0  0  0  0
  8  7  2  0  0  0  0
  9 12  2  0  0  0  0
 10  9  1  0  0  0  0
 11 16  1  0  0  0  0
 12 11  1  0  0  0  0
 13 11  2  0  0  0  0
 14 17  1  0  0  0  0
 14 13  1  0  0  0  0
 15 10  2  0  0  0  0
 15 17  1  0  0  0  0
 17 12  1  0  0  0  0
 18 20  2  0  0  0  0
 20  4  1  0  0  0  0
 20 19  1  0  0  0  0
 21 22  2  0  0  0  0
 22 18  1  0  0  0  0
 22 23  1  0  0  0  0
 24 21  1  0  0  0  0
 24 25  2  0  0  0  0
 25 23  1  0  0  0  0
 26 25  1  0  0  0  0
 27 26  1  0  0  0  0
 28 26  2  0  0  0  0
 30 31  3  0  0  0  0
 31 29  1  0  0  0  0
M  END
>  <MODEL>
3

>  <REMARK>
 VINA RESULT:      -6.1      4.138      7.934
  Name = 
  6 active torsions:
  status: ('A' for Active; 'I' for Inactive)
    1  A    between atoms: C_3  and  C_29
    2  A    between atoms: N_5  and  C_14
    3  A    between atoms: N_5  and  C_19
    4  A    between atoms: C_11  and  C_21
    5  A    between atoms: N_18  and  C_28
    6  A    between atoms: C_20  and  C_23
                            x       y       z     vdW  Elec       q    Type
                         _______ _______ _______ _____ _____    ______ ____

>  <TORSDO>
F 6

$$$$
=
 OpenBabel10222421443D

 31 34  0  0  1  0  0  0  0  0999 V2000
  191.2860  173.5380  136.0360 C   0  0  0  0  0  2  0  0  0  0  0  0
  192.6400  173.7320  136.7150 C   0  0  2  0  0  3  0  0  0  0  0  0
  190.1640  174.2690  136.7570 C   0  0  0  0  0  2  0  0  0  0  0  0
  191.2270  176.3120  137.5630 N   0  0  0  0  0  0  0  0  0  0  0  0
  190.3040  175.7680  136.5680 C   0  0  0  0  0  2  0  0  0  0  0  0
  193.1980  175.1360  136.3960 C   0  0  1  0  0  3  0  0  0  0  0  0
  193.4380  176.9740  137.9300 O   0  0  0  0  0  0  0  0  0  0  0  0
  192.6470  176.1780  137.3500 C   0  0  0  0  0  0  0  0  0  0  0  0
  196.8410  175.5250  135.6480 C   0  0  0  0  0  3  0  0  0  0  0  0
  195.4830  175.6480  135.2670 C   0  0  0  0  0  3  0  0  0  0  0  0
  197.5850  174.5930  137.9370 C   0  0  0  0  0  0  0  0  0  0  0  0
  196.7670  174.9930  136.9200 C   0  0  0  0  0  0  0  0  0  0  0  0
  196.7180  174.1530  138.9500 C   0  0  0  0  0  3  0  0  0  0  0  0
  195.4330  174.2980  138.5130 N   0  0  0  0  0  2  0  0  0  0  0  0
  194.7020  175.1790  136.3310 C   0  0  0  0  0  0  0  0  0  0  0  0
  199.0070  174.6290  137.9730 N   0  0  0  0  0  1  0  0  0  0  0  0
  195.5390  174.8040  137.2980 N   0  0  0  0  0  0  0  0  0  0  0  0
  191.1370  176.5280  139.9600 C   0  0  0  0  0  3  0  0  0  0  0  0
  189.7110  178.0510  138.6270 C   0  0  0  0  0  1  0  0  0  0  0  0
  190.6950  176.9300  138.7570 C   0  0  0  0  0  0  0  0  0  0  0  0
  191.5880  177.7240  142.0730 N   0  0  0  0  0  0  0  0  0  0  0  0
  190.7400  177.0120  141.2980 C   0  0  0  0  0  0  0  0  0  0  0  0
  189.2760  176.7530  142.0960 S   0  0  0  0  0  0  0  0  0  0  0  0
  191.0510  178.0570  143.2790 C   0  0  0  0  0  3  0  0  0  0  0  0
  189.7540  177.5970  143.4700 C   0  0  0  0  0  0  0  0  0  0  0  0
  188.9400  177.8030  144.6730 C   0  0  0  0  0  0  0  0  0  0  0  0
  187.5200  177.7090  144.6050 N   0  0  0  0  0  1  0  0  0  0  0  0
  189.4920  178.0670  145.7730 O   0  0  0  0  0  0  0  0  0  0  0  0
  193.5430  172.6800  136.2590 N   0  0  0  0  0  2  0  0  0  0  0  0
  192.6410  170.5050  135.2580 N   0  0  0  0  0  0  0  0  0  0  0  0
  193.0490  171.4890  135.7120 C   0  0  0  0  0  0  0  0  0  0  0  0
  1  2  1  0  0  0  0
  1  3  1  0  0  0  0
  2 29  1  6  0  0  0
  4 20  1  0  0  0  0
  5  3  1  0  0  0  0
  5  4  1  0  0  0  0
  6 15  1  1  0  0  0
  6  2  1  0  0  0  0
  6  8  1  0  0  0  0
  8  4  1  0  0  0  0
  8  7  2  0  0  0  0
  9 12  2  0  0  0  0
 10  9  1  0  0  0  0
 10 15  2  0  0  0  0
 11 16  1  0  0  0  0
 11 13  2  0  0  0  0
 12 17  1  0  0  0  0
 12 11  1  0  0  0  0
 14 13  1  0  0  0  0
 15 17  1  0  0  0  0
 17 14  1  0  0  0  0
 18 22  1  0  0  0  0
 19 20  1  0  0  0  0
 20 18  2  0  0  0  0
 21 24  1  0  0  0  0
 22 21  2  0  0  0  0
 22 23  1  0  0  0  0
 23 25  1  0  0  0  0
 24 25  2  0  0  0  0
 25 26  1  0  0  0  0
 26 28  2  0  0  0  0
 27 26  1  0  0  0  0
 30 31  3  0  0  0  0
 31 29  1  0  0  0  0
M  END
>  <MODEL>
4

>  <REMARK>
 VINA RESULT:      -6.0      5.052      7.138
  Name = 
  6 active torsions:
  status: ('A' for Active; 'I' for Inactive)
    1  A    between atoms: C_3  and  C_29
    2  A    between atoms: N_5  and  C_14
    3  A    between atoms: N_5  and  C_19
    4  A    between atoms: C_11  and  C_21
    5  A    between atoms: N_18  and  C_28
    6  A    between atoms: C_20  and  C_23
                            x       y       z     vdW  Elec       q    Type
                         _______ _______ _______ _____ _____    ______ ____

>  <TORSDO>
F 6

$$$$
=
 OpenBabel10222421443D

 31 34  0  0  1  0  0  0  0  0999 V2000
  183.3820  177.4230  138.4180 C   0  0  0  0  0  2  0  0  0  0  0  0
  184.7240  176.8330  137.9910 C   0  0  2  0  0  3  0  0  0  0  0  0
  183.3940  177.9110  139.8580 C   0  0  0  0  0  2  0  0  0  0  0  0
  185.6510  178.7880  140.1560 N   0  0  0  0  0  0  0  0  0  0  0  0
  184.2470  179.1590  139.9860 C   0  0  0  0  0  2  0  0  0  0  0  0
  185.7400  177.9630  137.7190 C   0  0  1  0  0  3  0  0  0  0  0  0
  187.6820  178.5040  139.0340 O   0  0  0  0  0  0  0  0  0  0  0  0
  186.4220  178.4110  138.9970 C   0  0  0  0  0  0  0  0  0  0  0  0
  188.0070  177.6640  134.7600 C   0  0  0  0  0  3  0  0  0  0  0  0
  186.9640  178.3250  135.4540 C   0  0  0  0  0  3  0  0  0  0  0  0
  189.1900  175.5560  135.6640 C   0  0  0  0  0  0  0  0  0  0  0  0
  188.3290  176.6140  135.5960 C   0  0  0  0  0  0  0  0  0  0  0  0
  188.8960  174.9260  136.8840 C   0  0  0  0  0  3  0  0  0  0  0  0
  187.8860  175.6130  137.4930 N   0  0  0  0  0  2  0  0  0  0  0  0
  186.7400  177.6220  136.6440 C   0  0  0  0  0  0  0  0  0  0  0  0
  190.1820  175.1810  134.7150 N   0  0  0  0  0  1  0  0  0  0  0  0
  187.6000  176.6040  136.6700 N   0  0  0  0  0  0  0  0  0  0  0  0
  187.3670  178.0990  141.6990 C   0  0  0  0  0  3  0  0  0  0  0  0
  185.5560  179.5390  142.5820 C   0  0  0  0  0  1  0  0  0  0  0  0
  186.2200  178.7650  141.4850 C   0  0  0  0  0  0  0  0  0  0  0  0
  189.4210  178.3030  143.0550 N   0  0  0  0  0  0  0  0  0  0  0  0
  188.1220  177.9430  142.9590 C   0  0  0  0  0  0  0  0  0  0  0  0
  187.5750  177.2840  144.4130 S   0  0  0  0  0  0  0  0  0  0  0  0
  189.9490  178.0580  144.2850 C   0  0  0  0  0  3  0  0  0  0  0  0
  189.0560  177.4880  145.1840 C   0  0  0  0  0  0  0  0  0  0  0  0
  189.3570  177.1140  146.5700 C   0  0  0  0  0  0  0  0  0  0  0  0
  190.7000  176.8640  146.9720 N   0  0  0  0  0  1  0  0  0  0  0  0
  188.4280  177.0100  147.4140 O   0  0  0  0  0  0  0  0  0  0  0  0
  184.5130  176.0070  136.8060 N   0  0  0  0  0  2  0  0  0  0  0  0
  184.3450  173.4600  136.9830 N   0  0  0  0  0  0  0  0  0  0  0  0
  184.4220  174.6130  136.9040 C   0  0  0  0  0  0  0  0  0  0  0  0
  1  3  1  0  0  0  0
  2 29  1  6  0  0  0
  2  1  1  0  0  0  0
  3  5  1  0  0  0  0
  4 20  1  0  0  0  0
  5  4  1  0  0  0  0
  6 15  1  6  0  0  0
  6  2  1  0  0  0  0
  6  8  1  0  0  0  0
  8  7  2  0  0  0  0
  8  4  1  0  0  0  0
  9 10  1  0  0  0  0
  9 12  2  0  0  0  0
 10 15  2  0  0  0  0
 11 13  2  0  0  0  0
 12 11  1  0  0  0  0
 12 17  1  0  0  0  0
 13 14  1  0  0  0  0
 15 17  1  0  0  0  0
 16 11  1  0  0  0  0
 17 14  1  0  0  0  0
 18 22  1  0  0  0  0
 20 18  2  0  0  0  0
 20 19  1  0  0  0  0
 21 24  1  0  0  0  0
 22 21  2  0  0  0  0
 22 23  1  0  0  0  0
 23 25  1  0  0  0  0
 24 25  2  0  0  0  0
 25 26  1  0  0  0  0
 26 27  1  0  0  0  0
 26 28  2  0  0  0  0
 29 31  1  0  0  0  0
 31 30  3  0  0  0  0
M  END
>  <MODEL>
5

>  <REMARK>
 VINA RESULT:      -5.8      1.874      2.600
  Name = 
  6 active torsions:
  status: ('A' for Active; 'I' for Inactive)
    1  A    between atoms: C_3  and  C_29
    2  A    between atoms: N_5  and  C_14
    3  A    between atoms: N_5  and  C_19
    4  A    between atoms: C_11  and  C_21
    5  A    between atoms: N_18  and  C_28
    6  A    between atoms: C_20  and  C_23
                            x       y       z     vdW  Elec       q    Type
                         _______ _______ _______ _____ _____    ______ ____

>  <TORSDO>
F 6

$$$$
=
 OpenBabel10222421443D

 31 34  0  0  1  0  0  0  0  0999 V2000
  189.9370  176.8930  141.2500 C   0  0  0  0  0  2  0  0  0  0  0  0
  188.8470  176.5400  142.2590 C   0  0  2  0  0  3  0  0  0  0  0  0
  189.3720  177.2730  139.8910 C   0  0  0  0  0  2  0  0  0  0  0  0
  187.3050  178.4520  140.4320 N   0  0  0  0  0  0  0  0  0  0  0  0
  188.6800  178.6220  139.9650 C   0  0  0  0  0  2  0  0  0  0  0  0
  188.1650  177.8250  142.7760 C   0  0  1  0  0  3  0  0  0  0  0  0
  185.9180  178.5520  142.3110 O   0  0  0  0  0  0  0  0  0  0  0  0
  187.0590  178.2770  141.8420 C   0  0  0  0  0  0  0  0  0  0  0  0
  186.3840  177.4010  146.0370 C   0  0  0  0  0  3  0  0  0  0  0  0
  186.3740  177.4390  144.6210 C   0  0  0  0  0  3  0  0  0  0  0  0
  188.5140  177.7770  147.4450 C   0  0  0  0  0  0  0  0  0  0  0  0
  187.7040  177.6510  146.3520 C   0  0  0  0  0  0  0  0  0  0  0  0
  189.7910  178.0380  146.9220 C   0  0  0  0  0  3  0  0  0  0  0  0
  189.7050  178.0620  145.5600 N   0  0  0  0  0  2  0  0  0  0  0  0
  187.6810  177.7120  144.1990 C   0  0  0  0  0  0  0  0  0  0  0  0
  188.1490  177.6540  148.8150 N   0  0  0  0  0  1  0  0  0  0  0  0
  188.4350  177.8240  145.2920 N   0  0  0  0  0  0  0  0  0  0  0  0
  184.9940  178.7890  139.8420 C   0  0  0  0  0  3  0  0  0  0  0  0
  186.5270  178.0380  138.0480 C   0  0  0  0  0  1  0  0  0  0  0  0
  186.2300  178.4190  139.4650 C   0  0  0  0  0  0  0  0  0  0  0  0
  183.0790  179.9880  138.8460 N   0  0  0  0  0  0  0  0  0  0  0  0
  183.7580  178.8350  139.0340 C   0  0  0  0  0  0  0  0  0  0  0  0
  182.9720  177.5470  138.2800 S   0  0  0  0  0  0  0  0  0  0  0  0
  181.9540  179.8230  138.0970 C   0  0  0  0  0  3  0  0  0  0  0  0
  181.7310  178.5150  137.6850 C   0  0  0  0  0  0  0  0  0  0  0  0
  180.5970  178.0520  136.8780 C   0  0  0  0  0  0  0  0  0  0  0  0
  180.1800  176.6920  136.9390 N   0  0  0  0  0  1  0  0  0  0  0  0
  179.9880  178.8550  136.1240 O   0  0  0  0  0  0  0  0  0  0  0  0
  189.4500  175.7780  143.3470 N   0  0  0  0  0  2  0  0  0  0  0  0
  191.9810  175.7890  143.7210 N   0  0  0  0  0  0  0  0  0  0  0  0
  190.8350  175.7830  143.5530 C   0  0  0  0  0  0  0  0  0  0  0  0
  1  2  1  0  0  0  0
  2  6  1  0  0  0  0
  2 29  1  1  0  0  0
  3  5  1  0  0  0  0
  3  1  1  0  0  0  0
  4  8  1  0  0  0  0
  5  4  1  0  0  0  0
  6 15  1  1  0  0  0
  8  7  2  0  0  0  0
  8  6  1  0  0  0  0
  9 12  2  0  0  0  0
 10  9  1  0  0  0  0
 11 16  1  0  0  0  0
 12 11  1  0  0  0  0
 13 11  2  0  0  0  0
 14 13  1  0  0  0  0
 15 10  2  0  0  0  0
 15 17  1  0  0  0  0
 17 14  1  0  0  0  0
 17 12  1  0  0  0  0
 19 20  1  0  0  0  0
 20 18  2  0  0  0  0
 20  4  1  0  0  0  0
 21 22  2  0  0  0  0
 22 18  1  0  0  0  0
 23 22  1  0  0  0  0
 24 21  1  0  0  0  0
 25 24  2  0  0  0  0
 25 23  1  0  0  0  0
 26 27  1  0  0  0  0
 26 25  1  0  0  0  0
 28 26  2  0  0  0  0
 29 31  1  0  0  0  0
 31 30  3  0  0  0  0
M  END
>  <MODEL>
6

>  <REMARK>
 VINA RESULT:      -5.6      3.772      9.529
  Name = 
  6 active torsions:
  status: ('A' for Active; 'I' for Inactive)
    1  A    between atoms: C_3  and  C_29
    2  A    between atoms: N_5  and  C_14
    3  A    between atoms: N_5  and  C_19
    4  A    between atoms: C_11  and  C_21
    5  A    between atoms: N_18  and  C_28
    6  A    between atoms: C_20  and  C_23
                            x       y       z     vdW  Elec       q    Type
                         _______ _______ _______ _____ _____    ______ ____

>  <TORSDO>
F 6

$$$$
=
 OpenBabel10222421443D

 31 34  0  0  1  0  0  0  0  0999 V2000
  182.2530  178.7890  142.7950 C   0  0  0  0  0  2  0  0  0  0  0  0
  182.2830  178.2950  141.3500 C   0  0  2  0  0  3  0  0  0  0  0  0
  183.6010  178.6510  143.4840 C   0  0  0  0  0  2  0  0  0  0  0  0
  185.2110  179.1130  141.7090 N   0  0  0  0  0  0  0  0  0  0  0  0
  184.5890  179.6540  142.9170 C   0  0  0  0  0  2  0  0  0  0  0  0
  182.9780  179.3370  140.4470 C   0  0  1  0  0  3  0  0  0  0  0  0
  185.1210  179.1130  139.3730 O   0  0  0  0  0  0  0  0  0  0  0  0
  184.4840  179.1640  140.4650 C   0  0  0  0  0  0  0  0  0  0  0  0
  181.8570  178.7860  136.9210 C   0  0  0  0  0  3  0  0  0  0  0  0
  182.5220  178.3390  138.0900 C   0  0  0  0  0  3  0  0  0  0  0  0
  180.7300  181.1000  136.7380 C   0  0  0  0  0  0  0  0  0  0  0  0
  181.4200  180.0480  137.2690 C   0  0  0  0  0  0  0  0  0  0  0  0
  180.6910  182.0620  137.7590 C   0  0  0  0  0  3  0  0  0  0  0  0
  181.3490  181.5660  138.8470 N   0  0  0  0  0  2  0  0  0  0  0  0
  182.4360  179.3630  139.0410 C   0  0  0  0  0  0  0  0  0  0  0  0
  180.1590  181.1960  135.4380 N   0  0  0  0  0  1  0  0  0  0  0  0
  181.7550  180.3640  138.4830 N   0  0  0  0  0  0  0  0  0  0  0  0
  186.9170  177.9720  142.9690 C   0  0  0  0  0  3  0  0  0  0  0  0
  187.3740  178.4130  140.5760 C   0  0  0  0  0  1  0  0  0  0  0  0
  186.5180  178.5020  141.8000 C   0  0  0  0  0  0  0  0  0  0  0  0
  188.6130  176.2130  142.6110 N   0  0  0  0  0  0  0  0  0  0  0  0
  188.1950  177.3040  143.2900 C   0  0  0  0  0  0  0  0  0  0  0  0
  189.2870  177.7030  144.5120 S   0  0  0  0  0  0  0  0  0  0  0  0
  189.7980  175.7260  143.0700 C   0  0  0  0  0  3  0  0  0  0  0  0
  190.3310  176.4380  144.1380 C   0  0  0  0  0  0  0  0  0  0  0  0
  191.5870  176.1330  144.8300 C   0  0  0  0  0  0  0  0  0  0  0  0
  191.9460  176.8410  146.0130 N   0  0  0  0  0  1  0  0  0  0  0  0
  192.3570  175.2430  144.3820 O   0  0  0  0  0  0  0  0  0  0  0  0
  180.9120  178.0420  140.9180 N   0  0  0  0  0  2  0  0  0  0  0  0
  180.1850  175.7220  140.1200 N   0  0  0  0  0  0  0  0  0  0  0  0
  180.5150  176.7710  140.4820 C   0  0  0  0  0  0  0  0  0  0  0  0
  1  3  1  0  0  0  0
  2 29  1  6  0  0  0
  2  1  1  0  0  0  0
  4 20  1  0  0  0  0
  4  5  1  0  0  0  0
  5  3  1  0  0  0  0
  6 15  1  6  0  0  0
  6  8  1  0  0  0  0
  6  2  1  0  0  0  0
  7  8  2  0  0  0  0
  8  4  1  0  0  0  0
  9 12  2  0  0  0  0
  9 10  1  0  0  0  0
 10 15  2  0  0  0  0
 11 12  1  0  0  0  0
 11 13  2  0  0  0  0
 12 17  1  0  0  0  0
 13 14  1  0  0  0  0
 16 11  1  0  0  0  0
 17 14  1  0  0  0  0
 17 15  1  0  0  0  0
 18 22  1  0  0  0  0
 19 20  1  0  0  0  0
 20 18  2  0  0  0  0
 21 24  1  0  0  0  0
 21 22  2  0  0  0  0
 22 23  1  0  0  0  0
 24 25  2  0  0  0  0
 25 23  1  0  0  0  0
 25 26  1  0  0  0  0
 26 27  1  0  0  0  0
 28 26  2  0  0  0  0
 30 31  3  0  0  0  0
 31 29  1  0  0  0  0
M  END
>  <MODEL>
7

>  <REMARK>
 VINA RESULT:      -5.6      3.517      5.584
  Name = 
  6 active torsions:
  status: ('A' for Active; 'I' for Inactive)
    1  A    between atoms: C_3  and  C_29
    2  A    between atoms: N_5  and  C_14
    3  A    between atoms: N_5  and  C_19
    4  A    between atoms: C_11  and  C_21
    5  A    between atoms: N_18  and  C_28
    6  A    between atoms: C_20  and  C_23
                            x       y       z     vdW  Elec       q    Type
                         _______ _______ _______ _____ _____    ______ ____

>  <TORSDO>
F 6

$$$$
=
 OpenBabel10222421443D

 31 34  0  0  1  0  0  0  0  0999 V2000
  187.2890  177.5920  137.4580 C   0  0  0  0  0  2  0  0  0  0  0  0
  187.9280  176.2050  137.4830 C   0  0  2  0  0  3  0  0  0  0  0  0
  187.2740  178.2510  138.8280 C   0  0  0  0  0  2  0  0  0  0  0  0
  189.3630  177.5140  139.8500 N   0  0  0  0  0  0  0  0  0  0  0  0
  188.6790  178.6520  139.2370 C   0  0  0  0  0  2  0  0  0  0  0  0
  189.4650  176.3300  137.5660 C   0  0  1  0  0  3  0  0  0  0  0  0
  190.8590  175.7640  139.4440 O   0  0  0  0  0  0  0  0  0  0  0  0
  189.9290  176.4950  139.0000 C   0  0  0  0  0  0  0  0  0  0  0  0
  190.7500  173.1830  136.0070 C   0  0  0  0  0  3  0  0  0  0  0  0
  189.7750  173.8760  136.7640 C   0  0  0  0  0  3  0  0  0  0  0  0
  192.8640  174.3160  135.0530 C   0  0  0  0  0  0  0  0  0  0  0  0
  191.6790  174.1610  135.7140 C   0  0  0  0  0  0  0  0  0  0  0  0
  193.1920  175.6720  135.2080 C   0  0  0  0  0  3  0  0  0  0  0  0
  192.2130  176.2730  135.9450 N   0  0  0  0  0  2  0  0  0  0  0  0
  190.1930  175.2090  136.8700 C   0  0  0  0  0  0  0  0  0  0  0  0
  193.5990  173.3240  134.3460 N   0  0  0  0  0  1  0  0  0  0  0  0
  191.3460  175.3140  136.2110 N   0  0  0  0  0  0  0  0  0  0  0  0
  190.6120  177.4490  141.9090 C   0  0  0  0  0  3  0  0  0  0  0  0
  188.1430  177.3430  142.0720 C   0  0  0  0  0  1  0  0  0  0  0  0
  189.4180  177.4150  141.2910 C   0  0  0  0  0  0  0  0  0  0  0  0
  190.7550  178.4340  144.1690 N   0  0  0  0  0  0  0  0  0  0  0  0
  190.9050  177.3670  143.3540 C   0  0  0  0  0  0  0  0  0  0  0  0
  191.4940  176.0380  144.2120 S   0  0  0  0  0  0  0  0  0  0  0  0
  191.1000  178.1700  145.4580 C   0  0  0  0  0  3  0  0  0  0  0  0
  191.5380  176.8690  145.6740 C   0  0  0  0  0  0  0  0  0  0  0  0
  191.9770  176.3140  146.9590 C   0  0  0  0  0  0  0  0  0  0  0  0
  192.6080  175.0380  147.0130 N   0  0  0  0  0  1  0  0  0  0  0  0
  191.7980  176.9630  148.0230 O   0  0  0  0  0  0  0  0  0  0  0  0
  187.5130  175.4800  136.2870 N   0  0  0  0  0  2  0  0  0  0  0  0
  185.2390  175.9150  135.1990 N   0  0  0  0  0  0  0  0  0  0  0  0
  186.2680  175.7190  135.6920 C   0  0  0  0  0  0  0  0  0  0  0  0
  1  2  1  0  0  0  0
  1  3  1  0  0  0  0
  2 29  1  6  0  0  0
  2  6  1  0  0  0  0
  3  5  1  0  0  0  0
  4 20  1  0  0  0  0
  5  4  1  0  0  0  0
  6 15  1  1  0  0  0
  6  8  1  0  0  0  0
  8  7  2  0  0  0  0
  8  4  1  0  0  0  0
  9 10  1  0  0  0  0
 10 15  2  0  0  0  0
 11 13  2  0  0  0  0
 11 12  1  0  0  0  0
 12  9  2  0  0  0  0
 12 17  1  0  0  0  0
 13 14  1  0  0  0  0
 14 17  1  0  0  0  0
 16 11  1  0  0  0  0
 17 15  1  0  0  0  0
 18 22  1  0  0  0  0
 20 18  2  0  0  0  0
 20 19  1  0  0  0  0
 21 24  1  0  0  0  0
 22 21  2  0  0  0  0
 22 23  1  0  0  0  0
 23 25  1  0  0  0  0
 24 25  2  0  0  0  0
 25 26  1  0  0  0  0
 26 27  1  0  0  0  0
 26 28  2  0  0  0  0
 30 31  3  0  0  0  0
 31 29  1  0  0  0  0
M  END
>  <MODEL>
8

>  <REMARK>
 VINA RESULT:      -5.5      2.336      3.225
  Name = 
  6 active torsions:
  status: ('A' for Active; 'I' for Inactive)
    1  A    between atoms: C_3  and  C_29
    2  A    between atoms: N_5  and  C_14
    3  A    between atoms: N_5  and  C_19
    4  A    between atoms: C_11  and  C_21
    5  A    between atoms: N_18  and  C_28
    6  A    between atoms: C_20  and  C_23
                            x       y       z     vdW  Elec       q    Type
                         _______ _______ _______ _____ _____    ______ ____

>  <TORSDO>
F 6

$$$$
=
 OpenBabel10222421443D

 31 34  0  0  1  0  0  0  0  0999 V2000
  188.3530  177.7670  136.0780 C   0  0  0  0  0  2  0  0  0  0  0  0
  188.8590  176.3870  136.4930 C   0  0  2  0  0  3  0  0  0  0  0  0
  187.8450  178.5790  137.2590 C   0  0  0  0  0  2  0  0  0  0  0  0
  189.3380  177.9460  139.0830 N   0  0  0  0  0  0  0  0  0  0  0  0
  189.0030  179.0120  138.1400 C   0  0  0  0  0  2  0  0  0  0  0  0
  190.2500  176.5070  137.1530 C   0  0  1  0  0  3  0  0  0  0  0  0
  190.7800  176.1490  139.4730 O   0  0  0  0  0  0  0  0  0  0  0  0
  190.1330  176.8320  138.6290 C   0  0  0  0  0  0  0  0  0  0  0  0
  191.8750  173.1850  136.6010 C   0  0  0  0  0  3  0  0  0  0  0  0
  190.7270  173.9660  136.8810 C   0  0  0  0  0  3  0  0  0  0  0  0
  194.2190  174.2010  136.2330 C   0  0  0  0  0  0  0  0  0  0  0  0
  192.8780  174.1250  136.4840 C   0  0  0  0  0  0  0  0  0  0  0  0
  194.5200  175.5710  136.2790 C   0  0  0  0  0  3  0  0  0  0  0  0
  193.3740  176.2580  136.5530 N   0  0  0  0  0  2  0  0  0  0  0  0
  191.1290  175.3070  136.9140 C   0  0  0  0  0  0  0  0  0  0  0  0
  195.1140  173.1270  135.9660 N   0  0  0  0  0  1  0  0  0  0  0  0
  192.4380  175.3340  136.6620 N   0  0  0  0  0  0  0  0  0  0  0  0
  189.6730  177.8530  141.4660 C   0  0  0  0  0  3  0  0  0  0  0  0
  187.3810  178.3260  140.6590 C   0  0  0  0  0  1  0  0  0  0  0  0
  188.8280  178.0130  140.4340 C   0  0  0  0  0  0  0  0  0  0  0  0
  190.3440  178.1250  143.8270 N   0  0  0  0  0  0  0  0  0  0  0  0
  189.3790  177.8820  142.9140 C   0  0  0  0  0  0  0  0  0  0  0  0
  187.9000  177.5890  143.6700 S   0  0  0  0  0  0  0  0  0  0  0  0
  189.8850  178.0840  145.1070 C   0  0  0  0  0  3  0  0  0  0  0  0
  188.5290  177.7980  145.2160 C   0  0  0  0  0  0  0  0  0  0  0  0
  187.7750  177.6860  146.4690 C   0  0  0  0  0  0  0  0  0  0  0  0
  188.4100  177.2030  147.6490 N   0  0  0  0  0  1  0  0  0  0  0  0
  186.5600  178.0130  146.5080 O   0  0  0  0  0  0  0  0  0  0  0  0
  188.9000  175.5330  135.3100 N   0  0  0  0  0  2  0  0  0  0  0  0
  186.8720  174.1330  134.6220 N   0  0  0  0  0  0  0  0  0  0  0  0
  187.7900  174.7670  134.9320 C   0  0  0  0  0  0  0  0  0  0  0  0
  1  2  1  0  0  0  0
  1  3  1  0  0  0  0
  2 29  1  6  0  0  0
  2  6  1  0  0  0  0
  3  5  1  0  0  0  0
  4 20  1  0  0  0  0
  5  4  1  0  0  0  0
  6 15  1  1  0  0  0
  6  8  1  0  0  0  0
  8  4  1  0  0  0  0
  8  7  2  0  0  0  0
  9 10  1  0  0  0  0
 10 15  2  0  0  0  0
 11 13  2  0  0  0  0
 11 12  1  0  0  0  0
 12  9  2  0  0  0  0
 12 17  1  0  0  0  0
 13 14  1  0  0  0  0
 14 17  1  0  0  0  0
 16 11  1  0  0  0  0
 17 15  1  0  0  0  0
 18 22  1  0  0  0  0
 20 19  1  0  0  0  0
 20 18  2  0  0  0  0
 21 24  1  0  0  0  0
 22 23  1  0  0  0  0
 22 21  2  0  0  0  0
 23 25  1  0  0  0  0
 24 25  2  0  0  0  0
 25 26  1  0  0  0  0
 26 28  2  0  0  0  0
 26 27  1  0  0  0  0
 30 31  3  0  0  0  0
 31 29  1  0  0  0  0
M  END
>  <MODEL>
9

>  <REMARK>
 VINA RESULT:      -5.5      3.017      4.417
  Name = 
  6 active torsions:
  status: ('A' for Active; 'I' for Inactive)
    1  A    between atoms: C_3  and  C_29
    2  A    between atoms: N_5  and  C_14
    3  A    between atoms: N_5  and  C_19
    4  A    between atoms: C_11  and  C_21
    5  A    between atoms: N_18  and  C_28
    6  A    between atoms: C_20  and  C_23
                            x       y       z     vdW  Elec       q    Type
                         _______ _______ _______ _____ _____    ______ ____

>  <TORSDO>
F 6

$$$$
