=
 OpenBabel10222422043D

 44 47  0  0  1  0  0  0  0  0999 V2000
  189.7100  176.8860  141.8990 C   0  0  2  0  0  3  0  0  0  0  0  0
  187.5300  176.8430  143.1260 C   0  0  0  0  0  3  0  0  0  0  0  0
  186.0070  178.8060  142.8780 C   0  0  2  0  0  3  0  0  0  0  0  0
  186.3740  178.7900  141.3930 C   0  0  0  0  0  2  0  0  0  0  0  0
  188.2030  177.1360  141.8060 C   0  0  1  0  0  3  0  0  0  0  0  0
  187.8690  178.5310  141.2580 C   0  0  0  0  0  2  0  0  0  0  0  0
  186.5020  177.5720  143.5900 C   0  0  0  0  0  3  0  0  0  0  0  0
  184.0180  178.5770  144.1370 N   0  0  0  0  0  0  0  0  0  0  0  0
  184.5680  178.9250  143.0470 N   0  0  0  0  0  0  0  0  0  0  0  0
  182.6320  178.6930  144.2910 N   0  0  0  0  0  2  0  0  0  0  0  0
  181.8300  179.3310  143.2600 C   0  0  0  0  0  2  0  0  0  0  0  0
  180.7290  178.3930  142.7800 C   0  0  0  0  0  2  0  0  0  0  0  0
  180.4690  178.5580  141.2880 C   0  0  1  0  0  3  0  0  0  0  0  0
  180.7810  180.1940  139.7780 C   0  0  0  0  0  2  0  0  0  0  0  0
  182.0240  179.3520  139.6650 C   0  0  2  0  0  3  0  0  0  0  0  0
  182.3850  179.1120  138.2020 C   0  0  0  0  0  1  0  0  0  0  0  0
  180.1780  179.9070  141.0130 O   0  0  0  0  0  0  0  0  0  0  0  0
  181.6790  178.1190  140.4760 C   0  0  2  0  0  3  0  0  0  0  0  0
  181.2910  176.8920  139.6530 C   0  0  0  0  0  2  0  0  0  0  0  0
  182.3510  175.9010  139.7190 N   0  0  0  0  0  1  0  0  0  0  0  0
  192.1800  177.8710  140.8370 O   0  0  0  0  0  0  0  0  0  0  0  0
  190.2610  176.5580  140.5900 N   0  0  0  0  0  2  0  0  0  0  0  0
  191.5070  177.0790  140.1240 C   0  0  0  0  0  0  0  0  0  0  0  0
  192.0240  176.6600  138.7950 C   0  0  0  0  0  2  0  0  0  0  0  0
  190.9840  175.8140  138.0830 C   0  0  0  0  0  2  0  0  0  0  0  0
  190.5130  176.5150  136.8200 C   0  0  2  0  0  3  0  0  0  0  0  0
  189.3080  177.2770  137.1070 C   0  0  0  0  0  0  0  0  0  0  0  0
  189.2690  178.3740  137.7240 O   0  0  0  0  0  0  0  0  0  0  0  0
  189.9240  175.4960  135.8370 C   0  0  0  0  0  2  0  0  0  0  0  0
  188.1840  176.6550  136.5350 N   0  0  0  0  0  0  0  0  0  0  0  0
  188.5100  175.4570  135.9790 O   0  0  0  0  0  0  0  0  0  0  0  0
  187.0820  177.4470  136.0090 C   0  0  0  0  0  2  0  0  0  0  0  0
  185.7580  177.5690  137.2470 S   0  0  0  0  0  1  0  0  0  0  0  0
  190.0240  175.7740  142.8980 C   0  0  0  0  0  2  0  0  0  0  0  0
  191.3550  176.0230  143.5860 C   0  0  0  0  0  2  0  0  0  0  0  0
  191.3570  177.3900  144.2510 C   0  0  0  0  0  2  0  0  0  0  0  0
  189.3010  178.0640  145.4830 C   0  0  0  0  0  3  0  0  0  0  0  0
  190.5120  177.3620  145.4850 C   0  0  0  0  0  0  0  0  0  0  0  0
  190.0470  176.6050  147.7450 C   0  0  0  0  0  3  0  0  0  0  0  0
  190.8900  176.6210  146.6250 C   0  0  0  0  0  0  0  0  0  0  0  0
  188.4710  178.0430  146.6060 C   0  0  0  0  0  3  0  0  0  0  0  0
  188.8430  177.3140  147.7380 C   0  0  0  0  0  3  0  0  0  0  0  0
  192.9000  175.8700  147.6650 O   0  0  0  0  0  0  0  0  0  0  0  0
  192.1550  175.8690  146.6490 C   0  0  0  0  0  3  0  0  0  0  0  0
  1 34  1  1  0  0  0
  2  7  2  0  0  0  0
  3  9  1  6  0  0  0
  3  7  1  0  0  0  0
  4  3  1  0  0  0  0
  5  1  1  1  0  0  0
  5  2  1  0  0  0  0
  6  4  1  0  0  0  0
  6  5  1  0  0  0  0
  8 10  1  0  0  0  0
  9  8  2  0  0  0  0
 11 10  1  0  0  0  0
 12 11  1  0  0  0  0
 13 12  1  1  0  0  0
 14 17  1  0  0  0  0
 15 16  1  6  0  0  0
 15 14  1  0  0  0  0
 15 18  1  0  0  0  0
 17 13  1  0  0  0  0
 18 19  1  6  0  0  0
 18 13  1  0  0  0  0
 19 20  1  0  0  0  0
 22  1  1  0  0  0  0
 23 22  1  0  0  0  0
 23 21  2  0  0  0  0
 24 23  1  0  0  0  0
 25 24  1  0  0  0  0
 26 27  1  0  0  0  0
 26 25  1  1  0  0  0
 27 28  2  0  0  0  0
 29 31  1  0  0  0  0
 29 26  1  0  0  0  0
 30 27  1  0  0  0  0
 31 30  1  0  0  0  0
 32 30  1  0  0  0  0
 32 33  1  0  0  0  0
 34 35  1  0  0  0  0
 35 36  1  0  0  0  0
 36 38  1  0  0  0  0
 37 38  2  0  0  0  0
 37 41  1  0  0  0  0
 38 40  1  0  0  0  0
 40 44  1  0  0  0  0
 40 39  2  0  0  0  0
 41 42  2  0  0  0  0
 42 39  1  0  0  0  0
 44 43  2  0  0  0  0
M  END
>  <MODEL>
1

>  <REMARK>
 VINA RESULT:      -7.8      0.000      0.000
  Name = 
  17 active torsions:
  status: ('A' for Active; 'I' for Inactive)
    1  A    between atoms: C_1  and  C_20
    2  A    between atoms: C_2  and  C_11
    3  A    between atoms: C_3  and  C_20
    4  A    between atoms: C_3  and  N_24
    5  A    between atoms: N_7  and  N_24
    6  A    between atoms: C_9  and  N_29
    7  A    between atoms: C_10  and  N_15
    8  A    between atoms: C_10  and  C_37
    9  A    between atoms: C_10  and  C_39
   10  A    between atoms: C_11  and  C_31
   11  A    between atoms: C_18  and  N_34
   12  A    between atoms: C_19  and  C_36
   13  A    between atoms: C_23  and  C_33
   14  A    between atoms: C_30  and  C_35
   15  A    between atoms: C_31  and  C_44
   16  A    between atoms: C_32  and  C_33
   17  A    between atoms: C_32  and  C_37
                            x       y       z     vdW  Elec       q    Type
                         _______ _______ _______ _____ _____    ______ ____

>  <TORSDO>
F 17

$$$$
=
 OpenBabel10222422043D

 44 47  0  0  1  0  0  0  0  0999 V2000
  190.4780  177.1110  141.3380 C   0  0  2  0  0  3  0  0  0  0  0  0
  192.5040  177.2940  139.8820 C   0  0  0  0  0  3  0  0  0  0  0  0
  192.5600  175.9530  137.7770 C   0  0  2  0  0  3  0  0  0  0  0  0
  191.0950  176.3510  137.5890 C   0  0  0  0  0  2  0  0  0  0  0  0
  190.9940  177.2830  139.9080 C   0  0  1  0  0  3  0  0  0  0  0  0
  190.3850  176.2640  138.9340 C   0  0  0  0  0  2  0  0  0  0  0  0
  193.2140  176.7320  138.8910 C   0  0  0  0  0  3  0  0  0  0  0  0
  194.3770  176.8220  136.5370 N   0  0  0  0  0  0  0  0  0  0  0  0
  193.3030  176.1440  136.5430 N   0  0  0  0  0  0  0  0  0  0  0  0
  195.0860  177.0030  135.3440 N   0  0  0  0  0  2  0  0  0  0  0  0
  196.5390  177.0460  135.3530 C   0  0  0  0  0  2  0  0  0  0  0  0
  197.1150  175.7830  134.7240 C   0  0  0  0  0  2  0  0  0  0  0  0
  197.4730  174.7470  135.7820 C   0  0  1  0  0  3  0  0  0  0  0  0
  197.1280  174.5300  137.9930 C   0  0  0  0  0  2  0  0  0  0  0  0
  195.9810  173.7810  137.3700 C   0  0  2  0  0  3  0  0  0  0  0  0
  195.7570  172.4470  138.0770 C   0  0  0  0  0  1  0  0  0  0  0  0
  197.6580  175.3920  137.0200 O   0  0  0  0  0  0  0  0  0  0  0  0
  196.3750  173.7010  135.9090 C   0  0  2  0  0  3  0  0  0  0  0  0
  196.9370  172.3520  135.4640 C   0  0  0  0  0  2  0  0  0  0  0  0
  198.3750  172.3290  135.6630 N   0  0  0  0  0  1  0  0  0  0  0  0
  187.9740  176.4000  142.5310 O   0  0  0  0  0  0  0  0  0  0  0  0
  189.3750  178.0260  141.6030 N   0  0  0  0  0  2  0  0  0  0  0  0
  188.1520  177.6060  142.2100 C   0  0  0  0  0  0  0  0  0  0  0  0
  187.0910  178.6100  142.4900 C   0  0  0  0  0  2  0  0  0  0  0  0
  185.7250  177.9930  142.2500 C   0  0  0  0  0  2  0  0  0  0  0  0
  184.7200  179.0720  141.8840 C   0  0  2  0  0  3  0  0  0  0  0  0
  183.4050  178.7010  142.3810 C   0  0  0  0  0  0  0  0  0  0  0  0
  183.0340  178.7720  143.5830 O   0  0  0  0  0  0  0  0  0  0  0  0
  184.4260  179.0330  140.3790 C   0  0  0  0  0  2  0  0  0  0  0  0
  182.5670  178.3160  141.3190 N   0  0  0  0  0  0  0  0  0  0  0  0
  183.2450  178.2770  140.1420 O   0  0  0  0  0  0  0  0  0  0  0  0
  181.1420  178.6110  141.3520 C   0  0  0  0  0  2  0  0  0  0  0  0
  180.4160  178.3500  139.7080 S   0  0  0  0  0  1  0  0  0  0  0  0
  191.5960  177.3230  142.3570 C   0  0  0  0  0  2  0  0  0  0  0  0
  191.3350  176.5220  143.6210 C   0  0  0  0  0  2  0  0  0  0  0  0
  191.5820  177.3830  144.8500 C   0  0  0  0  0  2  0  0  0  0  0  0
  189.2060  177.9780  145.2980 C   0  0  0  0  0  3  0  0  0  0  0  0
  190.3810  177.3610  145.7420 C   0  0  0  0  0  0  0  0  0  0  0  0
  189.2380  176.6930  147.7770 C   0  0  0  0  0  3  0  0  0  0  0  0
  190.4000  176.7090  146.9930 C   0  0  0  0  0  0  0  0  0  0  0  0
  188.0550  177.9590  146.0890 C   0  0  0  0  0  3  0  0  0  0  0  0
  188.0700  177.3170  147.3290 C   0  0  0  0  0  3  0  0  0  0  0  0
  192.4520  176.6560  148.2060 O   0  0  0  0  0  0  0  0  0  0  0  0
  191.6210  176.0480  147.4800 C   0  0  0  0  0  3  0  0  0  0  0  0
  1 22  1  0  0  0  0
  1 34  1  1  0  0  0
  2  5  1  0  0  0  0
  3  9  1  6  0  0  0
  3  7  1  0  0  0  0
  4  3  1  0  0  0  0
  4  6  1  0  0  0  0
  5  1  1  1  0  0  0
  6  5  1  0  0  0  0
  7  2  2  0  0  0  0
  8  9  2  0  0  0  0
 10 11  1  0  0  0  0
 10  8  1  0  0  0  0
 12 11  1  0  0  0  0
 13 12  1  6  0  0  0
 13 18  1  0  0  0  0
 13 17  1  0  0  0  0
 15 14  1  0  0  0  0
 15 16  1  1  0  0  0
 17 14  1  0  0  0  0
 18 19  1  1  0  0  0
 18 15  1  0  0  0  0
 19 20  1  0  0  0  0
 22 23  1  0  0  0  0
 23 24  1  0  0  0  0
 23 21  2  0  0  0  0
 25 24  1  0  0  0  0
 26 25  1  6  0  0  0
 26 27  1  0  0  0  0
 27 28  2  0  0  0  0
 29 26  1  0  0  0  0
 30 32  1  0  0  0  0
 30 27  1  0  0  0  0
 31 29  1  0  0  0  0
 31 30  1  0  0  0  0
 33 32  1  0  0  0  0
 34 35  1  0  0  0  0
 35 36  1  0  0  0  0
 36 38  1  0  0  0  0
 37 38  2  0  0  0  0
 37 41  1  0  0  0  0
 38 40  1  0  0  0  0
 40 44  1  0  0  0  0
 40 39  2  0  0  0  0
 41 42  2  0  0  0  0
 42 39  1  0  0  0  0
 44 43  2  0  0  0  0
M  END
>  <MODEL>
2

>  <REMARK>
 VINA RESULT:      -7.5      3.968      9.873
  Name = 
  17 active torsions:
  status: ('A' for Active; 'I' for Inactive)
    1  A    between atoms: C_1  and  C_20
    2  A    between atoms: C_2  and  C_11
    3  A    between atoms: C_3  and  C_20
    4  A    between atoms: C_3  and  N_24
    5  A    between atoms: N_7  and  N_24
    6  A    between atoms: C_9  and  N_29
    7  A    between atoms: C_10  and  N_15
    8  A    between atoms: C_10  and  C_37
    9  A    between atoms: C_10  and  C_39
   10  A    between atoms: C_11  and  C_31
   11  A    between atoms: C_18  and  N_34
   12  A    between atoms: C_19  and  C_36
   13  A    between atoms: C_23  and  C_33
   14  A    between atoms: C_30  and  C_35
   15  A    between atoms: C_31  and  C_44
   16  A    between atoms: C_32  and  C_33
   17  A    between atoms: C_32  and  C_37
                            x       y       z     vdW  Elec       q    Type
                         _______ _______ _______ _____ _____    ______ ____

>  <TORSDO>
F 17

$$$$
=
 OpenBabel10222422043D

 44 47  0  0  1  0  0  0  0  0999 V2000
  188.5430  177.5700  141.8760 C   0  0  2  0  0  3  0  0  0  0  0  0
  186.6430  177.3360  143.4870 C   0  0  0  0  0  3  0  0  0  0  0  0
  184.9330  179.1540  143.5550 C   0  0  2  0  0  3  0  0  0  0  0  0
  185.0160  179.1680  142.0270 C   0  0  0  0  0  2  0  0  0  0  0  0
  187.0290  177.6840  142.0690 C   0  0  1  0  0  3  0  0  0  0  0  0
  186.4760  179.0420  141.6120 C   0  0  0  0  0  2  0  0  0  0  0  0
  185.6590  177.9710  144.1440 C   0  0  0  0  0  3  0  0  0  0  0  0
  182.6050  179.1770  143.1390 N   0  0  0  0  0  0  0  0  0  0  0  0
  183.5460  179.1450  143.9910 N   0  0  0  0  0  0  0  0  0  0  0  0
  181.2720  179.1700  143.5670 N   0  0  0  0  0  2  0  0  0  0  0  0
  180.1920  179.3240  142.6060 C   0  0  0  0  0  2  0  0  0  0  0  0
  179.9830  178.0330  141.8240 C   0  0  0  0  0  2  0  0  0  0  0  0
  180.3890  178.1950  140.3650 C   0  0  1  0  0  3  0  0  0  0  0  0
  181.7370  179.5850  139.2210 C   0  0  0  0  0  2  0  0  0  0  0  0
  182.6140  178.4020  139.5340 C   0  0  2  0  0  3  0  0  0  0  0  0
  183.4290  177.9930  138.3110 C   0  0  0  0  0  1  0  0  0  0  0  0
  180.6430  179.5550  140.1010 O   0  0  0  0  0  0  0  0  0  0  0  0
  181.6300  177.3720  140.0530 C   0  0  2  0  0  3  0  0  0  0  0  0
  181.2500  176.2810  139.0530 C   0  0  0  0  0  2  0  0  0  0  0  0
  180.6360  175.1660  139.7530 N   0  0  0  0  0  1  0  0  0  0  0  0
  188.8310  178.8620  139.3360 O   0  0  0  0  0  0  0  0  0  0  0  0
  188.8550  176.9050  140.6170 N   0  0  0  0  0  2  0  0  0  0  0  0
  188.9930  177.6130  139.3840 C   0  0  0  0  0  0  0  0  0  0  0  0
  189.3580  176.8670  138.1500 C   0  0  0  0  0  2  0  0  0  0  0  0
  190.8280  177.0820  137.8370 C   0  0  0  0  0  2  0  0  0  0  0  0
  191.6460  175.9020  138.3340 C   0  0  2  0  0  3  0  0  0  0  0  0
  193.0600  176.1610  138.1090 C   0  0  0  0  0  0  0  0  0  0  0  0
  193.7760  176.9400  138.7940 O   0  0  0  0  0  0  0  0  0  0  0  0
  191.4710  174.7020  137.3950 C   0  0  0  0  0  2  0  0  0  0  0  0
  193.5460  175.3640  137.0570 N   0  0  0  0  0  0  0  0  0  0  0  0
  192.5430  174.6640  136.4620 O   0  0  0  0  0  0  0  0  0  0  0  0
  194.9050  174.8450  137.0840 C   0  0  0  0  0  2  0  0  0  0  0  0
  195.0260  173.4810  138.2770 S   0  0  0  0  0  1  0  0  0  0  0  0
  189.1920  176.8270  143.0410 C   0  0  0  0  0  2  0  0  0  0  0  0
  190.5980  177.3420  143.2960 C   0  0  0  0  0  2  0  0  0  0  0  0
  190.5780  178.4160  144.3720 C   0  0  0  0  0  2  0  0  0  0  0  0
  188.6180  178.3740  145.9070 C   0  0  0  0  0  3  0  0  0  0  0  0
  189.8990  177.8990  145.6010 C   0  0  0  0  0  0  0  0  0  0  0  0
  189.8100  176.4570  147.5530 C   0  0  0  0  0  3  0  0  0  0  0  0
  190.5040  176.9290  146.4280 C   0  0  0  0  0  0  0  0  0  0  0  0
  187.9400  177.8980  147.0320 C   0  0  0  0  0  3  0  0  0  0  0  0
  188.5350  176.9400  147.8550 C   0  0  0  0  0  3  0  0  0  0  0  0
  192.4330  175.6090  146.9000 O   0  0  0  0  0  0  0  0  0  0  0  0
  191.8470  176.4100  146.1250 C   0  0  0  0  0  3  0  0  0  0  0  0
  1 34  1  1  0  0  0
  2  7  2  0  0  0  0
  3  9  1  6  0  0  0
  3  7  1  0  0  0  0
  4  3  1  0  0  0  0
  5  1  1  1  0  0  0
  5  2  1  0  0  0  0
  6  4  1  0  0  0  0
  6  5  1  0  0  0  0
  8 10  1  0  0  0  0
  8  9  2  0  0  0  0
 11 10  1  0  0  0  0
 12 11  1  0  0  0  0
 13 12  1  1  0  0  0
 14 15  1  0  0  0  0
 14 17  1  0  0  0  0
 15 16  1  6  0  0  0
 15 18  1  0  0  0  0
 17 13  1  0  0  0  0
 18 19  1  6  0  0  0
 18 13  1  0  0  0  0
 19 20  1  0  0  0  0
 21 23  2  0  0  0  0
 22  1  1  0  0  0  0
 23 22  1  0  0  0  0
 24 23  1  0  0  0  0
 25 24  1  0  0  0  0
 26 25  1  6  0  0  0
 27 26  1  0  0  0  0
 27 28  2  0  0  0  0
 29 26  1  0  0  0  0
 30 32  1  0  0  0  0
 30 27  1  0  0  0  0
 31 30  1  0  0  0  0
 31 29  1  0  0  0  0
 32 33  1  0  0  0  0
 34 35  1  0  0  0  0
 35 36  1  0  0  0  0
 36 38  1  0  0  0  0
 37 41  1  0  0  0  0
 38 37  2  0  0  0  0
 38 40  1  0  0  0  0
 39 42  1  0  0  0  0
 40 39  2  0  0  0  0
 41 42  2  0  0  0  0
 44 40  1  0  0  0  0
 44 43  2  0  0  0  0
M  END
>  <MODEL>
3

>  <REMARK>
 VINA RESULT:      -7.5      2.226      2.821
  Name = 
  17 active torsions:
  status: ('A' for Active; 'I' for Inactive)
    1  A    between atoms: C_1  and  C_20
    2  A    between atoms: C_2  and  C_11
    3  A    between atoms: C_3  and  C_20
    4  A    between atoms: C_3  and  N_24
    5  A    between atoms: N_7  and  N_24
    6  A    between atoms: C_9  and  N_29
    7  A    between atoms: C_10  and  N_15
    8  A    between atoms: C_10  and  C_37
    9  A    between atoms: C_10  and  C_39
   10  A    between atoms: C_11  and  C_31
   11  A    between atoms: C_18  and  N_34
   12  A    between atoms: C_19  and  C_36
   13  A    between atoms: C_23  and  C_33
   14  A    between atoms: C_30  and  C_35
   15  A    between atoms: C_31  and  C_44
   16  A    between atoms: C_32  and  C_33
   17  A    between atoms: C_32  and  C_37
                            x       y       z     vdW  Elec       q    Type
                         _______ _______ _______ _____ _____    ______ ____

>  <TORSDO>
F 17

$$$$
=
 OpenBabel10222422043D

 44 47  0  0  1  0  0  0  0  0999 V2000
  188.6650  177.6550  141.2390 C   0  0  2  0  0  3  0  0  0  0  0  0
  190.5250  176.7590  139.8260 C   0  0  0  0  0  3  0  0  0  0  0  0
  190.0590  176.3290  137.4110 C   0  0  2  0  0  3  0  0  0  0  0  0
  189.2900  177.6510  137.4150 C   0  0  0  0  0  2  0  0  0  0  0  0
  189.4130  177.7770  139.9100 C   0  0  1  0  0  3  0  0  0  0  0  0
  188.4720  177.7410  138.6970 C   0  0  0  0  0  2  0  0  0  0  0  0
  190.8500  176.1370  138.6820 C   0  0  0  0  0  3  0  0  0  0  0  0
  191.4210  175.1440  135.8820 N   0  0  0  0  0  0  0  0  0  0  0  0
  190.9500  176.2600  136.2650 N   0  0  0  0  0  0  0  0  0  0  0  0
  192.2790  175.0870  134.7790 N   0  0  0  0  0  2  0  0  0  0  0  0
  193.2200  173.9870  134.6370 C   0  0  0  0  0  2  0  0  0  0  0  0
  193.3280  173.2040  135.9400 C   0  0  0  0  0  2  0  0  0  0  0  0
  194.7820  172.9820  136.3370 C   0  0  1  0  0  3  0  0  0  0  0  0
  196.7760  173.2500  135.3330 C   0  0  0  0  0  2  0  0  0  0  0  0
  196.5670  174.5400  136.0790 C   0  0  2  0  0  3  0  0  0  0  0  0
  197.8430  174.9610  136.8030 C   0  0  0  0  0  1  0  0  0  0  0  0
  195.5260  172.6250  135.1960 O   0  0  0  0  0  0  0  0  0  0  0  0
  195.3710  174.2390  136.9600 C   0  0  2  0  0  3  0  0  0  0  0  0
  195.7030  173.9470  138.4220 C   0  0  0  0  0  2  0  0  0  0  0  0
  195.3290  172.5820  138.7470 N   0  0  0  0  0  1  0  0  0  0  0  0
  186.3290  177.3700  142.8710 O   0  0  0  0  0  0  0  0  0  0  0  0
  187.5480  178.5900  141.2920 N   0  0  0  0  0  2  0  0  0  0  0  0
  186.4140  178.3910  142.1370 C   0  0  0  0  0  0  0  0  0  0  0  0
  185.3360  179.4150  142.1680 C   0  0  0  0  0  2  0  0  0  0  0  0
  184.0060  178.7720  141.8190 C   0  0  0  0  0  2  0  0  0  0  0  0
  184.0380  178.2460  140.3940 C   0  0  2  0  0  3  0  0  0  0  0  0
  183.5330  179.2650  139.4870 C   0  0  0  0  0  0  0  0  0  0  0  0
  184.1680  180.2890  139.1180 O   0  0  0  0  0  0  0  0  0  0  0  0
  182.9450  177.1880  140.1950 C   0  0  0  0  0  2  0  0  0  0  0  0
  182.2550  178.9170  139.0160 N   0  0  0  0  0  0  0  0  0  0  0  0
  181.7910  177.7940  139.6250 O   0  0  0  0  0  0  0  0  0  0  0  0
  181.8440  179.2570  137.6620 C   0  0  0  0  0  2  0  0  0  0  0  0
  182.1700  177.8620  136.5450 S   0  0  0  0  0  1  0  0  0  0  0  0
  189.6020  177.8850  142.4220 C   0  0  0  0  0  2  0  0  0  0  0  0
  189.5530  176.7130  143.3880 C   0  0  0  0  0  2  0  0  0  0  0  0
  190.3750  177.0190  144.6290 C   0  0  0  0  0  2  0  0  0  0  0  0
  188.1450  177.6720  145.5240 C   0  0  0  0  0  3  0  0  0  0  0  0
  189.4720  177.3100  145.7850 C   0  0  0  0  0  0  0  0  0  0  0  0
  189.0190  177.4490  148.1670 C   0  0  0  0  0  3  0  0  0  0  0  0
  189.9160  177.1930  147.1200 C   0  0  0  0  0  0  0  0  0  0  0  0
  187.2620  177.9280  146.5750 C   0  0  0  0  0  3  0  0  0  0  0  0
  187.6990  177.8170  147.8970 C   0  0  0  0  0  3  0  0  0  0  0  0
  191.6350  175.6020  147.5680 O   0  0  0  0  0  0  0  0  0  0  0  0
  191.3040  176.8080  147.4220 C   0  0  0  0  0  3  0  0  0  0  0  0
  1 22  1  0  0  0  0
  1 34  1  1  0  0  0
  2  5  1  0  0  0  0
  3  9  1  6  0  0  0
  3  4  1  0  0  0  0
  3  7  1  0  0  0  0
  4  6  1  0  0  0  0
  5  1  1  1  0  0  0
  6  5  1  0  0  0  0
  7  2  2  0  0  0  0
  8  9  2  0  0  0  0
 10  8  1  0  0  0  0
 11 10  1  0  0  0  0
 11 12  1  0  0  0  0
 13 12  1  6  0  0  0
 13 18  1  0  0  0  0
 14 15  1  0  0  0  0
 15 16  1  1  0  0  0
 15 18  1  0  0  0  0
 17 14  1  0  0  0  0
 17 13  1  0  0  0  0
 18 19  1  1  0  0  0
 19 20  1  0  0  0  0
 22 23  1  0  0  0  0
 23 24  1  0  0  0  0
 23 21  2  0  0  0  0
 25 24  1  0  0  0  0
 26 25  1  1  0  0  0
 27 26  1  0  0  0  0
 28 27  2  0  0  0  0
 29 26  1  0  0  0  0
 30 27  1  0  0  0  0
 30 31  1  0  0  0  0
 31 29  1  0  0  0  0
 32 30  1  0  0  0  0
 33 32  1  0  0  0  0
 34 35  1  0  0  0  0
 35 36  1  0  0  0  0
 36 38  1  0  0  0  0
 37 38  2  0  0  0  0
 37 41  1  0  0  0  0
 38 40  1  0  0  0  0
 40 44  1  0  0  0  0
 40 39  2  0  0  0  0
 41 42  2  0  0  0  0
 42 39  1  0  0  0  0
 44 43  2  0  0  0  0
M  END
>  <MODEL>
4

>  <REMARK>
 VINA RESULT:      -7.3      3.390      9.138
  Name = 
  17 active torsions:
  status: ('A' for Active; 'I' for Inactive)
    1  A    between atoms: C_1  and  C_20
    2  A    between atoms: C_2  and  C_11
    3  A    between atoms: C_3  and  C_20
    4  A    between atoms: C_3  and  N_24
    5  A    between atoms: N_7  and  N_24
    6  A    between atoms: C_9  and  N_29
    7  A    between atoms: C_10  and  N_15
    8  A    between atoms: C_10  and  C_37
    9  A    between atoms: C_10  and  C_39
   10  A    between atoms: C_11  and  C_31
   11  A    between atoms: C_18  and  N_34
   12  A    between atoms: C_19  and  C_36
   13  A    between atoms: C_23  and  C_33
   14  A    between atoms: C_30  and  C_35
   15  A    between atoms: C_31  and  C_44
   16  A    between atoms: C_32  and  C_33
   17  A    between atoms: C_32  and  C_37
                            x       y       z     vdW  Elec       q    Type
                         _______ _______ _______ _____ _____    ______ ____

>  <TORSDO>
F 17

$$$$
=
 OpenBabel10222422043D

 44 47  0  0  1  0  0  0  0  0999 V2000
  183.3060  178.2250  140.2490 C   0  0  2  0  0  3  0  0  0  0  0  0
  185.0360  178.4660  142.0400 C   0  0  0  0  0  3  0  0  0  0  0  0
  184.3770  179.6070  144.1600 C   0  0  2  0  0  3  0  0  0  0  0  0
  183.0650  178.8260  144.0690 C   0  0  0  0  0  2  0  0  0  0  0  0
  183.6060  178.0840  141.7430 C   0  0  1  0  0  3  0  0  0  0  0  0
  182.5900  178.8280  142.6220 C   0  0  0  0  0  2  0  0  0  0  0  0
  185.3930  179.1150  143.1600 C   0  0  0  0  0  3  0  0  0  0  0  0
  185.7630  178.6110  145.7980 N   0  0  0  0  0  0  0  0  0  0  0  0
  184.9290  179.5220  145.5020 N   0  0  0  0  0  0  0  0  0  0  0  0
  186.2880  178.5350  147.0920 N   0  0  0  0  0  2  0  0  0  0  0  0
  187.2840  177.5270  147.4220 C   0  0  0  0  0  2  0  0  0  0  0  0
  188.6680  177.9730  146.9660 C   0  0  0  0  0  2  0  0  0  0  0  0
  189.2580  177.0030  145.9510 C   0  0  1  0  0  3  0  0  0  0  0  0
  189.1980  176.7920  143.7130 C   0  0  0  0  0  2  0  0  0  0  0  0
  190.4510  177.5860  143.9710 C   0  0  2  0  0  3  0  0  0  0  0  0
  191.6090  177.0620  143.1270 C   0  0  0  0  0  1  0  0  0  0  0  0
  188.3840  176.8900  144.8530 O   0  0  0  0  0  0  0  0  0  0  0  0
  190.6210  177.4820  145.4730 C   0  0  2  0  0  3  0  0  0  0  0  0
  191.6770  176.4780  145.9350 C   0  0  0  0  0  2  0  0  0  0  0  0
  191.9940  176.7080  147.3340 N   0  0  0  0  0  1  0  0  0  0  0  0
  180.6280  177.2870  139.8630 O   0  0  0  0  0  0  0  0  0  0  0  0
  182.9330  176.9390  139.6720 N   0  0  0  0  0  2  0  0  0  0  0  0
  181.5730  176.5360  139.5000 C   0  0  0  0  0  0  0  0  0  0  0  0
  181.2730  175.2280  138.8620 C   0  0  0  0  0  2  0  0  0  0  0  0
  180.6910  175.4530  137.4780 C   0  0  0  0  0  2  0  0  0  0  0  0
  181.5250  174.7300  136.4340 C   0  0  2  0  0  3  0  0  0  0  0  0
  182.0610  173.5030  137.0040 C   0  0  0  0  0  0  0  0  0  0  0  0
  181.4050  172.4460  137.2050 O   0  0  0  0  0  0  0  0  0  0  0  0
  182.8430  175.4780  136.1980 C   0  0  0  0  0  2  0  0  0  0  0  0
  183.4420  173.6300  137.2390 N   0  0  0  0  0  0  0  0  0  0  0  0
  183.8730  174.8950  136.9870 O   0  0  0  0  0  0  0  0  0  0  0  0
  184.3320  172.4910  137.0760 C   0  0  0  0  0  2  0  0  0  0  0  0
  186.0430  172.9820  137.4330 S   0  0  0  0  0  1  0  0  0  0  0  0
  184.5010  178.8120  139.5000 C   0  0  0  0  0  2  0  0  0  0  0  0
  185.0850  177.7980  138.5320 C   0  0  0  0  0  2  0  0  0  0  0  0
  186.2490  178.4090  137.7690 C   0  0  0  0  0  2  0  0  0  0  0  0
  187.8940  178.1980  139.6260 C   0  0  0  0  0  3  0  0  0  0  0  0
  187.5450  177.8900  138.3060 C   0  0  0  0  0  0  0  0  0  0  0  0
  189.5860  176.5920  138.0900 C   0  0  0  0  0  3  0  0  0  0  0  0
  188.3960  177.0760  137.5280 C   0  0  0  0  0  0  0  0  0  0  0  0
  189.0840  177.7120  140.1740 C   0  0  0  0  0  3  0  0  0  0  0  0
  189.9300  176.9090  139.4060 C   0  0  0  0  0  3  0  0  0  0  0  0
  187.9620  175.5350  135.7610 O   0  0  0  0  0  0  0  0  0  0  0  0
  188.0490  176.7330  136.1400 C   0  0  0  0  0  3  0  0  0  0  0  0
  1 34  1  6  0  0  0
  2  7  2  0  0  0  0
  3  9  1  1  0  0  0
  4  3  1  0  0  0  0
  5  1  1  6  0  0  0
  5  2  1  0  0  0  0
  5  6  1  0  0  0  0
  6  4  1  0  0  0  0
  7  3  1  0  0  0  0
  8 10  1  0  0  0  0
  9  8  2  0  0  0  0
 10 11  1  0  0  0  0
 12 11  1  0  0  0  0
 13 12  1  1  0  0  0
 14 15  1  0  0  0  0
 14 17  1  0  0  0  0
 15 16  1  6  0  0  0
 15 18  1  0  0  0  0
 17 13  1  0  0  0  0
 18 19  1  6  0  0  0
 18 13  1  0  0  0  0
 19 20  1  0  0  0  0
 22  1  1  0  0  0  0
 23 22  1  0  0  0  0
 23 21  2  0  0  0  0
 24 23  1  0  0  0  0
 25 24  1  0  0  0  0
 26 27  1  0  0  0  0
 26 25  1  1  0  0  0
 27 28  2  0  0  0  0
 27 30  1  0  0  0  0
 29 26  1  0  0  0  0
 29 31  1  0  0  0  0
 31 30  1  0  0  0  0
 32 30  1  0  0  0  0
 32 33  1  0  0  0  0
 35 34  1  0  0  0  0
 36 38  1  0  0  0  0
 36 35  1  0  0  0  0
 37 41  1  0  0  0  0
 38 37  2  0  0  0  0
 39 42  1  0  0  0  0
 40 39  2  0  0  0  0
 40 38  1  0  0  0  0
 42 41  2  0  0  0  0
 43 44  2  0  0  0  0
 44 40  1  0  0  0  0
M  END
>  <MODEL>
5

>  <REMARK>
 VINA RESULT:      -7.3      2.978      8.251
  Name = 
  17 active torsions:
  status: ('A' for Active; 'I' for Inactive)
    1  A    between atoms: C_1  and  C_20
    2  A    between atoms: C_2  and  C_11
    3  A    between atoms: C_3  and  C_20
    4  A    between atoms: C_3  and  N_24
    5  A    between atoms: N_7  and  N_24
    6  A    between atoms: C_9  and  N_29
    7  A    between atoms: C_10  and  N_15
    8  A    between atoms: C_10  and  C_37
    9  A    between atoms: C_10  and  C_39
   10  A    between atoms: C_11  and  C_31
   11  A    between atoms: C_18  and  N_34
   12  A    between atoms: C_19  and  C_36
   13  A    between atoms: C_23  and  C_33
   14  A    between atoms: C_30  and  C_35
   15  A    between atoms: C_31  and  C_44
   16  A    between atoms: C_32  and  C_33
   17  A    between atoms: C_32  and  C_37
                            x       y       z     vdW  Elec       q    Type
                         _______ _______ _______ _____ _____    ______ ____

>  <TORSDO>
F 17

$$$$
=
 OpenBabel10222422043D

 44 47  0  0  1  0  0  0  0  0999 V2000
  188.2080  177.9870  141.3470 C   0  0  2  0  0  3  0  0  0  0  0  0
  190.4410  177.2250  140.5160 C   0  0  0  0  0  3  0  0  0  0  0  0
  190.5960  176.3940  138.1670 C   0  0  2  0  0  3  0  0  0  0  0  0
  189.6790  177.5580  137.7880 C   0  0  0  0  0  2  0  0  0  0  0  0
  189.2150  178.0470  140.1960 C   0  0  1  0  0  3  0  0  0  0  0  0
  188.5870  177.6870  138.8420 C   0  0  0  0  0  2  0  0  0  0  0  0
  191.0960  176.5130  139.5850 C   0  0  0  0  0  3  0  0  0  0  0  0
  192.9140  176.3650  137.6970 N   0  0  0  0  0  0  0  0  0  0  0  0
  191.7250  176.3150  137.2540 N   0  0  0  0  0  0  0  0  0  0  0  0
  193.9950  176.2920  136.8120 N   0  0  0  0  0  2  0  0  0  0  0  0
  194.9550  175.2040  136.9140 C   0  0  0  0  0  2  0  0  0  0  0  0
  194.9590  174.6260  138.3240 C   0  0  0  0  0  2  0  0  0  0  0  0
  196.0100  173.5320  138.4730 C   0  0  1  0  0  3  0  0  0  0  0  0
  196.2800  171.4490  137.6710 C   0  0  0  0  0  2  0  0  0  0  0  0
  197.0380  172.3140  136.7000 C   0  0  2  0  0  3  0  0  0  0  0  0
  198.3900  171.6930  136.3620 C   0  0  0  0  0  1  0  0  0  0  0  0
  195.3880  172.2730  138.3760 O   0  0  0  0  0  0  0  0  0  0  0  0
  197.0790  173.6590  137.3980 C   0  0  2  0  0  3  0  0  0  0  0  0
  198.4080  173.9960  138.0730 C   0  0  0  0  0  2  0  0  0  0  0  0
  198.4410  175.4070  138.4160 N   0  0  0  0  0  1  0  0  0  0  0  0
  185.6650  177.6450  142.6190 O   0  0  0  0  0  0  0  0  0  0  0  0
  186.9830  178.6960  140.9990 N   0  0  0  0  0  2  0  0  0  0  0  0
  185.7460  178.4830  141.6820 C   0  0  0  0  0  0  0  0  0  0  0  0
  184.5510  179.2800  141.2980 C   0  0  0  0  0  2  0  0  0  0  0  0
  183.3120  178.4050  141.3510 C   0  0  0  0  0  2  0  0  0  0  0  0
  182.6920  178.2910  139.9680 C   0  0  2  0  0  3  0  0  0  0  0  0
  182.8770  176.9400  139.4610 C   0  0  0  0  0  0  0  0  0  0  0  0
  182.2250  175.9280  139.8320 O   0  0  0  0  0  0  0  0  0  0  0  0
  183.5420  179.0500  138.9420 C   0  0  0  0  0  2  0  0  0  0  0  0
  183.8430  176.9250  138.4390 N   0  0  0  0  0  0  0  0  0  0  0  0
  184.4250  178.1460  138.2890 O   0  0  0  0  0  0  0  0  0  0  0  0
  183.7200  176.0130  137.3130 C   0  0  0  0  0  2  0  0  0  0  0  0
  183.1500  176.9140  135.8420 S   0  0  0  0  0  1  0  0  0  0  0  0
  188.8030  178.5600  142.6310 C   0  0  0  0  0  2  0  0  0  0  0  0
  189.0960  177.4560  143.6320 C   0  0  0  0  0  2  0  0  0  0  0  0
  187.8680  177.1800  144.4850 C   0  0  0  0  0  2  0  0  0  0  0  0
  189.4710  177.2890  146.3880 C   0  0  0  0  0  3  0  0  0  0  0  0
  188.1640  177.4740  145.9220 C   0  0  0  0  0  0  0  0  0  0  0  0
  187.5080  178.2490  148.1280 C   0  0  0  0  0  3  0  0  0  0  0  0
  187.1700  177.9620  146.7970 C   0  0  0  0  0  0  0  0  0  0  0  0
  189.7940  177.5760  147.7160 C   0  0  0  0  0  3  0  0  0  0  0  0
  188.8130  178.0560  148.5870 C   0  0  0  0  0  3  0  0  0  0  0  0
  185.1110  179.1600  146.7090 O   0  0  0  0  0  0  0  0  0  0  0  0
  185.7910  178.1700  146.3300 C   0  0  0  0  0  3  0  0  0  0  0  0
  1 34  1  1  0  0  0
  3  9  1  6  0  0  0
  3  7  1  0  0  0  0
  4  3  1  0  0  0  0
  4  6  1  0  0  0  0
  5  2  1  0  0  0  0
  5  1  1  1  0  0  0
  6  5  1  0  0  0  0
  7  2  2  0  0  0  0
  9  8  2  0  0  0  0
 10 11  1  0  0  0  0
 10  8  1  0  0  0  0
 11 12  1  0  0  0  0
 13 12  1  6  0  0  0
 14 17  1  0  0  0  0
 15 16  1  1  0  0  0
 15 18  1  0  0  0  0
 15 14  1  0  0  0  0
 17 13  1  0  0  0  0
 18 19  1  1  0  0  0
 18 13  1  0  0  0  0
 19 20  1  0  0  0  0
 22  1  1  0  0  0  0
 22 23  1  0  0  0  0
 23 21  2  0  0  0  0
 24 25  1  0  0  0  0
 24 23  1  0  0  0  0
 26 25  1  1  0  0  0
 27 28  2  0  0  0  0
 27 26  1  0  0  0  0
 29 26  1  0  0  0  0
 30 27  1  0  0  0  0
 31 30  1  0  0  0  0
 31 29  1  0  0  0  0
 32 30  1  0  0  0  0
 33 32  1  0  0  0  0
 34 35  1  0  0  0  0
 35 36  1  0  0  0  0
 36 38  1  0  0  0  0
 37 41  1  0  0  0  0
 38 37  2  0  0  0  0
 38 40  1  0  0  0  0
 39 42  1  0  0  0  0
 40 39  2  0  0  0  0
 41 42  2  0  0  0  0
 44 43  2  0  0  0  0
 44 40  1  0  0  0  0
M  END
>  <MODEL>
6

>  <REMARK>
 VINA RESULT:      -7.2      4.006      9.638
  Name = 
  17 active torsions:
  status: ('A' for Active; 'I' for Inactive)
    1  A    between atoms: C_1  and  C_20
    2  A    between atoms: C_2  and  C_11
    3  A    between atoms: C_3  and  C_20
    4  A    between atoms: C_3  and  N_24
    5  A    between atoms: N_7  and  N_24
    6  A    between atoms: C_9  and  N_29
    7  A    between atoms: C_10  and  N_15
    8  A    between atoms: C_10  and  C_37
    9  A    between atoms: C_10  and  C_39
   10  A    between atoms: C_11  and  C_31
   11  A    between atoms: C_18  and  N_34
   12  A    between atoms: C_19  and  C_36
   13  A    between atoms: C_23  and  C_33
   14  A    between atoms: C_30  and  C_35
   15  A    between atoms: C_31  and  C_44
   16  A    between atoms: C_32  and  C_33
   17  A    between atoms: C_32  and  C_37
                            x       y       z     vdW  Elec       q    Type
                         _______ _______ _______ _____ _____    ______ ____

>  <TORSDO>
F 17

$$$$
=
 OpenBabel10222422043D

 44 47  0  0  1  0  0  0  0  0999 V2000
  190.1280  177.0090  139.0780 C   0  0  2  0  0  3  0  0  0  0  0  0
  189.6310  176.4290  141.4610 C   0  0  0  0  0  3  0  0  0  0  0  0
  191.5240  176.4460  143.0890 C   0  0  2  0  0  3  0  0  0  0  0  0
  191.9900  177.7290  142.3990 C   0  0  0  0  0  2  0  0  0  0  0  0
  190.3470  177.3920  140.5440 C   0  0  1  0  0  3  0  0  0  0  0  0
  191.8330  177.5620  140.8930 C   0  0  0  0  0  2  0  0  0  0  0  0
  190.1440  176.0370  142.6380 C   0  0  0  0  0  3  0  0  0  0  0  0
  190.4510  176.6450  145.1880 N   0  0  0  0  0  0  0  0  0  0  0  0
  191.5390  176.6090  144.5330 N   0  0  0  0  0  0  0  0  0  0  0  0
  190.4740  176.8050  146.5780 N   0  0  0  0  0  2  0  0  0  0  0  0
  189.2330  176.9390  147.3220 C   0  0  0  0  0  2  0  0  0  0  0  0
  188.4150  178.1110  146.7920 C   0  0  0  0  0  2  0  0  0  0  0  0
  187.0080  177.6760  146.4000 C   0  0  1  0  0  3  0  0  0  0  0  0
  184.9240  178.3620  146.8900 C   0  0  0  0  0  2  0  0  0  0  0  0
  185.2590  179.0940  145.6190 C   0  0  2  0  0  3  0  0  0  0  0  0
  184.0890  179.0480  144.6410 C   0  0  0  0  0  1  0  0  0  0  0  0
  186.1280  177.9310  147.4690 O   0  0  0  0  0  0  0  0  0  0  0  0
  186.5370  178.4200  145.1600 C   0  0  2  0  0  3  0  0  0  0  0  0
  186.3630  177.4110  144.0260 C   0  0  0  0  0  2  0  0  0  0  0  0
  186.9680  177.9280  142.8110 N   0  0  0  0  0  1  0  0  0  0  0  0
  191.1300  174.6470  137.8080 O   0  0  0  0  0  0  0  0  0  0  0  0
  191.4000  176.8990  138.3760 N   0  0  0  0  0  2  0  0  0  0  0  0
  191.8370  175.6880  137.7560 C   0  0  0  0  0  0  0  0  0  0  0  0
  193.1280  175.6690  137.0190 C   0  0  0  0  0  2  0  0  0  0  0  0
  194.2010  175.0240  137.8780 C   0  0  0  0  0  2  0  0  0  0  0  0
  195.1970  174.2830  137.0030 C   0  0  2  0  0  3  0  0  0  0  0  0
  196.3120  173.8240  137.8180 C   0  0  0  0  0  0  0  0  0  0  0  0
  196.2820  172.8420  138.6060 O   0  0  0  0  0  0  0  0  0  0  0  0
  195.9500  175.2710  136.1040 C   0  0  0  0  0  2  0  0  0  0  0  0
  197.4640  174.5860  137.5520 N   0  0  0  0  0  0  0  0  0  0  0  0
  197.1920  175.6140  136.7050 O   0  0  0  0  0  0  0  0  0  0  0  0
  198.7840  173.9750  137.5870 C   0  0  0  0  0  2  0  0  0  0  0  0
  199.6530  174.2820  136.0220 S   0  0  0  0  0  1  0  0  0  0  0  0
  189.2230  178.0190  138.3750 C   0  0  0  0  0  2  0  0  0  0  0  0
  187.9370  177.3590  137.9060 C   0  0  0  0  0  2  0  0  0  0  0  0
  186.7870  178.3520  137.9570 C   0  0  0  0  0  2  0  0  0  0  0  0
  185.4860  176.6660  136.6670 C   0  0  0  0  0  3  0  0  0  0  0  0
  185.4970  177.6590  137.6530 C   0  0  0  0  0  0  0  0  0  0  0  0
  183.1350  177.2600  138.0520 C   0  0  0  0  0  3  0  0  0  0  0  0
  184.3110  177.9610  138.3570 C   0  0  0  0  0  0  0  0  0  0  0  0
  184.3070  175.9780  136.3710 C   0  0  0  0  0  3  0  0  0  0  0  0
  183.1310  176.2750  137.0630 C   0  0  0  0  0  3  0  0  0  0  0  0
  184.4200  180.2180  139.1180 O   0  0  0  0  0  0  0  0  0  0  0  0
  184.2970  178.9970  139.4020 C   0  0  0  0  0  3  0  0  0  0  0  0
  1 34  1  6  0  0  0
  2  7  2  0  0  0  0
  3  9  1  1  0  0  0
  4  3  1  0  0  0  0
  5  1  1  6  0  0  0
  5  6  1  0  0  0  0
  5  2  1  0  0  0  0
  6  4  1  0  0  0  0
  7  3  1  0  0  0  0
  8 10  1  0  0  0  0
  9  8  2  0  0  0  0
 10 11  1  0  0  0  0
 12 11  1  0  0  0  0
 13 12  1  1  0  0  0
 13 17  1  0  0  0  0
 14 17  1  0  0  0  0
 15 16  1  6  0  0  0
 15 14  1  0  0  0  0
 18 19  1  6  0  0  0
 18 15  1  0  0  0  0
 18 13  1  0  0  0  0
 20 19  1  0  0  0  0
 22  1  1  0  0  0  0
 23 21  2  0  0  0  0
 23 22  1  0  0  0  0
 24 23  1  0  0  0  0
 24 25  1  0  0  0  0
 26 27  1  0  0  0  0
 26 25  1  1  0  0  0
 27 28  2  0  0  0  0
 29 31  1  0  0  0  0
 29 26  1  0  0  0  0
 30 32  1  0  0  0  0
 30 27  1  0  0  0  0
 31 30  1  0  0  0  0
 33 32  1  0  0  0  0
 35 36  1  0  0  0  0
 35 34  1  0  0  0  0
 37 38  1  0  0  0  0
 38 36  1  0  0  0  0
 38 40  2  0  0  0  0
 39 40  1  0  0  0  0
 40 44  1  0  0  0  0
 41 37  2  0  0  0  0
 41 42  1  0  0  0  0
 42 39  2  0  0  0  0
 43 44  2  0  0  0  0
M  END
>  <MODEL>
7

>  <REMARK>
 VINA RESULT:      -7.2      4.187      7.977
  Name = 
  17 active torsions:
  status: ('A' for Active; 'I' for Inactive)
    1  A    between atoms: C_1  and  C_20
    2  A    between atoms: C_2  and  C_11
    3  A    between atoms: C_3  and  C_20
    4  A    between atoms: C_3  and  N_24
    5  A    between atoms: N_7  and  N_24
    6  A    between atoms: C_9  and  N_29
    7  A    between atoms: C_10  and  N_15
    8  A    between atoms: C_10  and  C_37
    9  A    between atoms: C_10  and  C_39
   10  A    between atoms: C_11  and  C_31
   11  A    between atoms: C_18  and  N_34
   12  A    between atoms: C_19  and  C_36
   13  A    between atoms: C_23  and  C_33
   14  A    between atoms: C_30  and  C_35
   15  A    between atoms: C_31  and  C_44
   16  A    between atoms: C_32  and  C_33
   17  A    between atoms: C_32  and  C_37
                            x       y       z     vdW  Elec       q    Type
                         _______ _______ _______ _____ _____    ______ ____

>  <TORSDO>
F 17

$$$$
=
 OpenBabel10222422043D

 44 47  0  0  1  0  0  0  0  0999 V2000
  189.1830  177.5110  142.4510 C   0  0  2  0  0  3  0  0  0  0  0  0
  188.3820  177.5090  140.0820 C   0  0  0  0  0  3  0  0  0  0  0  0
  190.0880  177.6930  138.2680 C   0  0  2  0  0  3  0  0  0  0  0  0
  190.9360  176.7190  139.0880 C   0  0  0  0  0  2  0  0  0  0  0  0
  189.3970  176.9440  141.0460 C   0  0  1  0  0  3  0  0  0  0  0  0
  190.8440  177.1040  140.5580 C   0  0  0  0  0  2  0  0  0  0  0  0
  188.6840  177.8040  138.8070 C   0  0  0  0  0  3  0  0  0  0  0  0
  190.5570  176.1790  136.5120 N   0  0  0  0  0  0  0  0  0  0  0  0
  190.0460  177.2850  136.8730 N   0  0  0  0  0  0  0  0  0  0  0  0
  190.5150  175.7950  135.1670 N   0  0  0  0  0  2  0  0  0  0  0  0
  190.8040  174.4210  134.7870 C   0  0  0  0  0  2  0  0  0  0  0  0
  192.3080  174.1740  134.7750 C   0  0  0  0  0  2  0  0  0  0  0  0
  192.7420  173.3250  135.9630 C   0  0  1  0  0  3  0  0  0  0  0  0
  193.8210  171.3700  136.2260 C   0  0  0  0  0  2  0  0  0  0  0  0
  194.9110  172.4040  136.3210 C   0  0  2  0  0  3  0  0  0  0  0  0
  195.8540  172.0930  137.4800 C   0  0  0  0  0  1  0  0  0  0  0  0
  192.7170  171.9660  135.5970 O   0  0  0  0  0  0  0  0  0  0  0  0
  194.1420  173.7070  136.4190 C   0  0  2  0  0  3  0  0  0  0  0  0
  194.0510  174.2980  137.8250 C   0  0  0  0  0  2  0  0  0  0  0  0
  194.2290  175.7380  137.7640 N   0  0  0  0  0  1  0  0  0  0  0  0
  186.7670  176.5370  143.6410 O   0  0  0  0  0  0  0  0  0  0  0  0
  187.9220  178.2390  142.5290 N   0  0  0  0  0  2  0  0  0  0  0  0
  186.7540  177.6950  143.1460 C   0  0  0  0  0  0  0  0  0  0  0  0
  185.5190  178.5190  143.2260 C   0  0  0  0  0  2  0  0  0  0  0  0
  185.2910  179.2330  141.9050 C   0  0  0  0  0  2  0  0  0  0  0  0
  184.5500  178.3240  140.9400 C   0  0  2  0  0  3  0  0  0  0  0  0
  184.3730  179.0060  139.6680 C   0  0  0  0  0  0  0  0  0  0  0  0
  185.2730  179.1810  138.8030 O   0  0  0  0  0  0  0  0  0  0  0  0
  183.0770  178.2010  141.3520 C   0  0  0  0  0  2  0  0  0  0  0  0
  183.0300  179.3880  139.4950 N   0  0  0  0  0  0  0  0  0  0  0  0
  182.2940  179.1260  140.6080 O   0  0  0  0  0  0  0  0  0  0  0  0
  182.4180  179.3780  138.1750 C   0  0  0  0  0  2  0  0  0  0  0  0
  182.3780  177.6830  137.5210 S   0  0  0  0  0  1  0  0  0  0  0  0
  190.3410  178.4170  142.8620 C   0  0  0  0  0  2  0  0  0  0  0  0
  190.9010  178.0030  144.2120 C   0  0  0  0  0  2  0  0  0  0  0  0
  190.0510  176.8980  144.8180 C   0  0  0  0  0  2  0  0  0  0  0  0
  188.2000  177.9350  146.1210 C   0  0  0  0  0  3  0  0  0  0  0  0
  189.4720  177.3510  146.1210 C   0  0  0  0  0  0  0  0  0  0  0  0
  189.5590  177.5880  148.5360 C   0  0  0  0  0  3  0  0  0  0  0  0
  190.1610  177.1710  147.3390 C   0  0  0  0  0  0  0  0  0  0  0  0
  187.6130  178.3480  147.3190 C   0  0  0  0  0  3  0  0  0  0  0  0
  188.2920  178.1750  148.5270 C   0  0  0  0  0  3  0  0  0  0  0  0
  192.3640  176.9020  148.2120 O   0  0  0  0  0  0  0  0  0  0  0  0
  191.4970  176.5550  147.3670 C   0  0  0  0  0  3  0  0  0  0  0  0
  1 22  1  0  0  0  0
  1 34  1  6  0  0  0
  2  5  1  0  0  0  0
  3  9  1  6  0  0  0
  3  7  1  0  0  0  0
  3  4  1  0  0  0  0
  4  6  1  0  0  0  0
  5  1  1  1  0  0  0
  6  5  1  0  0  0  0
  7  2  2  0  0  0  0
  8  9  2  0  0  0  0
 10  8  1  0  0  0  0
 11 10  1  0  0  0  0
 12 11  1  0  0  0  0
 13 12  1  6  0  0  0
 13 18  1  0  0  0  0
 14 15  1  0  0  0  0
 15 18  1  0  0  0  0
 15 16  1  1  0  0  0
 17 13  1  0  0  0  0
 17 14  1  0  0  0  0
 18 19  1  1  0  0  0
 20 19  1  0  0  0  0
 22 23  1  0  0  0  0
 23 24  1  0  0  0  0
 23 21  2  0  0  0  0
 25 24  1  0  0  0  0
 26 29  1  0  0  0  0
 26 25  1  1  0  0  0
 27 26  1  0  0  0  0
 28 27  2  0  0  0  0
 30 27  1  0  0  0  0
 30 31  1  0  0  0  0
 31 29  1  0  0  0  0
 32 30  1  0  0  0  0
 33 32  1  0  0  0  0
 34 35  1  0  0  0  0
 35 36  1  0  0  0  0
 36 38  1  0  0  0  0
 37 38  2  0  0  0  0
 37 41  1  0  0  0  0
 38 40  1  0  0  0  0
 40 44  1  0  0  0  0
 40 39  2  0  0  0  0
 41 42  2  0  0  0  0
 42 39  1  0  0  0  0
 44 43  2  0  0  0  0
M  END
>  <MODEL>
8

>  <REMARK>
 VINA RESULT:      -7.0      2.866      8.409
  Name = 
  17 active torsions:
  status: ('A' for Active; 'I' for Inactive)
    1  A    between atoms: C_1  and  C_20
    2  A    between atoms: C_2  and  C_11
    3  A    between atoms: C_3  and  C_20
    4  A    between atoms: C_3  and  N_24
    5  A    between atoms: N_7  and  N_24
    6  A    between atoms: C_9  and  N_29
    7  A    between atoms: C_10  and  N_15
    8  A    between atoms: C_10  and  C_37
    9  A    between atoms: C_10  and  C_39
   10  A    between atoms: C_11  and  C_31
   11  A    between atoms: C_18  and  N_34
   12  A    between atoms: C_19  and  C_36
   13  A    between atoms: C_23  and  C_33
   14  A    between atoms: C_30  and  C_35
   15  A    between atoms: C_31  and  C_44
   16  A    between atoms: C_32  and  C_33
   17  A    between atoms: C_32  and  C_37
                            x       y       z     vdW  Elec       q    Type
                         _______ _______ _______ _____ _____    ______ ____

>  <TORSDO>
F 17

$$$$
=
 OpenBabel10222422043D

 44 47  0  0  1  0  0  0  0  0999 V2000
  189.2650  177.2320  137.3870 C   0  0  2  0  0  3  0  0  0  0  0  0
  188.9080  177.8760  139.7780 C   0  0  0  0  0  3  0  0  0  0  0  0
  190.5240  177.0160  141.4760 C   0  0  2  0  0  3  0  0  0  0  0  0
  191.6230  177.3300  140.4600 C   0  0  0  0  0  2  0  0  0  0  0  0
  189.9260  177.7410  138.6700 C   0  0  1  0  0  3  0  0  0  0  0  0
  191.1490  176.9070  139.0760 C   0  0  0  0  0  2  0  0  0  0  0  0
  189.1940  177.5930  141.0590 C   0  0  0  0  0  3  0  0  0  0  0  0
  191.3070  176.7290  143.6900 N   0  0  0  0  0  0  0  0  0  0  0  0
  190.8850  177.5210  142.7910 N   0  0  0  0  0  0  0  0  0  0  0  0
  191.6510  177.2220  144.9530 N   0  0  0  0  0  2  0  0  0  0  0  0
  190.7110  177.1260  146.0590 C   0  0  0  0  0  2  0  0  0  0  0  0
  189.3330  176.7130  145.5560 C   0  0  0  0  0  2  0  0  0  0  0  0
  188.3380  177.8620  145.6550 C   0  0  1  0  0  3  0  0  0  0  0  0
  186.3570  178.3520  144.7120 C   0  0  0  0  0  2  0  0  0  0  0  0
  185.9870  177.6650  145.9990 C   0  0  2  0  0  3  0  0  0  0  0  0
  184.8600  178.4120  146.7070 C   0  0  0  0  0  1  0  0  0  0  0  0
  187.6890  178.0240  144.4160 O   0  0  0  0  0  0  0  0  0  0  0  0
  187.3070  177.5930  146.7420 C   0  0  2  0  0  3  0  0  0  0  0  0
  187.4840  178.6320  147.8470 C   0  0  0  0  0  2  0  0  0  0  0  0
  188.1870  178.0390  148.9710 N   0  0  0  0  0  1  0  0  0  0  0  0
  189.3730  174.4020  136.9660 O   0  0  0  0  0  0  0  0  0  0  0  0
  190.2330  176.5350  136.5490 N   0  0  0  0  0  2  0  0  0  0  0  0
  190.2250  175.1170  136.3750 C   0  0  0  0  0  0  0  0  0  0  0  0
  191.2180  174.4860  135.4660 C   0  0  0  0  0  2  0  0  0  0  0  0
  192.0700  173.4990  136.2440 C   0  0  0  0  0  2  0  0  0  0  0  0
  193.5400  173.8600  136.1130 C   0  0  2  0  0  3  0  0  0  0  0  0
  194.2940  173.2250  137.1830 C   0  0  0  0  0  0  0  0  0  0  0  0
  194.6040  172.0040  137.2290 O   0  0  0  0  0  0  0  0  0  0  0  0
  193.7620  175.3270  136.5040 C   0  0  0  0  0  2  0  0  0  0  0  0
  194.6990  174.1770  138.1350 N   0  0  0  0  0  0  0  0  0  0  0  0
  194.1750  175.4020  137.8630 O   0  0  0  0  0  0  0  0  0  0  0  0
  195.9740  174.0460  138.8230 C   0  0  0  0  0  2  0  0  0  0  0  0
  197.3400  174.3270  137.6590 S   0  0  0  0  0  1  0  0  0  0  0  0
  188.6190  178.3760  136.6080 C   0  0  0  0  0  2  0  0  0  0  0  0
  187.1910  178.0300  136.2220 C   0  0  0  0  0  2  0  0  0  0  0  0
  186.4400  177.4780  137.4230 C   0  0  0  0  0  2  0  0  0  0  0  0
  184.4390  177.0500  136.0040 C   0  0  0  0  0  3  0  0  0  0  0  0
  184.9650  177.5700  137.1920 C   0  0  0  0  0  0  0  0  0  0  0  0
  182.7200  178.1680  137.9000 C   0  0  0  0  0  3  0  0  0  0  0  0
  184.0990  178.1330  138.1540 C   0  0  0  0  0  0  0  0  0  0  0  0
  183.0650  177.0930  135.7610 C   0  0  0  0  0  3  0  0  0  0  0  0
  182.2040  177.6520  136.7090 C   0  0  0  0  0  3  0  0  0  0  0  0
  184.8540  179.9120  139.5510 O   0  0  0  0  0  0  0  0  0  0  0  0
  184.6260  178.6810  139.4140 C   0  0  0  0  0  3  0  0  0  0  0  0
  1 34  1  6  0  0  0
  2  7  2  0  0  0  0
  3  9  1  1  0  0  0
  4  3  1  0  0  0  0
  5  1  1  6  0  0  0
  5  6  1  0  0  0  0
  5  2  1  0  0  0  0
  6  4  1  0  0  0  0
  7  3  1  0  0  0  0
  8 10  1  0  0  0  0
  9  8  2  0  0  0  0
 10 11  1  0  0  0  0
 12 11  1  0  0  0  0
 13 12  1  6  0  0  0
 13 18  1  0  0  0  0
 14 15  1  0  0  0  0
 15 16  1  1  0  0  0
 15 18  1  0  0  0  0
 17 14  1  0  0  0  0
 17 13  1  0  0  0  0
 18 19  1  1  0  0  0
 19 20  1  0  0  0  0
 22  1  1  0  0  0  0
 23 22  1  0  0  0  0
 23 21  2  0  0  0  0
 24 25  1  0  0  0  0
 24 23  1  0  0  0  0
 26 25  1  1  0  0  0
 26 29  1  0  0  0  0
 26 27  1  0  0  0  0
 27 28  2  0  0  0  0
 27 30  1  0  0  0  0
 29 31  1  0  0  0  0
 30 32  1  0  0  0  0
 31 30  1  0  0  0  0
 33 32  1  0  0  0  0
 35 34  1  0  0  0  0
 35 36  1  0  0  0  0
 37 38  1  0  0  0  0
 38 36  1  0  0  0  0
 38 40  2  0  0  0  0
 39 40  1  0  0  0  0
 40 44  1  0  0  0  0
 41 37  2  0  0  0  0
 41 42  1  0  0  0  0
 42 39  2  0  0  0  0
 44 43  2  0  0  0  0
M  END
>  <MODEL>
9

>  <REMARK>
 VINA RESULT:      -7.0      3.765      8.226
  Name = 
  17 active torsions:
  status: ('A' for Active; 'I' for Inactive)
    1  A    between atoms: C_1  and  C_20
    2  A    between atoms: C_2  and  C_11
    3  A    between atoms: C_3  and  C_20
    4  A    between atoms: C_3  and  N_24
    5  A    between atoms: N_7  and  N_24
    6  A    between atoms: C_9  and  N_29
    7  A    between atoms: C_10  and  N_15
    8  A    between atoms: C_10  and  C_37
    9  A    between atoms: C_10  and  C_39
   10  A    between atoms: C_11  and  C_31
   11  A    between atoms: C_18  and  N_34
   12  A    between atoms: C_19  and  C_36
   13  A    between atoms: C_23  and  C_33
   14  A    between atoms: C_30  and  C_35
   15  A    between atoms: C_31  and  C_44
   16  A    between atoms: C_32  and  C_33
   17  A    between atoms: C_32  and  C_37
                            x       y       z     vdW  Elec       q    Type
                         _______ _______ _______ _____ _____    ______ ____

>  <TORSDO>
F 17

$$$$
