=
 OpenBabel10232408483D

 55 64  0  0  1  0  0  0  0  0999 V2000
  189.1340  178.9590  141.5220 C   0  0  0  0  0  2  0  0  0  0  0  0
  187.9580  178.6500  140.7020 N   0  0  0  0  0  0  0  0  0  0  0  0
  184.7700  179.0920  142.6550 C   0  0  0  0  0  0  0  0  0  0  0  0
  188.5430  178.4890  136.9920 C   0  0  2  0  0  3  0  0  0  0  0  0
  184.4030  178.4410  140.2780 C   0  0  0  0  0  0  0  0  0  0  0  0
  185.8020  178.4150  140.1540 C   0  0  0  0  0  0  0  0  0  0  0  0
  182.1230  178.5660  141.8150 Cl  0  0  0  0  0  0  0  0  0  0  0  0
  186.1560  179.1160  142.4150 C   0  0  0  0  0  3  0  0  0  0  0  0
  189.8700  178.4940  137.7520 C   0  0  1  0  0  3  0  0  0  0  0  0
  188.5810  179.0250  138.4410 C   0  0  2  0  0  3  0  0  0  0  0  0
  186.6020  178.0220  139.0940 O   0  0  0  0  0  0  0  0  0  0  0  0
  183.8760  178.7310  141.5770 C   0  0  0  0  0  0  0  0  0  0  0  0
  187.9530  177.1020  136.7580 C   0  0  0  0  0  1  0  0  0  0  0  0
  190.4520  177.3050  138.4900 C   0  0  1  0  0  3  0  0  0  0  0  0
  191.7320  176.9530  140.5440 C   0  0  0  0  0  2  0  0  0  0  0  0
  187.9620  178.0890  139.3960 N   0  0  2  0  0  0  0  0  0  0  0  0
  189.7860  177.7290  142.0750 C   0  0  2  0  0  3  0  0  0  0  0  0
  191.5100  177.6040  139.2550 C   0  0  0  0  0  2  0  0  0  0  0  0
  186.6240  178.7720  141.1570 C   0  0  0  0  0  0  0  0  0  0  0  0
  190.7950  177.2520  141.4020 C   0  0  0  0  0  2  0  0  0  0  0  0
  179.9820  181.9560  139.1620 C   0  0  0  0  0  3  0  0  0  0  0  0
  180.1380  180.6630  139.7750 N   0  0  0  0  0  0  0  0  0  0  0  0
  181.1750  179.9140  139.5320 C   0  0  0  0  0  0  0  0  0  0  0  0
  183.2280  179.3660  138.1230 C   0  0  0  0  0  2  0  0  0  0  0  0
  181.7780  181.3600  137.5860 C   0  0  0  0  0  2  0  0  0  0  0  0
  183.4550  178.1990  139.1030 C   0  0  2  0  0  3  0  0  0  0  0  0
  182.3130  180.4520  138.6940 C   0  0  1  0  0  3  0  0  0  0  0  0
  182.1080  177.6210  139.5660 C   0  0  1  0  0  3  0  0  0  0  0  0
  180.7860  182.3360  138.1580 C   0  0  0  0  0  0  0  0  0  0  0  0
  181.2450  178.6330  140.0880 O   0  0  0  0  0  0  0  0  0  0  0  0
  181.6010  175.4410  138.1760 C   0  0  0  0  0  0  0  0  0  0  0  0
  182.4890  173.9420  136.9590 C   0  0  0  0  0  3  0  0  0  0  0  0
  181.2690  174.1870  136.4280 N   0  0  0  0  0  0  0  0  0  0  0  0
  182.7440  174.7450  138.0220 N   0  0  0  0  0  0  0  0  0  0  0  0
  179.9820  176.3520  136.7860 C   0  0  0  0  0  3  0  0  0  0  0  0
  180.7190  175.1260  137.2090 C   0  0  0  0  0  0  0  0  0  0  0  0
  180.5160  177.3670  137.7050 N   0  0  0  0  0  0  0  0  0  0  0  0
  181.4490  176.8540  138.4530 C   0  0  1  0  0  3  0  0  0  0  0  0
  180.7500  173.6660  135.1740 C   0  0  0  0  0  2  0  0  0  0  0  0
  180.0200  171.6150  136.2390 N   0  0  0  0  0  1  0  0  0  0  0  0
  180.8420  172.1540  135.1760 C   0  0  0  0  0  2  0  0  0  0  0  0
  180.5300  184.7420  137.1010 C   0  0  0  0  0  3  0  0  0  0  0  0
  180.6500  183.6470  137.5910 C   0  0  0  0  0  0  0  0  0  0  0  0
  184.4020  179.4650  144.0830 C   0  0  0  0  0  3  0  0  0  0  0  0
  183.3170  178.6100  144.7120 C   0  0  0  0  0  2  0  0  0  0  0  0
  184.7740  178.4010  145.0960 C   0  0  0  0  0  2  0  0  0  0  0  0
  189.7330  175.9880  138.6680 C   0  0  0  0  0  2  0  0  0  0  0  0
  190.2720  174.9470  137.6950 C   0  0  0  0  0  1  0  0  0  0  0  0
  189.2440  177.0540  143.3040 C   0  0  0  0  0  2  0  0  0  0  0  0
  191.0880  177.0670  146.6960 C   0  0  0  0  0  2  0  0  0  0  0  0
  189.8100  177.6140  144.6150 C   0  0  0  0  0  3  0  0  0  0  0  0
  190.8680  176.7000  145.2340 C   0  0  0  0  0  2  0  0  0  0  0  0
  189.8160  176.8450  147.5250 C   0  0  0  0  0  2  0  0  0  0  0  0
  188.6970  178.0430  145.5870 C   0  0  0  0  0  2  0  0  0  0  0  0
  188.5200  177.0440  146.7270 C   0  0  0  0  0  2  0  0  0  0  0  0
  1 17  1  0  0  0  0
  2 19  1  0  0  0  0
  2  1  1  0  0  0  0
  3 44  1  0  0  0  0
  4 13  1  1  0  0  0
  4  9  1  0  0  0  0
  4 10  1  0  0  0  0
  5 12  1  0  0  0  0
  6  5  2  0  0  0  0
  6 19  1  0  0  0  0
  8  3  1  0  0  0  0
  9 10  1  0  0  0  0
  9 14  1  0  0  0  0
 10 16  1  0  0  0  0
 11 16  1  0  0  0  0
 11  6  1  0  0  0  0
 12  7  1  0  0  0  0
 12  3  2  0  0  0  0
 14 47  1  0  0  0  0
 14 18  1  0  0  0  0
 15 20  1  0  0  0  0
 16  2  1  0  0  0  0
 17 49  1  0  0  0  0
 18 15  1  0  0  0  0
 19  8  2  0  0  0  0
 20 17  1  0  0  0  0
 21 22  1  0  0  0  0
 23 22  2  0  0  0  0
 23 30  1  0  0  0  0
 24 27  1  0  0  0  0
 24 26  1  0  0  0  0
 25 29  1  0  0  0  0
 25 27  1  0  0  0  0
 26 28  1  0  0  0  0
 26  5  1  0  0  0  0
 27 23  1  0  0  0  0
 28 30  1  0  0  0  0
 29 21  2  0  0  0  0
 31 38  1  0  0  0  0
 32 34  2  0  0  0  0
 33 32  1  0  0  0  0
 33 36  1  0  0  0  0
 34 31  1  0  0  0  0
 35 36  1  0  0  0  0
 35 37  2  0  0  0  0
 36 31  2  0  0  0  0
 37 38  1  0  0  0  0
 38 28  1  0  0  0  0
 39 41  1  0  0  0  0
 39 33  1  0  0  0  0
 41 40  1  0  0  0  0
 42 43  3  0  0  0  0
 43 29  1  0  0  0  0
 44 45  1  0  0  0  0
 44 46  1  0  0  0  0
 45 46  1  0  0  0  0
 48 47  1  0  0  0  0
 49 51  1  0  0  0  0
 50 53  1  0  0  0  0
 51 52  1  0  0  0  0
 51 54  1  0  0  0  0
 52 50  1  0  0  0  0
 54 55  1  0  0  0  0
 55 53  1  0  0  0  0
M  END
>  <MODEL>
1

>  <REMARK>
 VINA RESULT:      -8.7      0.000      0.000
  Name = 
  9 active torsions:
  status: ('A' for Active; 'I' for Inactive)
    1  A    between atoms: C_4  and  C_8
    2  A    between atoms: C_11  and  C_51
    3  A    between atoms: N_13  and  C_36
    4  A    between atoms: C_14  and  C_28
    5  A    between atoms: C_15  and  C_45
    6  A    between atoms: C_33  and  C_36
    7  A    between atoms: C_39  and  C_46
    8  A    between atoms: C_41  and  C_54
    9  A    between atoms: C_49  and  C_51
                            x       y       z     vdW  Elec       q    Type
                         _______ _______ _______ _____ _____    ______ ____

>  <TORSDO>
F 9

$$$$
=
 OpenBabel10232408483D

 55 64  0  0  1  0  0  0  0  0999 V2000
  188.2530  179.0330  142.5490 C   0  0  0  0  0  2  0  0  0  0  0  0
  188.6740  178.3500  141.3210 N   0  0  0  0  0  0  0  0  0  0  0  0
  185.9750  178.4550  138.6980 C   0  0  0  0  0  0  0  0  0  0  0  0
  192.3580  177.6720  141.0040 C   0  0  2  0  0  3  0  0  0  0  0  0
  188.0680  177.3390  137.9340 C   0  0  0  0  0  0  0  0  0  0  0  0
  188.5720  177.5820  139.2220 C   0  0  0  0  0  0  0  0  0  0  0  0
  185.9820  177.2550  136.1390 Cl  0  0  0  0  0  0  0  0  0  0  0  0
  186.5910  178.7240  139.9340 C   0  0  0  0  0  3  0  0  0  0  0  0
  192.0020  178.0830  142.4330 C   0  0  1  0  0  3  0  0  0  0  0  0
  191.0460  178.4470  141.2620 C   0  0  2  0  0  3  0  0  0  0  0  0
  189.7610  177.1850  139.8100 O   0  0  0  0  0  0  0  0  0  0  0  0
  186.7140  177.7350  137.6850 C   0  0  0  0  0  0  0  0  0  0  0  0
  192.2620  176.1740  140.7340 C   0  0  0  0  0  1  0  0  0  0  0  0
  191.3260  177.1870  143.4520 C   0  0  1  0  0  3  0  0  0  0  0  0
  189.6820  177.4700  145.2400 C   0  0  0  0  0  2  0  0  0  0  0  0
  189.8580  177.5840  141.1430 N   0  0  2  0  0  0  0  0  0  0  0  0
  187.7680  178.0790  143.5980 C   0  0  2  0  0  3  0  0  0  0  0  0
  190.9230  177.8260  144.5570 C   0  0  0  0  0  2  0  0  0  0  0  0
  187.8830  178.2710  140.1500 C   0  0  0  0  0  0  0  0  0  0  0  0
  188.6370  177.7120  144.4970 C   0  0  0  0  0  2  0  0  0  0  0  0
  187.6860  171.7390  136.6530 C   0  0  0  0  0  3  0  0  0  0  0  0
  188.6170  172.5680  137.3730 N   0  0  0  0  0  0  0  0  0  0  0  0
  188.6900  173.8510  137.1640 C   0  0  0  0  0  0  0  0  0  0  0  0
  188.1460  175.8970  135.7450 C   0  0  0  0  0  2  0  0  0  0  0  0
  187.3370  173.6010  135.0790 C   0  0  0  0  0  2  0  0  0  0  0  0
  188.8980  176.7070  136.8170 C   0  0  2  0  0  3  0  0  0  0  0  0
  187.6950  174.5230  136.2450 C   0  0  1  0  0  3  0  0  0  0  0  0
  190.0770  175.8910  137.3720 C   0  0  1  0  0  3  0  0  0  0  0  0
  187.0210  172.2230  135.5940 C   0  0  0  0  0  0  0  0  0  0  0  0
  189.6640  174.6030  137.8300 O   0  0  0  0  0  0  0  0  0  0  0  0
  192.3960  175.0140  136.4810 C   0  0  0  0  0  0  0  0  0  0  0  0
  194.4880  175.0170  136.8600 C   0  0  0  0  0  3  0  0  0  0  0  0
  194.3450  175.0720  135.5150 N   0  0  0  0  0  0  0  0  0  0  0  0
  193.2870  175.0300  137.4910 N   0  0  0  0  0  0  0  0  0  0  0  0
  192.2490  175.9180  134.3490 C   0  0  0  0  0  3  0  0  0  0  0  0
  193.0250  175.0610  135.2920 C   0  0  0  0  0  0  0  0  0  0  0  0
  191.0680  176.2690  135.1500 N   0  0  0  0  0  0  0  0  0  0  0  0
  191.1790  175.7880  136.3540 C   0  0  1  0  0  3  0  0  0  0  0  0
  195.4040  175.2800  134.5420 C   0  0  0  0  0  2  0  0  0  0  0  0
  197.7530  175.3540  135.1350 N   0  0  0  0  0  1  0  0  0  0  0  0
  196.5140  176.1020  135.1650 C   0  0  0  0  0  2  0  0  0  0  0  0
  185.2640  170.6970  134.3460 C   0  0  0  0  0  3  0  0  0  0  0  0
  186.0600  171.4000  134.9160 C   0  0  0  0  0  0  0  0  0  0  0  0
  184.5530  178.9860  138.6100 C   0  0  0  0  0  3  0  0  0  0  0  0
  183.5620  178.0620  137.9270 C   0  0  0  0  0  2  0  0  0  0  0  0
  183.5640  178.1940  139.4420 C   0  0  0  0  0  2  0  0  0  0  0  0
  190.8080  175.8010  143.1440 C   0  0  0  0  0  2  0  0  0  0  0  0
  191.5290  174.7600  143.9890 C   0  0  0  0  0  1  0  0  0  0  0  0
  186.3690  177.5310  143.5550 C   0  0  0  0  0  2  0  0  0  0  0  0
  183.2120  178.9790  145.2390 C   0  0  0  0  0  2  0  0  0  0  0  0
  185.2910  178.5620  143.9110 C   0  0  0  0  0  3  0  0  0  0  0  0
  184.5050  178.1790  145.1650 C   0  0  0  0  0  2  0  0  0  0  0  0
  182.2860  178.6560  144.0570 C   0  0  0  0  0  2  0  0  0  0  0  0
  184.4140  178.9220  142.6990 C   0  0  0  0  0  2  0  0  0  0  0  0
  183.0370  178.2670  142.7770 C   0  0  0  0  0  2  0  0  0  0  0  0
  1 17  1  0  0  0  0
  2  1  1  0  0  0  0
  3  8  1  0  0  0  0
  4 13  1  1  0  0  0
  4 10  1  0  0  0  0
  4  9  1  0  0  0  0
  5  6  2  0  0  0  0
  6 11  1  0  0  0  0
  6 19  1  0  0  0  0
  7 12  1  0  0  0  0
  8 19  2  0  0  0  0
  9 14  1  0  0  0  0
 10  9  1  0  0  0  0
 11 16  1  0  0  0  0
 12  5  1  0  0  0  0
 12  3  2  0  0  0  0
 14 18  1  0  0  0  0
 16 10  1  0  0  0  0
 16  2  1  0  0  0  0
 17 20  1  0  0  0  0
 18 15  1  0  0  0  0
 19  2  1  0  0  0  0
 20 15  1  0  0  0  0
 21 22  1  0  0  0  0
 23 22  2  0  0  0  0
 23 30  1  0  0  0  0
 24 27  1  0  0  0  0
 24 26  1  0  0  0  0
 25 29  1  0  0  0  0
 25 27  1  0  0  0  0
 26 28  1  0  0  0  0
 26  5  1  0  0  0  0
 27 23  1  0  0  0  0
 28 30  1  0  0  0  0
 29 21  2  0  0  0  0
 31 34  1  0  0  0  0
 32 34  2  0  0  0  0
 33 32  1  0  0  0  0
 35 37  2  0  0  0  0
 35 36  1  0  0  0  0
 36 33  1  0  0  0  0
 36 31  2  0  0  0  0
 37 38  1  0  0  0  0
 38 31  1  0  0  0  0
 38 28  1  0  0  0  0
 39 41  1  0  0  0  0
 39 33  1  0  0  0  0
 40 41  1  0  0  0  0
 42 43  3  0  0  0  0
 43 29  1  0  0  0  0
 44  3  1  0  0  0  0
 44 46  1  0  0  0  0
 45 44  1  0  0  0  0
 45 46  1  0  0  0  0
 47 14  1  0  0  0  0
 47 48  1  0  0  0  0
 49 17  1  0  0  0  0
 49 51  1  0  0  0  0
 51 52  1  0  0  0  0
 52 50  1  0  0  0  0
 53 50  1  0  0  0  0
 54 55  1  0  0  0  0
 54 51  1  0  0  0  0
 55 53  1  0  0  0  0
M  END
>  <MODEL>
2

>  <REMARK>
 VINA RESULT:      -7.8      3.889      8.625
  Name = 
  9 active torsions:
  status: ('A' for Active; 'I' for Inactive)
    1  A    between atoms: C_4  and  C_8
    2  A    between atoms: C_11  and  C_51
    3  A    between atoms: N_13  and  C_36
    4  A    between atoms: C_14  and  C_28
    5  A    between atoms: C_15  and  C_45
    6  A    between atoms: C_33  and  C_36
    7  A    between atoms: C_39  and  C_46
    8  A    between atoms: C_41  and  C_54
    9  A    between atoms: C_49  and  C_51
                            x       y       z     vdW  Elec       q    Type
                         _______ _______ _______ _____ _____    ______ ____

>  <TORSDO>
F 9

$$$$
=
 OpenBabel10232408483D

 55 64  0  0  1  0  0  0  0  0999 V2000
  183.8930  177.7730  142.8910 C   0  0  0  0  0  2  0  0  0  0  0  0
  184.6610  177.8320  141.6430 N   0  0  0  0  0  0  0  0  0  0  0  0
  188.3650  177.7230  142.3030 C   0  0  0  0  0  0  0  0  0  0  0  0
  182.7230  177.1460  138.4950 C   0  0  2  0  0  3  0  0  0  0  0  0
  187.7840  177.7850  139.8800 C   0  0  0  0  0  0  0  0  0  0  0  0
  186.4410  177.8410  140.2880 C   0  0  0  0  0  0  0  0  0  0  0  0
  190.4770  177.9260  140.4350 Cl  0  0  0  0  0  0  0  0  0  0  0  0
  186.9940  177.7020  142.6130 C   0  0  0  0  0  3  0  0  0  0  0  0
  181.7790  177.3760  139.6760 C   0  0  1  0  0  3  0  0  0  0  0  0
  183.2560  176.9660  139.9340 C   0  0  2  0  0  3  0  0  0  0  0  0
  185.2840  178.0090  139.5450 O   0  0  0  0  0  0  0  0  0  0  0  0
  188.7720  177.7850  140.9170 C   0  0  0  0  0  0  0  0  0  0  0  0
  183.1130  178.4140  137.7420 C   0  0  0  0  0  1  0  0  0  0  0  0
  181.4570  178.7280  140.2810 C   0  0  1  0  0  3  0  0  0  0  0  0
  181.0220  179.6030  142.5220 C   0  0  0  0  0  2  0  0  0  0  0  0
  184.1410  178.0720  140.3420 N   0  0  2  0  0  0  0  0  0  0  0  0
  183.4350  179.1240  143.3470 C   0  0  2  0  0  3  0  0  0  0  0  0
  180.7780  178.6610  141.4330 C   0  0  0  0  0  2  0  0  0  0  0  0
  186.0730  177.7620  141.5800 C   0  0  0  0  0  0  0  0  0  0  0  0
  182.2260  179.4730  143.0110 C   0  0  0  0  0  2  0  0  0  0  0  0
  184.8650  174.6600  136.0250 C   0  0  0  0  0  3  0  0  0  0  0  0
  186.0860  174.4960  136.7690 N   0  0  0  0  0  0  0  0  0  0  0  0
  186.7310  175.5180  137.2540 C   0  0  0  0  0  0  0  0  0  0  0  0
  187.1490  178.0310  137.3480 C   0  0  0  0  0  2  0  0  0  0  0  0
  185.3690  177.0640  135.8420 C   0  0  0  0  0  2  0  0  0  0  0  0
  188.2100  177.7050  138.4150 C   0  0  2  0  0  3  0  0  0  0  0  0
  186.1320  176.9030  137.1570 C   0  0  1  0  0  3  0  0  0  0  0  0
  188.9000  176.3690  138.0920 C   0  0  1  0  0  3  0  0  0  0  0  0
  184.4700  175.8780  135.6220 C   0  0  0  0  0  0  0  0  0  0  0  0
  187.9540  175.3150  137.9020 O   0  0  0  0  0  0  0  0  0  0  0  0
  191.0310  175.7720  136.6630 C   0  0  0  0  0  0  0  0  0  0  0  0
  193.1560  175.7680  136.6790 C   0  0  0  0  0  3  0  0  0  0  0  0
  192.7870  176.0930  135.4190 N   0  0  0  0  0  0  0  0  0  0  0  0
  192.0810  175.6100  137.4910 N   0  0  0  0  0  0  0  0  0  0  0  0
  190.5240  177.0890  134.8220 C   0  0  0  0  0  3  0  0  0  0  0  0
  191.4480  176.0830  135.4220 C   0  0  0  0  0  0  0  0  0  0  0  0
  189.4980  177.2280  135.8630 N   0  0  0  0  0  0  0  0  0  0  0  0
  189.8120  176.5150  136.9060 C   0  0  1  0  0  3  0  0  0  0  0  0
  193.6650  176.5310  134.3470 C   0  0  0  0  0  2  0  0  0  0  0  0
  195.6320  177.6570  135.2040 N   0  0  0  0  0  1  0  0  0  0  0  0
  195.1090  176.3760  134.7770 C   0  0  0  0  0  2  0  0  0  0  0  0
  182.1730  176.1610  134.3510 C   0  0  0  0  0  3  0  0  0  0  0  0
  183.2260  176.0310  134.9240 C   0  0  0  0  0  0  0  0  0  0  0  0
  189.2590  177.6780  143.5330 C   0  0  0  0  0  3  0  0  0  0  0  0
  188.9580  176.5530  144.5060 C   0  0  0  0  0  2  0  0  0  0  0  0
  190.1590  176.4600  143.5770 C   0  0  0  0  0  2  0  0  0  0  0  0
  182.1240  180.0180  139.8650 C   0  0  0  0  0  2  0  0  0  0  0  0
  181.1880  180.8510  139.0000 C   0  0  0  0  0  1  0  0  0  0  0  0
  184.3640  180.0440  144.0900 C   0  0  0  0  0  2  0  0  0  0  0  0
  186.3910  179.3840  147.3080 C   0  0  0  0  0  2  0  0  0  0  0  0
  184.6410  179.6060  145.5340 C   0  0  0  0  0  3  0  0  0  0  0  0
  185.9620  180.1600  146.0700 C   0  0  0  0  0  2  0  0  0  0  0  0
  186.6660  177.9110  146.9770 C   0  0  0  0  0  2  0  0  0  0  0  0
  184.4690  178.0880  145.7200 C   0  0  0  0  0  2  0  0  0  0  0  0
  185.8120  177.3710  145.8230 C   0  0  0  0  0  2  0  0  0  0  0  0
  1 17  1  0  0  0  0
  2  1  1  0  0  0  0
  3  8  1  0  0  0  0
  3 44  1  0  0  0  0
  4 13  1  1  0  0  0
  4  9  1  0  0  0  0
  4 10  1  0  0  0  0
  5  6  2  0  0  0  0
  5 12  1  0  0  0  0
  6 19  1  0  0  0  0
  7 12  1  0  0  0  0
  9 10  1  0  0  0  0
  9 14  1  0  0  0  0
 10 16  1  0  0  0  0
 11  6  1  0  0  0  0
 11 16  1  0  0  0  0
 12  3  2  0  0  0  0
 14 18  1  0  0  0  0
 15 20  1  0  0  0  0
 16  2  1  0  0  0  0
 17 49  1  0  0  0  0
 18 15  1  0  0  0  0
 19  2  1  0  0  0  0
 19  8  2  0  0  0  0
 20 17  1  0  0  0  0
 21 22  1  0  0  0  0
 22 23  2  0  0  0  0
 23 30  1  0  0  0  0
 24 26  1  0  0  0  0
 25 27  1  0  0  0  0
 26  5  1  0  0  0  0
 27 23  1  0  0  0  0
 27 24  1  0  0  0  0
 28 26  1  0  0  0  0
 29 25  1  0  0  0  0
 29 21  2  0  0  0  0
 30 28  1  0  0  0  0
 31 38  1  0  0  0  0
 31 34  1  0  0  0  0
 32 34  2  0  0  0  0
 33 36  1  0  0  0  0
 33 32  1  0  0  0  0
 35 36  1  0  0  0  0
 35 37  2  0  0  0  0
 36 31  2  0  0  0  0
 37 38  1  0  0  0  0
 38 28  1  0  0  0  0
 39 41  1  0  0  0  0
 39 33  1  0  0  0  0
 41 40  1  0  0  0  0
 42 43  3  0  0  0  0
 43 29  1  0  0  0  0
 44 46  1  0  0  0  0
 44 45  1  0  0  0  0
 46 45  1  0  0  0  0
 47 14  1  0  0  0  0
 48 47  1  0  0  0  0
 49 51  1  0  0  0  0
 51 54  1  0  0  0  0
 51 52  1  0  0  0  0
 52 50  1  0  0  0  0
 53 50  1  0  0  0  0
 54 55  1  0  0  0  0
 55 53  1  0  0  0  0
M  END
>  <MODEL>
3

>  <REMARK>
 VINA RESULT:      -6.7      3.036      7.907
  Name = 
  9 active torsions:
  status: ('A' for Active; 'I' for Inactive)
    1  A    between atoms: C_4  and  C_8
    2  A    between atoms: C_11  and  C_51
    3  A    between atoms: N_13  and  C_36
    4  A    between atoms: C_14  and  C_28
    5  A    between atoms: C_15  and  C_45
    6  A    between atoms: C_33  and  C_36
    7  A    between atoms: C_39  and  C_46
    8  A    between atoms: C_41  and  C_54
    9  A    between atoms: C_49  and  C_51
                            x       y       z     vdW  Elec       q    Type
                         _______ _______ _______ _____ _____    ______ ____

>  <TORSDO>
F 9

$$$$
=
 OpenBabel10232408483D

 55 64  0  0  1  0  0  0  0  0999 V2000
  185.5050  178.3260  135.9810 C   0  0  0  0  0  2  0  0  0  0  0  0
  185.9740  178.0380  137.3400 N   0  0  0  0  0  0  0  0  0  0  0  0
  189.6690  177.3150  137.3930 C   0  0  0  0  0  0  0  0  0  0  0  0
  183.6410  179.0190  140.1200 C   0  0  2  0  0  3  0  0  0  0  0  0
  188.6130  177.2860  139.6500 C   0  0  0  0  0  0  0  0  0  0  0  0
  187.4000  177.5600  138.9970 C   0  0  0  0  0  0  0  0  0  0  0  0
  191.2650  176.5500  139.5960 Cl  0  0  0  0  0  0  0  0  0  0  0  0
  188.4250  177.6660  136.8360 C   0  0  0  0  0  3  0  0  0  0  0  0
  182.9270  179.0640  138.7690 C   0  0  1  0  0  3  0  0  0  0  0  0
  184.4790  179.1310  138.8260 C   0  0  2  0  0  3  0  0  0  0  0  0
  186.1090  177.6330  139.4930 O   0  0  0  0  0  0  0  0  0  0  0  0
  189.7650  177.1020  138.8200 C   0  0  0  0  0  0  0  0  0  0  0  0
  183.5850  177.6650  140.8190 C   0  0  0  0  0  1  0  0  0  0  0  0
  182.4450  177.8500  137.9990 C   0  0  1  0  0  3  0  0  0  0  0  0
  182.2890  177.1950  135.6480 C   0  0  0  0  0  2  0  0  0  0  0  0
  185.1640  177.8690  138.4960 N   0  0  2  0  0  0  0  0  0  0  0  0
  184.8640  177.1370  135.3320 C   0  0  2  0  0  3  0  0  0  0  0  0
  182.0430  178.1210  136.7510 C   0  0  0  0  0  2  0  0  0  0  0  0
  187.3250  177.7760  137.6710 C   0  0  0  0  0  0  0  0  0  0  0  0
  183.5650  177.0640  135.4060 C   0  0  0  0  0  2  0  0  0  0  0  0
  185.1430  180.2390  143.1700 C   0  0  0  0  0  3  0  0  0  0  0  0
  186.4940  180.3860  142.6960 N   0  0  0  0  0  0  0  0  0  0  0  0
  187.1720  179.3710  142.2420 C   0  0  0  0  0  0  0  0  0  0  0  0
  187.4760  176.8550  141.9730 C   0  0  0  0  0  2  0  0  0  0  0  0
  185.4820  177.8000  143.1990 C   0  0  0  0  0  2  0  0  0  0  0  0
  188.7430  177.2030  141.1710 C   0  0  2  0  0  3  0  0  0  0  0  0
  186.4980  178.0280  142.0800 C   0  0  1  0  0  3  0  0  0  0  0  0
  189.4190  178.4540  141.7550 C   0  0  1  0  0  3  0  0  0  0  0  0
  184.6170  179.0200  143.3620 C   0  0  0  0  0  0  0  0  0  0  0  0
  188.5080  179.5480  141.8670 O   0  0  0  0  0  0  0  0  0  0  0  0
  189.4750  177.4030  144.1710 C   0  0  0  0  0  0  0  0  0  0  0  0
  188.5660  177.4770  146.0910 C   0  0  0  0  0  3  0  0  0  0  0  0
  189.8830  177.2540  146.3030 N   0  0  0  0  0  0  0  0  0  0  0  0
  188.2890  177.6240  144.7710 N   0  0  0  0  0  0  0  0  0  0  0  0
  191.7050  177.8490  144.6300 C   0  0  0  0  0  3  0  0  0  0  0  0
  190.4410  177.2020  145.0860 C   0  0  2  0  0  3  0  0  0  0  0  0
  191.3310  178.3620  143.3050 N   0  0  0  0  0  0  0  0  0  0  0  0
  190.0690  178.1390  143.0750 C   0  0  0  0  0  0  0  0  0  0  0  0
  190.5640  177.2520  147.5870 C   0  0  0  0  0  2  0  0  0  0  0  0
  192.7320  176.5350  148.4000 N   0  0  0  0  0  1  0  0  0  0  0  0
  191.5800  176.1280  147.6220 C   0  0  0  0  0  2  0  0  0  0  0  0
  182.1020  178.7870  144.1320 C   0  0  0  0  0  3  0  0  0  0  0  0
  183.2530  178.8890  143.7870 C   0  0  0  0  0  0  0  0  0  0  0  0
  190.7790  177.2040  136.3590 C   0  0  0  0  0  3  0  0  0  0  0  0
  191.2690  175.7930  136.0900 C   0  0  0  0  0  2  0  0  0  0  0  0
  190.3510  176.4860  135.0950 C   0  0  0  0  0  2  0  0  0  0  0  0
  182.7170  176.4240  138.4180 C   0  0  0  0  0  2  0  0  0  0  0  0
  181.4190  175.7150  138.7780 C   0  0  0  0  0  1  0  0  0  0  0  0
  185.6990  176.0600  134.6970 C   0  0  0  0  0  2  0  0  0  0  0  0
  185.8840  173.2590  137.3470 C   0  0  0  0  0  2  0  0  0  0  0  0
  185.4950  174.6730  135.3200 C   0  0  0  0  0  3  0  0  0  0  0  0
  185.6810  174.6800  136.8380 C   0  0  0  0  0  2  0  0  0  0  0  0
  187.1670  172.6390  136.7780 C   0  0  0  0  0  2  0  0  0  0  0  0
  186.3030  173.5870  134.5880 C   0  0  0  0  0  2  0  0  0  0  0  0
  187.5340  173.1600  135.3820 C   0  0  0  0  0  2  0  0  0  0  0  0
  1  2  1  0  0  0  0
  2 19  1  0  0  0  0
  2 16  1  0  0  0  0
  3 12  1  0  0  0  0
  4 13  1  6  0  0  0
  5 26  1  0  0  0  0
  6 11  1  0  0  0  0
  6  5  1  0  0  0  0
  8  3  2  0  0  0  0
  8 19  1  0  0  0  0
  9 10  1  0  0  0  0
  9  4  1  0  0  0  0
 10  4  1  0  0  0  0
 12  7  1  0  0  0  0
 12  5  2  0  0  0  0
 14 47  1  0  0  0  0
 14  9  1  0  0  0  0
 15 18  1  0  0  0  0
 16 10  1  0  0  0  0
 16 11  1  0  0  0  0
 17 20  1  0  0  0  0
 17  1  1  0  0  0  0
 18 14  1  0  0  0  0
 19  6  2  0  0  0  0
 20 15  1  0  0  0  0
 21 29  2  0  0  0  0
 22 21  1  0  0  0  0
 23 22  2  0  0  0  0
 24 27  1  0  0  0  0
 25 29  1  0  0  0  0
 26 28  1  0  0  0  0
 26 24  1  0  0  0  0
 27 23  1  0  0  0  0
 27 25  1  0  0  0  0
 28 30  1  0  0  0  0
 28 38  1  0  0  0  0
 29 43  1  0  0  0  0
 30 23  1  0  0  0  0
 31 34  1  0  0  0  0
 31 36  1  0  0  0  0
 32 33  1  0  0  0  0
 33 39  1  0  0  0  0
 34 32  2  0  0  0  0
 35 36  1  0  0  0  0
 36 33  1  0  0  0  0
 37 35  2  0  0  0  0
 38 37  1  0  0  0  0
 38 31  2  0  0  0  0
 39 41  1  0  0  0  0
 41 40  1  0  0  0  0
 43 42  3  0  0  0  0
 44  3  1  0  0  0  0
 45 44  1  0  0  0  0
 46 45  1  0  0  0  0
 46 44  1  0  0  0  0
 47 48  1  0  0  0  0
 49 51  1  0  0  0  0
 49 17  1  0  0  0  0
 51 52  1  0  0  0  0
 52 50  1  0  0  0  0
 53 50  1  0  0  0  0
 54 51  1  0  0  0  0
 54 55  1  0  0  0  0
 55 53  1  0  0  0  0
M  END
>  <MODEL>
4

>  <REMARK>
 VINA RESULT:      -6.0      3.133      9.443
  Name = 
  9 active torsions:
  status: ('A' for Active; 'I' for Inactive)
    1  A    between atoms: C_4  and  C_8
    2  A    between atoms: C_11  and  C_51
    3  A    between atoms: N_13  and  C_36
    4  A    between atoms: C_14  and  C_28
    5  A    between atoms: C_15  and  C_45
    6  A    between atoms: C_33  and  C_36
    7  A    between atoms: C_39  and  C_46
    8  A    between atoms: C_41  and  C_54
    9  A    between atoms: C_49  and  C_51
                            x       y       z     vdW  Elec       q    Type
                         _______ _______ _______ _____ _____    ______ ____

>  <TORSDO>
F 9

$$$$
=
 OpenBabel10232408483D

 55 64  0  0  1  0  0  0  0  0999 V2000
  188.6660  178.8450  143.6310 C   0  0  0  0  0  2  0  0  0  0  0  0
  188.8390  178.3240  142.2710 N   0  0  0  0  0  0  0  0  0  0  0  0
  185.6560  178.6040  140.2790 C   0  0  0  0  0  0  0  0  0  0  0  0
  192.3920  177.8520  141.1370 C   0  0  2  0  0  3  0  0  0  0  0  0
  187.5700  177.6760  138.9790 C   0  0  0  0  0  0  0  0  0  0  0  0
  188.3230  177.7940  140.1590 C   0  0  0  0  0  0  0  0  0  0  0  0
  185.1610  177.7020  137.6470 Cl  0  0  0  0  0  0  0  0  0  0  0  0
  186.5080  178.7580  141.3880 C   0  0  0  0  0  3  0  0  0  0  0  0
  192.3290  178.0820  142.6470 C   0  0  1  0  0  3  0  0  0  0  0  0
  191.1460  178.5330  141.7450 C   0  0  2  0  0  3  0  0  0  0  0  0
  189.6150  177.3870  140.4430 O   0  0  0  0  0  0  0  0  0  0  0  0
  186.1860  178.0360  139.0590 C   0  0  0  0  0  0  0  0  0  0  0  0
  192.2730  176.3910  140.7150 C   0  0  0  0  0  1  0  0  0  0  0  0
  191.8960  177.0470  143.6670 C   0  0  1  0  0  3  0  0  0  0  0  0
  190.6510  177.0530  145.7710 C   0  0  0  0  0  2  0  0  0  0  0  0
  189.9760  177.6360  141.7670 N   0  0  2  0  0  0  0  0  0  0  0  0
  188.4270  177.7580  144.6340 C   0  0  2  0  0  3  0  0  0  0  0  0
  191.7170  177.5390  144.8990 C   0  0  0  0  0  2  0  0  0  0  0  0
  187.8250  178.3420  141.2830 C   0  0  0  0  0  0  0  0  0  0  0  0
  189.4700  177.3310  145.2890 C   0  0  0  0  0  2  0  0  0  0  0  0
  185.9730  172.7360  136.4900 C   0  0  0  0  0  3  0  0  0  0  0  0
  187.1050  173.1810  137.2600 N   0  0  0  0  0  0  0  0  0  0  0  0
  187.4170  174.4420  137.3470 C   0  0  0  0  0  0  0  0  0  0  0  0
  187.1820  176.8430  136.5240 C   0  0  0  0  0  2  0  0  0  0  0  0
  185.8800  174.9660  135.4490 C   0  0  0  0  0  2  0  0  0  0  0  0
  188.1650  177.2110  137.6510 C   0  0  2  0  0  3  0  0  0  0  0  0
  186.5060  175.4870  136.7430 C   0  0  1  0  0  3  0  0  0  0  0  0
  189.1970  176.0890  137.8480 C   0  0  1  0  0  3  0  0  0  0  0  0
  185.3360  173.5810  135.6650 C   0  0  0  0  0  0  0  0  0  0  0  0
  188.5710  174.8190  138.0410 O   0  0  0  0  0  0  0  0  0  0  0  0
  191.4470  175.3720  136.6800 C   0  0  0  0  0  0  0  0  0  0  0  0
  193.5630  175.5280  136.8010 C   0  0  0  0  0  3  0  0  0  0  0  0
  193.2550  175.5600  135.4830 N   0  0  0  0  0  0  0  0  0  0  0  0
  192.4510  175.4610  137.5740 N   0  0  0  0  0  0  0  0  0  0  0  0
  190.9760  176.2430  134.5820 C   0  0  0  0  0  3  0  0  0  0  0  0
  191.9210  175.4520  135.4230 C   0  0  0  0  0  0  0  0  0  0  0  0
  189.8800  176.5160  135.5210 N   0  0  0  0  0  0  0  0  0  0  0  0
  190.1710  176.0560  136.7030 C   0  0  1  0  0  3  0  0  0  0  0  0
  194.1690  175.8340  134.3880 C   0  0  0  0  0  2  0  0  0  0  0  0
  196.0960  177.2330  134.8400 N   0  0  0  0  0  1  0  0  0  0  0  0
  194.6880  177.2530  134.5010 C   0  0  0  0  0  2  0  0  0  0  0  0
  183.2020  172.7550  134.3470 C   0  0  0  0  0  3  0  0  0  0  0  0
  184.1790  173.1360  134.9420 C   0  0  0  0  0  0  0  0  0  0  0  0
  184.2350  179.0780  140.5440 C   0  0  0  0  0  3  0  0  0  0  0  0
  183.1900  177.9790  140.5950 C   0  0  0  0  0  2  0  0  0  0  0  0
  183.6900  178.6180  141.8810 C   0  0  0  0  0  2  0  0  0  0  0  0
  191.3550  175.6840  143.3060 C   0  0  0  0  0  2  0  0  0  0  0  0
  192.0120  174.6040  144.1560 C   0  0  0  0  0  1  0  0  0  0  0  0
  187.0610  177.1570  144.8100 C   0  0  0  0  0  2  0  0  0  0  0  0
  185.3290  179.1830  147.6010 C   0  0  0  0  0  2  0  0  0  0  0  0
  186.4310  177.4450  146.1780 C   0  0  0  0  0  3  0  0  0  0  0  0
  185.5800  178.7160  146.1740 C   0  0  0  0  0  2  0  0  0  0  0  0
  186.6390  179.5660  148.3030 C   0  0  0  0  0  2  0  0  0  0  0  0
  187.4640  177.3780  147.3150 C   0  0  0  0  0  2  0  0  0  0  0  0
  187.8540  178.7670  147.8130 C   0  0  0  0  0  2  0  0  0  0  0  0
  1 17  1  0  0  0  0
  2  1  1  0  0  0  0
  3 44  1  0  0  0  0
  3  8  1  0  0  0  0
  4 13  1  1  0  0  0
  4 10  1  0  0  0  0
  4  9  1  0  0  0  0
  5 12  1  0  0  0  0
  5  6  2  0  0  0  0
  6 11  1  0  0  0  0
  6 19  1  0  0  0  0
  7 12  1  0  0  0  0
  9 14  1  0  0  0  0
 10 16  1  0  0  0  0
 10  9  1  0  0  0  0
 11 16  1  0  0  0  0
 12  3  2  0  0  0  0
 14 18  1  0  0  0  0
 16  2  1  0  0  0  0
 17 49  1  0  0  0  0
 17 20  1  0  0  0  0
 18 15  1  0  0  0  0
 19  8  2  0  0  0  0
 19  2  1  0  0  0  0
 20 15  1  0  0  0  0
 21 22  1  0  0  0  0
 22 23  2  0  0  0  0
 23 30  1  0  0  0  0
 24 27  1  0  0  0  0
 24 26  1  0  0  0  0
 25 29  1  0  0  0  0
 25 27  1  0  0  0  0
 26 28  1  0  0  0  0
 26  5  1  0  0  0  0
 27 23  1  0  0  0  0
 28 30  1  0  0  0  0
 29 21  2  0  0  0  0
 31 38  1  0  0  0  0
 31 34  1  0  0  0  0
 32 34  2  0  0  0  0
 33 32  1  0  0  0  0
 35 36  1  0  0  0  0
 35 37  2  0  0  0  0
 36 33  1  0  0  0  0
 36 31  2  0  0  0  0
 37 38  1  0  0  0  0
 38 28  1  0  0  0  0
 39 41  1  0  0  0  0
 39 33  1  0  0  0  0
 41 40  1  0  0  0  0
 42 43  3  0  0  0  0
 43 29  1  0  0  0  0
 44 45  1  0  0  0  0
 44 46  1  0  0  0  0
 45 46  1  0  0  0  0
 47 14  1  0  0  0  0
 47 48  1  0  0  0  0
 49 51  1  0  0  0  0
 50 53  1  0  0  0  0
 51 54  1  0  0  0  0
 52 51  1  0  0  0  0
 52 50  1  0  0  0  0
 54 55  1  0  0  0  0
 55 53  1  0  0  0  0
M  END
>  <MODEL>
5

>  <REMARK>
 VINA RESULT:      -5.9      3.672      7.552
  Name = 
  9 active torsions:
  status: ('A' for Active; 'I' for Inactive)
    1  A    between atoms: C_4  and  C_8
    2  A    between atoms: C_11  and  C_51
    3  A    between atoms: N_13  and  C_36
    4  A    between atoms: C_14  and  C_28
    5  A    between atoms: C_15  and  C_45
    6  A    between atoms: C_33  and  C_36
    7  A    between atoms: C_39  and  C_46
    8  A    between atoms: C_41  and  C_54
    9  A    between atoms: C_49  and  C_51
                            x       y       z     vdW  Elec       q    Type
                         _______ _______ _______ _____ _____    ______ ____

>  <TORSDO>
F 9

$$$$
