=
 OpenBabel10222421343D

 43 49  0  0  1  0  0  0  0  0999 V2000
  182.7280  173.4970  134.7290 C   0  0  0  0  0  2  0  0  0  0  0  0
  186.4230  177.8120  138.0280 C   0  0  1  0  0  3  0  0  0  0  0  0
  186.3840  176.7840  135.8430 C   0  0  0  0  0  0  0  0  0  0  0  0
  185.7910  176.7660  137.1760 C   0  0  0  0  0  0  0  0  0  0  0  0
  182.8180  175.5160  136.1970 C   0  0  0  0  0  3  0  0  0  0  0  0
  182.1880  174.8110  135.2500 C   0  0  0  0  0  0  0  0  0  0  0  0
  187.5110  178.4470  137.1560 C   0  0  2  0  0  3  0  0  0  0  0  0
  183.9400  172.9510  135.5100 C   0  0  0  0  0  2  0  0  0  0  0  0
  184.0360  174.9690  136.8790 C   0  0  1  0  0  3  0  0  0  0  0  0
  185.3670  174.7910  134.8100 N   0  0  0  0  0  2  0  0  0  0  0  0
  184.8680  174.0720  135.9770 C   0  0  2  0  0  3  0  0  0  0  0  0
  186.1870  175.9620  134.8100 C   0  0  0  0  0  3  0  0  0  0  0  0
  184.8090  175.9920  137.6410 C   0  0  0  0  0  3  0  0  0  0  0  0
  181.0330  175.3310  134.6820 O   0  0  0  0  0  1  0  0  0  0  0  0
  187.3450  177.9050  135.7330 C   0  0  0  0  0  2  0  0  0  0  0  0
  188.8990  178.1050  137.7020 C   0  0  2  0  0  3  0  0  0  0  0  0
  189.6920  177.5280  136.7070 O   0  0  0  0  0  1  0  0  0  0  0  0
  188.8100  177.2040  138.8500 N   0  0  0  0  0  2  0  0  0  0  0  0
  190.6080  177.1410  140.5510 C   0  0  0  0  0  3  0  0  0  0  0  0
  190.1930  178.0740  142.7310 C   0  0  0  0  0  0  0  0  0  0  0  0
  188.4770  178.1260  141.0890 C   0  0  0  0  0  3  0  0  0  0  0  0
  188.9300  178.4000  142.3420 N   0  0  0  0  0  0  0  0  0  0  0  0
  191.0550  177.4310  141.8410 C   0  0  0  0  0  3  0  0  0  0  0  0
  189.3080  177.4890  140.1630 C   0  0  0  0  0  0  0  0  0  0  0  0
  190.6380  178.3610  144.1210 C   0  0  0  0  0  2  0  0  0  0  0  0
  189.2960  177.8140  146.6900 C   0  0  0  0  0  2  0  0  0  0  0  0
  189.5470  176.8350  145.5680 C   0  0  1  0  0  3  0  0  0  0  0  0
  190.8000  177.1110  144.8510 N   0  0  0  0  0  0  0  0  0  0  0  0
  190.7010  177.4120  146.2910 C   0  0  1  0  0  0  0  0  0  0  0  0
  192.0600  176.8260  148.1800 O   0  0  0  0  0  1  0  0  0  0  0  0
  192.1520  175.3750  146.3060 C   0  0  0  0  0  1  0  0  0  0  0  0
  191.2840  176.2910  147.1490 C   0  0  2  0  0  3  0  0  0  0  0  0
  185.4470  178.8350  138.3830 N   0  0  0  0  0  2  0  0  0  0  0  0
  184.6020  178.9290  142.0360 C   0  0  0  0  0  0  0  0  0  0  0  0
  183.3100  178.7060  139.5520 C   0  0  0  0  0  3  0  0  0  0  0  0
  182.5620  178.6960  140.7310 C   0  0  0  0  0  3  0  0  0  0  0  0
  183.2050  178.8050  141.9670 C   0  0  0  0  0  3  0  0  0  0  0  0
  185.3400  178.9390  140.8470 C   0  0  0  0  0  3  0  0  0  0  0  0
  184.7010  178.8260  139.6030 C   0  0  0  0  0  0  0  0  0  0  0  0
  185.3020  179.0400  143.2500 O   0  0  0  0  0  0  0  0  0  0  0  0
  184.8530  178.6880  144.5350 C   0  0  0  0  0  3  0  0  0  0  0  0
  184.9490  178.5860  146.9120 N   0  0  0  0  0  1  0  0  0  0  0  0
  185.4900  178.9890  145.6600 C   0  0  0  0  0  3  0  0  0  0  0  0
  1  6  1  0  0  0  0
  1  8  1  0  0  0  0
  2 33  1  6  0  0  0
  3  4  1  0  0  0  0
  4 13  2  0  0  0  0
  4  2  1  0  0  0  0
  6  5  2  0  0  0  0
  7 16  1  1  0  0  0
  7  2  1  0  0  0  0
  9  5  1  6  0  0  0
  9 13  1  0  0  0  0
 10 11  1  0  0  0  0
 11  8  1  6  0  0  0
 11  9  1  0  0  0  0
 12 10  1  0  0  0  0
 12  3  2  0  0  0  0
 14  6  1  0  0  0  0
 15  3  1  0  0  0  0
 15  7  1  0  0  0  0
 16 17  1  6  0  0  0
 16 18  1  0  0  0  0
 18 24  1  0  0  0  0
 19 23  1  0  0  0  0
 20 25  1  0  0  0  0
 21 22  2  0  0  0  0
 22 20  1  0  0  0  0
 23 20  2  0  0  0  0
 24 19  2  0  0  0  0
 24 21  1  0  0  0  0
 25 28  1  0  0  0  0
 27 29  1  0  0  0  0
 27 26  1  6  0  0  0
 28 27  1  0  0  0  0
 28 29  1  0  0  0  0
 29 26  1  0  0  0  0
 29 32  1  1  0  0  0
 32 31  1  6  0  0  0
 32 30  1  0  0  0  0
 33 39  1  0  0  0  0
 34 40  1  0  0  0  0
 35 39  2  0  0  0  0
 35 36  1  0  0  0  0
 36 37  2  0  0  0  0
 37 34  1  0  0  0  0
 38 34  2  0  0  0  0
 39 38  1  0  0  0  0
 40 41  1  0  0  0  0
 41 43  2  0  0  0  0
 43 42  1  0  0  0  0
M  END
>  <MODEL>
1

>  <REMARK>
 VINA RESULT:      -8.4      0.000      0.000
  Name = 
  10 active torsions:
  status: ('A' for Active; 'I' for Inactive)
    1  A    between atoms: C_3  and  N_15
    2  A    between atoms: C_3  and  C_21
    3  A    between atoms: C_7  and  O_14
    4  A    between atoms: C_8  and  C_40
    5  A    between atoms: N_9  and  C_12
    6  A    between atoms: N_9  and  C_41
    7  A    between atoms: C_11  and  O_14
    8  A    between atoms: N_15  and  C_36
    9  A    between atoms: C_22  and  C_43
   10  A    between atoms: N_28  and  C_43
                            x       y       z     vdW  Elec       q    Type
                         _______ _______ _______ _____ _____    ______ ____

>  <TORSDO>
F 10

$$$$
=
 OpenBabel10222421343D

 43 49  0  0  1  0  0  0  0  0999 V2000
  180.9140  178.9980  138.7550 C   0  0  0  0  0  2  0  0  0  0  0  0
  186.0590  177.8950  142.6880 C   0  0  1  0  0  3  0  0  0  0  0  0
  185.6580  178.6080  140.4150 C   0  0  0  0  0  0  0  0  0  0  0  0
  185.0360  178.0670  141.6180 C   0  0  0  0  0  0  0  0  0  0  0  0
  181.9690  179.3200  140.9960 C   0  0  0  0  0  3  0  0  0  0  0  0
  181.1440  179.7630  140.0400 C   0  0  0  0  0  0  0  0  0  0  0  0
  187.3900  178.3000  142.0470 C   0  0  2  0  0  3  0  0  0  0  0  0
  181.5470  177.5930  138.7270 C   0  0  0  0  0  2  0  0  0  0  0  0
  182.6160  177.9720  140.8890 C   0  0  1  0  0  3  0  0  0  0  0  0
  183.8090  178.4840  138.7910 N   0  0  0  0  0  2  0  0  0  0  0  0
  182.8930  177.5600  139.4510 C   0  0  2  0  0  3  0  0  0  0  0  0
  185.1340  178.8200  139.2050 C   0  0  0  0  0  3  0  0  0  0  0  0
  183.7520  177.7720  141.8340 C   0  0  0  0  0  3  0  0  0  0  0  0
  180.5250  180.9940  140.2050 O   0  0  0  0  0  1  0  0  0  0  0  0
  187.0820  178.9120  140.6760 C   0  0  0  0  0  2  0  0  0  0  0  0
  188.3040  177.0820  141.8980 C   0  0  2  0  0  3  0  0  0  0  0  0
  188.1460  176.2120  142.9800 O   0  0  0  0  0  1  0  0  0  0  0  0
  189.7050  177.4810  141.7830 N   0  0  0  0  0  2  0  0  0  0  0  0
  191.9300  177.4820  140.6950 C   0  0  0  0  0  3  0  0  0  0  0  0
  192.1570  176.5380  138.4920 C   0  0  0  0  0  0  0  0  0  0  0  0
  190.0290  176.5470  139.5490 C   0  0  0  0  0  3  0  0  0  0  0  0
  190.8270  176.2480  138.4880 N   0  0  0  0  0  0  0  0  0  0  0  0
  192.7320  177.1670  139.5970 C   0  0  0  0  0  3  0  0  0  0  0  0
  190.5640  177.1710  140.6780 C   0  0  0  0  0  0  0  0  0  0  0  0
  192.9880  176.2260  137.2990 C   0  0  0  0  0  2  0  0  0  0  0  0
  194.4240  173.9500  136.0890 C   0  0  0  0  0  2  0  0  0  0  0  0
  195.0190  175.2570  136.5550 C   0  0  1  0  0  3  0  0  0  0  0  0
  194.3170  175.8080  137.7230 N   0  0  0  0  0  0  0  0  0  0  0  0
  194.4110  174.3470  137.5500 C   0  0  1  0  0  0  0  0  0  0  0  0
  195.1970  172.5010  138.8660 O   0  0  0  0  0  1  0  0  0  0  0  0
  195.9280  174.6620  139.5130 C   0  0  0  0  0  1  0  0  0  0  0  0
  195.5610  173.7490  138.3570 C   0  0  2  0  0  3  0  0  0  0  0  0
  185.7820  178.7910  143.8040 N   0  0  0  0  0  2  0  0  0  0  0  0
  187.8140  177.5150  146.6880 C   0  0  0  0  0  0  0  0  0  0  0  0
  185.6040  179.1800  146.2050 C   0  0  0  0  0  3  0  0  0  0  0  0
  186.0490  178.9710  147.5130 C   0  0  0  0  0  3  0  0  0  0  0  0
  187.1470  178.1420  147.7530 C   0  0  0  0  0  3  0  0  0  0  0  0
  187.3590  177.7330  145.3820 C   0  0  0  0  0  3  0  0  0  0  0  0
  186.2540  178.5620  145.1350 C   0  0  0  0  0  0  0  0  0  0  0  0
  188.9220  176.6690  146.8700 O   0  0  0  0  0  0  0  0  0  0  0  0
  190.1980  177.0160  147.3450 C   0  0  0  0  0  3  0  0  0  0  0  0
  192.4660  176.6200  147.9560 N   0  0  0  0  0  1  0  0  0  0  0  0
  191.2110  176.1650  147.4640 C   0  0  0  0  0  3  0  0  0  0  0  0
  1  6  1  0  0  0  0
  2 33  1  1  0  0  0
  3 15  1  0  0  0  0
  3  4  1  0  0  0  0
  4 13  2  0  0  0  0
  4  2  1  0  0  0  0
  6 14  1  0  0  0  0
  6  5  2  0  0  0  0
  7 16  1  6  0  0  0
  7  2  1  0  0  0  0
  8  1  1  0  0  0  0
  9  5  1  6  0  0  0
  9 13  1  0  0  0  0
 10 12  1  0  0  0  0
 10 11  1  0  0  0  0
 11  8  1  6  0  0  0
 11  9  1  0  0  0  0
 12  3  2  0  0  0  0
 15  7  1  0  0  0  0
 16 17  1  1  0  0  0
 18 16  1  0  0  0  0
 20 23  1  0  0  0  0
 21 24  2  0  0  0  0
 22 20  2  0  0  0  0
 22 21  1  0  0  0  0
 23 19  2  0  0  0  0
 24 19  1  0  0  0  0
 24 18  1  0  0  0  0
 25 28  1  0  0  0  0
 25 20  1  0  0  0  0
 26 29  1  0  0  0  0
 27 26  1  6  0  0  0
 27 29  1  0  0  0  0
 27 28  1  0  0  0  0
 29 28  1  0  0  0  0
 29 32  1  1  0  0  0
 32 30  1  0  0  0  0
 32 31  1  1  0  0  0
 33 39  1  0  0  0  0
 34 40  1  0  0  0  0
 34 37  1  0  0  0  0
 35 36  1  0  0  0  0
 36 37  2  0  0  0  0
 38 34  2  0  0  0  0
 39 38  1  0  0  0  0
 39 35  2  0  0  0  0
 40 41  1  0  0  0  0
 41 43  2  0  0  0  0
 43 42  1  0  0  0  0
M  END
>  <MODEL>
2

>  <REMARK>
 VINA RESULT:      -8.1      3.366      6.567
  Name = 
  10 active torsions:
  status: ('A' for Active; 'I' for Inactive)
    1  A    between atoms: C_3  and  N_15
    2  A    between atoms: C_3  and  C_21
    3  A    between atoms: C_7  and  O_14
    4  A    between atoms: C_8  and  C_40
    5  A    between atoms: N_9  and  C_12
    6  A    between atoms: N_9  and  C_41
    7  A    between atoms: C_11  and  O_14
    8  A    between atoms: N_15  and  C_36
    9  A    between atoms: C_22  and  C_43
   10  A    between atoms: N_28  and  C_43
                            x       y       z     vdW  Elec       q    Type
                         _______ _______ _______ _____ _____    ______ ____

>  <TORSDO>
F 10

$$$$
=
 OpenBabel10222421343D

 43 49  0  0  1  0  0  0  0  0999 V2000
  190.5380  176.4070  146.9420 C   0  0  0  0  0  2  0  0  0  0  0  0
  188.9410  179.0400  141.1390 C   0  0  1  0  0  3  0  0  0  0  0  0
  189.3380  176.8440  142.0650 C   0  0  0  0  0  0  0  0  0  0  0  0
  189.4220  178.2770  142.3250 C   0  0  0  0  0  0  0  0  0  0  0  0
  189.1180  178.0240  145.6730 C   0  0  0  0  0  3  0  0  0  0  0  0
  189.2750  177.2120  146.7250 C   0  0  0  0  0  0  0  0  0  0  0  0
  188.6130  177.9820  140.0800 C   0  0  2  0  0  3  0  0  0  0  0  0
  191.6860  176.7480  145.9700 C   0  0  0  0  0  2  0  0  0  0  0  0
  190.2460  178.2680  144.7160 C   0  0  1  0  0  3  0  0  0  0  0  0
  190.4640  175.9050  144.0460 N   0  0  0  0  0  2  0  0  0  0  0  0
  191.1690  177.0690  144.5690 C   0  0  2  0  0  3  0  0  0  0  0  0
  189.7530  175.8160  142.8090 C   0  0  0  0  0  3  0  0  0  0  0  0
  189.8220  178.9020  143.4350 C   0  0  0  0  0  3  0  0  0  0  0  0
  188.2220  177.0550  147.6150 O   0  0  0  0  0  1  0  0  0  0  0  0
  188.7030  176.6060  140.7500 C   0  0  0  0  0  2  0  0  0  0  0  0
  189.5960  178.0740  138.9110 C   0  0  2  0  0  3  0  0  0  0  0  0
  188.9980  178.6950  137.8110 O   0  0  0  0  0  1  0  0  0  0  0  0
  190.0880  176.7520  138.5270 N   0  0  0  0  0  2  0  0  0  0  0  0
  191.2740  176.0120  136.4830 C   0  0  0  0  0  3  0  0  0  0  0  0
  193.6810  176.0390  136.4500 C   0  0  0  0  0  0  0  0  0  0  0  0
  192.5290  176.7450  138.4040 C   0  0  0  0  0  3  0  0  0  0  0  0
  193.6850  176.5080  137.7270 N   0  0  0  0  0  0  0  0  0  0  0  0
  192.4710  175.7760  135.8060 C   0  0  0  0  0  3  0  0  0  0  0  0
  191.2950  176.5020  137.7950 C   0  0  0  0  0  0  0  0  0  0  0  0
  194.9670  175.7620  135.7570 C   0  0  0  0  0  2  0  0  0  0  0  0
  195.8250  172.9400  135.6650 C   0  0  0  0  0  2  0  0  0  0  0  0
  196.6780  174.1400  136.0040 C   0  0  1  0  0  3  0  0  0  0  0  0
  195.9190  175.1890  136.7000 N   0  0  0  0  0  0  0  0  0  0  0  0
  195.5600  173.7740  136.9020 C   0  0  1  0  0  0  0  0  0  0  0  0
  195.4090  172.1530  138.6660 O   0  0  0  0  0  1  0  0  0  0  0  0
  196.3000  174.2750  139.2370 C   0  0  0  0  0  1  0  0  0  0  0  0
  196.1890  173.2010  138.1710 C   0  0  2  0  0  3  0  0  0  0  0  0
  187.7230  179.7720  141.4650 N   0  0  0  0  0  2  0  0  0  0  0  0
  184.5570  178.3290  142.8670 C   0  0  0  0  0  0  0  0  0  0  0  0
  185.7740  178.7880  140.3780 C   0  0  0  0  0  3  0  0  0  0  0  0
  184.5140  178.1890  140.4390 C   0  0  0  0  0  3  0  0  0  0  0  0
  183.9090  177.9600  141.6770 C   0  0  0  0  0  3  0  0  0  0  0  0
  185.8190  178.9290  142.7920 C   0  0  0  0  0  3  0  0  0  0  0  0
  186.4330  179.1590  141.5520 C   0  0  0  0  0  0  0  0  0  0  0  0
  183.9990  178.1200  144.1400 O   0  0  0  0  0  0  0  0  0  0  0  0
  184.2980  178.8020  145.3320 C   0  0  0  0  0  3  0  0  0  0  0  0
  185.5020  179.2310  147.3410 N   0  0  0  0  0  1  0  0  0  0  0  0
  185.2830  178.4720  146.1580 C   0  0  0  0  0  3  0  0  0  0  0  0
  2 33  1  1  0  0  0
  2  4  1  0  0  0  0
  3  4  1  0  0  0  0
  3 12  2  0  0  0  0
  4 13  2  0  0  0  0
  5  6  2  0  0  0  0
  6  1  1  0  0  0  0
  6 14  1  0  0  0  0
  7 16  1  6  0  0  0
  7 15  1  0  0  0  0
  7  2  1  0  0  0  0
  8  1  1  0  0  0  0
  9 13  1  6  0  0  0
  9  5  1  0  0  0  0
 10 11  1  0  0  0  0
 11  9  1  0  0  0  0
 11  8  1  1  0  0  0
 12 10  1  0  0  0  0
 15  3  1  0  0  0  0
 16 17  1  6  0  0  0
 18 16  1  0  0  0  0
 19 24  1  0  0  0  0
 20 22  2  0  0  0  0
 22 21  1  0  0  0  0
 23 20  1  0  0  0  0
 23 19  2  0  0  0  0
 24 21  2  0  0  0  0
 24 18  1  0  0  0  0
 25 20  1  0  0  0  0
 25 28  1  0  0  0  0
 26 29  1  0  0  0  0
 27 26  1  6  0  0  0
 27 28  1  0  0  0  0
 27 29  1  0  0  0  0
 28 29  1  0  0  0  0
 29 32  1  1  0  0  0
 32 30  1  0  0  0  0
 32 31  1  1  0  0  0
 33 39  1  0  0  0  0
 34 40  1  0  0  0  0
 35 36  2  0  0  0  0
 35 39  1  0  0  0  0
 36 37  1  0  0  0  0
 37 34  2  0  0  0  0
 38 34  1  0  0  0  0
 39 38  2  0  0  0  0
 40 41  1  0  0  0  0
 41 43  2  0  0  0  0
 43 42  1  0  0  0  0
M  END
>  <MODEL>
3

>  <REMARK>
 VINA RESULT:      -7.7      3.773      8.062
  Name = 
  10 active torsions:
  status: ('A' for Active; 'I' for Inactive)
    1  A    between atoms: C_3  and  N_15
    2  A    between atoms: C_3  and  C_21
    3  A    between atoms: C_7  and  O_14
    4  A    between atoms: C_8  and  C_40
    5  A    between atoms: N_9  and  C_12
    6  A    between atoms: N_9  and  C_41
    7  A    between atoms: C_11  and  O_14
    8  A    between atoms: N_15  and  C_36
    9  A    between atoms: C_22  and  C_43
   10  A    between atoms: N_28  and  C_43
                            x       y       z     vdW  Elec       q    Type
                         _______ _______ _______ _____ _____    ______ ____

>  <TORSDO>
F 10

$$$$
=
 OpenBabel10222421343D

 43 49  0  0  1  0  0  0  0  0999 V2000
  190.8800  176.3010  147.1020 C   0  0  0  0  0  2  0  0  0  0  0  0
  188.7130  178.9110  141.4770 C   0  0  1  0  0  3  0  0  0  0  0  0
  189.4740  176.7650  142.2840 C   0  0  0  0  0  0  0  0  0  0  0  0
  189.3430  178.1800  142.6120 C   0  0  0  0  0  0  0  0  0  0  0  0
  189.1870  177.7310  145.9490 C   0  0  0  0  0  3  0  0  0  0  0  0
  189.5010  176.9070  146.9560 C   0  0  0  0  0  0  0  0  0  0  0  0
  188.5210  177.8640  140.3750 C   0  0  2  0  0  3  0  0  0  0  0  0
  191.9300  176.8610  146.1220 C   0  0  0  0  0  2  0  0  0  0  0  0
  190.2330  178.1920  144.9800 C   0  0  1  0  0  3  0  0  0  0  0  0
  190.7940  175.9240  144.1880 N   0  0  0  0  0  2  0  0  0  0  0  0
  191.3260  177.1600  144.7510 C   0  0  2  0  0  3  0  0  0  0  0  0
  190.0670  175.7820  142.9650 C   0  0  0  0  0  3  0  0  0  0  0  0
  189.6760  178.8090  143.7410 C   0  0  0  0  0  3  0  0  0  0  0  0
  188.5130  176.5470  147.8620 O   0  0  0  0  0  1  0  0  0  0  0  0
  188.8430  176.4900  140.9740 C   0  0  0  0  0  2  0  0  0  0  0  0
  189.4400  178.1610  139.1890 C   0  0  2  0  0  3  0  0  0  0  0  0
  188.9080  179.1830  138.3970 O   0  0  0  0  0  1  0  0  0  0  0  0
  189.6600  176.9670  138.3760 N   0  0  0  0  0  2  0  0  0  0  0  0
  192.1170  176.6670  138.4500 C   0  0  0  0  0  3  0  0  0  0  0  0
  193.2640  175.8970  136.4780 C   0  0  0  0  0  0  0  0  0  0  0  0
  190.9070  176.1910  136.4230 C   0  0  0  0  0  3  0  0  0  0  0  0
  192.0750  175.8500  135.8160 N   0  0  0  0  0  0  0  0  0  0  0  0
  193.3050  176.3130  137.8100 C   0  0  0  0  0  3  0  0  0  0  0  0
  190.9010  176.6070  137.7560 C   0  0  0  0  0  0  0  0  0  0  0  0
  194.5230  175.5490  135.7690 C   0  0  0  0  0  2  0  0  0  0  0  0
  195.8110  172.8960  135.6740 C   0  0  0  0  0  2  0  0  0  0  0  0
  196.4570  174.2080  136.0500 C   0  0  1  0  0  3  0  0  0  0  0  0
  195.5250  175.1170  136.7330 N   0  0  0  0  0  0  0  0  0  0  0  0
  195.3860  173.6600  136.9110 C   0  0  1  0  0  0  0  0  0  0  0  0
  195.3570  172.0940  138.7290 O   0  0  0  0  0  1  0  0  0  0  0  0
  196.1080  174.2880  139.2210 C   0  0  0  0  0  1  0  0  0  0  0  0
  196.0610  173.1740  138.1920 C   0  0  2  0  0  3  0  0  0  0  0  0
  187.4070  179.4280  141.8680 N   0  0  0  0  0  2  0  0  0  0  0  0
  184.7390  178.2230  139.5220 C   0  0  0  0  0  0  0  0  0  0  0  0
  185.1680  178.5520  142.2790 C   0  0  0  0  0  3  0  0  0  0  0  0
  183.9540  178.0380  141.8170 C   0  0  0  0  0  3  0  0  0  0  0  0
  183.7400  177.8760  140.4470 C   0  0  0  0  0  3  0  0  0  0  0  0
  185.9520  178.7360  139.9970 C   0  0  0  0  0  3  0  0  0  0  0  0
  186.1710  178.9050  141.3730 C   0  0  0  0  0  0  0  0  0  0  0  0
  184.5780  178.0840  138.1330 O   0  0  0  0  0  0  0  0  0  0  0  0
  185.5810  177.8910  137.1680 C   0  0  0  0  0  3  0  0  0  0  0  0
  187.1690  176.6370  135.9110 N   0  0  0  0  0  1  0  0  0  0  0  0
  186.1620  176.7250  136.9120 C   0  0  0  0  0  3  0  0  0  0  0  0
  2 33  1  1  0  0  0
  2  4  1  0  0  0  0
  3  4  1  0  0  0  0
  3 12  2  0  0  0  0
  4 13  2  0  0  0  0
  5  6  2  0  0  0  0
  6  1  1  0  0  0  0
  6 14  1  0  0  0  0
  7 16  1  6  0  0  0
  7 15  1  0  0  0  0
  7  2  1  0  0  0  0
  8  1  1  0  0  0  0
  9 13  1  6  0  0  0
  9  5  1  0  0  0  0
 10 11  1  0  0  0  0
 11  9  1  0  0  0  0
 11  8  1  1  0  0  0
 12 10  1  0  0  0  0
 15  3  1  0  0  0  0
 16 17  1  6  0  0  0
 18 16  1  0  0  0  0
 20 23  2  0  0  0  0
 21 24  1  0  0  0  0
 22 21  2  0  0  0  0
 22 20  1  0  0  0  0
 23 19  1  0  0  0  0
 24 18  1  0  0  0  0
 24 19  2  0  0  0  0
 25 20  1  0  0  0  0
 25 28  1  0  0  0  0
 26 29  1  0  0  0  0
 27 26  1  6  0  0  0
 27 28  1  0  0  0  0
 27 29  1  0  0  0  0
 28 29  1  0  0  0  0
 29 32  1  1  0  0  0
 32 30  1  0  0  0  0
 32 31  1  1  0  0  0
 34 38  2  0  0  0  0
 34 37  1  0  0  0  0
 36 35  1  0  0  0  0
 37 36  2  0  0  0  0
 38 39  1  0  0  0  0
 39 33  1  0  0  0  0
 39 35  2  0  0  0  0
 40 34  1  0  0  0  0
 41 40  1  0  0  0  0
 42 43  1  0  0  0  0
 43 41  2  0  0  0  0
M  END
>  <MODEL>
4

>  <REMARK>
 VINA RESULT:      -7.5      3.753      8.537
  Name = 
  10 active torsions:
  status: ('A' for Active; 'I' for Inactive)
    1  A    between atoms: C_3  and  N_15
    2  A    between atoms: C_3  and  C_21
    3  A    between atoms: C_7  and  O_14
    4  A    between atoms: C_8  and  C_40
    5  A    between atoms: N_9  and  C_12
    6  A    between atoms: N_9  and  C_41
    7  A    between atoms: C_11  and  O_14
    8  A    between atoms: N_15  and  C_36
    9  A    between atoms: C_22  and  C_43
   10  A    between atoms: N_28  and  C_43
                            x       y       z     vdW  Elec       q    Type
                         _______ _______ _______ _____ _____    ______ ____

>  <TORSDO>
F 10

$$$$
=
 OpenBabel10222421343D

 43 49  0  0  1  0  0  0  0  0999 V2000
  189.7090  178.0860  144.6500 C   0  0  0  0  0  2  0  0  0  0  0  0
  190.4720  176.6640  138.2820 C   0  0  1  0  0  3  0  0  0  0  0  0
  189.1450  178.1570  139.6410 C   0  0  0  0  0  0  0  0  0  0  0  0
  190.0680  177.0270  139.6700 C   0  0  0  0  0  0  0  0  0  0  0  0
  191.2760  177.6670  142.7510 C   0  0  0  0  0  3  0  0  0  0  0  0
  191.0220  178.2650  143.9210 C   0  0  0  0  0  0  0  0  0  0  0  0
  189.6790  177.6030  137.3670 C   0  0  2  0  0  3  0  0  0  0  0  0
  188.7810  177.0170  144.0390 C   0  0  0  0  0  2  0  0  0  0  0  0
  190.3070  176.6850  142.1640 C   0  0  1  0  0  3  0  0  0  0  0  0
  188.4510  178.3010  142.0010 N   0  0  0  0  0  2  0  0  0  0  0  0
  188.8610  176.9990  142.5130 C   0  0  2  0  0  3  0  0  0  0  0  0
  188.4690  178.7320  140.6380 C   0  0  0  0  0  3  0  0  0  0  0  0
  190.5590  176.3770  140.7270 C   0  0  0  0  0  3  0  0  0  0  0  0
  191.9710  179.1270  144.4530 O   0  0  0  0  0  1  0  0  0  0  0  0
  188.9900  178.6470  138.2530 C   0  0  0  0  0  2  0  0  0  0  0  0
  188.6440  176.8150  136.5620 C   0  0  2  0  0  3  0  0  0  0  0  0
  189.2240  176.2660  135.4160 O   0  0  0  0  0  1  0  0  0  0  0  0
  187.5090  177.6580  136.1890 N   0  0  0  0  0  2  0  0  0  0  0  0
  185.1980  176.8460  135.8290 C   0  0  0  0  0  3  0  0  0  0  0  0
  183.5640  177.1490  137.5710 C   0  0  0  0  0  0  0  0  0  0  0  0
  185.7850  177.9250  137.9000 C   0  0  0  0  0  3  0  0  0  0  0  0
  184.5080  177.7600  138.3380 N   0  0  0  0  0  0  0  0  0  0  0  0
  183.8930  176.6850  136.2960 C   0  0  0  0  0  3  0  0  0  0  0  0
  186.1600  177.4700  136.6340 C   0  0  0  0  0  0  0  0  0  0  0  0
  182.1700  177.0190  138.0730 C   0  0  0  0  0  2  0  0  0  0  0  0
  179.9830  178.0560  139.7590 C   0  0  0  0  0  2  0  0  0  0  0  0
  180.7900  176.7990  139.9860 C   0  0  1  0  0  3  0  0  0  0  0  0
  182.1790  176.9340  139.5270 N   0  0  0  0  0  0  0  0  0  0  0  0
  181.4680  178.1120  140.0540 C   0  0  1  0  0  0  0  0  0  0  0  0
  181.1520  179.5240  141.9690 O   0  0  0  0  0  1  0  0  0  0  0  0
  183.2860  178.5200  141.7210 C   0  0  0  0  0  1  0  0  0  0  0  0
  181.7900  178.3630  141.5260 C   0  0  2  0  0  3  0  0  0  0  0  0
  191.8960  176.9100  138.0870 N   0  0  0  0  0  2  0  0  0  0  0  0
  194.7220  174.4630  137.7790 C   0  0  0  0  0  0  0  0  0  0  0  0
  192.6260  175.5100  136.2290 C   0  0  0  0  0  3  0  0  0  0  0  0
  193.4940  174.5620  135.6810 C   0  0  0  0  0  3  0  0  0  0  0  0
  194.5370  174.0430  136.4510 C   0  0  0  0  0  3  0  0  0  0  0  0
  193.8450  175.4120  138.3160 C   0  0  0  0  0  3  0  0  0  0  0  0
  192.7980  175.9400  137.5460 C   0  0  0  0  0  0  0  0  0  0  0  0
  195.7550  173.9770  138.5990 O   0  0  0  0  0  0  0  0  0  0  0  0
  196.9340  174.6410  138.9790 C   0  0  0  0  0  3  0  0  0  0  0  0
  199.2490  175.1850  138.8630 N   0  0  0  0  0  1  0  0  0  0  0  0
  198.1160  174.4610  138.4010 C   0  0  0  0  0  3  0  0  0  0  0  0
  2 33  1  1  0  0  0
  2  4  1  0  0  0  0
  3  4  1  0  0  0  0
  3 12  2  0  0  0  0
  4 13  2  0  0  0  0
  5  6  2  0  0  0  0
  6 14  1  0  0  0  0
  6  1  1  0  0  0  0
  7 16  1  1  0  0  0
  7 15  1  0  0  0  0
  7  2  1  0  0  0  0
  8  1  1  0  0  0  0
  9 13  1  6  0  0  0
  9 11  1  0  0  0  0
  9  5  1  0  0  0  0
 10 11  1  0  0  0  0
 11  8  1  1  0  0  0
 12 10  1  0  0  0  0
 15  3  1  0  0  0  0
 16 17  1  6  0  0  0
 18 16  1  0  0  0  0
 18 24  1  0  0  0  0
 19 23  2  0  0  0  0
 19 24  1  0  0  0  0
 20 25  1  0  0  0  0
 20 22  2  0  0  0  0
 21 22  1  0  0  0  0
 23 20  1  0  0  0  0
 24 21  2  0  0  0  0
 25 28  1  0  0  0  0
 26 29  1  0  0  0  0
 27 26  1  6  0  0  0
 27 29  1  0  0  0  0
 28 27  1  0  0  0  0
 28 29  1  0  0  0  0
 29 32  1  1  0  0  0
 32 31  1  6  0  0  0
 32 30  1  0  0  0  0
 34 38  1  0  0  0  0
 34 40  1  0  0  0  0
 35 39  1  0  0  0  0
 36 35  2  0  0  0  0
 36 37  1  0  0  0  0
 37 34  2  0  0  0  0
 39 33  1  0  0  0  0
 39 38  2  0  0  0  0
 40 41  1  0  0  0  0
 43 42  1  0  0  0  0
 43 41  2  0  0  0  0
M  END
>  <MODEL>
5

>  <REMARK>
 VINA RESULT:      -7.3      3.681      9.793
  Name = 
  10 active torsions:
  status: ('A' for Active; 'I' for Inactive)
    1  A    between atoms: C_3  and  N_15
    2  A    between atoms: C_3  and  C_21
    3  A    between atoms: C_7  and  O_14
    4  A    between atoms: C_8  and  C_40
    5  A    between atoms: N_9  and  C_12
    6  A    between atoms: N_9  and  C_41
    7  A    between atoms: C_11  and  O_14
    8  A    between atoms: N_15  and  C_36
    9  A    between atoms: C_22  and  C_43
   10  A    between atoms: N_28  and  C_43
                            x       y       z     vdW  Elec       q    Type
                         _______ _______ _______ _____ _____    ______ ____

>  <TORSDO>
F 10

$$$$
=
 OpenBabel10222421343D

 43 49  0  0  1  0  0  0  0  0999 V2000
  189.7730  178.0360  144.7770 C   0  0  0  0  0  2  0  0  0  0  0  0
  190.1650  176.8070  138.3360 C   0  0  1  0  0  3  0  0  0  0  0  0
  188.8810  178.2160  139.8190 C   0  0  0  0  0  0  0  0  0  0  0  0
  189.8410  177.1200  139.7560 C   0  0  0  0  0  0  0  0  0  0  0  0
  191.2260  177.7210  142.7690 C   0  0  0  0  0  3  0  0  0  0  0  0
  191.0290  178.2800  143.9690 C   0  0  0  0  0  0  0  0  0  0  0  0
  189.2820  177.7410  137.5010 C   0  0  2  0  0  3  0  0  0  0  0  0
  188.8430  176.9520  144.1980 C   0  0  0  0  0  2  0  0  0  0  0  0
  190.2540  176.7220  142.2190 C   0  0  1  0  0  3  0  0  0  0  0  0
  188.3380  178.2750  142.2220 N   0  0  0  0  0  2  0  0  0  0  0  0
  188.8240  176.9750  142.6700 C   0  0  2  0  0  3  0  0  0  0  0  0
  188.2520  178.7410  140.8730 C   0  0  0  0  0  3  0  0  0  0  0  0
  190.4210  176.4600  140.7610 C   0  0  0  0  0  3  0  0  0  0  0  0
  191.9810  179.1600  144.4640 O   0  0  0  0  0  1  0  0  0  0  0  0
  188.6190  178.7360  138.4580 C   0  0  0  0  0  2  0  0  0  0  0  0
  188.2240  176.9380  136.7420 C   0  0  2  0  0  3  0  0  0  0  0  0
  188.5250  176.8900  135.3780 O   0  0  0  0  0  1  0  0  0  0  0  0
  186.8900  177.5040  136.9360 N   0  0  0  0  0  2  0  0  0  0  0  0
  184.5590  177.2130  137.7180 C   0  0  0  0  0  3  0  0  0  0  0  0
  183.3610  175.2130  137.1140 C   0  0  0  0  0  0  0  0  0  0  0  0
  185.5990  175.5070  136.3730 C   0  0  0  0  0  3  0  0  0  0  0  0
  184.4570  174.7710  136.4380 N   0  0  0  0  0  0  0  0  0  0  0  0
  183.3960  176.4440  137.7730 C   0  0  0  0  0  3  0  0  0  0  0  0
  185.6760  176.7470  137.0120 C   0  0  0  0  0  0  0  0  0  0  0  0
  182.1430  174.3640  137.1890 C   0  0  0  0  0  2  0  0  0  0  0  0
  180.9750  171.6630  137.4060 C   0  0  0  0  0  2  0  0  0  0  0  0
  180.9360  172.5780  136.2040 C   0  0  1  0  0  3  0  0  0  0  0  0
  182.1450  173.4060  136.0910 N   0  0  0  0  0  0  0  0  0  0  0  0
  182.2390  172.0540  136.6690 C   0  0  1  0  0  0  0  0  0  0  0  0
  183.3580  169.9690  136.2650 O   0  0  0  0  0  1  0  0  0  0  0  0
  183.6200  171.6590  134.6220 C   0  0  0  0  0  1  0  0  0  0  0  0
  182.6890  171.0220  135.6360 C   0  0  2  0  0  3  0  0  0  0  0  0
  191.5640  177.1080  138.0560 N   0  0  0  0  0  2  0  0  0  0  0  0
  194.4210  174.7180  137.6100 C   0  0  0  0  0  0  0  0  0  0  0  0
  192.2790  175.7830  136.1370 C   0  0  0  0  0  3  0  0  0  0  0  0
  193.1510  174.8690  135.5410 C   0  0  0  0  0  3  0  0  0  0  0  0
  194.2160  174.3400  136.2720 C   0  0  0  0  0  3  0  0  0  0  0  0
  193.5400  175.6340  138.1960 C   0  0  0  0  0  3  0  0  0  0  0  0
  192.4700  176.1710  137.4650 C   0  0  0  0  0  0  0  0  0  0  0  0
  195.4770  174.2210  138.3930 O   0  0  0  0  0  0  0  0  0  0  0  0
  195.9790  174.7510  139.5940 C   0  0  0  0  0  3  0  0  0  0  0  0
  197.6730  175.4110  141.1320 N   0  0  0  0  0  1  0  0  0  0  0  0
  197.2700  174.8580  139.8850 C   0  0  0  0  0  3  0  0  0  0  0  0
  2 33  1  1  0  0  0
  2  4  1  0  0  0  0
  3 12  2  0  0  0  0
  4  3  1  0  0  0  0
  4 13  2  0  0  0  0
  5  6  2  0  0  0  0
  6 14  1  0  0  0  0
  6  1  1  0  0  0  0
  7 16  1  1  0  0  0
  7  2  1  0  0  0  0
  7 15  1  0  0  0  0
  8  1  1  0  0  0  0
  9 13  1  6  0  0  0
  9 11  1  0  0  0  0
  9  5  1  0  0  0  0
 10 11  1  0  0  0  0
 11  8  1  1  0  0  0
 12 10  1  0  0  0  0
 15  3  1  0  0  0  0
 16 17  1  6  0  0  0
 16 18  1  0  0  0  0
 18 24  1  0  0  0  0
 19 23  1  0  0  0  0
 20 25  1  0  0  0  0
 20 23  2  0  0  0  0
 21 22  2  0  0  0  0
 21 24  1  0  0  0  0
 22 20  1  0  0  0  0
 24 19  2  0  0  0  0
 27 29  1  0  0  0  0
 27 26  1  1  0  0  0
 28 27  1  0  0  0  0
 28 29  1  0  0  0  0
 28 25  1  0  0  0  0
 29 32  1  6  0  0  0
 29 26  1  0  0  0  0
 32 31  1  6  0  0  0
 32 30  1  0  0  0  0
 34 38  1  0  0  0  0
 34 40  1  0  0  0  0
 35 39  1  0  0  0  0
 36 35  2  0  0  0  0
 36 37  1  0  0  0  0
 37 34  2  0  0  0  0
 39 33  1  0  0  0  0
 39 38  2  0  0  0  0
 40 41  1  0  0  0  0
 41 43  2  0  0  0  0
 43 42  1  0  0  0  0
M  END
>  <MODEL>
6

>  <REMARK>
 VINA RESULT:      -7.1      3.409     10.332
  Name = 
  10 active torsions:
  status: ('A' for Active; 'I' for Inactive)
    1  A    between atoms: C_3  and  N_15
    2  A    between atoms: C_3  and  C_21
    3  A    between atoms: C_7  and  O_14
    4  A    between atoms: C_8  and  C_40
    5  A    between atoms: N_9  and  C_12
    6  A    between atoms: N_9  and  C_41
    7  A    between atoms: C_11  and  O_14
    8  A    between atoms: N_15  and  C_36
    9  A    between atoms: C_22  and  C_43
   10  A    between atoms: N_28  and  C_43
                            x       y       z     vdW  Elec       q    Type
                         _______ _______ _______ _____ _____    ______ ____

>  <TORSDO>
F 10

$$$$
=
 OpenBabel10222421343D

 43 49  0  0  1  0  0  0  0  0999 V2000
  184.3490  178.9770  145.3980 C   0  0  0  0  0  2  0  0  0  0  0  0
  189.6380  177.0460  142.0140 C   0  0  1  0  0  3  0  0  0  0  0  0
  187.7160  178.4710  141.6810 C   0  0  0  0  0  0  0  0  0  0  0  0
  188.3270  177.4860  142.5670 C   0  0  0  0  0  0  0  0  0  0  0  0
  186.8170  178.5880  145.3720 C   0  0  0  0  0  3  0  0  0  0  0  0
  185.7640  179.2590  145.8540 C   0  0  0  0  0  0  0  0  0  0  0  0
  189.7790  177.7720  140.6720 C   0  0  2  0  0  3  0  0  0  0  0  0
  184.2060  177.7360  144.4940 C   0  0  0  0  0  2  0  0  0  0  0  0
  186.6270  177.4300  144.4400 C   0  0  1  0  0  3  0  0  0  0  0  0
  185.4890  178.7530  142.6970 N   0  0  0  0  0  2  0  0  0  0  0  0
  185.4010  177.5760  143.5540 C   0  0  2  0  0  3  0  0  0  0  0  0
  186.5130  179.0450  141.7420 C   0  0  0  0  0  3  0  0  0  0  0  0
  187.8730  177.0170  143.7320 C   0  0  0  0  0  3  0  0  0  0  0  0
  185.9820  180.2910  146.7560 O   0  0  0  0  0  1  0  0  0  0  0  0
  188.6420  178.7950  140.5730 C   0  0  0  0  0  2  0  0  0  0  0  0
  189.7060  176.7740  139.5150 C   0  0  2  0  0  3  0  0  0  0  0  0
  190.8560  175.9810  139.4730 O   0  0  0  0  0  1  0  0  0  0  0  0
  189.5290  177.4590  138.2350 N   0  0  0  0  0  2  0  0  0  0  0  0
  187.7870  178.2950  136.6880 C   0  0  0  0  0  3  0  0  0  0  0  0
  186.3530  176.7150  135.5720 C   0  0  0  0  0  0  0  0  0  0  0  0
  188.0290  175.9280  137.0610 C   0  0  0  0  0  3  0  0  0  0  0  0
  187.0000  175.6960  136.2020 N   0  0  0  0  0  0  0  0  0  0  0  0
  186.7340  178.0370  135.8090 C   0  0  0  0  0  3  0  0  0  0  0  0
  188.4470  177.2360  137.3230 C   0  0  0  0  0  0  0  0  0  0  0  0
  185.2110  176.4210  134.6660 C   0  0  0  0  0  2  0  0  0  0  0  0
  182.5870  176.9600  135.9010 C   0  0  0  0  0  2  0  0  0  0  0  0
  182.9710  175.7610  135.0680 C   0  0  1  0  0  3  0  0  0  0  0  0
  184.3780  175.3780  135.2500 N   0  0  0  0  0  0  0  0  0  0  0  0
  183.6320  175.9710  136.3740 C   0  0  1  0  0  0  0  0  0  0  0  0
  182.9780  175.4140  138.6150 O   0  0  0  0  0  1  0  0  0  0  0  0
  183.9950  173.6930  137.3390 C   0  0  0  0  0  1  0  0  0  0  0  0
  183.0810  174.9050  137.3190 C   0  0  2  0  0  3  0  0  0  0  0  0
  190.7260  177.4630  142.8910 N   0  0  0  0  0  2  0  0  0  0  0  0
  191.4460  176.4790  146.4380 C   0  0  0  0  0  0  0  0  0  0  0  0
  191.7060  175.4420  143.8410 C   0  0  0  0  0  3  0  0  0  0  0  0
  192.1290  174.6890  144.9390 C   0  0  0  0  0  3  0  0  0  0  0  0
  192.0010  175.2060  146.2310 C   0  0  0  0  0  3  0  0  0  0  0  0
  191.0240  177.2220  145.3300 C   0  0  0  0  0  3  0  0  0  0  0  0
  191.1540  176.7100  144.0300 C   0  0  0  0  0  0  0  0  0  0  0  0
  191.2950  177.0500  147.7140 O   0  0  0  0  0  0  0  0  0  0  0  0
  190.1720  177.7210  148.2270 C   0  0  0  0  0  3  0  0  0  0  0  0
  187.8540  178.0450  148.6680 N   0  0  0  0  0  1  0  0  0  0  0  0
  188.9220  177.2890  148.1100 C   0  0  0  0  0  3  0  0  0  0  0  0
  1  6  1  0  0  0  0
  2  4  1  0  0  0  0
  2 33  1  1  0  0  0
  3 12  2  0  0  0  0
  3  4  1  0  0  0  0
  4 13  2  0  0  0  0
  5  6  2  0  0  0  0
  6 14  1  0  0  0  0
  7 16  1  6  0  0  0
  7  2  1  0  0  0  0
  8  1  1  0  0  0  0
  9 13  1  6  0  0  0
  9  5  1  0  0  0  0
 10 11  1  0  0  0  0
 11  9  1  0  0  0  0
 11  8  1  1  0  0  0
 12 10  1  0  0  0  0
 15  7  1  0  0  0  0
 15  3  1  0  0  0  0
 16 17  1  6  0  0  0
 18 16  1  0  0  0  0
 19 24  1  0  0  0  0
 20 23  1  0  0  0  0
 20 22  2  0  0  0  0
 21 24  2  0  0  0  0
 22 21  1  0  0  0  0
 23 19  2  0  0  0  0
 24 18  1  0  0  0  0
 25 28  1  0  0  0  0
 25 20  1  0  0  0  0
 26 29  1  0  0  0  0
 27 28  1  0  0  0  0
 27 26  1  6  0  0  0
 27 29  1  0  0  0  0
 28 29  1  0  0  0  0
 29 32  1  1  0  0  0
 32 31  1  1  0  0  0
 32 30  1  0  0  0  0
 33 39  1  0  0  0  0
 34 40  1  0  0  0  0
 35 39  2  0  0  0  0
 35 36  1  0  0  0  0
 36 37  2  0  0  0  0
 37 34  1  0  0  0  0
 38 34  2  0  0  0  0
 39 38  1  0  0  0  0
 40 41  1  0  0  0  0
 43 41  2  0  0  0  0
 43 42  1  0  0  0  0
M  END
>  <MODEL>
7

>  <REMARK>
 VINA RESULT:      -7.1      2.076      8.816
  Name = 
  10 active torsions:
  status: ('A' for Active; 'I' for Inactive)
    1  A    between atoms: C_3  and  N_15
    2  A    between atoms: C_3  and  C_21
    3  A    between atoms: C_7  and  O_14
    4  A    between atoms: C_8  and  C_40
    5  A    between atoms: N_9  and  C_12
    6  A    between atoms: N_9  and  C_41
    7  A    between atoms: C_11  and  O_14
    8  A    between atoms: N_15  and  C_36
    9  A    between atoms: C_22  and  C_43
   10  A    between atoms: N_28  and  C_43
                            x       y       z     vdW  Elec       q    Type
                         _______ _______ _______ _____ _____    ______ ____

>  <TORSDO>
F 10

$$$$
=
 OpenBabel10222421343D

 43 49  0  0  1  0  0  0  0  0999 V2000
  189.6990  178.0620  144.4220 C   0  0  0  0  0  2  0  0  0  0  0  0
  190.2080  176.5600  138.0470 C   0  0  1  0  0  3  0  0  0  0  0  0
  188.9690  178.1010  139.4340 C   0  0  0  0  0  0  0  0  0  0  0  0
  189.8610  176.9470  139.4430 C   0  0  0  0  0  0  0  0  0  0  0  0
  191.1900  177.5810  142.4760 C   0  0  0  0  0  3  0  0  0  0  0  0
  190.9920  178.1970  143.6470 C   0  0  0  0  0  0  0  0  0  0  0  0
  189.4100  177.5120  137.1500 C   0  0  2  0  0  3  0  0  0  0  0  0
  188.7220  177.0130  143.8530 C   0  0  0  0  0  2  0  0  0  0  0  0
  190.1750  176.6210  141.9320 C   0  0  1  0  0  3  0  0  0  0  0  0
  188.3590  178.2870  141.8140 N   0  0  0  0  0  2  0  0  0  0  0  0
  188.7500  176.9780  142.3260 C   0  0  2  0  0  3  0  0  0  0  0  0
  188.3430  178.7040  140.4470 C   0  0  0  0  0  3  0  0  0  0  0  0
  190.3690  176.2930  140.4900 C   0  0  0  0  0  3  0  0  0  0  0  0
  191.9810  179.0370  144.1390 O   0  0  0  0  0  1  0  0  0  0  0  0
  188.7810  178.5830  138.0470 C   0  0  0  0  0  2  0  0  0  0  0  0
  188.3280  176.7460  136.3880 C   0  0  2  0  0  3  0  0  0  0  0  0
  187.0570  177.0900  136.8570 O   0  0  0  0  0  1  0  0  0  0  0  0
  188.5230  175.3010  136.5000 N   0  0  0  0  0  2  0  0  0  0  0  0
  187.1580  173.9200  134.9640 C   0  0  0  0  0  3  0  0  0  0  0  0
  185.5450  172.3880  135.8860 C   0  0  0  0  0  0  0  0  0  0  0  0
  186.8620  173.7220  137.3460 C   0  0  0  0  0  3  0  0  0  0  0  0
  185.8980  172.7840  137.1400 N   0  0  0  0  0  0  0  0  0  0  0  0
  186.1670  172.9560  134.7730 C   0  0  0  0  0  3  0  0  0  0  0  0
  187.5150  174.3110  136.2610 C   0  0  0  0  0  0  0  0  0  0  0  0
  184.4630  171.3840  135.7020 C   0  0  0  0  0  2  0  0  0  0  0  0
  181.8030  171.5060  134.4320 C   0  0  0  0  0  2  0  0  0  0  0  0
  182.1160  171.0920  135.8510 C   0  0  1  0  0  3  0  0  0  0  0  0
  183.2650  171.8210  136.4070 N   0  0  0  0  0  0  0  0  0  0  0  0
  182.3820  172.4860  135.4320 C   0  0  1  0  0  0  0  0  0  0  0  0
  180.8740  174.3430  135.2370 O   0  0  0  0  0  1  0  0  0  0  0  0
  181.9140  174.0260  137.3450 C   0  0  0  0  0  1  0  0  0  0  0  0
  181.3300  173.3560  136.1150 C   0  0  2  0  0  3  0  0  0  0  0  0
  191.6310  176.7640  137.8020 N   0  0  0  0  0  2  0  0  0  0  0  0
  194.7250  174.6450  137.8770 C   0  0  0  0  0  0  0  0  0  0  0  0
  192.1600  174.6380  136.7310 C   0  0  0  0  0  3  0  0  0  0  0  0
  193.0410  173.5840  136.4770 C   0  0  0  0  0  3  0  0  0  0  0  0
  194.3170  173.5880  137.0460 C   0  0  0  0  0  3  0  0  0  0  0  0
  193.8320  175.6930  138.1250 C   0  0  0  0  0  3  0  0  0  0  0  0
  192.5500  175.6970  137.5540 C   0  0  0  0  0  0  0  0  0  0  0  0
  195.9960  174.7030  138.4740 O   0  0  0  0  0  0  0  0  0  0  0  0
  197.2470  174.6960  137.8320 C   0  0  0  0  0  3  0  0  0  0  0  0
  199.6250  174.6570  137.7200 N   0  0  0  0  0  1  0  0  0  0  0  0
  198.4140  174.6620  138.4650 C   0  0  0  0  0  3  0  0  0  0  0  0
  2 33  1  1  0  0  0
  2  4  1  0  0  0  0
  3  4  1  0  0  0  0
  3 12  2  0  0  0  0
  4 13  2  0  0  0  0
  5  6  2  0  0  0  0
  6 14  1  0  0  0  0
  6  1  1  0  0  0  0
  7 16  1  1  0  0  0
  7  2  1  0  0  0  0
  7 15  1  0  0  0  0
  8  1  1  0  0  0  0
  9 13  1  6  0  0  0
  9 11  1  0  0  0  0
  9  5  1  0  0  0  0
 10 11  1  0  0  0  0
 11  8  1  1  0  0  0
 12 10  1  0  0  0  0
 15  3  1  0  0  0  0
 16 18  1  0  0  0  0
 16 17  1  1  0  0  0
 19 24  1  0  0  0  0
 20 22  2  0  0  0  0
 22 21  1  0  0  0  0
 23 19  2  0  0  0  0
 23 20  1  0  0  0  0
 24 18  1  0  0  0  0
 24 21  2  0  0  0  0
 25 20  1  0  0  0  0
 25 28  1  0  0  0  0
 26 29  1  0  0  0  0
 27 26  1  6  0  0  0
 27 28  1  0  0  0  0
 29 27  1  0  0  0  0
 29 32  1  1  0  0  0
 29 28  1  0  0  0  0
 30 32  1  0  0  0  0
 32 31  1  1  0  0  0
 34 38  1  0  0  0  0
 34 40  1  0  0  0  0
 35 39  1  0  0  0  0
 36 35  2  0  0  0  0
 36 37  1  0  0  0  0
 37 34  2  0  0  0  0
 39 33  1  0  0  0  0
 39 38  2  0  0  0  0
 41 43  2  0  0  0  0
 41 40  1  0  0  0  0
 42 43  1  0  0  0  0
M  END
>  <MODEL>
8

>  <REMARK>
 VINA RESULT:      -6.8      3.768     10.669
  Name = 
  10 active torsions:
  status: ('A' for Active; 'I' for Inactive)
    1  A    between atoms: C_3  and  N_15
    2  A    between atoms: C_3  and  C_21
    3  A    between atoms: C_7  and  O_14
    4  A    between atoms: C_8  and  C_40
    5  A    between atoms: N_9  and  C_12
    6  A    between atoms: N_9  and  C_41
    7  A    between atoms: C_11  and  O_14
    8  A    between atoms: N_15  and  C_36
    9  A    between atoms: C_22  and  C_43
   10  A    between atoms: N_28  and  C_43
                            x       y       z     vdW  Elec       q    Type
                         _______ _______ _______ _____ _____    ______ ____

>  <TORSDO>
F 10

$$$$
=
 OpenBabel10222421343D

 43 49  0  0  1  0  0  0  0  0999 V2000
  184.8660  179.0890  145.0190 C   0  0  0  0  0  2  0  0  0  0  0  0
  189.3230  176.4970  140.9480 C   0  0  1  0  0  3  0  0  0  0  0  0
  188.0210  178.5240  141.1290 C   0  0  0  0  0  0  0  0  0  0  0  0
  188.2180  177.1850  141.6730 C   0  0  0  0  0  0  0  0  0  0  0  0
  187.0500  177.9070  144.7520 C   0  0  0  0  0  3  0  0  0  0  0  0
  186.2700  178.7340  145.4570 C   0  0  0  0  0  0  0  0  0  0  0  0
  189.7640  177.4760  139.8540 C   0  0  2  0  0  3  0  0  0  0  0  0
  184.3480  178.2750  143.8160 C   0  0  0  0  0  2  0  0  0  0  0  0
  186.5180  177.1910  143.5470 C   0  0  1  0  0  3  0  0  0  0  0  0
  185.9820  179.2530  142.3040 N   0  0  0  0  0  2  0  0  0  0  0  0
  185.4570  177.9880  142.8040 C   0  0  2  0  0  3  0  0  0  0  0  0
  187.0850  179.4320  141.4130 C   0  0  0  0  0  3  0  0  0  0  0  0
  187.5790  176.5940  142.6850 C   0  0  0  0  0  3  0  0  0  0  0  0
  186.7860  179.3350  146.5970 O   0  0  0  0  0  1  0  0  0  0  0  0
  189.0510  178.8090  140.1050 C   0  0  0  0  0  2  0  0  0  0  0  0
  189.4060  176.9270  138.4720 C   0  0  2  0  0  3  0  0  0  0  0  0
  189.0390  175.5810  138.5550 O   0  0  0  0  0  1  0  0  0  0  0  0
  190.5190  177.0800  137.5370 N   0  0  0  0  0  2  0  0  0  0  0  0
  191.6840  174.9680  136.9770 C   0  0  0  0  0  3  0  0  0  0  0  0
  194.0210  174.7410  137.5130 C   0  0  0  0  0  0  0  0  0  0  0  0
  192.8880  176.7600  138.0450 C   0  0  0  0  0  3  0  0  0  0  0  0
  194.0140  175.9970  138.0370 N   0  0  0  0  0  0  0  0  0  0  0  0
  192.8500  174.2010  136.9770 C   0  0  0  0  0  3  0  0  0  0  0  0
  191.6960  176.2620  137.5130 C   0  0  0  0  0  0  0  0  0  0  0  0
  195.2640  173.9260  137.5530 C   0  0  0  0  0  2  0  0  0  0  0  0
  197.8500  173.6040  136.1700 C   0  0  0  0  0  2  0  0  0  0  0  0
  197.1760  174.9010  136.5480 C   0  0  1  0  0  3  0  0  0  0  0  0
  196.4090  174.7920  137.7970 N   0  0  0  0  0  0  0  0  0  0  0  0
  197.6320  173.9880  137.6190 C   0  0  1  0  0  0  0  0  0  0  0  0
  199.9340  173.7700  138.2590 O   0  0  0  0  0  1  0  0  0  0  0  0
  198.5400  175.0340  139.7010 C   0  0  0  0  0  1  0  0  0  0  0  0
  198.8480  174.6470  138.2660 C   0  0  2  0  0  3  0  0  0  0  0  0
  190.4470  176.2570  141.8450 N   0  0  0  0  0  2  0  0  0  0  0  0
  190.8490  177.3230  145.4190 C   0  0  0  0  0  0  0  0  0  0  0  0
  191.1360  178.3780  142.8320 C   0  0  0  0  0  3  0  0  0  0  0  0
  191.4090  179.1760  143.9460 C   0  0  0  0  0  3  0  0  0  0  0  0
  191.2650  178.6510  145.2320 C   0  0  0  0  0  3  0  0  0  0  0  0
  190.5800  176.5340  144.2950 C   0  0  0  0  0  3  0  0  0  0  0  0
  190.7190  177.0560  143.0000 C   0  0  0  0  0  0  0  0  0  0  0  0
  190.6840  176.7440  146.6890 O   0  0  0  0  0  0  0  0  0  0  0  0
  189.5980  176.8960  147.5680 C   0  0  0  0  0  3  0  0  0  0  0  0
  188.1940  178.0610  149.0990 N   0  0  0  0  0  1  0  0  0  0  0  0
  189.3210  178.0120  148.2320 C   0  0  0  0  0  3  0  0  0  0  0  0
  1  6  1  0  0  0  0
  2  4  1  0  0  0  0
  2 33  1  1  0  0  0
  3 12  2  0  0  0  0
  3  4  1  0  0  0  0
  4 13  2  0  0  0  0
  5  6  2  0  0  0  0
  6 14  1  0  0  0  0
  7 16  1  6  0  0  0
  7 15  1  0  0  0  0
  7  2  1  0  0  0  0
  8  1  1  0  0  0  0
  9 13  1  6  0  0  0
  9  5  1  0  0  0  0
 10 11  1  0  0  0  0
 11  9  1  0  0  0  0
 11  8  1  1  0  0  0
 12 10  1  0  0  0  0
 15  3  1  0  0  0  0
 16 17  1  1  0  0  0
 18 16  1  0  0  0  0
 19 23  2  0  0  0  0
 19 24  1  0  0  0  0
 20 25  1  0  0  0  0
 20 22  2  0  0  0  0
 22 21  1  0  0  0  0
 23 20  1  0  0  0  0
 24 18  1  0  0  0  0
 24 21  2  0  0  0  0
 25 28  1  0  0  0  0
 26 29  1  0  0  0  0
 27 26  1  6  0  0  0
 27 29  1  0  0  0  0
 27 28  1  0  0  0  0
 29 28  1  0  0  0  0
 29 32  1  1  0  0  0
 30 32  1  0  0  0  0
 32 31  1  1  0  0  0
 33 39  1  0  0  0  0
 34 40  1  0  0  0  0
 35 39  2  0  0  0  0
 35 36  1  0  0  0  0
 36 37  2  0  0  0  0
 37 34  1  0  0  0  0
 38 34  2  0  0  0  0
 39 38  1  0  0  0  0
 40 41  1  0  0  0  0
 41 43  2  0  0  0  0
 43 42  1  0  0  0  0
M  END
>  <MODEL>
9

>  <REMARK>
 VINA RESULT:      -6.7      4.364      8.174
  Name = 
  10 active torsions:
  status: ('A' for Active; 'I' for Inactive)
    1  A    between atoms: C_3  and  N_15
    2  A    between atoms: C_3  and  C_21
    3  A    between atoms: C_7  and  O_14
    4  A    between atoms: C_8  and  C_40
    5  A    between atoms: N_9  and  C_12
    6  A    between atoms: N_9  and  C_41
    7  A    between atoms: C_11  and  O_14
    8  A    between atoms: N_15  and  C_36
    9  A    between atoms: C_22  and  C_43
   10  A    between atoms: N_28  and  C_43
                            x       y       z     vdW  Elec       q    Type
                         _______ _______ _______ _____ _____    ______ ____

>  <TORSDO>
F 10

$$$$
