=
 OpenBabel10232410503D

 65 68  0  0  1  0  0  0  0  0999 V2000
  189.0750  175.9250  137.8900 C   0  0  1  0  0  3  0  0  0  0  0  0
  184.7290  174.2090  134.7760 N   0  0  0  0  0  0  0  0  0  0  0  0
  187.9810  175.7900  135.5360 C   0  0  0  0  0  0  0  0  0  0  0  0
  189.0410  176.7180  134.9400 C   0  0  0  0  0  1  0  0  0  0  0  0
  185.8800  174.6490  135.3070 C   0  0  0  0  0  0  0  0  0  0  0  0
  186.9010  174.7090  137.4340 C   0  0  0  0  0  3  0  0  0  0  0  0
  186.9260  175.3730  134.7100 C   0  0  0  0  0  3  0  0  0  0  0  0
  185.9210  174.3370  136.5740 C   0  0  0  0  0  0  0  0  0  0  0  0
  188.0050  175.4050  136.9310 C   0  0  0  0  0  0  0  0  0  0  0  0
  184.1040  173.6410  135.8420 C   0  0  0  0  0  0  0  0  0  0  0  0
  184.8150  173.7820  137.0330 N   0  0  0  0  0  2  0  0  0  0  0  0
  182.6850  173.1620  135.8290 C   0  0  0  0  0  3  0  0  0  0  0  0
  181.6940  173.8650  136.7670 C   0  0  0  0  0  3  0  0  0  0  0  0
  182.1050  175.1870  137.5850 C   0  0  0  0  0  2  0  0  0  0  0  0
  183.7800  177.3270  136.3360 O   0  0  0  0  0  1  0  0  0  0  0  0
  182.1500  176.7590  136.4360 P   0  0  0  0  0  0  0  0  0  0  0  0
  181.3090  177.8620  137.1040 O   0  0  0  0  0  1  0  0  0  0  0  0
  181.5570  176.3890  134.8360 O   0  0  0  0  0  0  0  0  0  0  0  0
  191.9040  177.1380  137.6340 O   0  0  0  0  0  0  0  0  0  0  0  0
  191.7570  175.8820  137.6680 C   0  0  0  0  0  0  0  0  0  0  0  0
  190.4630  175.2670  137.7890 N   0  0  0  0  0  2  0  0  0  0  0  0
  192.9440  174.8960  137.6460 C   0  0  2  0  0  3  0  0  0  0  0  0
  194.2000  175.4700  137.8050 O   0  0  0  0  0  0  0  0  0  0  0  0
  194.0650  176.0880  138.9700 O   0  0  0  0  0  1  0  0  0  0  0  0
  192.7540  173.5690  136.8290 C   0  0  0  0  0  2  0  0  0  0  0  0
  193.8290  173.3820  135.7360 C   0  0  2  0  0  3  0  0  0  0  0  0
  193.5360  174.5300  134.7850 C   0  0  0  0  0  1  0  0  0  0  0  0
  193.7900  171.9770  135.0310 C   0  0  0  0  0  2  0  0  0  0  0  0
  195.1550  171.1780  135.0260 C   0  0  0  0  0  2  0  0  0  0  0  0
  196.1700  171.9050  135.8670 N   0  0  0  0  0  2  0  0  0  0  0  0
  197.4590  172.2720  135.3110 C   0  0  1  0  0  3  0  0  0  0  0  0
  197.7550  174.4190  134.3480 O   0  0  0  0  0  0  0  0  0  0  0  0
  197.6220  173.7240  135.3610 C   0  0  0  0  0  0  0  0  0  0  0  0
  197.3430  174.3480  136.6960 C   0  0  0  0  0  2  0  0  0  0  0  0
  197.4620  175.7870  136.7500 N   0  0  0  0  0  1  0  0  0  0  0  0
  199.3110  170.5620  135.4610 N   0  0  0  0  0  1  0  0  0  0  0  0
  198.5520  171.5750  136.1630 C   0  0  2  0  0  3  0  0  0  0  0  0
  197.9880  170.7950  137.3720 C   0  0  0  0  0  2  0  0  0  0  0  0
  197.9770  169.4160  137.1530 O   0  0  0  0  0  1  0  0  0  0  0  0
  189.1680  177.4840  138.2160 C   0  0  0  0  0  2  0  0  0  0  0  0
  188.2130  177.9130  139.3530 C   0  0  0  0  0  2  0  0  0  0  0  0
  188.7470  177.3820  140.5360 N   0  0  0  0  0  2  0  0  0  0  0  0
  188.3080  178.0340  141.6540 C   0  0  0  0  0  2  0  0  0  0  0  0
  187.3440  178.1050  145.1760 C   0  0  0  0  0  0  0  0  0  0  0  0
  190.4250  177.4460  144.8340 C   0  0  0  0  0  3  0  0  0  0  0  0
  189.6920  177.0590  145.8750 C   0  0  0  0  0  0  0  0  0  0  0  0
  189.9910  177.6220  143.3860 C   0  0  0  0  0  3  0  0  0  0  0  0
  188.2090  177.3600  146.2300 C   0  0  0  0  0  2  0  0  0  0  0  0
  187.5240  178.1630  143.8700 C   0  0  0  0  0  3  0  0  0  0  0  0
  188.7050  177.7080  142.9600 C   0  0  0  0  0  0  0  0  0  0  0  0
  190.5060  176.2700  146.9800 C   0  0  2  0  0  3  0  0  0  0  0  0
  191.3870  177.2760  147.5470 O   0  0  0  0  0  0  0  0  0  0  0  0
  191.3780  175.1520  146.3280 C   0  0  0  0  0  2  0  0  0  0  0  0
  192.5520  176.5860  147.8400 C   0  0  2  0  0  3  0  0  0  0  0  0
  192.5920  175.1570  147.2250 C   0  0  0  0  0  2  0  0  0  0  0  0
  192.8620  176.6630  149.3140 C   0  0  0  0  0  2  0  0  0  0  0  0
  194.2150  177.3930  150.8460 C   0  0  0  0  0  1  0  0  0  0  0  0
  194.1990  176.9530  149.5220 O   0  0  0  0  0  0  0  0  0  0  0  0
  186.1380  178.8450  145.6550 C   0  0  0  0  0  2  0  0  0  0  0  0
  184.7510  178.4040  145.3780 C   0  0  1  0  0  3  0  0  0  0  0  0
  183.9710  178.5120  146.5100 O   0  0  0  0  0  1  0  0  0  0  0  0
  183.3670  179.8710  144.1380 O   0  0  0  0  0  0  0  0  0  0  0  0
  184.1260  178.8610  144.1170 C   0  0  0  0  0  0  0  0  0  0  0  0
  184.2570  178.1530  142.9570 O   0  0  0  0  0  0  0  0  0  0  0  0
  184.6060  178.7240  141.7000 C   0  0  0  0  0  1  0  0  0  0  0  0
  1 40  1  6  0  0  0
  2  5  1  0  0  0  0
  2 10  2  0  0  0  0
  3  9  1  0  0  0  0
  4  3  1  0  0  0  0
  5  8  2  0  0  0  0
  7  5  1  0  0  0  0
  7  3  2  0  0  0  0
  8 11  1  0  0  0  0
  8  6  1  0  0  0  0
  9  6  2  0  0  0  0
  9  1  1  0  0  0  0
 10 11  1  0  0  0  0
 12 10  1  0  0  0  0
 12 13  2  0  0  0  0
 13 14  1  0  0  0  0
 15 16  1  0  0  0  0
 16 17  1  0  0  0  0
 16 14  1  0  0  0  0
 18 16  2  0  0  0  0
 19 20  2  0  0  0  0
 20 21  1  0  0  0  0
 21  1  1  0  0  0  0
 22 25  1  6  0  0  0
 22 20  1  0  0  0  0
 22 23  1  0  0  0  0
 23 24  1  0  0  0  0
 26 27  1  6  0  0  0
 26 25  1  0  0  0  0
 28 26  1  0  0  0  0
 29 28  1  0  0  0  0
 29 30  1  0  0  0  0
 31 33  1  1  0  0  0
 31 30  1  0  0  0  0
 31 37  1  0  0  0  0
 32 33  2  0  0  0  0
 33 34  1  0  0  0  0
 34 35  1  0  0  0  0
 37 36  1  6  0  0  0
 37 38  1  0  0  0  0
 39 38  1  0  0  0  0
 40 41  1  0  0  0  0
 41 42  1  0  0  0  0
 42 43  1  0  0  0  0
 43 50  1  0  0  0  0
 44 59  1  0  0  0  0
 44 48  1  0  0  0  0
 45 46  2  0  0  0  0
 46 48  1  0  0  0  0
 47 45  1  0  0  0  0
 49 44  2  0  0  0  0
 50 47  2  0  0  0  0
 50 49  1  0  0  0  0
 51 46  1  6  0  0  0
 51 52  1  0  0  0  0
 52 54  1  0  0  0  0
 53 51  1  0  0  0  0
 53 55  1  0  0  0  0
 54 56  1  1  0  0  0
 55 54  1  0  0  0  0
 56 58  1  0  0  0  0
 58 57  1  0  0  0  0
 60 59  1  0  0  0  0
 60 61  1  1  0  0  0
 63 62  2  0  0  0  0
 63 60  1  0  0  0  0
 64 63  1  0  0  0  0
 65 64  1  0  0  0  0
M  END
>  <MODEL>
1

>  <REMARK>
 VINA RESULT:      -4.9      0.000      0.000
  Name = 
  29 active torsions:
  status: ('A' for Active; 'I' for Inactive)
    1  A    between atoms: O_2  and  C_61
    2  A    between atoms: O_3  and  C_28
    3  A    between atoms: C_4  and  C_14
    4  A    between atoms: C_4  and  C_46
    5  A    between atoms: C_5  and  N_38
    6  A    between atoms: C_5  and  C_57
    7  A    between atoms: C_7  and  CA_16
    8  A    between atoms: C_7  and  N_38
    9  A    between atoms: C_7  and  C_62
   10  A    between atoms: C_10  and  C_42
   11  A    between atoms: C_10  and  C_44
   12  A    between atoms: C_10  and  N_58
   13  A    between atoms: C_11  and  C_30
   14  A    between atoms: CA_16  and  C_17
   15  A    between atoms: P_19  and  C_50
   16  A    between atoms: O_22  and  C_59
   17  A    between atoms: C_25  and  C_33
   18  A    between atoms: C_25  and  C_49
   19  A    between atoms: C_28  and  C_40
   20  A    between atoms: C_28  and  C_43
   21  A    between atoms: C_33  and  C_50
   22  A    between atoms: C_34  and  C_59
   23  A    between atoms: C_39  and  C_62
   24  A    between atoms: C_40  and  C_52
   25  A    between atoms: C_41  and  C_44
   26  A    between atoms: C_41  and  N_51
   27  A    between atoms: C_46  and  C_61
   28  A    between atoms: C_52  and  C_57
   29  A    between atoms: C_63  and  C_65
                            x       y       z     vdW  Elec       q    Type
                         _______ _______ _______ _____ _____    ______ ____

>  <TORSDO>
F 29

$$$$
=
 OpenBabel10232410503D

 65 68  0  0  1  0  0  0  0  0999 V2000
  188.0950  176.1860  137.9440 C   0  0  1  0  0  3  0  0  0  0  0  0
  183.0940  176.0720  135.3940 N   0  0  0  0  0  0  0  0  0  0  0  0
  186.4500  177.3300  136.2880 C   0  0  0  0  0  0  0  0  0  0  0  0
  187.3410  178.5710  136.1910 C   0  0  0  0  0  1  0  0  0  0  0  0
  184.3450  176.2660  135.8360 C   0  0  0  0  0  0  0  0  0  0  0  0
  185.8630  175.1880  137.2880 C   0  0  0  0  0  3  0  0  0  0  0  0
  185.2190  177.3450  135.6150 C   0  0  0  0  0  3  0  0  0  0  0  0
  184.6960  175.2680  136.6010 C   0  0  0  0  0  0  0  0  0  0  0  0
  186.8150  176.1960  137.1090 C   0  0  0  0  0  0  0  0  0  0  0  0
  182.7460  174.8970  135.9830 C   0  0  0  0  0  0  0  0  0  0  0  0
  183.7310  174.3970  136.8340 N   0  0  0  0  0  2  0  0  0  0  0  0
  181.3630  174.3240  135.9650 C   0  0  0  0  0  2  0  0  0  0  0  0
  180.3170  174.9740  136.8800 C   0  0  0  0  0  2  0  0  0  0  0  0
  180.5630  175.1240  138.4630 C   0  0  0  0  0  2  0  0  0  0  0  0
  182.9540  176.8280  139.0290 O   0  0  0  0  0  1  0  0  0  0  0  0
  181.2310  176.8960  138.9220 P   0  0  0  0  0  0  0  0  0  0  0  0
  180.6880  177.2640  140.3150 O   0  0  0  0  0  1  0  0  0  0  0  0
  180.7610  178.0780  137.7250 O   0  0  0  0  0  0  0  0  0  0  0  0
  190.1480  176.7810  135.7140 O   0  0  0  0  0  0  0  0  0  0  0  0
  190.1980  175.6830  136.3410 C   0  0  0  0  0  0  0  0  0  0  0  0
  189.2680  175.3580  137.3890 N   0  0  0  0  0  2  0  0  0  0  0  0
  191.2870  174.6190  136.0880 C   0  0  2  0  0  3  0  0  0  0  0  0
  190.9370  173.3160  136.4200 O   0  0  0  0  0  0  0  0  0  0  0  0
  191.4300  172.6370  135.3940 O   0  0  0  0  0  1  0  0  0  0  0  0
  192.7800  175.1000  136.1450 C   0  0  0  0  0  2  0  0  0  0  0  0
  193.4130  174.9160  137.5410 C   0  0  2  0  0  3  0  0  0  0  0  0
  193.3140  176.3100  138.1350 C   0  0  0  0  0  1  0  0  0  0  0  0
  194.8870  174.3660  137.5100 C   0  0  0  0  0  2  0  0  0  0  0  0
  195.2310  173.2730  138.5990 C   0  0  0  0  0  2  0  0  0  0  0  0
  196.4170  172.4640  138.1480 N   0  0  0  0  0  2  0  0  0  0  0  0
  196.6960  172.2920  136.7350 C   0  0  1  0  0  3  0  0  0  0  0  0
  198.9590  172.5030  137.4130 O   0  0  0  0  0  0  0  0  0  0  0  0
  198.1420  172.2720  136.5160 C   0  0  0  0  0  0  0  0  0  0  0  0
  198.5760  171.6820  135.2070 C   0  0  0  0  0  2  0  0  0  0  0  0
  199.7650  170.8610  135.2560 N   0  0  0  0  0  1  0  0  0  0  0  0
  194.7720  171.0690  135.6490 N   0  0  0  0  0  1  0  0  0  0  0  0
  196.0630  170.9470  136.2920 C   0  0  2  0  0  3  0  0  0  0  0  0
  195.7630  169.9900  137.4680 C   0  0  0  0  0  2  0  0  0  0  0  0
  195.6060  168.6680  137.0470 O   0  0  0  0  0  1  0  0  0  0  0  0
  188.5870  177.5190  138.6710 C   0  0  0  0  0  2  0  0  0  0  0  0
  187.5540  178.0620  139.6840 C   0  0  0  0  0  2  0  0  0  0  0  0
  188.2300  178.1870  140.9050 N   0  0  0  0  0  2  0  0  0  0  0  0
  187.6860  177.4130  141.8930 C   0  0  0  0  0  2  0  0  0  0  0  0
  186.8850  178.0990  145.3880 C   0  0  0  0  0  0  0  0  0  0  0  0
  189.9870  177.5820  144.9940 C   0  0  0  0  0  3  0  0  0  0  0  0
  189.3330  177.3570  146.1310 C   0  0  0  0  0  0  0  0  0  0  0  0
  189.4740  177.4480  143.5670 C   0  0  0  0  0  3  0  0  0  0  0  0
  187.8500  177.6270  146.5110 C   0  0  0  0  0  2  0  0  0  0  0  0
  187.0000  177.9160  144.0870 C   0  0  0  0  0  3  0  0  0  0  0  0
  188.1670  177.3690  143.2100 C   0  0  0  0  0  0  0  0  0  0  0  0
  190.2540  176.8480  147.3150 C   0  0  2  0  0  3  0  0  0  0  0  0
  191.6000  176.9700  146.7840 O   0  0  0  0  0  0  0  0  0  0  0  0
  189.9720  175.3450  147.6230 C   0  0  0  0  0  2  0  0  0  0  0  0
  192.2810  175.8930  147.3250 C   0  0  2  0  0  3  0  0  0  0  0  0
  191.3460  174.8560  148.0140 C   0  0  0  0  0  2  0  0  0  0  0  0
  193.4480  176.3620  148.1590 C   0  0  0  0  0  2  0  0  0  0  0  0
  194.1960  176.9850  150.0980 C   0  0  0  0  0  1  0  0  0  0  0  0
  193.1610  176.2600  149.5090 O   0  0  0  0  0  0  0  0  0  0  0  0
  185.6520  178.8410  145.7910 C   0  0  0  0  0  2  0  0  0  0  0  0
  184.3820  178.7790  145.0290 C   0  0  1  0  0  3  0  0  0  0  0  0
  183.3030  178.7360  145.8860 O   0  0  0  0  0  1  0  0  0  0  0  0
  183.7020  180.8040  144.0090 O   0  0  0  0  0  0  0  0  0  0  0  0
  184.2420  179.6710  143.8570 C   0  0  0  0  0  0  0  0  0  0  0  0
  184.5760  179.2570  142.6000 O   0  0  0  0  0  0  0  0  0  0  0  0
  183.8690  178.2630  141.8650 C   0  0  0  0  0  1  0  0  0  0  0  0
  1 40  1  6  0  0  0
  2  5  1  0  0  0  0
  2 10  2  0  0  0  0
  3  9  1  0  0  0  0
  4  3  1  0  0  0  0
  5  8  2  0  0  0  0
  7  5  1  0  0  0  0
  7  3  2  0  0  0  0
  8 11  1  0  0  0  0
  8  6  1  0  0  0  0
  9  6  2  0  0  0  0
  9  1  1  0  0  0  0
 10 11  1  0  0  0  0
 12 10  1  0  0  0  0
 12 13  1  0  0  0  0
 13 14  1  0  0  0  0
 14 16  1  0  0  0  0
 16 15  1  0  0  0  0
 16 17  1  0  0  0  0
 18 16  2  0  0  0  0
 19 20  2  0  0  0  0
 20 21  1  0  0  0  0
 21  1  1  0  0  0  0
 22 25  1  1  0  0  0
 22 20  1  0  0  0  0
 22 23  1  0  0  0  0
 24 23  1  0  0  0  0
 25 26  1  0  0  0  0
 26 27  1  6  0  0  0
 28 26  1  0  0  0  0
 28 29  1  0  0  0  0
 30 29  1  0  0  0  0
 31 33  1  1  0  0  0
 31 30  1  0  0  0  0
 33 32  2  0  0  0  0
 34 35  1  0  0  0  0
 34 33  1  0  0  0  0
 37 36  1  1  0  0  0
 37 31  1  0  0  0  0
 37 38  1  0  0  0  0
 39 38  1  0  0  0  0
 40 41  1  0  0  0  0
 41 42  1  0  0  0  0
 42 43  1  0  0  0  0
 43 50  1  0  0  0  0
 44 59  1  0  0  0  0
 44 48  1  0  0  0  0
 45 46  2  0  0  0  0
 46 48  1  0  0  0  0
 47 45  1  0  0  0  0
 49 44  2  0  0  0  0
 50 47  2  0  0  0  0
 50 49  1  0  0  0  0
 51 46  1  6  0  0  0
 51 53  1  0  0  0  0
 52 51  1  0  0  0  0
 52 54  1  0  0  0  0
 53 55  1  0  0  0  0
 54 55  1  0  0  0  0
 54 56  1  1  0  0  0
 56 58  1  0  0  0  0
 58 57  1  0  0  0  0
 60 59  1  0  0  0  0
 60 61  1  1  0  0  0
 63 62  2  0  0  0  0
 63 60  1  0  0  0  0
 64 63  1  0  0  0  0
 65 64  1  0  0  0  0
M  END
>  <MODEL>
2

>  <REMARK>
 VINA RESULT:      -4.8      1.809      2.298
  Name = 
  29 active torsions:
  status: ('A' for Active; 'I' for Inactive)
    1  A    between atoms: O_2  and  C_61
    2  A    between atoms: O_3  and  C_28
    3  A    between atoms: C_4  and  C_14
    4  A    between atoms: C_4  and  C_46
    5  A    between atoms: C_5  and  N_38
    6  A    between atoms: C_5  and  C_57
    7  A    between atoms: C_7  and  CA_16
    8  A    between atoms: C_7  and  N_38
    9  A    between atoms: C_7  and  C_62
   10  A    between atoms: C_10  and  C_42
   11  A    between atoms: C_10  and  C_44
   12  A    between atoms: C_10  and  N_58
   13  A    between atoms: C_11  and  C_30
   14  A    between atoms: CA_16  and  C_17
   15  A    between atoms: P_19  and  C_50
   16  A    between atoms: O_22  and  C_59
   17  A    between atoms: C_25  and  C_33
   18  A    between atoms: C_25  and  C_49
   19  A    between atoms: C_28  and  C_40
   20  A    between atoms: C_28  and  C_43
   21  A    between atoms: C_33  and  C_50
   22  A    between atoms: C_34  and  C_59
   23  A    between atoms: C_39  and  C_62
   24  A    between atoms: C_40  and  C_52
   25  A    between atoms: C_41  and  C_44
   26  A    between atoms: C_41  and  N_51
   27  A    between atoms: C_46  and  C_61
   28  A    between atoms: C_52  and  C_57
   29  A    between atoms: C_63  and  C_65
                            x       y       z     vdW  Elec       q    Type
                         _______ _______ _______ _____ _____    ______ ____

>  <TORSDO>
F 29

$$$$
=
 OpenBabel10232410503D

 65 68  0  0  1  0  0  0  0  0999 V2000
  190.0980  175.8860  137.0760 C   0  0  1  0  0  3  0  0  0  0  0  0
  185.2510  177.0010  134.4720 N   0  0  0  0  0  0  0  0  0  0  0  0
  188.8900  177.0690  135.1020 C   0  0  0  0  0  0  0  0  0  0  0  0
  190.1740  177.7930  134.6920 C   0  0  0  0  0  1  0  0  0  0  0  0
  186.5110  176.8140  134.8890 C   0  0  0  0  0  0  0  0  0  0  0  0
  187.6110  175.6820  136.6440 C   0  0  0  0  0  3  0  0  0  0  0  0
  187.7090  177.3680  134.4050 C   0  0  0  0  0  3  0  0  0  0  0  0
  186.5140  176.0110  135.9180 C   0  0  0  0  0  0  0  0  0  0  0  0
  188.8590  176.1560  136.2240 C   0  0  0  0  0  0  0  0  0  0  0  0
  184.5280  176.2620  135.3550 C   0  0  0  0  0  0  0  0  0  0  0  0
  185.3120  175.6780  136.3500 N   0  0  0  0  0  2  0  0  0  0  0  0
  183.0340  176.2830  135.4470 C   0  0  0  0  0  2  0  0  0  0  0  0
  182.3970  177.3480  136.3500 C   0  0  0  0  0  2  0  0  0  0  0  0
  183.1280  177.8630  137.6870 C   0  0  0  0  0  2  0  0  0  0  0  0
  182.1000  178.8330  140.3220 O   0  0  0  0  0  1  0  0  0  0  0  0
  182.0840  177.4540  139.2800 P   0  0  0  0  0  0  0  0  0  0  0  0
  182.7780  176.2970  140.0220 O   0  0  0  0  0  1  0  0  0  0  0  0
  180.4360  177.0460  138.8680 O   0  0  0  0  0  0  0  0  0  0  0  0
  192.9910  175.7530  138.1480 O   0  0  0  0  0  0  0  0  0  0  0  0
  192.7840  175.9360  136.9140 C   0  0  0  0  0  0  0  0  0  0  0  0
  191.4570  176.0030  136.3630 N   0  0  0  0  0  2  0  0  0  0  0  0
  193.9220  176.0430  135.8770 C   0  0  2  0  0  3  0  0  0  0  0  0
  194.7050  177.1880  135.9660 O   0  0  0  0  0  0  0  0  0  0  0  0
  195.8960  176.7250  135.6120 O   0  0  0  0  0  1  0  0  0  0  0  0
  193.7100  175.3070  134.5060 C   0  0  0  0  0  2  0  0  0  0  0  0
  194.1590  173.8300  134.5470 C   0  0  2  0  0  3  0  0  0  0  0  0
  192.8490  173.0930  134.7640 C   0  0  0  0  0  1  0  0  0  0  0  0
  195.2300  173.5150  135.6560 C   0  0  0  0  0  2  0  0  0  0  0  0
  194.8690  172.3280  136.6360 C   0  0  0  0  0  2  0  0  0  0  0  0
  195.9020  171.2400  136.5150 N   0  0  0  0  0  2  0  0  0  0  0  0
  196.3410  170.5080  137.6880 C   0  0  1  0  0  3  0  0  0  0  0  0
  194.8980  169.9430  139.4840 O   0  0  0  0  0  0  0  0  0  0  0  0
  195.2020  169.8180  138.2930 C   0  0  0  0  0  0  0  0  0  0  0  0
  194.2640  169.1690  137.3190 C   0  0  0  0  0  2  0  0  0  0  0  0
  193.3410  168.2120  137.8850 N   0  0  0  0  0  1  0  0  0  0  0  0
  197.9660  168.6720  138.2900 N   0  0  0  0  0  1  0  0  0  0  0  0
  197.4120  169.4840  137.2280 C   0  0  2  0  0  3  0  0  0  0  0  0
  198.6680  170.1400  136.6130 C   0  0  0  0  0  2  0  0  0  0  0  0
  199.3430  170.9500  137.5290 O   0  0  0  0  0  1  0  0  0  0  0  0
  190.1600  176.4010  138.5850 C   0  0  0  0  0  2  0  0  0  0  0  0
  189.1270  177.5120  138.8790 C   0  0  0  0  0  2  0  0  0  0  0  0
  188.8920  177.4730  140.2610 N   0  0  0  0  0  2  0  0  0  0  0  0
  190.0450  177.4810  140.9950 C   0  0  0  0  0  2  0  0  0  0  0  0
  188.0690  177.7930  144.0490 C   0  0  0  0  0  0  0  0  0  0  0  0
  191.1760  177.8290  144.6750 C   0  0  0  0  0  3  0  0  0  0  0  0
  190.2470  177.4240  145.5380 C   0  0  0  0  0  0  0  0  0  0  0  0
  191.1740  177.7050  143.1570 C   0  0  0  0  0  3  0  0  0  0  0  0
  188.6970  177.4170  145.4190 C   0  0  0  0  0  2  0  0  0  0  0  0
  188.6210  177.7180  142.8530 C   0  0  0  0  0  3  0  0  0  0  0  0
  190.0840  177.4320  142.3960 C   0  0  0  0  0  0  0  0  0  0  0  0
  190.8200  176.9990  146.9510 C   0  0  2  0  0  3  0  0  0  0  0  0
  192.1600  176.5270  146.6530 O   0  0  0  0  0  0  0  0  0  0  0  0
  189.9940  175.8180  147.5480 C   0  0  0  0  0  2  0  0  0  0  0  0
  192.3630  175.4850  147.5430 C   0  0  2  0  0  3  0  0  0  0  0  0
  191.0640  175.0430  148.2780 C   0  0  0  0  0  2  0  0  0  0  0  0
  193.5450  175.7680  148.4370 C   0  0  0  0  0  2  0  0  0  0  0  0
  193.5930  176.9690  150.2440 C   0  0  0  0  0  1  0  0  0  0  0  0
  193.5420  177.0870  148.8550 O   0  0  0  0  0  0  0  0  0  0  0  0
  186.6600  178.2910  144.0370 C   0  0  0  0  0  2  0  0  0  0  0  0
  185.6170  177.7980  144.9670 C   0  0  1  0  0  3  0  0  0  0  0  0
  185.9390  176.5420  145.4370 O   0  0  0  0  0  1  0  0  0  0  0  0
  184.1350  179.5130  145.6500 O   0  0  0  0  0  0  0  0  0  0  0  0
  185.0890  178.7480  145.9710 C   0  0  0  0  0  0  0  0  0  0  0  0
  185.6780  178.8970  147.1920 O   0  0  0  0  0  0  0  0  0  0  0  0
  186.2110  180.1230  147.6850 C   0  0  0  0  0  1  0  0  0  0  0  0
  1 40  1  1  0  0  0
  2  5  1  0  0  0  0
  2 10  2  0  0  0  0
  3  9  1  0  0  0  0
  4  3  1  0  0  0  0
  5  8  2  0  0  0  0
  7  5  1  0  0  0  0
  7  3  2  0  0  0  0
  8 11  1  0  0  0  0
  8  6  1  0  0  0  0
  9  6  2  0  0  0  0
  9  1  1  0  0  0  0
 10 12  1  0  0  0  0
 10 11  1  0  0  0  0
 12 13  1  0  0  0  0
 13 14  1  0  0  0  0
 14 16  1  0  0  0  0
 16 17  1  0  0  0  0
 16 15  1  0  0  0  0
 18 16  2  0  0  0  0
 20 19  2  0  0  0  0
 21 20  1  0  0  0  0
 21  1  1  0  0  0  0
 22 25  1  6  0  0  0
 22 23  1  0  0  0  0
 22 20  1  0  0  0  0
 24 23  1  0  0  0  0
 25 26  1  0  0  0  0
 26 27  1  1  0  0  0
 26 28  1  0  0  0  0
 28 29  1  0  0  0  0
 30 29  1  0  0  0  0
 31 30  1  6  0  0  0
 31 33  1  0  0  0  0
 33 32  2  0  0  0  0
 34 35  1  0  0  0  0
 34 33  1  0  0  0  0
 37 31  1  0  0  0  0
 37 36  1  1  0  0  0
 38 37  1  0  0  0  0
 38 39  1  0  0  0  0
 40 41  1  0  0  0  0
 41 42  1  0  0  0  0
 42 43  1  0  0  0  0
 43 50  1  0  0  0  0
 44 48  1  0  0  0  0
 45 46  2  0  0  0  0
 47 45  1  0  0  0  0
 48 46  1  0  0  0  0
 49 44  2  0  0  0  0
 50 49  1  0  0  0  0
 50 47  2  0  0  0  0
 51 46  1  6  0  0  0
 51 53  1  0  0  0  0
 52 51  1  0  0  0  0
 52 54  1  0  0  0  0
 53 55  1  0  0  0  0
 54 55  1  0  0  0  0
 54 56  1  1  0  0  0
 56 58  1  0  0  0  0
 58 57  1  0  0  0  0
 59 44  1  0  0  0  0
 59 60  1  0  0  0  0
 60 61  1  1  0  0  0
 60 63  1  0  0  0  0
 62 63  2  0  0  0  0
 63 64  1  0  0  0  0
 64 65  1  0  0  0  0
M  END
>  <MODEL>
3

>  <REMARK>
 VINA RESULT:      -4.0      1.979      2.887
  Name = 
  29 active torsions:
  status: ('A' for Active; 'I' for Inactive)
    1  A    between atoms: O_2  and  C_61
    2  A    between atoms: O_3  and  C_28
    3  A    between atoms: C_4  and  C_14
    4  A    between atoms: C_4  and  C_46
    5  A    between atoms: C_5  and  N_38
    6  A    between atoms: C_5  and  C_57
    7  A    between atoms: C_7  and  CA_16
    8  A    between atoms: C_7  and  N_38
    9  A    between atoms: C_7  and  C_62
   10  A    between atoms: C_10  and  C_42
   11  A    between atoms: C_10  and  C_44
   12  A    between atoms: C_10  and  N_58
   13  A    between atoms: C_11  and  C_30
   14  A    between atoms: CA_16  and  C_17
   15  A    between atoms: P_19  and  C_50
   16  A    between atoms: O_22  and  C_59
   17  A    between atoms: C_25  and  C_33
   18  A    between atoms: C_25  and  C_49
   19  A    between atoms: C_28  and  C_40
   20  A    between atoms: C_28  and  C_43
   21  A    between atoms: C_33  and  C_50
   22  A    between atoms: C_34  and  C_59
   23  A    between atoms: C_39  and  C_62
   24  A    between atoms: C_40  and  C_52
   25  A    between atoms: C_41  and  C_44
   26  A    between atoms: C_41  and  N_51
   27  A    between atoms: C_46  and  C_61
   28  A    between atoms: C_52  and  C_57
   29  A    between atoms: C_63  and  C_65
                            x       y       z     vdW  Elec       q    Type
                         _______ _______ _______ _____ _____    ______ ____

>  <TORSDO>
F 29

$$$$
=
 OpenBabel10232410503D

 65 68  0  0  1  0  0  0  0  0999 V2000
  189.4440  176.2450  137.4940 C   0  0  1  0  0  3  0  0  0  0  0  0
  184.6230  174.2170  135.4500 N   0  0  0  0  0  0  0  0  0  0  0  0
  188.0410  174.1540  136.8510 C   0  0  0  0  0  0  0  0  0  0  0  0
  189.2380  173.2270  137.0750 C   0  0  0  0  0  1  0  0  0  0  0  0
  185.8130  174.4740  136.0130 C   0  0  0  0  0  0  0  0  0  0  0  0
  187.0560  176.3740  136.6590 C   0  0  0  0  0  3  0  0  0  0  0  0
  186.8520  173.5930  136.3590 C   0  0  0  0  0  3  0  0  0  0  0  0
  185.9390  175.7610  136.1950 C   0  0  0  0  0  0  0  0  0  0  0  0
  188.1360  175.5820  137.0620 C   0  0  0  0  0  0  0  0  0  0  0  0
  184.0860  175.4580  135.3020 C   0  0  0  0  0  0  0  0  0  0  0  0
  184.9490  176.4790  135.6990 N   0  0  0  0  0  2  0  0  0  0  0  0
  182.8300  175.7460  134.5400 C   0  0  0  0  0  2  0  0  0  0  0  0
  181.6420  174.7980  134.7520 C   0  0  0  0  0  2  0  0  0  0  0  0
  180.5740  175.0400  135.9300 C   0  0  0  0  0  2  0  0  0  0  0  0
  182.5660  173.2990  137.3260 O   0  0  0  0  0  0  0  0  0  0  0  0
  180.9770  173.9580  137.4990 P   0  0  0  0  0  0  0  0  0  0  0  0
  179.9830  172.7820  137.5360 O   0  0  0  0  0  1  0  0  0  0  0  0
  180.8900  174.9080  138.9620 O   0  0  0  0  0  1  0  0  0  0  0  0
  192.3870  176.8220  138.2280 O   0  0  0  0  0  0  0  0  0  0  0  0
  192.0860  175.7520  137.6240 C   0  0  0  0  0  0  0  0  0  0  0  0
  190.7310  175.4350  137.2620 N   0  0  0  0  0  2  0  0  0  0  0  0
  193.1230  174.6640  137.2740 C   0  0  2  0  0  3  0  0  0  0  0  0
  192.6860  173.3530  137.4200 O   0  0  0  0  0  0  0  0  0  0  0  0
  192.1180  173.1290  136.2440 O   0  0  0  0  0  1  0  0  0  0  0  0
  194.6380  175.0400  137.4450 C   0  0  0  0  0  2  0  0  0  0  0  0
  195.5710  173.8140  137.3500 C   0  0  2  0  0  3  0  0  0  0  0  0
  195.9030  173.5380  138.8070 C   0  0  0  0  0  1  0  0  0  0  0  0
  196.8490  174.0470  136.4640 C   0  0  0  0  0  2  0  0  0  0  0  0
  196.9150  173.2050  135.1270 C   0  0  0  0  0  2  0  0  0  0  0  0
  197.3510  171.7980  135.4370 N   0  0  0  0  0  2  0  0  0  0  0  0
  198.6240  171.2990  134.9540 C   0  0  1  0  0  3  0  0  0  0  0  0
  200.0270  173.1130  134.3480 O   0  0  0  0  0  0  0  0  0  0  0  0
  199.6690  172.2920  135.1990 C   0  0  0  0  0  0  0  0  0  0  0  0
  200.0840  172.4340  136.6340 C   0  0  0  0  0  2  0  0  0  0  0  0
  200.2310  173.7900  137.1100 N   0  0  0  0  0  1  0  0  0  0  0  0
  199.7410  169.0350  134.9870 N   0  0  0  0  0  1  0  0  0  0  0  0
  198.9350  169.9870  135.7210 C   0  0  2  0  0  3  0  0  0  0  0  0
  197.6740  169.1630  136.0690 C   0  0  0  0  0  2  0  0  0  0  0  0
  197.6150  168.8360  137.4250 O   0  0  0  0  0  1  0  0  0  0  0  0
  189.6630  177.8080  137.2620 C   0  0  0  0  0  2  0  0  0  0  0  0
  189.0430  178.6710  138.3840 C   0  0  0  0  0  2  0  0  0  0  0  0
  189.3380  178.0190  139.5890 N   0  0  0  0  0  2  0  0  0  0  0  0
  188.7320  178.6000  140.6680 C   0  0  0  0  0  2  0  0  0  0  0  0
  186.9610  177.4130  143.6330 C   0  0  0  0  0  0  0  0  0  0  0  0
  189.9740  178.1400  144.3000 C   0  0  0  0  0  3  0  0  0  0  0  0
  189.2540  177.2500  144.9800 C   0  0  0  0  0  0  0  0  0  0  0  0
  189.9010  178.4790  142.8170 C   0  0  0  0  0  3  0  0  0  0  0  0
  187.7620  176.8390  144.8350 C   0  0  0  0  0  2  0  0  0  0  0  0
  187.4290  177.8580  142.4820 C   0  0  0  0  0  3  0  0  0  0  0  0
  188.8780  178.1490  141.9880 C   0  0  0  0  0  0  0  0  0  0  0  0
  190.0180  176.6040  146.2070 C   0  0  2  0  0  3  0  0  0  0  0  0
  190.6880  177.7310  146.8300 O   0  0  0  0  0  0  0  0  0  0  0  0
  191.0970  175.5920  145.7110 C   0  0  0  0  0  2  0  0  0  0  0  0
  191.8860  177.2080  147.2880 C   0  0  2  0  0  3  0  0  0  0  0  0
  192.1810  175.7790  146.7450 C   0  0  0  0  0  2  0  0  0  0  0  0
  192.0000  177.3640  148.7850 C   0  0  0  0  0  2  0  0  0  0  0  0
  193.7890  177.3570  150.0130 C   0  0  0  0  0  1  0  0  0  0  0  0
  192.9510  176.5010  149.2990 O   0  0  0  0  0  0  0  0  0  0  0  0
  185.4730  177.4710  143.7460 C   0  0  0  0  0  2  0  0  0  0  0  0
  184.7190  178.7370  143.9100 C   0  0  1  0  0  3  0  0  0  0  0  0
  184.0560  179.0620  142.7450 O   0  0  0  0  0  1  0  0  0  0  0  0
  182.7330  179.2440  145.0940 O   0  0  0  0  0  0  0  0  0  0  0  0
  183.9540  178.9220  145.1620 C   0  0  0  0  0  0  0  0  0  0  0  0
  184.5590  178.8660  146.3840 O   0  0  0  0  0  0  0  0  0  0  0  0
  185.9130  179.2340  146.6300 C   0  0  0  0  0  1  0  0  0  0  0  0
  1 40  1  6  0  0  0
  2  5  1  0  0  0  0
  3  9  1  0  0  0  0
  3  4  1  0  0  0  0
  5  8  2  0  0  0  0
  5  7  1  0  0  0  0
  6  9  2  0  0  0  0
  7  3  2  0  0  0  0
  8  6  1  0  0  0  0
  9  1  1  0  0  0  0
 10  2  2  0  0  0  0
 10 11  1  0  0  0  0
 11  8  1  0  0  0  0
 12 13  1  0  0  0  0
 12 10  1  0  0  0  0
 13 14  1  0  0  0  0
 14 16  1  0  0  0  0
 15 16  2  0  0  0  0
 16 17  1  0  0  0  0
 16 18  1  0  0  0  0
 20 19  2  0  0  0  0
 21  1  1  0  0  0  0
 21 20  1  0  0  0  0
 22 23  1  0  0  0  0
 22 25  1  1  0  0  0
 22 20  1  0  0  0  0
 24 23  1  0  0  0  0
 26 25  1  0  0  0  0
 26 27  1  1  0  0  0
 28 26  1  0  0  0  0
 29 30  1  0  0  0  0
 29 28  1  0  0  0  0
 31 33  1  1  0  0  0
 31 30  1  0  0  0  0
 31 37  1  0  0  0  0
 32 33  2  0  0  0  0
 33 34  1  0  0  0  0
 34 35  1  0  0  0  0
 37 36  1  6  0  0  0
 37 38  1  0  0  0  0
 38 39  1  0  0  0  0
 40 41  1  0  0  0  0
 41 42  1  0  0  0  0
 42 43  1  0  0  0  0
 43 50  1  0  0  0  0
 44 59  1  0  0  0  0
 44 48  1  0  0  0  0
 45 46  2  0  0  0  0
 47 45  1  0  0  0  0
 48 46  1  0  0  0  0
 49 44  2  0  0  0  0
 50 49  1  0  0  0  0
 50 47  2  0  0  0  0
 51 46  1  6  0  0  0
 51 52  1  0  0  0  0
 52 54  1  0  0  0  0
 53 51  1  0  0  0  0
 53 55  1  0  0  0  0
 54 56  1  1  0  0  0
 55 54  1  0  0  0  0
 56 58  1  0  0  0  0
 58 57  1  0  0  0  0
 59 60  1  0  0  0  0
 60 61  1  6  0  0  0
 60 63  1  0  0  0  0
 62 63  2  0  0  0  0
 63 64  1  0  0  0  0
 64 65  1  0  0  0  0
M  END
>  <MODEL>
4

>  <REMARK>
 VINA RESULT:      -4.0      1.790      2.385
  Name = 
  29 active torsions:
  status: ('A' for Active; 'I' for Inactive)
    1  A    between atoms: O_2  and  C_61
    2  A    between atoms: O_3  and  C_28
    3  A    between atoms: C_4  and  C_14
    4  A    between atoms: C_4  and  C_46
    5  A    between atoms: C_5  and  N_38
    6  A    between atoms: C_5  and  C_57
    7  A    between atoms: C_7  and  CA_16
    8  A    between atoms: C_7  and  N_38
    9  A    between atoms: C_7  and  C_62
   10  A    between atoms: C_10  and  C_42
   11  A    between atoms: C_10  and  C_44
   12  A    between atoms: C_10  and  N_58
   13  A    between atoms: C_11  and  C_30
   14  A    between atoms: CA_16  and  C_17
   15  A    between atoms: P_19  and  C_50
   16  A    between atoms: O_22  and  C_59
   17  A    between atoms: C_25  and  C_33
   18  A    between atoms: C_25  and  C_49
   19  A    between atoms: C_28  and  C_40
   20  A    between atoms: C_28  and  C_43
   21  A    between atoms: C_33  and  C_50
   22  A    between atoms: C_34  and  C_59
   23  A    between atoms: C_39  and  C_62
   24  A    between atoms: C_40  and  C_52
   25  A    between atoms: C_41  and  C_44
   26  A    between atoms: C_41  and  N_51
   27  A    between atoms: C_46  and  C_61
   28  A    between atoms: C_52  and  C_57
   29  A    between atoms: C_63  and  C_65
                            x       y       z     vdW  Elec       q    Type
                         _______ _______ _______ _____ _____    ______ ____

>  <TORSDO>
F 29

$$$$
=
 OpenBabel10232410503D

 65 68  0  0  1  0  0  0  0  0999 V2000
  189.4710  175.6820  137.4210 C   0  0  1  0  0  3  0  0  0  0  0  0
  184.4580  176.2950  134.9670 N   0  0  0  0  0  0  0  0  0  0  0  0
  187.9290  177.1340  135.9150 C   0  0  0  0  0  0  0  0  0  0  0  0
  188.9350  178.2870  135.9200 C   0  0  0  0  0  1  0  0  0  0  0  0
  185.7260  176.3250  135.4020 C   0  0  0  0  0  0  0  0  0  0  0  0
  187.1460  174.9700  136.7150 C   0  0  0  0  0  3  0  0  0  0  0  0
  186.6990  177.3310  135.2690 C   0  0  0  0  0  3  0  0  0  0  0  0
  185.9850  175.2280  136.0620 C   0  0  0  0  0  0  0  0  0  0  0  0
  188.1900  175.8960  136.6160 C   0  0  0  0  0  0  0  0  0  0  0  0
  184.0030  175.1070  135.4470 C   0  0  0  0  0  0  0  0  0  0  0  0
  184.9440  174.4350  136.2270 N   0  0  0  0  0  2  0  0  0  0  0  0
  182.5710  174.6730  135.4000 C   0  0  0  0  0  2  0  0  0  0  0  0
  181.7750  174.7200  136.7120 C   0  0  0  0  0  2  0  0  0  0  0  0
  180.8720  175.9920  137.1010 C   0  0  0  0  0  2  0  0  0  0  0  0
  181.1370  176.4630  140.0430 O   0  0  0  0  0  1  0  0  0  0  0  0
  181.6920  177.0520  138.5150 P   0  0  0  0  0  0  0  0  0  0  0  0
  181.2030  178.5040  138.3670 O   0  0  0  0  0  0  0  0  0  0  0  0
  183.4340  176.9580  138.4460 O   0  0  0  0  0  1  0  0  0  0  0  0
  192.2030  174.2620  137.6530 O   0  0  0  0  0  0  0  0  0  0  0  0
  192.0480  175.1980  136.8160 C   0  0  0  0  0  0  0  0  0  0  0  0
  190.7960  175.8900  136.6670 N   0  0  0  0  0  2  0  0  0  0  0  0
  193.1560  175.6450  135.8390 C   0  0  2  0  0  3  0  0  0  0  0  0
  193.6390  176.9330  136.0340 O   0  0  0  0  0  0  0  0  0  0  0  0
  193.6480  177.0180  137.3570 O   0  0  0  0  0  1  0  0  0  0  0  0
  193.1660  174.9790  134.4180 C   0  0  0  0  0  2  0  0  0  0  0  0
  194.0750  173.7330  134.3500 C   0  0  2  0  0  3  0  0  0  0  0  0
  193.4040  172.7800  135.3250 C   0  0  0  0  0  1  0  0  0  0  0  0
  195.5800  174.0160  134.7070 C   0  0  0  0  0  2  0  0  0  0  0  0
  195.9270  174.0170  136.2500 C   0  0  0  0  0  2  0  0  0  0  0  0
  196.9520  172.9540  136.5390 N   0  0  0  0  0  2  0  0  0  0  0  0
  198.3360  173.3130  136.7840 C   0  0  1  0  0  3  0  0  0  0  0  0
  199.2680  175.2900  135.8620 O   0  0  0  0  0  0  0  0  0  0  0  0
  198.8310  174.1470  135.6890 C   0  0  0  0  0  0  0  0  0  0  0  0
  199.0320  173.4290  134.3880 C   0  0  0  0  0  2  0  0  0  0  0  0
  200.1510  172.5150  134.3460 N   0  0  0  0  0  1  0  0  0  0  0  0
  197.8510  175.4360  138.0620 N   0  0  0  0  0  1  0  0  0  0  0  0
  198.3870  174.0940  138.1240 C   0  0  2  0  0  3  0  0  0  0  0  0
  199.8230  174.3280  138.6460 C   0  0  0  0  0  2  0  0  0  0  0  0
  199.9040  175.4400  139.4870 O   0  0  0  0  0  1  0  0  0  0  0  0
  189.5550  176.1740  138.9370 C   0  0  0  0  0  2  0  0  0  0  0  0
  189.4770  177.7110  139.0710 C   0  0  0  0  0  2  0  0  0  0  0  0
  189.3380  177.9790  140.4400 N   0  0  0  0  0  2  0  0  0  0  0  0
  189.9120  177.0210  141.2280 C   0  0  0  0  0  2  0  0  0  0  0  0
  187.9500  177.9020  144.1790 C   0  0  0  0  0  0  0  0  0  0  0  0
  190.9790  177.3450  144.9300 C   0  0  0  0  0  3  0  0  0  0  0  0
  189.9610  177.1870  145.7730 C   0  0  0  0  0  0  0  0  0  0  0  0
  190.9970  177.1370  143.4210 C   0  0  0  0  0  3  0  0  0  0  0  0
  188.4460  177.4860  145.5910 C   0  0  0  0  0  2  0  0  0  0  0  0
  188.5100  177.6480  143.0120 C   0  0  0  0  0  3  0  0  0  0  0  0
  189.8970  177.0460  142.6310 C   0  0  0  0  0  0  0  0  0  0  0  0
  190.3930  176.7380  147.2290 C   0  0  2  0  0  3  0  0  0  0  0  0
  191.6290  177.4630  147.4630 O   0  0  0  0  0  0  0  0  0  0  0  0
  190.6970  175.2080  147.2650 C   0  0  0  0  0  2  0  0  0  0  0  0
  192.4020  176.5920  148.2120 C   0  0  2  0  0  3  0  0  0  0  0  0
  191.8210  175.1490  148.2700 C   0  0  0  0  0  2  0  0  0  0  0  0
  192.7510  177.2010  149.5480 C   0  0  0  0  0  2  0  0  0  0  0  0
  194.4920  176.7470  150.7610 C   0  0  0  0  0  1  0  0  0  0  0  0
  194.1060  177.4660  149.6290 O   0  0  0  0  0  0  0  0  0  0  0  0
  186.6730  178.6720  144.0840 C   0  0  0  0  0  2  0  0  0  0  0  0
  185.4040  178.0830  143.5950 C   0  0  1  0  0  3  0  0  0  0  0  0
  184.4080  178.2220  144.5390 O   0  0  0  0  0  1  0  0  0  0  0  0
  183.9030  177.9330  141.7710 O   0  0  0  0  0  0  0  0  0  0  0  0
  185.0120  178.3640  142.1960 C   0  0  0  0  0  0  0  0  0  0  0  0
  185.8640  178.9770  141.3250 O   0  0  0  0  0  0  0  0  0  0  0  0
  185.9040  178.7240  139.9240 C   0  0  0  0  0  1  0  0  0  0  0  0
  1 40  1  1  0  0  0
  2  5  1  0  0  0  0
  2 10  2  0  0  0  0
  3  4  1  0  0  0  0
  3  9  1  0  0  0  0
  5  8  2  0  0  0  0
  7  5  1  0  0  0  0
  7  3  2  0  0  0  0
  8 11  1  0  0  0  0
  8  6  1  0  0  0  0
  9  6  2  0  0  0  0
  9  1  1  0  0  0  0
 10 11  1  0  0  0  0
 12 10  1  0  0  0  0
 12 13  1  0  0  0  0
 13 14  1  0  0  0  0
 14 16  1  0  0  0  0
 16 15  1  0  0  0  0
 17 16  2  0  0  0  0
 18 16  1  0  0  0  0
 20 19  2  0  0  0  0
 21 20  1  0  0  0  0
 21  1  1  0  0  0  0
 22 25  1  6  0  0  0
 22 23  1  0  0  0  0
 22 20  1  0  0  0  0
 23 24  1  0  0  0  0
 26 25  1  0  0  0  0
 26 28  1  0  0  0  0
 26 27  1  1  0  0  0
 28 29  1  0  0  0  0
 29 30  1  0  0  0  0
 30 31  1  0  0  0  0
 31 33  1  6  0  0  0
 31 37  1  0  0  0  0
 33 32  2  0  0  0  0
 34 33  1  0  0  0  0
 35 34  1  0  0  0  0
 37 36  1  6  0  0  0
 37 38  1  0  0  0  0
 38 39  1  0  0  0  0
 40 41  1  0  0  0  0
 41 42  1  0  0  0  0
 42 43  1  0  0  0  0
 43 50  1  0  0  0  0
 44 48  1  0  0  0  0
 45 46  2  0  0  0  0
 47 45  1  0  0  0  0
 48 46  1  0  0  0  0
 49 44  2  0  0  0  0
 50 49  1  0  0  0  0
 50 47  2  0  0  0  0
 51 46  1  6  0  0  0
 51 53  1  0  0  0  0
 51 52  1  0  0  0  0
 52 54  1  0  0  0  0
 53 55  1  0  0  0  0
 54 55  1  0  0  0  0
 54 56  1  1  0  0  0
 56 58  1  0  0  0  0
 58 57  1  0  0  0  0
 59 44  1  0  0  0  0
 60 59  1  0  0  0  0
 60 61  1  1  0  0  0
 62 63  2  0  0  0  0
 63 60  1  0  0  0  0
 64 63  1  0  0  0  0
 65 64  1  0  0  0  0
M  END
>  <MODEL>
5

>  <REMARK>
 VINA RESULT:      -3.9      1.663      2.278
  Name = 
  29 active torsions:
  status: ('A' for Active; 'I' for Inactive)
    1  A    between atoms: O_2  and  C_61
    2  A    between atoms: O_3  and  C_28
    3  A    between atoms: C_4  and  C_14
    4  A    between atoms: C_4  and  C_46
    5  A    between atoms: C_5  and  N_38
    6  A    between atoms: C_5  and  C_57
    7  A    between atoms: C_7  and  CA_16
    8  A    between atoms: C_7  and  N_38
    9  A    between atoms: C_7  and  C_62
   10  A    between atoms: C_10  and  C_42
   11  A    between atoms: C_10  and  C_44
   12  A    between atoms: C_10  and  N_58
   13  A    between atoms: C_11  and  C_30
   14  A    between atoms: CA_16  and  C_17
   15  A    between atoms: P_19  and  C_50
   16  A    between atoms: O_22  and  C_59
   17  A    between atoms: C_25  and  C_33
   18  A    between atoms: C_25  and  C_49
   19  A    between atoms: C_28  and  C_40
   20  A    between atoms: C_28  and  C_43
   21  A    between atoms: C_33  and  C_50
   22  A    between atoms: C_34  and  C_59
   23  A    between atoms: C_39  and  C_62
   24  A    between atoms: C_40  and  C_52
   25  A    between atoms: C_41  and  C_44
   26  A    between atoms: C_41  and  N_51
   27  A    between atoms: C_46  and  C_61
   28  A    between atoms: C_52  and  C_57
   29  A    between atoms: C_63  and  C_65
                            x       y       z     vdW  Elec       q    Type
                         _______ _______ _______ _____ _____    ______ ____

>  <TORSDO>
F 29

$$$$
=
 OpenBabel10232410503D

 65 68  0  0  1  0  0  0  0  0999 V2000
  185.7660  178.5660  142.7700 C   0  0  1  0  0  3  0  0  0  0  0  0
  187.4770  177.8590  148.0710 N   0  0  0  0  0  0  0  0  0  0  0  0
  185.1230  178.4530  145.2860 C   0  0  0  0  0  0  0  0  0  0  0  0
  183.6970  178.9190  144.9880 C   0  0  0  0  0  1  0  0  0  0  0  0
  186.8460  177.9920  146.8950 C   0  0  0  0  0  0  0  0  0  0  0  0
  187.4240  178.0260  144.6070 C   0  0  0  0  0  3  0  0  0  0  0  0
  185.4940  178.2710  146.6270 C   0  0  0  0  0  3  0  0  0  0  0  0
  187.7070  177.8590  145.9230 C   0  0  0  0  0  0  0  0  0  0  0  0
  186.0990  178.2730  144.2330 C   0  0  0  0  0  0  0  0  0  0  0  0
  188.7700  177.6630  147.6990 C   0  0  0  0  0  0  0  0  0  0  0  0
  188.9600  177.7400  146.3190 N   0  0  0  0  0  2  0  0  0  0  0  0
  189.9260  177.6460  148.6490 C   0  0  0  0  0  2  0  0  0  0  0  0
  191.3370  177.6660  148.0440 C   0  0  0  0  0  2  0  0  0  0  0  0
  192.1270  176.3050  147.7100 C   0  0  0  0  0  2  0  0  0  0  0  0
  193.8530  177.4280  149.8800 O   0  0  0  0  0  1  0  0  0  0  0  0
  193.5680  175.9790  148.9810 P   0  0  0  0  0  0  0  0  0  0  0  0
  194.8450  175.6630  148.1830 O   0  0  0  0  0  0  0  0  0  0  0  0
  193.1630  174.6780  150.0740 O   0  0  0  0  0  1  0  0  0  0  0  0
  188.0390  176.5020  142.4310 O   0  0  0  0  0  0  0  0  0  0  0  0
  187.9750  177.5040  141.6600 C   0  0  0  0  0  0  0  0  0  0  0  0
  186.9370  178.4920  141.7740 N   0  0  0  0  0  2  0  0  0  0  0  0
  188.9610  177.7300  140.4930 C   0  0  2  0  0  3  0  0  0  0  0  0
  190.3010  177.8100  140.8510 O   0  0  0  0  0  0  0  0  0  0  0  0
  190.6340  176.5290  140.9240 O   0  0  0  0  0  1  0  0  0  0  0  0
  188.4100  178.4830  139.2300 C   0  0  0  0  0  2  0  0  0  0  0  0
  189.3260  178.3280  137.9970 C   0  0  2  0  0  3  0  0  0  0  0  0
  188.5950  179.1360  136.9390 C   0  0  0  0  0  1  0  0  0  0  0  0
  189.5750  176.8350  137.5670 C   0  0  0  0  0  2  0  0  0  0  0  0
  190.3410  176.6390  136.1970 C   0  0  0  0  0  2  0  0  0  0  0  0
  191.3690  175.5500  136.3450 N   0  0  0  0  0  2  0  0  0  0  0  0
  192.7650  175.8810  136.5630 C   0  0  1  0  0  3  0  0  0  0  0  0
  192.8880  173.7540  137.6050 O   0  0  0  0  0  0  0  0  0  0  0  0
  193.3840  174.8700  137.4200 C   0  0  0  0  0  0  0  0  0  0  0  0
  194.7920  175.1720  137.8400 C   0  0  0  0  0  2  0  0  0  0  0  0
  194.9890  175.3870  139.2550 N   0  0  0  0  0  1  0  0  0  0  0  0
  194.1830  174.7060  134.8350 N   0  0  0  0  0  1  0  0  0  0  0  0
  193.4610  175.9130  135.1760 C   0  0  2  0  0  3  0  0  0  0  0  0
  194.5510  177.0020  135.0590 C   0  0  0  0  0  2  0  0  0  0  0  0
  195.7680  176.5920  135.6070 O   0  0  0  0  0  1  0  0  0  0  0  0
  184.4000  178.0360  142.1390 C   0  0  0  0  0  2  0  0  0  0  0  0
  183.3730  179.1660  141.9050 C   0  0  0  0  0  2  0  0  0  0  0  0
  182.6100  178.7790  140.7940 N   0  0  0  0  0  2  0  0  0  0  0  0
  183.0000  177.5750  140.2780 C   0  0  0  0  0  2  0  0  0  0  0  0
  180.9790  178.1590  137.2930 C   0  0  0  0  0  0  0  0  0  0  0  0
  181.2150  175.0650  137.9410 C   0  0  0  0  0  3  0  0  0  0  0  0
  181.0080  175.5570  136.7220 C   0  0  0  0  0  0  0  0  0  0  0  0
  182.0170  175.6760  139.0830 C   0  0  0  0  0  3  0  0  0  0  0  0
  180.7920  177.0220  136.2500 C   0  0  0  0  0  3  0  0  0  0  0  0
  181.6900  178.1340  138.4050 C   0  0  0  0  0  2  0  0  0  0  0  0
  182.4080  176.9730  139.1570 C   0  0  0  0  0  0  0  0  0  0  0  0
  180.8340  174.4520  135.6010 C   0  0  2  0  0  3  0  0  0  0  0  0
  180.7650  173.2090  136.3480 O   0  0  0  0  0  0  0  0  0  0  0  0
  182.0860  174.4090  134.6720 C   0  0  0  0  0  2  0  0  0  0  0  0
  181.4060  172.2860  135.5380 C   0  0  2  0  0  3  0  0  0  0  0  0
  182.1680  172.9370  134.3470 C   0  0  0  0  0  2  0  0  0  0  0  0
  180.4720  171.1610  135.1670 C   0  0  0  0  0  2  0  0  0  0  0  0
  182.3810  170.1950  135.5290 C   0  0  0  0  0  1  0  0  0  0  0  0
  181.0110  169.9360  135.5190 O   0  0  0  0  0  0  0  0  0  0  0  0
  180.3000  179.4650  137.0360 C   0  0  0  0  0  2  0  0  0  0  0  0
  180.7830  180.7530  137.5870 C   0  0  1  0  0  3  0  0  0  0  0  0
  182.0910  180.6410  138.0080 O   0  0  0  0  0  1  0  0  0  0  0  0
  180.2440  181.9150  135.5960 O   0  0  0  0  0  0  0  0  0  0  0  0
  180.4470  181.9860  136.8420 C   0  0  0  0  0  0  0  0  0  0  0  0
  180.4610  183.2110  137.4440 O   0  0  0  0  0  0  0  0  0  0  0  0
  181.5360  184.1410  137.3510 C   0  0  0  0  0  1  0  0  0  0  0  0
  1 40  1  6  0  0  0
  1  9  1  0  0  0  0
  3  7  1  0  0  0  0
  4  3  1  0  0  0  0
  5  2  1  0  0  0  0
  6  8  2  0  0  0  0
  7  5  2  0  0  0  0
  8 11  1  0  0  0  0
  8  5  1  0  0  0  0
  9  6  1  0  0  0  0
  9  3  2  0  0  0  0
 10  2  2  0  0  0  0
 10 12  1  0  0  0  0
 11 10  1  0  0  0  0
 13 12  1  0  0  0  0
 14 13  1  0  0  0  0
 14 16  1  0  0  0  0
 16 15  1  0  0  0  0
 16 18  1  0  0  0  0
 17 16  2  0  0  0  0
 20 21  1  0  0  0  0
 20 19  2  0  0  0  0
 21  1  1  0  0  0  0
 22 25  1  1  0  0  0
 22 23  1  0  0  0  0
 22 20  1  0  0  0  0
 23 24  1  0  0  0  0
 26 27  1  6  0  0  0
 26 25  1  0  0  0  0
 28 26  1  0  0  0  0
 29 30  1  0  0  0  0
 29 28  1  0  0  0  0
 31 30  1  6  0  0  0
 31 33  1  0  0  0  0
 33 32  2  0  0  0  0
 33 34  1  0  0  0  0
 34 35  1  0  0  0  0
 37 36  1  1  0  0  0
 37 31  1  0  0  0  0
 38 37  1  0  0  0  0
 38 39  1  0  0  0  0
 41 40  1  0  0  0  0
 42 41  1  0  0  0  0
 43 42  1  0  0  0  0
 44 49  1  0  0  0  0
 45 47  1  0  0  0  0
 46 45  2  0  0  0  0
 47 50  2  0  0  0  0
 48 46  1  0  0  0  0
 48 44  2  0  0  0  0
 49 50  1  0  0  0  0
 50 43  1  0  0  0  0
 51 52  1  0  0  0  0
 51 46  1  1  0  0  0
 53 51  1  0  0  0  0
 54 56  1  6  0  0  0
 54 52  1  0  0  0  0
 55 53  1  0  0  0  0
 55 54  1  0  0  0  0
 56 58  1  0  0  0  0
 58 57  1  0  0  0  0
 59 44  1  0  0  0  0
 59 60  1  0  0  0  0
 60 61  1  6  0  0  0
 62 63  2  0  0  0  0
 63 64  1  0  0  0  0
 63 60  1  0  0  0  0
 65 64  1  0  0  0  0
M  END
>  <MODEL>
6

>  <REMARK>
 VINA RESULT:      -3.3      3.886     11.099
  Name = 
  29 active torsions:
  status: ('A' for Active; 'I' for Inactive)
    1  A    between atoms: O_2  and  C_61
    2  A    between atoms: O_3  and  C_28
    3  A    between atoms: C_4  and  C_14
    4  A    between atoms: C_4  and  C_46
    5  A    between atoms: C_5  and  N_38
    6  A    between atoms: C_5  and  C_57
    7  A    between atoms: C_7  and  CA_16
    8  A    between atoms: C_7  and  N_38
    9  A    between atoms: C_7  and  C_62
   10  A    between atoms: C_10  and  C_42
   11  A    between atoms: C_10  and  C_44
   12  A    between atoms: C_10  and  N_58
   13  A    between atoms: C_11  and  C_30
   14  A    between atoms: CA_16  and  C_17
   15  A    between atoms: P_19  and  C_50
   16  A    between atoms: O_22  and  C_59
   17  A    between atoms: C_25  and  C_33
   18  A    between atoms: C_25  and  C_49
   19  A    between atoms: C_28  and  C_40
   20  A    between atoms: C_28  and  C_43
   21  A    between atoms: C_33  and  C_50
   22  A    between atoms: C_34  and  C_59
   23  A    between atoms: C_39  and  C_62
   24  A    between atoms: C_40  and  C_52
   25  A    between atoms: C_41  and  C_44
   26  A    between atoms: C_41  and  N_51
   27  A    between atoms: C_46  and  C_61
   28  A    between atoms: C_52  and  C_57
   29  A    between atoms: C_63  and  C_65
                            x       y       z     vdW  Elec       q    Type
                         _______ _______ _______ _____ _____    ______ ____

>  <TORSDO>
F 29

$$$$
=
 OpenBabel10232410503D

 65 68  0  0  1  0  0  0  0  0999 V2000
  185.8920  178.5300  143.2330 C   0  0  1  0  0  3  0  0  0  0  0  0
  187.7760  178.1480  148.5090 N   0  0  0  0  0  0  0  0  0  0  0  0
  185.3200  178.4790  145.7680 C   0  0  0  0  0  0  0  0  0  0  0  0
  183.8600  178.8430  145.4920 C   0  0  0  0  0  1  0  0  0  0  0  0
  187.1080  178.1930  147.3470 C   0  0  0  0  0  0  0  0  0  0  0  0
  187.6260  178.1700  145.0430 C   0  0  0  0  0  3  0  0  0  0  0  0
  185.7360  178.3760  147.1050 C   0  0  0  0  0  3  0  0  0  0  0  0
  187.9510  178.0750  146.3570 C   0  0  0  0  0  0  0  0  0  0  0  0
  186.2790  178.3190  144.6960 C   0  0  0  0  0  0  0  0  0  0  0  0
  189.0690  178.0180  148.1090 C   0  0  0  0  0  0  0  0  0  0  0  0
  189.2190  178.0510  146.7230 N   0  0  0  0  0  2  0  0  0  0  0  0
  190.2480  178.1120  149.0270 C   0  0  0  0  0  2  0  0  0  0  0  0
  191.5720  177.5090  148.5400 C   0  0  0  0  0  2  0  0  0  0  0  0
  191.9100  177.3810  146.9730 C   0  0  0  0  0  2  0  0  0  0  0  0
  192.9120  174.7280  146.0210 O   0  0  0  0  0  1  0  0  0  0  0  0
  191.4530  175.6180  146.2800 P   0  0  0  0  0  0  0  0  0  0  0  0
  190.7690  175.8050  144.9140 O   0  0  0  0  0  0  0  0  0  0  0  0
  190.4240  174.7500  147.3920 O   0  0  0  0  0  1  0  0  0  0  0  0
  187.9130  176.2260  142.8570 O   0  0  0  0  0  0  0  0  0  0  0  0
  187.9240  177.2100  142.0630 C   0  0  0  0  0  0  0  0  0  0  0  0
  187.0030  178.3070  142.1920 N   0  0  0  0  0  2  0  0  0  0  0  0
  188.8760  177.3030  140.8510 C   0  0  2  0  0  3  0  0  0  0  0  0
  190.2160  177.0560  141.1250 O   0  0  0  0  0  0  0  0  0  0  0  0
  190.4430  177.8950  142.1250 O   0  0  0  0  0  1  0  0  0  0  0  0
  188.4470  178.2540  139.6780 C   0  0  0  0  0  2  0  0  0  0  0  0
  188.8800  177.7250  138.2930 C   0  0  2  0  0  3  0  0  0  0  0  0
  189.2970  178.9950  137.5700 C   0  0  0  0  0  1  0  0  0  0  0  0
  187.7590  176.9260  137.5320 C   0  0  0  0  0  2  0  0  0  0  0  0
  188.1900  176.2960  136.1480 C   0  0  0  0  0  2  0  0  0  0  0  0
  187.6890  174.8790  136.0590 N   0  0  0  0  0  2  0  0  0  0  0  0
  188.5930  173.7640  136.2680 C   0  0  1  0  0  3  0  0  0  0  0  0
  187.8690  171.8710  137.5010 O   0  0  0  0  0  0  0  0  0  0  0  0
  187.8240  172.5350  136.4600 C   0  0  0  0  0  0  0  0  0  0  0  0
  186.7690  172.2800  135.4240 C   0  0  0  0  0  2  0  0  0  0  0  0
  185.4040  172.3540  135.8920 N   0  0  0  0  0  1  0  0  0  0  0  0
  189.7450  172.2930  134.5710 N   0  0  0  0  0  1  0  0  0  0  0  0
  189.4940  173.6480  135.0100 C   0  0  2  0  0  3  0  0  0  0  0  0
  190.9200  174.2040  135.2200 C   0  0  0  0  0  2  0  0  0  0  0  0
  191.8870  173.4390  134.5650 O   0  0  0  0  0  1  0  0  0  0  0  0
  184.4640  178.0510  142.7060 C   0  0  0  0  0  2  0  0  0  0  0  0
  183.5010  179.2290  142.4380 C   0  0  0  0  0  2  0  0  0  0  0  0
  182.6750  178.8270  141.3780 N   0  0  0  0  0  2  0  0  0  0  0  0
  182.9820  177.5780  140.9130 C   0  0  0  0  0  2  0  0  0  0  0  0
  180.8700  178.1160  137.9820 C   0  0  0  0  0  0  0  0  0  0  0  0
  180.9800  175.0500  138.7810 C   0  0  0  0  0  3  0  0  0  0  0  0
  180.7470  175.4910  137.5460 C   0  0  0  0  0  0  0  0  0  0  0  0
  181.8570  175.6750  139.8570 C   0  0  0  0  0  3  0  0  0  0  0  0
  180.5850  176.9400  137.0080 C   0  0  0  0  0  3  0  0  0  0  0  0
  181.6250  178.1100  139.0650 C   0  0  0  0  0  2  0  0  0  0  0  0
  182.3150  176.9530  139.8480 C   0  0  0  0  0  0  0  0  0  0  0  0
  180.4720  174.3410  136.4920 C   0  0  2  0  0  3  0  0  0  0  0  0
  181.4830  173.3440  136.7960 O   0  0  0  0  0  0  0  0  0  0  0  0
  180.7030  174.8600  135.0390 C   0  0  0  0  0  2  0  0  0  0  0  0
  181.8230  172.8130  135.5630 C   0  0  2  0  0  3  0  0  0  0  0  0
  181.2550  173.6280  134.3650 C   0  0  0  0  0  2  0  0  0  0  0  0
  181.5450  171.3310  135.5240 C   0  0  0  0  0  2  0  0  0  0  0  0
  182.7070  169.5010  135.4260 C   0  0  0  0  0  1  0  0  0  0  0  0
  182.5120  170.6290  136.2220 O   0  0  0  0  0  0  0  0  0  0  0  0
  180.2470  179.4400  137.6840 C   0  0  0  0  0  2  0  0  0  0  0  0
  180.9110  180.7340  137.9710 C   0  0  1  0  0  3  0  0  0  0  0  0
  182.2550  180.5450  138.2170 O   0  0  0  0  0  1  0  0  0  0  0  0
  180.6750  181.7720  135.8570 O   0  0  0  0  0  0  0  0  0  0  0  0
  180.5670  181.8870  137.1110 C   0  0  0  0  0  0  0  0  0  0  0  0
  180.2450  183.1030  137.6420 O   0  0  0  0  0  0  0  0  0  0  0  0
  180.6790  184.3520  137.1130 C   0  0  0  0  0  1  0  0  0  0  0  0
  1 40  1  6  0  0  0
  1  9  1  0  0  0  0
  3  7  1  0  0  0  0
  4  3  1  0  0  0  0
  5  2  1  0  0  0  0
  6  8  2  0  0  0  0
  7  5  2  0  0  0  0
  8 11  1  0  0  0  0
  8  5  1  0  0  0  0
  9  6  1  0  0  0  0
  9  3  2  0  0  0  0
 10  2  2  0  0  0  0
 10 12  1  0  0  0  0
 11 10  1  0  0  0  0
 13 12  1  0  0  0  0
 14 13  1  0  0  0  0
 15 16  1  0  0  0  0
 16 14  1  0  0  0  0
 16 18  1  0  0  0  0
 17 16  2  0  0  0  0
 20 21  1  0  0  0  0
 20 19  2  0  0  0  0
 21  1  1  0  0  0  0
 22 25  1  1  0  0  0
 22 23  1  0  0  0  0
 22 20  1  0  0  0  0
 23 24  1  0  0  0  0
 26 27  1  6  0  0  0
 26 25  1  0  0  0  0
 28 26  1  0  0  0  0
 29 28  1  0  0  0  0
 30 29  1  0  0  0  0
 31 30  1  6  0  0  0
 31 33  1  0  0  0  0
 33 32  2  0  0  0  0
 34 35  1  0  0  0  0
 34 33  1  0  0  0  0
 37 36  1  1  0  0  0
 37 38  1  0  0  0  0
 37 31  1  0  0  0  0
 39 38  1  0  0  0  0
 41 40  1  0  0  0  0
 42 41  1  0  0  0  0
 43 42  1  0  0  0  0
 44 49  1  0  0  0  0
 45 47  1  0  0  0  0
 46 45  2  0  0  0  0
 48 46  1  0  0  0  0
 48 44  2  0  0  0  0
 49 50  1  0  0  0  0
 50 47  2  0  0  0  0
 50 43  1  0  0  0  0
 51 52  1  0  0  0  0
 51 46  1  1  0  0  0
 53 51  1  0  0  0  0
 54 56  1  1  0  0  0
 54 52  1  0  0  0  0
 55 53  1  0  0  0  0
 55 54  1  0  0  0  0
 56 58  1  0  0  0  0
 57 58  1  0  0  0  0
 59 60  1  0  0  0  0
 59 44  1  0  0  0  0
 60 61  1  6  0  0  0
 62 63  2  0  0  0  0
 63 64  1  0  0  0  0
 63 60  1  0  0  0  0
 65 64  1  0  0  0  0
M  END
>  <MODEL>
7

>  <REMARK>
 VINA RESULT:      -3.3      4.257     11.181
  Name = 
  29 active torsions:
  status: ('A' for Active; 'I' for Inactive)
    1  A    between atoms: O_2  and  C_61
    2  A    between atoms: O_3  and  C_28
    3  A    between atoms: C_4  and  C_14
    4  A    between atoms: C_4  and  C_46
    5  A    between atoms: C_5  and  N_38
    6  A    between atoms: C_5  and  C_57
    7  A    between atoms: C_7  and  CA_16
    8  A    between atoms: C_7  and  N_38
    9  A    between atoms: C_7  and  C_62
   10  A    between atoms: C_10  and  C_42
   11  A    between atoms: C_10  and  C_44
   12  A    between atoms: C_10  and  N_58
   13  A    between atoms: C_11  and  C_30
   14  A    between atoms: CA_16  and  C_17
   15  A    between atoms: P_19  and  C_50
   16  A    between atoms: O_22  and  C_59
   17  A    between atoms: C_25  and  C_33
   18  A    between atoms: C_25  and  C_49
   19  A    between atoms: C_28  and  C_40
   20  A    between atoms: C_28  and  C_43
   21  A    between atoms: C_33  and  C_50
   22  A    between atoms: C_34  and  C_59
   23  A    between atoms: C_39  and  C_62
   24  A    between atoms: C_40  and  C_52
   25  A    between atoms: C_41  and  C_44
   26  A    between atoms: C_41  and  N_51
   27  A    between atoms: C_46  and  C_61
   28  A    between atoms: C_52  and  C_57
   29  A    between atoms: C_63  and  C_65
                            x       y       z     vdW  Elec       q    Type
                         _______ _______ _______ _____ _____    ______ ____

>  <TORSDO>
F 29

$$$$
=
 OpenBabel10232410503D

 65 68  0  0  1  0  0  0  0  0999 V2000
  189.7430  178.3610  139.4450 C   0  0  1  0  0  3  0  0  0  0  0  0
  187.2710  177.5750  144.4250 N   0  0  0  0  0  0  0  0  0  0  0  0
  187.5310  178.0210  140.7670 C   0  0  0  0  0  0  0  0  0  0  0  0
  186.6900  178.3180  139.5230 C   0  0  0  0  0  1  0  0  0  0  0  0
  187.6480  177.6930  143.1440 C   0  0  0  0  0  0  0  0  0  0  0  0
  189.6640  177.9330  141.9400 C   0  0  0  0  0  3  0  0  0  0  0  0
  186.8630  177.8110  141.9830 C   0  0  0  0  0  3  0  0  0  0  0  0
  188.9510  177.7280  143.0750 C   0  0  0  0  0  0  0  0  0  0  0  0
  188.9770  178.0300  140.7260 C   0  0  0  0  0  0  0  0  0  0  0  0
  188.4580  177.5670  145.0890 C   0  0  0  0  0  0  0  0  0  0  0  0
  189.5560  177.7470  144.2480 N   0  0  0  0  0  2  0  0  0  0  0  0
  188.5910  177.6440  146.5780 C   0  0  0  0  0  2  0  0  0  0  0  0
  188.6960  176.3190  147.3470 C   0  0  0  0  0  2  0  0  0  0  0  0
  190.0690  175.4840  147.3960 C   0  0  0  0  0  2  0  0  0  0  0  0
  191.0610  178.0470  148.5760 O   0  0  0  0  0  1  0  0  0  0  0  0
  191.6020  176.6380  147.7330 P   0  0  0  0  0  0  0  0  0  0  0  0
  192.1640  177.0930  146.3730 O   0  0  0  0  0  0  0  0  0  0  0  0
  192.8170  175.8150  148.6800 O   0  0  0  0  0  1  0  0  0  0  0  0
  192.7120  177.5650  139.7410 O   0  0  0  0  0  0  0  0  0  0  0  0
  191.9490  176.8890  138.9910 C   0  0  0  0  0  0  0  0  0  0  0  0
  190.5590  177.2150  138.8210 N   0  0  0  0  0  2  0  0  0  0  0  0
  192.4150  175.6230  138.2400 C   0  0  2  0  0  3  0  0  0  0  0  0
  193.6580  175.7160  137.6270 O   0  0  0  0  0  0  0  0  0  0  0  0
  193.5510  176.8690  136.9810 O   0  0  0  0  0  1  0  0  0  0  0  0
  191.2970  174.6790  137.6720 C   0  0  0  0  0  2  0  0  0  0  0  0
  191.5180  174.3190  136.1860 C   0  0  2  0  0  3  0  0  0  0  0  0
  190.4210  175.1060  135.4890 C   0  0  0  0  0  1  0  0  0  0  0  0
  191.4550  172.7770  135.8830 C   0  0  0  0  0  2  0  0  0  0  0  0
  192.5170  172.2420  134.8410 C   0  0  0  0  0  2  0  0  0  0  0  0
  193.7390  173.1200  134.8680 N   0  0  0  0  0  2  0  0  0  0  0  0
  194.7880  172.8920  135.8440 C   0  0  1  0  0  3  0  0  0  0  0  0
  195.4170  170.7360  135.0810 O   0  0  0  0  0  0  0  0  0  0  0  0
  195.0120  171.4560  136.0010 C   0  0  0  0  0  0  0  0  0  0  0  0
  194.9860  170.9610  137.4160 C   0  0  0  0  0  2  0  0  0  0  0  0
  195.4180  171.9100  138.4170 N   0  0  0  0  0  1  0  0  0  0  0  0
  197.3090  172.9410  135.7110 N   0  0  0  0  0  1  0  0  0  0  0  0
  196.0730  173.5870  135.3220 C   0  0  2  0  0  3  0  0  0  0  0  0
  196.2590  175.0230  135.8590 C   0  0  0  0  0  2  0  0  0  0  0  0
  197.2840  175.1050  136.8050 O   0  0  0  0  0  1  0  0  0  0  0  0
  189.0850  179.3070  138.3410 C   0  0  0  0  0  2  0  0  0  0  0  0
  189.5280  178.9460  136.9060 C   0  0  0  0  0  2  0  0  0  0  0  0
  188.5510  178.0770  136.4000 N   0  0  0  0  0  2  0  0  0  0  0  0
  187.3220  178.2740  136.9670 C   0  0  0  0  0  2  0  0  0  0  0  0
  186.1130  175.1360  135.5470 C   0  0  0  0  0  0  0  0  0  0  0  0
  183.7710  177.2520  135.8340 C   0  0  0  0  0  3  0  0  0  0  0  0
  183.5880  175.9340  135.8430 C   0  0  0  0  0  0  0  0  0  0  0  0
  184.9620  178.0450  136.3550 C   0  0  0  0  0  3  0  0  0  0  0  0
  184.6040  174.7750  135.6390 C   0  0  0  0  0  3  0  0  0  0  0  0
  186.7250  176.2030  136.0240 C   0  0  0  0  0  2  0  0  0  0  0  0
  186.1810  177.5250  136.6460 C   0  0  0  0  0  0  0  0  0  0  0  0
  182.0720  175.4930  135.9610 C   0  0  2  0  0  3  0  0  0  0  0  0
  182.1470  174.0950  136.3450 O   0  0  0  0  0  0  0  0  0  0  0  0
  181.3610  175.5940  134.5760 C   0  0  0  0  0  2  0  0  0  0  0  0
  181.0710  173.5040  135.7040 C   0  0  2  0  0  3  0  0  0  0  0  0
  180.4010  174.4300  134.6460 C   0  0  0  0  0  2  0  0  0  0  0  0
  180.1280  172.8820  136.7040 C   0  0  0  0  0  2  0  0  0  0  0  0
  181.3090  171.7340  138.1170 C   0  0  0  0  0  1  0  0  0  0  0  0
  180.5020  171.5810  136.9900 O   0  0  0  0  0  0  0  0  0  0  0  0
  187.0230  174.1730  134.8560 C   0  0  0  0  0  2  0  0  0  0  0  0
  186.9440  172.7040  135.0430 C   0  0  1  0  0  3  0  0  0  0  0  0
  188.1860  172.1270  134.8810 O   0  0  0  0  0  1  0  0  0  0  0  0
  186.5280  172.4350  137.3580 O   0  0  0  0  0  0  0  0  0  0  0  0
  186.1400  172.2000  136.1780 C   0  0  0  0  0  0  0  0  0  0  0  0
  185.0570  171.3940  135.9840 O   0  0  0  0  0  0  0  0  0  0  0  0
  184.9480  170.4290  134.9410 C   0  0  0  0  0  1  0  0  0  0  0  0
  1 40  1  6  0  0  0
  1  9  1  0  0  0  0
  2 10  2  0  0  0  0
  3  7  1  0  0  0  0
  4  3  1  0  0  0  0
  5  2  1  0  0  0  0
  6  8  2  0  0  0  0
  7  5  2  0  0  0  0
  8  5  1  0  0  0  0
  8 11  1  0  0  0  0
  9  3  2  0  0  0  0
  9  6  1  0  0  0  0
 10 12  1  0  0  0  0
 11 10  1  0  0  0  0
 12 13  1  0  0  0  0
 13 14  1  0  0  0  0
 14 16  1  0  0  0  0
 16 15  1  0  0  0  0
 16 18  1  0  0  0  0
 17 16  2  0  0  0  0
 20 19  2  0  0  0  0
 21 20  1  0  0  0  0
 21  1  1  0  0  0  0
 22 25  1  6  0  0  0
 22 20  1  0  0  0  0
 23 22  1  0  0  0  0
 24 23  1  0  0  0  0
 26 27  1  6  0  0  0
 26 25  1  0  0  0  0
 28 26  1  0  0  0  0
 29 30  1  0  0  0  0
 29 28  1  0  0  0  0
 31 30  1  6  0  0  0
 31 33  1  0  0  0  0
 32 33  2  0  0  0  0
 33 34  1  0  0  0  0
 34 35  1  0  0  0  0
 37 36  1  1  0  0  0
 37 31  1  0  0  0  0
 37 38  1  0  0  0  0
 38 39  1  0  0  0  0
 41 40  1  0  0  0  0
 42 41  1  0  0  0  0
 42 43  1  0  0  0  0
 44 48  2  0  0  0  0
 44 49  1  0  0  0  0
 45 46  2  0  0  0  0
 45 47  1  0  0  0  0
 47 50  2  0  0  0  0
 48 46  1  0  0  0  0
 49 50  1  0  0  0  0
 50 43  1  0  0  0  0
 51 46  1  6  0  0  0
 51 52  1  0  0  0  0
 53 55  1  0  0  0  0
 53 51  1  0  0  0  0
 54 52  1  0  0  0  0
 54 56  1  1  0  0  0
 55 54  1  0  0  0  0
 56 58  1  0  0  0  0
 58 57  1  0  0  0  0
 59 60  1  0  0  0  0
 59 44  1  0  0  0  0
 60 61  1  1  0  0  0
 60 63  1  0  0  0  0
 63 62  2  0  0  0  0
 64 63  1  0  0  0  0
 65 64  1  0  0  0  0
M  END
>  <MODEL>
8

>  <REMARK>
 VINA RESULT:      -3.2      3.461      9.825
  Name = 
  29 active torsions:
  status: ('A' for Active; 'I' for Inactive)
    1  A    between atoms: O_2  and  C_61
    2  A    between atoms: O_3  and  C_28
    3  A    between atoms: C_4  and  C_14
    4  A    between atoms: C_4  and  C_46
    5  A    between atoms: C_5  and  N_38
    6  A    between atoms: C_5  and  C_57
    7  A    between atoms: C_7  and  CA_16
    8  A    between atoms: C_7  and  N_38
    9  A    between atoms: C_7  and  C_62
   10  A    between atoms: C_10  and  C_42
   11  A    between atoms: C_10  and  C_44
   12  A    between atoms: C_10  and  N_58
   13  A    between atoms: C_11  and  C_30
   14  A    between atoms: CA_16  and  C_17
   15  A    between atoms: P_19  and  C_50
   16  A    between atoms: O_22  and  C_59
   17  A    between atoms: C_25  and  C_33
   18  A    between atoms: C_25  and  C_49
   19  A    between atoms: C_28  and  C_40
   20  A    between atoms: C_28  and  C_43
   21  A    between atoms: C_33  and  C_50
   22  A    between atoms: C_34  and  C_59
   23  A    between atoms: C_39  and  C_62
   24  A    between atoms: C_40  and  C_52
   25  A    between atoms: C_41  and  C_44
   26  A    between atoms: C_41  and  N_51
   27  A    between atoms: C_46  and  C_61
   28  A    between atoms: C_52  and  C_57
   29  A    between atoms: C_63  and  C_65
                            x       y       z     vdW  Elec       q    Type
                         _______ _______ _______ _____ _____    ______ ____

>  <TORSDO>
F 29

$$$$
=
 OpenBabel10232410503D

 65 68  0  0  1  0  0  0  0  0999 V2000
  189.8490  176.6670  138.2760 C   0  0  1  0  0  3  0  0  0  0  0  0
  193.7170  173.0420  136.4230 N   0  0  0  0  0  0  0  0  0  0  0  0
  192.3540  175.9760  138.2070 C   0  0  0  0  0  0  0  0  0  0  0  0
  192.7770  177.2770  138.8930 C   0  0  0  0  0  1  0  0  0  0  0  0
  192.9670  173.9810  137.0180 C   0  0  0  0  0  0  0  0  0  0  0  0
  190.6820  174.5650  137.1340 C   0  0  0  0  0  3  0  0  0  0  0  0
  193.3590  175.0940  137.7810 C   0  0  0  0  0  3  0  0  0  0  0  0
  191.7060  173.7570  136.7630 C   0  0  0  0  0  0  0  0  0  0  0  0
  190.9650  175.6830  137.9260 C   0  0  0  0  0  0  0  0  0  0  0  0
  192.7910  172.2750  135.7870 C   0  0  0  0  0  0  0  0  0  0  0  0
  191.4910  172.7620  135.9230 N   0  0  0  0  0  2  0  0  0  0  0  0
  193.1230  171.1900  134.8110 C   0  0  0  0  0  2  0  0  0  0  0  0
  194.1040  170.1030  135.2710 C   0  0  0  0  0  2  0  0  0  0  0  0
  195.6950  170.3310  135.2190 C   0  0  0  0  0  2  0  0  0  0  0  0
  195.3940  169.7400  138.1360 O   0  0  0  0  0  1  0  0  0  0  0  0
  196.4550  170.5030  137.0050 P   0  0  0  0  0  0  0  0  0  0  0  0
  196.5160  172.0010  137.3550 O   0  0  0  0  0  1  0  0  0  0  0  0
  198.0360  169.7660  137.0910 O   0  0  0  0  0  0  0  0  0  0  0  0
  188.0030  178.6790  139.7170 O   0  0  0  0  0  0  0  0  0  0  0  0
  188.8120  177.9740  140.3870 C   0  0  0  0  0  0  0  0  0  0  0  0
  189.6910  177.0210  139.7650 N   0  0  0  0  0  2  0  0  0  0  0  0
  188.8920  178.0210  141.9280 C   0  0  2  0  0  3  0  0  0  0  0  0
  187.6970  178.3000  142.5800 O   0  0  0  0  0  0  0  0  0  0  0  0
  186.9260  177.3080  142.1580 O   0  0  0  0  0  1  0  0  0  0  0  0
  190.2740  178.4170  142.5590 C   0  0  0  0  0  2  0  0  0  0  0  0
  191.1000  177.1910  143.0050 C   0  0  2  0  0  3  0  0  0  0  0  0
  191.8900  176.8520  141.7520 C   0  0  0  0  0  1  0  0  0  0  0  0
  190.2300  175.9880  143.5260 C   0  0  0  0  0  2  0  0  0  0  0  0
  190.0580  175.9000  145.0950 C   0  0  0  0  0  2  0  0  0  0  0  0
  189.2780  177.0900  145.5860 N   0  0  0  0  0  2  0  0  0  0  0  0
  188.0820  176.9070  146.3860 C   0  0  1  0  0  3  0  0  0  0  0  0
  187.9410  176.4340  148.7060 O   0  0  0  0  0  0  0  0  0  0  0  0
  188.3910  177.1390  147.7960 C   0  0  0  0  0  0  0  0  0  0  0  0
  189.5060  178.1100  148.0490 C   0  0  0  0  0  2  0  0  0  0  0  0
  189.8310  178.3400  149.4380 N   0  0  0  0  0  1  0  0  0  0  0  0
  186.9620  179.1530  146.6570 N   0  0  0  0  0  1  0  0  0  0  0  0
  187.0250  177.9280  145.8890 C   0  0  2  0  0  3  0  0  0  0  0  0
  185.5740  177.4030  145.9720 C   0  0  0  0  0  2  0  0  0  0  0  0
  184.6750  178.3950  146.3700 O   0  0  0  0  0  1  0  0  0  0  0  0
  189.5520  177.9120  137.3230 C   0  0  0  0  0  2  0  0  0  0  0  0
  189.1660  177.4870  135.8890 C   0  0  0  0  0  2  0  0  0  0  0  0
  187.7830  177.2620  135.9040 N   0  0  0  0  0  2  0  0  0  0  0  0
  187.4280  176.1990  136.6890 C   0  0  0  0  0  2  0  0  0  0  0  0
  183.9920  177.2420  137.3510 C   0  0  0  0  0  0  0  0  0  0  0  0
  184.3300  174.1070  137.6700 C   0  0  0  0  0  3  0  0  0  0  0  0
  183.1840  174.7040  137.3490 C   0  0  0  0  0  0  0  0  0  0  0  0
  185.7480  174.5300  137.3130 C   0  0  0  0  0  3  0  0  0  0  0  0
  182.8340  176.2130  137.2300 C   0  0  0  0  0  2  0  0  0  0  0  0
  185.2780  177.0500  137.1250 C   0  0  0  0  0  3  0  0  0  0  0  0
  186.1070  175.7570  136.8600 C   0  0  0  0  0  0  0  0  0  0  0  0
  181.9630  173.7100  137.1840 C   0  0  2  0  0  3  0  0  0  0  0  0
  182.5900  172.4390  136.8690 O   0  0  0  0  0  0  0  0  0  0  0  0
  181.0650  174.1360  135.9820 C   0  0  0  0  0  2  0  0  0  0  0  0
  181.7150  171.8340  135.9820 C   0  0  2  0  0  3  0  0  0  0  0  0
  180.6090  172.7960  135.4580 C   0  0  0  0  0  2  0  0  0  0  0  0
  181.2190  170.5200  136.5320 C   0  0  0  0  0  2  0  0  0  0  0  0
  180.9990  169.9080  134.4620 C   0  0  0  0  0  1  0  0  0  0  0  0
  181.5320  169.4780  135.6770 O   0  0  0  0  0  0  0  0  0  0  0  0
  183.6490  178.6390  137.7550 C   0  0  0  0  0  2  0  0  0  0  0  0
  183.2360  179.0090  139.1300 C   0  0  1  0  0  3  0  0  0  0  0  0
  184.3330  179.3620  139.8880 O   0  0  0  0  0  1  0  0  0  0  0  0
  181.1210  179.5120  140.0650 O   0  0  0  0  0  0  0  0  0  0  0  0
  182.0430  179.8700  139.2790 C   0  0  0  0  0  0  0  0  0  0  0  0
  181.8630  180.9810  138.5060 O   0  0  0  0  0  0  0  0  0  0  0  0
  181.5880  180.9530  137.1090 C   0  0  0  0  0  1  0  0  0  0  0  0
  1 40  1  6  0  0  0
  1 21  1  0  0  0  0
  2  5  1  0  0  0  0
  3  4  1  0  0  0  0
  5  7  1  0  0  0  0
  6  9  2  0  0  0  0
  7  3  2  0  0  0  0
  8  5  2  0  0  0  0
  8  6  1  0  0  0  0
  9  3  1  0  0  0  0
  9  1  1  0  0  0  0
 10 11  1  0  0  0  0
 10  2  2  0  0  0  0
 11  8  1  0  0  0  0
 12 13  1  0  0  0  0
 12 10  1  0  0  0  0
 14 13  1  0  0  0  0
 14 16  1  0  0  0  0
 16 18  2  0  0  0  0
 16 17  1  0  0  0  0
 16 15  1  0  0  0  0
 19 20  2  0  0  0  0
 20 22  1  0  0  0  0
 21 20  1  0  0  0  0
 22 25  1  6  0  0  0
 22 23  1  0  0  0  0
 24 23  1  0  0  0  0
 25 26  1  0  0  0  0
 26 27  1  6  0  0  0
 26 28  1  0  0  0  0
 28 29  1  0  0  0  0
 29 30  1  0  0  0  0
 31 30  1  6  0  0  0
 31 33  1  0  0  0  0
 33 34  1  0  0  0  0
 33 32  2  0  0  0  0
 34 35  1  0  0  0  0
 37 38  1  0  0  0  0
 37 31  1  0  0  0  0
 37 36  1  1  0  0  0
 38 39  1  0  0  0  0
 41 42  1  0  0  0  0
 41 40  1  0  0  0  0
 42 43  1  0  0  0  0
 43 50  1  0  0  0  0
 44 59  1  0  0  0  0
 46 45  2  0  0  0  0
 47 45  1  0  0  0  0
 48 46  1  0  0  0  0
 48 44  1  0  0  0  0
 49 44  2  0  0  0  0
 50 49  1  0  0  0  0
 50 47  2  0  0  0  0
 51 46  1  6  0  0  0
 52 51  1  0  0  0  0
 53 51  1  0  0  0  0
 54 56  1  1  0  0  0
 54 52  1  0  0  0  0
 55 54  1  0  0  0  0
 55 53  1  0  0  0  0
 57 58  1  0  0  0  0
 58 56  1  0  0  0  0
 59 60  1  0  0  0  0
 60 63  1  0  0  0  0
 60 61  1  6  0  0  0
 63 62  2  0  0  0  0
 64 63  1  0  0  0  0
 65 64  1  0  0  0  0
M  END
>  <MODEL>
9

>  <REMARK>
 VINA RESULT:      -3.1      3.475     11.486
  Name = 
  29 active torsions:
  status: ('A' for Active; 'I' for Inactive)
    1  A    between atoms: O_2  and  C_61
    2  A    between atoms: O_3  and  C_28
    3  A    between atoms: C_4  and  C_14
    4  A    between atoms: C_4  and  C_46
    5  A    between atoms: C_5  and  N_38
    6  A    between atoms: C_5  and  C_57
    7  A    between atoms: C_7  and  CA_16
    8  A    between atoms: C_7  and  N_38
    9  A    between atoms: C_7  and  C_62
   10  A    between atoms: C_10  and  C_42
   11  A    between atoms: C_10  and  C_44
   12  A    between atoms: C_10  and  N_58
   13  A    between atoms: C_11  and  C_30
   14  A    between atoms: CA_16  and  C_17
   15  A    between atoms: P_19  and  C_50
   16  A    between atoms: O_22  and  C_59
   17  A    between atoms: C_25  and  C_33
   18  A    between atoms: C_25  and  C_49
   19  A    between atoms: C_28  and  C_40
   20  A    between atoms: C_28  and  C_43
   21  A    between atoms: C_33  and  C_50
   22  A    between atoms: C_34  and  C_59
   23  A    between atoms: C_39  and  C_62
   24  A    between atoms: C_40  and  C_52
   25  A    between atoms: C_41  and  C_44
   26  A    between atoms: C_41  and  N_51
   27  A    between atoms: C_46  and  C_61
   28  A    between atoms: C_52  and  C_57
   29  A    between atoms: C_63  and  C_65
                            x       y       z     vdW  Elec       q    Type
                         _______ _______ _______ _____ _____    ______ ____

>  <TORSDO>
F 29

$$$$
