=
 OpenBabel10232409433D

 25 28  0  0  1  0  0  0  0  0999 V2000
  189.6610  177.5850  144.2760 C   0  0  0  0  0  0  0  0  0  0  0  0
  189.9070  177.2290  142.9410 C   0  0  0  0  0  0  0  0  0  0  0  0
  187.3650  176.5620  143.8880 C   0  0  1  0  0  3  0  0  0  0  0  0
  192.0350  178.3790  143.0160 C   0  0  0  0  0  3  0  0  0  0  0  0
  188.8960  176.4890  142.2520 N   0  0  0  0  0  2  0  0  0  0  0  0
  188.0140  175.7210  142.9540 O   0  0  0  0  0  0  0  0  0  0  0  0
  190.6330  178.2980  144.9900 C   0  0  0  0  0  3  0  0  0  0  0  0
  191.8170  178.6960  144.3590 C   0  0  0  0  0  3  0  0  0  0  0  0
  188.3680  177.1410  144.9270 C   0  0  2  0  0  3  0  0  0  0  0  0
  191.0800  177.6530  142.2980 C   0  0  0  0  0  0  0  0  0  0  0  0
  186.5300  177.5710  143.2310 N   0  0  0  0  0  0  0  0  0  0  0  0
  185.8640  179.2420  141.9130 N   0  0  0  0  0  0  0  0  0  0  0  0
  186.9070  178.4930  142.3210 C   0  0  0  0  0  3  0  0  0  0  0  0
  185.2080  177.7100  143.4170 C   0  0  0  0  0  3  0  0  0  0  0  0
  184.8170  178.7540  142.6080 C   0  0  0  0  0  0  0  0  0  0  0  0
  183.4210  179.2440  142.4530 C   0  0  0  0  0  2  0  0  0  0  0  0
  182.7750  179.2160  143.6880 O   0  0  0  0  0  1  0  0  0  0  0  0
  188.7430  177.9070  148.2420 O   0  0  0  0  0  0  0  0  0  0  0  0
  187.7360  178.2360  145.7900 C   0  0  2  0  0  3  0  0  0  0  0  0
  188.0110  177.9390  147.2660 C   0  0  0  0  0  0  0  0  0  0  0  0
  186.6650  177.7140  146.5820 C   0  0  1  0  0  3  0  0  0  0  0  0
  185.7170  178.8270  146.9790 C   0  0  0  0  0  2  0  0  0  0  0  0
  184.4120  178.4700  146.6410 O   0  0  0  0  0  1  0  0  0  0  0  0
  191.5290  177.0830  139.8050 N   0  0  0  0  0  0  0  0  0  0  0  0
  191.3290  177.3360  140.9160 C   0  0  0  0  0  0  0  0  0  0  0  0
  1  7  1  0  0  0  0
  2  1  2  0  0  0  0
  3 11  1  6  0  0  0
  3  9  1  0  0  0  0
  4  8  1  0  0  0  0
  5  2  1  0  0  0  0
  5  6  1  0  0  0  0
  6  3  1  0  0  0  0
  8  7  2  0  0  0  0
  9  1  1  6  0  0  0
  9 19  1  0  0  0  0
 10  2  1  0  0  0  0
 10  4  2  0  0  0  0
 11 14  1  0  0  0  0
 12 13  2  0  0  0  0
 12 15  1  0  0  0  0
 13 11  1  0  0  0  0
 15 14  2  0  0  0  0
 16 15  1  0  0  0  0
 16 17  1  0  0  0  0
 19 21  1  0  0  0  0
 19 20  1  1  0  0  0
 20 18  2  0  0  0  0
 21 22  1  1  0  0  0
 21 20  1  0  0  0  0
 23 22  1  0  0  0  0
 24 25  3  0  0  0  0
 25 10  1  0  0  0  0
M  END
>  <MODEL>
1

>  <REMARK>
 VINA RESULT:      -7.3      0.000      0.000
  Name = 
  5 active torsions:
  status: ('A' for Active; 'I' for Inactive)
    1  A    between atoms: C_1  and  C_25
    2  A    between atoms: C_2  and  CA_23
    3  A    between atoms: C_5  and  N_10
    4  A    between atoms: C_13  and  C_17
    5  A    between atoms: C_19  and  C_24
                            x       y       z     vdW  Elec       q    Type
                         _______ _______ _______ _____ _____    ______ ____

>  <TORSDO>
F 5

$$$$
=
 OpenBabel10232409433D

 25 28  0  0  1  0  0  0  0  0999 V2000
  189.7270  177.7210  142.3230 C   0  0  0  0  0  0  0  0  0  0  0  0
  191.0460  177.7800  141.8500 C   0  0  0  0  0  0  0  0  0  0  0  0
  190.7290  178.4550  144.5420 C   0  0  1  0  0  3  0  0  0  0  0  0
  190.3410  176.8380  139.7350 C   0  0  0  0  0  3  0  0  0  0  0  0
  192.0520  178.2650  142.7420 N   0  0  0  0  0  2  0  0  0  0  0  0
  191.7140  179.1050  143.7610 O   0  0  0  0  0  0  0  0  0  0  0  0
  188.7100  177.2640  141.4740 C   0  0  0  0  0  3  0  0  0  0  0  0
  189.0170  176.8220  140.1840 C   0  0  0  0  0  3  0  0  0  0  0  0
  189.4290  178.2050  143.7270 C   0  0  2  0  0  3  0  0  0  0  0  0
  191.3620  177.3080  140.5660 C   0  0  0  0  0  0  0  0  0  0  0  0
  191.2590  177.2630  145.2110 N   0  0  0  0  0  0  0  0  0  0  0  0
  192.0900  175.2250  145.5700 N   0  0  0  0  0  0  0  0  0  0  0  0
  191.6210  176.0910  144.6490 C   0  0  0  0  0  3  0  0  0  0  0  0
  191.5050  177.1700  146.5270 C   0  0  0  0  0  3  0  0  0  0  0  0
  192.0030  175.9020  146.7310 C   0  0  0  0  0  0  0  0  0  0  0  0
  192.4580  175.3600  148.0400 C   0  0  0  0  0  2  0  0  0  0  0  0
  193.1370  176.3510  148.7470 O   0  0  0  0  0  1  0  0  0  0  0  0
  186.0080  178.0970  143.7440 O   0  0  0  0  0  0  0  0  0  0  0  0
  188.4490  177.2930  144.4690 C   0  0  2  0  0  3  0  0  0  0  0  0
  187.0360  177.8710  144.3610 C   0  0  0  0  0  0  0  0  0  0  0  0
  187.9010  177.9490  145.6160 C   0  0  1  0  0  3  0  0  0  0  0  0
  187.4090  176.9270  146.6200 C   0  0  0  0  0  2  0  0  0  0  0  0
  188.2070  176.9740  147.7620 O   0  0  0  0  0  1  0  0  0  0  0  0
  193.8060  177.3270  139.6900 N   0  0  0  0  0  0  0  0  0  0  0  0
  192.7160  177.3180  140.0800 C   0  0  0  0  0  0  0  0  0  0  0  0
  2  1  1  0  0  0  0
  2  5  1  0  0  0  0
  3 11  1  6  0  0  0
  4  8  2  0  0  0  0
  4 10  1  0  0  0  0
  5  6  1  0  0  0  0
  6  3  1  0  0  0  0
  7  1  2  0  0  0  0
  8  7  1  0  0  0  0
  9  1  1  6  0  0  0
  9 19  1  0  0  0  0
  9  3  1  0  0  0  0
 10  2  2  0  0  0  0
 11 14  1  0  0  0  0
 12 15  1  0  0  0  0
 13 11  1  0  0  0  0
 13 12  2  0  0  0  0
 14 15  2  0  0  0  0
 15 16  1  0  0  0  0
 16 17  1  0  0  0  0
 18 20  2  0  0  0  0
 19 20  1  6  0  0  0
 19 21  1  0  0  0  0
 20 21  1  0  0  0  0
 21 22  1  1  0  0  0
 22 23  1  0  0  0  0
 24 25  3  0  0  0  0
 25 10  1  0  0  0  0
M  END
>  <MODEL>
2

>  <REMARK>
 VINA RESULT:      -6.9      2.650      5.399
  Name = 
  5 active torsions:
  status: ('A' for Active; 'I' for Inactive)
    1  A    between atoms: C_1  and  C_25
    2  A    between atoms: C_2  and  CA_23
    3  A    between atoms: C_5  and  N_10
    4  A    between atoms: C_13  and  C_17
    5  A    between atoms: C_19  and  C_24
                            x       y       z     vdW  Elec       q    Type
                         _______ _______ _______ _____ _____    ______ ____

>  <TORSDO>
F 5

$$$$
=
 OpenBabel10232409433D

 25 28  0  0  1  0  0  0  0  0999 V2000
  189.6280  177.6110  139.9450 C   0  0  0  0  0  0  0  0  0  0  0  0
  188.3760  178.2410  140.0110 C   0  0  0  0  0  0  0  0  0  0  0  0
  189.4120  177.9470  137.4340 C   0  0  1  0  0  3  0  0  0  0  0  0
  188.2600  177.7870  142.3850 C   0  0  0  0  0  3  0  0  0  0  0  0
  187.8200  178.7460  138.7940 N   0  0  0  0  0  2  0  0  0  0  0  0
  188.6390  179.0870  137.7590 O   0  0  0  0  0  0  0  0  0  0  0  0
  190.2120  177.1140  141.1180 C   0  0  0  0  0  3  0  0  0  0  0  0
  189.5280  177.2010  142.3350 C   0  0  0  0  0  3  0  0  0  0  0  0
  190.3390  177.5320  138.6110 C   0  0  2  0  0  3  0  0  0  0  0  0
  187.6740  178.3020  141.2250 C   0  0  0  0  0  0  0  0  0  0  0  0
  188.5860  176.8570  136.9050 N   0  0  0  0  0  0  0  0  0  0  0  0
  187.5530  175.4700  135.4980 N   0  0  0  0  0  0  0  0  0  0  0  0
  188.3400  176.5580  135.6130 C   0  0  0  0  0  3  0  0  0  0  0  0
  187.9560  175.9400  137.6560 C   0  0  0  0  0  3  0  0  0  0  0  0
  187.3130  175.1020  136.7720 C   0  0  0  0  0  0  0  0  0  0  0  0
  186.5170  173.9040  137.1500 C   0  0  0  0  0  2  0  0  0  0  0  0
  187.3380  172.7780  137.1570 O   0  0  0  0  0  1  0  0  0  0  0  0
  193.6110  176.5400  138.7860 O   0  0  0  0  0  0  0  0  0  0  0  0
  190.9980  176.1710  138.3740 C   0  0  2  0  0  3  0  0  0  0  0  0
  192.5150  176.3500  138.2830 C   0  0  0  0  0  0  0  0  0  0  0  0
  191.6060  176.1100  137.0800 C   0  0  1  0  0  3  0  0  0  0  0  0
  191.7470  174.6690  136.6350 C   0  0  0  0  0  2  0  0  0  0  0  0
  190.8630  173.8690  137.3590 O   0  0  0  0  0  1  0  0  0  0  0  0
  185.3190  179.3860  141.3670 N   0  0  0  0  0  0  0  0  0  0  0  0
  186.3690  178.9030  141.3030 C   0  0  0  0  0  0  0  0  0  0  0  0
  1  2  2  0  0  0  0
  1  7  1  0  0  0  0
  2 10  1  0  0  0  0
  3 11  1  1  0  0  0
  3  6  1  0  0  0  0
  3  9  1  0  0  0  0
  5  2  1  0  0  0  0
  6  5  1  0  0  0  0
  7  8  2  0  0  0  0
  8  4  1  0  0  0  0
  9  1  1  1  0  0  0
 10 25  1  0  0  0  0
 10  4  2  0  0  0  0
 11 14  1  0  0  0  0
 12 13  2  0  0  0  0
 12 15  1  0  0  0  0
 13 11  1  0  0  0  0
 15 16  1  0  0  0  0
 15 14  2  0  0  0  0
 16 17  1  0  0  0  0
 19 20  1  1  0  0  0
 19  9  1  0  0  0  0
 20 18  2  0  0  0  0
 21 22  1  1  0  0  0
 21 20  1  0  0  0  0
 21 19  1  0  0  0  0
 22 23  1  0  0  0  0
 25 24  3  0  0  0  0
M  END
>  <MODEL>
3

>  <REMARK>
 VINA RESULT:      -6.6      4.550      7.607
  Name = 
  5 active torsions:
  status: ('A' for Active; 'I' for Inactive)
    1  A    between atoms: C_1  and  C_25
    2  A    between atoms: C_2  and  CA_23
    3  A    between atoms: C_5  and  N_10
    4  A    between atoms: C_13  and  C_17
    5  A    between atoms: C_19  and  C_24
                            x       y       z     vdW  Elec       q    Type
                         _______ _______ _______ _____ _____    ______ ____

>  <TORSDO>
F 5

$$$$
=
 OpenBabel10232409433D

 25 28  0  0  1  0  0  0  0  0999 V2000
  187.4450  177.5980  145.4270 C   0  0  0  0  0  0  0  0  0  0  0  0
  188.7410  177.0660  145.5070 C   0  0  0  0  0  0  0  0  0  0  0  0
  187.4120  176.5710  143.1000 C   0  0  1  0  0  3  0  0  0  0  0  0
  189.0790  178.1820  147.6280 C   0  0  0  0  0  3  0  0  0  0  0  0
  189.1980  176.2590  144.4190 N   0  0  0  0  0  2  0  0  0  0  0  0
  188.2990  175.6040  143.6300 O   0  0  0  0  0  0  0  0  0  0  0  0
  186.9560  178.3830  146.4790 C   0  0  0  0  0  3  0  0  0  0  0  0
  187.7720  178.6750  147.5760 C   0  0  0  0  0  3  0  0  0  0  0  0
  186.5890  177.2650  144.2230 C   0  0  2  0  0  3  0  0  0  0  0  0
  189.5730  177.3830  146.5920 C   0  0  0  0  0  0  0  0  0  0  0  0
  188.0910  177.4980  142.1900 N   0  0  0  0  0  0  0  0  0  0  0  0
  189.3120  179.1940  141.4130 N   0  0  0  0  0  0  0  0  0  0  0  0
  188.8110  178.5930  142.5100 C   0  0  0  0  0  3  0  0  0  0  0  0
  188.1280  177.3700  140.8550 C   0  0  0  0  0  3  0  0  0  0  0  0
  188.8720  178.4320  140.3920 C   0  0  0  0  0  0  0  0  0  0  0  0
  189.2170  178.6820  138.9670 C   0  0  0  0  0  2  0  0  0  0  0  0
  188.0490  178.8580  138.2260 O   0  0  0  0  0  1  0  0  0  0  0  0
  183.5770  178.5890  145.1650 O   0  0  0  0  0  0  0  0  0  0  0  0
  185.8080  178.4730  143.7020 C   0  0  2  0  0  3  0  0  0  0  0  0
  184.3850  178.4380  144.2630 C   0  0  0  0  0  0  0  0  0  0  0  0
  184.7510  178.0670  142.8280 C   0  0  1  0  0  3  0  0  0  0  0  0
  184.3620  179.2060  141.9090 C   0  0  0  0  0  2  0  0  0  0  0  0
  185.4720  179.6000  141.1610 O   0  0  0  0  0  1  0  0  0  0  0  0
  192.0040  176.4820  146.7340 N   0  0  0  0  0  0  0  0  0  0  0  0
  190.9200  176.8830  146.6700 C   0  0  0  0  0  0  0  0  0  0  0  0
  1  2  2  0  0  0  0
  1  7  1  0  0  0  0
  2 10  1  0  0  0  0
  3 11  1  1  0  0  0
  3  6  1  0  0  0  0
  3  9  1  0  0  0  0
  5  2  1  0  0  0  0
  6  5  1  0  0  0  0
  7  8  2  0  0  0  0
  8  4  1  0  0  0  0
  9  1  1  1  0  0  0
 10 25  1  0  0  0  0
 10  4  2  0  0  0  0
 11 13  1  0  0  0  0
 12 13  2  0  0  0  0
 14 11  1  0  0  0  0
 15 14  2  0  0  0  0
 15 12  1  0  0  0  0
 16 15  1  0  0  0  0
 17 16  1  0  0  0  0
 19  9  1  0  0  0  0
 19 20  1  1  0  0  0
 20 18  2  0  0  0  0
 21 22  1  6  0  0  0
 21 19  1  0  0  0  0
 21 20  1  0  0  0  0
 23 22  1  0  0  0  0
 25 24  3  0  0  0  0
M  END
>  <MODEL>
4

>  <REMARK>
 VINA RESULT:      -6.6      2.346      4.491
  Name = 
  5 active torsions:
  status: ('A' for Active; 'I' for Inactive)
    1  A    between atoms: C_1  and  C_25
    2  A    between atoms: C_2  and  CA_23
    3  A    between atoms: C_5  and  N_10
    4  A    between atoms: C_13  and  C_17
    5  A    between atoms: C_19  and  C_24
                            x       y       z     vdW  Elec       q    Type
                         _______ _______ _______ _____ _____    ______ ____

>  <TORSDO>
F 5

$$$$
=
 OpenBabel10232409433D

 25 28  0  0  1  0  0  0  0  0999 V2000
  190.0230  177.2600  143.9000 C   0  0  0  0  0  0  0  0  0  0  0  0
  189.8670  177.0030  142.5300 C   0  0  0  0  0  0  0  0  0  0  0  0
  187.6500  176.3680  144.1060 C   0  0  1  0  0  3  0  0  0  0  0  0
  191.9990  178.0550  142.0790 C   0  0  0  0  0  3  0  0  0  0  0  0
  188.6600  176.3640  142.1050 N   0  0  0  0  0  2  0  0  0  0  0  0
  187.9610  175.5790  142.9740 O   0  0  0  0  0  0  0  0  0  0  0  0
  191.1970  177.8730  144.3570 C   0  0  0  0  0  3  0  0  0  0  0  0
  192.1820  178.2710  143.4480 C   0  0  0  0  0  3  0  0  0  0  0  0
  188.9350  176.8190  144.8570 C   0  0  2  0  0  3  0  0  0  0  0  0
  190.8400  177.4290  141.6120 C   0  0  0  0  0  0  0  0  0  0  0  0
  186.7290  177.4600  143.7780 N   0  0  0  0  0  0  0  0  0  0  0  0
  185.6990  179.1100  142.6880 N   0  0  0  0  0  0  0  0  0  0  0  0
  186.7010  178.2090  142.6560 C   0  0  0  0  0  3  0  0  0  0  0  0
  185.7180  177.8690  144.5590 C   0  0  0  0  0  3  0  0  0  0  0  0
  185.1030  178.8960  143.8770 C   0  0  0  0  0  0  0  0  0  0  0  0
  183.8970  179.6330  144.3420 C   0  0  0  0  0  2  0  0  0  0  0  0
  183.4910  179.1360  145.5790 O   0  0  0  0  0  1  0  0  0  0  0  0
  190.4810  177.5090  147.8320 O   0  0  0  0  0  0  0  0  0  0  0  0
  188.6370  177.8660  145.9330 C   0  0  2  0  0  3  0  0  0  0  0  0
  189.4410  177.5400  147.1940 C   0  0  0  0  0  0  0  0  0  0  0  0
  187.9440  177.2830  147.0410 C   0  0  1  0  0  3  0  0  0  0  0  0
  187.1800  178.3480  147.8000 C   0  0  0  0  0  2  0  0  0  0  0  0
  187.6120  178.3760  149.1260 O   0  0  0  0  0  1  0  0  0  0  0  0
  190.5450  177.0410  139.0620 N   0  0  0  0  0  0  0  0  0  0  0  0
  190.6760  177.2140  140.1980 C   0  0  0  0  0  0  0  0  0  0  0  0
  1  7  1  0  0  0  0
  2  1  2  0  0  0  0
  3 11  1  6  0  0  0
  3  9  1  0  0  0  0
  4  8  1  0  0  0  0
  5  2  1  0  0  0  0
  5  6  1  0  0  0  0
  6  3  1  0  0  0  0
  8  7  2  0  0  0  0
  9  1  1  6  0  0  0
  9 19  1  0  0  0  0
 10  4  2  0  0  0  0
 10  2  1  0  0  0  0
 11 14  1  0  0  0  0
 12 15  1  0  0  0  0
 13 12  2  0  0  0  0
 13 11  1  0  0  0  0
 15 16  1  0  0  0  0
 15 14  2  0  0  0  0
 16 17  1  0  0  0  0
 19 21  1  0  0  0  0
 19 20  1  1  0  0  0
 20 18  2  0  0  0  0
 21 20  1  0  0  0  0
 21 22  1  1  0  0  0
 22 23  1  0  0  0  0
 24 25  3  0  0  0  0
 25 10  1  0  0  0  0
M  END
>  <MODEL>
5

>  <REMARK>
 VINA RESULT:      -6.3      1.098      1.386
  Name = 
  5 active torsions:
  status: ('A' for Active; 'I' for Inactive)
    1  A    between atoms: C_1  and  C_25
    2  A    between atoms: C_2  and  CA_23
    3  A    between atoms: C_5  and  N_10
    4  A    between atoms: C_13  and  C_17
    5  A    between atoms: C_19  and  C_24
                            x       y       z     vdW  Elec       q    Type
                         _______ _______ _______ _____ _____    ______ ____

>  <TORSDO>
F 5

$$$$
=
 OpenBabel10232409433D

 25 28  0  0  1  0  0  0  0  0999 V2000
  188.7530  177.9640  139.9520 C   0  0  0  0  0  0  0  0  0  0  0  0
  187.4530  178.4130  139.6740 C   0  0  0  0  0  0  0  0  0  0  0  0
  189.0460  177.9570  137.4260 C   0  0  1  0  0  3  0  0  0  0  0  0
  186.8810  178.2400  142.0190 C   0  0  0  0  0  3  0  0  0  0  0  0
  187.1180  178.6820  138.3100 N   0  0  0  0  0  2  0  0  0  0  0  0
  188.0980  179.0070  137.4180 O   0  0  0  0  0  0  0  0  0  0  0  0
  189.1230  177.7020  141.2770 C   0  0  0  0  0  3  0  0  0  0  0  0
  188.1880  177.8380  142.3080 C   0  0  0  0  0  3  0  0  0  0  0  0
  189.7400  177.8250  138.8110 C   0  0  2  0  0  3  0  0  0  0  0  0
  186.5040  178.5210  140.7030 C   0  0  0  0  0  0  0  0  0  0  0  0
  188.4830  176.7050  136.9120 N   0  0  0  0  0  0  0  0  0  0  0  0
  187.4030  174.7590  136.7880 N   0  0  0  0  0  0  0  0  0  0  0  0
  187.7870  175.7710  137.5910 C   0  0  0  0  0  3  0  0  0  0  0  0
  188.5490  176.3040  135.6320 C   0  0  0  0  0  3  0  0  0  0  0  0
  187.8910  175.0960  135.5780 C   0  0  0  0  0  0  0  0  0  0  0  0
  187.6730  174.2920  134.3460 C   0  0  0  0  0  2  0  0  0  0  0  0
  187.0290  173.1000  134.6720 O   0  0  0  0  0  1  0  0  0  0  0  0
  192.8900  177.2930  140.0400 O   0  0  0  0  0  0  0  0  0  0  0  0
  190.5840  176.5520  138.9150 C   0  0  2  0  0  3  0  0  0  0  0  0
  192.0270  176.9280  139.2580 C   0  0  0  0  0  0  0  0  0  0  0  0
  191.5600  176.4950  137.8700 C   0  0  1  0  0  3  0  0  0  0  0  0
  191.9870  175.0620  137.6310 C   0  0  0  0  0  2  0  0  0  0  0  0
  190.8770  174.2230  137.7210 O   0  0  0  0  0  1  0  0  0  0  0  0
  184.0670  179.2690  140.2110 N   0  0  0  0  0  0  0  0  0  0  0  0
  185.1530  178.9360  140.4310 C   0  0  0  0  0  0  0  0  0  0  0  0
  1  7  1  0  0  0  0
  2  1  2  0  0  0  0
  2 10  1  0  0  0  0
  3 11  1  1  0  0  0
  3  9  1  0  0  0  0
  4  8  1  0  0  0  0
  5  2  1  0  0  0  0
  6  3  1  0  0  0  0
  6  5  1  0  0  0  0
  7  8  2  0  0  0  0
  9 19  1  0  0  0  0
  9  1  1  1  0  0  0
 10  4  2  0  0  0  0
 11 13  1  0  0  0  0
 12 13  2  0  0  0  0
 14 11  1  0  0  0  0
 15 14  2  0  0  0  0
 15 12  1  0  0  0  0
 16 17  1  0  0  0  0
 16 15  1  0  0  0  0
 19 20  1  1  0  0  0
 20 18  2  0  0  0  0
 21 22  1  1  0  0  0
 21 19  1  0  0  0  0
 21 20  1  0  0  0  0
 22 23  1  0  0  0  0
 24 25  3  0  0  0  0
 25 10  1  0  0  0  0
M  END
>  <MODEL>
6

>  <REMARK>
 VINA RESULT:      -6.0      4.588      7.740
  Name = 
  5 active torsions:
  status: ('A' for Active; 'I' for Inactive)
    1  A    between atoms: C_1  and  C_25
    2  A    between atoms: C_2  and  CA_23
    3  A    between atoms: C_5  and  N_10
    4  A    between atoms: C_13  and  C_17
    5  A    between atoms: C_19  and  C_24
                            x       y       z     vdW  Elec       q    Type
                         _______ _______ _______ _____ _____    ______ ____

>  <TORSDO>
F 5

$$$$
=
 OpenBabel10232409433D

 25 28  0  0  1  0  0  0  0  0999 V2000
  183.7830  178.2310  141.1010 C   0  0  0  0  0  0  0  0  0  0  0  0
  184.4900  178.1420  139.8930 C   0  0  0  0  0  0  0  0  0  0  0  0
  185.8790  179.3670  141.9840 C   0  0  1  0  0  3  0  0  0  0  0  0
  182.7090  176.8140  138.9340 C   0  0  0  0  0  3  0  0  0  0  0  0
  185.7760  178.7640  139.8280 N   0  0  0  0  0  2  0  0  0  0  0  0
  186.0730  179.8070  140.6540 O   0  0  0  0  0  0  0  0  0  0  0  0
  182.5130  177.6460  141.2010 C   0  0  0  0  0  3  0  0  0  0  0  0
  181.9790  176.9380  140.1200 C   0  0  0  0  0  3  0  0  0  0  0  0
  184.3920  179.0020  142.2530 C   0  0  2  0  0  3  0  0  0  0  0  0
  183.9700  177.4070  138.8170 C   0  0  0  0  0  0  0  0  0  0  0  0
  186.8330  178.3180  142.3600 N   0  0  0  0  0  0  0  0  0  0  0  0
  187.7390  176.5170  143.3110 N   0  0  0  0  0  0  0  0  0  0  0  0
  186.6500  177.3070  143.2320 C   0  0  0  0  0  3  0  0  0  0  0  0
  188.0660  178.1850  141.8450 C   0  0  0  0  0  3  0  0  0  0  0  0
  188.6140  177.0780  142.4530 C   0  0  0  0  0  0  0  0  0  0  0  0
  189.9610  176.5190  142.1630 C   0  0  0  0  0  2  0  0  0  0  0  0
  190.1040  175.2870  142.8000 O   0  0  0  0  0  1  0  0  0  0  0  0
  181.6800  178.7740  144.3290 O   0  0  0  0  0  0  0  0  0  0  0  0
  184.2040  178.2980  143.5990 C   0  0  2  0  0  3  0  0  0  0  0  0
  182.8970  178.7690  144.2400 C   0  0  0  0  0  0  0  0  0  0  0  0
  184.2840  179.2280  144.6830 C   0  0  1  0  0  3  0  0  0  0  0  0
  184.6560  178.5100  145.9640 C   0  0  0  0  0  2  0  0  0  0  0  0
  185.3830  179.3700  146.7860 O   0  0  0  0  0  1  0  0  0  0  0  0
  185.2880  177.1570  136.5950 N   0  0  0  0  0  0  0  0  0  0  0  0
  184.7010  177.2670  137.5850 C   0  0  0  0  0  0  0  0  0  0  0  0
  1  7  1  0  0  0  0
  2  1  2  0  0  0  0
  3  9  1  0  0  0  0
  3 11  1  6  0  0  0
  4  8  1  0  0  0  0
  5  2  1  0  0  0  0
  5  6  1  0  0  0  0
  6  3  1  0  0  0  0
  8  7  2  0  0  0  0
  9  1  1  6  0  0  0
  9 19  1  0  0  0  0
 10  4  2  0  0  0  0
 10  2  1  0  0  0  0
 11 13  1  0  0  0  0
 13 12  2  0  0  0  0
 14 11  1  0  0  0  0
 14 15  2  0  0  0  0
 15 12  1  0  0  0  0
 16 15  1  0  0  0  0
 16 17  1  0  0  0  0
 19 20  1  6  0  0  0
 19 21  1  0  0  0  0
 20 18  2  0  0  0  0
 20 21  1  0  0  0  0
 21 22  1  1  0  0  0
 22 23  1  0  0  0  0
 24 25  3  0  0  0  0
 25 10  1  0  0  0  0
M  END
>  <MODEL>
7

>  <REMARK>
 VINA RESULT:      -6.0      2.701      6.141
  Name = 
  5 active torsions:
  status: ('A' for Active; 'I' for Inactive)
    1  A    between atoms: C_1  and  C_25
    2  A    between atoms: C_2  and  CA_23
    3  A    between atoms: C_5  and  N_10
    4  A    between atoms: C_13  and  C_17
    5  A    between atoms: C_19  and  C_24
                            x       y       z     vdW  Elec       q    Type
                         _______ _______ _______ _____ _____    ______ ____

>  <TORSDO>
F 5

$$$$
=
 OpenBabel10232409433D

 25 28  0  0  1  0  0  0  0  0999 V2000
  190.1960  176.5540  138.7190 C   0  0  0  0  0  0  0  0  0  0  0  0
  191.5170  176.0850  138.6720 C   0  0  0  0  0  0  0  0  0  0  0  0
  191.0010  177.9450  140.6910 C   0  0  1  0  0  3  0  0  0  0  0  0
  190.9010  174.4910  136.9580 C   0  0  0  0  0  3  0  0  0  0  0  0
  192.4640  176.6670  139.5720 N   0  0  0  0  0  2  0  0  0  0  0  0
  192.2630  177.9270  140.0530 O   0  0  0  0  0  0  0  0  0  0  0  0
  189.2420  176.0180  137.8440 C   0  0  0  0  0  3  0  0  0  0  0  0
  189.5950  174.9880  136.9670 C   0  0  0  0  0  3  0  0  0  0  0  0
  189.8480  177.6690  139.6840 C   0  0  2  0  0  3  0  0  0  0  0  0
  191.8670  175.0300  137.8140 C   0  0  0  0  0  0  0  0  0  0  0  0
  190.9770  177.0900  141.8820 N   0  0  0  0  0  0  0  0  0  0  0  0
  190.5980  175.3740  143.2540 N   0  0  0  0  0  0  0  0  0  0  0  0
  190.3970  175.8810  142.0210 C   0  0  0  0  0  3  0  0  0  0  0  0
  191.5820  177.3810  143.0450 C   0  0  0  0  0  3  0  0  0  0  0  0
  191.3250  176.3190  143.8830 C   0  0  0  0  0  0  0  0  0  0  0  0
  191.8350  176.1800  145.2730 C   0  0  0  0  0  2  0  0  0  0  0  0
  191.7420  177.4060  145.9300 O   0  0  0  0  0  1  0  0  0  0  0  0
  186.6760  178.6800  138.8910 O   0  0  0  0  0  0  0  0  0  0  0  0
  188.5090  177.4420  140.3880 C   0  0  2  0  0  3  0  0  0  0  0  0
  187.4520  178.3670  139.7790 C   0  0  0  0  0  0  0  0  0  0  0  0
  188.1160  178.5980  141.1340 C   0  0  1  0  0  3  0  0  0  0  0  0
  187.1460  178.2090  142.2310 C   0  0  0  0  0  2  0  0  0  0  0  0
  187.8580  177.8600  143.3790 O   0  0  0  0  0  1  0  0  0  0  0  0
  194.2830  174.0840  137.7600 N   0  0  0  0  0  0  0  0  0  0  0  0
  193.2060  174.5050  137.7840 C   0  0  0  0  0  0  0  0  0  0  0  0
  2  1  1  0  0  0  0
  2  5  1  0  0  0  0
  3 11  1  1  0  0  0
  4  8  2  0  0  0  0
  4 10  1  0  0  0  0
  5  6  1  0  0  0  0
  6  3  1  0  0  0  0
  7  1  2  0  0  0  0
  8  7  1  0  0  0  0
  9  1  1  1  0  0  0
  9 19  1  0  0  0  0
  9  3  1  0  0  0  0
 10  2  2  0  0  0  0
 11 13  1  0  0  0  0
 11 14  1  0  0  0  0
 12 15  1  0  0  0  0
 13 12  2  0  0  0  0
 14 15  2  0  0  0  0
 15 16  1  0  0  0  0
 16 17  1  0  0  0  0
 18 20  2  0  0  0  0
 19 20  1  6  0  0  0
 19 21  1  0  0  0  0
 20 21  1  0  0  0  0
 21 22  1  1  0  0  0
 22 23  1  0  0  0  0
 24 25  3  0  0  0  0
 25 10  1  0  0  0  0
M  END
>  <MODEL>
8

>  <REMARK>
 VINA RESULT:      -5.6      3.274      6.396
  Name = 
  5 active torsions:
  status: ('A' for Active; 'I' for Inactive)
    1  A    between atoms: C_1  and  C_25
    2  A    between atoms: C_2  and  CA_23
    3  A    between atoms: C_5  and  N_10
    4  A    between atoms: C_13  and  C_17
    5  A    between atoms: C_19  and  C_24
                            x       y       z     vdW  Elec       q    Type
                         _______ _______ _______ _____ _____    ______ ____

>  <TORSDO>
F 5

$$$$
=
 OpenBabel10232409433D

 25 28  0  0  1  0  0  0  0  0999 V2000
  186.6190  178.1120  142.8140 C   0  0  0  0  0  0  0  0  0  0  0  0
  186.8330  177.6740  144.1300 C   0  0  0  0  0  0  0  0  0  0  0  0
  188.4750  176.4810  142.2100 C   0  0  1  0  0  3  0  0  0  0  0  0
  185.2850  179.3440  144.9490 C   0  0  0  0  0  3  0  0  0  0  0  0
  187.7730  176.6150  144.3350 N   0  0  0  0  0  2  0  0  0  0  0  0
  188.0380  175.7340  143.3290 O   0  0  0  0  0  0  0  0  0  0  0  0
  185.6960  179.1380  142.5710 C   0  0  0  0  0  3  0  0  0  0  0  0
  185.0320  179.7530  143.6370 C   0  0  0  0  0  3  0  0  0  0  0  0
  187.3570  177.4260  141.6840 C   0  0  2  0  0  3  0  0  0  0  0  0
  186.1910  178.3100  145.2040 C   0  0  0  0  0  0  0  0  0  0  0  0
  189.7570  177.1470  142.4620 N   0  0  0  0  0  0  0  0  0  0  0  0
  191.8620  177.8470  142.2420 N   0  0  0  0  0  0  0  0  0  0  0  0
  190.8810  177.0850  141.7200 C   0  0  0  0  0  3  0  0  0  0  0  0
  190.0000  177.9760  143.4890 C   0  0  0  0  0  3  0  0  0  0  0  0
  191.3060  178.3870  143.3450 C   0  0  0  0  0  0  0  0  0  0  0  0
  192.0060  179.3520  144.2350 C   0  0  0  0  0  2  0  0  0  0  0  0
  191.1700  180.4350  144.5000 O   0  0  0  0  0  1  0  0  0  0  0  0
  185.8970  178.7360  138.8790 O   0  0  0  0  0  0  0  0  0  0  0  0
  187.8810  178.4120  140.6370 C   0  0  2  0  0  3  0  0  0  0  0  0
  186.9380  178.4210  139.4320 C   0  0  0  0  0  0  0  0  0  0  0  0
  188.3000  177.7310  139.4510 C   0  0  1  0  0  3  0  0  0  0  0  0
  189.2930  178.5790  138.6830 C   0  0  0  0  0  2  0  0  0  0  0  0
  188.6420  179.2200  137.6300 O   0  0  0  0  0  1  0  0  0  0  0  0
  186.6250  177.5790  147.6570 N   0  0  0  0  0  0  0  0  0  0  0  0
  186.4320  177.9040  146.5630 C   0  0  0  0  0  0  0  0  0  0  0  0
  1  2  1  0  0  0  0
  2  5  1  0  0  0  0
  2 10  2  0  0  0  0
  3 11  1  1  0  0  0
  3  6  1  0  0  0  0
  4 10  1  0  0  0  0
  6  5  1  0  0  0  0
  7  1  2  0  0  0  0
  7  8  1  0  0  0  0
  8  4  2  0  0  0  0
  9  3  1  0  0  0  0
  9  1  1  1  0  0  0
 10 25  1  0  0  0  0
 11 14  1  0  0  0  0
 12 15  1  0  0  0  0
 13 12  2  0  0  0  0
 13 11  1  0  0  0  0
 15 14  2  0  0  0  0
 15 16  1  0  0  0  0
 16 17  1  0  0  0  0
 18 20  2  0  0  0  0
 19 20  1  6  0  0  0
 19  9  1  0  0  0  0
 20 21  1  0  0  0  0
 21 22  1  6  0  0  0
 21 19  1  0  0  0  0
 23 22  1  0  0  0  0
 25 24  3  0  0  0  0
M  END
>  <MODEL>
9

>  <REMARK>
 VINA RESULT:      -5.6      2.699      6.485
  Name = 
  5 active torsions:
  status: ('A' for Active; 'I' for Inactive)
    1  A    between atoms: C_1  and  C_25
    2  A    between atoms: C_2  and  CA_23
    3  A    between atoms: C_5  and  N_10
    4  A    between atoms: C_13  and  C_17
    5  A    between atoms: C_19  and  C_24
                            x       y       z     vdW  Elec       q    Type
                         _______ _______ _______ _____ _____    ______ ____

>  <TORSDO>
F 5

$$$$
