=
 OpenBabel10232410403D

 48 51  0  0  1  0  0  0  0  0999 V2000
  189.3490  177.1810  136.7380 C   0  0  0  0  0  0  0  0  0  0  0  0
  187.4810  177.7390  138.7400 C   0  0  0  0  0  3  0  0  0  0  0  0
  188.8110  177.4600  139.0970 C   0  0  0  0  0  0  0  0  0  0  0  0
  187.0880  177.7420  137.3980 C   0  0  0  0  0  0  0  0  0  0  0  0
  188.0200  177.4530  136.3990 C   0  0  0  0  0  3  0  0  0  0  0  0
  189.7410  177.1860  138.0820 C   0  0  0  0  0  3  0  0  0  0  0  0
  189.2210  177.4510  140.5230 C   0  0  0  0  0  0  0  0  0  0  0  0
  189.9770  177.4110  143.2450 C   0  0  0  0  0  0  0  0  0  0  0  0
  188.6150  178.3150  141.4450 C   0  0  0  0  0  3  0  0  0  0  0  0
  190.2170  176.5720  140.9740 C   0  0  0  0  0  3  0  0  0  0  0  0
  188.9910  178.2970  142.7900 C   0  0  0  0  0  3  0  0  0  0  0  0
  190.5920  176.5560  142.3200 C   0  0  0  0  0  3  0  0  0  0  0  0
  190.3750  177.4310  144.6730 C   0  0  0  0  0  0  0  0  0  0  0  0
  191.6020  177.3390  144.9530 O   0  0  0  0  0  0  0  0  0  0  0  0
  189.4060  177.5550  145.7880 C   0  0  0  0  0  0  0  0  0  0  0  0
  188.0290  177.5080  145.5180 C   0  0  0  0  0  3  0  0  0  0  0  0
  189.8290  177.6800  147.1210 C   0  0  0  0  0  3  0  0  0  0  0  0
  188.8980  177.7730  148.1600 C   0  0  0  0  0  3  0  0  0  0  0  0
  187.5310  177.7340  147.8750 C   0  0  0  0  0  3  0  0  0  0  0  0
  187.0960  177.5990  146.5550 C   0  0  0  0  0  3  0  0  0  0  0  0
  185.6690  178.0080  137.0400 C   0  0  0  0  0  2  0  0  0  0  0  0
  184.9710  178.5670  138.1850 N   0  0  0  0  0  2  0  0  0  0  0  0
  183.7790  177.7640  138.3930 C   0  0  1  0  0  3  0  0  0  0  0  0
  183.9380  176.5260  137.7970 F   0  0  0  0  0  0  0  0  0  0  0  0
  182.6890  176.7520  140.2480 O   0  0  0  0  0  0  0  0  0  0  0  0
  183.5360  177.5970  139.8540 C   0  0  0  0  0  0  0  0  0  0  0  0
  184.2340  178.4190  140.7920 N   0  0  0  0  0  2  0  0  0  0  0  0
  182.7620  179.0220  142.6410 C   0  0  0  0  0  2  0  0  0  0  0  0
  185.2680  178.8710  142.9710 C   0  0  0  0  0  2  0  0  0  0  0  0
  183.7570  178.7000  144.9870 C   0  0  0  0  0  2  0  0  0  0  0  0
  182.4840  178.8570  144.1420 C   0  0  0  0  0  2  0  0  0  0  0  0
  184.0450  178.3030  142.2300 C   0  0  0  0  0  3  0  0  0  0  0  0
  184.9310  179.4390  144.3570 C   0  0  0  0  0  2  0  0  0  0  0  0
  190.3380  176.8750  135.6680 C   0  0  0  0  0  2  0  0  0  0  0  0
  190.5260  175.3760  135.5390 C   0  0  0  0  0  2  0  0  0  0  0  0
  192.4200  174.3450  136.8410 C   0  0  0  0  0  0  0  0  0  0  0  0
  191.9320  175.0470  135.6990 N   0  0  0  0  0  2  0  0  0  0  0  0
  191.6380  174.0310  137.7790 O   0  0  0  0  0  0  0  0  0  0  0  0
  194.5730  174.3030  135.6070 C   0  0  0  0  0  1  0  0  0  0  0  0
  193.8750  174.0140  136.9250 C   0  0  1  0  0  3  0  0  0  0  0  0
  194.2900  175.8860  138.3170 O   0  0  0  0  0  0  0  0  0  0  0  0
  194.5460  174.7190  138.0660 C   0  0  0  0  0  0  0  0  0  0  0  0
  195.5510  173.9830  138.8890 C   0  0  0  0  0  2  0  0  0  0  0  0
  196.6840  174.8470  139.1800 N   0  0  0  0  0  2  0  0  0  0  0  0
  197.7390  173.1800  137.3720 O   0  0  0  0  0  1  0  0  0  0  0  0
  199.4400  174.7560  138.5880 O   0  0  0  0  0  1  0  0  0  0  0  0
  197.6710  175.7020  136.6960 O   0  0  0  0  0  0  0  0  0  0  0  0
  197.8890  174.5740  137.9350 P   0  0  0  0  0  0  0  0  0  0  0  0
  1  6  1  0  0  0  0
  2  3  1  0  0  0  0
  3  7  1  0  0  0  0
  4  2  2  0  0  0  0
  5  1  2  0  0  0  0
  5  4  1  0  0  0  0
  6  3  2  0  0  0  0
  7 10  2  0  0  0  0
  7  9  1  0  0  0  0
  8 13  1  0  0  0  0
  9 11  2  0  0  0  0
 10 12  1  0  0  0  0
 11  8  1  0  0  0  0
 12  8  2  0  0  0  0
 13 14  2  0  0  0  0
 13 15  1  0  0  0  0
 15 17  1  0  0  0  0
 16 15  2  0  0  0  0
 16 20  1  0  0  0  0
 17 18  2  0  0  0  0
 19 18  1  0  0  0  0
 20 19  2  0  0  0  0
 21  4  1  0  0  0  0
 21 22  1  0  0  0  0
 22 23  1  0  0  0  0
 23 24  1  6  0  0  0
 23 26  1  0  0  0  0
 26 25  2  0  0  0  0
 26 27  1  0  0  0  0
 27 32  1  0  0  0  0
 28 31  1  0  0  0  0
 29 33  1  0  0  0  0
 31 30  1  0  0  0  0
 32 28  1  0  0  0  0
 32 29  1  0  0  0  0
 33 30  1  0  0  0  0
 34  1  1  0  0  0  0
 35 34  1  0  0  0  0
 35 37  1  0  0  0  0
 36 40  1  0  0  0  0
 36 38  2  0  0  0  0
 37 36  1  0  0  0  0
 40 39  1  6  0  0  0
 40 42  1  0  0  0  0
 42 41  2  0  0  0  0
 42 43  1  0  0  0  0
 43 44  1  0  0  0  0
 45 48  1  0  0  0  0
 47 48  2  0  0  0  0
 48 46  1  0  0  0  0
 48 44  1  0  0  0  0
M  END
>  <MODEL>
1

>  <REMARK>
 VINA RESULT:      -8.9      0.000      0.000
  Name = 
  16 active torsions:
  status: ('A' for Active; 'I' for Inactive)
    1  A    between atoms: N_1  and  C_8
    2  A    between atoms: N_1  and  C_16
    3  A    between atoms: C_2  and  C_30
    4  A    between atoms: C_3  and  C_31
    5  A    between atoms: C_5  and  C_6
    6  A    between atoms: C_6  and  C_25
    7  A    between atoms: C_8  and  C_43
    8  A    between atoms: C_9  and  C_13
    9  A    between atoms: C_13  and  C_22
   10  A    between atoms: C_16  and  C_32
   11  A    between atoms: N_19  and  C_22
   12  A    between atoms: C_28  and  C_35
   13  A    between atoms: C_28  and  N_41
   14  A    between atoms: C_30  and  C_35
   15  A    between atoms: C_33  and  N_48
   16  A    between atoms: P_39  and  N_41
                            x       y       z     vdW  Elec       q    Type
                         _______ _______ _______ _____ _____    ______ ____

>  <TORSDO>
F 16

$$$$
=
 OpenBabel10232410403D

 48 51  0  0  1  0  0  0  0  0999 V2000
  191.1320  176.5470  137.7410 C   0  0  0  0  0  0  0  0  0  0  0  0
  188.9210  177.2590  139.2960 C   0  0  0  0  0  3  0  0  0  0  0  0
  190.1360  176.9430  139.9280 C   0  0  0  0  0  0  0  0  0  0  0  0
  188.8120  177.2240  137.9030 C   0  0  0  0  0  0  0  0  0  0  0  0
  189.9150  176.8570  137.1270 C   0  0  0  0  0  3  0  0  0  0  0  0
  191.2400  176.5910  139.1360 C   0  0  0  0  0  3  0  0  0  0  0  0
  190.2440  176.9740  141.4070 C   0  0  0  0  0  0  0  0  0  0  0  0
  190.4610  177.0030  144.2240 C   0  0  0  0  0  0  0  0  0  0  0  0
  189.1830  176.5320  142.2110 C   0  0  0  0  0  3  0  0  0  0  0  0
  191.4120  177.4400  142.0290 C   0  0  0  0  0  3  0  0  0  0  0  0
  189.2900  176.5500  143.6030 C   0  0  0  0  0  3  0  0  0  0  0  0
  191.5170  177.4570  143.4220 C   0  0  0  0  0  3  0  0  0  0  0  0
  190.5380  177.0350  145.7050 C   0  0  0  0  0  0  0  0  0  0  0  0
  191.6220  176.7010  146.2550 O   0  0  0  0  0  0  0  0  0  0  0  0
  189.4050  177.4420  146.5710 C   0  0  0  0  0  0  0  0  0  0  0  0
  189.6400  177.7570  147.9190 C   0  0  0  0  0  3  0  0  0  0  0  0
  188.0990  177.5600  146.0670 C   0  0  0  0  0  3  0  0  0  0  0  0
  187.0490  177.9670  146.8960 C   0  0  0  0  0  3  0  0  0  0  0  0
  187.2960  178.2680  148.2380 C   0  0  0  0  0  3  0  0  0  0  0  0
  188.5920  178.1650  148.7480 C   0  0  0  0  0  3  0  0  0  0  0  0
  187.5110  177.5310  137.2510 C   0  0  0  0  0  2  0  0  0  0  0  0
  186.8980  178.6780  137.8990 N   0  0  0  0  0  2  0  0  0  0  0  0
  185.4840  178.3780  138.0520 C   0  0  1  0  0  3  0  0  0  0  0  0
  185.3000  177.0090  138.1140 F   0  0  0  0  0  0  0  0  0  0  0  0
  184.4050  180.1440  139.2230 O   0  0  0  0  0  0  0  0  0  0  0  0
  184.9690  179.0190  139.2940 C   0  0  0  0  0  0  0  0  0  0  0  0
  185.1480  178.3750  140.5570 N   0  0  0  0  0  2  0  0  0  0  0  0
  185.4310  178.3410  142.9790 C   0  0  0  0  0  2  0  0  0  0  0  0
  183.1510  178.7100  141.9430 C   0  0  0  0  0  2  0  0  0  0  0  0
  183.5480  179.4600  144.3220 C   0  0  0  0  0  2  0  0  0  0  0  0
  185.0050  178.9740  144.3120 C   0  0  0  0  0  2  0  0  0  0  0  0
  184.6650  178.9460  141.8050 C   0  0  0  0  0  3  0  0  0  0  0  0
  182.6790  178.6120  143.4010 C   0  0  0  0  0  2  0  0  0  0  0  0
  192.3030  176.1590  136.9080 C   0  0  0  0  0  2  0  0  0  0  0  0
  192.7450  174.7490  137.2480 C   0  0  0  0  0  2  0  0  0  0  0  0
  195.2590  174.6090  137.1760 C   0  0  0  0  0  0  0  0  0  0  0  0
  193.9860  174.4490  136.5540 N   0  0  0  0  0  2  0  0  0  0  0  0
  195.3440  175.0720  138.3460 O   0  0  0  0  0  0  0  0  0  0  0  0
  197.1610  175.4940  135.8480 C   0  0  0  0  0  1  0  0  0  0  0  0
  196.4930  174.2520  136.4110 C   0  0  1  0  0  3  0  0  0  0  0  0
  198.2130  173.9850  138.0200 O   0  0  0  0  0  0  0  0  0  0  0  0
  197.4490  173.4420  137.2350 C   0  0  0  0  0  0  0  0  0  0  0  0
  197.4750  171.9580  137.0770 C   0  0  0  0  0  2  0  0  0  0  0  0
  196.5420  171.5530  136.0390 N   0  0  0  0  0  2  0  0  0  0  0  0
  193.9210  171.0870  136.3180 O   0  0  0  0  0  0  0  0  0  0  0  0
  195.3610  170.7970  138.4860 O   0  0  0  0  0  1  0  0  0  0  0  0
  195.4700  168.9850  136.4100 O   0  0  0  0  0  1  0  0  0  0  0  0
  195.2720  170.6170  136.8060 P   0  0  0  0  0  0  0  0  0  0  0  0
  1  6  1  0  0  0  0
  2  3  1  0  0  0  0
  3  7  1  0  0  0  0
  4  2  2  0  0  0  0
  5  1  2  0  0  0  0
  5  4  1  0  0  0  0
  6  3  2  0  0  0  0
  7 10  2  0  0  0  0
  7  9  1  0  0  0  0
  8 13  1  0  0  0  0
  9 11  2  0  0  0  0
 10 12  1  0  0  0  0
 11  8  1  0  0  0  0
 12  8  2  0  0  0  0
 13 14  2  0  0  0  0
 13 15  1  0  0  0  0
 15 16  1  0  0  0  0
 16 20  2  0  0  0  0
 17 15  2  0  0  0  0
 17 18  1  0  0  0  0
 18 19  2  0  0  0  0
 19 20  1  0  0  0  0
 21 22  1  0  0  0  0
 21  4  1  0  0  0  0
 22 23  1  0  0  0  0
 23 24  1  1  0  0  0
 23 26  1  0  0  0  0
 25 26  2  0  0  0  0
 26 27  1  0  0  0  0
 27 32  1  0  0  0  0
 28 31  1  0  0  0  0
 29 33  1  0  0  0  0
 31 30  1  0  0  0  0
 32 29  1  0  0  0  0
 32 28  1  0  0  0  0
 33 30  1  0  0  0  0
 34 35  1  0  0  0  0
 34  1  1  0  0  0  0
 36 38  2  0  0  0  0
 37 36  1  0  0  0  0
 37 35  1  0  0  0  0
 40 39  1  1  0  0  0
 40 36  1  0  0  0  0
 40 42  1  0  0  0  0
 42 41  2  0  0  0  0
 43 42  1  0  0  0  0
 44 48  1  0  0  0  0
 44 43  1  0  0  0  0
 45 48  2  0  0  0  0
 47 48  1  0  0  0  0
 48 46  1  0  0  0  0
M  END
>  <MODEL>
2

>  <REMARK>
 VINA RESULT:      -8.8      2.016      2.802
  Name = 
  16 active torsions:
  status: ('A' for Active; 'I' for Inactive)
    1  A    between atoms: N_1  and  C_8
    2  A    between atoms: N_1  and  C_16
    3  A    between atoms: C_2  and  C_30
    4  A    between atoms: C_3  and  C_31
    5  A    between atoms: C_5  and  C_6
    6  A    between atoms: C_6  and  C_25
    7  A    between atoms: C_8  and  C_43
    8  A    between atoms: C_9  and  C_13
    9  A    between atoms: C_13  and  C_22
   10  A    between atoms: C_16  and  C_32
   11  A    between atoms: N_19  and  C_22
   12  A    between atoms: C_28  and  C_35
   13  A    between atoms: C_28  and  N_41
   14  A    between atoms: C_30  and  C_35
   15  A    between atoms: C_33  and  N_48
   16  A    between atoms: P_39  and  N_41
                            x       y       z     vdW  Elec       q    Type
                         _______ _______ _______ _____ _____    ______ ____

>  <TORSDO>
F 16

$$$$
=
 OpenBabel10232410403D

 48 51  0  0  1  0  0  0  0  0999 V2000
  190.1020  176.7520  137.3740 C   0  0  0  0  0  0  0  0  0  0  0  0
  188.1850  177.7220  139.1620 C   0  0  0  0  0  3  0  0  0  0  0  0
  189.3950  177.2100  139.6600 C   0  0  0  0  0  0  0  0  0  0  0  0
  187.9340  177.7520  137.7870 C   0  0  0  0  0  0  0  0  0  0  0  0
  188.8890  177.2560  136.8950 C   0  0  0  0  0  3  0  0  0  0  0  0
  190.3520  176.7300  138.7520 C   0  0  0  0  0  3  0  0  0  0  0  0
  189.6520  177.1740  141.1210 C   0  0  0  0  0  0  0  0  0  0  0  0
  190.1170  177.0830  143.9060 C   0  0  0  0  0  0  0  0  0  0  0  0
  188.9380  178.0090  141.9920 C   0  0  0  0  0  3  0  0  0  0  0  0
  190.6080  176.2990  141.6570 C   0  0  0  0  0  3  0  0  0  0  0  0
  189.1710  177.9660  143.3680 C   0  0  0  0  0  3  0  0  0  0  0  0
  190.8400  176.2570  143.0340 C   0  0  0  0  0  3  0  0  0  0  0  0
  190.3620  177.0760  145.3680 C   0  0  0  0  0  0  0  0  0  0  0  0
  191.5040  176.7370  145.7820 O   0  0  0  0  0  0  0  0  0  0  0  0
  189.3320  177.4490  146.3690 C   0  0  0  0  0  0  0  0  0  0  0  0
  189.7240  177.7900  147.6730 C   0  0  0  0  0  3  0  0  0  0  0  0
  187.9700  177.5100  146.0350 C   0  0  0  0  0  3  0  0  0  0  0  0
  187.0180  177.8870  146.9880 C   0  0  0  0  0  3  0  0  0  0  0  0
  187.4210  178.2130  148.2850 C   0  0  0  0  0  3  0  0  0  0  0  0
  188.7740  178.1670  148.6270 C   0  0  0  0  0  3  0  0  0  0  0  0
  186.6350  178.2670  137.2780 C   0  0  0  0  0  2  0  0  0  0  0  0
  185.5520  177.4270  137.7610 N   0  0  0  0  0  2  0  0  0  0  0  0
  184.3660  178.2620  137.8370 C   0  0  1  0  0  3  0  0  0  0  0  0
  183.2340  177.4820  137.6810 F   0  0  0  0  0  0  0  0  0  0  0  0
  184.3830  180.2160  139.1910 O   0  0  0  0  0  0  0  0  0  0  0  0
  184.3270  178.9570  139.1540 C   0  0  0  0  0  0  0  0  0  0  0  0
  184.2650  178.1970  140.3620 N   0  0  0  0  0  2  0  0  0  0  0  0
  185.1910  178.1010  142.6170 C   0  0  0  0  0  2  0  0  0  0  0  0
  182.7850  178.7870  142.2290 C   0  0  0  0  0  2  0  0  0  0  0  0
  183.9120  179.4520  144.3880 C   0  0  0  0  0  2  0  0  0  0  0  0
  185.2330  178.7730  143.9970 C   0  0  0  0  0  2  0  0  0  0  0  0
  184.2210  178.8150  141.6790 C   0  0  0  0  0  3  0  0  0  0  0  0
  182.7190  178.7390  143.7620 C   0  0  0  0  0  2  0  0  0  0  0  0
  191.1150  176.2270  136.4190 C   0  0  0  0  0  2  0  0  0  0  0  0
  191.0940  174.7110  136.4100 C   0  0  0  0  0  2  0  0  0  0  0  0
  192.6710  172.8750  135.7110 C   0  0  0  0  0  0  0  0  0  0  0  0
  192.4340  174.2090  136.1580 N   0  0  0  0  0  2  0  0  0  0  0  0
  191.7110  172.0700  135.5690 O   0  0  0  0  0  0  0  0  0  0  0  0
  194.9040  173.5810  134.8880 C   0  0  0  0  0  1  0  0  0  0  0  0
  194.0750  172.4360  135.4430 C   0  0  1  0  0  3  0  0  0  0  0  0
  194.2720  170.8130  137.1580 O   0  0  0  0  0  0  0  0  0  0  0  0
  194.7160  171.8350  136.6580 C   0  0  0  0  0  0  0  0  0  0  0  0
  195.9000  172.5090  137.2690 C   0  0  0  0  0  2  0  0  0  0  0  0
  195.5850  172.9390  138.6210 N   0  0  0  0  0  2  0  0  0  0  0  0
  195.8470  175.1020  140.1730 O   0  0  0  0  0  1  0  0  0  0  0  0
  194.9430  175.5450  137.7560 O   0  0  0  0  0  0  0  0  0  0  0  0
  197.5760  174.8770  138.2290 O   0  0  0  0  0  1  0  0  0  0  0  0
  195.9830  174.6420  138.7400 P   0  0  0  0  0  0  0  0  0  0  0  0
  1  6  1  0  0  0  0
  2  3  1  0  0  0  0
  3  7  1  0  0  0  0
  4  2  2  0  0  0  0
  5  1  2  0  0  0  0
  5  4  1  0  0  0  0
  6  3  2  0  0  0  0
  7 10  2  0  0  0  0
  7  9  1  0  0  0  0
  8 13  1  0  0  0  0
  9 11  2  0  0  0  0
 10 12  1  0  0  0  0
 11  8  1  0  0  0  0
 12  8  2  0  0  0  0
 13 14  2  0  0  0  0
 13 15  1  0  0  0  0
 15 16  1  0  0  0  0
 16 20  2  0  0  0  0
 17 15  2  0  0  0  0
 17 18  1  0  0  0  0
 18 19  2  0  0  0  0
 19 20  1  0  0  0  0
 21 22  1  0  0  0  0
 21  4  1  0  0  0  0
 22 23  1  0  0  0  0
 23 24  1  1  0  0  0
 23 26  1  0  0  0  0
 26 25  2  0  0  0  0
 26 27  1  0  0  0  0
 27 32  1  0  0  0  0
 28 31  1  0  0  0  0
 29 33  1  0  0  0  0
 31 30  1  0  0  0  0
 32 29  1  0  0  0  0
 32 28  1  0  0  0  0
 33 30  1  0  0  0  0
 34  1  1  0  0  0  0
 35 34  1  0  0  0  0
 36 37  1  0  0  0  0
 37 35  1  0  0  0  0
 38 36  2  0  0  0  0
 40 39  1  1  0  0  0
 40 36  1  0  0  0  0
 40 42  1  0  0  0  0
 42 41  2  0  0  0  0
 42 43  1  0  0  0  0
 43 44  1  0  0  0  0
 44 48  1  0  0  0  0
 46 48  2  0  0  0  0
 47 48  1  0  0  0  0
 48 45  1  0  0  0  0
M  END
>  <MODEL>
3

>  <REMARK>
 VINA RESULT:      -8.6      1.494      2.055
  Name = 
  16 active torsions:
  status: ('A' for Active; 'I' for Inactive)
    1  A    between atoms: N_1  and  C_8
    2  A    between atoms: N_1  and  C_16
    3  A    between atoms: C_2  and  C_30
    4  A    between atoms: C_3  and  C_31
    5  A    between atoms: C_5  and  C_6
    6  A    between atoms: C_6  and  C_25
    7  A    between atoms: C_8  and  C_43
    8  A    between atoms: C_9  and  C_13
    9  A    between atoms: C_13  and  C_22
   10  A    between atoms: C_16  and  C_32
   11  A    between atoms: N_19  and  C_22
   12  A    between atoms: C_28  and  C_35
   13  A    between atoms: C_28  and  N_41
   14  A    between atoms: C_30  and  C_35
   15  A    between atoms: C_33  and  N_48
   16  A    between atoms: P_39  and  N_41
                            x       y       z     vdW  Elec       q    Type
                         _______ _______ _______ _____ _____    ______ ____

>  <TORSDO>
F 16

$$$$
=
 OpenBabel10232410403D

 48 51  0  0  1  0  0  0  0  0999 V2000
  189.5600  177.9850  137.7750 C   0  0  0  0  0  0  0  0  0  0  0  0
  191.4490  176.3980  139.0890 C   0  0  0  0  0  3  0  0  0  0  0  0
  190.5180  177.1310  139.8460 C   0  0  0  0  0  0  0  0  0  0  0  0
  191.4360  176.4540  137.6920 C   0  0  0  0  0  0  0  0  0  0  0  0
  190.4980  177.2570  137.0370 C   0  0  0  0  0  3  0  0  0  0  0  0
  189.5720  177.9210  139.1740 C   0  0  0  0  0  3  0  0  0  0  0  0
  190.5420  177.0740  141.3280 C   0  0  0  0  0  0  0  0  0  0  0  0
  190.6080  176.9370  144.1490 C   0  0  0  0  0  0  0  0  0  0  0  0
  189.6210  176.2810  142.0260 C   0  0  0  0  0  3  0  0  0  0  0  0
  191.4930  177.8050  142.0560 C   0  0  0  0  0  3  0  0  0  0  0  0
  189.6510  176.2180  143.4210 C   0  0  0  0  0  3  0  0  0  0  0  0
  191.5220  177.7390  143.4510 C   0  0  0  0  0  3  0  0  0  0  0  0
  190.6010  176.8710  145.6300 C   0  0  0  0  0  0  0  0  0  0  0  0
  191.6210  176.4090  146.2130 O   0  0  0  0  0  0  0  0  0  0  0  0
  189.4580  177.3200  146.4610 C   0  0  0  0  0  0  0  0  0  0  0  0
  189.6580  177.5990  147.8230 C   0  0  0  0  0  3  0  0  0  0  0  0
  188.1810  177.5150  145.9120 C   0  0  0  0  0  3  0  0  0  0  0  0
  187.1220  177.9620  146.7090 C   0  0  0  0  0  3  0  0  0  0  0  0
  187.3330  178.2250  148.0640 C   0  0  0  0  0  3  0  0  0  0  0  0
  188.6010  178.0460  148.6210 C   0  0  0  0  0  3  0  0  0  0  0  0
  192.4470  175.6970  136.9080 C   0  0  0  0  0  2  0  0  0  0  0  0
  193.7560  176.3040  137.0820 N   0  0  0  0  0  2  0  0  0  0  0  0
  194.5440  175.9660  135.9090 C   0  0  1  0  0  3  0  0  0  0  0  0
  195.0280  177.1200  135.3210 F   0  0  0  0  0  0  0  0  0  0  0  0
  196.7960  175.5950  136.5760 O   0  0  0  0  0  0  0  0  0  0  0  0
  195.6770  175.0830  136.3050 C   0  0  0  0  0  0  0  0  0  0  0  0
  195.4990  173.6650  136.3390 N   0  0  0  0  0  2  0  0  0  0  0  0
  197.2290  172.1830  135.4690 C   0  0  0  0  0  2  0  0  0  0  0  0
  196.0020  171.6280  137.6120 C   0  0  0  0  0  2  0  0  0  0  0  0
  198.2480  170.5600  137.1790 C   0  0  0  0  0  2  0  0  0  0  0  0
  198.4110  171.2700  135.8280 C   0  0  0  0  0  2  0  0  0  0  0  0
  196.5630  172.7490  136.7210 C   0  0  0  0  0  3  0  0  0  0  0  0
  196.7790  170.3090  137.4960 C   0  0  0  0  0  2  0  0  0  0  0  0
  188.5630  178.8360  137.0710 C   0  0  0  0  0  2  0  0  0  0  0  0
  187.2750  178.0660  136.8530 C   0  0  0  0  0  2  0  0  0  0  0  0
  185.0640  177.9480  138.0550 C   0  0  0  0  0  0  0  0  0  0  0  0
  186.2040  178.6850  137.6140 N   0  0  0  0  0  2  0  0  0  0  0  0
  184.9310  176.7330  137.7450 O   0  0  0  0  0  0  0  0  0  0  0  0
  182.6960  177.8960  138.7970 C   0  0  0  0  0  1  0  0  0  0  0  0
  184.0160  178.6440  138.8610 C   0  0  1  0  0  3  0  0  0  0  0  0
  185.3010  179.7000  140.5490 O   0  0  0  0  0  0  0  0  0  0  0  0
  184.4520  178.8640  140.2790 C   0  0  0  0  0  0  0  0  0  0  0  0
  183.8500  178.0350  141.3650 C   0  0  0  0  0  2  0  0  0  0  0  0
  183.1650  178.8900  142.3210 N   0  0  0  0  0  2  0  0  0  0  0  0
  184.7530  180.3120  143.9390 O   0  0  0  0  0  1  0  0  0  0  0  0
  185.3690  177.7800  143.6870 O   0  0  0  0  0  0  0  0  0  0  0  0
  183.1590  178.6090  145.1130 O   0  0  0  0  0  1  0  0  0  0  0  0
  184.1400  178.9410  143.7770 P   0  0  0  0  0  0  0  0  0  0  0  0
  1  6  1  0  0  0  0
  2  3  1  0  0  0  0
  3  7  1  0  0  0  0
  4  2  2  0  0  0  0
  5  4  1  0  0  0  0
  5  1  2  0  0  0  0
  6  3  2  0  0  0  0
  7  9  2  0  0  0  0
  7 10  1  0  0  0  0
  8 13  1  0  0  0  0
  9 11  1  0  0  0  0
 10 12  2  0  0  0  0
 11  8  2  0  0  0  0
 12  8  1  0  0  0  0
 13 14  2  0  0  0  0
 13 15  1  0  0  0  0
 15 16  1  0  0  0  0
 16 20  2  0  0  0  0
 17 15  2  0  0  0  0
 17 18  1  0  0  0  0
 18 19  2  0  0  0  0
 19 20  1  0  0  0  0
 21 22  1  0  0  0  0
 21  4  1  0  0  0  0
 23 24  1  1  0  0  0
 23 26  1  0  0  0  0
 23 22  1  0  0  0  0
 26 27  1  0  0  0  0
 26 25  2  0  0  0  0
 27 32  1  0  0  0  0
 28 31  1  0  0  0  0
 28 32  1  0  0  0  0
 30 33  1  0  0  0  0
 31 30  1  0  0  0  0
 32 29  1  0  0  0  0
 33 29  1  0  0  0  0
 34  1  1  0  0  0  0
 35 34  1  0  0  0  0
 35 37  1  0  0  0  0
 36 40  1  0  0  0  0
 37 36  1  0  0  0  0
 38 36  2  0  0  0  0
 40 39  1  1  0  0  0
 40 42  1  0  0  0  0
 42 41  2  0  0  0  0
 42 43  1  0  0  0  0
 43 44  1  0  0  0  0
 44 48  1  0  0  0  0
 46 48  2  0  0  0  0
 48 45  1  0  0  0  0
 48 47  1  0  0  0  0
M  END
>  <MODEL>
4

>  <REMARK>
 VINA RESULT:      -8.3      3.635     10.061
  Name = 
  16 active torsions:
  status: ('A' for Active; 'I' for Inactive)
    1  A    between atoms: N_1  and  C_8
    2  A    between atoms: N_1  and  C_16
    3  A    between atoms: C_2  and  C_30
    4  A    between atoms: C_3  and  C_31
    5  A    between atoms: C_5  and  C_6
    6  A    between atoms: C_6  and  C_25
    7  A    between atoms: C_8  and  C_43
    8  A    between atoms: C_9  and  C_13
    9  A    between atoms: C_13  and  C_22
   10  A    between atoms: C_16  and  C_32
   11  A    between atoms: N_19  and  C_22
   12  A    between atoms: C_28  and  C_35
   13  A    between atoms: C_28  and  N_41
   14  A    between atoms: C_30  and  C_35
   15  A    between atoms: C_33  and  N_48
   16  A    between atoms: P_39  and  N_41
                            x       y       z     vdW  Elec       q    Type
                         _______ _______ _______ _____ _____    ______ ____

>  <TORSDO>
F 16

$$$$
=
 OpenBabel10232410403D

 48 51  0  0  1  0  0  0  0  0999 V2000
  186.3730  177.6740  142.9230 C   0  0  0  0  0  0  0  0  0  0  0  0
  183.8910  178.8660  143.4050 C   0  0  0  0  0  3  0  0  0  0  0  0
  184.2860  178.6070  142.0810 C   0  0  0  0  0  0  0  0  0  0  0  0
  184.7240  178.5320  144.4770 C   0  0  0  0  0  0  0  0  0  0  0  0
  185.9690  177.9460  144.2340 C   0  0  0  0  0  3  0  0  0  0  0  0
  185.5330  178.0040  141.8530 C   0  0  0  0  0  3  0  0  0  0  0  0
  183.4020  178.9710  140.9470 C   0  0  0  0  0  0  0  0  0  0  0  0
  181.7160  179.6970  138.7990 C   0  0  0  0  0  0  0  0  0  0  0  0
  182.0090  178.9850  141.1050 C   0  0  0  0  0  3  0  0  0  0  0  0
  183.9430  179.3160  139.7000 C   0  0  0  0  0  3  0  0  0  0  0  0
  181.1760  179.3400  140.0410 C   0  0  0  0  0  3  0  0  0  0  0  0
  183.1090  179.6710  138.6370 C   0  0  0  0  0  3  0  0  0  0  0  0
  180.8080  180.0450  137.6790 C   0  0  0  0  0  0  0  0  0  0  0  0
  179.9830  179.1760  137.2860 O   0  0  0  0  0  0  0  0  0  0  0  0
  180.8210  181.3640  137.0000 C   0  0  0  0  0  0  0  0  0  0  0  0
  180.5570  181.4370  135.6230 C   0  0  0  0  0  3  0  0  0  0  0  0
  181.0500  182.5540  137.7090 C   0  0  0  0  0  3  0  0  0  0  0  0
  181.0340  183.7890  137.0530 C   0  0  0  0  0  3  0  0  0  0  0  0
  180.7810  183.8460  135.6800 C   0  0  0  0  0  3  0  0  0  0  0  0
  180.5400  182.6700  134.9660 C   0  0  0  0  0  3  0  0  0  0  0  0
  184.3040  178.8410  145.8690 C   0  0  0  0  0  2  0  0  0  0  0  0
  185.1420  178.1120  146.8070 N   0  0  0  0  0  2  0  0  0  0  0  0
  186.3270  178.9190  147.0400 C   0  0  1  0  0  3  0  0  0  0  0  0
  186.0920  179.8100  148.0710 F   0  0  0  0  0  0  0  0  0  0  0  0
  187.5500  177.5370  148.5380 O   0  0  0  0  0  0  0  0  0  0  0  0
  187.4750  178.0340  147.3830 C   0  0  0  0  0  0  0  0  0  0  0  0
  188.4990  177.7860  146.4170 N   0  0  0  0  0  2  0  0  0  0  0  0
  190.5950  177.6300  147.6550 C   0  0  0  0  0  2  0  0  0  0  0  0
  190.3510  176.5600  145.3740 C   0  0  0  0  0  2  0  0  0  0  0  0
  192.1650  175.7330  146.9250 C   0  0  0  0  0  2  0  0  0  0  0  0
  191.7790  176.7270  148.0300 C   0  0  0  0  0  2  0  0  0  0  0  0
  189.6430  176.9290  146.6890 C   0  0  0  0  0  3  0  0  0  0  0  0
  191.8540  176.2970  145.5430 C   0  0  0  0  0  2  0  0  0  0  0  0
  187.7000  177.0490  142.6720 C   0  0  0  0  0  2  0  0  0  0  0  0
  188.7950  178.0970  142.7270 C   0  0  0  0  0  2  0  0  0  0  0  0
  190.5970  177.3250  141.1450 C   0  0  0  0  0  0  0  0  0  0  0  0
  189.4760  178.1550  141.4450 N   0  0  0  0  0  2  0  0  0  0  0  0
  191.0640  176.5440  142.0180 O   0  0  0  0  0  0  0  0  0  0  0  0
  192.7370  177.2610  139.8890 C   0  0  0  0  0  1  0  0  0  0  0  0
  191.2290  177.4180  139.7940 C   0  0  1  0  0  3  0  0  0  0  0  0
  190.9760  175.2610  138.8440 O   0  0  0  0  0  0  0  0  0  0  0  0
  190.6370  176.4350  138.8290 C   0  0  0  0  0  0  0  0  0  0  0  0
  189.6330  176.9070  137.8290 C   0  0  0  0  0  2  0  0  0  0  0  0
  188.2980  176.4960  138.2330 N   0  0  0  0  0  2  0  0  0  0  0  0
  187.0500  178.7330  139.0050 O   0  0  0  0  0  1  0  0  0  0  0  0
  185.6840  177.1650  137.4140 O   0  0  0  0  0  1  0  0  0  0  0  0
  187.8190  178.6590  136.5100 O   0  0  0  0  0  0  0  0  0  0  0  0
  187.1980  177.7990  137.8270 P   0  0  0  0  0  0  0  0  0  0  0  0
  1  5  1  0  0  0  0
  2  4  1  0  0  0  0
  3  2  2  0  0  0  0
  4 21  1  0  0  0  0
  5  4  2  0  0  0  0
  6  3  1  0  0  0  0
  6  1  2  0  0  0  0
  7  9  1  0  0  0  0
  7  3  1  0  0  0  0
  8 11  1  0  0  0  0
 10  7  2  0  0  0  0
 11  9  2  0  0  0  0
 12  8  2  0  0  0  0
 12 10  1  0  0  0  0
 13  8  1  0  0  0  0
 14 13  2  0  0  0  0
 15 13  1  0  0  0  0
 15 17  1  0  0  0  0
 16 15  2  0  0  0  0
 18 17  2  0  0  0  0
 19 18  1  0  0  0  0
 20 16  1  0  0  0  0
 20 19  2  0  0  0  0
 21 22  1  0  0  0  0
 22 23  1  0  0  0  0
 23 26  1  0  0  0  0
 23 24  1  1  0  0  0
 26 25  2  0  0  0  0
 27 32  1  0  0  0  0
 27 26  1  0  0  0  0
 28 31  1  0  0  0  0
 29 33  1  0  0  0  0
 29 32  1  0  0  0  0
 30 31  1  0  0  0  0
 32 28  1  0  0  0  0
 33 30  1  0  0  0  0
 34 35  1  0  0  0  0
 34  1  1  0  0  0  0
 36 37  1  0  0  0  0
 36 38  2  0  0  0  0
 37 35  1  0  0  0  0
 40 39  1  1  0  0  0
 40 36  1  0  0  0  0
 42 41  2  0  0  0  0
 42 40  1  0  0  0  0
 43 44  1  0  0  0  0
 43 42  1  0  0  0  0
 46 48  1  0  0  0  0
 47 48  2  0  0  0  0
 48 44  1  0  0  0  0
 48 45  1  0  0  0  0
M  END
>  <MODEL>
5

>  <REMARK>
 VINA RESULT:      -8.2      4.205      9.319
  Name = 
  16 active torsions:
  status: ('A' for Active; 'I' for Inactive)
    1  A    between atoms: N_1  and  C_8
    2  A    between atoms: N_1  and  C_16
    3  A    between atoms: C_2  and  C_30
    4  A    between atoms: C_3  and  C_31
    5  A    between atoms: C_5  and  C_6
    6  A    between atoms: C_6  and  C_25
    7  A    between atoms: C_8  and  C_43
    8  A    between atoms: C_9  and  C_13
    9  A    between atoms: C_13  and  C_22
   10  A    between atoms: C_16  and  C_32
   11  A    between atoms: N_19  and  C_22
   12  A    between atoms: C_28  and  C_35
   13  A    between atoms: C_28  and  N_41
   14  A    between atoms: C_30  and  C_35
   15  A    between atoms: C_33  and  N_48
   16  A    between atoms: P_39  and  N_41
                            x       y       z     vdW  Elec       q    Type
                         _______ _______ _______ _____ _____    ______ ____

>  <TORSDO>
F 16

$$$$
=
 OpenBabel10232410403D

 48 51  0  0  1  0  0  0  0  0999 V2000
  184.4270  179.0450  144.1760 C   0  0  0  0  0  0  0  0  0  0  0  0
  183.6690  178.6330  141.5170 C   0  0  0  0  0  3  0  0  0  0  0  0
  185.0350  178.6670  141.8480 C   0  0  0  0  0  0  0  0  0  0  0  0
  182.6920  178.8000  142.5030 C   0  0  0  0  0  0  0  0  0  0  0  0
  183.0720  179.0160  143.8310 C   0  0  0  0  0  3  0  0  0  0  0  0
  185.4020  178.8700  143.1880 C   0  0  0  0  0  3  0  0  0  0  0  0
  186.0680  178.4970  140.7970 C   0  0  0  0  0  0  0  0  0  0  0  0
  188.0350  178.2070  138.7900 C   0  0  0  0  0  0  0  0  0  0  0  0
  185.7030  178.4040  139.4460 C   0  0  0  0  0  3  0  0  0  0  0  0
  187.4280  178.4350  141.1340 C   0  0  0  0  0  3  0  0  0  0  0  0
  186.6750  178.2570  138.4550 C   0  0  0  0  0  3  0  0  0  0  0  0
  188.4000  178.2880  140.1410 C   0  0  0  0  0  3  0  0  0  0  0  0
  189.0450  178.0250  137.7200 C   0  0  0  0  0  0  0  0  0  0  0  0
  189.4060  179.0370  137.0590 O   0  0  0  0  0  0  0  0  0  0  0  0
  189.6540  176.7140  137.3880 C   0  0  0  0  0  0  0  0  0  0  0  0
  190.7680  176.2630  138.1140 C   0  0  0  0  0  3  0  0  0  0  0  0
  189.1190  175.8870  136.3870 C   0  0  0  0  0  3  0  0  0  0  0  0
  189.6950  174.6440  136.1070 C   0  0  0  0  0  3  0  0  0  0  0  0
  190.8090  174.2120  136.8300 C   0  0  0  0  0  3  0  0  0  0  0  0
  191.3440  175.0210  137.8350 C   0  0  0  0  0  3  0  0  0  0  0  0
  181.2520  178.7930  142.1320 C   0  0  0  0  0  2  0  0  0  0  0  0
  181.0990  178.2970  140.7740 N   0  0  0  0  0  2  0  0  0  0  0  0
  181.1780  176.8480  140.8370 C   0  0  1  0  0  3  0  0  0  0  0  0
  179.9820  176.3340  141.3050 F   0  0  0  0  0  0  0  0  0  0  0  0
  180.6550  175.5060  138.9450 O   0  0  0  0  0  0  0  0  0  0  0  0
  181.4700  176.3040  139.4810 C   0  0  0  0  0  0  0  0  0  0  0  0
  182.6830  176.6590  138.8150 N   0  0  0  0  0  2  0  0  0  0  0  0
  183.9540  174.9600  137.6120 C   0  0  0  0  0  2  0  0  0  0  0  0
  183.6690  177.2880  136.6570 C   0  0  0  0  0  2  0  0  0  0  0  0
  184.2600  175.3910  135.0980 C   0  0  0  0  0  2  0  0  0  0  0  0
  184.2770  174.3600  136.2360 C   0  0  0  0  0  2  0  0  0  0  0  0
  183.0250  176.1660  137.4890 C   0  0  0  0  0  3  0  0  0  0  0  0
  184.6580  176.7740  135.6010 C   0  0  0  0  0  2  0  0  0  0  0  0
  184.8240  179.2740  145.5920 C   0  0  0  0  0  2  0  0  0  0  0  0
  185.2850  177.9750  146.2260 C   0  0  0  0  0  2  0  0  0  0  0  0
  187.7940  177.7520  146.2720 C   0  0  0  0  0  0  0  0  0  0  0  0
  186.5710  178.1790  146.8700 N   0  0  0  0  0  2  0  0  0  0  0  0
  187.7840  177.1300  145.1750 O   0  0  0  0  0  0  0  0  0  0  0  0
  188.8430  178.3270  148.4470 C   0  0  0  0  0  1  0  0  0  0  0  0
  189.0830  178.0230  146.9790 C   0  0  1  0  0  3  0  0  0  0  0  0
  189.8810  175.8220  147.3470 O   0  0  0  0  0  0  0  0  0  0  0  0
  190.0640  176.9020  146.8060 C   0  0  0  0  0  0  0  0  0  0  0  0
  191.2850  177.1210  145.9740 C   0  0  0  0  0  2  0  0  0  0  0  0
  190.9220  177.7510  144.7160 N   0  0  0  0  0  2  0  0  0  0  0  0
  191.9080  177.2240  142.2850 O   0  0  0  0  0  0  0  0  0  0  0  0
  189.6990  175.9650  142.9080 O   0  0  0  0  0  1  0  0  0  0  0  0
  192.1240  175.3050  144.0440 O   0  0  0  0  0  1  0  0  0  0  0  0
  191.1850  176.5750  143.4420 P   0  0  0  0  0  0  0  0  0  0  0  0
  1 34  1  0  0  0  0
  2  3  2  0  0  0  0
  2  4  1  0  0  0  0
  3  6  1  0  0  0  0
  4  5  2  0  0  0  0
  5  1  1  0  0  0  0
  6  1  2  0  0  0  0
  7 10  1  0  0  0  0
  7  3  1  0  0  0  0
  8 12  1  0  0  0  0
  9  7  2  0  0  0  0
 11  8  2  0  0  0  0
 11  9  1  0  0  0  0
 12 10  2  0  0  0  0
 13  8  1  0  0  0  0
 14 13  2  0  0  0  0
 15 13  1  0  0  0  0
 15 16  1  0  0  0  0
 17 15  2  0  0  0  0
 18 17  1  0  0  0  0
 18 19  2  0  0  0  0
 19 20  1  0  0  0  0
 20 16  2  0  0  0  0
 21  4  1  0  0  0  0
 22 23  1  0  0  0  0
 22 21  1  0  0  0  0
 23 24  1  6  0  0  0
 25 26  2  0  0  0  0
 26 23  1  0  0  0  0
 27 26  1  0  0  0  0
 29 32  1  0  0  0  0
 30 33  1  0  0  0  0
 30 31  1  0  0  0  0
 31 28  1  0  0  0  0
 32 28  1  0  0  0  0
 32 27  1  0  0  0  0
 33 29  1  0  0  0  0
 34 35  1  0  0  0  0
 35 37  1  0  0  0  0
 36 37  1  0  0  0  0
 36 40  1  0  0  0  0
 38 36  2  0  0  0  0
 40 39  1  1  0  0  0
 42 40  1  0  0  0  0
 42 41  2  0  0  0  0
 43 42  1  0  0  0  0
 44 43  1  0  0  0  0
 45 48  2  0  0  0  0
 46 48  1  0  0  0  0
 48 47  1  0  0  0  0
 48 44  1  0  0  0  0
M  END
>  <MODEL>
6

>  <REMARK>
 VINA RESULT:      -7.9      3.820      8.432
  Name = 
  16 active torsions:
  status: ('A' for Active; 'I' for Inactive)
    1  A    between atoms: N_1  and  C_8
    2  A    between atoms: N_1  and  C_16
    3  A    between atoms: C_2  and  C_30
    4  A    between atoms: C_3  and  C_31
    5  A    between atoms: C_5  and  C_6
    6  A    between atoms: C_6  and  C_25
    7  A    between atoms: C_8  and  C_43
    8  A    between atoms: C_9  and  C_13
    9  A    between atoms: C_13  and  C_22
   10  A    between atoms: C_16  and  C_32
   11  A    between atoms: N_19  and  C_22
   12  A    between atoms: C_28  and  C_35
   13  A    between atoms: C_28  and  N_41
   14  A    between atoms: C_30  and  C_35
   15  A    between atoms: C_33  and  N_48
   16  A    between atoms: P_39  and  N_41
                            x       y       z     vdW  Elec       q    Type
                         _______ _______ _______ _____ _____    ______ ____

>  <TORSDO>
F 16

$$$$
=
 OpenBabel10232410403D

 48 51  0  0  1  0  0  0  0  0999 V2000
  190.0820  176.6780  137.6820 C   0  0  0  0  0  0  0  0  0  0  0  0
  188.2040  177.5390  139.5640 C   0  0  0  0  0  3  0  0  0  0  0  0
  189.4730  177.1200  139.9980 C   0  0  0  0  0  0  0  0  0  0  0  0
  187.8760  177.5300  138.2040 C   0  0  0  0  0  0  0  0  0  0  0  0
  188.8130  177.0900  137.2650 C   0  0  0  0  0  3  0  0  0  0  0  0
  190.4090  176.6940  139.0420 C   0  0  0  0  0  3  0  0  0  0  0  0
  189.8120  177.1230  141.4420 C   0  0  0  0  0  0  0  0  0  0  0  0
  190.4710  177.0990  144.1890 C   0  0  0  0  0  0  0  0  0  0  0  0
  188.9330  176.5700  142.3830 C   0  0  0  0  0  3  0  0  0  0  0  0
  191.0220  177.6730  141.8910 C   0  0  0  0  0  3  0  0  0  0  0  0
  189.2570  176.5620  143.7410 C   0  0  0  0  0  3  0  0  0  0  0  0
  191.3460  177.6630  143.2500 C   0  0  0  0  0  3  0  0  0  0  0  0
  190.7800  177.1000  145.6400 C   0  0  0  0  0  0  0  0  0  0  0  0
  191.9790  176.9380  145.9960 O   0  0  0  0  0  0  0  0  0  0  0  0
  189.7510  177.2830  146.6920 C   0  0  0  0  0  0  0  0  0  0  0  0
  189.1680  178.5460  146.8800 C   0  0  0  0  0  3  0  0  0  0  0  0
  189.3100  176.2100  147.4850 C   0  0  0  0  0  3  0  0  0  0  0  0
  188.3220  176.4000  148.4550 C   0  0  0  0  0  3  0  0  0  0  0  0
  187.7580  177.6640  148.6390 C   0  0  0  0  0  3  0  0  0  0  0  0
  188.1790  178.7370  147.8490 C   0  0  0  0  0  3  0  0  0  0  0  0
  186.5180  177.9470  137.7640 C   0  0  0  0  0  2  0  0  0  0  0  0
  186.0530  179.0500  138.5880 N   0  0  0  0  0  2  0  0  0  0  0  0
  184.6890  178.7440  138.9830 C   0  0  1  0  0  3  0  0  0  0  0  0
  184.2740  177.5770  138.3680 F   0  0  0  0  0  0  0  0  0  0  0  0
  183.9370  177.6560  140.9580 O   0  0  0  0  0  0  0  0  0  0  0  0
  184.6200  178.5920  140.4630 C   0  0  0  0  0  0  0  0  0  0  0  0
  185.2940  179.5250  141.3100 N   0  0  0  0  0  2  0  0  0  0  0  0
  185.9290  178.1260  143.2040 C   0  0  0  0  0  2  0  0  0  0  0  0
  183.8210  179.5250  143.2730 C   0  0  0  0  0  2  0  0  0  0  0  0
  184.8480  178.7560  145.4470 C   0  0  0  0  0  2  0  0  0  0  0  0
  185.9940  178.0220  144.7350 C   0  0  0  0  0  2  0  0  0  0  0  0
  185.2680  179.4300  142.7620 C   0  0  0  0  0  3  0  0  0  0  0  0
  183.5880  178.7730  144.5910 C   0  0  0  0  0  2  0  0  0  0  0  0
  191.0750  176.2110  136.6760 C   0  0  0  0  0  2  0  0  0  0  0  0
  192.0170  175.1970  137.2970 C   0  0  0  0  0  2  0  0  0  0  0  0
  194.2370  175.2210  136.1090 C   0  0  0  0  0  0  0  0  0  0  0  0
  192.9240  174.6910  136.2820 N   0  0  0  0  0  2  0  0  0  0  0  0
  194.6310  176.1920  136.8090 O   0  0  0  0  0  0  0  0  0  0  0  0
  195.9880  175.7000  134.4160 C   0  0  0  0  0  1  0  0  0  0  0  0
  195.1270  174.6300  135.0630 C   0  0  1  0  0  3  0  0  0  0  0  0
  195.4700  172.6530  136.3250 O   0  0  0  0  0  0  0  0  0  0  0  0
  195.9630  173.5090  135.6060 C   0  0  0  0  0  0  0  0  0  0  0  0
  197.4180  173.4550  135.2730 C   0  0  0  0  0  2  0  0  0  0  0  0
  198.1720  172.9760  136.4200 N   0  0  0  0  0  2  0  0  0  0  0  0
  199.8110  175.0550  136.0320 O   0  0  0  0  0  0  0  0  0  0  0  0
  200.0610  173.8290  138.3320 O   0  0  0  0  0  1  0  0  0  0  0  0
  197.8870  175.4260  137.7600 O   0  0  0  0  0  1  0  0  0  0  0  0
  199.0160  174.3500  137.1070 P   0  0  0  0  0  0  0  0  0  0  0  0
  1  6  1  0  0  0  0
  2  3  1  0  0  0  0
  3  7  1  0  0  0  0
  4  2  2  0  0  0  0
  5  1  2  0  0  0  0
  5  4  1  0  0  0  0
  6  3  2  0  0  0  0
  7 10  2  0  0  0  0
  7  9  1  0  0  0  0
  8 13  1  0  0  0  0
  9 11  2  0  0  0  0
 10 12  1  0  0  0  0
 11  8  1  0  0  0  0
 12  8  2  0  0  0  0
 13 14  2  0  0  0  0
 13 15  1  0  0  0  0
 15 16  2  0  0  0  0
 15 17  1  0  0  0  0
 16 20  1  0  0  0  0
 17 18  2  0  0  0  0
 18 19  1  0  0  0  0
 20 19  2  0  0  0  0
 21  4  1  0  0  0  0
 21 22  1  0  0  0  0
 22 23  1  0  0  0  0
 23 24  1  6  0  0  0
 23 26  1  0  0  0  0
 26 25  2  0  0  0  0
 26 27  1  0  0  0  0
 27 32  1  0  0  0  0
 28 31  1  0  0  0  0
 29 33  1  0  0  0  0
 31 30  1  0  0  0  0
 32 28  1  0  0  0  0
 32 29  1  0  0  0  0
 33 30  1  0  0  0  0
 34 35  1  0  0  0  0
 34  1  1  0  0  0  0
 36 37  1  0  0  0  0
 36 38  2  0  0  0  0
 37 35  1  0  0  0  0
 40 39  1  1  0  0  0
 40 42  1  0  0  0  0
 40 36  1  0  0  0  0
 42 41  2  0  0  0  0
 43 42  1  0  0  0  0
 43 44  1  0  0  0  0
 44 48  1  0  0  0  0
 45 48  2  0  0  0  0
 48 47  1  0  0  0  0
 48 46  1  0  0  0  0
M  END
>  <MODEL>
7

>  <REMARK>
 VINA RESULT:      -7.8      1.552      2.036
  Name = 
  16 active torsions:
  status: ('A' for Active; 'I' for Inactive)
    1  A    between atoms: N_1  and  C_8
    2  A    between atoms: N_1  and  C_16
    3  A    between atoms: C_2  and  C_30
    4  A    between atoms: C_3  and  C_31
    5  A    between atoms: C_5  and  C_6
    6  A    between atoms: C_6  and  C_25
    7  A    between atoms: C_8  and  C_43
    8  A    between atoms: C_9  and  C_13
    9  A    between atoms: C_13  and  C_22
   10  A    between atoms: C_16  and  C_32
   11  A    between atoms: N_19  and  C_22
   12  A    between atoms: C_28  and  C_35
   13  A    between atoms: C_28  and  N_41
   14  A    between atoms: C_30  and  C_35
   15  A    between atoms: C_33  and  N_48
   16  A    between atoms: P_39  and  N_41
                            x       y       z     vdW  Elec       q    Type
                         _______ _______ _______ _____ _____    ______ ____

>  <TORSDO>
F 16

$$$$
=
 OpenBabel10232410403D

 48 51  0  0  1  0  0  0  0  0999 V2000
  189.4310  177.4140  140.5110 C   0  0  0  0  0  0  0  0  0  0  0  0
  189.4780  176.6500  137.8220 C   0  0  0  0  0  3  0  0  0  0  0  0
  190.5740  176.3400  138.6470 C   0  0  0  0  0  0  0  0  0  0  0  0
  188.3700  177.3310  138.3350 C   0  0  0  0  0  0  0  0  0  0  0  0
  188.3520  177.7220  139.6770 C   0  0  0  0  0  3  0  0  0  0  0  0
  190.5360  176.7260  139.9960 C   0  0  0  0  0  3  0  0  0  0  0  0
  191.7510  175.6240  138.0960 C   0  0  0  0  0  0  0  0  0  0  0  0
  193.9950  174.2440  137.0750 C   0  0  0  0  0  0  0  0  0  0  0  0
  193.0500  176.0930  138.3390 C   0  0  0  0  0  3  0  0  0  0  0  0
  191.5850  174.4620  137.3280 C   0  0  0  0  0  3  0  0  0  0  0  0
  194.1580  175.4120  137.8310 C   0  0  0  0  0  3  0  0  0  0  0  0
  192.6960  173.7820  136.8200 C   0  0  0  0  0  3  0  0  0  0  0  0
  195.1880  173.5550  136.5260 C   0  0  0  0  0  0  0  0  0  0  0  0
  196.0960  174.2570  136.0030 O   0  0  0  0  0  0  0  0  0  0  0  0
  195.3680  172.0830  136.5630 C   0  0  0  0  0  0  0  0  0  0  0  0
  195.4000  171.4190  137.7990 C   0  0  0  0  0  3  0  0  0  0  0  0
  195.4680  171.3250  135.3850 C   0  0  0  0  0  3  0  0  0  0  0  0
  195.6140  169.9350  135.4420 C   0  0  0  0  0  3  0  0  0  0  0  0
  195.6550  169.2890  136.6800 C   0  0  0  0  0  3  0  0  0  0  0  0
  195.5450  170.0300  137.8580 C   0  0  0  0  0  3  0  0  0  0  0  0
  187.2330  177.6780  137.4420 C   0  0  0  0  0  2  0  0  0  0  0  0
  186.4680  178.7680  138.0240 N   0  0  0  0  0  2  0  0  0  0  0  0
  185.0720  178.3650  138.0130 C   0  0  1  0  0  3  0  0  0  0  0  0
  184.9800  176.9910  138.1410 F   0  0  0  0  0  0  0  0  0  0  0  0
  184.3660  180.2870  139.2210 O   0  0  0  0  0  0  0  0  0  0  0  0
  184.3510  179.0300  139.1340 C   0  0  0  0  0  0  0  0  0  0  0  0
  183.6820  178.2420  140.1200 N   0  0  0  0  0  2  0  0  0  0  0  0
  183.6070  178.4090  142.5520 C   0  0  0  0  0  2  0  0  0  0  0  0
  181.4770  178.4140  141.1840 C   0  0  0  0  0  2  0  0  0  0  0  0
  181.4290  179.3680  143.5220 C   0  0  0  0  0  2  0  0  0  0  0  0
  182.9180  179.0730  143.7550 C   0  0  0  0  0  2  0  0  0  0  0  0
  182.9560  178.8300  141.2370 C   0  0  0  0  0  3  0  0  0  0  0  0
  180.8100  178.3550  142.5660 C   0  0  0  0  0  2  0  0  0  0  0  0
  189.4050  177.8320  141.9390 C   0  0  0  0  0  2  0  0  0  0  0  0
  190.6830  177.4050  142.6350 C   0  0  0  0  0  2  0  0  0  0  0  0
  191.0320  177.1400  145.1160 C   0  0  0  0  0  0  0  0  0  0  0  0
  190.3590  176.7860  143.9090 N   0  0  0  0  0  2  0  0  0  0  0  0
  191.9770  177.9750  145.0980 O   0  0  0  0  0  0  0  0  0  0  0  0
  191.8330  176.2080  147.2730 C   0  0  0  0  0  1  0  0  0  0  0  0
  190.6250  176.4830  146.3950 C   0  0  1  0  0  3  0  0  0  0  0  0
  189.8390  177.7920  148.2080 O   0  0  0  0  0  0  0  0  0  0  0  0
  189.5860  177.2790  147.1280 C   0  0  0  0  0  0  0  0  0  0  0  0
  188.2250  177.4290  146.5330 C   0  0  0  0  0  2  0  0  0  0  0  0
  187.2630  177.7610  147.5700 N   0  0  0  0  0  2  0  0  0  0  0  0
  184.6450  178.0450  147.0940 O   0  0  0  0  0  1  0  0  0  0  0  0
  186.2370  178.7870  145.1520 O   0  0  0  0  0  0  0  0  0  0  0  0
  185.9830  180.2560  147.4720 O   0  0  0  0  0  1  0  0  0  0  0  0
  185.9820  178.6960  146.8230 P   0  0  0  0  0  0  0  0  0  0  0  0
  1 34  1  0  0  0  0
  2  4  2  0  0  0  0
  2  3  1  0  0  0  0
  3  6  2  0  0  0  0
  4  5  1  0  0  0  0
  5  1  2  0  0  0  0
  6  1  1  0  0  0  0
  7  9  1  0  0  0  0
  7  3  1  0  0  0  0
  8 11  1  0  0  0  0
 10  7  2  0  0  0  0
 11  9  2  0  0  0  0
 12  8  2  0  0  0  0
 12 10  1  0  0  0  0
 13 15  1  0  0  0  0
 13  8  1  0  0  0  0
 14 13  2  0  0  0  0
 15 16  1  0  0  0  0
 16 20  2  0  0  0  0
 17 18  1  0  0  0  0
 17 15  2  0  0  0  0
 18 19  2  0  0  0  0
 19 20  1  0  0  0  0
 21 22  1  0  0  0  0
 21  4  1  0  0  0  0
 23 22  1  0  0  0  0
 23 24  1  1  0  0  0
 23 26  1  0  0  0  0
 26 25  2  0  0  0  0
 26 27  1  0  0  0  0
 27 32  1  0  0  0  0
 28 31  1  0  0  0  0
 29 32  1  0  0  0  0
 29 33  1  0  0  0  0
 30 31  1  0  0  0  0
 32 28  1  0  0  0  0
 33 30  1  0  0  0  0
 34 35  1  0  0  0  0
 35 37  1  0  0  0  0
 36 40  1  0  0  0  0
 37 36  1  0  0  0  0
 38 36  2  0  0  0  0
 40 42  1  0  0  0  0
 40 39  1  1  0  0  0
 42 41  2  0  0  0  0
 43 42  1  0  0  0  0
 43 44  1  0  0  0  0
 46 48  2  0  0  0  0
 48 45  1  0  0  0  0
 48 47  1  0  0  0  0
 48 44  1  0  0  0  0
M  END
>  <MODEL>
8

>  <REMARK>
 VINA RESULT:      -7.7      3.667      9.072
  Name = 
  16 active torsions:
  status: ('A' for Active; 'I' for Inactive)
    1  A    between atoms: N_1  and  C_8
    2  A    between atoms: N_1  and  C_16
    3  A    between atoms: C_2  and  C_30
    4  A    between atoms: C_3  and  C_31
    5  A    between atoms: C_5  and  C_6
    6  A    between atoms: C_6  and  C_25
    7  A    between atoms: C_8  and  C_43
    8  A    between atoms: C_9  and  C_13
    9  A    between atoms: C_13  and  C_22
   10  A    between atoms: C_16  and  C_32
   11  A    between atoms: N_19  and  C_22
   12  A    between atoms: C_28  and  C_35
   13  A    between atoms: C_28  and  N_41
   14  A    between atoms: C_30  and  C_35
   15  A    between atoms: C_33  and  N_48
   16  A    between atoms: P_39  and  N_41
                            x       y       z     vdW  Elec       q    Type
                         _______ _______ _______ _____ _____    ______ ____

>  <TORSDO>
F 16

$$$$
=
 OpenBabel10232410403D

 48 51  0  0  1  0  0  0  0  0999 V2000
  186.5690  177.7050  143.0010 C   0  0  0  0  0  0  0  0  0  0  0  0
  184.0640  178.8450  143.4890 C   0  0  0  0  0  3  0  0  0  0  0  0
  184.4620  178.5970  142.1640 C   0  0  0  0  0  0  0  0  0  0  0  0
  184.9050  178.5260  144.5590 C   0  0  0  0  0  0  0  0  0  0  0  0
  186.1620  177.9660  144.3130 C   0  0  0  0  0  3  0  0  0  0  0  0
  185.7210  178.0200  141.9330 C   0  0  0  0  0  3  0  0  0  0  0  0
  183.5690  178.9440  141.0320 C   0  0  0  0  0  0  0  0  0  0  0  0
  181.8650  179.6380  138.8880 C   0  0  0  0  0  0  0  0  0  0  0  0
  182.1750  178.8980  141.1820 C   0  0  0  0  0  3  0  0  0  0  0  0
  184.1010  179.3340  139.7940 C   0  0  0  0  0  3  0  0  0  0  0  0
  181.3340  179.2370  140.1210 C   0  0  0  0  0  3  0  0  0  0  0  0
  183.2580  179.6730  138.7330 C   0  0  0  0  0  3  0  0  0  0  0  0
  180.9490  179.9690  137.7700 C   0  0  0  0  0  0  0  0  0  0  0  0
  180.1640  179.0730  137.3540 O   0  0  0  0  0  0  0  0  0  0  0  0
  180.9070  181.3000  137.1170 C   0  0  0  0  0  0  0  0  0  0  0  0
  180.6530  181.3900  135.7390 C   0  0  0  0  0  3  0  0  0  0  0  0
  181.0740  182.4860  137.8520 C   0  0  0  0  0  3  0  0  0  0  0  0
  181.0080  183.7310  137.2200 C   0  0  0  0  0  3  0  0  0  0  0  0
  180.7660  183.8040  135.8470 C   0  0  0  0  0  3  0  0  0  0  0  0
  180.5860  182.6340  135.1070 C   0  0  0  0  0  3  0  0  0  0  0  0
  184.4810  178.8250  145.9520 C   0  0  0  0  0  2  0  0  0  0  0  0
  185.2900  178.0580  146.8850 N   0  0  0  0  0  2  0  0  0  0  0  0
  186.5050  178.8170  147.1220 C   0  0  1  0  0  3  0  0  0  0  0  0
  186.3280  179.6590  148.2050 F   0  0  0  0  0  0  0  0  0  0  0  0
  187.6820  177.2560  148.4760 O   0  0  0  0  0  0  0  0  0  0  0  0
  187.6360  177.8820  147.3830 C   0  0  0  0  0  0  0  0  0  0  0  0
  188.6750  177.7300  146.4140 N   0  0  0  0  0  2  0  0  0  0  0  0
  190.8010  177.4580  147.5770 C   0  0  0  0  0  2  0  0  0  0  0  0
  190.4620  176.5110  145.2540 C   0  0  0  0  0  2  0  0  0  0  0  0
  192.2970  175.5600  146.7050 C   0  0  0  0  0  2  0  0  0  0  0  0
  191.9720  176.5070  147.8700 C   0  0  0  0  0  2  0  0  0  0  0  0
  189.8030  176.8310  146.6070 C   0  0  0  0  0  3  0  0  0  0  0  0
  191.9610  176.2010  145.3630 C   0  0  0  0  0  2  0  0  0  0  0  0
  187.9080  177.1070  142.7470 C   0  0  0  0  0  2  0  0  0  0  0  0
  188.8670  178.1640  142.2320 C   0  0  0  0  0  2  0  0  0  0  0  0
  189.9440  176.9160  140.3270 C   0  0  0  0  0  0  0  0  0  0  0  0
  189.0990  177.9580  140.8130 N   0  0  0  0  0  2  0  0  0  0  0  0
  190.5600  176.1670  141.1320 O   0  0  0  0  0  0  0  0  0  0  0  0
  189.7240  178.0120  138.1110 C   0  0  0  0  0  1  0  0  0  0  0  0
  190.1120  176.7450  138.8520 C   0  0  1  0  0  3  0  0  0  0  0  0
  192.4700  176.9810  138.8020 O   0  0  0  0  0  0  0  0  0  0  0  0
  191.5000  176.3050  138.4930 C   0  0  0  0  0  0  0  0  0  0  0  0
  191.6900  175.0330  137.7350 C   0  0  0  0  0  2  0  0  0  0  0  0
  191.1680  175.1750  136.3860 N   0  0  0  0  0  2  0  0  0  0  0  0
  189.3970  173.9320  134.8120 O   0  0  0  0  0  0  0  0  0  0  0  0
  189.3980  173.1900  137.3230 O   0  0  0  0  0  1  0  0  0  0  0  0
  191.4330  172.4950  135.5960 O   0  0  0  0  0  1  0  0  0  0  0  0
  190.3120  173.6970  135.9920 P   0  0  0  0  0  0  0  0  0  0  0  0
  1  5  1  0  0  0  0
  2  4  1  0  0  0  0
  3  2  2  0  0  0  0
  4 21  1  0  0  0  0
  5  4  2  0  0  0  0
  6  3  1  0  0  0  0
  6  1  2  0  0  0  0
  7  9  1  0  0  0  0
  7  3  1  0  0  0  0
  8 11  1  0  0  0  0
 10  7  2  0  0  0  0
 11  9  2  0  0  0  0
 12  8  2  0  0  0  0
 12 10  1  0  0  0  0
 13  8  1  0  0  0  0
 14 13  2  0  0  0  0
 15 13  1  0  0  0  0
 15 17  1  0  0  0  0
 16 15  2  0  0  0  0
 18 17  2  0  0  0  0
 19 18  1  0  0  0  0
 20 16  1  0  0  0  0
 20 19  2  0  0  0  0
 21 22  1  0  0  0  0
 22 23  1  0  0  0  0
 23 26  1  0  0  0  0
 23 24  1  1  0  0  0
 26 25  2  0  0  0  0
 27 32  1  0  0  0  0
 27 26  1  0  0  0  0
 28 31  1  0  0  0  0
 29 33  1  0  0  0  0
 29 32  1  0  0  0  0
 30 31  1  0  0  0  0
 32 28  1  0  0  0  0
 33 30  1  0  0  0  0
 34  1  1  0  0  0  0
 35 34  1  0  0  0  0
 36 37  1  0  0  0  0
 36 38  2  0  0  0  0
 37 35  1  0  0  0  0
 40 39  1  6  0  0  0
 40 36  1  0  0  0  0
 42 41  2  0  0  0  0
 42 40  1  0  0  0  0
 43 42  1  0  0  0  0
 44 43  1  0  0  0  0
 45 48  2  0  0  0  0
 47 48  1  0  0  0  0
 48 44  1  0  0  0  0
 48 46  1  0  0  0  0
M  END
>  <MODEL>
9

>  <REMARK>
 VINA RESULT:      -7.7      3.854      8.860
  Name = 
  16 active torsions:
  status: ('A' for Active; 'I' for Inactive)
    1  A    between atoms: N_1  and  C_8
    2  A    between atoms: N_1  and  C_16
    3  A    between atoms: C_2  and  C_30
    4  A    between atoms: C_3  and  C_31
    5  A    between atoms: C_5  and  C_6
    6  A    between atoms: C_6  and  C_25
    7  A    between atoms: C_8  and  C_43
    8  A    between atoms: C_9  and  C_13
    9  A    between atoms: C_13  and  C_22
   10  A    between atoms: C_16  and  C_32
   11  A    between atoms: N_19  and  C_22
   12  A    between atoms: C_28  and  C_35
   13  A    between atoms: C_28  and  N_41
   14  A    between atoms: C_30  and  C_35
   15  A    between atoms: C_33  and  N_48
   16  A    between atoms: P_39  and  N_41
                            x       y       z     vdW  Elec       q    Type
                         _______ _______ _______ _____ _____    ______ ____

>  <TORSDO>
F 16

$$$$
