=
 OpenBabel10232411533D

 31 34  0  0  1  0  0  0  0  0999 V2000
  188.4870  178.4650  141.7980 C   0  0  1  0  0  3  0  0  0  0  0  0
  189.0400  177.9450  140.5520 N   0  0  0  0  0  2  0  0  0  0  0  0
  189.1880  177.2360  137.7830 N   0  0  0  0  0  1  0  0  0  0  0  0
  188.8430  178.9210  139.5640 N   0  0  0  0  0  2  0  0  0  0  0  0
  188.9960  178.5890  138.1840 C   0  0  0  0  0  0  0  0  0  0  0  0
  188.9940  179.5020  137.3180 O   0  0  0  0  0  0  0  0  0  0  0  0
  187.0170  178.1000  141.8970 C   0  0  0  0  0  2  0  0  0  0  0  0
  186.1920  179.2930  141.7680 N   0  0  0  0  0  2  0  0  0  0  0  0
  184.8450  178.9890  142.2460 C   0  0  1  0  0  0  0  0  0  0  0  0
  183.7820  179.0460  141.2530 C   0  0  0  0  0  2  0  0  0  0  0  0
  184.3390  177.7400  141.6620 N   0  0  0  0  0  2  0  0  0  0  0  0
  182.9880  179.3080  143.9030 C   0  0  0  0  0  1  0  0  0  0  0  0
  184.4880  179.1250  143.7270 C   0  0  1  0  0  3  0  0  0  0  0  0
  184.9380  177.9800  144.4450 O   0  0  0  0  0  0  0  0  0  0  0  0
  187.8300  177.3720  146.5980 N   0  0  0  0  0  0  0  0  0  0  0  0
  185.5290  178.8430  146.6620 C   0  0  0  0  0  3  0  0  0  0  0  0
  187.5400  178.1400  147.6810 C   0  0  0  0  0  0  0  0  0  0  0  0
  186.9860  177.3120  145.5360 C   0  0  0  0  0  3  0  0  0  0  0  0
  188.4430  178.1950  148.7750 N   0  0  0  0  0  1  0  0  0  0  0  0
  186.3980  178.8760  147.7040 N   0  0  0  0  0  0  0  0  0  0  0  0
  185.8020  178.0490  145.5430 C   0  0  0  0  0  0  0  0  0  0  0  0
  189.2390  177.9320  143.0210 C   0  0  0  0  0  2  0  0  0  0  0  0
  191.3790  178.1970  144.4080 C   0  0  2  0  0  3  0  0  0  0  0  0
  191.6870  176.6480  142.6490 C   0  0  0  0  0  2  0  0  0  0  0  0
  190.5240  178.7340  143.3300 C   0  0  1  0  0  3  0  0  0  0  0  0
  191.8140  178.0690  142.9950 N   0  0  1  0  0  0  0  0  0  0  0  0
  191.0350  176.7980  144.9160 C   0  0  1  0  0  3  0  0  0  0  0  0
  191.6530  175.8520  143.9270 C   0  0  0  0  0  2  0  0  0  0  0  0
  192.3430  175.3780  146.5740 N   0  0  0  0  0  1  0  0  0  0  0  0
  191.5760  176.5460  146.2880 C   0  0  0  0  0  0  0  0  0  0  0  0
  191.2870  177.3400  147.2190 O   0  0  0  0  0  0  0  0  0  0  0  0
  1  7  1  1  0  0  0
  1 22  1  0  0  0  0
  2  1  1  0  0  0  0
  3  5  1  0  0  0  0
  4  2  1  0  0  0  0
  5  4  1  0  0  0  0
  6  5  2  0  0  0  0
  8  7  1  0  0  0  0
  9  8  1  6  0  0  0
  9 13  1  0  0  0  0
 10 11  1  0  0  0  0
 10  9  1  0  0  0  0
 11  9  1  0  0  0  0
 13 12  1  6  0  0  0
 13 14  1  0  0  0  0
 14 21  1  0  0  0  0
 15 17  2  0  0  0  0
 16 20  2  0  0  0  0
 17 20  1  0  0  0  0
 17 19  1  0  0  0  0
 18 21  2  0  0  0  0
 18 15  1  0  0  0  0
 21 16  1  0  0  0  0
 22 25  1  0  0  0  0
 23 27  1  0  0  0  0
 24 26  1  0  0  0  0
 24 28  1  0  0  0  0
 25 23  1  0  0  0  0
 26 25  1  0  0  0  0
 26 23  1  0  0  0  0
 27 30  1  0  0  0  0
 28 27  1  0  0  0  0
 30 29  1  0  0  0  0
 30 31  2  0  0  0  0
M  END
>  <MODEL>
1

>  <REMARK>
 VINA RESULT:      -7.5      0.000      0.000
  Name = 
  11 active torsions:
  status: ('A' for Active; 'I' for Inactive)
    1  A    between atoms: N_3  and  N_9
    2  A    between atoms: N_3  and  C_14
    3  A    between atoms: N_5  and  C_12
    4  A    between atoms: N_5  and  C_19
    5  A    between atoms: C_7  and  C_25
    6  A    between atoms: C_12  and  C_29
    7  A    between atoms: C_14  and  C_19
    8  A    between atoms: C_14  and  C_30
    9  A    between atoms: O_16  and  C_29
   10  A    between atoms: O_16  and  C_31
   11  A    between atoms: C_21  and  C_30
                            x       y       z     vdW  Elec       q    Type
                         _______ _______ _______ _____ _____    ______ ____

>  <TORSDO>
F 11

$$$$
=
 OpenBabel10232411533D

 31 34  0  0  1  0  0  0  0  0999 V2000
  187.7870  177.4260  142.1740 C   0  0  1  0  0  3  0  0  0  0  0  0
  186.6410  178.1770  142.6780 N   0  0  0  0  0  2  0  0  0  0  0  0
  184.0230  178.0780  141.5280 N   0  0  0  0  0  1  0  0  0  0  0  0
  186.2730  179.0980  141.6870 N   0  0  0  0  0  2  0  0  0  0  0  0
  184.9980  179.0020  141.0530 C   0  0  0  0  0  0  0  0  0  0  0  0
  184.7440  179.7130  140.0470 O   0  0  0  0  0  0  0  0  0  0  0  0
  188.4530  178.2000  141.0510 C   0  0  0  0  0  2  0  0  0  0  0  0
  189.3080  177.3190  140.2700 N   0  0  0  0  0  2  0  0  0  0  0  0
  188.9260  177.4160  138.8630 C   0  0  1  0  0  0  0  0  0  0  0  0
  187.6680  178.0910  138.5830 C   0  0  0  0  0  2  0  0  0  0  0  0
  188.9460  178.8090  138.3980 N   0  0  0  0  0  2  0  0  0  0  0  0
  188.5920  176.3740  136.6050 C   0  0  0  0  0  1  0  0  0  0  0  0
  189.4980  176.4490  137.8250 C   0  0  1  0  0  3  0  0  0  0  0  0
  190.8090  176.8570  137.4480 O   0  0  0  0  0  0  0  0  0  0  0  0
  194.1890  175.8150  138.3770 N   0  0  0  0  0  0  0  0  0  0  0  0
  191.9820  174.7200  137.1950 C   0  0  0  0  0  3  0  0  0  0  0  0
  194.2110  174.5240  137.9540 C   0  0  0  0  0  0  0  0  0  0  0  0
  193.0830  176.5860  138.2150 C   0  0  0  0  0  3  0  0  0  0  0  0
  195.3750  173.7340  138.1440 N   0  0  0  0  0  1  0  0  0  0  0  0
  193.1070  173.9820  137.3740 N   0  0  0  0  0  0  0  0  0  0  0  0
  191.9440  176.0550  137.6110 C   0  0  0  0  0  0  0  0  0  0  0  0
  188.8060  177.1330  143.2790 C   0  0  0  0  0  2  0  0  0  0  0  0
  190.4270  178.2560  144.9160 C   0  0  2  0  0  3  0  0  0  0  0  0
  191.5800  176.8710  143.3850 C   0  0  0  0  0  2  0  0  0  0  0  0
  189.6280  178.3790  143.6790 C   0  0  1  0  0  3  0  0  0  0  0  0
  191.1100  178.2450  143.5980 N   0  0  1  0  0  0  0  0  0  0  0  0
  190.5490  176.8550  145.5120 C   0  0  1  0  0  3  0  0  0  0  0  0
  191.6310  176.1780  144.7210 C   0  0  0  0  0  2  0  0  0  0  0  0
  192.1360  176.3380  147.4330 N   0  0  0  0  0  1  0  0  0  0  0  0
  190.9060  176.8870  146.9640 C   0  0  0  0  0  0  0  0  0  0  0  0
  190.0750  177.3400  147.7920 O   0  0  0  0  0  0  0  0  0  0  0  0
  1  7  1  6  0  0  0
  1  2  1  0  0  0  0
  1 22  1  0  0  0  0
  4  2  1  0  0  0  0
  5  3  1  0  0  0  0
  5  4  1  0  0  0  0
  6  5  2  0  0  0  0
  8  7  1  0  0  0  0
  9  8  1  1  0  0  0
 10  9  1  0  0  0  0
 11 10  1  0  0  0  0
 11  9  1  0  0  0  0
 13 12  1  6  0  0  0
 13  9  1  0  0  0  0
 14 21  1  0  0  0  0
 14 13  1  0  0  0  0
 16 20  2  0  0  0  0
 16 21  1  0  0  0  0
 17 19  1  0  0  0  0
 17 15  2  0  0  0  0
 18 15  1  0  0  0  0
 20 17  1  0  0  0  0
 21 18  2  0  0  0  0
 22 25  1  0  0  0  0
 23 27  1  0  0  0  0
 24 26  1  0  0  0  0
 24 28  1  0  0  0  0
 25 23  1  0  0  0  0
 26 25  1  0  0  0  0
 26 23  1  0  0  0  0
 27 30  1  0  0  0  0
 28 27  1  0  0  0  0
 30 29  1  0  0  0  0
 30 31  2  0  0  0  0
M  END
>  <MODEL>
2

>  <REMARK>
 VINA RESULT:      -7.2      2.925      6.813
  Name = 
  11 active torsions:
  status: ('A' for Active; 'I' for Inactive)
    1  A    between atoms: N_3  and  N_9
    2  A    between atoms: N_3  and  C_14
    3  A    between atoms: N_5  and  C_12
    4  A    between atoms: N_5  and  C_19
    5  A    between atoms: C_7  and  C_25
    6  A    between atoms: C_12  and  C_29
    7  A    between atoms: C_14  and  C_19
    8  A    between atoms: C_14  and  C_30
    9  A    between atoms: O_16  and  C_29
   10  A    between atoms: O_16  and  C_31
   11  A    between atoms: C_21  and  C_30
                            x       y       z     vdW  Elec       q    Type
                         _______ _______ _______ _____ _____    ______ ____

>  <TORSDO>
F 11

$$$$
=
 OpenBabel10232411533D

 31 34  0  0  1  0  0  0  0  0999 V2000
  185.3460  178.2200  142.9870 C   0  0  1  0  0  3  0  0  0  0  0  0
  184.6560  178.4030  144.2600 N   0  0  0  0  0  2  0  0  0  0  0  0
  184.5330  178.0920  147.1020 N   0  0  0  0  0  1  0  0  0  0  0  0
  185.4950  179.1620  145.0880 N   0  0  0  0  0  2  0  0  0  0  0  0
  185.3810  179.0700  146.5070 C   0  0  0  0  0  0  0  0  0  0  0  0
  186.0070  179.8790  147.2390 O   0  0  0  0  0  0  0  0  0  0  0  0
  184.8600  179.2550  141.9890 C   0  0  0  0  0  2  0  0  0  0  0  0
  185.7510  179.3030  140.8380 N   0  0  0  0  0  2  0  0  0  0  0  0
  184.9940  178.9450  139.6400 C   0  0  1  0  0  0  0  0  0  0  0  0
  183.5460  179.0370  139.7430 C   0  0  0  0  0  2  0  0  0  0  0  0
  184.3070  180.1120  139.0730 N   0  0  0  0  0  2  0  0  0  0  0  0
  184.5870  177.7400  137.4770 C   0  0  0  0  0  1  0  0  0  0  0  0
  185.6080  178.0500  138.5620 C   0  0  1  0  0  3  0  0  0  0  0  0
  186.7560  178.6800  138.0010 O   0  0  0  0  0  0  0  0  0  0  0  0
  189.8820  177.0580  137.0190 N   0  0  0  0  0  0  0  0  0  0  0  0
  188.7890  178.1610  139.2670 C   0  0  0  0  0  3  0  0  0  0  0  0
  190.5830  177.0720  138.1820 C   0  0  0  0  0  0  0  0  0  0  0  0
  188.6310  177.5800  136.9490 C   0  0  0  0  0  3  0  0  0  0  0  0
  191.8940  176.5290  138.2290 N   0  0  0  0  0  1  0  0  0  0  0  0
  190.0380  177.6290  139.2960 N   0  0  0  0  0  0  0  0  0  0  0  0
  188.0460  178.1450  138.0810 C   0  0  0  0  0  0  0  0  0  0  0  0
  186.8660  178.3220  143.1430 C   0  0  0  0  0  2  0  0  0  0  0  0
  189.0580  177.0030  142.9810 C   0  0  2  0  0  3  0  0  0  0  0  0
  188.2630  177.0710  145.2070 C   0  0  0  0  0  2  0  0  0  0  0  0
  187.5900  176.9960  142.8170 C   0  0  1  0  0  3  0  0  0  0  0  0
  188.2140  176.2850  143.9680 N   0  0  1  0  0  0  0  0  0  0  0  0
  189.6580  178.2200  143.6830 C   0  0  1  0  0  3  0  0  0  0  0  0
  189.4750  177.9640  145.1520 C   0  0  0  0  0  2  0  0  0  0  0  0
  191.9470  179.2190  144.1770 N   0  0  0  0  0  1  0  0  0  0  0  0
  191.1080  178.4010  143.3620 C   0  0  0  0  0  0  0  0  0  0  0  0
  191.5770  177.8820  142.3170 O   0  0  0  0  0  0  0  0  0  0  0  0
  1  7  1  6  0  0  0
  1 22  1  0  0  0  0
  1  2  1  0  0  0  0
  2  4  1  0  0  0  0
  4  5  1  0  0  0  0
  5  3  1  0  0  0  0
  5  6  2  0  0  0  0
  8  7  1  0  0  0  0
  9 10  1  0  0  0  0
  9  8  1  1  0  0  0
 11  9  1  0  0  0  0
 11 10  1  0  0  0  0
 13 12  1  6  0  0  0
 13  9  1  0  0  0  0
 14 21  1  0  0  0  0
 14 13  1  0  0  0  0
 15 17  2  0  0  0  0
 16 20  2  0  0  0  0
 17 19  1  0  0  0  0
 17 20  1  0  0  0  0
 18 15  1  0  0  0  0
 18 21  2  0  0  0  0
 21 16  1  0  0  0  0
 23 27  1  0  0  0  0
 23 26  1  0  0  0  0
 25 23  1  0  0  0  0
 25 22  1  0  0  0  0
 25 26  1  0  0  0  0
 26 24  1  0  0  0  0
 27 28  1  0  0  0  0
 28 24  1  0  0  0  0
 30 27  1  0  0  0  0
 30 29  1  0  0  0  0
 31 30  2  0  0  0  0
M  END
>  <MODEL>
3

>  <REMARK>
 VINA RESULT:      -7.1      2.301      6.429
  Name = 
  11 active torsions:
  status: ('A' for Active; 'I' for Inactive)
    1  A    between atoms: N_3  and  N_9
    2  A    between atoms: N_3  and  C_14
    3  A    between atoms: N_5  and  C_12
    4  A    between atoms: N_5  and  C_19
    5  A    between atoms: C_7  and  C_25
    6  A    between atoms: C_12  and  C_29
    7  A    between atoms: C_14  and  C_19
    8  A    between atoms: C_14  and  C_30
    9  A    between atoms: O_16  and  C_29
   10  A    between atoms: O_16  and  C_31
   11  A    between atoms: C_21  and  C_30
                            x       y       z     vdW  Elec       q    Type
                         _______ _______ _______ _____ _____    ______ ____

>  <TORSDO>
F 11

$$$$
=
 OpenBabel10232411533D

 31 34  0  0  1  0  0  0  0  0999 V2000
  188.5050  178.5480  141.0830 C   0  0  1  0  0  3  0  0  0  0  0  0
  189.2570  177.9840  139.9650 N   0  0  0  0  0  2  0  0  0  0  0  0
  189.0260  179.4620  137.5260 N   0  0  0  0  0  1  0  0  0  0  0  0
  188.3290  177.5910  138.9900 N   0  0  0  0  0  2  0  0  0  0  0  0
  188.1540  178.3720  137.8080 C   0  0  0  0  0  0  0  0  0  0  0  0
  187.2020  178.1180  137.0260 O   0  0  0  0  0  0  0  0  0  0  0  0
  187.0350  178.2000  140.9370 C   0  0  0  0  0  2  0  0  0  0  0  0
  186.2290  179.4120  140.9290 N   0  0  0  0  0  2  0  0  0  0  0  0
  184.8640  179.0690  140.5360 C   0  0  1  0  0  0  0  0  0  0  0  0
  184.4670  179.4520  139.1890 C   0  0  0  0  0  2  0  0  0  0  0  0
  184.8520  178.0530  139.4750 N   0  0  0  0  0  2  0  0  0  0  0  0
  182.4970  178.3380  140.9350 C   0  0  0  0  0  1  0  0  0  0  0  0
  183.7820  178.8230  141.5890 C   0  0  1  0  0  3  0  0  0  0  0  0
  184.2410  177.8760  142.5480 O   0  0  0  0  0  0  0  0  0  0  0  0
  184.1940  179.1750  145.9660 N   0  0  0  0  0  0  0  0  0  0  0  0
  185.9780  177.9820  144.2750 C   0  0  0  0  0  3  0  0  0  0  0  0
  185.4690  178.9420  146.3720 C   0  0  0  0  0  0  0  0  0  0  0  0
  183.7830  178.8320  144.7180 C   0  0  0  0  0  3  0  0  0  0  0  0
  185.8730  179.3010  147.6850 N   0  0  0  0  0  1  0  0  0  0  0  0
  186.3500  178.3410  145.5300 N   0  0  0  0  0  0  0  0  0  0  0  0
  184.6730  178.2260  143.8330 C   0  0  0  0  0  0  0  0  0  0  0  0
  189.0280  178.0450  142.4320 C   0  0  0  0  0  2  0  0  0  0  0  0
  190.7500  178.4820  144.2790 C   0  0  2  0  0  3  0  0  0  0  0  0
  191.5350  176.8640  142.7440 C   0  0  0  0  0  2  0  0  0  0  0  0
  190.1680  178.9230  142.9950 C   0  0  1  0  0  3  0  0  0  0  0  0
  191.5230  178.3050  143.0250 N   0  0  1  0  0  0  0  0  0  0  0  0
  190.3410  177.0950  144.7710 C   0  0  1  0  0  3  0  0  0  0  0  0
  191.2150  176.1320  144.0210 C   0  0  0  0  0  2  0  0  0  0  0  0
  189.4200  176.8410  147.1300 N   0  0  0  0  0  1  0  0  0  0  0  0
  190.5350  176.9370  146.2460 C   0  0  0  0  0  0  0  0  0  0  0  0
  191.7000  176.9620  146.7190 O   0  0  0  0  0  0  0  0  0  0  0  0
  1  7  1  6  0  0  0
  1 22  1  0  0  0  0
  2  1  1  0  0  0  0
  3  5  1  0  0  0  0
  4  2  1  0  0  0  0
  5  4  1  0  0  0  0
  6  5  2  0  0  0  0
  8  7  1  0  0  0  0
  9  8  1  1  0  0  0
  9 13  1  0  0  0  0
 10 11  1  0  0  0  0
 10  9  1  0  0  0  0
 11  9  1  0  0  0  0
 13 12  1  6  0  0  0
 13 14  1  0  0  0  0
 14 21  1  0  0  0  0
 15 17  2  0  0  0  0
 16 20  2  0  0  0  0
 17 19  1  0  0  0  0
 18 15  1  0  0  0  0
 20 17  1  0  0  0  0
 21 16  1  0  0  0  0
 21 18  2  0  0  0  0
 22 25  1  0  0  0  0
 23 27  1  0  0  0  0
 24 26  1  0  0  0  0
 24 28  1  0  0  0  0
 25 26  1  0  0  0  0
 25 23  1  0  0  0  0
 26 23  1  0  0  0  0
 27 30  1  0  0  0  0
 28 27  1  0  0  0  0
 30 31  2  0  0  0  0
 30 29  1  0  0  0  0
M  END
>  <MODEL>
4

>  <REMARK>
 VINA RESULT:      -7.1      1.404      2.008
  Name = 
  11 active torsions:
  status: ('A' for Active; 'I' for Inactive)
    1  A    between atoms: N_3  and  N_9
    2  A    between atoms: N_3  and  C_14
    3  A    between atoms: N_5  and  C_12
    4  A    between atoms: N_5  and  C_19
    5  A    between atoms: C_7  and  C_25
    6  A    between atoms: C_12  and  C_29
    7  A    between atoms: C_14  and  C_19
    8  A    between atoms: C_14  and  C_30
    9  A    between atoms: O_16  and  C_29
   10  A    between atoms: O_16  and  C_31
   11  A    between atoms: C_21  and  C_30
                            x       y       z     vdW  Elec       q    Type
                         _______ _______ _______ _____ _____    ______ ____

>  <TORSDO>
F 11

$$$$
=
 OpenBabel10232411533D

 31 34  0  0  1  0  0  0  0  0999 V2000
  186.3850  178.4390  142.2800 C   0  0  1  0  0  3  0  0  0  0  0  0
  185.4610  179.5200  141.9480 N   0  0  0  0  0  2  0  0  0  0  0  0
  182.9590  178.6820  140.8420 N   0  0  0  0  0  1  0  0  0  0  0  0
  185.2760  179.5030  140.5590 N   0  0  0  0  0  2  0  0  0  0  0  0
  184.0600  179.0100  140.0000 C   0  0  0  0  0  0  0  0  0  0  0  0
  183.9690  178.8300  138.7580 O   0  0  0  0  0  0  0  0  0  0  0  0
  187.6410  178.5640  141.4390 C   0  0  0  0  0  2  0  0  0  0  0  0
  188.4120  177.3290  141.4990 N   0  0  0  0  0  2  0  0  0  0  0  0
  189.3240  177.2870  140.3580 C   0  0  1  0  0  0  0  0  0  0  0  0
  188.7060  177.1910  139.0440 C   0  0  0  0  0  2  0  0  0  0  0  0
  189.2040  178.4950  139.5310 N   0  0  0  0  0  2  0  0  0  0  0  0
  191.5020  176.8450  139.1920 C   0  0  0  0  0  1  0  0  0  0  0  0
  190.7770  176.8410  140.5300 C   0  0  1  0  0  3  0  0  0  0  0  0
  191.4410  177.6930  141.4590 O   0  0  0  0  0  0  0  0  0  0  0  0
  191.6700  178.2160  145.0700 N   0  0  0  0  0  0  0  0  0  0  0  0
  191.5700  176.1140  143.3290 C   0  0  0  0  0  3  0  0  0  0  0  0
  191.7180  176.9420  145.5360 C   0  0  0  0  0  0  0  0  0  0  0  0
  191.5810  178.4730  143.7400 C   0  0  0  0  0  3  0  0  0  0  0  0
  191.8000  176.6980  146.9320 N   0  0  0  0  0  1  0  0  0  0  0  0
  191.6590  175.8990  144.6660 N   0  0  0  0  0  0  0  0  0  0  0  0
  191.5320  177.4200  142.8280 C   0  0  0  0  0  0  0  0  0  0  0  0
  186.7520  178.4410  143.7680 C   0  0  0  0  0  2  0  0  0  0  0  0
  186.5970  177.0550  145.9180 C   0  0  2  0  0  3  0  0  0  0  0  0
  185.3830  179.0750  146.1130 C   0  0  0  0  0  2  0  0  0  0  0  0
  186.0930  177.2810  144.5480 C   0  0  1  0  0  3  0  0  0  0  0  0
  185.2590  177.6650  145.7200 N   0  0  1  0  0  0  0  0  0  0  0  0
  187.5170  178.1310  146.4910 C   0  0  1  0  0  3  0  0  0  0  0  0
  186.6030  179.2160  146.9850 C   0  0  0  0  0  2  0  0  0  0  0  0
  189.0000  178.5050  148.5260 N   0  0  0  0  0  1  0  0  0  0  0  0
  188.3650  177.6140  147.6100 C   0  0  0  0  0  0  0  0  0  0  0  0
  188.5780  176.3780  147.7000 O   0  0  0  0  0  0  0  0  0  0  0  0
  1  7  1  6  0  0  0
  1 22  1  0  0  0  0
  2  1  1  0  0  0  0
  4  2  1  0  0  0  0
  5  4  1  0  0  0  0
  5  3  1  0  0  0  0
  6  5  2  0  0  0  0
  7  8  1  0  0  0  0
  9 13  1  0  0  0  0
  9  8  1  1  0  0  0
 10 11  1  0  0  0  0
 10  9  1  0  0  0  0
 11  9  1  0  0  0  0
 13 12  1  6  0  0  0
 13 14  1  0  0  0  0
 14 21  1  0  0  0  0
 15 17  2  0  0  0  0
 16 20  2  0  0  0  0
 17 19  1  0  0  0  0
 18 15  1  0  0  0  0
 20 17  1  0  0  0  0
 21 16  1  0  0  0  0
 21 18  2  0  0  0  0
 22 25  1  0  0  0  0
 23 27  1  0  0  0  0
 24 28  1  0  0  0  0
 25 26  1  0  0  0  0
 25 23  1  0  0  0  0
 26 23  1  0  0  0  0
 26 24  1  0  0  0  0
 27 28  1  0  0  0  0
 27 30  1  0  0  0  0
 30 31  2  0  0  0  0
 30 29  1  0  0  0  0
M  END
>  <MODEL>
5

>  <REMARK>
 VINA RESULT:      -7.0      2.048      5.524
  Name = 
  11 active torsions:
  status: ('A' for Active; 'I' for Inactive)
    1  A    between atoms: N_3  and  N_9
    2  A    between atoms: N_3  and  C_14
    3  A    between atoms: N_5  and  C_12
    4  A    between atoms: N_5  and  C_19
    5  A    between atoms: C_7  and  C_25
    6  A    between atoms: C_12  and  C_29
    7  A    between atoms: C_14  and  C_19
    8  A    between atoms: C_14  and  C_30
    9  A    between atoms: O_16  and  C_29
   10  A    between atoms: O_16  and  C_31
   11  A    between atoms: C_21  and  C_30
                            x       y       z     vdW  Elec       q    Type
                         _______ _______ _______ _____ _____    ______ ____

>  <TORSDO>
F 11

$$$$
=
 OpenBabel10232411533D

 31 34  0  0  1  0  0  0  0  0999 V2000
  187.4230  177.7760  144.6720 C   0  0  1  0  0  3  0  0  0  0  0  0
  187.5540  177.4260  146.0830 N   0  0  0  0  0  2  0  0  0  0  0  0
  188.9900  178.0220  148.4860 N   0  0  0  0  0  1  0  0  0  0  0  0
  188.8480  176.9210  146.2730 N   0  0  0  0  0  2  0  0  0  0  0  0
  189.5980  177.2820  147.4320 C   0  0  0  0  0  0  0  0  0  0  0  0
  190.8160  176.9740  147.5100 O   0  0  0  0  0  0  0  0  0  0  0  0
  188.0960  176.7180  143.8180 C   0  0  0  0  0  2  0  0  0  0  0  0
  188.4350  177.2660  142.5120 N   0  0  0  0  0  2  0  0  0  0  0  0
  189.8340  176.9600  142.2210 C   0  0  1  0  0  0  0  0  0  0  0  0
  190.6920  176.7200  143.3720 C   0  0  0  0  0  2  0  0  0  0  0  0
  190.1680  175.5780  142.5930 N   0  0  0  0  0  2  0  0  0  0  0  0
  191.9880  177.3400  140.9900 C   0  0  0  0  0  1  0  0  0  0  0  0
  190.4700  177.3740  140.8930 C   0  0  1  0  0  3  0  0  0  0  0  0
  190.0180  176.5180  139.8480 O   0  0  0  0  0  0  0  0  0  0  0  0
  188.6930  178.7600  137.2810 N   0  0  0  0  0  0  0  0  0  0  0  0
  188.4990  176.1220  137.9650 C   0  0  0  0  0  3  0  0  0  0  0  0
  187.9090  177.9220  136.5540 C   0  0  0  0  0  0  0  0  0  0  0  0
  189.3850  178.3110  138.3600 C   0  0  0  0  0  3  0  0  0  0  0  0
  187.2030  178.4110  135.4240 N   0  0  0  0  0  1  0  0  0  0  0  0
  187.8220  176.6090  136.8940 N   0  0  0  0  0  0  0  0  0  0  0  0
  189.3020  176.9710  138.7350 C   0  0  0  0  0  0  0  0  0  0  0  0
  185.9560  177.9260  144.2570 C   0  0  0  0  0  2  0  0  0  0  0  0
  185.2010  179.7890  142.6670 C   0  0  2  0  0  3  0  0  0  0  0  0
  183.3810  178.4230  143.3090 C   0  0  0  0  0  2  0  0  0  0  0  0
  185.5410  179.4000  144.0510 C   0  0  1  0  0  3  0  0  0  0  0  0
  184.1200  179.6390  143.6730 N   0  0  1  0  0  0  0  0  0  0  0  0
  185.0550  178.6530  141.6570 C   0  0  1  0  0  3  0  0  0  0  0  0
  183.6710  178.1090  141.8660 C   0  0  0  0  0  2  0  0  0  0  0  0
  184.2100  179.8900  139.6000 N   0  0  0  0  0  1  0  0  0  0  0  0
  185.2240  179.1240  140.2470 C   0  0  0  0  0  0  0  0  0  0  0  0
  186.2440  178.7760  139.6000 O   0  0  0  0  0  0  0  0  0  0  0  0
  1  7  1  6  0  0  0
  1  2  1  0  0  0  0
  2  4  1  0  0  0  0
  4  5  1  0  0  0  0
  5  6  2  0  0  0  0
  5  3  1  0  0  0  0
  8  7  1  0  0  0  0
  9  8  1  1  0  0  0
  9 11  1  0  0  0  0
  9 10  1  0  0  0  0
 11 10  1  0  0  0  0
 13 12  1  1  0  0  0
 13  9  1  0  0  0  0
 14 13  1  0  0  0  0
 15 18  1  0  0  0  0
 16 21  1  0  0  0  0
 17 20  1  0  0  0  0
 17 15  2  0  0  0  0
 18 21  2  0  0  0  0
 19 17  1  0  0  0  0
 20 16  2  0  0  0  0
 21 14  1  0  0  0  0
 22  1  1  0  0  0  0
 23 26  1  0  0  0  0
 23 25  1  0  0  0  0
 24 26  1  0  0  0  0
 25 22  1  0  0  0  0
 26 25  1  0  0  0  0
 27 28  1  0  0  0  0
 27 23  1  0  0  0  0
 28 24  1  0  0  0  0
 29 30  1  0  0  0  0
 30 27  1  0  0  0  0
 31 30  2  0  0  0  0
M  END
>  <MODEL>
6

>  <REMARK>
 VINA RESULT:      -6.9      2.184      8.252
  Name = 
  11 active torsions:
  status: ('A' for Active; 'I' for Inactive)
    1  A    between atoms: N_3  and  N_9
    2  A    between atoms: N_3  and  C_14
    3  A    between atoms: N_5  and  C_12
    4  A    between atoms: N_5  and  C_19
    5  A    between atoms: C_7  and  C_25
    6  A    between atoms: C_12  and  C_29
    7  A    between atoms: C_14  and  C_19
    8  A    between atoms: C_14  and  C_30
    9  A    between atoms: O_16  and  C_29
   10  A    between atoms: O_16  and  C_31
   11  A    between atoms: C_21  and  C_30
                            x       y       z     vdW  Elec       q    Type
                         _______ _______ _______ _____ _____    ______ ____

>  <TORSDO>
F 11

$$$$
=
 OpenBabel10232411533D

 31 34  0  0  1  0  0  0  0  0999 V2000
  187.8690  176.9850  142.5070 C   0  0  1  0  0  3  0  0  0  0  0  0
  186.8490  177.9130  142.9870 N   0  0  0  0  0  2  0  0  0  0  0  0
  184.1490  178.2180  142.0890 N   0  0  0  0  0  1  0  0  0  0  0  0
  186.5520  178.7930  141.9370 N   0  0  0  0  0  2  0  0  0  0  0  0
  185.2210  178.8870  141.4320 C   0  0  0  0  0  0  0  0  0  0  0  0
  184.9960  179.5390  140.3790 O   0  0  0  0  0  0  0  0  0  0  0  0
  188.6500  177.6250  141.3740 C   0  0  0  0  0  2  0  0  0  0  0  0
  189.7660  176.7740  140.9870 N   0  0  0  0  0  2  0  0  0  0  0  0
  190.0170  176.9440  139.5580 C   0  0  1  0  0  0  0  0  0  0  0  0
  191.4110  177.0800  139.1620 C   0  0  0  0  0  2  0  0  0  0  0  0
  190.7200  175.7840  138.9950 N   0  0  0  0  0  2  0  0  0  0  0  0
  189.3550  178.7780  137.9780 C   0  0  0  0  0  1  0  0  0  0  0  0
  188.9240  177.4710  138.6260 C   0  0  1  0  0  3  0  0  0  0  0  0
  188.6210  176.4970  137.6310 O   0  0  0  0  0  0  0  0  0  0  0  0
  185.0100  176.6140  137.0700 N   0  0  0  0  0  0  0  0  0  0  0  0
  187.0170  174.7620  136.9800 C   0  0  0  0  0  3  0  0  0  0  0  0
  184.7340  175.3240  136.7470 C   0  0  0  0  0  0  0  0  0  0  0  0
  186.2760  177.0080  137.3620 C   0  0  0  0  0  3  0  0  0  0  0  0
  183.4040  174.9380  136.4350 N   0  0  0  0  0  1  0  0  0  0  0  0
  185.7370  174.4080  136.6950 N   0  0  0  0  0  0  0  0  0  0  0  0
  187.3190  176.0830  137.3280 C   0  0  0  0  0  0  0  0  0  0  0  0
  188.8270  176.5630  143.6250 C   0  0  0  0  0  2  0  0  0  0  0  0
  189.5940  177.1990  145.9870 C   0  0  2  0  0  3  0  0  0  0  0  0
  190.4930  178.6720  144.3700 C   0  0  0  0  0  2  0  0  0  0  0  0
  188.5290  177.2720  144.9660 C   0  0  1  0  0  3  0  0  0  0  0  0
  189.3510  178.4760  145.2720 N   0  0  1  0  0  0  0  0  0  0  0  0
  190.9450  176.6580  145.5230 C   0  0  1  0  0  3  0  0  0  0  0  0
  191.6320  177.8180  144.8600 C   0  0  0  0  0  2  0  0  0  0  0  0
  191.9520  176.9160  147.8460 N   0  0  0  0  0  1  0  0  0  0  0  0
  191.7700  176.1440  146.6600 C   0  0  0  0  0  0  0  0  0  0  0  0
  192.3690  175.0460  146.5380 O   0  0  0  0  0  0  0  0  0  0  0  0
  1  7  1  6  0  0  0
  1  2  1  0  0  0  0
  1 22  1  0  0  0  0
  4  2  1  0  0  0  0
  5  4  1  0  0  0  0
  5  3  1  0  0  0  0
  6  5  2  0  0  0  0
  8  7  1  0  0  0  0
  9  8  1  1  0  0  0
 10  9  1  0  0  0  0
 11 10  1  0  0  0  0
 11  9  1  0  0  0  0
 13 12  1  6  0  0  0
 13  9  1  0  0  0  0
 14 13  1  0  0  0  0
 15 18  1  0  0  0  0
 16 21  1  0  0  0  0
 17 15  2  0  0  0  0
 19 17  1  0  0  0  0
 20 17  1  0  0  0  0
 20 16  2  0  0  0  0
 21 18  2  0  0  0  0
 21 14  1  0  0  0  0
 22 25  1  0  0  0  0
 24 28  1  0  0  0  0
 24 26  1  0  0  0  0
 25 26  1  0  0  0  0
 25 23  1  0  0  0  0
 26 23  1  0  0  0  0
 27 23  1  0  0  0  0
 27 30  1  0  0  0  0
 28 27  1  0  0  0  0
 30 29  1  0  0  0  0
 31 30  2  0  0  0  0
M  END
>  <MODEL>
7

>  <REMARK>
 VINA RESULT:      -6.9      2.754      6.619
  Name = 
  11 active torsions:
  status: ('A' for Active; 'I' for Inactive)
    1  A    between atoms: N_3  and  N_9
    2  A    between atoms: N_3  and  C_14
    3  A    between atoms: N_5  and  C_12
    4  A    between atoms: N_5  and  C_19
    5  A    between atoms: C_7  and  C_25
    6  A    between atoms: C_12  and  C_29
    7  A    between atoms: C_14  and  C_19
    8  A    between atoms: C_14  and  C_30
    9  A    between atoms: O_16  and  C_29
   10  A    between atoms: O_16  and  C_31
   11  A    between atoms: C_21  and  C_30
                            x       y       z     vdW  Elec       q    Type
                         _______ _______ _______ _____ _____    ______ ____

>  <TORSDO>
F 11

$$$$
=
 OpenBabel10232411533D

 31 34  0  0  1  0  0  0  0  0999 V2000
  188.7390  178.2100  139.6500 C   0  0  1  0  0  3  0  0  0  0  0  0
  187.3670  178.6670  139.4540 N   0  0  0  0  0  2  0  0  0  0  0  0
  184.6530  179.5390  139.7050 N   0  0  0  0  0  1  0  0  0  0  0  0
  186.7350  178.6520  140.7060 N   0  0  0  0  0  2  0  0  0  0  0  0
  185.4100  179.1610  140.8500 C   0  0  0  0  0  0  0  0  0  0  0  0
  184.9190  179.3100  141.9990 O   0  0  0  0  0  0  0  0  0  0  0  0
  188.9940  177.9750  141.1270 C   0  0  0  0  0  2  0  0  0  0  0  0
  189.6990  176.7150  141.3230 N   0  0  0  0  0  2  0  0  0  0  0  0
  190.6270  176.8630  142.4410 C   0  0  1  0  0  0  0  0  0  0  0  0
  191.9650  177.3300  142.1090 C   0  0  0  0  0  2  0  0  0  0  0  0
  190.9720  178.2720  142.6690 N   0  0  0  0  0  2  0  0  0  0  0  0
  191.6070  175.2120  144.0580 C   0  0  0  0  0  1  0  0  0  0  0  0
  190.4100  176.0990  143.7490 C   0  0  1  0  0  3  0  0  0  0  0  0
  190.1790  177.0140  144.8150 O   0  0  0  0  0  0  0  0  0  0  0  0
  186.5740  177.6270  144.8550 N   0  0  0  0  0  0  0  0  0  0  0  0
  188.6670  177.7240  146.6090 C   0  0  0  0  0  3  0  0  0  0  0  0
  186.3680  178.0020  146.1440 C   0  0  0  0  0  0  0  0  0  0  0  0
  187.8160  177.3030  144.4100 C   0  0  0  0  0  3  0  0  0  0  0  0
  185.0590  178.3260  146.5880 N   0  0  0  0  0  1  0  0  0  0  0  0
  187.4110  178.0410  147.0150 N   0  0  0  0  0  0  0  0  0  0  0  0
  188.9030  177.3480  145.2820 C   0  0  0  0  0  0  0  0  0  0  0  0
  189.0300  176.9290  138.8620 C   0  0  0  0  0  2  0  0  0  0  0  0
  190.8390  176.9180  137.0460 C   0  0  2  0  0  3  0  0  0  0  0  0
  189.8950  174.7680  137.3250 C   0  0  0  0  0  2  0  0  0  0  0  0
  189.4340  177.2080  137.3960 C   0  0  1  0  0  3  0  0  0  0  0  0
  189.7630  176.0170  136.5640 N   0  0  1  0  0  0  0  0  0  0  0  0
  191.6550  176.1510  138.0850 C   0  0  1  0  0  3  0  0  0  0  0  0
  191.2880  174.7070  137.8930 C   0  0  0  0  0  2  0  0  0  0  0  0
  193.6970  176.4840  136.6040 N   0  0  0  0  0  1  0  0  0  0  0  0
  193.1280  176.3440  137.9040 C   0  0  0  0  0  0  0  0  0  0  0  0
  193.8810  176.3090  138.9100 O   0  0  0  0  0  0  0  0  0  0  0  0
  1 22  1  6  0  0  0
  1  7  1  0  0  0  0
  2  1  1  0  0  0  0
  2  4  1  0  0  0  0
  3  5  1  0  0  0  0
  4  5  1  0  0  0  0
  5  6  2  0  0  0  0
  7  8  1  0  0  0  0
  9  8  1  6  0  0  0
  9 11  1  0  0  0  0
  9 13  1  0  0  0  0
 10  9  1  0  0  0  0
 10 11  1  0  0  0  0
 13 12  1  1  0  0  0
 13 14  1  0  0  0  0
 14 21  1  0  0  0  0
 15 17  2  0  0  0  0
 16 20  2  0  0  0  0
 17 19  1  0  0  0  0
 17 20  1  0  0  0  0
 18 15  1  0  0  0  0
 18 21  2  0  0  0  0
 21 16  1  0  0  0  0
 23 25  1  0  0  0  0
 23 27  1  0  0  0  0
 24 28  1  0  0  0  0
 25 22  1  0  0  0  0
 26 23  1  0  0  0  0
 26 24  1  0  0  0  0
 26 25  1  0  0  0  0
 28 27  1  0  0  0  0
 29 30  1  0  0  0  0
 30 27  1  0  0  0  0
 30 31  2  0  0  0  0
M  END
>  <MODEL>
8

>  <REMARK>
 VINA RESULT:      -6.9      2.565      5.765
  Name = 
  11 active torsions:
  status: ('A' for Active; 'I' for Inactive)
    1  A    between atoms: N_3  and  N_9
    2  A    between atoms: N_3  and  C_14
    3  A    between atoms: N_5  and  C_12
    4  A    between atoms: N_5  and  C_19
    5  A    between atoms: C_7  and  C_25
    6  A    between atoms: C_12  and  C_29
    7  A    between atoms: C_14  and  C_19
    8  A    between atoms: C_14  and  C_30
    9  A    between atoms: O_16  and  C_29
   10  A    between atoms: O_16  and  C_31
   11  A    between atoms: C_21  and  C_30
                            x       y       z     vdW  Elec       q    Type
                         _______ _______ _______ _____ _____    ______ ____

>  <TORSDO>
F 11

$$$$
=
 OpenBabel10232411533D

 31 34  0  0  1  0  0  0  0  0999 V2000
  187.6580  178.6450  140.5370 C   0  0  1  0  0  3  0  0  0  0  0  0
  186.2390  178.8030  140.8430 N   0  0  0  0  0  2  0  0  0  0  0  0
  183.5970  178.5170  141.9030 N   0  0  0  0  0  1  0  0  0  0  0  0
  186.0550  178.4440  142.1850 N   0  0  0  0  0  2  0  0  0  0  0  0
  184.7420  178.3790  142.7390 C   0  0  0  0  0  0  0  0  0  0  0  0
  184.5930  178.2330  143.9800 O   0  0  0  0  0  0  0  0  0  0  0  0
  188.3290  177.8350  141.6310 C   0  0  0  0  0  2  0  0  0  0  0  0
  189.5290  178.5160  142.0980 N   0  0  0  0  0  2  0  0  0  0  0  0
  190.6220  177.5490  142.1730 C   0  0  1  0  0  0  0  0  0  0  0  0
  190.5220  176.3960  141.2910 C   0  0  0  0  0  2  0  0  0  0  0  0
  191.4030  177.5270  140.9300 N   0  0  0  0  0  2  0  0  0  0  0  0
  191.6430  178.8220  144.0800 C   0  0  0  0  0  1  0  0  0  0  0  0
  191.5060  177.4580  143.4180 C   0  0  1  0  0  3  0  0  0  0  0  0
  190.9630  176.5120  144.3340 O   0  0  0  0  0  0  0  0  0  0  0  0
  188.1860  177.5070  146.4950 N   0  0  0  0  0  0  0  0  0  0  0  0
  190.8500  176.9530  146.7430 C   0  0  0  0  0  3  0  0  0  0  0  0
  188.7910  177.5920  147.7080 C   0  0  0  0  0  0  0  0  0  0  0  0
  188.8870  177.1560  145.3860 C   0  0  0  0  0  3  0  0  0  0  0  0
  188.0350  177.9510  148.8550 N   0  0  0  0  0  1  0  0  0  0  0  0
  190.1150  177.3080  147.8270 N   0  0  0  0  0  0  0  0  0  0  0  0
  190.2480  176.8720  145.4820 C   0  0  0  0  0  0  0  0  0  0  0  0
  187.8760  177.9680  139.1800 C   0  0  0  0  0  2  0  0  0  0  0  0
  189.9500  177.5790  137.7250 C   0  0  2  0  0  3  0  0  0  0  0  0
  187.9740  177.5360  136.4270 C   0  0  0  0  0  2  0  0  0  0  0  0
  189.0760  178.5570  138.4050 C   0  0  1  0  0  3  0  0  0  0  0  0
  189.0330  178.4250  136.9220 N   0  0  1  0  0  0  0  0  0  0  0  0
  189.4370  176.1420  137.6540 C   0  0  1  0  0  3  0  0  0  0  0  0
  188.4770  176.1180  136.4990 C   0  0  0  0  0  2  0  0  0  0  0  0
  190.2830  173.7540  137.4140 N   0  0  0  0  0  1  0  0  0  0  0  0
  190.5410  175.1570  137.4360 C   0  0  0  0  0  0  0  0  0  0  0  0
  191.7250  175.5700  137.3430 O   0  0  0  0  0  0  0  0  0  0  0  0
  1 22  1  6  0  0  0
  1  2  1  0  0  0  0
  1  7  1  0  0  0  0
  2  4  1  0  0  0  0
  3  5  1  0  0  0  0
  4  5  1  0  0  0  0
  5  6  2  0  0  0  0
  7  8  1  0  0  0  0
  9  8  1  1  0  0  0
  9 13  1  0  0  0  0
 10  9  1  0  0  0  0
 11 10  1  0  0  0  0
 11  9  1  0  0  0  0
 13 12  1  1  0  0  0
 13 14  1  0  0  0  0
 14 21  1  0  0  0  0
 15 17  2  0  0  0  0
 16 20  2  0  0  0  0
 17 20  1  0  0  0  0
 17 19  1  0  0  0  0
 18 21  2  0  0  0  0
 18 15  1  0  0  0  0
 21 16  1  0  0  0  0
 23 25  1  0  0  0  0
 24 28  1  0  0  0  0
 24 26  1  0  0  0  0
 25 22  1  0  0  0  0
 26 23  1  0  0  0  0
 26 25  1  0  0  0  0
 27 23  1  0  0  0  0
 28 27  1  0  0  0  0
 29 30  1  0  0  0  0
 30 27  1  0  0  0  0
 31 30  2  0  0  0  0
M  END
>  <MODEL>
9

>  <REMARK>
 VINA RESULT:      -6.9      1.987      6.104
  Name = 
  11 active torsions:
  status: ('A' for Active; 'I' for Inactive)
    1  A    between atoms: N_3  and  N_9
    2  A    between atoms: N_3  and  C_14
    3  A    between atoms: N_5  and  C_12
    4  A    between atoms: N_5  and  C_19
    5  A    between atoms: C_7  and  C_25
    6  A    between atoms: C_12  and  C_29
    7  A    between atoms: C_14  and  C_19
    8  A    between atoms: C_14  and  C_30
    9  A    between atoms: O_16  and  C_29
   10  A    between atoms: O_16  and  C_31
   11  A    between atoms: C_21  and  C_30
                            x       y       z     vdW  Elec       q    Type
                         _______ _______ _______ _____ _____    ______ ____

>  <TORSDO>
F 11

$$$$
