=
 OpenBabel10232408513D

 25 28  0  0  1  0  0  0  0  0999 V2000
  191.2620  176.3690  146.7080 C   0  0  0  0  0  0  0  0  0  0  0  0
  189.9450  176.4800  146.9640 N   0  0  0  0  0  0  0  0  0  0  0  0
  190.4320  177.7410  145.2620 C   0  0  0  0  0  0  0  0  0  0  0  0
  191.6320  177.1620  145.6360 C   0  0  0  0  0  3  0  0  0  0  0  0
  189.4360  177.3190  146.0770 N   0  0  0  0  0  0  0  0  0  0  0  0
  187.3070  177.5120  144.7850 C   0  0  0  0  0  3  0  0  0  0  0  0
  187.5040  178.1220  147.1920 C   0  0  0  0  0  3  0  0  0  0  0  0
  186.0470  177.7860  144.4640 C   0  0  0  0  0  3  0  0  0  0  0  0
  186.1590  178.5400  147.4320 N   0  0  0  0  0  0  0  0  0  0  0  0
  183.7880  178.5610  144.6510 F   0  0  0  0  0  0  0  0  0  0  0  0
  185.0330  178.6680  146.5660 C   0  0  0  0  0  3  0  0  0  0  0  0
  184.9720  178.3550  145.2760 C   0  0  0  0  0  0  0  0  0  0  0  0
  188.0430  177.6880  146.0490 C   0  0  1  0  0  3  0  0  0  0  0  0
  192.1820  175.5310  147.4770 C   0  0  0  0  0  3  0  0  0  0  0  0
  192.9230  176.0410  148.4030 N   0  0  0  0  0  2  0  0  0  0  0  0
  190.3110  178.7920  144.2020 C   0  0  0  0  0  2  0  0  0  0  0  0
  188.5680  177.2850  139.7610 O   0  0  0  0  0  0  0  0  0  0  0  0
  189.3030  178.0670  142.0180 C   0  0  0  0  0  3  0  0  0  0  0  0
  191.6940  177.7510  142.3740 C   0  0  0  0  0  3  0  0  0  0  0  0
  190.7140  177.1040  140.3430 C   0  0  0  0  0  0  0  0  0  0  0  0
  190.4340  178.1840  142.8470 C   0  0  0  0  0  0  0  0  0  0  0  0
  191.8170  177.2130  141.1230 N   0  0  0  0  0  0  0  0  0  0  0  0
  189.2440  176.6950  138.6400 C   0  0  0  0  0  3  0  0  0  0  0  0
  190.6600  176.5790  139.0310 N   0  0  0  0  0  0  0  0  0  0  0  0
  189.4930  177.5120  140.7580 C   0  0  0  0  0  0  0  0  0  0  0  0
  1  2  2  0  0  0  0
  1 14  1  0  0  0  0
  3  4  2  0  0  0  0
  3  5  1  0  0  0  0
  4  1  1  0  0  0  0
  5  2  1  0  0  0  0
  7  9  2  0  0  0  0
  8  6  2  0  0  0  0
  8 12  1  0  0  0  0
 10 12  1  0  0  0  0
 11  9  1  0  0  0  0
 12 11  2  0  0  0  0
 13  6  1  1  0  0  0
 13  5  1  0  0  0  0
 13  7  1  0  0  0  0
 14 15  2  0  0  0  0
 16  3  1  0  0  0  0
 17 25  1  0  0  0  0
 18 21  1  0  0  0  0
 19 21  2  0  0  0  0
 20 25  1  0  0  0  0
 20 22  2  0  0  0  0
 21 16  1  0  0  0  0
 22 19  1  0  0  0  0
 23 24  2  0  0  0  0
 23 17  1  0  0  0  0
 24 20  1  0  0  0  0
 25 18  2  0  0  0  0
M  END
>  <MODEL>
1

>  <REMARK>
 VINA RESULT:      -8.8      0.000      0.000
  Name = 
  4 active torsions:
  status: ('A' for Active; 'I' for Inactive)
    1  A    between atoms: C_1  and  C_4
    2  A    between atoms: C_7  and  C_14
    3  A    between atoms: C_7  and  C_15
    4  A    between atoms: N_19  and  C_24
                            x       y       z     vdW  Elec       q    Type
                         _______ _______ _______ _____ _____    ______ ____

>  <TORSDO>
F 4

$$$$
=
 OpenBabel10232408513D

 25 28  0  0  1  0  0  0  0  0999 V2000
  191.1760  176.3350  146.8010 C   0  0  0  0  0  0  0  0  0  0  0  0
  189.8580  176.4810  147.0350 N   0  0  0  0  0  0  0  0  0  0  0  0
  190.4000  177.7030  145.3200 C   0  0  0  0  0  0  0  0  0  0  0  0
  191.5800  177.1020  145.7220 C   0  0  0  0  0  3  0  0  0  0  0  0
  189.3830  177.3180  146.1270 N   0  0  0  0  0  0  0  0  0  0  0  0
  187.2620  177.4890  144.8170 C   0  0  0  0  0  3  0  0  0  0  0  0
  187.4670  178.2310  147.1860 C   0  0  0  0  0  3  0  0  0  0  0  0
  186.0110  177.7750  144.4750 C   0  0  0  0  0  3  0  0  0  0  0  0
  186.1330  178.6960  147.3960 N   0  0  0  0  0  0  0  0  0  0  0  0
  183.7710  178.6150  144.6080 F   0  0  0  0  0  0  0  0  0  0  0  0
  185.0120  178.8020  146.5190 C   0  0  0  0  0  3  0  0  0  0  0  0
  184.9470  178.4160  145.2500 C   0  0  0  0  0  0  0  0  0  0  0  0
  187.9990  177.7190  146.0720 C   0  0  1  0  0  3  0  0  0  0  0  0
  192.0640  175.4880  147.5970 C   0  0  0  0  0  3  0  0  0  0  0  0
  192.9920  176.0090  148.3300 N   0  0  0  0  0  2  0  0  0  0  0  0
  190.3200  178.7390  144.2430 C   0  0  0  0  0  2  0  0  0  0  0  0
  192.6630  177.2540  140.0790 O   0  0  0  0  0  0  0  0  0  0  0  0
  191.6140  178.0630  142.1990 C   0  0  0  0  0  3  0  0  0  0  0  0
  189.2450  177.5000  142.3320 C   0  0  0  0  0  3  0  0  0  0  0  0
  190.4970  176.8740  140.4490 C   0  0  0  0  0  0  0  0  0  0  0  0
  190.3940  178.1000  142.8980 C   0  0  0  0  0  0  0  0  0  0  0  0
  189.3120  176.8940  141.1080 N   0  0  0  0  0  0  0  0  0  0  0  0
  192.1760  176.5390  138.9340 C   0  0  0  0  0  3  0  0  0  0  0  0
  190.7460  176.2900  139.1850 N   0  0  0  0  0  0  0  0  0  0  0  0
  191.6180  177.4310  140.9600 C   0  0  0  0  0  0  0  0  0  0  0  0
  1  2  2  0  0  0  0
  1 14  1  0  0  0  0
  3  4  2  0  0  0  0
  3  5  1  0  0  0  0
  4  1  1  0  0  0  0
  5  2  1  0  0  0  0
  7  9  2  0  0  0  0
  8  6  2  0  0  0  0
  8 12  1  0  0  0  0
 10 12  1  0  0  0  0
 11  9  1  0  0  0  0
 12 11  2  0  0  0  0
 13  6  1  1  0  0  0
 13  5  1  0  0  0  0
 13  7  1  0  0  0  0
 14 15  2  0  0  0  0
 16  3  1  0  0  0  0
 17 25  1  0  0  0  0
 18 21  1  0  0  0  0
 19 21  2  0  0  0  0
 20 25  1  0  0  0  0
 20 22  2  0  0  0  0
 21 16  1  0  0  0  0
 22 19  1  0  0  0  0
 23 24  2  0  0  0  0
 23 17  1  0  0  0  0
 24 20  1  0  0  0  0
 25 18  2  0  0  0  0
M  END
>  <MODEL>
2

>  <REMARK>
 VINA RESULT:      -8.6      1.095      1.391
  Name = 
  4 active torsions:
  status: ('A' for Active; 'I' for Inactive)
    1  A    between atoms: C_1  and  C_4
    2  A    between atoms: C_7  and  C_14
    3  A    between atoms: C_7  and  C_15
    4  A    between atoms: N_19  and  C_24
                            x       y       z     vdW  Elec       q    Type
                         _______ _______ _______ _____ _____    ______ ____

>  <TORSDO>
F 4

$$$$
=
 OpenBabel10232408513D

 25 28  0  0  0  0  0  0  0  0999 V2000
  190.8540  176.5150  146.6700 C   0  0  0  0  0  0  0  0  0  0  0  0
  189.5110  176.6120  146.6920 N   0  0  0  0  0  0  0  0  0  0  0  0
  190.2690  177.8310  145.0600 C   0  0  0  0  0  0  0  0  0  0  0  0
  191.3930  177.2830  145.6530 C   0  0  0  0  0  3  0  0  0  0  0  0
  189.1530  177.4170  145.7060 N   0  0  0  0  0  0  0  0  0  0  0  0
  186.9870  178.3670  146.5110 C   0  0  0  0  0  3  0  0  0  0  0  0
  187.3380  177.5470  144.1850 C   0  0  0  0  0  3  0  0  0  0  0  0
  185.7160  178.7540  146.5490 C   0  0  0  0  0  2  0  0  0  0  0  0
  186.0360  177.8020  143.6540 N   0  0  0  0  0  0  0  0  0  0  0  0
  183.4520  179.1380  145.8660 F   0  0  0  0  0  0  0  0  0  0  0  0
  184.8420  178.2960  144.2570 C   0  0  0  0  0  3  0  0  0  0  0  0
  184.6850  178.7040  145.5120 C   0  0  0  0  0  0  0  0  0  0  0  0
  187.7800  177.7610  145.4270 C   0  0  0  0  0  0  0  0  0  0  0  0
  191.6370  175.7150  147.6110 C   0  0  0  0  0  3  0  0  0  0  0  0
  192.7190  176.1850  148.1360 N   0  0  0  0  0  2  0  0  0  0  0  0
  190.3190  178.8480  143.9630 C   0  0  0  0  0  2  0  0  0  0  0  0
  188.7350  177.2040  139.5110 O   0  0  0  0  0  0  0  0  0  0  0  0
  189.3900  178.0590  141.7660 C   0  0  0  0  0  3  0  0  0  0  0  0
  191.7540  177.6980  142.2420 C   0  0  0  0  0  3  0  0  0  0  0  0
  190.8470  176.9930  140.1960 C   0  0  0  0  0  0  0  0  0  0  0  0
  190.4860  178.1820  142.6390 C   0  0  0  0  0  0  0  0  0  0  0  0
  191.9170  177.1060  141.0210 N   0  0  0  0  0  0  0  0  0  0  0  0
  189.4440  176.5510  138.4460 C   0  0  0  0  0  3  0  0  0  0  0  0
  190.8370  176.4160  138.9060 N   0  0  0  0  0  0  0  0  0  0  0  0
  189.6200  177.4480  140.5390 C   0  0  0  0  0  0  0  0  0  0  0  0
  1  2  2  0  0  0  0
  1 14  1  0  0  0  0
  3  4  2  0  0  0  0
  3  5  1  0  0  0  0
  4  1  1  0  0  0  0
  5  2  1  0  0  0  0
  6  8  1  0  0  0  0
  7 13  1  0  0  0  0
  9  7  2  0  0  0  0
  9 11  1  0  0  0  0
 11 12  2  0  0  0  0
 12 10  1  0  0  0  0
 12  8  1  0  0  0  0
 13  5  1  0  0  0  0
 13  6  2  0  0  0  0
 14 15  2  0  0  0  0
 16  3  1  0  0  0  0
 17 25  1  0  0  0  0
 18 21  1  0  0  0  0
 19 21  2  0  0  0  0
 20 25  1  0  0  0  0
 20 22  2  0  0  0  0
 21 16  1  0  0  0  0
 22 19  1  0  0  0  0
 23 24  2  0  0  0  0
 23 17  1  0  0  0  0
 24 20  1  0  0  0  0
 25 18  2  0  0  0  0
M  END
>  <MODEL>
3

>  <REMARK>
 VINA RESULT:      -8.1      0.940      1.320
  Name = 
  4 active torsions:
  status: ('A' for Active; 'I' for Inactive)
    1  A    between atoms: C_1  and  C_4
    2  A    between atoms: C_7  and  C_14
    3  A    between atoms: C_7  and  C_15
    4  A    between atoms: N_19  and  C_24
                            x       y       z     vdW  Elec       q    Type
                         _______ _______ _______ _____ _____    ______ ____

>  <TORSDO>
F 4

$$$$
=
 OpenBabel10232408513D

 25 28  0  0  0  0  0  0  0  0999 V2000
  189.9260  176.8730  139.7380 C   0  0  0  0  0  0  0  0  0  0  0  0
  188.6680  177.0400  140.1870 N   0  0  0  0  0  0  0  0  0  0  0  0
  190.0360  178.0050  141.5740 C   0  0  0  0  0  0  0  0  0  0  0  0
  190.8430  177.4600  140.5910 C   0  0  0  0  0  3  0  0  0  0  0  0
  188.7350  177.7350  141.3110 N   0  0  0  0  0  0  0  0  0  0  0  0
  187.4350  177.5310  143.4350 C   0  0  0  0  0  3  0  0  0  0  0  0
  186.7230  178.9700  141.5300 C   0  0  0  0  0  3  0  0  0  0  0  0
  186.4760  177.6670  144.3440 C   0  0  0  0  0  2  0  0  0  0  0  0
  185.5130  179.4940  142.0800 N   0  0  0  0  0  0  0  0  0  0  0  0
  184.4220  178.3470  145.3740 F   0  0  0  0  0  0  0  0  0  0  0  0
  184.8340  179.2340  143.3080 C   0  0  0  0  0  3  0  0  0  0  0  0
  185.2340  178.4390  144.2930 C   0  0  0  0  0  0  0  0  0  0  0  0
  187.5730  178.1000  142.0830 C   0  0  0  0  0  0  0  0  0  0  0  0
  190.2730  176.1480  138.5150 C   0  0  0  0  0  3  0  0  0  0  0  0
  191.3080  175.3770  138.4760 N   0  0  0  0  0  2  0  0  0  0  0  0
  190.5610  178.6610  142.8120 C   0  0  0  0  0  2  0  0  0  0  0  0
  191.7490  176.9260  147.3520 O   0  0  0  0  0  0  0  0  0  0  0  0
  191.1280  177.9210  145.1450 C   0  0  0  0  0  3  0  0  0  0  0  0
  191.4820  176.3690  143.2980 C   0  0  0  0  0  3  0  0  0  0  0  0
  191.9820  175.7130  145.4950 C   0  0  0  0  0  0  0  0  0  0  0  0
  191.0750  177.6390  143.7680 C   0  0  0  0  0  0  0  0  0  0  0  0
  191.9330  175.4190  144.1720 N   0  0  0  0  0  0  0  0  0  0  0  0
  192.2640  175.6500  147.7620 C   0  0  0  0  0  3  0  0  0  0  0  0
  192.4150  174.8550  146.5310 N   0  0  0  0  0  0  0  0  0  0  0  0
  191.5960  176.9140  145.9820 C   0  0  0  0  0  0  0  0  0  0  0  0
  1  2  2  0  0  0  0
  1  4  1  0  0  0  0
  2  5  1  0  0  0  0
  3 16  1  0  0  0  0
  4  3  2  0  0  0  0
  5  3  1  0  0  0  0
  5 13  1  0  0  0  0
  6  8  1  0  0  0  0
  7  9  2  0  0  0  0
  7 13  1  0  0  0  0
  9 11  1  0  0  0  0
 11 12  2  0  0  0  0
 12  8  1  0  0  0  0
 12 10  1  0  0  0  0
 13  6  2  0  0  0  0
 14  1  1  0  0  0  0
 15 14  2  0  0  0  0
 16 21  1  0  0  0  0
 17 23  1  0  0  0  0
 18 25  2  0  0  0  0
 19 21  2  0  0  0  0
 19 22  1  0  0  0  0
 20 25  1  0  0  0  0
 20 24  1  0  0  0  0
 21 18  1  0  0  0  0
 22 20  2  0  0  0  0
 24 23  2  0  0  0  0
 25 17  1  0  0  0  0
M  END
>  <MODEL>
4

>  <REMARK>
 VINA RESULT:      -7.6      2.610      5.514
  Name = 
  4 active torsions:
  status: ('A' for Active; 'I' for Inactive)
    1  A    between atoms: C_1  and  C_4
    2  A    between atoms: C_7  and  C_14
    3  A    between atoms: C_7  and  C_15
    4  A    between atoms: N_19  and  C_24
                            x       y       z     vdW  Elec       q    Type
                         _______ _______ _______ _____ _____    ______ ____

>  <TORSDO>
F 4

$$$$
=
 OpenBabel10232408513D

 25 28  0  0  0  0  0  0  0  0999 V2000
  188.4050  178.3820  140.5680 C   0  0  0  0  0  0  0  0  0  0  0  0
  187.1370  178.8170  140.6870 N   0  0  0  0  0  0  0  0  0  0  0  0
  187.5310  177.3810  142.2710 C   0  0  0  0  0  0  0  0  0  0  0  0
  188.7090  177.4530  141.5490 C   0  0  0  0  0  3  0  0  0  0  0  0
  186.6010  178.2050  141.7310 N   0  0  0  0  0  0  0  0  0  0  0  0
  185.0030  178.7030  143.5860 C   0  0  0  0  0  3  0  0  0  0  0  0
  184.2940  178.3960  141.2180 C   0  0  0  0  0  3  0  0  0  0  0  0
  183.8760  178.9120  144.2570 C   0  0  0  0  0  2  0  0  0  0  0  0
  182.8860  178.5830  141.3750 N   0  0  0  0  0  0  0  0  0  0  0  0
  181.5370  179.1320  144.7270 F   0  0  0  0  0  0  0  0  0  0  0  0
  182.0780  178.7970  142.5310 C   0  0  0  0  0  3  0  0  0  0  0  0
  182.4910  178.9330  143.7860 C   0  0  0  0  0  0  0  0  0  0  0  0
  185.2420  178.4210  142.1600 C   0  0  0  0  0  0  0  0  0  0  0  0
  189.3320  178.8220  139.5260 C   0  0  0  0  0  3  0  0  0  0  0  0
  188.9120  179.0760  138.3320 N   0  0  0  0  0  2  0  0  0  0  0  0
  187.2980  176.4140  143.3900 C   0  0  0  0  0  2  0  0  0  0  0  0
  187.3460  178.0610  148.1140 O   0  0  0  0  0  0  0  0  0  0  0  0
  187.1780  177.2470  145.7560 C   0  0  0  0  0  3  0  0  0  0  0  0
  189.3660  176.9600  144.7190 C   0  0  0  0  0  3  0  0  0  0  0  0
  189.2070  177.7200  146.9330 C   0  0  0  0  0  0  0  0  0  0  0  0
  187.9560  176.8920  144.6390 C   0  0  0  0  0  0  0  0  0  0  0  0
  189.9750  177.3760  145.8700 N   0  0  0  0  0  0  0  0  0  0  0  0
  188.4420  178.3930  148.9790 C   0  0  0  0  0  3  0  0  0  0  0  0
  189.6670  178.1650  148.1940 N   0  0  0  0  0  0  0  0  0  0  0  0
  187.8560  177.6620  146.8970 C   0  0  0  0  0  0  0  0  0  0  0  0
  1  2  2  0  0  0  0
  1  4  1  0  0  0  0
  2  5  1  0  0  0  0
  3 16  1  0  0  0  0
  4  3  2  0  0  0  0
  5 13  1  0  0  0  0
  5  3  1  0  0  0  0
  6  8  1  0  0  0  0
  7  9  2  0  0  0  0
  7 13  1  0  0  0  0
  9 11  1  0  0  0  0
 11 12  2  0  0  0  0
 12  8  1  0  0  0  0
 12 10  1  0  0  0  0
 13  6  2  0  0  0  0
 14  1  1  0  0  0  0
 15 14  2  0  0  0  0
 16 21  1  0  0  0  0
 17 23  1  0  0  0  0
 18 25  2  0  0  0  0
 19 22  1  0  0  0  0
 20 24  1  0  0  0  0
 21 19  2  0  0  0  0
 21 18  1  0  0  0  0
 22 20  2  0  0  0  0
 24 23  2  0  0  0  0
 25 20  1  0  0  0  0
 25 17  1  0  0  0  0
M  END
>  <MODEL>
5

>  <REMARK>
 VINA RESULT:      -7.6      3.224      6.298
  Name = 
  4 active torsions:
  status: ('A' for Active; 'I' for Inactive)
    1  A    between atoms: C_1  and  C_4
    2  A    between atoms: C_7  and  C_14
    3  A    between atoms: C_7  and  C_15
    4  A    between atoms: N_19  and  C_24
                            x       y       z     vdW  Elec       q    Type
                         _______ _______ _______ _____ _____    ______ ____

>  <TORSDO>
F 4

$$$$
=
 OpenBabel10232408513D

 25 28  0  0  0  0  0  0  0  0999 V2000
  188.0260  178.4380  140.5500 C   0  0  0  0  0  0  0  0  0  0  0  0
  186.7110  178.7240  140.5250 N   0  0  0  0  0  0  0  0  0  0  0  0
  187.2050  177.8930  142.4720 C   0  0  0  0  0  0  0  0  0  0  0  0
  188.3960  177.8930  141.7680 C   0  0  0  0  0  3  0  0  0  0  0  0
  186.2080  178.3920  141.7030 N   0  0  0  0  0  0  0  0  0  0  0  0
  184.4670  178.7700  143.4540 C   0  0  0  0  0  3  0  0  0  0  0  0
  183.9390  178.5360  141.0310 C   0  0  0  0  0  3  0  0  0  0  0  0
  183.2880  178.9210  144.0480 C   0  0  0  0  0  2  0  0  0  0  0  0
  182.5180  178.6770  141.0920 N   0  0  0  0  0  0  0  0  0  0  0  0
  180.9160  179.0560  144.3540 F   0  0  0  0  0  0  0  0  0  0  0  0
  181.6230  178.8230  142.1930 C   0  0  0  0  0  3  0  0  0  0  0  0
  181.9400  178.9210  143.4790 C   0  0  0  0  0  0  0  0  0  0  0  0
  184.8150  178.5520  142.0390 C   0  0  0  0  0  0  0  0  0  0  0  0
  188.9380  178.6590  139.4280 C   0  0  0  0  0  3  0  0  0  0  0  0
  188.4840  178.8260  138.2310 N   0  0  0  0  0  2  0  0  0  0  0  0
  187.0420  177.2840  143.8300 C   0  0  0  0  0  2  0  0  0  0  0  0
  190.1850  177.2480  147.7230 O   0  0  0  0  0  0  0  0  0  0  0  0
  188.5140  177.3200  145.8660 C   0  0  0  0  0  3  0  0  0  0  0  0
  189.4830  176.6760  143.7240 C   0  0  0  0  0  3  0  0  0  0  0  0
  190.8170  176.7070  145.6540 C   0  0  0  0  0  0  0  0  0  0  0  0
  188.3700  177.1020  144.4840 C   0  0  0  0  0  0  0  0  0  0  0  0
  190.6980  176.4850  144.3210 N   0  0  0  0  0  0  0  0  0  0  0  0
  191.5790  176.9130  147.7990 C   0  0  0  0  0  3  0  0  0  0  0  0
  191.9890  176.5570  146.4300 N   0  0  0  0  0  0  0  0  0  0  0  0
  189.7740  177.1090  146.4150 C   0  0  0  0  0  0  0  0  0  0  0  0
  1  4  1  0  0  0  0
  2  1  2  0  0  0  0
  2  5  1  0  0  0  0
  3 16  1  0  0  0  0
  4  3  2  0  0  0  0
  5 13  1  0  0  0  0
  5  3  1  0  0  0  0
  6  8  1  0  0  0  0
  7  9  2  0  0  0  0
  7 13  1  0  0  0  0
  9 11  1  0  0  0  0
 11 12  2  0  0  0  0
 12  8  1  0  0  0  0
 12 10  1  0  0  0  0
 13  6  2  0  0  0  0
 14  1  1  0  0  0  0
 15 14  2  0  0  0  0
 16 21  1  0  0  0  0
 17 23  1  0  0  0  0
 18 25  2  0  0  0  0
 19 22  1  0  0  0  0
 19 21  2  0  0  0  0
 20 25  1  0  0  0  0
 20 24  1  0  0  0  0
 21 18  1  0  0  0  0
 22 20  2  0  0  0  0
 24 23  2  0  0  0  0
 25 17  1  0  0  0  0
M  END
>  <MODEL>
6

>  <REMARK>
 VINA RESULT:      -7.6      3.413      6.113
  Name = 
  4 active torsions:
  status: ('A' for Active; 'I' for Inactive)
    1  A    between atoms: C_1  and  C_4
    2  A    between atoms: C_7  and  C_14
    3  A    between atoms: C_7  and  C_15
    4  A    between atoms: N_19  and  C_24
                            x       y       z     vdW  Elec       q    Type
                         _______ _______ _______ _____ _____    ______ ____

>  <TORSDO>
F 4

$$$$
=
 OpenBabel10232408513D

 25 28  0  0  1  0  0  0  0  0999 V2000
  186.9540  178.4630  141.5690 C   0  0  0  0  0  0  0  0  0  0  0  0
  187.9010  178.4390  140.6120 N   0  0  0  0  0  0  0  0  0  0  0  0
  188.4840  177.0760  142.2030 C   0  0  0  0  0  0  0  0  0  0  0  0
  187.2790  177.6180  142.6160 C   0  0  0  0  0  3  0  0  0  0  0  0
  188.8370  177.5890  141.0000 N   0  0  0  0  0  0  0  0  0  0  0  0
  189.8410  176.8010  138.8520 C   0  0  0  0  0  3  0  0  0  0  0  0
  191.1990  177.5780  140.7900 C   0  0  0  0  0  3  0  0  0  0  0  0
  190.7310  176.4390  137.9330 C   0  0  0  0  0  3  0  0  0  0  0  0
  192.5060  177.4000  140.2390 N   0  0  0  0  0  0  0  0  0  0  0  0
  192.8370  175.9630  136.8950 F   0  0  0  0  0  0  0  0  0  0  0  0
  192.9490  176.8630  138.9940 C   0  0  0  0  0  3  0  0  0  0  0  0
  192.1930  176.4340  137.9900 C   0  0  0  0  0  0  0  0  0  0  0  0
  190.0190  177.3100  140.2230 C   0  0  1  0  0  3  0  0  0  0  0  0
  185.7480  179.2890  141.5130 C   0  0  0  0  0  3  0  0  0  0  0  0
  185.1270  179.4780  140.3960 N   0  0  0  0  0  2  0  0  0  0  0  0
  189.3240  176.1730  143.0510 C   0  0  0  0  0  2  0  0  0  0  0  0
  187.3760  177.8190  147.3550 O   0  0  0  0  0  0  0  0  0  0  0  0
  188.2160  176.9980  145.1490 C   0  0  0  0  0  3  0  0  0  0  0  0
  190.6480  176.8300  145.0890 C   0  0  0  0  0  3  0  0  0  0  0  0
  189.5700  177.5790  147.0340 C   0  0  0  0  0  0  0  0  0  0  0  0
  189.3960  176.6860  144.4490 C   0  0  0  0  0  0  0  0  0  0  0  0
  190.7190  177.2790  146.3780 N   0  0  0  0  0  0  0  0  0  0  0  0
  188.0110  178.2100  148.5820 C   0  0  0  0  0  3  0  0  0  0  0  0
  189.4590  178.0490  148.3620 N   0  0  0  0  0  0  0  0  0  0  0  0
  188.3540  177.4480  146.4570 C   0  0  0  0  0  0  0  0  0  0  0  0
  1  4  1  0  0  0  0
  2  5  1  0  0  0  0
  2  1  2  0  0  0  0
  3  4  2  0  0  0  0
  3 16  1  0  0  0  0
  5  3  1  0  0  0  0
  8 12  1  0  0  0  0
  8  6  2  0  0  0  0
  9  7  2  0  0  0  0
 10 12  1  0  0  0  0
 11  9  1  0  0  0  0
 12 11  2  0  0  0  0
 13  6  1  6  0  0  0
 13  7  1  0  0  0  0
 13  5  1  0  0  0  0
 14  1  1  0  0  0  0
 15 14  2  0  0  0  0
 16 21  1  0  0  0  0
 17 23  1  0  0  0  0
 18 25  2  0  0  0  0
 19 22  1  0  0  0  0
 20 24  1  0  0  0  0
 21 19  2  0  0  0  0
 21 18  1  0  0  0  0
 22 20  2  0  0  0  0
 24 23  2  0  0  0  0
 25 20  1  0  0  0  0
 25 17  1  0  0  0  0
M  END
>  <MODEL>
7

>  <REMARK>
 VINA RESULT:      -7.5      3.669      7.661
  Name = 
  4 active torsions:
  status: ('A' for Active; 'I' for Inactive)
    1  A    between atoms: C_1  and  C_4
    2  A    between atoms: C_7  and  C_14
    3  A    between atoms: C_7  and  C_15
    4  A    between atoms: N_19  and  C_24
                            x       y       z     vdW  Elec       q    Type
                         _______ _______ _______ _____ _____    ______ ____

>  <TORSDO>
F 4

$$$$
=
 OpenBabel10232408513D

 25 28  0  0  0  0  0  0  0  0999 V2000
  184.2720  178.1750  140.8670 C   0  0  0  0  0  0  0  0  0  0  0  0
  184.2730  178.0020  142.2020 N   0  0  0  0  0  0  0  0  0  0  0  0
  186.1870  178.8460  141.6080 C   0  0  0  0  0  0  0  0  0  0  0  0
  185.4750  178.7010  140.4300 C   0  0  0  0  0  3  0  0  0  0  0  0
  185.4450  178.4140  142.6560 N   0  0  0  0  0  0  0  0  0  0  0  0
  186.9950  177.5840  144.4320 C   0  0  0  0  0  3  0  0  0  0  0  0
  185.0690  179.0940  144.8970 C   0  0  0  0  0  3  0  0  0  0  0  0
  187.5390  177.3480  145.6210 C   0  0  0  0  0  2  0  0  0  0  0  0
  185.2190  179.2270  146.3110 N   0  0  0  0  0  0  0  0  0  0  0  0
  187.8710  177.3590  147.9940 F   0  0  0  0  0  0  0  0  0  0  0  0
  186.1290  178.6280  147.2330 C   0  0  0  0  0  3  0  0  0  0  0  0
  187.1320  177.8050  146.9500 C   0  0  0  0  0  0  0  0  0  0  0  0
  185.8100  178.3730  144.0510 C   0  0  0  0  0  0  0  0  0  0  0  0
  183.1500  177.8320  139.9940 C   0  0  0  0  0  3  0  0  0  0  0  0
  182.9500  176.6110  139.6230 N   0  0  0  0  0  2  0  0  0  0  0  0
  187.6190  179.2770  141.6670 C   0  0  0  0  0  2  0  0  0  0  0  0
  189.9920  177.5920  137.5970 O   0  0  0  0  0  0  0  0  0  0  0  0
  188.7440  178.5340  139.5480 C   0  0  0  0  0  3  0  0  0  0  0  0
  189.0710  177.2230  141.5760 C   0  0  0  0  0  3  0  0  0  0  0  0
  190.1170  176.5750  139.5790 C   0  0  0  0  0  0  0  0  0  0  0  0
  188.4830  178.3240  140.9140 C   0  0  0  0  0  0  0  0  0  0  0  0
  189.8830  176.3580  140.8960 N   0  0  0  0  0  0  0  0  0  0  0  0
  190.8500  176.4550  137.4170 C   0  0  0  0  0  3  0  0  0  0  0  0
  190.9280  175.7890  138.7280 N   0  0  0  0  0  0  0  0  0  0  0  0
  189.5780  177.6210  138.9120 C   0  0  0  0  0  0  0  0  0  0  0  0
  1  2  2  0  0  0  0
  2  5  1  0  0  0  0
  3 16  1  0  0  0  0
  3  5  1  0  0  0  0
  4  1  1  0  0  0  0
  4  3  2  0  0  0  0
  5 13  1  0  0  0  0
  6  8  1  0  0  0  0
  7  9  2  0  0  0  0
  8 12  1  0  0  0  0
  9 11  1  0  0  0  0
 12 11  2  0  0  0  0
 12 10  1  0  0  0  0
 13  6  2  0  0  0  0
 13  7  1  0  0  0  0
 14  1  1  0  0  0  0
 15 14  2  0  0  0  0
 17 25  1  0  0  0  0
 18 21  1  0  0  0  0
 20 22  2  0  0  0  0
 21 19  2  0  0  0  0
 21 16  1  0  0  0  0
 22 19  1  0  0  0  0
 23 17  1  0  0  0  0
 23 24  2  0  0  0  0
 24 20  1  0  0  0  0
 25 18  2  0  0  0  0
 25 20  1  0  0  0  0
M  END
>  <MODEL>
8

>  <REMARK>
 VINA RESULT:      -7.5      3.240      5.350
  Name = 
  4 active torsions:
  status: ('A' for Active; 'I' for Inactive)
    1  A    between atoms: C_1  and  C_4
    2  A    between atoms: C_7  and  C_14
    3  A    between atoms: C_7  and  C_15
    4  A    between atoms: N_19  and  C_24
                            x       y       z     vdW  Elec       q    Type
                         _______ _______ _______ _____ _____    ______ ____

>  <TORSDO>
F 4

$$$$
=
 OpenBabel10232408513D

 25 28  0  0  1  0  0  0  0  0999 V2000
  190.7570  176.8500  145.1540 C   0  0  0  0  0  0  0  0  0  0  0  0
  189.4840  176.9610  145.5770 N   0  0  0  0  0  0  0  0  0  0  0  0
  189.6620  177.9400  143.6440 C   0  0  0  0  0  0  0  0  0  0  0  0
  190.9310  177.4680  143.9270 C   0  0  0  0  0  3  0  0  0  0  0  0
  188.8120  177.6280  144.6520 N   0  0  0  0  0  0  0  0  0  0  0  0
  186.5740  177.8300  143.5620 C   0  0  0  0  0  3  0  0  0  0  0  0
  186.9590  178.2740  145.9820 C   0  0  0  0  0  3  0  0  0  0  0  0
  185.2820  178.0770  143.3690 C   0  0  0  0  0  3  0  0  0  0  0  0
  185.6270  178.6230  146.3650 N   0  0  0  0  0  0  0  0  0  0  0  0
  183.0240  178.7490  143.8030 F   0  0  0  0  0  0  0  0  0  0  0  0
  184.4270  178.7690  145.6090 C   0  0  0  0  0  3  0  0  0  0  0  0
  184.2640  178.5450  144.3100 C   0  0  0  0  0  0  0  0  0  0  0  0
  187.4100  177.9430  144.7690 C   0  0  1  0  0  3  0  0  0  0  0  0
  191.8180  176.1790  145.9040 C   0  0  0  0  0  3  0  0  0  0  0  0
  192.0330  176.4660  147.1440 N   0  0  0  0  0  2  0  0  0  0  0  0
  189.3380  178.7980  142.4610 C   0  0  0  0  0  2  0  0  0  0  0  0
  187.5830  177.2700  138.0320 O   0  0  0  0  0  0  0  0  0  0  0  0
  188.3370  178.1070  140.2630 C   0  0  0  0  0  3  0  0  0  0  0  0
  190.4670  177.1350  140.9440 C   0  0  0  0  0  3  0  0  0  0  0  0
  189.5040  176.5310  138.8910 C   0  0  0  0  0  0  0  0  0  0  0  0
  189.3740  177.9930  141.2060 C   0  0  0  0  0  0  0  0  0  0  0  0
  190.5160  176.4110  139.7850 N   0  0  0  0  0  0  0  0  0  0  0  0
  188.1280  176.3480  137.0750 C   0  0  0  0  0  3  0  0  0  0  0  0
  189.3950  175.8650  137.6490 N   0  0  0  0  0  0  0  0  0  0  0  0
  188.4460  177.3460  139.1040 C   0  0  0  0  0  0  0  0  0  0  0  0
  1  2  2  0  0  0  0
  1 14  1  0  0  0  0
  3  4  2  0  0  0  0
  3  5  1  0  0  0  0
  4  1  1  0  0  0  0
  5 13  1  0  0  0  0
  5  2  1  0  0  0  0
  7  9  2  0  0  0  0
  8  6  2  0  0  0  0
  8 12  1  0  0  0  0
 10 12  1  0  0  0  0
 11  9  1  0  0  0  0
 12 11  2  0  0  0  0
 13  6  1  1  0  0  0
 13  7  1  0  0  0  0
 14 15  2  0  0  0  0
 16  3  1  0  0  0  0
 17 25  1  0  0  0  0
 18 21  1  0  0  0  0
 19 21  2  0  0  0  0
 20 25  1  0  0  0  0
 20 22  2  0  0  0  0
 21 16  1  0  0  0  0
 22 19  1  0  0  0  0
 23 24  2  0  0  0  0
 23 17  1  0  0  0  0
 24 20  1  0  0  0  0
 25 18  2  0  0  0  0
M  END
>  <MODEL>
9

>  <REMARK>
 VINA RESULT:      -7.4      1.224      1.709
  Name = 
  4 active torsions:
  status: ('A' for Active; 'I' for Inactive)
    1  A    between atoms: C_1  and  C_4
    2  A    between atoms: C_7  and  C_14
    3  A    between atoms: C_7  and  C_15
    4  A    between atoms: N_19  and  C_24
                            x       y       z     vdW  Elec       q    Type
                         _______ _______ _______ _____ _____    ______ ____

>  <TORSDO>
F 4

$$$$
