=
 OpenBabel10232411383D

 27 29  0  0  1  0  0  0  0  0999 V2000
  190.8250  176.7930  138.5460 C   0  0  0  0  0  0  0  0  0  0  0  0
  187.4370  178.1040  141.2780 C   0  0  0  0  0  0  0  0  0  0  0  0
  192.0770  176.1350  138.0930 C   0  0  0  0  0  1  0  0  0  0  0  0
  190.1220  177.4970  137.6950 N   0  0  0  0  0  0  0  0  0  0  0  0
  186.5230  178.3680  142.2930 C   0  0  0  0  0  3  0  0  0  0  0  0
  188.8390  176.7730  142.7460 C   0  0  0  0  0  0  0  0  0  0  0  0
  188.8600  178.2080  137.9910 C   0  0  2  0  0  3  0  0  0  0  0  0
  190.4070  176.6450  139.9130 N   0  0  0  0  0  2  0  0  0  0  0  0
  186.7710  177.8210  143.5700 C   0  0  0  0  0  0  0  0  0  0  0  0
  188.5560  177.3320  141.5010 C   0  0  0  0  0  0  0  0  0  0  0  0
  187.9240  177.0280  143.7880 C   0  0  0  0  0  3  0  0  0  0  0  0
  189.0210  179.6210  137.6990 N   0  0  0  0  0  1  0  0  0  0  0  0
  187.3870  178.5170  140.0250 O   0  0  0  0  0  0  0  0  0  0  0  0
  188.4550  178.0320  139.4210 C   0  0  0  0  0  0  0  0  0  0  0  0
  189.2030  177.2950  140.2930 C   0  0  0  0  0  0  0  0  0  0  0  0
  185.8290  178.0760  144.6710 C   0  0  0  0  0  0  0  0  0  0  0  0
  184.6330  178.7430  144.4310 O   0  0  0  0  0  0  0  0  0  0  0  0
  186.0960  177.6940  145.8420 O   0  0  0  0  0  1  0  0  0  0  0  0
  190.0090  175.9740  142.9440 N   0  0  0  0  0  2  0  0  0  0  0  0
  191.2910  176.5210  143.3690 C   0  0  0  0  0  2  0  0  0  0  0  0
  191.4990  178.9510  143.9840 C   0  0  0  0  0  1  0  0  0  0  0  0
  191.0910  177.5660  144.4600 C   0  0  2  0  0  3  0  0  0  0  0  0
  191.8120  177.1990  145.6760 N   0  0  0  0  0  2  0  0  0  0  0  0
  191.2150  176.8010  146.9190 C   0  0  0  0  0  0  0  0  0  0  0  0
  191.9780  176.4930  147.9130 N   0  0  0  0  0  2  0  0  0  0  0  0
  189.2980  177.8830  148.0380 C   0  0  0  0  0  1  0  0  0  0  0  0
  189.7330  176.7720  147.1020 C   0  0  0  0  0  2  0  0  0  0  0  0
  1  8  1  0  0  0  0
  2 10  2  0  0  0  0
  2  5  1  0  0  0  0
  3  1  1  0  0  0  0
  4  7  1  0  0  0  0
  4  1  2  0  0  0  0
  5  9  2  0  0  0  0
  6 19  1  0  0  0  0
  6 11  2  0  0  0  0
  7 12  1  1  0  0  0
  7 14  1  0  0  0  0
  8 15  1  0  0  0  0
  9 11  1  0  0  0  0
  9 16  1  0  0  0  0
 10  6  1  0  0  0  0
 13  2  1  0  0  0  0
 14 13  1  0  0  0  0
 14 15  2  0  0  0  0
 15 10  1  0  0  0  0
 16 18  1  0  0  0  0
 17 16  2  0  0  0  0
 19 20  1  0  0  0  0
 20 22  1  0  0  0  0
 22 21  1  6  0  0  0
 22 23  1  0  0  0  0
 23 24  1  0  0  0  0
 24 27  1  0  0  0  0
 24 25  2  0  0  0  0
 27 26  1  0  0  0  0
M  END
>  <MODEL>
1

>  <REMARK>
 VINA RESULT:      -9.1      0.000      0.000
  Name = 
  6 active torsions:
  status: ('A' for Active; 'I' for Inactive)
    1  A    between atoms: N_3  and  C_13
    2  A    between atoms: C_7  and  N_16
    3  A    between atoms: C_11  and  C_27
    4  A    between atoms: C_13  and  C_21
    5  A    between atoms: C_15  and  C_20
    6  A    between atoms: N_16  and  C_21
                            x       y       z     vdW  Elec       q    Type
                         _______ _______ _______ _____ _____    ______ ____

>  <TORSDO>
F 6

$$$$
=
 OpenBabel10232411383D

 27 29  0  0  1  0  0  0  0  0999 V2000
  185.8290  178.2480  143.4140 C   0  0  0  0  0  0  0  0  0  0  0  0
  188.7790  177.1780  146.7020 C   0  0  0  0  0  0  0  0  0  0  0  0
  185.2960  178.5420  142.0580 C   0  0  0  0  0  1  0  0  0  0  0  0
  185.0230  178.2790  144.4440 N   0  0  0  0  0  0  0  0  0  0  0  0
  189.8530  176.8370  147.5180 C   0  0  0  0  0  3  0  0  0  0  0  0
  190.1580  177.1610  144.7040 C   0  0  0  0  0  0  0  0  0  0  0  0
  185.4000  178.0110  145.8480 C   0  0  2  0  0  3  0  0  0  0  0  0
  187.2240  177.9360  143.5680 N   0  0  0  0  0  2  0  0  0  0  0  0
  191.1150  176.6510  146.9130 C   0  0  0  0  0  0  0  0  0  0  0  0
  188.9300  177.3350  145.3410 C   0  0  0  0  0  0  0  0  0  0  0  0
  191.2590  176.8130  145.5130 C   0  0  0  0  0  3  0  0  0  0  0  0
  185.0840  179.1700  146.6630 N   0  0  0  0  0  1  0  0  0  0  0  0
  187.5300  177.3930  147.0680 O   0  0  0  0  0  0  0  0  0  0  0  0
  186.8560  177.6890  145.9730 C   0  0  0  0  0  0  0  0  0  0  0  0
  187.6810  177.6640  144.8850 C   0  0  0  0  0  0  0  0  0  0  0  0
  192.2770  176.2890  147.7400 C   0  0  0  0  0  0  0  0  0  0  0  0
  192.6420  177.0820  148.8220 O   0  0  0  0  0  1  0  0  0  0  0  0
  192.9520  175.2580  147.4760 O   0  0  0  0  0  0  0  0  0  0  0  0
  190.2810  177.3280  143.2880 N   0  0  0  0  0  2  0  0  0  0  0  0
  190.2100  176.2230  142.3420 C   0  0  0  0  0  2  0  0  0  0  0  0
  191.6040  177.4630  140.6540 C   0  0  0  0  0  1  0  0  0  0  0  0
  190.2920  176.7380  140.9100 C   0  0  2  0  0  3  0  0  0  0  0  0
  189.1520  177.5940  140.5950 N   0  0  0  0  0  2  0  0  0  0  0  0
  188.5120  177.7030  139.3160 C   0  0  0  0  0  0  0  0  0  0  0  0
  187.5030  178.4970  139.1830 N   0  0  0  0  0  2  0  0  0  0  0  0
  189.3320  177.9100  136.9950 C   0  0  0  0  0  1  0  0  0  0  0  0
  189.0080  176.9510  138.1240 C   0  0  0  0  0  2  0  0  0  0  0  0
  1  8  1  0  0  0  0
  1  4  2  0  0  0  0
  2 13  1  0  0  0  0
  2  5  1  0  0  0  0
  3  1  1  0  0  0  0
  4  7  1  0  0  0  0
  6 10  1  0  0  0  0
  6 11  2  0  0  0  0
  7 14  1  0  0  0  0
  7 12  1  1  0  0  0
  8 15  1  0  0  0  0
  9  5  2  0  0  0  0
  9 16  1  0  0  0  0
 10  2  2  0  0  0  0
 11  9  1  0  0  0  0
 14 13  1  0  0  0  0
 15 10  1  0  0  0  0
 15 14  2  0  0  0  0
 16 17  1  0  0  0  0
 18 16  2  0  0  0  0
 19  6  1  0  0  0  0
 20 19  1  0  0  0  0
 22 21  1  1  0  0  0
 22 20  1  0  0  0  0
 23 22  1  0  0  0  0
 24 23  1  0  0  0  0
 25 24  2  0  0  0  0
 26 27  1  0  0  0  0
 27 24  1  0  0  0  0
M  END
>  <MODEL>
2

>  <REMARK>
 VINA RESULT:      -8.9      3.020      6.870
  Name = 
  6 active torsions:
  status: ('A' for Active; 'I' for Inactive)
    1  A    between atoms: N_3  and  C_13
    2  A    between atoms: C_7  and  N_16
    3  A    between atoms: C_11  and  C_27
    4  A    between atoms: C_13  and  C_21
    5  A    between atoms: C_15  and  C_20
    6  A    between atoms: N_16  and  C_21
                            x       y       z     vdW  Elec       q    Type
                         _______ _______ _______ _____ _____    ______ ____

>  <TORSDO>
F 6

$$$$
=
 OpenBabel10232411383D

 27 29  0  0  1  0  0  0  0  0999 V2000
  186.2960  178.0580  144.6120 C   0  0  0  0  0  0  0  0  0  0  0  0
  187.8280  178.1890  140.3360 C   0  0  0  0  0  0  0  0  0  0  0  0
  186.2290  177.7400  146.0620 C   0  0  0  0  0  1  0  0  0  0  0  0
  185.3470  178.7760  144.0660 N   0  0  0  0  0  0  0  0  0  0  0  0
  188.4930  178.0910  139.1170 C   0  0  0  0  0  3  0  0  0  0  0  0
  189.5130  176.8680  141.4790 C   0  0  0  0  0  0  0  0  0  0  0  0
  185.2710  179.1740  142.6440 C   0  0  2  0  0  3  0  0  0  0  0  0
  187.4020  177.5710  143.8350 N   0  0  0  0  0  2  0  0  0  0  0  0
  189.7010  177.3620  139.0760 C   0  0  0  0  0  0  0  0  0  0  0  0
  188.3240  177.5960  141.4760 C   0  0  0  0  0  0  0  0  0  0  0  0
  190.2030  176.7570  140.2550 C   0  0  0  0  0  3  0  0  0  0  0  0
  184.0350  178.6770  142.0670 N   0  0  0  0  0  1  0  0  0  0  0  0
  186.6950  178.8200  140.5820 O   0  0  0  0  0  0  0  0  0  0  0  0
  186.4370  178.6510  141.8660 C   0  0  0  0  0  0  0  0  0  0  0  0
  187.4160  177.9030  142.4550 C   0  0  0  0  0  0  0  0  0  0  0  0
  190.4360  177.2340  137.8080 C   0  0  0  0  0  0  0  0  0  0  0  0
  191.7320  176.7320  137.7950 O   0  0  0  0  0  1  0  0  0  0  0  0
  189.8980  177.5790  136.7210 O   0  0  0  0  0  0  0  0  0  0  0  0
  190.0020  176.2660  142.6820 N   0  0  0  0  0  2  0  0  0  0  0  0
  191.2540  176.6520  143.3180 C   0  0  0  0  0  2  0  0  0  0  0  0
  191.3010  179.0720  144.0020 C   0  0  0  0  0  1  0  0  0  0  0  0
  190.9990  177.6490  144.4420 C   0  0  2  0  0  3  0  0  0  0  0  0
  191.7630  177.2980  145.6370 N   0  0  0  0  0  2  0  0  0  0  0  0
  191.2110  176.8800  146.8940 C   0  0  0  0  0  0  0  0  0  0  0  0
  192.0100  176.5910  147.8650 N   0  0  0  0  0  2  0  0  0  0  0  0
  189.3010  177.8780  148.0990 C   0  0  0  0  0  1  0  0  0  0  0  0
  189.7360  176.8080  147.1170 C   0  0  0  0  0  2  0  0  0  0  0  0
  1  3  1  0  0  0  0
  2 13  1  0  0  0  0
  2 10  1  0  0  0  0
  4  1  2  0  0  0  0
  5  2  2  0  0  0  0
  6 19  1  0  0  0  0
  7 12  1  6  0  0  0
  7  4  1  0  0  0  0
  8  1  1  0  0  0  0
  9  5  1  0  0  0  0
  9 11  2  0  0  0  0
 10  6  2  0  0  0  0
 10 15  1  0  0  0  0
 11  6  1  0  0  0  0
 13 14  1  0  0  0  0
 14 15  2  0  0  0  0
 14  7  1  0  0  0  0
 15  8  1  0  0  0  0
 16  9  1  0  0  0  0
 17 16  1  0  0  0  0
 18 16  2  0  0  0  0
 19 20  1  0  0  0  0
 20 22  1  0  0  0  0
 22 21  1  6  0  0  0
 22 23  1  0  0  0  0
 23 24  1  0  0  0  0
 24 27  1  0  0  0  0
 24 25  2  0  0  0  0
 27 26  1  0  0  0  0
M  END
>  <MODEL>
3

>  <REMARK>
 VINA RESULT:      -8.8      2.305      5.014
  Name = 
  6 active torsions:
  status: ('A' for Active; 'I' for Inactive)
    1  A    between atoms: N_3  and  C_13
    2  A    between atoms: C_7  and  N_16
    3  A    between atoms: C_11  and  C_27
    4  A    between atoms: C_13  and  C_21
    5  A    between atoms: C_15  and  C_20
    6  A    between atoms: N_16  and  C_21
                            x       y       z     vdW  Elec       q    Type
                         _______ _______ _______ _____ _____    ______ ____

>  <TORSDO>
F 6

$$$$
=
 OpenBabel10232411383D

 27 29  0  0  1  0  0  0  0  0999 V2000
  188.1250  178.0080  140.1020 C   0  0  0  0  0  0  0  0  0  0  0  0
  190.9350  176.9670  143.5190 C   0  0  0  0  0  0  0  0  0  0  0  0
  186.8830  178.3960  139.3850 C   0  0  0  0  0  1  0  0  0  0  0  0
  189.2210  177.7890  139.4200 N   0  0  0  0  0  0  0  0  0  0  0  0
  191.5920  176.6910  144.7140 C   0  0  0  0  0  3  0  0  0  0  0  0
  188.8330  177.3990  144.6530 C   0  0  0  0  0  0  0  0  0  0  0  0
  190.5300  177.3980  139.9850 C   0  0  2  0  0  3  0  0  0  0  0  0
  188.1000  177.8770  141.5330 N   0  0  0  0  0  2  0  0  0  0  0  0
  190.8510  176.7710  145.9130 C   0  0  0  0  0  0  0  0  0  0  0  0
  189.6010  177.3090  143.4930 C   0  0  0  0  0  0  0  0  0  0  0  0
  189.4800  177.1240  145.8750 C   0  0  0  0  0  3  0  0  0  0  0  0
  190.9490  176.1350  139.4040 N   0  0  0  0  0  1  0  0  0  0  0  0
  191.4450  176.9490  142.3010 O   0  0  0  0  0  0  0  0  0  0  0  0
  190.4680  177.2720  141.4750 C   0  0  0  0  0  0  0  0  0  0  0  0
  189.3140  177.5030  142.1670 C   0  0  0  0  0  0  0  0  0  0  0  0
  191.5070  176.4870  147.1990 C   0  0  0  0  0  0  0  0  0  0  0  0
  191.6110  177.4790  148.1680 O   0  0  0  0  0  1  0  0  0  0  0  0
  191.9820  175.3440  147.4350 O   0  0  0  0  0  0  0  0  0  0  0  0
  187.4500  177.7590  144.5920 N   0  0  0  0  0  2  0  0  0  0  0  0
  186.5240  177.5750  145.7010 C   0  0  0  0  0  2  0  0  0  0  0  0
  186.0620  179.3400  147.4340 C   0  0  0  0  0  1  0  0  0  0  0  0
  185.7930  178.8760  146.0110 C   0  0  2  0  0  3  0  0  0  0  0  0
  184.3600  178.7430  145.7660 N   0  0  0  0  0  2  0  0  0  0  0  0
  183.7010  178.9340  144.5060 C   0  0  0  0  0  0  0  0  0  0  0  0
  182.4220  178.7720  144.4340 N   0  0  0  0  0  2  0  0  0  0  0  0
  184.5940  178.1810  142.3300 C   0  0  0  0  0  1  0  0  0  0  0  0
  184.4520  179.3510  143.2850 C   0  0  0  0  0  2  0  0  0  0  0  0
  1  8  1  0  0  0  0
  2  5  1  0  0  0  0
  3  1  1  0  0  0  0
  4  7  1  0  0  0  0
  4  1  2  0  0  0  0
  5  9  2  0  0  0  0
  6 11  2  0  0  0  0
  7 12  1  6  0  0  0
  7 14  1  0  0  0  0
  8 15  1  0  0  0  0
  9 16  1  0  0  0  0
 10  2  2  0  0  0  0
 10  6  1  0  0  0  0
 11  9  1  0  0  0  0
 13  2  1  0  0  0  0
 14 15  2  0  0  0  0
 14 13  1  0  0  0  0
 15 10  1  0  0  0  0
 16 18  2  0  0  0  0
 16 17  1  0  0  0  0
 19  6  1  0  0  0  0
 19 20  1  0  0  0  0
 20 22  1  0  0  0  0
 22 21  1  1  0  0  0
 23 22  1  0  0  0  0
 24 23  1  0  0  0  0
 25 24  2  0  0  0  0
 26 27  1  0  0  0  0
 27 24  1  0  0  0  0
M  END
>  <MODEL>
4

>  <REMARK>
 VINA RESULT:      -8.7      3.266      5.491
  Name = 
  6 active torsions:
  status: ('A' for Active; 'I' for Inactive)
    1  A    between atoms: N_3  and  C_13
    2  A    between atoms: C_7  and  N_16
    3  A    between atoms: C_11  and  C_27
    4  A    between atoms: C_13  and  C_21
    5  A    between atoms: C_15  and  C_20
    6  A    between atoms: N_16  and  C_21
                            x       y       z     vdW  Elec       q    Type
                         _______ _______ _______ _____ _____    ______ ____

>  <TORSDO>
F 6

$$$$
=
 OpenBabel10232411383D

 27 29  0  0  1  0  0  0  0  0999 V2000
  189.4820  177.5570  146.1730 C   0  0  0  0  0  0  0  0  0  0  0  0
  185.0670  178.5820  145.8390 C   0  0  0  0  0  0  0  0  0  0  0  0
  190.8610  177.1760  145.7720 C   0  0  0  0  0  1  0  0  0  0  0  0
  189.2170  177.7780  147.4360 N   0  0  0  0  0  0  0  0  0  0  0  0
  183.7500  178.8600  145.4860 C   0  0  0  0  0  3  0  0  0  0  0  0
  185.7000  178.1390  143.5380 C   0  0  0  0  0  0  0  0  0  0  0  0
  187.9010  178.1620  147.9900 C   0  0  2  0  0  3  0  0  0  0  0  0
  188.4630  177.6740  145.1660 N   0  0  0  0  0  2  0  0  0  0  0  0
  183.3960  178.7760  144.1220 C   0  0  0  0  0  0  0  0  0  0  0  0
  186.0070  178.2330  144.8950 C   0  0  0  0  0  0  0  0  0  0  0  0
  184.3710  178.4180  143.1590 C   0  0  0  0  0  3  0  0  0  0  0  0
  187.4830  177.1770  148.9710 N   0  0  0  0  0  1  0  0  0  0  0  0
  185.5940  178.6050  147.0490 O   0  0  0  0  0  0  0  0  0  0  0  0
  186.8660  178.2760  146.9160 C   0  0  0  0  0  0  0  0  0  0  0  0
  187.1630  178.0390  145.6050 C   0  0  0  0  0  0  0  0  0  0  0  0
  182.0140  179.0630  143.7050 C   0  0  0  0  0  0  0  0  0  0  0  0
  180.9480  178.4140  144.3180 O   0  0  0  0  0  1  0  0  0  0  0  0
  181.7840  179.8970  142.7890 O   0  0  0  0  0  0  0  0  0  0  0  0
  186.7010  177.7770  142.5820 N   0  0  0  0  0  2  0  0  0  0  0  0
  187.1550  178.6660  141.5210 C   0  0  0  0  0  2  0  0  0  0  0  0
  188.6020  178.2040  139.5160 C   0  0  0  0  0  1  0  0  0  0  0  0
  188.5390  178.2560  141.0340 C   0  0  2  0  0  3  0  0  0  0  0  0
  188.9440  176.9800  141.6180 N   0  0  0  0  0  2  0  0  0  0  0  0
  190.2430  176.6700  142.1420 C   0  0  0  0  0  0  0  0  0  0  0  0
  190.4580  175.4990  142.6390 N   0  0  0  0  0  2  0  0  0  0  0  0
  192.0910  177.5580  140.7640 C   0  0  0  0  0  1  0  0  0  0  0  0
  191.3640  177.6560  142.0910 C   0  0  0  0  0  2  0  0  0  0  0  0
  1  4  2  0  0  0  0
  2 13  1  0  0  0  0
  3  1  1  0  0  0  0
  4  7  1  0  0  0  0
  5  2  1  0  0  0  0
  6 10  1  0  0  0  0
  7 12  1  1  0  0  0
  8 15  1  0  0  0  0
  8  1  1  0  0  0  0
  9  5  2  0  0  0  0
 10 15  1  0  0  0  0
 10  2  2  0  0  0  0
 11  6  2  0  0  0  0
 11  9  1  0  0  0  0
 14 13  1  0  0  0  0
 14  7  1  0  0  0  0
 15 14  2  0  0  0  0
 16  9  1  0  0  0  0
 16 17  1  0  0  0  0
 18 16  2  0  0  0  0
 19  6  1  0  0  0  0
 20 19  1  0  0  0  0
 22 21  1  6  0  0  0
 22 20  1  0  0  0  0
 22 23  1  0  0  0  0
 23 24  1  0  0  0  0
 24 25  2  0  0  0  0
 26 27  1  0  0  0  0
 27 24  1  0  0  0  0
M  END
>  <MODEL>
5

>  <REMARK>
 VINA RESULT:      -8.6      2.455      6.246
  Name = 
  6 active torsions:
  status: ('A' for Active; 'I' for Inactive)
    1  A    between atoms: N_3  and  C_13
    2  A    between atoms: C_7  and  N_16
    3  A    between atoms: C_11  and  C_27
    4  A    between atoms: C_13  and  C_21
    5  A    between atoms: C_15  and  C_20
    6  A    between atoms: N_16  and  C_21
                            x       y       z     vdW  Elec       q    Type
                         _______ _______ _______ _____ _____    ______ ____

>  <TORSDO>
F 6

$$$$
=
 OpenBabel10232411383D

 27 29  0  0  1  0  0  0  0  0999 V2000
  190.0400  177.2970  146.3090 C   0  0  0  0  0  0  0  0  0  0  0  0
  185.6780  178.3780  145.6290 C   0  0  0  0  0  0  0  0  0  0  0  0
  191.4340  176.8700  146.0210 C   0  0  0  0  0  1  0  0  0  0  0  0
  189.6980  177.5960  147.5370 N   0  0  0  0  0  0  0  0  0  0  0  0
  184.3930  178.6580  145.1750 C   0  0  0  0  0  3  0  0  0  0  0  0
  186.4490  177.7930  143.4030 C   0  0  0  0  0  0  0  0  0  0  0  0
  188.3590  178.0340  147.9820 C   0  0  2  0  0  3  0  0  0  0  0  0
  189.0910  177.3740  145.2330 N   0  0  0  0  0  2  0  0  0  0  0  0
  184.1260  178.5030  143.7980 C   0  0  0  0  0  0  0  0  0  0  0  0
  186.6700  177.9590  144.7690 C   0  0  0  0  0  0  0  0  0  0  0  0
  185.1540  178.0720  142.9220 C   0  0  0  0  0  3  0  0  0  0  0  0
  187.8580  177.1140  148.9870 N   0  0  0  0  0  1  0  0  0  0  0  0
  186.1270  178.4620  146.8670 O   0  0  0  0  0  0  0  0  0  0  0  0
  187.3970  178.1040  146.8380 C   0  0  0  0  0  0  0  0  0  0  0  0
  187.7730  177.7860  145.5640 C   0  0  0  0  0  0  0  0  0  0  0  0
  182.7810  178.7880  143.2760 C   0  0  0  0  0  0  0  0  0  0  0  0
  182.5630  178.8730  141.9060 O   0  0  0  0  0  0  0  0  0  0  0  0
  181.8130  178.9610  144.0650 O   0  0  0  0  0  1  0  0  0  0  0  0
  187.5020  177.3590  142.5370 N   0  0  0  0  0  2  0  0  0  0  0  0
  188.3410  178.2740  141.7750 C   0  0  0  0  0  2  0  0  0  0  0  0
  190.3430  176.8870  141.1430 C   0  0  0  0  0  1  0  0  0  0  0  0
  189.0580  177.5340  140.6520 C   0  0  2  0  0  3  0  0  0  0  0  0
  189.3190  178.4230  139.5220 N   0  0  0  0  0  2  0  0  0  0  0  0
  188.6500  178.3880  138.2540 C   0  0  0  0  0  0  0  0  0  0  0  0
  188.9790  179.2460  137.3460 N   0  0  0  0  0  2  0  0  0  0  0  0
  186.3050  178.0350  137.5660 C   0  0  0  0  0  1  0  0  0  0  0  0
  187.6110  177.3620  137.9440 C   0  0  0  0  0  2  0  0  0  0  0  0
  1  4  2  0  0  0  0
  2 13  1  0  0  0  0
  3  1  1  0  0  0  0
  4  7  1  0  0  0  0
  5  2  1  0  0  0  0
  6 10  1  0  0  0  0
  7 12  1  1  0  0  0
  8 15  1  0  0  0  0
  8  1  1  0  0  0  0
  9  5  2  0  0  0  0
 10 15  1  0  0  0  0
 10  2  2  0  0  0  0
 11  6  2  0  0  0  0
 11  9  1  0  0  0  0
 14 13  1  0  0  0  0
 14  7  1  0  0  0  0
 15 14  2  0  0  0  0
 16  9  1  0  0  0  0
 16 18  1  0  0  0  0
 17 16  2  0  0  0  0
 19  6  1  0  0  0  0
 20 19  1  0  0  0  0
 22 21  1  1  0  0  0
 22 20  1  0  0  0  0
 23 22  1  0  0  0  0
 24 23  1  0  0  0  0
 25 24  2  0  0  0  0
 26 27  1  0  0  0  0
 27 24  1  0  0  0  0
M  END
>  <MODEL>
6

>  <REMARK>
 VINA RESULT:      -8.3      2.118      6.837
  Name = 
  6 active torsions:
  status: ('A' for Active; 'I' for Inactive)
    1  A    between atoms: N_3  and  C_13
    2  A    between atoms: C_7  and  N_16
    3  A    between atoms: C_11  and  C_27
    4  A    between atoms: C_13  and  C_21
    5  A    between atoms: C_15  and  C_20
    6  A    between atoms: N_16  and  C_21
                            x       y       z     vdW  Elec       q    Type
                         _______ _______ _______ _____ _____    ______ ____

>  <TORSDO>
F 6

$$$$
=
 OpenBabel10232411383D

 27 29  0  0  1  0  0  0  0  0999 V2000
  190.4050  177.5610  141.4380 C   0  0  0  0  0  0  0  0  0  0  0  0
  185.9370  178.3940  141.4990 C   0  0  0  0  0  0  0  0  0  0  0  0
  191.7790  177.2820  141.9270 C   0  0  0  0  0  1  0  0  0  0  0  0
  190.1850  177.6550  140.1510 N   0  0  0  0  0  0  0  0  0  0  0  0
  184.5930  178.6310  141.7730 C   0  0  0  0  0  3  0  0  0  0  0  0
  186.4880  178.1980  143.8550 C   0  0  0  0  0  0  0  0  0  0  0  0
  188.8810  177.9280  139.5110 C   0  0  2  0  0  3  0  0  0  0  0  0
  189.3390  177.7260  142.3890 N   0  0  0  0  0  2  0  0  0  0  0  0
  184.1830  178.6520  143.1230 C   0  0  0  0  0  0  0  0  0  0  0  0
  186.8510  178.1860  142.5090 C   0  0  0  0  0  0  0  0  0  0  0  0
  185.1310  178.4350  144.1540 C   0  0  0  0  0  3  0  0  0  0  0  0
  188.9800  179.1290  138.7030 N   0  0  0  0  0  1  0  0  0  0  0  0
  186.5160  178.3350  140.3150 O   0  0  0  0  0  0  0  0  0  0  0  0
  187.7960  178.0920  140.5280 C   0  0  0  0  0  0  0  0  0  0  0  0
  188.0460  177.9920  141.8670 C   0  0  0  0  0  0  0  0  0  0  0  0
  182.7710  178.8980  143.4560 C   0  0  0  0  0  0  0  0  0  0  0  0
  181.8590  179.2110  142.4540 O   0  0  0  0  0  0  0  0  0  0  0  0
  182.3750  178.8280  144.6500 O   0  0  0  0  0  1  0  0  0  0  0  0
  187.4620  177.9760  144.8800 N   0  0  0  0  0  2  0  0  0  0  0  0
  187.1180  177.5870  146.2410 C   0  0  0  0  0  2  0  0  0  0  0  0
  188.3310  178.0800  148.3880 C   0  0  0  0  0  1  0  0  0  0  0  0
  188.3780  177.3390  147.0620 C   0  0  2  0  0  3  0  0  0  0  0  0
  189.5750  177.6960  146.3050 N   0  0  0  0  0  2  0  0  0  0  0  0
  190.8210  176.9840  146.3200 C   0  0  0  0  0  0  0  0  0  0  0  0
  191.7960  177.4100  145.5900 N   0  0  0  0  0  2  0  0  0  0  0  0
  192.3970  175.8430  147.8410 C   0  0  0  0  0  1  0  0  0  0  0  0
  191.0290  175.7860  147.1870 C   0  0  0  0  0  2  0  0  0  0  0  0
  1  3  1  0  0  0  0
  1  8  1  0  0  0  0
  2  5  2  0  0  0  0
  2 10  1  0  0  0  0
  4  1  2  0  0  0  0
  5  9  1  0  0  0  0
  6 11  1  0  0  0  0
  6 19  1  0  0  0  0
  7 12  1  1  0  0  0
  7  4  1  0  0  0  0
  7 14  1  0  0  0  0
  9 16  1  0  0  0  0
  9 11  2  0  0  0  0
 10  6  2  0  0  0  0
 13 14  1  0  0  0  0
 13  2  1  0  0  0  0
 14 15  2  0  0  0  0
 15  8  1  0  0  0  0
 15 10  1  0  0  0  0
 16 18  1  0  0  0  0
 17 16  2  0  0  0  0
 19 20  1  0  0  0  0
 20 22  1  0  0  0  0
 22 21  1  1  0  0  0
 23 24  1  0  0  0  0
 23 22  1  0  0  0  0
 24 27  1  0  0  0  0
 25 24  2  0  0  0  0
 27 26  1  0  0  0  0
M  END
>  <MODEL>
7

>  <REMARK>
 VINA RESULT:      -8.3      1.844      2.993
  Name = 
  6 active torsions:
  status: ('A' for Active; 'I' for Inactive)
    1  A    between atoms: N_3  and  C_13
    2  A    between atoms: C_7  and  N_16
    3  A    between atoms: C_11  and  C_27
    4  A    between atoms: C_13  and  C_21
    5  A    between atoms: C_15  and  C_20
    6  A    between atoms: N_16  and  C_21
                            x       y       z     vdW  Elec       q    Type
                         _______ _______ _______ _____ _____    ______ ____

>  <TORSDO>
F 6

$$$$
=
 OpenBabel10232411383D

 27 29  0  0  1  0  0  0  0  0999 V2000
  184.9240  178.6880  141.1370 C   0  0  0  0  0  0  0  0  0  0  0  0
  187.3890  177.7300  144.8330 C   0  0  0  0  0  0  0  0  0  0  0  0
  184.5850  178.9440  139.7130 C   0  0  0  0  0  1  0  0  0  0  0  0
  183.9800  178.7340  142.0430 N   0  0  0  0  0  0  0  0  0  0  0  0
  188.3400  177.4190  145.8010 C   0  0  0  0  0  3  0  0  0  0  0  0
  189.0360  177.6810  143.0510 C   0  0  0  0  0  0  0  0  0  0  0  0
  184.1580  178.5040  143.4920 C   0  0  2  0  0  3  0  0  0  0  0  0
  186.2860  178.3960  141.4940 N   0  0  0  0  0  2  0  0  0  0  0  0
  189.6760  177.2340  145.3850 C   0  0  0  0  0  0  0  0  0  0  0  0
  187.7300  177.8560  143.5040 C   0  0  0  0  0  0  0  0  0  0  0  0
  190.0150  177.3650  144.0150 C   0  0  0  0  0  3  0  0  0  0  0  0
  183.7210  179.6780  144.2260 N   0  0  0  0  0  1  0  0  0  0  0  0
  186.0990  177.9390  145.0150 O   0  0  0  0  0  0  0  0  0  0  0  0
  185.5840  178.2010  143.8280 C   0  0  0  0  0  0  0  0  0  0  0  0
  186.5540  178.1600  142.8680 C   0  0  0  0  0  0  0  0  0  0  0  0
  190.7120  176.9040  146.3760 C   0  0  0  0  0  0  0  0  0  0  0  0
  191.9670  176.4710  145.9610 O   0  0  0  0  0  0  0  0  0  0  0  0
  190.4730  177.0110  147.6090 O   0  0  0  0  0  1  0  0  0  0  0  0
  189.3560  177.8160  141.6630 N   0  0  0  0  0  2  0  0  0  0  0  0
  190.4510  177.1020  141.0190 C   0  0  0  0  0  2  0  0  0  0  0  0
  191.4060  176.4080  138.7980 C   0  0  0  0  0  1  0  0  0  0  0  0
  190.1860  176.9480  139.5270 C   0  0  2  0  0  3  0  0  0  0  0  0
  189.7430  178.2110  138.9400 N   0  0  0  0  0  2  0  0  0  0  0  0
  188.9370  178.3520  137.7630 C   0  0  0  0  0  0  0  0  0  0  0  0
  188.6110  179.5350  137.3620 N   0  0  0  0  0  2  0  0  0  0  0  0
  187.0810  176.7750  137.3510 C   0  0  0  0  0  1  0  0  0  0  0  0
  188.4960  177.1680  136.9670 C   0  0  0  0  0  2  0  0  0  0  0  0
  1  8  1  0  0  0  0
  1  4  2  0  0  0  0
  2 13  1  0  0  0  0
  2  5  1  0  0  0  0
  3  1  1  0  0  0  0
  4  7  1  0  0  0  0
  6 10  1  0  0  0  0
  6 11  2  0  0  0  0
  7 14  1  0  0  0  0
  7 12  1  1  0  0  0
  8 15  1  0  0  0  0
  9  5  2  0  0  0  0
  9 16  1  0  0  0  0
 10  2  2  0  0  0  0
 11  9  1  0  0  0  0
 14 13  1  0  0  0  0
 15 10  1  0  0  0  0
 15 14  2  0  0  0  0
 16 18  1  0  0  0  0
 17 16  2  0  0  0  0
 19  6  1  0  0  0  0
 20 19  1  0  0  0  0
 22 21  1  6  0  0  0
 22 20  1  0  0  0  0
 23 22  1  0  0  0  0
 24 23  1  0  0  0  0
 25 24  2  0  0  0  0
 27 26  1  0  0  0  0
 27 24  1  0  0  0  0
M  END
>  <MODEL>
8

>  <REMARK>
 VINA RESULT:      -8.0      2.943      6.436
  Name = 
  6 active torsions:
  status: ('A' for Active; 'I' for Inactive)
    1  A    between atoms: N_3  and  C_13
    2  A    between atoms: C_7  and  N_16
    3  A    between atoms: C_11  and  C_27
    4  A    between atoms: C_13  and  C_21
    5  A    between atoms: C_15  and  C_20
    6  A    between atoms: N_16  and  C_21
                            x       y       z     vdW  Elec       q    Type
                         _______ _______ _______ _____ _____    ______ ____

>  <TORSDO>
F 6

$$$$
=
 OpenBabel10232411383D

 27 29  0  0  1  0  0  0  0  0999 V2000
  188.4050  177.7140  138.7840 C   0  0  0  0  0  0  0  0  0  0  0  0
  190.7000  177.0820  142.6560 C   0  0  0  0  0  0  0  0  0  0  0  0
  187.2750  177.9970  137.8610 C   0  0  0  0  0  1  0  0  0  0  0  0
  189.5920  177.4650  138.2920 N   0  0  0  0  0  0  0  0  0  0  0  0
  191.1790  176.9390  143.9540 C   0  0  0  0  0  3  0  0  0  0  0  0
  188.4480  177.5560  143.4280 C   0  0  0  0  0  0  0  0  0  0  0  0
  190.8090  177.1670  139.0750 C   0  0  2  0  0  3  0  0  0  0  0  0
  188.1720  177.7180  140.2030 N   0  0  0  0  0  2  0  0  0  0  0  0
  190.2700  177.1090  145.0200 C   0  0  0  0  0  0  0  0  0  0  0  0
  189.3790  177.3800  142.4050 C   0  0  0  0  0  0  0  0  0  0  0  0
  188.9130  177.4170  144.7510 C   0  0  0  0  0  3  0  0  0  0  0  0
  191.3290  175.8680  138.6870 N   0  0  0  0  0  1  0  0  0  0  0  0
  191.3830  176.9650  141.5320 O   0  0  0  0  0  0  0  0  0  0  0  0
  190.5320  177.1800  140.5460 C   0  0  0  0  0  0  0  0  0  0  0  0
  189.2860  177.4400  141.0380 C   0  0  0  0  0  0  0  0  0  0  0  0
  190.7350  176.9670  146.4090 C   0  0  0  0  0  0  0  0  0  0  0  0
  189.8220  176.9570  147.4570 O   0  0  0  0  0  1  0  0  0  0  0  0
  191.9640  176.8530  146.6620 O   0  0  0  0  0  0  0  0  0  0  0  0
  187.0830  177.8680  143.1330 N   0  0  0  0  0  2  0  0  0  0  0  0
  186.0700  178.0780  144.1580 C   0  0  0  0  0  2  0  0  0  0  0  0
  184.0300  179.4450  144.7010 C   0  0  0  0  0  1  0  0  0  0  0  0
  184.8900  178.8590  143.5930 C   0  0  2  0  0  3  0  0  0  0  0  0
  184.0910  178.0270  142.6960 N   0  0  0  0  0  2  0  0  0  0  0  0
  184.0500  178.1340  141.2660 C   0  0  0  0  0  0  0  0  0  0  0  0
  183.3030  177.3220  140.5970 N   0  0  0  0  0  2  0  0  0  0  0  0
  184.2040  179.4350  139.1730 C   0  0  0  0  0  1  0  0  0  0  0  0
  184.8200  179.1850  140.5360 C   0  0  0  0  0  2  0  0  0  0  0  0
  1  8  1  0  0  0  0
  2  5  1  0  0  0  0
  3  1  1  0  0  0  0
  4  1  2  0  0  0  0
  4  7  1  0  0  0  0
  5  9  2  0  0  0  0
  6 11  2  0  0  0  0
  7 12  1  6  0  0  0
  7 14  1  0  0  0  0
  8 15  1  0  0  0  0
  9 16  1  0  0  0  0
 10  2  2  0  0  0  0
 10  6  1  0  0  0  0
 11  9  1  0  0  0  0
 13  2  1  0  0  0  0
 14 15  2  0  0  0  0
 14 13  1  0  0  0  0
 15 10  1  0  0  0  0
 16 18  2  0  0  0  0
 16 17  1  0  0  0  0
 19  6  1  0  0  0  0
 19 20  1  0  0  0  0
 22 20  1  0  0  0  0
 22 21  1  1  0  0  0
 23 22  1  0  0  0  0
 24 23  1  0  0  0  0
 25 24  2  0  0  0  0
 26 27  1  0  0  0  0
 27 24  1  0  0  0  0
M  END
>  <MODEL>
9

>  <REMARK>
 VINA RESULT:      -7.8      2.933      5.647
  Name = 
  6 active torsions:
  status: ('A' for Active; 'I' for Inactive)
    1  A    between atoms: N_3  and  C_13
    2  A    between atoms: C_7  and  N_16
    3  A    between atoms: C_11  and  C_27
    4  A    between atoms: C_13  and  C_21
    5  A    between atoms: C_15  and  C_20
    6  A    between atoms: N_16  and  C_21
                            x       y       z     vdW  Elec       q    Type
                         _______ _______ _______ _____ _____    ______ ____

>  <TORSDO>
F 6

$$$$
