=
 OpenBabel10232407563D

 44 49  0  0  1  0  0  0  0  0999 V2000
  187.6820  177.4170  138.0230 C   0  0  1  0  0  0  0  0  0  0  0  0
  185.6850  174.2350  134.4240 N   0  0  0  0  0  0  0  0  0  0  0  0
  186.5220  173.8630  135.5610 C   0  0  0  0  0  2  0  0  0  0  0  0
  188.3700  178.5150  137.1210 C   0  0  1  0  0  3  0  0  0  0  0  0
  186.2980  176.0970  135.3860 C   0  0  0  0  0  0  0  0  0  0  0  0
  189.2690  179.4800  137.8870 C   0  0  0  0  0  1  0  0  0  0  0  0
  186.8870  175.1970  136.1130 C   0  0  0  0  0  0  0  0  0  0  0  0
  185.9140  177.3020  136.1490 C   0  0  0  0  0  2  0  0  0  0  0  0
  191.6330  174.5610  136.9730 C   0  0  0  0  0  3  0  0  0  0  0  0
  190.3870  174.7400  137.5820 C   0  0  0  0  0  3  0  0  0  0  0  0
  186.9990  175.6050  137.5410 C   0  0  2  0  0  3  0  0  0  0  0  0
  192.1180  175.5020  136.0470 C   0  0  0  0  0  0  0  0  0  0  0  0
  191.3350  176.6200  135.7280 C   0  0  0  0  0  3  0  0  0  0  0  0
  189.1860  177.9410  135.9390 C   0  0  0  0  0  2  0  0  0  0  0  0
  186.3100  176.9470  137.5980 C   0  0  1  0  0  3  0  0  0  0  0  0
  188.3580  176.1150  137.8450 N   0  0  0  0  0  0  0  0  0  0  0  0
  189.6320  175.8700  137.2670 C   0  0  0  0  0  0  0  0  0  0  0  0
  185.5480  175.4970  134.3480 N   0  0  0  0  0  0  0  0  0  0  0  0
  190.0980  176.8100  136.3480 C   0  0  0  0  0  0  0  0  0  0  0  0
  194.7610  175.1620  137.2940 O   0  0  0  0  0  0  0  0  0  0  0  0
  193.3880  175.3460  135.4010 N   0  0  0  0  0  2  0  0  0  0  0  0
  194.6640  175.1760  136.0390 C   0  0  0  0  0  0  0  0  0  0  0  0
  195.8210  175.0300  135.2710 O   0  0  0  0  0  0  0  0  0  0  0  0
  197.1230  175.2520  135.7990 C   0  0  0  0  0  2  0  0  0  0  0  0
  197.8210  173.9310  136.0740 C   0  0  0  0  0  2  0  0  0  0  0  0
  197.8250  173.6710  137.4710 O   0  0  0  0  0  0  0  0  0  0  0  0
  197.5410  175.1670  139.2100 O   0  0  0  0  0  1  0  0  0  0  0  0
  199.6690  174.9030  138.4030 O   0  0  0  0  0  0  0  0  0  0  0  0
  198.3130  174.6010  138.3900 C   0  0  0  0  0  0  0  0  0  0  0  0
  187.6540  177.7720  139.4910 C   0  0  0  0  0  3  0  0  0  0  0  0
  188.4930  177.2240  140.3640 C   0  0  0  0  0  3  0  0  0  0  0  0
  188.3690  177.8970  142.9140 C   0  0  0  0  0  0  0  0  0  0  0  0
  188.4260  177.5890  141.7490 C   0  0  0  0  0  0  0  0  0  0  0  0
  188.7490  177.1590  145.1610 N   0  0  0  0  0  0  0  0  0  0  0  0
  188.2990  178.2730  144.3300 C   0  0  2  0  0  3  0  0  0  0  0  0
  186.9730  178.6280  144.6610 O   0  0  0  0  0  0  0  0  0  0  0  0
  186.5770  177.7470  145.6770 C   0  0  1  0  0  3  0  0  0  0  0  0
  190.1350  177.4000  145.5580 C   0  0  0  0  0  1  0  0  0  0  0  0
  187.8330  177.1770  146.2910 C   0  0  2  0  0  3  0  0  0  0  0  0
  185.7590  179.7770  146.8990 O   0  0  0  0  0  0  0  0  0  0  0  0
  184.8110  177.7270  147.2810 O   0  0  0  0  0  1  0  0  0  0  0  0
  185.6580  178.4130  146.6530 C   0  0  0  0  0  0  0  0  0  0  0  0
  188.2960  178.0080  147.3270 O   0  0  0  0  0  0  0  0  0  0  0  0
  188.2290  177.2590  148.4090 O   0  0  0  0  0  1  0  0  0  0  0  0
  1 30  1  1  0  0  0
  2  3  1  0  0  0  0
  3  7  1  0  0  0  0
  4  6  1  1  0  0  0
  4  1  1  0  0  0  0
  5  7  2  0  0  0  0
  5  8  1  0  0  0  0
  9 10  1  0  0  0  0
 11  7  1  6  0  0  0
 11 15  1  0  0  0  0
 11 16  1  0  0  0  0
 12  9  2  0  0  0  0
 13 12  1  0  0  0  0
 13 19  2  0  0  0  0
 14 19  1  0  0  0  0
 14  4  1  0  0  0  0
 15  8  1  6  0  0  0
 15  1  1  0  0  0  0
 16  1  1  0  0  0  0
 17 10  2  0  0  0  0
 17 16  1  0  0  0  0
 18  2  2  0  0  0  0
 18  5  1  0  0  0  0
 19 17  1  0  0  0  0
 21 22  1  0  0  0  0
 21 12  1  0  0  0  0
 22 20  2  0  0  0  0
 23 24  1  0  0  0  0
 23 22  1  0  0  0  0
 24 25  1  0  0  0  0
 25 26  1  0  0  0  0
 26 29  1  0  0  0  0
 29 28  2  0  0  0  0
 29 27  1  0  0  0  0
 30 31  2  0  0  0  0
 31 33  1  0  0  0  0
 33 32  3  0  0  0  0
 34 38  1  0  0  0  0
 34 39  1  0  0  0  0
 35 32  1  6  0  0  0
 35 36  1  0  0  0  0
 35 34  1  0  0  0  0
 36 37  1  0  0  0  0
 37 39  1  0  0  0  0
 37 42  1  1  0  0  0
 39 43  1  1  0  0  0
 42 40  2  0  0  0  0
 42 41  1  0  0  0  0
 43 44  1  0  0  0  0
M  END
>  <MODEL>
1

>  <REMARK>
 VINA RESULT:      -6.2      0.000      0.000
  Name = 
  11 active torsions:
  status: ('A' for Active; 'I' for Inactive)
    1  A    between atoms: C_2  and  C_12
    2  A    between atoms: O_5  and  C_38
    3  A    between atoms: C_8  and  O_24
    4  A    between atoms: C_8  and  C_36
    5  A    between atoms: C_10  and  C_39
    6  A    between atoms: O_16  and  C_36
    7  A    between atoms: O_16  and  C_42
    8  A    between atoms: C_18  and  C_29
    9  A    between atoms: O_24  and  C_44
   10  A    between atoms: N_25  and  C_26
   11  A    between atoms: C_35  and  C_40
                            x       y       z     vdW  Elec       q    Type
                         _______ _______ _______ _____ _____    ______ ____

>  <TORSDO>
F 11

$$$$
=
 OpenBabel10232407563D

 44 49  0  0  1  0  0  0  0  0999 V2000
  184.6200  178.5520  139.2060 C   0  0  1  0  0  0  0  0  0  0  0  0
  180.0250  180.9810  139.4380 N   0  0  0  0  0  0  0  0  0  0  0  0
  180.4300  179.7900  140.1800 C   0  0  0  0  0  2  0  0  0  0  0  0
  184.7940  178.3620  137.6490 C   0  0  1  0  0  3  0  0  0  0  0  0
  182.0040  180.4260  138.7010 C   0  0  0  0  0  0  0  0  0  0  0  0
  185.9500  177.4480  137.2570 C   0  0  0  0  0  1  0  0  0  0  0  0
  181.7630  179.5040  139.5820 C   0  0  0  0  0  0  0  0  0  0  0  0
  183.4380  180.7580  138.5830 C   0  0  0  0  0  2  0  0  0  0  0  0
  181.4800  174.6830  138.9880 C   0  0  0  0  0  3  0  0  0  0  0  0
  182.1130  175.6990  139.7120 C   0  0  0  0  0  3  0  0  0  0  0  0
  182.9990  179.0360  140.2670 C   0  0  2  0  0  3  0  0  0  0  0  0
  181.5370  174.6650  137.5840 C   0  0  0  0  0  0  0  0  0  0  0  0
  182.2250  175.6830  136.9090 C   0  0  0  0  0  3  0  0  0  0  0  0
  183.5210  177.8570  136.9290 C   0  0  0  0  0  2  0  0  0  0  0  0
  184.0960  179.8900  139.6760 C   0  0  1  0  0  3  0  0  0  0  0  0
  183.4740  177.7540  139.6930 N   0  0  0  0  0  0  0  0  0  0  0  0
  182.8110  176.6920  139.0240 C   0  0  0  0  0  0  0  0  0  0  0  0
  180.9300  181.3440  138.6220 N   0  0  0  0  0  0  0  0  0  0  0  0
  182.8730  176.6890  137.6300 C   0  0  0  0  0  0  0  0  0  0  0  0
  182.0270  171.7650  137.6470 O   0  0  0  0  0  0  0  0  0  0  0  0
  180.8960  173.6410  136.8110 N   0  0  0  0  0  2  0  0  0  0  0  0
  181.1530  172.2290  136.8690 C   0  0  0  0  0  0  0  0  0  0  0  0
  180.4380  171.3500  136.0540 O   0  0  0  0  0  0  0  0  0  0  0  0
  180.9730  170.1060  135.6170 C   0  0  0  0  0  2  0  0  0  0  0  0
  181.7880  170.2910  134.3480 C   0  0  0  0  0  2  0  0  0  0  0  0
  182.9430  169.4640  134.3940 O   0  0  0  0  0  0  0  0  0  0  0  0
  184.4040  170.4410  135.8940 O   0  0  0  0  0  0  0  0  0  0  0  0
  183.8920  168.2340  136.2300 O   0  0  0  0  0  1  0  0  0  0  0  0
  183.7700  169.4190  135.5170 C   0  0  0  0  0  0  0  0  0  0  0  0
  185.8540  178.1950  140.0010 C   0  0  0  0  0  3  0  0  0  0  0  0
  186.3030  178.9620  140.9880 C   0  0  0  0  0  3  0  0  0  0  0  0
  188.4720  178.2630  142.3220 C   0  0  0  0  0  0  0  0  0  0  0  0
  187.4810  178.5830  141.7120 C   0  0  0  0  0  0  0  0  0  0  0  0
  189.9430  176.4510  142.8610 N   0  0  0  0  0  0  0  0  0  0  0  0
  189.6760  177.8720  143.0620 C   0  0  2  0  0  3  0  0  0  0  0  0
  189.4980  178.1480  144.4370 O   0  0  0  0  0  0  0  0  0  0  0  0
  189.6350  176.9210  145.1000 C   0  0  1  0  0  3  0  0  0  0  0  0
  190.9830  176.3080  141.8440 C   0  0  0  0  0  1  0  0  0  0  0  0
  190.3750  175.9890  144.1710 C   0  0  2  0  0  3  0  0  0  0  0  0
  189.6130  176.6800  147.5950 O   0  0  0  0  0  1  0  0  0  0  0  0
  191.4000  177.6440  146.5330 O   0  0  0  0  0  0  0  0  0  0  0  0
  190.2730  177.0920  146.4440 C   0  0  0  0  0  0  0  0  0  0  0  0
  191.7640  176.1240  144.3420 O   0  0  0  0  0  0  0  0  0  0  0  0
  192.2430  174.9130  144.1450 O   0  0  0  0  0  1  0  0  0  0  0  0
  1 15  1  0  0  0  0
  1 16  1  0  0  0  0
  1 30  1  1  0  0  0
  2  3  1  0  0  0  0
  4  6  1  1  0  0  0
  4  1  1  0  0  0  0
  5  7  2  0  0  0  0
  7  3  1  0  0  0  0
  8  5  1  0  0  0  0
  9 10  1  0  0  0  0
 11  7  1  6  0  0  0
 12  9  2  0  0  0  0
 13 12  1  0  0  0  0
 13 19  2  0  0  0  0
 14 19  1  0  0  0  0
 14  4  1  0  0  0  0
 15  8  1  6  0  0  0
 15 11  1  0  0  0  0
 16 11  1  0  0  0  0
 17 16  1  0  0  0  0
 17 10  2  0  0  0  0
 18  5  1  0  0  0  0
 18  2  2  0  0  0  0
 19 17  1  0  0  0  0
 21 22  1  0  0  0  0
 21 12  1  0  0  0  0
 22 20  2  0  0  0  0
 23 22  1  0  0  0  0
 24 23  1  0  0  0  0
 25 26  1  0  0  0  0
 25 24  1  0  0  0  0
 26 29  1  0  0  0  0
 29 27  2  0  0  0  0
 29 28  1  0  0  0  0
 30 31  2  0  0  0  0
 31 33  1  0  0  0  0
 33 32  3  0  0  0  0
 34 35  1  0  0  0  0
 34 39  1  0  0  0  0
 35 32  1  6  0  0  0
 35 36  1  0  0  0  0
 36 37  1  0  0  0  0
 37 42  1  1  0  0  0
 38 34  1  0  0  0  0
 39 43  1  6  0  0  0
 39 37  1  0  0  0  0
 42 41  2  0  0  0  0
 42 40  1  0  0  0  0
 44 43  1  0  0  0  0
M  END
>  <MODEL>
2

>  <REMARK>
 VINA RESULT:      -4.4      5.964      9.052
  Name = 
  11 active torsions:
  status: ('A' for Active; 'I' for Inactive)
    1  A    between atoms: C_2  and  C_12
    2  A    between atoms: O_5  and  C_38
    3  A    between atoms: C_8  and  O_24
    4  A    between atoms: C_8  and  C_36
    5  A    between atoms: C_10  and  C_39
    6  A    between atoms: O_16  and  C_36
    7  A    between atoms: O_16  and  C_42
    8  A    between atoms: C_18  and  C_29
    9  A    between atoms: O_24  and  C_44
   10  A    between atoms: N_25  and  C_26
   11  A    between atoms: C_35  and  C_40
                            x       y       z     vdW  Elec       q    Type
                         _______ _______ _______ _____ _____    ______ ____

>  <TORSDO>
F 11

$$$$
=
 OpenBabel10232407563D

 44 49  0  0  1  0  0  0  0  0999 V2000
  188.9490  176.7810  138.0310 C   0  0  1  0  0  0  0  0  0  0  0  0
  185.7340  178.6850  134.4110 N   0  0  0  0  0  0  0  0  0  0  0  0
  185.3800  177.8320  135.5430 C   0  0  0  0  0  2  0  0  0  0  0  0
  190.0760  176.1310  137.1370 C   0  0  1  0  0  3  0  0  0  0  0  0
  187.6060  178.1290  135.3870 C   0  0  0  0  0  0  0  0  0  0  0  0
  191.0630  175.2620  137.9090 C   0  0  0  0  0  1  0  0  0  0  0  0
  186.7200  177.5100  136.1050 C   0  0  0  0  0  0  0  0  0  0  0  0
  188.7920  178.5500  136.1610 C   0  0  0  0  0  2  0  0  0  0  0  0
  186.2310  172.7430  136.9470 C   0  0  0  0  0  3  0  0  0  0  0  0
  186.3650  173.9930  137.5610 C   0  0  0  0  0  3  0  0  0  0  0  0
  187.1190  177.4060  137.5360 C   0  0  2  0  0  3  0  0  0  0  0  0
  187.1940  172.2910  136.0280 C   0  0  0  0  0  0  0  0  0  0  0  0
  188.2890  173.1110  135.7200 C   0  0  0  0  0  3  0  0  0  0  0  0
  189.5380  175.3010  135.9480 C   0  0  0  0  0  2  0  0  0  0  0  0
  188.4390  178.1390  137.6060 C   0  0  1  0  0  3  0  0  0  0  0  0
  187.6710  176.0640  137.8400 N   0  0  0  0  0  0  0  0  0  0  0  0
  187.4720  174.7850  137.2570 C   0  0  0  0  0  0  0  0  0  0  0  0
  186.9910  178.8630  134.3460 N   0  0  0  0  0  0  0  0  0  0  0  0
  188.4350  174.3520  136.3450 C   0  0  0  0  0  0  0  0  0  0  0  0
  189.3630  170.5080  135.1510 O   0  0  0  0  0  0  0  0  0  0  0  0
  187.0860  171.0180  135.3780 N   0  0  0  0  0  2  0  0  0  0  0  0
  188.1660  170.1660  134.9650 C   0  0  0  0  0  0  0  0  0  0  0  0
  187.9010  168.9430  134.3460 O   0  0  0  0  0  0  0  0  0  0  0  0
  187.1500  167.9130  134.9780 C   0  0  0  0  0  2  0  0  0  0  0  0
  185.7010  167.9500  134.5210 C   0  0  0  0  0  2  0  0  0  0  0  0
  184.8480  168.1500  135.6390 O   0  0  0  0  0  0  0  0  0  0  0  0
  183.8590  170.2360  135.7350 O   0  0  0  0  0  1  0  0  0  0  0  0
  182.4830  168.4510  135.3260 O   0  0  0  0  0  0  0  0  0  0  0  0
  183.7380  168.9920  135.5750 C   0  0  0  0  0  0  0  0  0  0  0  0
  189.2900  176.8160  139.5030 C   0  0  0  0  0  3  0  0  0  0  0  0
  189.1060  177.9050  140.2430 C   0  0  0  0  0  3  0  0  0  0  0  0
  189.7340  177.8800  142.8070 C   0  0  0  0  0  0  0  0  0  0  0  0
  189.4480  177.8910  141.6350 C   0  0  0  0  0  0  0  0  0  0  0  0
  190.3490  176.4970  144.6630 N   0  0  0  0  0  0  0  0  0  0  0  0
  190.0810  177.8660  144.2310 C   0  0  2  0  0  3  0  0  0  0  0  0
  189.0210  178.4200  144.9830 O   0  0  0  0  0  0  0  0  0  0  0  0
  188.6090  177.4170  145.8710 C   0  0  1  0  0  3  0  0  0  0  0  0
  191.7950  176.2900  144.6990 C   0  0  0  0  0  1  0  0  0  0  0  0
  189.7400  176.4240  145.9840 C   0  0  2  0  0  3  0  0  0  0  0  0
  188.9800  178.8560  147.8890 O   0  0  0  0  0  1  0  0  0  0  0  0
  187.0390  177.6640  147.6500 O   0  0  0  0  0  0  0  0  0  0  0  0
  188.1570  177.9920  147.1770 C   0  0  0  0  0  0  0  0  0  0  0  0
  190.6370  176.8120  146.9950 O   0  0  0  0  0  0  0  0  0  0  0  0
  191.1270  175.6810  147.4580 O   0  0  0  0  0  1  0  0  0  0  0  0
  1 30  1  1  0  0  0
  2  3  1  0  0  0  0
  3  7  1  0  0  0  0
  4  6  1  1  0  0  0
  4  1  1  0  0  0  0
  5  7  2  0  0  0  0
  5  8  1  0  0  0  0
  9 10  1  0  0  0  0
 11  7  1  6  0  0  0
 11 15  1  0  0  0  0
 11 16  1  0  0  0  0
 12  9  2  0  0  0  0
 13 12  1  0  0  0  0
 13 19  2  0  0  0  0
 14 19  1  0  0  0  0
 14  4  1  0  0  0  0
 15  8  1  6  0  0  0
 15  1  1  0  0  0  0
 16  1  1  0  0  0  0
 17 10  2  0  0  0  0
 17 16  1  0  0  0  0
 18  2  2  0  0  0  0
 18  5  1  0  0  0  0
 19 17  1  0  0  0  0
 21 12  1  0  0  0  0
 22 20  2  0  0  0  0
 22 21  1  0  0  0  0
 23 22  1  0  0  0  0
 23 24  1  0  0  0  0
 25 24  1  0  0  0  0
 25 26  1  0  0  0  0
 28 29  2  0  0  0  0
 29 26  1  0  0  0  0
 29 27  1  0  0  0  0
 30 31  2  0  0  0  0
 31 33  1  0  0  0  0
 33 32  3  0  0  0  0
 34 38  1  0  0  0  0
 34 39  1  0  0  0  0
 35 32  1  6  0  0  0
 35 34  1  0  0  0  0
 35 36  1  0  0  0  0
 36 37  1  0  0  0  0
 37 39  1  0  0  0  0
 37 42  1  1  0  0  0
 39 43  1  1  0  0  0
 42 41  2  0  0  0  0
 42 40  1  0  0  0  0
 43 44  1  0  0  0  0
M  END
>  <MODEL>
3

>  <REMARK>
 VINA RESULT:      -4.3      4.465      6.675
  Name = 
  11 active torsions:
  status: ('A' for Active; 'I' for Inactive)
    1  A    between atoms: C_2  and  C_12
    2  A    between atoms: O_5  and  C_38
    3  A    between atoms: C_8  and  O_24
    4  A    between atoms: C_8  and  C_36
    5  A    between atoms: C_10  and  C_39
    6  A    between atoms: O_16  and  C_36
    7  A    between atoms: O_16  and  C_42
    8  A    between atoms: C_18  and  C_29
    9  A    between atoms: O_24  and  C_44
   10  A    between atoms: N_25  and  C_26
   11  A    between atoms: C_35  and  C_40
                            x       y       z     vdW  Elec       q    Type
                         _______ _______ _______ _____ _____    ______ ____

>  <TORSDO>
F 11

$$$$
=
 OpenBabel10232407563D

 44 49  0  0  1  0  0  0  0  0999 V2000
  186.3710  174.6290  136.0650 C   0  0  1  0  0  0  0  0  0  0  0  0
  188.4230  169.9060  135.3250 N   0  0  0  0  0  0  0  0  0  0  0  0
  188.5560  170.7480  136.5110 C   0  0  0  0  0  2  0  0  0  0  0  0
  186.8370  175.3800  134.7560 C   0  0  1  0  0  3  0  0  0  0  0  0
  187.4620  171.8090  134.8530 C   0  0  0  0  0  0  0  0  0  0  0  0
  186.5960  176.8860  134.7810 C   0  0  0  0  0  1  0  0  0  0  0  0
  187.8900  172.0020  136.0630 C   0  0  0  0  0  0  0  0  0  0  0  0
  186.2180  172.5460  134.5510 C   0  0  0  0  0  2  0  0  0  0  0  0
  191.0220  175.3370  137.7200 C   0  0  0  0  0  3  0  0  0  0  0  0
  189.7360  174.8100  137.8860 C   0  0  0  0  0  3  0  0  0  0  0  0
  186.9980  172.9020  136.8450 C   0  0  2  0  0  3  0  0  0  0  0  0
  191.4310  175.8430  136.4740 C   0  0  0  0  0  0  0  0  0  0  0  0
  190.5430  175.8060  135.3910 C   0  0  0  0  0  3  0  0  0  0  0  0
  188.3180  175.1390  134.3840 C   0  0  0  0  0  2  0  0  0  0  0  0
  185.8650  173.2150  135.8960 C   0  0  1  0  0  3  0  0  0  0  0  0
  187.5420  174.2800  136.8960 N   0  0  0  0  0  0  0  0  0  0  0  0
  188.8600  174.8010  136.8010 C   0  0  0  0  0  0  0  0  0  0  0  0
  187.7860  170.5070  134.4040 N   0  0  0  0  0  0  0  0  0  0  0  0
  189.2530  175.2970  135.5570 C   0  0  0  0  0  0  0  0  0  0  0  0
  194.0290  174.5700  137.0090 O   0  0  0  0  0  0  0  0  0  0  0  0
  192.7420  176.3860  136.2690 N   0  0  0  0  0  2  0  0  0  0  0  0
  193.9960  175.7360  136.5350 C   0  0  0  0  0  0  0  0  0  0  0  0
  195.1990  176.3940  136.2750 O   0  0  0  0  0  0  0  0  0  0  0  0
  195.8860  176.2690  135.0360 C   0  0  0  0  0  2  0  0  0  0  0  0
  197.3260  175.8420  135.2630 C   0  0  0  0  0  2  0  0  0  0  0  0
  197.3570  174.5900  135.9330 O   0  0  0  0  0  0  0  0  0  0  0  0
  197.2340  173.4420  137.9350 O   0  0  0  0  0  0  0  0  0  0  0  0
  198.0220  175.5910  138.0160 O   0  0  0  0  0  1  0  0  0  0  0  0
  197.5240  174.5000  137.3150 C   0  0  0  0  0  0  0  0  0  0  0  0
  185.3830  175.4160  136.8940 C   0  0  0  0  0  3  0  0  0  0  0  0
  184.0760  175.1830  136.8420 C   0  0  0  0  0  3  0  0  0  0  0  0
  182.4190  176.6100  138.3210 C   0  0  0  0  0  0  0  0  0  0  0  0
  183.1770  175.9570  137.6460 C   0  0  0  0  0  0  0  0  0  0  0  0
  181.5240  178.7970  138.7100 N   0  0  0  0  0  0  0  0  0  0  0  0
  181.4970  177.4020  139.1410 C   0  0  2  0  0  3  0  0  0  0  0  0
  181.8660  177.3020  140.5010 O   0  0  0  0  0  0  0  0  0  0  0  0
  182.1380  178.6090  140.9280 C   0  0  1  0  0  3  0  0  0  0  0  0
  180.3690  179.0450  137.8500 C   0  0  0  0  0  1  0  0  0  0  0  0
  181.4650  179.5470  139.9560 C   0  0  2  0  0  3  0  0  0  0  0  0
  180.4830  178.4360  142.8020 O   0  0  0  0  0  0  0  0  0  0  0  0
  182.5500  179.3580  143.1550 O   0  0  0  0  0  1  0  0  0  0  0  0
  181.7450  178.8120  142.3580 C   0  0  0  0  0  0  0  0  0  0  0  0
  180.1390  179.7990  140.3520 O   0  0  0  0  0  0  0  0  0  0  0  0
  180.1290  181.0710  140.6930 O   0  0  0  0  0  1  0  0  0  0  0  0
  1 30  1  1  0  0  0
  1 16  1  0  0  0  0
  2  3  1  0  0  0  0
  4  6  1  1  0  0  0
  4  1  1  0  0  0  0
  5  7  2  0  0  0  0
  7  3  1  0  0  0  0
  8  5  1  0  0  0  0
  9 10  1  0  0  0  0
 11  7  1  6  0  0  0
 11 16  1  0  0  0  0
 12  9  2  0  0  0  0
 13 19  2  0  0  0  0
 13 12  1  0  0  0  0
 14  4  1  0  0  0  0
 14 19  1  0  0  0  0
 15  8  1  6  0  0  0
 15  1  1  0  0  0  0
 15 11  1  0  0  0  0
 17 16  1  0  0  0  0
 17 10  2  0  0  0  0
 18  5  1  0  0  0  0
 18  2  2  0  0  0  0
 19 17  1  0  0  0  0
 21 12  1  0  0  0  0
 21 22  1  0  0  0  0
 22 20  2  0  0  0  0
 23 22  1  0  0  0  0
 24 25  1  0  0  0  0
 24 23  1  0  0  0  0
 25 26  1  0  0  0  0
 26 29  1  0  0  0  0
 29 27  2  0  0  0  0
 29 28  1  0  0  0  0
 31 30  2  0  0  0  0
 31 33  1  0  0  0  0
 33 32  3  0  0  0  0
 34 35  1  0  0  0  0
 34 39  1  0  0  0  0
 35 32  1  6  0  0  0
 35 36  1  0  0  0  0
 36 37  1  0  0  0  0
 37 42  1  1  0  0  0
 38 34  1  0  0  0  0
 39 43  1  1  0  0  0
 39 37  1  0  0  0  0
 42 40  2  0  0  0  0
 42 41  1  0  0  0  0
 43 44  1  0  0  0  0
M  END
>  <MODEL>
4

>  <REMARK>
 VINA RESULT:      -4.0      4.002      5.406
  Name = 
  11 active torsions:
  status: ('A' for Active; 'I' for Inactive)
    1  A    between atoms: C_2  and  C_12
    2  A    between atoms: O_5  and  C_38
    3  A    between atoms: C_8  and  O_24
    4  A    between atoms: C_8  and  C_36
    5  A    between atoms: C_10  and  C_39
    6  A    between atoms: O_16  and  C_36
    7  A    between atoms: O_16  and  C_42
    8  A    between atoms: C_18  and  C_29
    9  A    between atoms: O_24  and  C_44
   10  A    between atoms: N_25  and  C_26
   11  A    between atoms: C_35  and  C_40
                            x       y       z     vdW  Elec       q    Type
                         _______ _______ _______ _____ _____    ______ ____

>  <TORSDO>
F 11

$$$$
=
 OpenBabel10232407563D

 44 49  0  0  1  0  0  0  0  0999 V2000
  190.1310  176.8110  136.9820 C   0  0  1  0  0  0  0  0  0  0  0  0
  187.7930  178.3400  141.3710 N   0  0  0  0  0  0  0  0  0  0  0  0
  188.1250  176.9720  140.9800 C   0  0  0  0  0  2  0  0  0  0  0  0
  189.2510  177.5360  135.8910 C   0  0  1  0  0  3  0  0  0  0  0  0
  188.5830  178.4430  139.3380 C   0  0  0  0  0  0  0  0  0  0  0  0
  189.5350  177.0890  134.4610 C   0  0  0  0  0  1  0  0  0  0  0  0
  188.6260  177.1710  139.5920 C   0  0  0  0  0  0  0  0  0  0  0  0
  189.6580  178.8920  138.4300 C   0  0  0  0  0  2  0  0  0  0  0  0
  186.4150  173.4980  137.2910 C   0  0  0  0  0  3  0  0  0  0  0  0
  187.6560  173.9810  137.7210 C   0  0  0  0  0  3  0  0  0  0  0  0
  189.7700  176.4950  138.9200 C   0  0  2  0  0  3  0  0  0  0  0  0
  185.6020  174.2720  136.4440 C   0  0  0  0  0  0  0  0  0  0  0  0
  186.0390  175.5420  136.0410 C   0  0  0  0  0  3  0  0  0  0  0  0
  187.7280  177.4250  136.1320 C   0  0  0  0  0  2  0  0  0  0  0  0
  190.4950  177.6140  138.2100 C   0  0  1  0  0  3  0  0  0  0  0  0
  189.3270  175.7930  137.6920 N   0  0  0  0  0  0  0  0  0  0  0  0
  188.0820  175.2390  137.2930 C   0  0  0  0  0  0  0  0  0  0  0  0
  188.0760  179.1630  140.4450 N   0  0  0  0  0  0  0  0  0  0  0  0
  187.2840  176.0200  136.4550 C   0  0  0  0  0  0  0  0  0  0  0  0
  182.9760  174.6380  137.7200 O   0  0  0  0  0  0  0  0  0  0  0  0
  184.3240  173.8090  135.9880 N   0  0  0  0  0  2  0  0  0  0  0  0
  183.0550  174.0090  136.6320 C   0  0  0  0  0  0  0  0  0  0  0  0
  181.8880  173.5010  136.0590 O   0  0  0  0  0  0  0  0  0  0  0  0
  181.4060  172.1920  136.3380 C   0  0  0  0  0  2  0  0  0  0  0  0
  181.7460  171.2430  135.2010 C   0  0  0  0  0  2  0  0  0  0  0  0
  182.1390  169.9830  135.7280 O   0  0  0  0  0  0  0  0  0  0  0  0
  184.3910  170.4970  135.8100 O   0  0  0  0  0  0  0  0  0  0  0  0
  183.8210  168.2880  136.0110 O   0  0  0  0  0  1  0  0  0  0  0  0
  183.4820  169.6240  135.8460 C   0  0  0  0  0  0  0  0  0  0  0  0
  191.3780  176.1650  136.4230 C   0  0  0  0  0  3  0  0  0  0  0  0
  192.5700  176.3290  136.9870 C   0  0  0  0  0  3  0  0  0  0  0  0
  194.6970  175.1690  135.9380 C   0  0  0  0  0  0  0  0  0  0  0  0
  193.7250  175.6990  136.4170 C   0  0  0  0  0  0  0  0  0  0  0  0
  195.8630  173.0960  135.6510 N   0  0  0  0  0  0  0  0  0  0  0  0
  195.8800  174.5270  135.3570 C   0  0  2  0  0  3  0  0  0  0  0  0
  197.0490  175.1220  135.8820 O   0  0  0  0  0  0  0  0  0  0  0  0
  197.7600  174.0910  136.5130 C   0  0  1  0  0  3  0  0  0  0  0  0
  195.3670  172.3820  134.4770 C   0  0  0  0  0  1  0  0  0  0  0  0
  197.2530  172.7860  135.9490 C   0  0  2  0  0  3  0  0  0  0  0  0
  199.7530  175.1950  135.4690 O   0  0  0  0  0  0  0  0  0  0  0  0
  200.0210  173.6010  137.0920 O   0  0  0  0  0  1  0  0  0  0  0  0
  199.2390  174.2880  136.3870 C   0  0  0  0  0  0  0  0  0  0  0  0
  197.9710  172.4380  134.7910 O   0  0  0  0  0  0  0  0  0  0  0  0
  198.5250  171.2780  135.0790 O   0  0  0  0  0  1  0  0  0  0  0  0
  1 30  1  6  0  0  0
  1 16  1  0  0  0  0
  1 15  1  0  0  0  0
  3  2  1  0  0  0  0
  4  6  1  6  0  0  0
  4 14  1  0  0  0  0
  4  1  1  0  0  0  0
  5  7  2  0  0  0  0
  5 18  1  0  0  0  0
  7  3  1  0  0  0  0
  8  5  1  0  0  0  0
  9 10  1  0  0  0  0
 11  7  1  6  0  0  0
 12  9  2  0  0  0  0
 13 12  1  0  0  0  0
 13 19  2  0  0  0  0
 14 19  1  0  0  0  0
 15  8  1  6  0  0  0
 15 11  1  0  0  0  0
 16 11  1  0  0  0  0
 17 16  1  0  0  0  0
 17 10  2  0  0  0  0
 18  2  2  0  0  0  0
 19 17  1  0  0  0  0
 21 12  1  0  0  0  0
 21 22  1  0  0  0  0
 22 20  2  0  0  0  0
 23 24  1  0  0  0  0
 23 22  1  0  0  0  0
 25 26  1  0  0  0  0
 25 24  1  0  0  0  0
 26 29  1  0  0  0  0
 27 29  2  0  0  0  0
 29 28  1  0  0  0  0
 30 31  2  0  0  0  0
 32 33  3  0  0  0  0
 33 31  1  0  0  0  0
 34 39  1  0  0  0  0
 35 34  1  0  0  0  0
 35 36  1  0  0  0  0
 35 32  1  1  0  0  0
 36 37  1  0  0  0  0
 37 42  1  6  0  0  0
 38 34  1  0  0  0  0
 39 43  1  6  0  0  0
 39 37  1  0  0  0  0
 40 42  2  0  0  0  0
 42 41  1  0  0  0  0
 43 44  1  0  0  0  0
M  END
>  <MODEL>
5

>  <REMARK>
 VINA RESULT:      -3.9      4.566     11.130
  Name = 
  11 active torsions:
  status: ('A' for Active; 'I' for Inactive)
    1  A    between atoms: C_2  and  C_12
    2  A    between atoms: O_5  and  C_38
    3  A    between atoms: C_8  and  O_24
    4  A    between atoms: C_8  and  C_36
    5  A    between atoms: C_10  and  C_39
    6  A    between atoms: O_16  and  C_36
    7  A    between atoms: O_16  and  C_42
    8  A    between atoms: C_18  and  C_29
    9  A    between atoms: O_24  and  C_44
   10  A    between atoms: N_25  and  C_26
   11  A    between atoms: C_35  and  C_40
                            x       y       z     vdW  Elec       q    Type
                         _______ _______ _______ _____ _____    ______ ____

>  <TORSDO>
F 11

$$$$
=
 OpenBabel10232407563D

 44 49  0  0  1  0  0  0  0  0999 V2000
  190.2170  176.7700  136.9470 C   0  0  1  0  0  0  0  0  0  0  0  0
  187.8000  178.2990  141.2930 N   0  0  0  0  0  0  0  0  0  0  0  0
  188.1760  176.9360  140.9270 C   0  0  0  0  0  2  0  0  0  0  0  0
  189.3240  177.4500  135.8370 C   0  0  1  0  0  3  0  0  0  0  0  0
  188.6020  178.3920  139.2640 C   0  0  0  0  0  0  0  0  0  0  0  0
  189.6310  176.9880  134.4170 C   0  0  0  0  0  1  0  0  0  0  0  0
  188.6820  177.1270  139.5400 C   0  0  0  0  0  0  0  0  0  0  0  0
  189.6710  178.8590  138.3570 C   0  0  0  0  0  2  0  0  0  0  0  0
  186.6000  173.3520  137.2840 C   0  0  0  0  0  3  0  0  0  0  0  0
  187.8230  173.8790  137.7150 C   0  0  0  0  0  3  0  0  0  0  0  0
  189.8510  176.4750  138.8870 C   0  0  2  0  0  3  0  0  0  0  0  0
  185.7700  174.0860  136.4190 C   0  0  0  0  0  0  0  0  0  0  0  0
  186.1720  175.3620  135.9980 C   0  0  0  0  0  3  0  0  0  0  0  0
  187.8020  177.2970  136.0700 C   0  0  0  0  0  2  0  0  0  0  0  0
  190.5470  177.6030  138.1640 C   0  0  1  0  0  3  0  0  0  0  0  0
  189.4380  175.7400  137.6670 N   0  0  0  0  0  0  0  0  0  0  0  0
  188.2130  175.1420  137.2690 C   0  0  0  0  0  0  0  0  0  0  0  0
  188.0650  179.1150  140.3550 N   0  0  0  0  0  0  0  0  0  0  0  0
  187.3990  175.8840  136.4130 C   0  0  0  0  0  0  0  0  0  0  0  0
  183.1430  174.3000  137.7250 O   0  0  0  0  0  0  0  0  0  0  0  0
  184.5100  173.5780  135.9620 N   0  0  0  0  0  2  0  0  0  0  0  0
  183.2400  173.7030  136.6210 C   0  0  0  0  0  0  0  0  0  0  0  0
  182.0920  173.1570  136.0450 O   0  0  0  0  0  0  0  0  0  0  0  0
  180.9680  173.9500  135.6810 C   0  0  0  0  0  2  0  0  0  0  0  0
  181.4150  175.2240  134.9830 C   0  0  0  0  0  2  0  0  0  0  0  0
  181.1890  176.3410  135.8310 O   0  0  0  0  0  0  0  0  0  0  0  0
  183.2350  177.3770  135.5500 O   0  0  0  0  0  0  0  0  0  0  0  0
  181.4380  178.7280  135.9920 O   0  0  0  0  0  1  0  0  0  0  0  0
  182.0000  177.4750  135.7840 C   0  0  0  0  0  0  0  0  0  0  0  0
  191.4870  176.1530  136.4070 C   0  0  0  0  0  3  0  0  0  0  0  0
  192.6620  176.3270  137.0010 C   0  0  0  0  0  3  0  0  0  0  0  0
  194.8320  175.2180  135.9870 C   0  0  0  0  0  0  0  0  0  0  0  0
  193.8400  175.7240  136.4500 C   0  0  0  0  0  0  0  0  0  0  0  0
  195.9840  173.1530  135.6010 N   0  0  0  0  0  0  0  0  0  0  0  0
  196.0390  174.6020  135.4250 C   0  0  2  0  0  3  0  0  0  0  0  0
  197.1830  175.1320  136.0630 O   0  0  0  0  0  0  0  0  0  0  0  0
  197.8410  174.0410  136.6490 C   0  0  1  0  0  3  0  0  0  0  0  0
  195.5500  172.5440  134.3460 C   0  0  0  0  0  1  0  0  0  0  0  0
  197.3500  172.7950  135.9530 C   0  0  2  0  0  3  0  0  0  0  0  0
  199.9170  175.0950  135.7220 O   0  0  0  0  0  0  0  0  0  0  0  0
  200.0480  173.5470  137.4050 O   0  0  0  0  0  1  0  0  0  0  0  0
  199.3270  174.2200  136.6250 C   0  0  0  0  0  0  0  0  0  0  0  0
  198.1310  172.5270  134.8140 O   0  0  0  0  0  0  0  0  0  0  0  0
  198.6410  171.3330  135.0340 O   0  0  0  0  0  1  0  0  0  0  0  0
  1 30  1  6  0  0  0
  1 16  1  0  0  0  0
  1 15  1  0  0  0  0
  3  2  1  0  0  0  0
  4  6  1  6  0  0  0
  4 14  1  0  0  0  0
  4  1  1  0  0  0  0
  5  7  2  0  0  0  0
  5 18  1  0  0  0  0
  7  3  1  0  0  0  0
  8  5  1  0  0  0  0
  9 10  1  0  0  0  0
 11  7  1  6  0  0  0
 12  9  2  0  0  0  0
 13 19  2  0  0  0  0
 13 12  1  0  0  0  0
 14 19  1  0  0  0  0
 15  8  1  6  0  0  0
 15 11  1  0  0  0  0
 16 11  1  0  0  0  0
 17 16  1  0  0  0  0
 17 10  2  0  0  0  0
 18  2  2  0  0  0  0
 19 17  1  0  0  0  0
 21 12  1  0  0  0  0
 21 22  1  0  0  0  0
 22 20  2  0  0  0  0
 23 22  1  0  0  0  0
 24 23  1  0  0  0  0
 25 24  1  0  0  0  0
 25 26  1  0  0  0  0
 27 29  2  0  0  0  0
 29 26  1  0  0  0  0
 29 28  1  0  0  0  0
 30 31  2  0  0  0  0
 32 33  3  0  0  0  0
 33 31  1  0  0  0  0
 34 39  1  0  0  0  0
 35 34  1  0  0  0  0
 35 32  1  1  0  0  0
 35 36  1  0  0  0  0
 36 37  1  0  0  0  0
 37 42  1  6  0  0  0
 38 34  1  0  0  0  0
 39 43  1  6  0  0  0
 39 37  1  0  0  0  0
 40 42  2  0  0  0  0
 42 41  1  0  0  0  0
 43 44  1  0  0  0  0
M  END
>  <MODEL>
6

>  <REMARK>
 VINA RESULT:      -3.7      4.361     11.252
  Name = 
  11 active torsions:
  status: ('A' for Active; 'I' for Inactive)
    1  A    between atoms: C_2  and  C_12
    2  A    between atoms: O_5  and  C_38
    3  A    between atoms: C_8  and  O_24
    4  A    between atoms: C_8  and  C_36
    5  A    between atoms: C_10  and  C_39
    6  A    between atoms: O_16  and  C_36
    7  A    between atoms: O_16  and  C_42
    8  A    between atoms: C_18  and  C_29
    9  A    between atoms: O_24  and  C_44
   10  A    between atoms: N_25  and  C_26
   11  A    between atoms: C_35  and  C_40
                            x       y       z     vdW  Elec       q    Type
                         _______ _______ _______ _____ _____    ______ ____

>  <TORSDO>
F 11

$$$$
=
 OpenBabel10232407563D

 44 49  0  0  1  0  0  0  0  0999 V2000
  184.8850  178.5720  139.4440 C   0  0  1  0  0  0  0  0  0  0  0  0
  179.9960  179.5230  137.9420 N   0  0  0  0  0  0  0  0  0  0  0  0
  180.4690  178.3940  138.7400 C   0  0  0  0  0  2  0  0  0  0  0  0
  185.6610  178.6880  138.0740 C   0  0  1  0  0  3  0  0  0  0  0  0
  182.1720  179.6780  138.0200 C   0  0  0  0  0  0  0  0  0  0  0  0
  187.1090  178.2160  138.1340 C   0  0  0  0  0  1  0  0  0  0  0  0
  181.9430  178.5990  138.7030 C   0  0  0  0  0  0  0  0  0  0  0  0
  183.3620  180.4200  138.4860 C   0  0  0  0  0  2  0  0  0  0  0  0
  183.4710  174.0540  137.8740 C   0  0  0  0  0  3  0  0  0  0  0  0
  183.4350  175.0810  138.8250 C   0  0  0  0  0  3  0  0  0  0  0  0
  182.9290  178.4000  139.8010 C   0  0  2  0  0  3  0  0  0  0  0  0
  184.0330  174.2750  136.6050 C   0  0  0  0  0  0  0  0  0  0  0  0
  184.5490  175.5410  136.2910 C   0  0  0  0  0  3  0  0  0  0  0  0
  184.9710  177.9620  136.8950 C   0  0  0  0  0  2  0  0  0  0  0  0
  183.8240  179.6130  139.7180 C   0  0  1  0  0  3  0  0  0  0  0  0
  183.9660  177.4140  139.4140 N   0  0  0  0  0  0  0  0  0  0  0  0
  183.9710  176.3270  138.5000 C   0  0  0  0  0  0  0  0  0  0  0  0
  180.9640  180.2520  137.5600 N   0  0  0  0  0  0  0  0  0  0  0  0
  184.5290  176.5620  137.2430 C   0  0  0  0  0  0  0  0  0  0  0  0
  185.8610  171.9750  136.4540 O   0  0  0  0  0  0  0  0  0  0  0  0
  184.0820  173.2470  135.6070 N   0  0  0  0  0  2  0  0  0  0  0  0
  184.9850  172.1310  135.5630 C   0  0  0  0  0  0  0  0  0  0  0  0
  184.9060  171.2020  134.5240 O   0  0  0  0  0  0  0  0  0  0  0  0
  183.7820  170.3480  134.3460 C   0  0  0  0  0  2  0  0  0  0  0  0
  183.4380  169.6390  135.6450 C   0  0  0  0  0  2  0  0  0  0  0  0
  182.2440  168.8860  135.4800 O   0  0  0  0  0  0  0  0  0  0  0  0
  180.2090  168.9610  134.3880 O   0  0  0  0  0  0  0  0  0  0  0  0
  180.7070  170.7120  135.7780 O   0  0  0  0  0  1  0  0  0  0  0  0
  181.0260  169.4980  135.1840 C   0  0  0  0  0  0  0  0  0  0  0  0
  185.7940  178.4600  140.6460 C   0  0  0  0  0  3  0  0  0  0  0  0
  187.1170  178.4210  140.5280 C   0  0  0  0  0  3  0  0  0  0  0  0
  188.6300  178.2190  142.6820 C   0  0  0  0  0  0  0  0  0  0  0  0
  187.9390  178.3110  141.6970 C   0  0  0  0  0  0  0  0  0  0  0  0
  190.1560  176.8190  143.8850 N   0  0  0  0  0  0  0  0  0  0  0  0
  189.4680  178.1070  143.8790 C   0  0  2  0  0  3  0  0  0  0  0  0
  188.6660  178.2410  145.0350 O   0  0  0  0  0  0  0  0  0  0  0  0
  188.8270  177.0520  145.7590 C   0  0  1  0  0  3  0  0  0  0  0  0
  191.5230  177.0140  143.4100 C   0  0  0  0  0  1  0  0  0  0  0  0
  190.1020  176.4030  145.2790 C   0  0  2  0  0  3  0  0  0  0  0  0
  189.0460  178.5590  147.7500 O   0  0  0  0  0  0  0  0  0  0  0  0
  188.5170  176.3470  148.0170 O   0  0  0  0  0  1  0  0  0  0  0  0
  188.7750  177.2970  147.2350 C   0  0  0  0  0  0  0  0  0  0  0  0
  191.2040  176.8810  146.0100 O   0  0  0  0  0  0  0  0  0  0  0  0
  191.8990  175.8040  146.3090 O   0  0  0  0  0  1  0  0  0  0  0  0
  1 15  1  0  0  0  0
  1 30  1  1  0  0  0
  2  3  1  0  0  0  0
  4  6  1  1  0  0  0
  4  1  1  0  0  0  0
  5  8  1  0  0  0  0
  5  7  2  0  0  0  0
  7  3  1  0  0  0  0
  9 10  1  0  0  0  0
 11  7  1  6  0  0  0
 12  9  2  0  0  0  0
 13 12  1  0  0  0  0
 13 19  2  0  0  0  0
 14 19  1  0  0  0  0
 14  4  1  0  0  0  0
 15  8  1  6  0  0  0
 15 11  1  0  0  0  0
 16  1  1  0  0  0  0
 16 11  1  0  0  0  0
 17 10  2  0  0  0  0
 17 16  1  0  0  0  0
 18  2  2  0  0  0  0
 18  5  1  0  0  0  0
 19 17  1  0  0  0  0
 21 12  1  0  0  0  0
 22 21  1  0  0  0  0
 22 20  2  0  0  0  0
 23 22  1  0  0  0  0
 24 23  1  0  0  0  0
 24 25  1  0  0  0  0
 26 25  1  0  0  0  0
 27 29  2  0  0  0  0
 29 26  1  0  0  0  0
 29 28  1  0  0  0  0
 31 30  2  0  0  0  0
 31 33  1  0  0  0  0
 33 32  3  0  0  0  0
 34 39  1  0  0  0  0
 35 32  1  6  0  0  0
 35 34  1  0  0  0  0
 35 36  1  0  0  0  0
 36 37  1  0  0  0  0
 37 42  1  1  0  0  0
 38 34  1  0  0  0  0
 39 37  1  0  0  0  0
 39 43  1  1  0  0  0
 42 40  2  0  0  0  0
 42 41  1  0  0  0  0
 43 44  1  0  0  0  0
M  END
>  <MODEL>
7

>  <REMARK>
 VINA RESULT:      -3.5      5.532      8.280
  Name = 
  11 active torsions:
  status: ('A' for Active; 'I' for Inactive)
    1  A    between atoms: C_2  and  C_12
    2  A    between atoms: O_5  and  C_38
    3  A    between atoms: C_8  and  O_24
    4  A    between atoms: C_8  and  C_36
    5  A    between atoms: C_10  and  C_39
    6  A    between atoms: O_16  and  C_36
    7  A    between atoms: O_16  and  C_42
    8  A    between atoms: C_18  and  C_29
    9  A    between atoms: O_24  and  C_44
   10  A    between atoms: N_25  and  C_26
   11  A    between atoms: C_35  and  C_40
                            x       y       z     vdW  Elec       q    Type
                         _______ _______ _______ _____ _____    ______ ____

>  <TORSDO>
F 11

$$$$
=
 OpenBabel10232407563D

 44 49  0  0  1  0  0  0  0  0999 V2000
  184.2530  178.6120  139.9460 C   0  0  1  0  0  0  0  0  0  0  0  0
  180.0010  179.6070  137.1170 N   0  0  0  0  0  0  0  0  0  0  0  0
  180.2920  178.3910  137.8720 C   0  0  0  0  0  2  0  0  0  0  0  0
  185.3990  178.9520  138.9150 C   0  0  1  0  0  3  0  0  0  0  0  0
  182.0300  179.8220  137.8950 C   0  0  0  0  0  0  0  0  0  0  0  0
  186.7920  178.5250  139.3670 C   0  0  0  0  0  1  0  0  0  0  0  0
  181.6860  178.6480  138.3270 C   0  0  0  0  0  0  0  0  0  0  0  0
  182.9580  180.5270  138.8030 C   0  0  0  0  0  2  0  0  0  0  0  0
  183.7420  174.3260  137.4450 C   0  0  0  0  0  3  0  0  0  0  0  0
  183.3370  175.2010  138.4590 C   0  0  0  0  0  3  0  0  0  0  0  0
  182.3010  178.3240  139.6440 C   0  0  2  0  0  3  0  0  0  0  0  0
  184.6470  174.7490  136.4560 C   0  0  0  0  0  0  0  0  0  0  0  0
  185.1340  176.0630  136.4860 C   0  0  0  0  0  3  0  0  0  0  0  0
  185.1620  178.3830  137.4970 C   0  0  0  0  0  2  0  0  0  0  0  0
  183.0810  179.5660  140.0030 C   0  0  1  0  0  3  0  0  0  0  0  0
  183.4800  177.4410  139.4800 N   0  0  0  0  0  0  0  0  0  0  0  0
  183.8490  176.4990  138.4830 C   0  0  0  0  0  0  0  0  0  0  0  0
  180.9800  180.4160  137.1560 N   0  0  0  0  0  0  0  0  0  0  0  0
  184.7450  176.9340  137.5060 C   0  0  0  0  0  0  0  0  0  0  0  0
  186.8110  172.7570  136.5150 O   0  0  0  0  0  0  0  0  0  0  0  0
  185.0790  173.8800  135.4010 N   0  0  0  0  0  2  0  0  0  0  0  0
  186.1380  172.9110  135.4620 C   0  0  0  0  0  0  0  0  0  0  0  0
  186.4400  172.1280  134.3470 O   0  0  0  0  0  0  0  0  0  0  0  0
  186.3550  170.7080  134.3640 C   0  0  0  0  0  2  0  0  0  0  0  0
  185.5060  170.2370  135.5330 C   0  0  0  0  0  2  0  0  0  0  0  0
  184.6370  169.1960  135.1080 O   0  0  0  0  0  0  0  0  0  0  0  0
  182.7360  170.5070  135.0240 O   0  0  0  0  0  0  0  0  0  0  0  0
  182.4310  168.2400  135.1410 O   0  0  0  0  0  1  0  0  0  0  0  0
  183.2510  169.3590  135.0900 C   0  0  0  0  0  0  0  0  0  0  0  0
  184.7550  178.3560  141.3480 C   0  0  0  0  0  3  0  0  0  0  0  0
  186.0120  177.9990  141.5910 C   0  0  0  0  0  3  0  0  0  0  0  0
  186.8030  177.5660  144.0720 C   0  0  0  0  0  0  0  0  0  0  0  0
  186.4420  177.7630  142.9380 C   0  0  0  0  0  0  0  0  0  0  0  0
  187.2090  178.5740  146.2070 N   0  0  0  0  0  0  0  0  0  0  0  0
  187.2400  177.3250  145.4510 C   0  0  2  0  0  3  0  0  0  0  0  0
  188.5460  176.7850  145.4470 O   0  0  0  0  0  0  0  0  0  0  0  0
  189.3390  177.6820  146.1760 C   0  0  1  0  0  3  0  0  0  0  0  0
  185.9860  178.6100  147.0040 C   0  0  0  0  0  1  0  0  0  0  0  0
  188.4100  178.5130  147.0270 C   0  0  2  0  0  3  0  0  0  0  0  0
  191.6950  177.4950  147.0110 O   0  0  0  0  0  0  0  0  0  0  0  0
  190.1540  175.8720  147.4980 O   0  0  0  0  0  1  0  0  0  0  0  0
  190.4110  176.9700  146.9420 C   0  0  0  0  0  0  0  0  0  0  0  0
  188.1710  177.8780  148.2590 O   0  0  0  0  0  0  0  0  0  0  0  0
  188.5060  178.7730  149.1650 O   0  0  0  0  0  1  0  0  0  0  0  0
  1 15  1  0  0  0  0
  1 30  1  1  0  0  0
  2 18  2  0  0  0  0
  2  3  1  0  0  0  0
  3  7  1  0  0  0  0
  4  6  1  1  0  0  0
  4  1  1  0  0  0  0
  5  7  2  0  0  0  0
  5  8  1  0  0  0  0
  9 10  1  0  0  0  0
 10 17  2  0  0  0  0
 11  7  1  6  0  0  0
 11 15  1  0  0  0  0
 12 13  1  0  0  0  0
 12  9  2  0  0  0  0
 13 19  2  0  0  0  0
 14 19  1  0  0  0  0
 14  4  1  0  0  0  0
 15  8  1  6  0  0  0
 16 11  1  0  0  0  0
 16  1  1  0  0  0  0
 17 16  1  0  0  0  0
 18  5  1  0  0  0  0
 19 17  1  0  0  0  0
 21 22  1  0  0  0  0
 21 12  1  0  0  0  0
 22 20  2  0  0  0  0
 23 24  1  0  0  0  0
 23 22  1  0  0  0  0
 24 25  1  0  0  0  0
 26 25  1  0  0  0  0
 27 29  2  0  0  0  0
 29 26  1  0  0  0  0
 29 28  1  0  0  0  0
 30 31  2  0  0  0  0
 31 33  1  0  0  0  0
 33 32  3  0  0  0  0
 34 38  1  0  0  0  0
 34 39  1  0  0  0  0
 35 32  1  6  0  0  0
 35 34  1  0  0  0  0
 36 35  1  0  0  0  0
 36 37  1  0  0  0  0
 37 42  1  1  0  0  0
 37 39  1  0  0  0  0
 39 43  1  1  0  0  0
 42 40  2  0  0  0  0
 42 41  1  0  0  0  0
 43 44  1  0  0  0  0
M  END
>  <MODEL>
8

>  <REMARK>
 VINA RESULT:      -3.5      5.652      7.664
  Name = 
  11 active torsions:
  status: ('A' for Active; 'I' for Inactive)
    1  A    between atoms: C_2  and  C_12
    2  A    between atoms: O_5  and  C_38
    3  A    between atoms: C_8  and  O_24
    4  A    between atoms: C_8  and  C_36
    5  A    between atoms: C_10  and  C_39
    6  A    between atoms: O_16  and  C_36
    7  A    between atoms: O_16  and  C_42
    8  A    between atoms: C_18  and  C_29
    9  A    between atoms: O_24  and  C_44
   10  A    between atoms: N_25  and  C_26
   11  A    between atoms: C_35  and  C_40
                            x       y       z     vdW  Elec       q    Type
                         _______ _______ _______ _____ _____    ______ ____

>  <TORSDO>
F 11

$$$$
=
 OpenBabel10232407563D

 44 49  0  0  1  0  0  0  0  0999 V2000
  184.6930  178.8850  139.3060 C   0  0  1  0  0  0  0  0  0  0  0  0
  180.0160  180.5860  137.7890 N   0  0  0  0  0  0  0  0  0  0  0  0
  180.3010  179.6090  138.8370 C   0  0  0  0  0  2  0  0  0  0  0  0
  185.3370  178.4690  137.9260 C   0  0  1  0  0  3  0  0  0  0  0  0
  182.1700  180.2260  137.7430 C   0  0  0  0  0  0  0  0  0  0  0  0
  186.6420  177.6920  138.0540 C   0  0  0  0  0  1  0  0  0  0  0  0
  181.7730  179.4370  138.6930 C   0  0  0  0  0  0  0  0  0  0  0  0
  183.5350  180.7510  137.9530 C   0  0  0  0  0  2  0  0  0  0  0  0
  182.1590  174.5980  139.0320 C   0  0  0  0  0  3  0  0  0  0  0  0
  182.4470  175.8050  139.6800 C   0  0  0  0  0  3  0  0  0  0  0  0
  182.7930  179.2830  139.7680 C   0  0  2  0  0  3  0  0  0  0  0  0
  182.6290  174.3570  137.7290 C   0  0  0  0  0  0  0  0  0  0  0  0
  183.3810  175.3440  137.0750 C   0  0  0  0  0  3  0  0  0  0  0  0
  184.3900  177.6640  137.0050 C   0  0  0  0  0  2  0  0  0  0  0  0
  183.9240  180.1860  139.3360 C   0  0  1  0  0  3  0  0  0  0  0  0
  183.5410  178.0120  139.6150 N   0  0  0  0  0  0  0  0  0  0  0  0
  183.2130  176.7650  139.0200 C   0  0  0  0  0  0  0  0  0  0  0  0
  181.0810  180.9430  137.1930 N   0  0  0  0  0  0  0  0  0  0  0  0
  183.6840  176.5420  137.7250 C   0  0  0  0  0  0  0  0  0  0  0  0
  184.4010  172.0400  137.3450 O   0  0  0  0  0  0  0  0  0  0  0  0
  182.3500  173.1350  137.0350 N   0  0  0  0  0  2  0  0  0  0  0  0
  183.2360  172.0160  136.8690 C   0  0  0  0  0  0  0  0  0  0  0  0
  182.8150  170.8830  136.1690 O   0  0  0  0  0  0  0  0  0  0  0  0
  183.6810  169.7870  135.8970 C   0  0  0  0  0  2  0  0  0  0  0  0
  184.5940  170.1040  134.7250 C   0  0  0  0  0  2  0  0  0  0  0  0
  185.8940  169.5880  134.9740 O   0  0  0  0  0  0  0  0  0  0  0  0
  187.0010  171.5250  135.5760 O   0  0  0  0  0  1  0  0  0  0  0  0
  188.1790  169.9940  134.3460 O   0  0  0  0  0  0  0  0  0  0  0  0
  187.0200  170.4110  134.9870 C   0  0  0  0  0  0  0  0  0  0  0  0
  185.6680  178.8570  140.4610 C   0  0  0  0  0  3  0  0  0  0  0  0
  185.4700  178.0950  141.5310 C   0  0  0  0  0  3  0  0  0  0  0  0
  187.2220  178.1110  143.5060 C   0  0  0  0  0  0  0  0  0  0  0  0
  186.4210  178.1050  142.6040 C   0  0  0  0  0  0  0  0  0  0  0  0
  188.9150  176.8470  144.6340 N   0  0  0  0  0  0  0  0  0  0  0  0
  188.1960  178.1180  144.6020 C   0  0  2  0  0  3  0  0  0  0  0  0
  187.5290  178.3350  145.8280 O   0  0  0  0  0  0  0  0  0  0  0  0
  187.8060  177.2150  146.6250 C   0  0  1  0  0  3  0  0  0  0  0  0
  190.2130  177.0270  143.9860 C   0  0  0  0  0  1  0  0  0  0  0  0
  189.0350  176.5510  146.0540 C   0  0  2  0  0  3  0  0  0  0  0  0
  187.8480  176.6080  149.0560 O   0  0  0  0  0  1  0  0  0  0  0  0
  188.0400  178.7930  148.3980 O   0  0  0  0  0  0  0  0  0  0  0  0
  187.9170  177.5860  148.0720 C   0  0  0  0  0  0  0  0  0  0  0  0
  190.2000  177.1110  146.6080 O   0  0  0  0  0  0  0  0  0  0  0  0
  190.7750  176.1150  147.2490 O   0  0  0  0  0  1  0  0  0  0  0  0
  1 15  1  0  0  0  0
  1 16  1  0  0  0  0
  1 30  1  1  0  0  0
  2  3  1  0  0  0  0
  4  6  1  1  0  0  0
  4  1  1  0  0  0  0
  5  8  1  0  0  0  0
  5  7  2  0  0  0  0
  7  3  1  0  0  0  0
  9 10  1  0  0  0  0
 11  7  1  6  0  0  0
 12  9  2  0  0  0  0
 13 19  2  0  0  0  0
 13 12  1  0  0  0  0
 14 19  1  0  0  0  0
 14  4  1  0  0  0  0
 15  8  1  6  0  0  0
 15 11  1  0  0  0  0
 16 11  1  0  0  0  0
 17 16  1  0  0  0  0
 17 10  2  0  0  0  0
 18  5  1  0  0  0  0
 18  2  2  0  0  0  0
 19 17  1  0  0  0  0
 21 12  1  0  0  0  0
 22 21  1  0  0  0  0
 22 20  2  0  0  0  0
 23 22  1  0  0  0  0
 24 23  1  0  0  0  0
 25 26  1  0  0  0  0
 25 24  1  0  0  0  0
 26 29  1  0  0  0  0
 28 29  2  0  0  0  0
 29 27  1  0  0  0  0
 30 31  2  0  0  0  0
 31 33  1  0  0  0  0
 33 32  3  0  0  0  0
 34 39  1  0  0  0  0
 35 32  1  6  0  0  0
 35 34  1  0  0  0  0
 35 36  1  0  0  0  0
 36 37  1  0  0  0  0
 37 42  1  1  0  0  0
 38 34  1  0  0  0  0
 39 43  1  1  0  0  0
 39 37  1  0  0  0  0
 42 41  2  0  0  0  0
 42 40  1  0  0  0  0
 43 44  1  0  0  0  0
M  END
>  <MODEL>
9

>  <REMARK>
 VINA RESULT:      -3.4      5.691      7.665
  Name = 
  11 active torsions:
  status: ('A' for Active; 'I' for Inactive)
    1  A    between atoms: C_2  and  C_12
    2  A    between atoms: O_5  and  C_38
    3  A    between atoms: C_8  and  O_24
    4  A    between atoms: C_8  and  C_36
    5  A    between atoms: C_10  and  C_39
    6  A    between atoms: O_16  and  C_36
    7  A    between atoms: O_16  and  C_42
    8  A    between atoms: C_18  and  C_29
    9  A    between atoms: O_24  and  C_44
   10  A    between atoms: N_25  and  C_26
   11  A    between atoms: C_35  and  C_40
                            x       y       z     vdW  Elec       q    Type
                         _______ _______ _______ _____ _____    ______ ____

>  <TORSDO>
F 11

$$$$
