=
 OpenBabel10232410183D

 41 44  0  0  1  0  0  0  0  0999 V2000
  188.3840  177.8080  139.6500 C   0  0  0  0  0  0  0  0  0  0  0  0
  189.6460  177.4320  140.1320 C   0  0  0  0  0  0  0  0  0  0  0  0
  186.5130  178.1630  138.0090 S   0  0  0  0  0  0  0  0  0  0  0  0
  188.0720  177.6270  138.3090 C   0  0  0  0  0  0  0  0  0  0  0  0
  188.9760  177.0840  137.4020 C   0  0  0  0  0  3  0  0  0  0  0  0
  187.3450  178.3760  140.4000 C   0  0  0  0  0  3  0  0  0  0  0  0
  190.5740  176.8840  139.2320 C   0  0  0  0  0  3  0  0  0  0  0  0
  186.2270  178.6320  139.6110 C   0  0  0  0  0  0  0  0  0  0  0  0
  190.2440  176.7060  137.8710 C   0  0  0  0  0  0  0  0  0  0  0  0
  191.0660  174.6490  136.7660 C   0  0  0  0  0  0  0  0  0  0  0  0
  194.3330  174.1740  138.1290 C   0  0  0  0  0  0  0  0  0  0  0  0
  191.2320  176.1290  136.9040 C   0  0  2  0  0  3  0  0  0  0  0  0
  192.1600  173.8530  137.1810 N   0  0  0  0  0  2  0  0  0  0  0  0
  193.2200  174.6810  137.6190 C   0  0  0  0  0  0  0  0  0  0  0  0
  190.0160  174.1300  136.3050 O   0  0  0  0  0  0  0  0  0  0  0  0
  195.7200  174.3200  138.7450 C   0  0  0  0  0  2  0  0  0  0  0  0
  192.9500  176.4410  137.4750 S   0  0  0  0  0  0  0  0  0  0  0  0
  195.2110  173.0020  138.5500 C   0  0  0  0  0  2  0  0  0  0  0  0
  182.8150  179.1720  140.8350 O   0  0  0  0  0  0  0  0  0  0  0  0
  183.7900  178.5190  140.3730 C   0  0  0  0  0  0  0  0  0  0  0  0
  185.0200  179.2070  140.1280 N   0  0  0  0  0  2  0  0  0  0  0  0
  183.6720  177.1480  140.1040 O   0  0  0  0  0  0  0  0  0  0  0  0
  182.9850  176.6000  139.0140 C   0  0  0  0  0  0  0  0  0  0  0  0
  182.8190  177.3770  137.8350 N   0  0  0  0  0  1  0  0  0  0  0  0
  182.5070  175.4360  139.0580 O   0  0  0  0  0  0  0  0  0  0  0  0
  190.0310  177.6360  141.5600 C   0  0  0  0  0  2  0  0  0  0  0  0
  190.2780  176.2950  142.2260 C   0  0  0  0  0  2  0  0  0  0  0  0
  189.0130  175.7970  142.8270 C   0  0  0  0  0  3  0  0  0  0  0  0
  188.1930  176.6320  143.3990 C   0  0  0  0  0  0  0  0  0  0  0  0
  187.3760  177.4690  143.9720 C   0  0  0  0  0  3  0  0  0  0  0  0
  186.6640  177.0810  145.1430 N   0  0  0  0  0  2  0  0  0  0  0  0
  186.7630  177.8540  146.3680 C   0  0  2  0  0  3  0  0  0  0  0  0
  184.4400  178.5590  146.5720 N   0  0  0  0  0  1  0  0  0  0  0  0
  185.7900  179.0180  146.2990 C   0  0  0  0  0  2  0  0  0  0  0  0
  188.1860  178.3800  146.5360 C   0  0  0  0  0  2  0  0  0  0  0  0
  189.6070  178.2210  148.4440 O   0  0  0  0  0  1  0  0  0  0  0  0
  189.0460  177.4660  147.4120 C   0  0  0  0  0  0  0  0  0  0  0  0
  188.2540  176.4520  147.9630 O   0  0  0  0  0  1  0  0  0  0  0  0
  191.3100  176.3190  147.4210 C   0  0  0  0  0  1  0  0  0  0  0  0
  190.1710  176.8520  146.5640 C   0  0  0  0  0  3  0  0  0  0  0  0
  190.7300  177.8530  145.5650 C   0  0  0  0  0  1  0  0  0  0  0  0
  1  2  1  0  0  0  0
  1  6  1  0  0  0  0
  2 26  1  0  0  0  0
  3  4  1  0  0  0  0
  3  8  1  0  0  0  0
  4  1  2  0  0  0  0
  5  9  2  0  0  0  0
  5  4  1  0  0  0  0
  7  2  2  0  0  0  0
  8 21  1  0  0  0  0
  8  6  2  0  0  0  0
  9  7  1  0  0  0  0
 10 12  1  0  0  0  0
 10 13  1  0  0  0  0
 11 18  1  0  0  0  0
 11 16  1  0  0  0  0
 12 17  1  0  0  0  0
 12  9  1  1  0  0  0
 13 14  1  0  0  0  0
 14 11  2  0  0  0  0
 15 10  2  0  0  0  0
 17 14  1  0  0  0  0
 18 16  1  0  0  0  0
 20 19  2  0  0  0  0
 21 20  1  0  0  0  0
 22 20  1  0  0  0  0
 23 25  2  0  0  0  0
 23 22  1  0  0  0  0
 24 23  1  0  0  0  0
 26 27  1  0  0  0  0
 27 28  1  0  0  0  0
 28 29  2  0  0  0  0
 29 30  2  0  0  0  0
 30 31  1  0  0  0  0
 31 32  1  0  0  0  0
 32 34  1  6  0  0  0
 32 35  1  0  0  0  0
 34 33  1  0  0  0  0
 35 37  1  0  0  0  0
 37 38  1  0  0  0  0
 37 36  1  0  0  0  0
 40 37  1  0  0  0  0
 40 39  1  0  0  0  0
 41 40  1  0  0  0  0
M  END
>  <MODEL>
1

>  <REMARK>
 VINA RESULT:      -7.8      0.000      0.000
  Name = 
  13 active torsions:
  status: ('A' for Active; 'I' for Inactive)
    1  A    between atoms: C_2  and  C_4
    2  A    between atoms: C_2  and  C_33
    3  A    between atoms: O_8  and  C_13
    4  A    between atoms: O_8  and  C_34
    5  A    between atoms: C_9  and  C_32
    6  A    between atoms: C_11  and  C_33
    7  A    between atoms: C_14  and  C_40
    8  A    between atoms: N_15  and  C_37
    9  A    between atoms: N_19  and  C_32
   10  A    between atoms: N_19  and  C_39
   11  A    between atoms: C_20  and  C_29
   12  A    between atoms: C_20  and  C_32
   13  A    between atoms: C_26  and  C_29
                            x       y       z     vdW  Elec       q    Type
                         _______ _______ _______ _____ _____    ______ ____

>  <TORSDO>
F 13

$$$$
=
 OpenBabel10232410183D

 41 44  0  0  1  0  0  0  0  0999 V2000
  186.8960  178.3590  140.5630 C   0  0  0  0  0  0  0  0  0  0  0  0
  186.0760  178.5130  141.6900 C   0  0  0  0  0  0  0  0  0  0  0  0
  187.5330  178.1170  138.1440 S   0  0  0  0  0  0  0  0  0  0  0  0
  186.3320  178.3120  139.2950 C   0  0  0  0  0  0  0  0  0  0  0  0
  184.9590  178.4070  139.0880 C   0  0  0  0  0  3  0  0  0  0  0  0
  188.2930  178.2380  140.5660 C   0  0  0  0  0  3  0  0  0  0  0  0
  184.6870  178.6090  141.5030 C   0  0  0  0  0  3  0  0  0  0  0  0
  188.7940  178.0950  139.2740 C   0  0  0  0  0  0  0  0  0  0  0  0
  184.1270  178.5600  140.2080 C   0  0  0  0  0  0  0  0  0  0  0  0
  182.1040  177.4240  139.3450 C   0  0  0  0  0  0  0  0  0  0  0  0
  181.1470  179.3780  136.5130 C   0  0  0  0  0  0  0  0  0  0  0  0
  182.6460  178.6530  140.0010 C   0  0  2  0  0  3  0  0  0  0  0  0
  181.5240  177.5970  138.0660 N   0  0  0  0  0  2  0  0  0  0  0  0
  181.5620  178.9640  137.7010 C   0  0  0  0  0  0  0  0  0  0  0  0
  182.1530  176.2920  139.8930 O   0  0  0  0  0  0  0  0  0  0  0  0
  180.8940  180.4720  135.4820 C   0  0  0  0  0  2  0  0  0  0  0  0
  182.2340  180.0820  138.9220 S   0  0  0  0  0  0  0  0  0  0  0  0
  180.5560  179.1310  135.1300 C   0  0  0  0  0  2  0  0  0  0  0  0
  192.1060  176.7990  138.3930 O   0  0  0  0  0  0  0  0  0  0  0  0
  190.8660  176.7530  138.6140 C   0  0  0  0  0  0  0  0  0  0  0  0
  190.1920  177.9570  138.9890 N   0  0  0  0  0  2  0  0  0  0  0  0
  190.1620  175.5460  138.4960 O   0  0  0  0  0  0  0  0  0  0  0  0
  189.8520  174.9120  137.2870 C   0  0  0  0  0  0  0  0  0  0  0  0
  189.6990  173.4980  137.2630 N   0  0  0  0  0  1  0  0  0  0  0  0
  189.7120  175.5660  136.2190 O   0  0  0  0  0  0  0  0  0  0  0  0
  186.6400  178.5400  143.0720 C   0  0  0  0  0  2  0  0  0  0  0  0
  185.5180  178.4570  144.0910 C   0  0  0  0  0  2  0  0  0  0  0  0
  185.8620  177.4530  145.1300 C   0  0  0  0  0  3  0  0  0  0  0  0
  186.8300  177.6920  145.9690 C   0  0  0  0  0  0  0  0  0  0  0  0
  187.8000  177.9330  146.8050 C   0  0  0  0  0  3  0  0  0  0  0  0
  188.6540  176.8760  147.2290 N   0  0  0  0  0  2  0  0  0  0  0  0
  189.9870  176.7240  146.6720 C   0  0  2  0  0  3  0  0  0  0  0  0
  192.2050  176.2010  147.5340 N   0  0  0  0  0  1  0  0  0  0  0  0
  191.0110  176.9960  147.7600 C   0  0  0  0  0  2  0  0  0  0  0  0
  190.1830  177.7060  145.5200 C   0  0  0  0  0  2  0  0  0  0  0  0
  191.4150  176.0520  144.3250 O   0  0  0  0  0  1  0  0  0  0  0  0
  190.3980  176.9980  144.1810 C   0  0  0  0  0  0  0  0  0  0  0  0
  189.2210  176.3500  143.7900 O   0  0  0  0  0  1  0  0  0  0  0  0
  191.8590  177.4760  142.1610 C   0  0  0  0  0  1  0  0  0  0  0  0
  190.8100  178.0270  143.1160 C   0  0  0  0  0  3  0  0  0  0  0  0
  191.3390  179.3060  143.7480 C   0  0  0  0  0  1  0  0  0  0  0  0
  1  6  1  0  0  0  0
  1  2  1  0  0  0  0
  2 26  1  0  0  0  0
  3  8  1  0  0  0  0
  3  4  1  0  0  0  0
  4  1  2  0  0  0  0
  5  4  1  0  0  0  0
  5  9  2  0  0  0  0
  7  2  2  0  0  0  0
  8  6  2  0  0  0  0
  9  7  1  0  0  0  0
 10 15  2  0  0  0  0
 10 12  1  0  0  0  0
 11 14  2  0  0  0  0
 12  9  1  6  0  0  0
 13 10  1  0  0  0  0
 14 13  1  0  0  0  0
 14 17  1  0  0  0  0
 16 11  1  0  0  0  0
 17 12  1  0  0  0  0
 18 16  1  0  0  0  0
 18 11  1  0  0  0  0
 19 20  2  0  0  0  0
 20 21  1  0  0  0  0
 21  8  1  0  0  0  0
 22 20  1  0  0  0  0
 23 22  1  0  0  0  0
 24 23  1  0  0  0  0
 25 23  2  0  0  0  0
 26 27  1  0  0  0  0
 27 28  1  0  0  0  0
 28 29  2  0  0  0  0
 29 30  2  0  0  0  0
 30 31  1  0  0  0  0
 32 35  1  6  0  0  0
 32 31  1  0  0  0  0
 32 34  1  0  0  0  0
 33 34  1  0  0  0  0
 37 36  1  0  0  0  0
 37 35  1  0  0  0  0
 38 37  1  0  0  0  0
 39 40  1  0  0  0  0
 40 41  1  0  0  0  0
 40 37  1  0  0  0  0
M  END
>  <MODEL>
2

>  <REMARK>
 VINA RESULT:      -7.6      2.689      7.447
  Name = 
  13 active torsions:
  status: ('A' for Active; 'I' for Inactive)
    1  A    between atoms: C_2  and  C_4
    2  A    between atoms: C_2  and  C_33
    3  A    between atoms: O_8  and  C_13
    4  A    between atoms: O_8  and  C_34
    5  A    between atoms: C_9  and  C_32
    6  A    between atoms: C_11  and  C_33
    7  A    between atoms: C_14  and  C_40
    8  A    between atoms: N_15  and  C_37
    9  A    between atoms: N_19  and  C_32
   10  A    between atoms: N_19  and  C_39
   11  A    between atoms: C_20  and  C_29
   12  A    between atoms: C_20  and  C_32
   13  A    between atoms: C_26  and  C_29
                            x       y       z     vdW  Elec       q    Type
                         _______ _______ _______ _____ _____    ______ ____

>  <TORSDO>
F 13

$$$$
=
 OpenBabel10232410183D

 41 44  0  0  1  0  0  0  0  0999 V2000
  188.5280  177.6740  139.1900 C   0  0  0  0  0  0  0  0  0  0  0  0
  189.7810  177.3200  139.7110 C   0  0  0  0  0  0  0  0  0  0  0  0
  186.6870  177.9570  137.5020 S   0  0  0  0  0  0  0  0  0  0  0  0
  188.2390  177.4330  137.8530 C   0  0  0  0  0  0  0  0  0  0  0  0
  189.1580  176.8480  136.9880 C   0  0  0  0  0  3  0  0  0  0  0  0
  187.4780  178.2780  139.8950 C   0  0  0  0  0  3  0  0  0  0  0  0
  190.7240  176.7300  138.8530 C   0  0  0  0  0  3  0  0  0  0  0  0
  186.3740  178.4990  139.0760 C   0  0  0  0  0  0  0  0  0  0  0  0
  190.4160  176.4900  137.4960 C   0  0  0  0  0  0  0  0  0  0  0  0
  191.2390  174.3860  136.4830 C   0  0  0  0  0  0  0  0  0  0  0  0
  194.4670  173.9210  137.9400 C   0  0  0  0  0  0  0  0  0  0  0  0
  191.4200  175.8680  136.5740 C   0  0  2  0  0  3  0  0  0  0  0  0
  192.3130  173.5920  136.9520 N   0  0  0  0  0  2  0  0  0  0  0  0
  193.3730  174.4220  137.3860 C   0  0  0  0  0  0  0  0  0  0  0  0
  190.1940  173.8640  136.0150 O   0  0  0  0  0  0  0  0  0  0  0  0
  195.8400  174.0720  138.5850 C   0  0  0  0  0  2  0  0  0  0  0  0
  193.1280  176.1800  137.1760 S   0  0  0  0  0  0  0  0  0  0  0  0
  195.3200  172.7540  138.4230 C   0  0  0  0  0  2  0  0  0  0  0  0
  182.9030  179.1350  140.0640 O   0  0  0  0  0  0  0  0  0  0  0  0
  183.8780  178.4680  139.6230 C   0  0  0  0  0  0  0  0  0  0  0  0
  185.1590  179.0980  139.5440 N   0  0  0  0  0  2  0  0  0  0  0  0
  183.7100  177.1370  139.2180 O   0  0  0  0  0  0  0  0  0  0  0  0
  182.7800  176.6970  138.2690 C   0  0  0  0  0  0  0  0  0  0  0  0
  183.1110  176.7660  136.8870 N   0  0  0  0  0  1  0  0  0  0  0  0
  181.6540  176.2470  138.6120 O   0  0  0  0  0  0  0  0  0  0  0  0
  190.1410  177.5880  141.1350 C   0  0  0  0  0  2  0  0  0  0  0  0
  190.4480  176.2830  141.8460 C   0  0  0  0  0  2  0  0  0  0  0  0
  189.4340  176.0430  142.9060 C   0  0  0  0  0  3  0  0  0  0  0  0
  189.2740  176.9140  143.8610 C   0  0  0  0  0  0  0  0  0  0  0  0
  189.1180  177.7860  144.8160 C   0  0  0  0  0  3  0  0  0  0  0  0
  188.8340  177.3480  146.1400 N   0  0  0  0  0  2  0  0  0  0  0  0
  187.7490  177.9380  146.9060 C   0  0  2  0  0  3  0  0  0  0  0  0
  188.7470  178.3180  149.0950 N   0  0  0  0  0  1  0  0  0  0  0  0
  187.8440  177.4630  148.3450 C   0  0  0  0  0  2  0  0  0  0  0  0
  186.4070  177.5180  146.3110 C   0  0  0  0  0  2  0  0  0  0  0  0
  184.2120  178.2320  146.9070 O   0  0  0  0  0  1  0  0  0  0  0  0
  185.3930  178.6640  146.2970 C   0  0  0  0  0  0  0  0  0  0  0  0
  185.9000  179.7590  147.0030 O   0  0  0  0  0  1  0  0  0  0  0  0
  183.6070  179.2830  144.6030 C   0  0  0  0  0  1  0  0  0  0  0  0
  185.0940  179.0670  144.8440 C   0  0  0  0  0  3  0  0  0  0  0  0
  185.6100  178.0320  143.8570 C   0  0  0  0  0  1  0  0  0  0  0  0
  1  2  1  0  0  0  0
  1  6  1  0  0  0  0
  2 26  1  0  0  0  0
  3  4  1  0  0  0  0
  3  8  1  0  0  0  0
  4  1  2  0  0  0  0
  5  9  2  0  0  0  0
  5  4  1  0  0  0  0
  7  2  2  0  0  0  0
  8 21  1  0  0  0  0
  8  6  2  0  0  0  0
  9  7  1  0  0  0  0
 10 12  1  0  0  0  0
 10 13  1  0  0  0  0
 11 18  1  0  0  0  0
 11 16  1  0  0  0  0
 12 17  1  0  0  0  0
 12  9  1  1  0  0  0
 13 14  1  0  0  0  0
 14 11  2  0  0  0  0
 15 10  2  0  0  0  0
 17 14  1  0  0  0  0
 18 16  1  0  0  0  0
 20 19  2  0  0  0  0
 21 20  1  0  0  0  0
 22 20  1  0  0  0  0
 23 25  2  0  0  0  0
 23 22  1  0  0  0  0
 24 23  1  0  0  0  0
 26 27  1  0  0  0  0
 27 28  1  0  0  0  0
 28 29  2  0  0  0  0
 29 30  2  0  0  0  0
 30 31  1  0  0  0  0
 31 32  1  0  0  0  0
 32 35  1  6  0  0  0
 32 34  1  0  0  0  0
 34 33  1  0  0  0  0
 37 35  1  0  0  0  0
 37 36  1  0  0  0  0
 37 38  1  0  0  0  0
 39 40  1  0  0  0  0
 40 37  1  0  0  0  0
 41 40  1  0  0  0  0
M  END
>  <MODEL>
3

>  <REMARK>
 VINA RESULT:      -7.6      1.582      2.547
  Name = 
  13 active torsions:
  status: ('A' for Active; 'I' for Inactive)
    1  A    between atoms: C_2  and  C_4
    2  A    between atoms: C_2  and  C_33
    3  A    between atoms: O_8  and  C_13
    4  A    between atoms: O_8  and  C_34
    5  A    between atoms: C_9  and  C_32
    6  A    between atoms: C_11  and  C_33
    7  A    between atoms: C_14  and  C_40
    8  A    between atoms: N_15  and  C_37
    9  A    between atoms: N_19  and  C_32
   10  A    between atoms: N_19  and  C_39
   11  A    between atoms: C_20  and  C_29
   12  A    between atoms: C_20  and  C_32
   13  A    between atoms: C_26  and  C_29
                            x       y       z     vdW  Elec       q    Type
                         _______ _______ _______ _____ _____    ______ ____

>  <TORSDO>
F 13

$$$$
=
 OpenBabel10232410183D

 41 44  0  0  1  0  0  0  0  0999 V2000
  188.3290  177.4720  138.4660 C   0  0  0  0  0  0  0  0  0  0  0  0
  189.5280  177.2590  139.1600 C   0  0  0  0  0  0  0  0  0  0  0  0
  186.7200  177.5500  136.5360 S   0  0  0  0  0  0  0  0  0  0  0  0
  188.2570  177.2030  137.1060 C   0  0  0  0  0  0  0  0  0  0  0  0
  189.3460  176.7270  136.3840 C   0  0  0  0  0  3  0  0  0  0  0  0
  187.1290  177.9520  139.0120 C   0  0  0  0  0  3  0  0  0  0  0  0
  190.6410  176.7810  138.4490 C   0  0  0  0  0  3  0  0  0  0  0  0
  186.1320  178.0490  138.0440 C   0  0  0  0  0  0  0  0  0  0  0  0
  190.5540  176.5110  137.0660 C   0  0  0  0  0  0  0  0  0  0  0  0
  191.6420  174.5400  136.0380 C   0  0  0  0  0  0  0  0  0  0  0  0
  194.5530  174.0080  138.0380 C   0  0  0  0  0  0  0  0  0  0  0  0
  191.7390  176.0090  136.3000 C   0  0  2  0  0  3  0  0  0  0  0  0
  192.6400  173.7280  136.6270 N   0  0  0  0  0  2  0  0  0  0  0  0
  193.5630  174.5360  137.3330 C   0  0  0  0  0  0  0  0  0  0  0  0
  190.7270  174.0420  135.3310 O   0  0  0  0  0  0  0  0  0  0  0  0
  195.7720  174.1270  138.9450 C   0  0  0  0  0  2  0  0  0  0  0  0
  193.2880  176.3000  137.2440 S   0  0  0  0  0  0  0  0  0  0  0  0
  195.3480  172.8190  138.5640 C   0  0  0  0  0  2  0  0  0  0  0  0
  183.1740  179.5370  139.6130 O   0  0  0  0  0  0  0  0  0  0  0  0
  184.3830  179.1960  139.5130 C   0  0  0  0  0  0  0  0  0  0  0  0
  184.8050  178.5070  138.3320 N   0  0  0  0  0  2  0  0  0  0  0  0
  185.2970  179.4860  140.5360 O   0  0  0  0  0  0  0  0  0  0  0  0
  185.1840  179.0510  141.8610 C   0  0  0  0  0  0  0  0  0  0  0  0
  186.1220  178.1080  142.3650 N   0  0  0  0  0  1  0  0  0  0  0  0
  184.2660  179.4710  142.6140 O   0  0  0  0  0  0  0  0  0  0  0  0
  189.6550  177.5630  140.6160 C   0  0  0  0  0  2  0  0  0  0  0  0
  190.6850  176.6450  141.2490 C   0  0  0  0  0  2  0  0  0  0  0  0
  191.4560  177.3940  142.2750 C   0  0  0  0  0  3  0  0  0  0  0  0
  191.5750  176.9110  143.4790 C   0  0  0  0  0  0  0  0  0  0  0  0
  191.6900  176.4260  144.6820 C   0  0  0  0  0  3  0  0  0  0  0  0
  191.6760  177.2990  145.8060 N   0  0  0  0  0  2  0  0  0  0  0  0
  191.1660  176.8550  147.0920 C   0  0  2  0  0  3  0  0  0  0  0  0
  192.9770  176.0880  148.5300 N   0  0  0  0  0  1  0  0  0  0  0  0
  191.9810  175.6630  147.5620 C   0  0  0  0  0  2  0  0  0  0  0  0
  189.6990  176.4570  146.9580 C   0  0  0  0  0  2  0  0  0  0  0  0
  187.9470  176.8850  148.5180 O   0  0  0  0  0  1  0  0  0  0  0  0
  188.7540  177.5010  147.5580 C   0  0  0  0  0  0  0  0  0  0  0  0
  189.4950  178.5200  148.1660 O   0  0  0  0  0  1  0  0  0  0  0  0
  186.4190  177.6280  146.5710 C   0  0  0  0  0  1  0  0  0  0  0  0
  187.8660  178.0870  146.4490 C   0  0  0  0  0  3  0  0  0  0  0  0
  188.3840  177.7260  145.0660 C   0  0  0  0  0  1  0  0  0  0  0  0
  1  6  1  0  0  0  0
  1  2  1  0  0  0  0
  2 26  1  0  0  0  0
  3  4  1  0  0  0  0
  3  8  1  0  0  0  0
  4  1  2  0  0  0  0
  5  9  2  0  0  0  0
  5  4  1  0  0  0  0
  7  2  2  0  0  0  0
  8 21  1  0  0  0  0
  8  6  2  0  0  0  0
  9  7  1  0  0  0  0
 10 12  1  0  0  0  0
 10 13  1  0  0  0  0
 11 18  1  0  0  0  0
 11 16  1  0  0  0  0
 12  9  1  1  0  0  0
 12 17  1  0  0  0  0
 13 14  1  0  0  0  0
 14 11  2  0  0  0  0
 15 10  2  0  0  0  0
 17 14  1  0  0  0  0
 18 16  1  0  0  0  0
 20 19  2  0  0  0  0
 20 22  1  0  0  0  0
 21 20  1  0  0  0  0
 22 23  1  0  0  0  0
 23 24  1  0  0  0  0
 23 25  2  0  0  0  0
 26 27  1  0  0  0  0
 27 28  1  0  0  0  0
 28 29  2  0  0  0  0
 29 30  2  0  0  0  0
 30 31  1  0  0  0  0
 31 32  1  0  0  0  0
 32 35  1  6  0  0  0
 32 34  1  0  0  0  0
 34 33  1  0  0  0  0
 35 37  1  0  0  0  0
 37 38  1  0  0  0  0
 37 36  1  0  0  0  0
 40 39  1  0  0  0  0
 40 37  1  0  0  0  0
 41 40  1  0  0  0  0
M  END
>  <MODEL>
4

>  <REMARK>
 VINA RESULT:      -7.5      1.852      3.107
  Name = 
  13 active torsions:
  status: ('A' for Active; 'I' for Inactive)
    1  A    between atoms: C_2  and  C_4
    2  A    between atoms: C_2  and  C_33
    3  A    between atoms: O_8  and  C_13
    4  A    between atoms: O_8  and  C_34
    5  A    between atoms: C_9  and  C_32
    6  A    between atoms: C_11  and  C_33
    7  A    between atoms: C_14  and  C_40
    8  A    between atoms: N_15  and  C_37
    9  A    between atoms: N_19  and  C_32
   10  A    between atoms: N_19  and  C_39
   11  A    between atoms: C_20  and  C_29
   12  A    between atoms: C_20  and  C_32
   13  A    between atoms: C_26  and  C_29
                            x       y       z     vdW  Elec       q    Type
                         _______ _______ _______ _____ _____    ______ ____

>  <TORSDO>
F 13

$$$$
=
 OpenBabel10232410183D

 41 44  0  0  1  0  0  0  0  0999 V2000
  186.2080  178.3870  143.7450 C   0  0  0  0  0  0  0  0  0  0  0  0
  186.6870  178.2590  142.4340 C   0  0  0  0  0  0  0  0  0  0  0  0
  184.5710  178.7550  145.6180 S   0  0  0  0  0  0  0  0  0  0  0  0
  184.8630  178.6490  143.9710 C   0  0  0  0  0  0  0  0  0  0  0  0
  183.9510  178.8000  142.9320 C   0  0  0  0  0  3  0  0  0  0  0  0
  186.9670  178.2760  144.9190 C   0  0  0  0  0  3  0  0  0  0  0  0
  185.7820  178.4110  141.3700 C   0  0  0  0  0  3  0  0  0  0  0  0
  186.1810  178.4610  146.0540 C   0  0  0  0  0  0  0  0  0  0  0  0
  184.4170  178.6770  141.6140 C   0  0  0  0  0  0  0  0  0  0  0  0
  182.1760  178.1020  140.7330 C   0  0  0  0  0  0  0  0  0  0  0  0
  182.8560  176.0310  137.9040 C   0  0  0  0  0  0  0  0  0  0  0  0
  183.4480  178.8470  140.4840 C   0  0  2  0  0  3  0  0  0  0  0  0
  181.8720  177.0570  139.8280 N   0  0  0  0  0  2  0  0  0  0  0  0
  182.8710  176.9780  138.8300 C   0  0  0  0  0  0  0  0  0  0  0  0
  181.4100  178.3820  141.6920 O   0  0  0  0  0  0  0  0  0  0  0  0
  183.4440  175.3310  136.6840 C   0  0  0  0  0  2  0  0  0  0  0  0
  184.1650  178.2070  138.9180 S   0  0  0  0  0  0  0  0  0  0  0  0
  182.2410  174.8040  137.2410 C   0  0  0  0  0  2  0  0  0  0  0  0
  188.1950  177.7170  149.0230 O   0  0  0  0  0  0  0  0  0  0  0  0
  187.8630  177.6700  147.8080 C   0  0  0  0  0  0  0  0  0  0  0  0
  186.7040  178.3950  147.3870 N   0  0  0  0  0  2  0  0  0  0  0  0
  188.6120  176.9230  146.8890 O   0  0  0  0  0  0  0  0  0  0  0  0
  189.9610  177.1410  146.5850 C   0  0  0  0  0  0  0  0  0  0  0  0
  190.9610  176.6270  147.4560 N   0  0  0  0  0  1  0  0  0  0  0  0
  190.3070  177.7890  145.5620 O   0  0  0  0  0  0  0  0  0  0  0  0
  188.1290  178.0050  142.1480 C   0  0  0  0  0  2  0  0  0  0  0  0
  188.5020  176.5960  142.5710 C   0  0  0  0  0  2  0  0  0  0  0  0
  189.9490  176.3680  142.3250 C   0  0  0  0  0  3  0  0  0  0  0  0
  190.5340  176.9430  141.3130 C   0  0  0  0  0  0  0  0  0  0  0  0
  191.1160  177.5170  140.2980 C   0  0  0  0  0  3  0  0  0  0  0  0
  192.1240  176.8250  139.5700 N   0  0  0  0  0  2  0  0  0  0  0  0
  191.8330  176.2190  138.2820 C   0  0  2  0  0  3  0  0  0  0  0  0
  194.2380  175.8590  138.1560 N   0  0  0  0  0  1  0  0  0  0  0  0
  193.0720  176.2940  137.4080 C   0  0  0  0  0  2  0  0  0  0  0  0
  190.6810  176.9610  137.6090 C   0  0  0  0  0  2  0  0  0  0  0  0
  189.2820  176.0480  135.9080 O   0  0  0  0  0  1  0  0  0  0  0  0
  189.5030  176.0390  137.2870 C   0  0  0  0  0  0  0  0  0  0  0  0
  189.7930  174.7340  137.6970 O   0  0  0  0  0  1  0  0  0  0  0  0
  186.9690  176.1990  137.2460 C   0  0  0  0  0  1  0  0  0  0  0  0
  188.2420  176.5480  138.0050 C   0  0  0  0  0  3  0  0  0  0  0  0
  188.2900  178.0520  138.2240 C   0  0  0  0  0  1  0  0  0  0  0  0
  1  4  1  0  0  0  0
  1  6  1  0  0  0  0
  2  1  2  0  0  0  0
  3  8  1  0  0  0  0
  4  3  1  0  0  0  0
  5  4  2  0  0  0  0
  6  8  2  0  0  0  0
  7  9  2  0  0  0  0
  7  2  1  0  0  0  0
  8 21  1  0  0  0  0
  9  5  1  0  0  0  0
 10 15  2  0  0  0  0
 11 14  2  0  0  0  0
 12 10  1  0  0  0  0
 12  9  1  1  0  0  0
 13 10  1  0  0  0  0
 14 17  1  0  0  0  0
 14 13  1  0  0  0  0
 16 18  1  0  0  0  0
 16 11  1  0  0  0  0
 17 12  1  0  0  0  0
 18 11  1  0  0  0  0
 20 19  2  0  0  0  0
 21 20  1  0  0  0  0
 22 20  1  0  0  0  0
 23 22  1  0  0  0  0
 23 24  1  0  0  0  0
 25 23  2  0  0  0  0
 26  2  1  0  0  0  0
 26 27  1  0  0  0  0
 28 27  1  0  0  0  0
 29 28  2  0  0  0  0
 30 29  2  0  0  0  0
 31 30  1  0  0  0  0
 32 34  1  6  0  0  0
 32 31  1  0  0  0  0
 34 33  1  0  0  0  0
 35 32  1  0  0  0  0
 36 37  1  0  0  0  0
 37 35  1  0  0  0  0
 37 38  1  0  0  0  0
 37 40  1  0  0  0  0
 39 40  1  0  0  0  0
 40 41  1  0  0  0  0
M  END
>  <MODEL>
5

>  <REMARK>
 VINA RESULT:      -7.2      2.423      9.037
  Name = 
  13 active torsions:
  status: ('A' for Active; 'I' for Inactive)
    1  A    between atoms: C_2  and  C_4
    2  A    between atoms: C_2  and  C_33
    3  A    between atoms: O_8  and  C_13
    4  A    between atoms: O_8  and  C_34
    5  A    between atoms: C_9  and  C_32
    6  A    between atoms: C_11  and  C_33
    7  A    between atoms: C_14  and  C_40
    8  A    between atoms: N_15  and  C_37
    9  A    between atoms: N_19  and  C_32
   10  A    between atoms: N_19  and  C_39
   11  A    between atoms: C_20  and  C_29
   12  A    between atoms: C_20  and  C_32
   13  A    between atoms: C_26  and  C_29
                            x       y       z     vdW  Elec       q    Type
                         _______ _______ _______ _____ _____    ______ ____

>  <TORSDO>
F 13

$$$$
=
 OpenBabel10232410183D

 41 44  0  0  1  0  0  0  0  0999 V2000
  189.4010  177.6430  142.3480 C   0  0  0  0  0  0  0  0  0  0  0  0
  188.1470  177.9170  141.7840 C   0  0  0  0  0  0  0  0  0  0  0  0
  191.8450  177.0630  142.4600 S   0  0  0  0  0  0  0  0  0  0  0  0
  190.4840  177.3540  141.5280 C   0  0  0  0  0  0  0  0  0  0  0  0
  190.3760  177.3180  140.1410 C   0  0  0  0  0  3  0  0  0  0  0  0
  189.7070  177.6220  143.7160 C   0  0  0  0  0  3  0  0  0  0  0  0
  188.0170  177.8840  140.3850 C   0  0  0  0  0  3  0  0  0  0  0  0
  191.0470  177.3110  143.9340 C   0  0  0  0  0  0  0  0  0  0  0  0
  189.1260  177.5890  139.5630 C   0  0  0  0  0  0  0  0  0  0  0  0
  188.4030  178.8080  137.5340 C   0  0  0  0  0  0  0  0  0  0  0  0
  185.5660  176.9730  136.3780 C   0  0  0  0  0  0  0  0  0  0  0  0
  188.9930  177.5440  138.0710 C   0  0  2  0  0  3  0  0  0  0  0  0
  187.1510  178.6920  136.8850 N   0  0  0  0  0  2  0  0  0  0  0  0
  186.7430  177.3380  136.8650 C   0  0  0  0  0  0  0  0  0  0  0  0
  188.9820  179.9200  137.6440 O   0  0  0  0  0  0  0  0  0  0  0  0
  184.5150  175.9210  136.0420 C   0  0  0  0  0  2  0  0  0  0  0  0
  187.8930  176.1620  137.5640 S   0  0  0  0  0  0  0  0  0  0  0  0
  184.2220  177.2810  135.7270 C   0  0  0  0  0  2  0  0  0  0  0  0
  191.5970  176.8970  147.5330 O   0  0  0  0  0  0  0  0  0  0  0  0
  190.9370  176.9370  146.4600 C   0  0  0  0  0  0  0  0  0  0  0  0
  191.6280  177.2280  145.2420 N   0  0  0  0  0  2  0  0  0  0  0  0
  189.5550  176.7010  146.4590 O   0  0  0  0  0  0  0  0  0  0  0  0
  188.6080  177.4770  147.1380 C   0  0  0  0  0  0  0  0  0  0  0  0
  187.3410  177.7110  146.5350 N   0  0  0  0  0  1  0  0  0  0  0  0
  188.8550  177.9760  148.2670 O   0  0  0  0  0  0  0  0  0  0  0  0
  186.9530  178.2040  142.6310 C   0  0  0  0  0  2  0  0  0  0  0  0
  185.9800  179.0890  141.8730 C   0  0  0  0  0  2  0  0  0  0  0  0
  184.5920  178.7930  142.3110 C   0  0  0  0  0  3  0  0  0  0  0  0
  183.7710  178.1830  141.5040 C   0  0  0  0  0  0  0  0  0  0  0  0
  182.9530  177.5750  140.6930 C   0  0  0  0  0  3  0  0  0  0  0  0
  181.5750  177.9340  140.6700 N   0  0  0  0  0  2  0  0  0  0  0  0
  181.1660  179.3240  140.5710 C   0  0  2  0  0  3  0  0  0  0  0  0
  180.5870  179.2950  142.9360 N   0  0  0  0  0  1  0  0  0  0  0  0
  180.0900  179.5990  141.6060 C   0  0  0  0  0  2  0  0  0  0  0  0
  180.6210  179.6050  139.1720 C   0  0  0  0  0  2  0  0  0  0  0  0
  181.2310  181.8910  138.8730 O   0  0  0  0  0  1  0  0  0  0  0  0
  181.4870  180.6020  138.3990 C   0  0  0  0  0  0  0  0  0  0  0  0
  182.8410  180.3040  138.5880 O   0  0  0  0  0  1  0  0  0  0  0  0
  179.9870  181.4610  136.5400 C   0  0  0  0  0  1  0  0  0  0  0  0
  181.1380  180.5330  136.9040 C   0  0  0  0  0  3  0  0  0  0  0  0
  180.7860  179.1170  136.4740 C   0  0  0  0  0  1  0  0  0  0  0  0
  1  6  1  0  0  0  0
  2  1  1  0  0  0  0
  2 26  1  0  0  0  0
  3  8  1  0  0  0  0
  4  1  2  0  0  0  0
  4  3  1  0  0  0  0
  5  4  1  0  0  0  0
  6  8  2  0  0  0  0
  7  2  2  0  0  0  0
  8 21  1  0  0  0  0
  9  5  2  0  0  0  0
  9  7  1  0  0  0  0
 10 15  2  0  0  0  0
 10 12  1  0  0  0  0
 11 14  2  0  0  0  0
 12  9  1  1  0  0  0
 13 10  1  0  0  0  0
 14 13  1  0  0  0  0
 14 17  1  0  0  0  0
 16 11  1  0  0  0  0
 17 12  1  0  0  0  0
 18 16  1  0  0  0  0
 18 11  1  0  0  0  0
 20 19  2  0  0  0  0
 21 20  1  0  0  0  0
 22 20  1  0  0  0  0
 22 23  1  0  0  0  0
 23 25  2  0  0  0  0
 24 23  1  0  0  0  0
 27 28  1  0  0  0  0
 27 26  1  0  0  0  0
 29 28  2  0  0  0  0
 30 29  2  0  0  0  0
 31 30  1  0  0  0  0
 32 35  1  6  0  0  0
 32 31  1  0  0  0  0
 32 34  1  0  0  0  0
 34 33  1  0  0  0  0
 37 38  1  0  0  0  0
 37 36  1  0  0  0  0
 37 35  1  0  0  0  0
 39 40  1  0  0  0  0
 40 37  1  0  0  0  0
 41 40  1  0  0  0  0
M  END
>  <MODEL>
6

>  <REMARK>
 VINA RESULT:      -7.1      3.144      8.486
  Name = 
  13 active torsions:
  status: ('A' for Active; 'I' for Inactive)
    1  A    between atoms: C_2  and  C_4
    2  A    between atoms: C_2  and  C_33
    3  A    between atoms: O_8  and  C_13
    4  A    between atoms: O_8  and  C_34
    5  A    between atoms: C_9  and  C_32
    6  A    between atoms: C_11  and  C_33
    7  A    between atoms: C_14  and  C_40
    8  A    between atoms: N_15  and  C_37
    9  A    between atoms: N_19  and  C_32
   10  A    between atoms: N_19  and  C_39
   11  A    between atoms: C_20  and  C_29
   12  A    between atoms: C_20  and  C_32
   13  A    between atoms: C_26  and  C_29
                            x       y       z     vdW  Elec       q    Type
                         _______ _______ _______ _____ _____    ______ ____

>  <TORSDO>
F 13

$$$$
=
 OpenBabel10232410183D

 41 44  0  0  1  0  0  0  0  0999 V2000
  185.8620  178.3970  143.8870 C   0  0  0  0  0  0  0  0  0  0  0  0
  186.2360  178.2610  142.5430 C   0  0  0  0  0  0  0  0  0  0  0  0
  184.3790  178.7850  145.8800 S   0  0  0  0  0  0  0  0  0  0  0  0
  184.5410  178.6710  144.2160 C   0  0  0  0  0  0  0  0  0  0  0  0
  183.5510  178.8270  143.2500 C   0  0  0  0  0  3  0  0  0  0  0  0
  186.7090  178.2840  144.9990 C   0  0  0  0  0  3  0  0  0  0  0  0
  185.2520  178.4180  141.5520 C   0  0  0  0  0  3  0  0  0  0  0  0
  186.0160  178.4780  146.1900 C   0  0  0  0  0  0  0  0  0  0  0  0
  183.9130  178.6960  141.9000 C   0  0  0  0  0  0  0  0  0  0  0  0
  181.4870  178.6730  141.4070 C   0  0  0  0  0  0  0  0  0  0  0  0
  181.0560  175.8310  139.2870 C   0  0  0  0  0  0  0  0  0  0  0  0
  182.8600  178.8710  140.8490 C   0  0  2  0  0  3  0  0  0  0  0  0
  180.7470  177.5870  140.8830 N   0  0  0  0  0  2  0  0  0  0  0  0
  181.4990  176.9290  139.8820 C   0  0  0  0  0  0  0  0  0  0  0  0
  181.0060  179.4270  142.2920 O   0  0  0  0  0  0  0  0  0  0  0  0
  181.2030  174.6850  138.2930 C   0  0  0  0  0  2  0  0  0  0  0  0
  183.0890  177.6470  139.4970 S   0  0  0  0  0  0  0  0  0  0  0  0
  180.0100  174.7430  139.0720 C   0  0  0  0  0  2  0  0  0  0  0  0
  188.2530  177.7320  148.9950 O   0  0  0  0  0  0  0  0  0  0  0  0
  187.8280  177.6860  147.8090 C   0  0  0  0  0  0  0  0  0  0  0  0
  186.6400  178.4120  147.4790 N   0  0  0  0  0  2  0  0  0  0  0  0
  188.5030  176.9380  146.8340 O   0  0  0  0  0  0  0  0  0  0  0  0
  189.8630  177.0620  146.5250 C   0  0  0  0  0  0  0  0  0  0  0  0
  190.2480  177.3470  145.1860 N   0  0  0  0  0  1  0  0  0  0  0  0
  190.7510  176.9200  147.4070 O   0  0  0  0  0  0  0  0  0  0  0  0
  187.6500  177.9950  142.1460 C   0  0  0  0  0  2  0  0  0  0  0  0
  187.8660  178.3940  140.6980 C   0  0  0  0  0  2  0  0  0  0  0  0
  188.9590  177.5750  140.1130 C   0  0  0  0  0  3  0  0  0  0  0  0
  189.3430  177.7860  138.8870 C   0  0  0  0  0  0  0  0  0  0  0  0
  189.7240  177.9970  137.6590 C   0  0  0  0  0  3  0  0  0  0  0  0
  190.1060  176.9010  136.8330 N   0  0  0  0  0  2  0  0  0  0  0  0
  189.2380  175.7470  136.6730 C   0  0  2  0  0  3  0  0  0  0  0  0
  190.9890  174.6730  137.9810 N   0  0  0  0  0  1  0  0  0  0  0  0
  190.0500  174.4830  136.8890 C   0  0  0  0  0  2  0  0  0  0  0  0
  188.6370  175.7410  135.2700 C   0  0  0  0  0  2  0  0  0  0  0  0
  187.1130  177.5310  134.8730 O   0  0  0  0  0  1  0  0  0  0  0  0
  187.1740  176.1910  135.2610 C   0  0  0  0  0  0  0  0  0  0  0  0
  186.4430  175.4170  134.3540 O   0  0  0  0  0  1  0  0  0  0  0  0
  185.4500  175.0290  136.7180 C   0  0  0  0  0  1  0  0  0  0  0  0
  186.5840  176.0450  136.6720 C   0  0  0  0  0  3  0  0  0  0  0  0
  186.0780  177.3740  137.2100 C   0  0  0  0  0  1  0  0  0  0  0  0
  1  4  1  0  0  0  0
  1  6  1  0  0  0  0
  2  1  2  0  0  0  0
  3  8  1  0  0  0  0
  4  3  1  0  0  0  0
  5  4  2  0  0  0  0
  6  8  2  0  0  0  0
  7  9  2  0  0  0  0
  7  2  1  0  0  0  0
  8 21  1  0  0  0  0
  9  5  1  0  0  0  0
 10 15  2  0  0  0  0
 11 14  2  0  0  0  0
 12 10  1  0  0  0  0
 12  9  1  1  0  0  0
 13 10  1  0  0  0  0
 14 13  1  0  0  0  0
 16 18  1  0  0  0  0
 16 11  1  0  0  0  0
 17 14  1  0  0  0  0
 17 12  1  0  0  0  0
 18 11  1  0  0  0  0
 20 19  2  0  0  0  0
 21 20  1  0  0  0  0
 22 20  1  0  0  0  0
 23 22  1  0  0  0  0
 23 25  2  0  0  0  0
 24 23  1  0  0  0  0
 26  2  1  0  0  0  0
 27 26  1  0  0  0  0
 28 27  1  0  0  0  0
 29 28  2  0  0  0  0
 30 29  2  0  0  0  0
 31 30  1  0  0  0  0
 32 35  1  6  0  0  0
 32 31  1  0  0  0  0
 32 34  1  0  0  0  0
 34 33  1  0  0  0  0
 36 37  1  0  0  0  0
 37 35  1  0  0  0  0
 37 40  1  0  0  0  0
 38 37  1  0  0  0  0
 40 39  1  0  0  0  0
 40 41  1  0  0  0  0
M  END
>  <MODEL>
7

>  <REMARK>
 VINA RESULT:      -6.9      3.111      9.878
  Name = 
  13 active torsions:
  status: ('A' for Active; 'I' for Inactive)
    1  A    between atoms: C_2  and  C_4
    2  A    between atoms: C_2  and  C_33
    3  A    between atoms: O_8  and  C_13
    4  A    between atoms: O_8  and  C_34
    5  A    between atoms: C_9  and  C_32
    6  A    between atoms: C_11  and  C_33
    7  A    between atoms: C_14  and  C_40
    8  A    between atoms: N_15  and  C_37
    9  A    between atoms: N_19  and  C_32
   10  A    between atoms: N_19  and  C_39
   11  A    between atoms: C_20  and  C_29
   12  A    between atoms: C_20  and  C_32
   13  A    between atoms: C_26  and  C_29
                            x       y       z     vdW  Elec       q    Type
                         _______ _______ _______ _____ _____    ______ ____

>  <TORSDO>
F 13

$$$$
=
 OpenBabel10232410183D

 41 44  0  0  1  0  0  0  0  0999 V2000
  185.9660  178.2460  143.9000 C   0  0  0  0  0  0  0  0  0  0  0  0
  186.3480  178.0450  142.5660 C   0  0  0  0  0  0  0  0  0  0  0  0
  184.4860  178.7870  145.8590 S   0  0  0  0  0  0  0  0  0  0  0  0
  184.6610  178.6090  144.2020 C   0  0  0  0  0  0  0  0  0  0  0  0
  183.6940  178.7920  143.2180 C   0  0  0  0  0  3  0  0  0  0  0  0
  186.7930  178.1190  145.0260 C   0  0  0  0  0  3  0  0  0  0  0  0
  185.3870  178.2270  141.5580 C   0  0  0  0  0  3  0  0  0  0  0  0
  186.0980  178.3930  146.2020 C   0  0  0  0  0  0  0  0  0  0  0  0
  184.0630  178.5960  141.8780 C   0  0  0  0  0  0  0  0  0  0  0  0
  181.6700  178.4030  141.2720 C   0  0  0  0  0  0  0  0  0  0  0  0
  181.6000  175.8180  138.8100 C   0  0  0  0  0  0  0  0  0  0  0  0
  183.0350  178.7990  140.8070 C   0  0  2  0  0  3  0  0  0  0  0  0
  181.0610  177.3250  140.5890 N   0  0  0  0  0  2  0  0  0  0  0  0
  181.9100  176.8710  139.5510 C   0  0  0  0  0  0  0  0  0  0  0  0
  181.0860  178.9920  142.2190 O   0  0  0  0  0  0  0  0  0  0  0  0
  181.8960  174.8240  137.6930 C   0  0  0  0  0  2  0  0  0  0  0  0
  183.4330  177.7800  139.3310 S   0  0  0  0  0  0  0  0  0  0  0  0
  180.6770  174.6710  138.4160 C   0  0  0  0  0  2  0  0  0  0  0  0
  188.3120  177.6910  149.0350 O   0  0  0  0  0  0  0  0  0  0  0  0
  187.9090  177.6450  147.8420 C   0  0  0  0  0  0  0  0  0  0  0  0
  186.7020  178.3320  147.5000 N   0  0  0  0  0  2  0  0  0  0  0  0
  188.6280  176.9360  146.8690 O   0  0  0  0  0  0  0  0  0  0  0  0
  189.9510  177.2010  146.4960 C   0  0  0  0  0  0  0  0  0  0  0  0
  191.0110  176.5380  147.1750 N   0  0  0  0  0  1  0  0  0  0  0  0
  190.2230  178.0190  145.5770 O   0  0  0  0  0  0  0  0  0  0  0  0
  187.7480  177.6820  142.1980 C   0  0  0  0  0  2  0  0  0  0  0  0
  188.2520  178.6050  141.1040 C   0  0  0  0  0  2  0  0  0  0  0  0
  189.1730  177.8600  140.2080 C   0  0  0  0  0  3  0  0  0  0  0  0
  189.0520  177.9690  138.9160 C   0  0  0  0  0  0  0  0  0  0  0  0
  188.9270  178.0780  137.6240 C   0  0  0  0  0  3  0  0  0  0  0  0
  189.1480  176.9470  136.7880 N   0  0  0  0  0  2  0  0  0  0  0  0
  188.1600  176.5390  135.8050 C   0  0  2  0  0  3  0  0  0  0  0  0
  186.3060  177.8740  134.9600 N   0  0  0  0  0  1  0  0  0  0  0  0
  187.7530  177.7470  134.9810 C   0  0  0  0  0  2  0  0  0  0  0  0
  186.9370  175.9590  136.5100 C   0  0  0  0  0  2  0  0  0  0  0  0
  185.3600  174.4800  135.5030 O   0  0  0  0  0  1  0  0  0  0  0  0
  186.6360  174.5240  136.0710 C   0  0  0  0  0  0  0  0  0  0  0  0
  187.5750  174.1100  135.1200 O   0  0  0  0  0  1  0  0  0  0  0  0
  187.5330  172.3570  137.0430 C   0  0  0  0  0  1  0  0  0  0  0  0
  186.6800  173.5930  137.2930 C   0  0  0  0  0  3  0  0  0  0  0  0
  185.2860  173.1550  137.7140 C   0  0  0  0  0  1  0  0  0  0  0  0
  1  4  1  0  0  0  0
  1  6  1  0  0  0  0
  2  1  2  0  0  0  0
  3  8  1  0  0  0  0
  4  3  1  0  0  0  0
  5  4  2  0  0  0  0
  6  8  2  0  0  0  0
  7  9  2  0  0  0  0
  7  2  1  0  0  0  0
  8 21  1  0  0  0  0
  9  5  1  0  0  0  0
 10 15  2  0  0  0  0
 11 14  2  0  0  0  0
 12 10  1  0  0  0  0
 12  9  1  1  0  0  0
 13 10  1  0  0  0  0
 14 13  1  0  0  0  0
 16 18  1  0  0  0  0
 16 11  1  0  0  0  0
 17 14  1  0  0  0  0
 17 12  1  0  0  0  0
 18 11  1  0  0  0  0
 20 19  2  0  0  0  0
 21 20  1  0  0  0  0
 22 20  1  0  0  0  0
 23 22  1  0  0  0  0
 23 24  1  0  0  0  0
 25 23  2  0  0  0  0
 26  2  1  0  0  0  0
 27 26  1  0  0  0  0
 28 27  1  0  0  0  0
 29 28  2  0  0  0  0
 30 29  2  0  0  0  0
 31 30  1  0  0  0  0
 32 34  1  1  0  0  0
 32 35  1  0  0  0  0
 32 31  1  0  0  0  0
 33 34  1  0  0  0  0
 36 37  1  0  0  0  0
 37 35  1  0  0  0  0
 37 40  1  0  0  0  0
 38 37  1  0  0  0  0
 39 40  1  0  0  0  0
 40 41  1  0  0  0  0
M  END
>  <MODEL>
8

>  <REMARK>
 VINA RESULT:      -6.7      3.446      9.736
  Name = 
  13 active torsions:
  status: ('A' for Active; 'I' for Inactive)
    1  A    between atoms: C_2  and  C_4
    2  A    between atoms: C_2  and  C_33
    3  A    between atoms: O_8  and  C_13
    4  A    between atoms: O_8  and  C_34
    5  A    between atoms: C_9  and  C_32
    6  A    between atoms: C_11  and  C_33
    7  A    between atoms: C_14  and  C_40
    8  A    between atoms: N_15  and  C_37
    9  A    between atoms: N_19  and  C_32
   10  A    between atoms: N_19  and  C_39
   11  A    between atoms: C_20  and  C_29
   12  A    between atoms: C_20  and  C_32
   13  A    between atoms: C_26  and  C_29
                            x       y       z     vdW  Elec       q    Type
                         _______ _______ _______ _____ _____    ______ ____

>  <TORSDO>
F 13

$$$$
=
 OpenBabel10232410183D

 41 44  0  0  1  0  0  0  0  0999 V2000
  185.0820  178.6990  143.5050 C   0  0  0  0  0  0  0  0  0  0  0  0
  185.4140  178.5980  142.1460 C   0  0  0  0  0  0  0  0  0  0  0  0
  183.6480  178.7880  145.5670 S   0  0  0  0  0  0  0  0  0  0  0  0
  183.7530  178.6360  143.9020 C   0  0  0  0  0  0  0  0  0  0  0  0
  182.7120  178.4800  142.9920 C   0  0  0  0  0  3  0  0  0  0  0  0
  185.9830  178.8670  144.5670 C   0  0  0  0  0  3  0  0  0  0  0  0
  184.3770  178.4430  141.2110 C   0  0  0  0  0  3  0  0  0  0  0  0
  185.3210  178.9340  145.7900 C   0  0  0  0  0  0  0  0  0  0  0  0
  183.0300  178.3800  141.6280 C   0  0  0  0  0  0  0  0  0  0  0  0
  182.4420  178.1000  139.2400 C   0  0  0  0  0  0  0  0  0  0  0  0
  180.8090  181.1580  138.3810 C   0  0  0  0  0  0  0  0  0  0  0  0
  181.9190  178.2220  140.6360 C   0  0  2  0  0  3  0  0  0  0  0  0
  182.0750  179.1280  138.3400 N   0  0  0  0  0  2  0  0  0  0  0  0
  181.2300  180.0590  138.9890 C   0  0  0  0  0  0  0  0  0  0  0  0
  183.1680  177.1390  138.8760 O   0  0  0  0  0  0  0  0  0  0  0  0
  180.0260  182.4660  138.3540 C   0  0  0  0  0  2  0  0  0  0  0  0
  180.8020  179.6800  140.6820 S   0  0  0  0  0  0  0  0  0  0  0  0
  180.7320  182.0850  137.1740 C   0  0  0  0  0  2  0  0  0  0  0  0
  187.6610  178.6640  148.5970 O   0  0  0  0  0  0  0  0  0  0  0  0
  187.1790  178.4020  147.4620 C   0  0  0  0  0  0  0  0  0  0  0  0
  186.0020  179.0980  147.0400 N   0  0  0  0  0  2  0  0  0  0  0  0
  187.7820  177.4490  146.6300 O   0  0  0  0  0  0  0  0  0  0  0  0
  189.1490  177.3920  146.3340 C   0  0  0  0  0  0  0  0  0  0  0  0
  189.9790  176.4870  147.0520 N   0  0  0  0  0  1  0  0  0  0  0  0
  189.6610  178.1290  145.4490 O   0  0  0  0  0  0  0  0  0  0  0  0
  186.8270  178.6890  141.6750 C   0  0  0  0  0  2  0  0  0  0  0  0
  187.7600  178.1020  142.7190 C   0  0  0  0  0  2  0  0  0  0  0  0
  188.3900  176.8670  142.1840 C   0  0  0  0  0  3  0  0  0  0  0  0
  189.4540  176.9510  141.4380 C   0  0  0  0  0  0  0  0  0  0  0  0
  190.5170  177.0390  140.6900 C   0  0  0  0  0  3  0  0  0  0  0  0
  190.6920  176.1490  139.5930 N   0  0  0  0  0  2  0  0  0  0  0  0
  189.9100  176.2960  138.3780 C   0  0  2  0  0  3  0  0  0  0  0  0
  191.5240  174.5440  137.8710 N   0  0  0  0  0  1  0  0  0  0  0  0
  190.3640  175.2580  137.3680 C   0  0  0  0  0  2  0  0  0  0  0  0
  190.1060  177.6970  137.8030 C   0  0  0  0  0  2  0  0  0  0  0  0
  188.6140  179.1480  138.9650 O   0  0  0  0  0  1  0  0  0  0  0  0
  188.7990  178.4910  137.7460 C   0  0  0  0  0  0  0  0  0  0  0  0
  188.8620  179.4390  136.7190 O   0  0  0  0  0  1  0  0  0  0  0  0
  187.3880  177.2750  136.0220 C   0  0  0  0  0  1  0  0  0  0  0  0
  187.6250  177.5300  137.5040 C   0  0  0  0  0  3  0  0  0  0  0  0
  186.3380  178.0470  138.1290 C   0  0  0  0  0  1  0  0  0  0  0  0
  1  4  1  0  0  0  0
  1  6  1  0  0  0  0
  2  1  2  0  0  0  0
  3  8  1  0  0  0  0
  4  3  1  0  0  0  0
  5  4  2  0  0  0  0
  6  8  2  0  0  0  0
  7  9  2  0  0  0  0
  7  2  1  0  0  0  0
  8 21  1  0  0  0  0
  9  5  1  0  0  0  0
 10 12  1  0  0  0  0
 11 14  2  0  0  0  0
 12 17  1  0  0  0  0
 12  9  1  1  0  0  0
 13 14  1  0  0  0  0
 13 10  1  0  0  0  0
 14 17  1  0  0  0  0
 15 10  2  0  0  0  0
 16 11  1  0  0  0  0
 18 16  1  0  0  0  0
 18 11  1  0  0  0  0
 20 19  2  0  0  0  0
 21 20  1  0  0  0  0
 22 20  1  0  0  0  0
 23 22  1  0  0  0  0
 23 24  1  0  0  0  0
 25 23  2  0  0  0  0
 26  2  1  0  0  0  0
 26 27  1  0  0  0  0
 28 27  1  0  0  0  0
 29 28  2  0  0  0  0
 30 29  2  0  0  0  0
 31 30  1  0  0  0  0
 32 34  1  6  0  0  0
 32 31  1  0  0  0  0
 34 33  1  0  0  0  0
 35 32  1  0  0  0  0
 37 35  1  0  0  0  0
 37 36  1  0  0  0  0
 38 37  1  0  0  0  0
 39 40  1  0  0  0  0
 40 37  1  0  0  0  0
 40 41  1  0  0  0  0
M  END
>  <MODEL>
9

>  <REMARK>
 VINA RESULT:      -6.6      3.168      9.511
  Name = 
  13 active torsions:
  status: ('A' for Active; 'I' for Inactive)
    1  A    between atoms: C_2  and  C_4
    2  A    between atoms: C_2  and  C_33
    3  A    between atoms: O_8  and  C_13
    4  A    between atoms: O_8  and  C_34
    5  A    between atoms: C_9  and  C_32
    6  A    between atoms: C_11  and  C_33
    7  A    between atoms: C_14  and  C_40
    8  A    between atoms: N_15  and  C_37
    9  A    between atoms: N_19  and  C_32
   10  A    between atoms: N_19  and  C_39
   11  A    between atoms: C_20  and  C_29
   12  A    between atoms: C_20  and  C_32
   13  A    between atoms: C_26  and  C_29
                            x       y       z     vdW  Elec       q    Type
                         _______ _______ _______ _____ _____    ______ ____

>  <TORSDO>
F 13

$$$$
