=
 OpenBabel10232408283D

 45 50  0  0  1  0  0  0  0  0999 V2000
  181.6140  178.7860  141.0520 C   0  0  0  0  0  3  0  0  0  0  0  0
  183.9320  178.1120  140.9180 C   0  0  0  0  0  3  0  0  0  0  0  0
  184.0940  178.3630  142.2870 C   0  0  0  0  0  0  0  0  0  0  0  0
  181.7590  179.0450  142.4210 C   0  0  0  0  0  0  0  0  0  0  0  0
  183.0020  178.8290  143.0310 C   0  0  0  0  0  3  0  0  0  0  0  0
  182.6920  178.3200  140.2970 C   0  0  0  0  0  0  0  0  0  0  0  0
  191.5740  176.8810  146.3840 C   0  0  0  0  0  3  0  0  0  0  0  0
  189.9780  177.5690  142.5110 O   0  0  0  0  0  1  0  0  0  0  0  0
  187.4430  177.5100  145.8970 C   0  0  0  0  0  3  0  0  0  0  0  0
  186.9380  177.7290  144.6160 C   0  0  0  0  0  0  0  0  0  0  0  0
  189.1600  177.5480  143.6360 C   0  0  0  0  0  0  0  0  0  0  0  0
  190.7210  176.8660  147.4920 C   0  0  0  0  0  3  0  0  0  0  0  0
  185.3960  178.1290  142.9350 C   0  0  0  0  0  0  0  0  0  0  0  0
  188.8240  177.3050  146.0540 C   0  0  0  0  0  0  0  0  0  0  0  0
  187.7840  177.7470  143.5180 C   0  0  0  0  0  0  0  0  0  0  0  0
  191.0620  177.1080  145.1040 C   0  0  0  0  0  3  0  0  0  0  0  0
  189.6900  177.3230  144.9210 C   0  0  0  0  0  0  0  0  0  0  0  0
  189.3490  177.0780  147.3280 C   0  0  0  0  0  3  0  0  0  0  0  0
  185.5910  177.9430  144.3080 C   0  0  0  0  0  3  0  0  0  0  0  0
  186.8850  178.0270  142.1290 S   0  0  0  0  0  0  0  0  0  0  0  0
  180.0260  178.7100  144.2120 N   0  0  0  0  0  1  0  0  0  0  0  0
  180.6160  179.5340  143.2110 C   0  0  0  0  0  0  0  0  0  0  0  0
  180.1480  180.6850  143.0050 O   0  0  0  0  0  0  0  0  0  0  0  0
  182.5100  178.0620  138.9020 N   0  0  0  0  0  2  0  0  0  0  0  0
  181.2730  177.2870  136.9500 C   0  0  0  0  0  1  0  0  0  0  0  0
  181.6750  176.9840  138.3820 C   0  0  1  0  0  3  0  0  0  0  0  0
  182.4490  175.6800  138.4090 C   0  0  0  0  0  2  0  0  0  0  0  0
  183.1660  175.5010  137.1560 N   0  0  0  0  0  2  0  0  0  0  0  0
  185.0110  177.0200  136.6210 C   0  0  0  0  0  3  0  0  0  0  0  0
  187.3250  176.2960  136.7260 C   0  0  0  0  0  0  0  0  0  0  0  0
  184.5690  175.7480  137.0130 C   0  0  0  0  0  0  0  0  0  0  0  0
  186.8850  175.0240  137.1180 C   0  0  0  0  0  3  0  0  0  0  0  0
  185.5240  174.7290  137.2640 C   0  0  0  0  0  0  0  0  0  0  0  0
  186.3720  177.2910  136.4780 C   0  0  0  0  0  3  0  0  0  0  0  0
  190.1650  177.1250  139.0060 C   0  0  0  0  0  2  0  0  0  0  0  0
  189.5810  178.2820  138.1920 C   0  0  2  0  0  3  0  0  0  0  0  0
  190.5880  175.8120  135.1380 C   0  0  0  0  0  1  0  0  0  0  0  0
  189.6840  175.4950  136.3200 C   0  0  2  0  0  3  0  0  0  0  0  0
  188.4530  178.7840  138.8390 O   0  0  0  0  0  1  0  0  0  0  0  0
  189.2450  177.9440  136.7360 C   0  0  0  0  0  2  0  0  0  0  0  0
  188.7320  176.5790  136.5860 N   0  0  0  0  0  0  0  0  0  0  0  0
  190.4900  175.1170  137.5650 C   0  0  0  0  0  2  0  0  0  0  0  0
  191.1840  176.3060  138.2230 C   0  0  0  0  0  2  0  0  0  0  0  0
  185.1980  173.4200  137.6530 O   0  0  0  0  0  0  0  0  0  0  0  0
  184.8390  172.3680  136.7690 C   0  0  0  0  0  1  0  0  0  0  0  0
  1  4  1  0  0  0  0
  2  3  2  0  0  0  0
  3 13  1  0  0  0  0
  3  5  1  0  0  0  0
  4  5  2  0  0  0  0
  4 22  1  0  0  0  0
  6  2  1  0  0  0  0
  6  1  2  0  0  0  0
  7 12  1  0  0  0  0
  8 11  1  0  0  0  0
  9 14  1  0  0  0  0
 10  9  2  0  0  0  0
 11 17  1  0  0  0  0
 13 19  2  0  0  0  0
 14 18  1  0  0  0  0
 15 11  2  0  0  0  0
 15 10  1  0  0  0  0
 16  7  2  0  0  0  0
 17 16  1  0  0  0  0
 17 14  2  0  0  0  0
 18 12  2  0  0  0  0
 19 10  1  0  0  0  0
 20 13  1  0  0  0  0
 20 15  1  0  0  0  0
 22 21  1  0  0  0  0
 23 22  2  0  0  0  0
 24  6  1  0  0  0  0
 26 25  1  6  0  0  0
 26 27  1  0  0  0  0
 26 24  1  0  0  0  0
 28 27  1  0  0  0  0
 29 31  1  0  0  0  0
 30 32  2  0  0  0  0
 31 28  1  0  0  0  0
 31 33  2  0  0  0  0
 32 33  1  0  0  0  0
 33 44  1  0  0  0  0
 34 29  2  0  0  0  0
 34 30  1  0  0  0  0
 36 39  1  1  0  0  0
 36 35  1  0  0  0  0
 38 37  1  6  0  0  0
 38 41  1  0  0  0  0
 38 42  1  0  0  0  0
 40 36  1  0  0  0  0
 41 30  1  0  0  0  0
 41 40  1  0  0  0  0
 42 43  1  0  0  0  0
 43 35  1  0  0  0  0
 45 44  1  0  0  0  0
M  END
>  <MODEL>
1

>  <REMARK>
 VINA RESULT:     -10.1      0.000      0.000
  Name = 
  9 active torsions:
  status: ('A' for Active; 'I' for Inactive)
    1  A    between atoms: N_7  and  C_31
    2  A    between atoms: N_7  and  C_43
    3  A    between atoms: N_9  and  C_23
    4  A    between atoms: N_9  and  C_26
    5  A    between atoms: C_11  and  C_16
    6  A    between atoms: C_18  and  C_34
    7  A    between atoms: C_20  and  N_38
    8  A    between atoms: O_22  and  C_39
    9  A    between atoms: C_26  and  C_43
                            x       y       z     vdW  Elec       q    Type
                         _______ _______ _______ _____ _____    ______ ____

>  <TORSDO>
F 9

$$$$
=
 OpenBabel10232408283D

 45 50  0  0  1  0  0  0  0  0999 V2000
  191.5110  176.9400  144.6300 C   0  0  0  0  0  3  0  0  0  0  0  0
  189.7180  177.4320  143.0850 C   0  0  0  0  0  3  0  0  0  0  0  0
  188.8120  177.5250  144.1490 C   0  0  0  0  0  0  0  0  0  0  0  0
  190.6180  177.0260  145.7070 C   0  0  0  0  0  0  0  0  0  0  0  0
  189.2710  177.3210  145.4570 C   0  0  0  0  0  3  0  0  0  0  0  0
  191.0690  177.1420  143.3210 C   0  0  0  0  0  0  0  0  0  0  0  0
  180.5270  179.2530  142.3320 C   0  0  0  0  0  3  0  0  0  0  0  0
  183.2480  179.0360  145.5840 O   0  0  0  0  0  1  0  0  0  0  0  0
  184.5500  178.2360  141.6390 C   0  0  0  0  0  3  0  0  0  0  0  0
  185.4270  178.1660  142.7200 C   0  0  0  0  0  0  0  0  0  0  0  0
  183.6590  178.7780  144.2790 C   0  0  0  0  0  0  0  0  0  0  0  0
  180.9750  178.9860  141.0350 C   0  0  0  0  0  3  0  0  0  0  0  0
  187.3970  177.8430  143.8940 C   0  0  0  0  0  0  0  0  0  0  0  0
  183.2090  178.5810  141.8760 C   0  0  0  0  0  0  0  0  0  0  0  0
  184.9830  178.4330  144.0070 C   0  0  0  0  0  0  0  0  0  0  0  0
  181.4120  179.1870  143.4120 C   0  0  0  0  0  3  0  0  0  0  0  0
  182.7570  178.8530  143.2010 C   0  0  0  0  0  0  0  0  0  0  0  0
  182.3130  178.6520  140.8070 C   0  0  0  0  0  3  0  0  0  0  0  0
  186.7820  177.8330  142.6380 C   0  0  0  0  0  3  0  0  0  0  0  0
  186.2600  178.2620  145.0810 S   0  0  0  0  0  0  0  0  0  0  0  0
  192.2970  176.0960  147.3320 N   0  0  0  0  0  1  0  0  0  0  0  0
  191.0920  176.8150  147.0850 C   0  0  0  0  0  0  0  0  0  0  0  0
  190.4330  177.2660  148.0590 O   0  0  0  0  0  0  0  0  0  0  0  0
  192.0070  177.0500  142.2440 N   0  0  0  0  0  2  0  0  0  0  0  0
  192.9720  177.3580  140.0290 C   0  0  0  0  0  1  0  0  0  0  0  0
  191.7430  177.5460  140.8980 C   0  0  1  0  0  3  0  0  0  0  0  0
  190.5870  176.7780  140.2880 C   0  0  0  0  0  2  0  0  0  0  0  0
  190.1170  177.4540  139.0890 N   0  0  0  0  0  2  0  0  0  0  0  0
  187.7860  177.9410  138.5180 C   0  0  0  0  0  3  0  0  0  0  0  0
  186.4900  176.4650  137.0940 C   0  0  0  0  0  0  0  0  0  0  0  0
  188.9050  177.1020  138.4130 C   0  0  0  0  0  0  0  0  0  0  0  0
  187.6080  175.6250  136.9870 C   0  0  0  0  0  3  0  0  0  0  0  0
  188.8130  175.9200  137.6350 C   0  0  0  0  0  0  0  0  0  0  0  0
  186.5930  177.6280  137.8680 C   0  0  0  0  0  3  0  0  0  0  0  0
  183.2410  174.8550  137.9880 C   0  0  0  0  0  2  0  0  0  0  0  0
  184.2200  174.0100  137.1690 C   0  0  2  0  0  3  0  0  0  0  0  0
  183.8550  177.1690  134.6520 C   0  0  0  0  0  1  0  0  0  0  0  0
  184.2840  177.1980  136.1120 C   0  0  2  0  0  3  0  0  0  0  0  0
  185.1510  173.4190  138.0210 O   0  0  0  0  0  1  0  0  0  0  0  0
  184.9390  174.7630  136.0440 C   0  0  0  0  0  2  0  0  0  0  0  0
  185.2590  176.1450  136.4160 N   0  0  0  0  0  0  0  0  0  0  0  0
  183.0810  177.1610  137.0570 C   0  0  0  0  0  2  0  0  0  0  0  0
  182.4060  175.7940  137.1280 C   0  0  0  0  0  2  0  0  0  0  0  0
  189.8630  175.0040  137.4650 O   0  0  0  0  0  0  0  0  0  0  0  0
  189.7680  173.7660  136.7740 C   0  0  0  0  0  1  0  0  0  0  0  0
  1  4  1  0  0  0  0
  2  6  1  0  0  0  0
  2  3  2  0  0  0  0
  3  5  1  0  0  0  0
  4 22  1  0  0  0  0
  5  4  2  0  0  0  0
  6  1  2  0  0  0  0
  7 16  1  0  0  0  0
  9 14  1  0  0  0  0
  9 10  2  0  0  0  0
 10 15  1  0  0  0  0
 11  8  1  0  0  0  0
 12  7  2  0  0  0  0
 13  3  1  0  0  0  0
 13 20  1  0  0  0  0
 14 17  1  0  0  0  0
 15 11  2  0  0  0  0
 15 20  1  0  0  0  0
 17 16  2  0  0  0  0
 17 11  1  0  0  0  0
 18 12  1  0  0  0  0
 18 14  2  0  0  0  0
 19 10  1  0  0  0  0
 19 13  2  0  0  0  0
 22 21  1  0  0  0  0
 22 23  2  0  0  0  0
 24  6  1  0  0  0  0
 26 25  1  6  0  0  0
 26 24  1  0  0  0  0
 27 26  1  0  0  0  0
 28 27  1  0  0  0  0
 30 34  1  0  0  0  0
 31 29  1  0  0  0  0
 31 28  1  0  0  0  0
 32 30  2  0  0  0  0
 32 33  1  0  0  0  0
 33 31  2  0  0  0  0
 34 29  2  0  0  0  0
 36 35  1  0  0  0  0
 36 39  1  1  0  0  0
 38 37  1  6  0  0  0
 38 41  1  0  0  0  0
 38 42  1  0  0  0  0
 40 41  1  0  0  0  0
 40 36  1  0  0  0  0
 41 30  1  0  0  0  0
 42 43  1  0  0  0  0
 43 35  1  0  0  0  0
 44 33  1  0  0  0  0
 45 44  1  0  0  0  0
M  END
>  <MODEL>
2

>  <REMARK>
 VINA RESULT:      -9.8      2.688      7.546
  Name = 
  9 active torsions:
  status: ('A' for Active; 'I' for Inactive)
    1  A    between atoms: N_7  and  C_31
    2  A    between atoms: N_7  and  C_43
    3  A    between atoms: N_9  and  C_23
    4  A    between atoms: N_9  and  C_26
    5  A    between atoms: C_11  and  C_16
    6  A    between atoms: C_18  and  C_34
    7  A    between atoms: C_20  and  N_38
    8  A    between atoms: O_22  and  C_39
    9  A    between atoms: C_26  and  C_43
                            x       y       z     vdW  Elec       q    Type
                         _______ _______ _______ _____ _____    ______ ____

>  <TORSDO>
F 9

$$$$
=
 OpenBabel10232408283D

 45 50  0  0  1  0  0  0  0  0999 V2000
  189.2580  177.5440  146.5110 C   0  0  0  0  0  3  0  0  0  0  0  0
  188.2940  177.9290  144.3280 C   0  0  0  0  0  3  0  0  0  0  0  0
  189.4250  177.3720  143.7180 C   0  0  0  0  0  0  0  0  0  0  0  0
  190.3990  176.9870  145.9180 C   0  0  0  0  0  0  0  0  0  0  0  0
  190.4730  176.9030  144.5210 C   0  0  0  0  0  3  0  0  0  0  0  0
  188.2050  178.0150  145.7240 C   0  0  0  0  0  0  0  0  0  0  0  0
  189.6270  177.0160  135.0710 C   0  0  0  0  0  3  0  0  0  0  0  0
  191.9170  176.0060  138.5000 O   0  0  0  0  0  1  0  0  0  0  0  0
  188.1220  177.8280  138.9150 C   0  0  0  0  0  3  0  0  0  0  0  0
  188.8910  177.4930  140.0280 C   0  0  0  0  0  0  0  0  0  0  0  0
  190.6660  176.6040  138.6170 C   0  0  0  0  0  0  0  0  0  0  0  0
  188.3740  177.6170  135.2280 C   0  0  0  0  0  3  0  0  0  0  0  0
  189.5040  177.2720  142.2510 C   0  0  0  0  0  0  0  0  0  0  0  0
  188.6280  177.5500  137.6340 C   0  0  0  0  0  0  0  0  0  0  0  0
  190.1330  176.8950  139.8730 C   0  0  0  0  0  0  0  0  0  0  0  0
  190.3910  176.6770  136.1920 C   0  0  0  0  0  3  0  0  0  0  0  0
  189.9050  176.9360  137.4800 C   0  0  0  0  0  0  0  0  0  0  0  0
  187.8750  177.8830  136.5060 C   0  0  0  0  0  3  0  0  0  0  0  0
  188.5210  177.7130  141.3590 C   0  0  0  0  0  3  0  0  0  0  0  0
  190.8090  176.6210  141.3840 S   0  0  0  0  0  0  0  0  0  0  0  0
  192.3050  175.3950  146.3170 N   0  0  0  0  0  1  0  0  0  0  0  0
  191.5050  176.4900  146.7540 C   0  0  0  0  0  0  0  0  0  0  0  0
  191.7510  177.0270  147.8670 O   0  0  0  0  0  0  0  0  0  0  0  0
  187.0530  178.5750  146.3610 N   0  0  0  0  0  2  0  0  0  0  0  0
  184.8250  178.0390  147.1870 C   0  0  0  0  0  1  0  0  0  0  0  0
  185.6820  178.2790  145.9590 C   0  0  1  0  0  3  0  0  0  0  0  0
  185.1140  179.4510  145.1830 C   0  0  0  0  0  2  0  0  0  0  0  0
  183.7540  179.1530  144.7580 N   0  0  0  0  0  2  0  0  0  0  0  0
  184.4020  178.3040  142.5540 C   0  0  0  0  0  3  0  0  0  0  0  0
  182.7920  178.0870  140.7520 C   0  0  0  0  0  0  0  0  0  0  0  0
  183.4110  178.8040  143.4130 C   0  0  0  0  0  0  0  0  0  0  0  0
  181.8000  178.5850  141.6080 C   0  0  0  0  0  3  0  0  0  0  0  0
  182.0850  178.9490  142.9300 C   0  0  0  0  0  0  0  0  0  0  0  0
  184.0980  177.9510  141.2400 C   0  0  0  0  0  3  0  0  0  0  0  0
  184.6890  176.9630  137.7370 C   0  0  0  0  0  2  0  0  0  0  0  0
  184.1960  178.4110  137.7330 C   0  0  2  0  0  3  0  0  0  0  0  0
  180.6350  176.5360  138.2330 C   0  0  0  0  0  1  0  0  0  0  0  0
  181.8750  176.4080  139.1060 C   0  0  2  0  0  3  0  0  0  0  0  0
  185.0950  179.2120  138.4360 O   0  0  0  0  0  1  0  0  0  0  0  0
  182.7770  178.6130  138.2770 C   0  0  0  0  0  2  0  0  0  0  0  0
  182.4770  177.7150  139.3950 N   0  0  0  0  0  0  0  0  0  0  0  0
  182.8870  175.4250  138.5120 C   0  0  0  0  0  2  0  0  0  0  0  0
  183.6210  175.9730  137.2910 C   0  0  0  0  0  2  0  0  0  0  0  0
  181.0170  179.4440  143.6940 O   0  0  0  0  0  0  0  0  0  0  0  0
  179.9850  178.6540  144.2690 C   0  0  0  0  0  1  0  0  0  0  0  0
  2  6  1  0  0  0  0
  3  2  2  0  0  0  0
  3  5  1  0  0  0  0
  4  1  1  0  0  0  0
  4 22  1  0  0  0  0
  5  4  2  0  0  0  0
  6 24  1  0  0  0  0
  6  1  2  0  0  0  0
  7 12  2  0  0  0  0
  7 16  1  0  0  0  0
  8 11  1  0  0  0  0
  9 10  2  0  0  0  0
 10 19  1  0  0  0  0
 11 15  2  0  0  0  0
 12 18  1  0  0  0  0
 13  3  1  0  0  0  0
 14  9  1  0  0  0  0
 15 10  1  0  0  0  0
 15 20  1  0  0  0  0
 16 17  2  0  0  0  0
 17 14  1  0  0  0  0
 17 11  1  0  0  0  0
 18 14  2  0  0  0  0
 19 13  2  0  0  0  0
 20 13  1  0  0  0  0
 21 22  1  0  0  0  0
 22 23  2  0  0  0  0
 26 24  1  0  0  0  0
 26 25  1  1  0  0  0
 27 26  1  0  0  0  0
 28 27  1  0  0  0  0
 29 31  1  0  0  0  0
 30 34  1  0  0  0  0
 30 32  2  0  0  0  0
 31 28  1  0  0  0  0
 32 33  1  0  0  0  0
 33 31  2  0  0  0  0
 33 44  1  0  0  0  0
 34 29  2  0  0  0  0
 36 35  1  0  0  0  0
 36 40  1  0  0  0  0
 36 39  1  1  0  0  0
 38 37  1  6  0  0  0
 38 41  1  0  0  0  0
 40 41  1  0  0  0  0
 41 30  1  0  0  0  0
 42 38  1  0  0  0  0
 43 35  1  0  0  0  0
 43 42  1  0  0  0  0
 44 45  1  0  0  0  0
M  END
>  <MODEL>
3

>  <REMARK>
 VINA RESULT:      -9.5      2.687      8.182
  Name = 
  9 active torsions:
  status: ('A' for Active; 'I' for Inactive)
    1  A    between atoms: N_7  and  C_31
    2  A    between atoms: N_7  and  C_43
    3  A    between atoms: N_9  and  C_23
    4  A    between atoms: N_9  and  C_26
    5  A    between atoms: C_11  and  C_16
    6  A    between atoms: C_18  and  C_34
    7  A    between atoms: C_20  and  N_38
    8  A    between atoms: O_22  and  C_39
    9  A    between atoms: C_26  and  C_43
                            x       y       z     vdW  Elec       q    Type
                         _______ _______ _______ _____ _____    ______ ____

>  <TORSDO>
F 9

$$$$
=
 OpenBabel10232408283D

 45 50  0  0  1  0  0  0  0  0999 V2000
  189.2810  177.3130  146.7390 C   0  0  0  0  0  3  0  0  0  0  0  0
  188.2040  177.7820  144.6270 C   0  0  0  0  0  3  0  0  0  0  0  0
  189.3470  177.3580  143.9370 C   0  0  0  0  0  0  0  0  0  0  0  0
  190.4350  176.8880  146.0660 C   0  0  0  0  0  0  0  0  0  0  0  0
  190.4580  176.9120  144.6650 C   0  0  0  0  0  3  0  0  0  0  0  0
  188.1660  177.7600  146.0280 C   0  0  0  0  0  0  0  0  0  0  0  0
  189.7340  177.1730  135.2910 C   0  0  0  0  0  3  0  0  0  0  0  0
  187.3990  178.7060  138.4880 O   0  0  0  0  0  1  0  0  0  0  0  0
  190.8690  176.4160  139.2710 C   0  0  0  0  0  3  0  0  0  0  0  0
  190.0860  176.9240  140.3070 C   0  0  0  0  0  0  0  0  0  0  0  0
  188.5440  177.9520  138.7270 C   0  0  0  0  0  0  0  0  0  0  0  0
  190.8790  176.4190  135.5690 C   0  0  0  0  0  3  0  0  0  0  0  0
  189.3730  177.3710  142.4650 C   0  0  0  0  0  0  0  0  0  0  0  0
  190.4880  176.6760  137.9450 C   0  0  0  0  0  0  0  0  0  0  0  0
  188.9520  177.6740  140.0310 C   0  0  0  0  0  0  0  0  0  0  0  0
  188.9570  177.6850  136.3340 C   0  0  0  0  0  3  0  0  0  0  0  0
  189.3210  177.4470  137.6660 C   0  0  0  0  0  0  0  0  0  0  0  0
  191.2550  176.1720  136.8920 C   0  0  0  0  0  3  0  0  0  0  0  0
  190.3390  176.7440  141.6700 C   0  0  0  0  0  3  0  0  0  0  0  0
  188.2290  178.1350  141.4730 S   0  0  0  0  0  0  0  0  0  0  0  0
  191.9720  177.0400  148.0500 N   0  0  0  0  0  1  0  0  0  0  0  0
  191.6060  176.4160  146.8230 C   0  0  0  0  0  0  0  0  0  0  0  0
  192.2990  175.4570  146.3890 O   0  0  0  0  0  0  0  0  0  0  0  0
  187.0030  178.1840  146.7450 N   0  0  0  0  0  2  0  0  0  0  0  0
  184.6560  178.0320  147.3820 C   0  0  0  0  0  1  0  0  0  0  0  0
  185.6440  178.0560  146.2300 C   0  0  1  0  0  3  0  0  0  0  0  0
  185.3250  179.2370  145.3340 C   0  0  0  0  0  2  0  0  0  0  0  0
  183.9790  179.1040  144.7960 N   0  0  0  0  0  2  0  0  0  0  0  0
  184.7280  178.1240  142.6810 C   0  0  0  0  0  3  0  0  0  0  0  0
  183.2310  177.8940  140.7850 C   0  0  0  0  0  0  0  0  0  0  0  0
  183.7090  178.7070  143.4470 C   0  0  0  0  0  0  0  0  0  0  0  0
  182.2100  178.4770  141.5500 C   0  0  0  0  0  3  0  0  0  0  0  0
  182.4250  178.8900  142.8700 C   0  0  0  0  0  0  0  0  0  0  0  0
  184.4940  177.7230  141.3660 C   0  0  0  0  0  3  0  0  0  0  0  0
  180.2570  177.5130  138.5570 C   0  0  0  0  0  2  0  0  0  0  0  0
  180.8530  176.2240  139.1290 C   0  0  2  0  0  3  0  0  0  0  0  0
  184.1470  177.6570  137.2490 C   0  0  0  0  0  1  0  0  0  0  0  0
  183.3100  178.3610  138.3060 C   0  0  2  0  0  3  0  0  0  0  0  0
  180.3570  176.0130  140.4150 O   0  0  0  0  0  1  0  0  0  0  0  0
  182.3840  176.1680  139.1400 C   0  0  0  0  0  2  0  0  0  0  0  0
  182.9870  177.4730  139.4280 N   0  0  0  0  0  0  0  0  0  0  0  0
  182.0610  179.0070  137.7020 C   0  0  0  0  0  2  0  0  0  0  0  0
  180.9850  177.9980  137.3100 C   0  0  0  0  0  2  0  0  0  0  0  0
  181.3350  179.4680  143.5380 O   0  0  0  0  0  0  0  0  0  0  0  0
  180.2020  178.7610  144.0220 C   0  0  0  0  0  1  0  0  0  0  0  0
  2  6  1  0  0  0  0
  3  2  2  0  0  0  0
  3  5  1  0  0  0  0
  4  1  1  0  0  0  0
  4 22  1  0  0  0  0
  5  4  2  0  0  0  0
  6  1  2  0  0  0  0
  6 24  1  0  0  0  0
  7 12  2  0  0  0  0
  7 16  1  0  0  0  0
  8 11  1  0  0  0  0
  9 10  2  0  0  0  0
 10 19  1  0  0  0  0
 11 15  2  0  0  0  0
 12 18  1  0  0  0  0
 13  3  1  0  0  0  0
 14  9  1  0  0  0  0
 15 10  1  0  0  0  0
 15 20  1  0  0  0  0
 16 17  2  0  0  0  0
 17 14  1  0  0  0  0
 17 11  1  0  0  0  0
 18 14  2  0  0  0  0
 19 13  2  0  0  0  0
 20 13  1  0  0  0  0
 22 21  1  0  0  0  0
 23 22  2  0  0  0  0
 26 24  1  0  0  0  0
 26 25  1  1  0  0  0
 27 26  1  0  0  0  0
 28 27  1  0  0  0  0
 29 31  1  0  0  0  0
 30 34  1  0  0  0  0
 30 32  2  0  0  0  0
 31 28  1  0  0  0  0
 32 33  1  0  0  0  0
 33 31  2  0  0  0  0
 33 44  1  0  0  0  0
 34 29  2  0  0  0  0
 35 36  1  0  0  0  0
 36 40  1  0  0  0  0
 36 39  1  1  0  0  0
 38 37  1  6  0  0  0
 38 41  1  0  0  0  0
 40 41  1  0  0  0  0
 41 30  1  0  0  0  0
 42 38  1  0  0  0  0
 43 42  1  0  0  0  0
 43 35  1  0  0  0  0
 44 45  1  0  0  0  0
M  END
>  <MODEL>
4

>  <REMARK>
 VINA RESULT:      -9.4      2.742      8.414
  Name = 
  9 active torsions:
  status: ('A' for Active; 'I' for Inactive)
    1  A    between atoms: N_7  and  C_31
    2  A    between atoms: N_7  and  C_43
    3  A    between atoms: N_9  and  C_23
    4  A    between atoms: N_9  and  C_26
    5  A    between atoms: C_11  and  C_16
    6  A    between atoms: C_18  and  C_34
    7  A    between atoms: C_20  and  N_38
    8  A    between atoms: O_22  and  C_39
    9  A    between atoms: C_26  and  C_43
                            x       y       z     vdW  Elec       q    Type
                         _______ _______ _______ _____ _____    ______ ____

>  <TORSDO>
F 9

$$$$
=
 OpenBabel10232408283D

 45 50  0  0  1  0  0  0  0  0999 V2000
  188.1290  177.4990  145.6320 C   0  0  0  0  0  3  0  0  0  0  0  0
  187.2700  177.3780  143.3750 C   0  0  0  0  0  3  0  0  0  0  0  0
  186.0800  177.9940  143.7840 C   0  0  0  0  0  0  0  0  0  0  0  0
  186.9440  178.1130  146.0590 C   0  0  0  0  0  0  0  0  0  0  0  0
  185.9250  178.3580  145.1280 C   0  0  0  0  0  3  0  0  0  0  0  0
  188.2980  177.1310  144.2950 C   0  0  0  0  0  0  0  0  0  0  0  0
  179.9840  179.4150  137.8040 C   0  0  0  0  0  3  0  0  0  0  0  0
  180.5960  179.4290  142.0050 O   0  0  0  0  0  1  0  0  0  0  0  0
  183.7690  178.4700  139.3780 C   0  0  0  0  0  3  0  0  0  0  0  0
  183.9490  178.4760  140.7600 C   0  0  0  0  0  0  0  0  0  0  0  0
  181.6280  179.1180  141.1260 C   0  0  0  0  0  0  0  0  0  0  0  0
  181.0450  179.0970  136.9510 C   0  0  0  0  0  3  0  0  0  0  0  0
  185.0100  178.2630  142.8080 C   0  0  0  0  0  0  0  0  0  0  0  0
  182.5050  178.7910  138.8580 C   0  0  0  0  0  0  0  0  0  0  0  0
  182.8970  178.7940  141.6070 C   0  0  0  0  0  0  0  0  0  0  0  0
  180.1720  179.4250  139.1890 C   0  0  0  0  0  3  0  0  0  0  0  0
  181.4260  179.1160  139.7320 C   0  0  0  0  0  0  0  0  0  0  0  0
  182.3030  178.7860  137.4760 C   0  0  0  0  0  3  0  0  0  0  0  0
  185.1450  178.1750  141.4190 C   0  0  0  0  0  3  0  0  0  0  0  0
  183.4210  178.7100  143.1980 S   0  0  0  0  0  0  0  0  0  0  0  0
  185.8940  179.5640  147.8240 N   0  0  0  0  0  1  0  0  0  0  0  0
  186.7740  178.5010  147.4690 C   0  0  0  0  0  0  0  0  0  0  0  0
  187.4080  177.8970  148.3750 O   0  0  0  0  0  0  0  0  0  0  0  0
  189.5210  176.5090  143.8910 N   0  0  0  0  0  2  0  0  0  0  0  0
  191.6010  176.6520  145.1520 C   0  0  0  0  0  1  0  0  0  0  0  0
  190.8220  177.1660  143.9560 C   0  0  1  0  0  3  0  0  0  0  0  0
  191.6070  176.8690  142.6940 C   0  0  0  0  0  2  0  0  0  0  0  0
  191.3000  177.8590  141.6720 N   0  0  0  0  0  2  0  0  0  0  0  0
  189.1650  177.7450  140.4780 C   0  0  0  0  0  3  0  0  0  0  0  0
  189.0340  176.9910  138.1750 C   0  0  0  0  0  0  0  0  0  0  0  0
  190.5550  177.5570  140.4870 C   0  0  0  0  0  0  0  0  0  0  0  0
  190.4240  176.8030  138.1820 C   0  0  0  0  0  3  0  0  0  0  0  0
  191.1970  177.0750  139.3170 C   0  0  0  0  0  0  0  0  0  0  0  0
  188.4130  177.4650  139.3380 C   0  0  0  0  0  3  0  0  0  0  0  0
  186.8520  174.2120  136.9640 C   0  0  0  0  0  2  0  0  0  0  0  0
  188.2490  174.3050  136.3440 C   0  0  2  0  0  3  0  0  0  0  0  0
  186.8900  178.0030  135.3860 C   0  0  0  0  0  1  0  0  0  0  0  0
  186.9730  177.3820  136.7730 C   0  0  2  0  0  3  0  0  0  0  0  0
  189.1730  173.6850  137.1840 O   0  0  0  0  0  1  0  0  0  0  0  0
  188.7150  175.7250  136.0070 C   0  0  0  0  0  2  0  0  0  0  0  0
  188.2580  176.7090  136.9940 N   0  0  0  0  0  0  0  0  0  0  0  0
  185.7830  176.4620  137.0540 C   0  0  0  0  0  2  0  0  0  0  0  0
  185.8460  175.1390  136.2950 C   0  0  0  0  0  2  0  0  0  0  0  0
  192.5770  176.8430  139.2130 O   0  0  0  0  0  0  0  0  0  0  0  0
  193.2120  176.1330  138.1600 C   0  0  0  0  0  1  0  0  0  0  0  0
  1  4  1  0  0  0  0
  2  3  2  0  0  0  0
  2  6  1  0  0  0  0
  3  5  1  0  0  0  0
  4 22  1  0  0  0  0
  5  4  2  0  0  0  0
  6  1  2  0  0  0  0
  7 16  1  0  0  0  0
  9 10  2  0  0  0  0
 10 19  1  0  0  0  0
 10 15  1  0  0  0  0
 11 15  2  0  0  0  0
 11  8  1  0  0  0  0
 12 18  1  0  0  0  0
 12  7  2  0  0  0  0
 13 20  1  0  0  0  0
 13  3  1  0  0  0  0
 14  9  1  0  0  0  0
 14 17  1  0  0  0  0
 15 20  1  0  0  0  0
 16 17  2  0  0  0  0
 17 11  1  0  0  0  0
 18 14  2  0  0  0  0
 19 13  2  0  0  0  0
 22 21  1  0  0  0  0
 22 23  2  0  0  0  0
 24 26  1  0  0  0  0
 24  6  1  0  0  0  0
 26 25  1  1  0  0  0
 27 26  1  0  0  0  0
 28 27  1  0  0  0  0
 29 31  1  0  0  0  0
 30 32  2  0  0  0  0
 30 34  1  0  0  0  0
 31 28  1  0  0  0  0
 32 33  1  0  0  0  0
 33 31  2  0  0  0  0
 34 29  2  0  0  0  0
 36 35  1  0  0  0  0
 36 39  1  1  0  0  0
 38 37  1  6  0  0  0
 38 41  1  0  0  0  0
 38 42  1  0  0  0  0
 40 36  1  0  0  0  0
 40 41  1  0  0  0  0
 41 30  1  0  0  0  0
 43 35  1  0  0  0  0
 43 42  1  0  0  0  0
 44 33  1  0  0  0  0
 45 44  1  0  0  0  0
M  END
>  <MODEL>
5

>  <REMARK>
 VINA RESULT:      -9.4      2.590      7.667
  Name = 
  9 active torsions:
  status: ('A' for Active; 'I' for Inactive)
    1  A    between atoms: N_7  and  C_31
    2  A    between atoms: N_7  and  C_43
    3  A    between atoms: N_9  and  C_23
    4  A    between atoms: N_9  and  C_26
    5  A    between atoms: C_11  and  C_16
    6  A    between atoms: C_18  and  C_34
    7  A    between atoms: C_20  and  N_38
    8  A    between atoms: O_22  and  C_39
    9  A    between atoms: C_26  and  C_43
                            x       y       z     vdW  Elec       q    Type
                         _______ _______ _______ _____ _____    ______ ____

>  <TORSDO>
F 9

$$$$
=
 OpenBabel10232408283D

 45 50  0  0  1  0  0  0  0  0999 V2000
  182.9720  178.9070  140.1970 C   0  0  0  0  0  3  0  0  0  0  0  0
  185.2880  178.4740  140.7380 C   0  0  0  0  0  3  0  0  0  0  0  0
  184.9640  178.3810  142.0980 C   0  0  0  0  0  0  0  0  0  0  0  0
  182.6300  178.8200  141.5530 C   0  0  0  0  0  0  0  0  0  0  0  0
  183.6320  178.5550  142.4960 C   0  0  0  0  0  3  0  0  0  0  0  0
  184.2950  178.7350  139.7840 C   0  0  0  0  0  0  0  0  0  0  0  0
  191.3540  176.6860  147.6860 C   0  0  0  0  0  3  0  0  0  0  0  0
  187.3300  178.0320  147.5360 O   0  0  0  0  0  1  0  0  0  0  0  0
  189.3850  177.0120  143.9830 C   0  0  0  0  0  3  0  0  0  0  0  0
  188.0660  177.4610  143.9540 C   0  0  0  0  0  0  0  0  0  0  0  0
  188.0210  177.6910  146.3780 C   0  0  0  0  0  0  0  0  0  0  0  0
  192.0170  176.3520  146.5010 C   0  0  0  0  0  3  0  0  0  0  0  0
  186.0110  178.0930  143.0930 C   0  0  0  0  0  0  0  0  0  0  0  0
  190.0360  176.9010  145.2220 C   0  0  0  0  0  0  0  0  0  0  0  0
  187.4070  177.7890  145.1290 C   0  0  0  0  0  0  0  0  0  0  0  0
  190.0290  177.1290  147.6510 C   0  0  0  0  0  3  0  0  0  0  0  0
  189.3550  177.2410  146.4280 C   0  0  0  0  0  0  0  0  0  0  0  0
  191.3600  176.4580  145.2720 C   0  0  0  0  0  3  0  0  0  0  0  0
  187.2960  177.6250  142.7980 C   0  0  0  0  0  3  0  0  0  0  0  0
  185.8480  178.2950  144.7690 S   0  0  0  0  0  0  0  0  0  0  0  0
  180.2060  178.1550  141.4670 N   0  0  0  0  0  1  0  0  0  0  0  0
  181.2320  178.9990  141.9810 C   0  0  0  0  0  0  0  0  0  0  0  0
  180.9310  179.9040  142.8040 O   0  0  0  0  0  0  0  0  0  0  0  0
  184.6100  178.8270  138.3920 N   0  0  0  0  0  2  0  0  0  0  0  0
  184.8890  177.0910  136.7050 C   0  0  0  0  0  1  0  0  0  0  0  0
  185.5860  177.9710  137.7250 C   0  0  1  0  0  3  0  0  0  0  0  0
  186.6160  178.8280  137.0150 C   0  0  0  0  0  2  0  0  0  0  0  0
  187.9110  178.6900  137.6640 N   0  0  0  0  0  2  0  0  0  0  0  0
  189.0120  177.5050  135.8250 C   0  0  0  0  0  3  0  0  0  0  0  0
  190.9380  176.0790  136.2030 C   0  0  0  0  0  0  0  0  0  0  0  0
  188.9340  177.8060  137.1930 C   0  0  0  0  0  0  0  0  0  0  0  0
  190.8630  176.3790  137.5710 C   0  0  0  0  0  3  0  0  0  0  0  0
  189.8760  177.2300  138.0840 C   0  0  0  0  0  0  0  0  0  0  0  0
  190.0000  176.6520  135.3350 C   0  0  0  0  0  3  0  0  0  0  0  0
  194.2520  174.8180  137.3780 C   0  0  0  0  0  2  0  0  0  0  0  0
  194.2760  175.9040  136.2990 C   0  0  2  0  0  3  0  0  0  0  0  0
  192.0560  173.1290  134.3460 C   0  0  0  0  0  1  0  0  0  0  0  0
  191.7700  173.7490  135.7060 C   0  0  2  0  0  3  0  0  0  0  0  0
  194.1460  177.1570  136.8970 O   0  0  0  0  0  1  0  0  0  0  0  0
  193.2320  175.7390  135.1900 C   0  0  0  0  0  2  0  0  0  0  0  0
  191.9640  175.2030  135.6960 N   0  0  0  0  0  0  0  0  0  0  0  0
  192.5680  173.0670  136.8190 C   0  0  0  0  0  2  0  0  0  0  0  0
  194.0530  173.4210  136.8050 C   0  0  0  0  0  2  0  0  0  0  0  0
  189.8910  177.4540  139.4690 O   0  0  0  0  0  0  0  0  0  0  0  0
  190.9200  177.0380  140.3560 C   0  0  0  0  0  1  0  0  0  0  0  0
  1  4  1  0  0  0  0
  2  3  2  0  0  0  0
  3  5  1  0  0  0  0
  3 13  1  0  0  0  0
  4 22  1  0  0  0  0
  4  5  2  0  0  0  0
  6  1  2  0  0  0  0
  6  2  1  0  0  0  0
  9 14  1  0  0  0  0
 10  9  2  0  0  0  0
 10 15  1  0  0  0  0
 11 17  1  0  0  0  0
 11  8  1  0  0  0  0
 12  7  2  0  0  0  0
 13 20  1  0  0  0  0
 14 18  2  0  0  0  0
 14 17  1  0  0  0  0
 15 11  2  0  0  0  0
 16  7  1  0  0  0  0
 17 16  2  0  0  0  0
 18 12  1  0  0  0  0
 19 13  2  0  0  0  0
 19 10  1  0  0  0  0
 20 15  1  0  0  0  0
 21 22  1  0  0  0  0
 22 23  2  0  0  0  0
 24  6  1  0  0  0  0
 26 25  1  6  0  0  0
 26 24  1  0  0  0  0
 27 28  1  0  0  0  0
 27 26  1  0  0  0  0
 29 31  1  0  0  0  0
 30 32  2  0  0  0  0
 31 28  1  0  0  0  0
 31 33  2  0  0  0  0
 32 33  1  0  0  0  0
 33 44  1  0  0  0  0
 34 29  2  0  0  0  0
 34 30  1  0  0  0  0
 36 39  1  1  0  0  0
 36 35  1  0  0  0  0
 38 37  1  6  0  0  0
 38 42  1  0  0  0  0
 40 41  1  0  0  0  0
 40 36  1  0  0  0  0
 41 38  1  0  0  0  0
 41 30  1  0  0  0  0
 43 42  1  0  0  0  0
 43 35  1  0  0  0  0
 44 45  1  0  0  0  0
M  END
>  <MODEL>
6

>  <REMARK>
 VINA RESULT:      -9.3      2.198      3.694
  Name = 
  9 active torsions:
  status: ('A' for Active; 'I' for Inactive)
    1  A    between atoms: N_7  and  C_31
    2  A    between atoms: N_7  and  C_43
    3  A    between atoms: N_9  and  C_23
    4  A    between atoms: N_9  and  C_26
    5  A    between atoms: C_11  and  C_16
    6  A    between atoms: C_18  and  C_34
    7  A    between atoms: C_20  and  N_38
    8  A    between atoms: O_22  and  C_39
    9  A    between atoms: C_26  and  C_43
                            x       y       z     vdW  Elec       q    Type
                         _______ _______ _______ _____ _____    ______ ____

>  <TORSDO>
F 9

$$$$
=
 OpenBabel10232408283D

 45 50  0  0  1  0  0  0  0  0999 V2000
  191.1510  176.3640  137.1760 C   0  0  0  0  0  3  0  0  0  0  0  0
  189.5000  176.6880  138.9120 C   0  0  0  0  0  3  0  0  0  0  0  0
  190.5110  176.7380  139.8800 C   0  0  0  0  0  0  0  0  0  0  0  0
  192.1760  176.4080  138.1310 C   0  0  0  0  0  0  0  0  0  0  0  0
  191.8470  176.5970  139.4800 C   0  0  0  0  0  3  0  0  0  0  0  0
  189.8150  176.5030  137.5590 C   0  0  0  0  0  0  0  0  0  0  0  0
  188.1840  177.9050  148.1350 C   0  0  0  0  0  3  0  0  0  0  0  0
  191.5890  177.1800  145.7060 O   0  0  0  0  0  1  0  0  0  0  0  0
  187.7540  177.5700  143.9640 C   0  0  0  0  0  3  0  0  0  0  0  0
  188.8840  177.3280  143.1840 C   0  0  0  0  0  0  0  0  0  0  0  0
  190.3200  177.3130  145.1500 C   0  0  0  0  0  0  0  0  0  0  0  0
  186.9240  178.0320  147.5420 C   0  0  0  0  0  3  0  0  0  0  0  0
  190.1730  176.9450  141.2980 C   0  0  0  0  0  0  0  0  0  0  0  0
  187.9040  177.6860  145.3560 C   0  0  0  0  0  0  0  0  0  0  0  0
  190.1330  177.2040  143.7720 C   0  0  0  0  0  0  0  0  0  0  0  0
  189.3130  177.6670  147.3470 C   0  0  0  0  0  3  0  0  0  0  0  0
  189.1910  177.5570  145.9560 C   0  0  0  0  0  0  0  0  0  0  0  0
  186.7840  177.9230  146.1560 C   0  0  0  0  0  3  0  0  0  0  0  0
  188.8870  177.1850  141.7930 C   0  0  0  0  0  3  0  0  0  0  0  0
  191.2800  176.9130  142.5820 S   0  0  0  0  0  0  0  0  0  0  0  0
  194.4660  175.4220  138.4540 N   0  0  0  0  0  1  0  0  0  0  0  0
  193.5830  176.2640  137.7200 C   0  0  0  0  0  0  0  0  0  0  0  0
  194.0180  176.8870  136.7160 O   0  0  0  0  0  0  0  0  0  0  0  0
  188.7940  176.4570  136.5590 N   0  0  0  0  0  2  0  0  0  0  0  0
  188.8210  174.0870  135.9930 C   0  0  0  0  0  1  0  0  0  0  0  0
  188.7870  175.5050  135.4530 C   0  0  1  0  0  3  0  0  0  0  0  0
  187.5280  175.6880  134.6290 C   0  0  0  0  0  2  0  0  0  0  0  0
  186.4290  174.9470  135.2290 N   0  0  0  0  0  2  0  0  0  0  0  0
  185.2420  176.9140  136.0750 C   0  0  0  0  0  3  0  0  0  0  0  0
  183.6320  176.7480  137.8830 C   0  0  0  0  0  0  0  0  0  0  0  0
  185.4870  175.5350  136.1330 C   0  0  0  0  0  0  0  0  0  0  0  0
  183.8750  175.3690  137.9420 C   0  0  0  0  0  3  0  0  0  0  0  0
  184.7920  174.7470  137.0870 C   0  0  0  0  0  0  0  0  0  0  0  0
  184.3270  177.5150  136.9390 C   0  0  0  0  0  3  0  0  0  0  0  0
  182.6930  180.2330  138.8470 C   0  0  0  0  0  2  0  0  0  0  0  0
  183.5240  179.4430  139.8610 C   0  0  2  0  0  3  0  0  0  0  0  0
  180.3680  176.9180  139.5310 C   0  0  0  0  0  1  0  0  0  0  0  0
  181.2600  177.4300  138.4100 C   0  0  2  0  0  3  0  0  0  0  0  0
  184.8740  179.5240  139.5230 O   0  0  0  0  0  1  0  0  0  0  0  0
  183.1120  177.9770  140.0340 C   0  0  0  0  0  2  0  0  0  0  0  0
  182.6810  177.3680  138.7710 N   0  0  0  0  0  0  0  0  0  0  0  0
  180.8420  178.8270  137.9460 C   0  0  0  0  0  2  0  0  0  0  0  0
  181.2030  179.9300  138.9380 C   0  0  0  0  0  2  0  0  0  0  0  0
  184.9620  173.3620  137.2400 O   0  0  0  0  0  0  0  0  0  0  0  0
  183.9100  172.4130  137.3380 C   0  0  0  0  0  1  0  0  0  0  0  0
  1  6  2  0  0  0  0
  1  4  1  0  0  0  0
  2  3  2  0  0  0  0
  3 13  1  0  0  0  0
  4  5  2  0  0  0  0
  5  3  1  0  0  0  0
  6  2  1  0  0  0  0
  9 14  1  0  0  0  0
 10 15  1  0  0  0  0
 10  9  2  0  0  0  0
 11  8  1  0  0  0  0
 11 17  1  0  0  0  0
 12  7  1  0  0  0  0
 13 19  2  0  0  0  0
 13 20  1  0  0  0  0
 14 17  2  0  0  0  0
 14 18  1  0  0  0  0
 15 11  2  0  0  0  0
 16  7  2  0  0  0  0
 17 16  1  0  0  0  0
 18 12  2  0  0  0  0
 19 10  1  0  0  0  0
 20 15  1  0  0  0  0
 22  4  1  0  0  0  0
 22 21  1  0  0  0  0
 23 22  2  0  0  0  0
 24  6  1  0  0  0  0
 26 25  1  1  0  0  0
 26 24  1  0  0  0  0
 27 28  1  0  0  0  0
 27 26  1  0  0  0  0
 28 31  1  0  0  0  0
 29 31  2  0  0  0  0
 29 34  1  0  0  0  0
 30 32  1  0  0  0  0
 30 41  1  0  0  0  0
 31 33  1  0  0  0  0
 33 44  1  0  0  0  0
 33 32  2  0  0  0  0
 34 30  2  0  0  0  0
 35 43  1  0  0  0  0
 35 36  1  0  0  0  0
 36 39  1  6  0  0  0
 36 40  1  0  0  0  0
 38 41  1  0  0  0  0
 38 37  1  1  0  0  0
 41 40  1  0  0  0  0
 42 38  1  0  0  0  0
 42 43  1  0  0  0  0
 44 45  1  0  0  0  0
M  END
>  <MODEL>
7

>  <REMARK>
 VINA RESULT:      -9.1      2.269      7.066
  Name = 
  9 active torsions:
  status: ('A' for Active; 'I' for Inactive)
    1  A    between atoms: N_7  and  C_31
    2  A    between atoms: N_7  and  C_43
    3  A    between atoms: N_9  and  C_23
    4  A    between atoms: N_9  and  C_26
    5  A    between atoms: C_11  and  C_16
    6  A    between atoms: C_18  and  C_34
    7  A    between atoms: C_20  and  N_38
    8  A    between atoms: O_22  and  C_39
    9  A    between atoms: C_26  and  C_43
                            x       y       z     vdW  Elec       q    Type
                         _______ _______ _______ _____ _____    ______ ____

>  <TORSDO>
F 9

$$$$
=
 OpenBabel10232408283D

 45 50  0  0  1  0  0  0  0  0999 V2000
  180.4490  178.7810  138.6210 C   0  0  0  0  0  3  0  0  0  0  0  0
  181.6950  177.4130  140.1770 C   0  0  0  0  0  3  0  0  0  0  0  0
  182.2960  178.5570  140.7170 C   0  0  0  0  0  0  0  0  0  0  0  0
  181.0420  179.9360  139.1480 C   0  0  0  0  0  0  0  0  0  0  0  0
  181.9630  179.8150  140.1970 C   0  0  0  0  0  3  0  0  0  0  0  0
  180.7690  177.5200  139.1290 C   0  0  0  0  0  0  0  0  0  0  0  0
  188.2060  177.8410  147.0010 C   0  0  0  0  0  3  0  0  0  0  0  0
  184.1390  178.8740  146.3570 O   0  0  0  0  0  1  0  0  0  0  0  0
  186.5910  177.6880  143.1200 C   0  0  0  0  0  3  0  0  0  0  0  0
  185.2550  178.0350  142.9280 C   0  0  0  0  0  0  0  0  0  0  0  0
  184.9600  178.4800  145.3040 C   0  0  0  0  0  0  0  0  0  0  0  0
  189.0010  177.4500  145.9190 C   0  0  0  0  0  3  0  0  0  0  0  0
  183.2570  178.4370  141.8260 C   0  0  0  0  0  0  0  0  0  0  0  0
  187.1230  177.7360  144.4190 C   0  0  0  0  0  0  0  0  0  0  0  0
  184.4650  178.4210  144.0010 C   0  0  0  0  0  0  0  0  0  0  0  0
  186.8650  178.1830  146.8030 C   0  0  0  0  0  3  0  0  0  0  0  0
  186.3080  178.1340  145.5190 C   0  0  0  0  0  0  0  0  0  0  0  0
  188.4610  177.3970  144.6320 C   0  0  0  0  0  3  0  0  0  0  0  0
  184.5920  178.0380  141.6970 C   0  0  0  0  0  3  0  0  0  0  0  0
  182.9200  178.7780  143.4540 S   0  0  0  0  0  0  0  0  0  0  0  0
  181.1070  181.6370  137.2970 N   0  0  0  0  0  1  0  0  0  0  0  0
  180.6970  181.2620  138.6080 C   0  0  0  0  0  0  0  0  0  0  0  0
  180.0370  182.0790  139.3040 O   0  0  0  0  0  0  0  0  0  0  0  0
  180.1430  176.3610  138.5710 N   0  0  0  0  0  2  0  0  0  0  0  0
  180.8750  176.2740  136.2490 C   0  0  0  0  0  1  0  0  0  0  0  0
  180.7650  175.5150  137.5580 C   0  0  1  0  0  3  0  0  0  0  0  0
  182.1550  175.1140  138.0120 C   0  0  0  0  0  2  0  0  0  0  0  0
  183.0700  175.1210  136.8790 N   0  0  0  0  0  2  0  0  0  0  0  0
  184.6740  176.9520  137.1420 C   0  0  0  0  0  3  0  0  0  0  0  0
  187.0670  176.5540  137.1560 C   0  0  0  0  0  0  0  0  0  0  0  0
  184.4210  175.5840  136.9660 C   0  0  0  0  0  0  0  0  0  0  0  0
  186.8170  175.1860  136.9800 C   0  0  0  0  0  3  0  0  0  0  0  0
  185.5140  174.6830  136.8810 C   0  0  0  0  0  0  0  0  0  0  0  0
  185.9790  177.4330  137.2350 C   0  0  0  0  0  3  0  0  0  0  0  0
  189.5220  177.1840  139.9000 C   0  0  0  0  0  2  0  0  0  0  0  0
  188.8350  178.4130  139.3010 C   0  0  2  0  0  3  0  0  0  0  0  0
  190.4940  176.9130  135.9190 C   0  0  0  0  0  1  0  0  0  0  0  0
  189.5510  176.2010  136.8770 C   0  0  2  0  0  3  0  0  0  0  0  0
  187.5880  178.5880  139.8990 O   0  0  0  0  0  1  0  0  0  0  0  0
  188.6890  178.3950  137.7760 C   0  0  0  0  0  2  0  0  0  0  0  0
  188.4170  177.0500  137.2590 N   0  0  0  0  0  0  0  0  0  0  0  0
  190.2920  175.6460  138.0950 C   0  0  0  0  0  2  0  0  0  0  0  0
  190.7240  176.7230  139.0860 C   0  0  0  0  0  2  0  0  0  0  0  0
  185.3830  173.2980  136.6990 O   0  0  0  0  0  0  0  0  0  0  0  0
  186.4580  172.3920  136.4960 C   0  0  0  0  0  1  0  0  0  0  0  0
  1  6  2  0  0  0  0
  1  4  1  0  0  0  0
  2  3  2  0  0  0  0
  3 13  1  0  0  0  0
  4  5  2  0  0  0  0
  5  3  1  0  0  0  0
  6  2  1  0  0  0  0
  9 14  1  0  0  0  0
 10  9  2  0  0  0  0
 10 15  1  0  0  0  0
 11 17  1  0  0  0  0
 11  8  1  0  0  0  0
 12  7  2  0  0  0  0
 13 20  1  0  0  0  0
 14 18  2  0  0  0  0
 14 17  1  0  0  0  0
 15 11  2  0  0  0  0
 16  7  1  0  0  0  0
 17 16  2  0  0  0  0
 18 12  1  0  0  0  0
 19 13  2  0  0  0  0
 19 10  1  0  0  0  0
 20 15  1  0  0  0  0
 21 22  1  0  0  0  0
 22  4  1  0  0  0  0
 22 23  2  0  0  0  0
 24  6  1  0  0  0  0
 26 25  1  6  0  0  0
 26 27  1  0  0  0  0
 26 24  1  0  0  0  0
 28 31  1  0  0  0  0
 28 27  1  0  0  0  0
 29 34  1  0  0  0  0
 30 34  2  0  0  0  0
 30 41  1  0  0  0  0
 31 29  2  0  0  0  0
 32 30  1  0  0  0  0
 33 31  1  0  0  0  0
 33 32  2  0  0  0  0
 36 39  1  1  0  0  0
 36 35  1  0  0  0  0
 38 37  1  1  0  0  0
 38 41  1  0  0  0  0
 38 42  1  0  0  0  0
 40 36  1  0  0  0  0
 41 40  1  0  0  0  0
 42 43  1  0  0  0  0
 43 35  1  0  0  0  0
 44 33  1  0  0  0  0
 45 44  1  0  0  0  0
M  END
>  <MODEL>
8

>  <REMARK>
 VINA RESULT:      -8.9      1.873      2.875
  Name = 
  9 active torsions:
  status: ('A' for Active; 'I' for Inactive)
    1  A    between atoms: N_7  and  C_31
    2  A    between atoms: N_7  and  C_43
    3  A    between atoms: N_9  and  C_23
    4  A    between atoms: N_9  and  C_26
    5  A    between atoms: C_11  and  C_16
    6  A    between atoms: C_18  and  C_34
    7  A    between atoms: C_20  and  N_38
    8  A    between atoms: O_22  and  C_39
    9  A    between atoms: C_26  and  C_43
                            x       y       z     vdW  Elec       q    Type
                         _______ _______ _______ _____ _____    ______ ____

>  <TORSDO>
F 9

$$$$
=
 OpenBabel10232408283D

 45 50  0  0  1  0  0  0  0  0999 V2000
  181.7140  178.8420  141.0160 C   0  0  0  0  0  3  0  0  0  0  0  0
  184.0620  178.2770  140.8990 C   0  0  0  0  0  3  0  0  0  0  0  0
  184.1750  178.4130  142.2890 C   0  0  0  0  0  0  0  0  0  0  0  0
  181.8090  178.9850  142.4070 C   0  0  0  0  0  0  0  0  0  0  0  0
  183.0430  178.7670  143.0350 C   0  0  0  0  0  3  0  0  0  0  0  0
  182.8330  178.4890  140.2590 C   0  0  0  0  0  0  0  0  0  0  0  0
  191.5920  176.9080  146.4910 C   0  0  0  0  0  3  0  0  0  0  0  0
  190.0560  177.6260  142.5990 O   0  0  0  0  0  1  0  0  0  0  0  0
  187.4680  177.5340  145.9430 C   0  0  0  0  0  3  0  0  0  0  0  0
  186.9820  177.7640  144.6570 C   0  0  0  0  0  0  0  0  0  0  0  0
  189.2200  177.5940  143.7110 C   0  0  0  0  0  0  0  0  0  0  0  0
  190.7210  176.8820  147.5850 C   0  0  0  0  0  3  0  0  0  0  0  0
  185.4660  178.1750  142.9550 C   0  0  0  0  0  0  0  0  0  0  0  0
  188.8460  177.3300  146.1210 C   0  0  0  0  0  0  0  0  0  0  0  0
  187.8460  177.7920  143.5720 C   0  0  0  0  0  0  0  0  0  0  0  0
  191.0990  177.1450  145.2040 C   0  0  0  0  0  3  0  0  0  0  0  0
  189.7300  177.3590  145.0020 C   0  0  0  0  0  0  0  0  0  0  0  0
  189.3520  177.0930  147.4010 C   0  0  0  0  0  3  0  0  0  0  0  0
  185.6400  177.9780  144.3290 C   0  0  0  0  0  3  0  0  0  0  0  0
  186.9680  178.0830  142.1720 S   0  0  0  0  0  0  0  0  0  0  0  0
  180.0810  180.6680  143.1150 N   0  0  0  0  0  1  0  0  0  0  0  0
  180.6250  179.3550  143.2000 C   0  0  0  0  0  0  0  0  0  0  0  0
  180.0830  178.5120  143.9640 O   0  0  0  0  0  0  0  0  0  0  0  0
  182.7010  178.3480  138.8410 N   0  0  0  0  0  2  0  0  0  0  0  0
  180.6410  177.5980  137.7770 C   0  0  0  0  0  1  0  0  0  0  0  0
  182.0460  177.2120  138.1990 C   0  0  1  0  0  3  0  0  0  0  0  0
  182.8330  176.7980  136.9710 C   0  0  0  0  0  2  0  0  0  0  0  0
  183.5370  175.5510  137.2280 N   0  0  0  0  0  2  0  0  0  0  0  0
  185.1000  174.1980  135.9160 C   0  0  0  0  0  3  0  0  0  0  0  0
  187.4640  174.7340  135.8060 C   0  0  0  0  0  0  0  0  0  0  0  0
  184.8660  175.2900  136.7640 C   0  0  0  0  0  0  0  0  0  0  0  0
  187.2320  175.8270  136.6530 C   0  0  0  0  0  3  0  0  0  0  0  0
  185.9530  176.1200  137.1420 C   0  0  0  0  0  0  0  0  0  0  0  0
  186.3820  173.9210  135.4430 C   0  0  0  0  0  3  0  0  0  0  0  0
  190.9070  176.0730  136.3580 C   0  0  0  0  0  2  0  0  0  0  0  0
  190.2180  176.4750  135.0520 C   0  0  2  0  0  3  0  0  0  0  0  0
  190.0670  172.4450  134.6290 C   0  0  0  0  0  1  0  0  0  0  0  0
  189.5210  173.2720  135.7830 C   0  0  2  0  0  3  0  0  0  0  0  0
  189.3770  177.5620  135.2830 O   0  0  0  0  0  1  0  0  0  0  0  0
  189.4440  175.3500  134.3560 C   0  0  0  0  0  2  0  0  0  0  0  0
  188.7880  174.4520  135.3120 N   0  0  0  0  0  0  0  0  0  0  0  0
  190.6170  173.6350  136.7880 C   0  0  0  0  0  2  0  0  0  0  0  0
  191.5760  174.7070  136.2780 C   0  0  0  0  0  2  0  0  0  0  0  0
  185.8390  177.2330  137.9890 O   0  0  0  0  0  0  0  0  0  0  0  0
  186.5580  178.4490  137.8460 C   0  0  0  0  0  1  0  0  0  0  0  0
  1  4  1  0  0  0  0
  2  3  2  0  0  0  0
  3 13  1  0  0  0  0
  3  5  1  0  0  0  0
  4  5  2  0  0  0  0
  4 22  1  0  0  0  0
  6  2  1  0  0  0  0
  6  1  2  0  0  0  0
  7 12  1  0  0  0  0
  8 11  1  0  0  0  0
  9 14  1  0  0  0  0
 10  9  2  0  0  0  0
 11 17  1  0  0  0  0
 13 19  2  0  0  0  0
 14 18  1  0  0  0  0
 15 11  2  0  0  0  0
 15 10  1  0  0  0  0
 16  7  2  0  0  0  0
 17 16  1  0  0  0  0
 17 14  2  0  0  0  0
 18 12  2  0  0  0  0
 19 10  1  0  0  0  0
 20 13  1  0  0  0  0
 20 15  1  0  0  0  0
 21 22  1  0  0  0  0
 22 23  2  0  0  0  0
 24  6  1  0  0  0  0
 26 25  1  6  0  0  0
 26 24  1  0  0  0  0
 27 28  1  0  0  0  0
 27 26  1  0  0  0  0
 29 31  1  0  0  0  0
 30 32  2  0  0  0  0
 31 33  2  0  0  0  0
 31 28  1  0  0  0  0
 32 33  1  0  0  0  0
 33 44  1  0  0  0  0
 34 30  1  0  0  0  0
 34 29  2  0  0  0  0
 36 39  1  1  0  0  0
 36 35  1  0  0  0  0
 38 37  1  6  0  0  0
 38 42  1  0  0  0  0
 40 36  1  0  0  0  0
 40 41  1  0  0  0  0
 41 38  1  0  0  0  0
 41 30  1  0  0  0  0
 43 35  1  0  0  0  0
 43 42  1  0  0  0  0
 45 44  1  0  0  0  0
M  END
>  <MODEL>
9

>  <REMARK>
 VINA RESULT:      -8.4      1.410      2.012
  Name = 
  9 active torsions:
  status: ('A' for Active; 'I' for Inactive)
    1  A    between atoms: N_7  and  C_31
    2  A    between atoms: N_7  and  C_43
    3  A    between atoms: N_9  and  C_23
    4  A    between atoms: N_9  and  C_26
    5  A    between atoms: C_11  and  C_16
    6  A    between atoms: C_18  and  C_34
    7  A    between atoms: C_20  and  N_38
    8  A    between atoms: O_22  and  C_39
    9  A    between atoms: C_26  and  C_43
                            x       y       z     vdW  Elec       q    Type
                         _______ _______ _______ _____ _____    ______ ____

>  <TORSDO>
F 9

$$$$
