=
 OpenBabel10232408513D

 25 28  0  0  1  0  0  0  0  0999 V2000
  190.8290  178.2910  145.5850 C   0  0  0  0  0  2  0  0  0  0  0  0
  184.3160  178.6170  145.4460 C   0  0  0  0  0  0  0  0  0  0  0  0
  188.2910  177.6240  142.6950 N   0  0  0  0  0  2  0  0  0  0  0  0
  187.0190  177.8470  145.3950 C   0  0  0  0  0  0  0  0  0  0  0  0
  187.0010  178.1090  142.8970 N   0  0  0  0  0  0  0  0  0  0  0  0
  190.9570  175.9220  142.1370 C   0  0  0  0  0  3  0  0  0  0  0  0
  187.5920  178.3570  139.4190 C   0  0  0  0  0  0  0  0  0  0  0  0
  187.6930  178.9330  140.7830 C   0  0  2  0  0  3  0  0  0  0  0  0
  186.3430  178.1430  144.1790 C   0  0  0  0  0  0  0  0  0  0  0  0
  183.0110  178.9840  145.4690 F   0  0  0  0  0  0  0  0  0  0  0  0
  188.4730  177.4590  145.4330 C   0  0  1  0  0  3  0  0  0  0  0  0
  186.3260  177.9660  146.6100 C   0  0  0  0  0  3  0  0  0  0  0  0
  191.5450  178.9000  144.3830 C   0  0  0  0  0  2  0  0  0  0  0  0
  186.5730  178.3900  138.7470 O   0  0  0  0  0  0  0  0  0  0  0  0
  189.0970  177.5620  138.8690 S   0  0  0  0  0  0  0  0  0  0  0  0
  189.3590  178.6840  145.6360 C   0  0  0  0  0  2  0  0  0  0  0  0
  188.6990  178.0510  141.4140 C   0  0  2  0  0  3  0  0  0  0  0  0
  188.7080  176.5070  146.4290 O   0  0  0  0  0  1  0  0  0  0  0  0
  191.1420  178.2460  143.0680 C   0  0  0  0  0  2  0  0  0  0  0  0
  189.4870  177.3370  140.6080 C   0  0  1  0  0  3  0  0  0  0  0  0
  190.2330  176.1340  141.0270 C   0  0  0  0  0  3  0  0  0  0  0  0
  184.9840  178.3430  146.6370 C   0  0  0  0  0  3  0  0  0  0  0  0
  184.9920  178.5240  144.2300 C   0  0  0  0  0  3  0  0  0  0  0  0
  191.2740  176.8340  143.1560 O   0  0  0  0  0  0  0  0  0  0  0  0
  186.4670  178.7290  141.6840 C   0  0  0  0  0  2  0  0  0  0  0  0
  1 16  1  0  0  0  0
  2 10  1  0  0  0  0
  2 22  1  0  0  0  0
  3  5  1  0  0  0  0
  4 11  1  0  0  0  0
  4 12  1  0  0  0  0
  5  9  1  0  0  0  0
  6 24  1  0  0  0  0
  7  8  1  0  0  0  0
  8 17  1  0  0  0  0
  8 25  1  1  0  0  0
  9 23  1  0  0  0  0
  9  4  2  0  0  0  0
 11 16  1  0  0  0  0
 11 18  1  1  0  0  0
 12 22  2  0  0  0  0
 13  1  1  0  0  0  0
 14  7  2  0  0  0  0
 15  7  1  0  0  0  0
 15 20  1  0  0  0  0
 17  3  1  1  0  0  0
 19 24  1  0  0  0  0
 19 13  1  0  0  0  0
 20 21  1  1  0  0  0
 20 17  1  0  0  0  0
 21  6  2  0  0  0  0
 23  2  2  0  0  0  0
 25  5  1  0  0  0  0
M  END
>  <MODEL>
1

>  <REMARK>
 VINA RESULT:      -7.9      0.000      0.000
  Name = 
  0 active torsions:
  status: ('A' for Active; 'I' for Inactive)
                            x       y       z     vdW  Elec       q    Type
                         _______ _______ _______ _____ _____    ______ ____

>  <TORSDO>
F 0

$$$$
=
 OpenBabel10232408513D

 25 28  0  0  1  0  0  0  0  0999 V2000
  184.4780  177.6910  137.8540 C   0  0  0  0  0  2  0  0  0  0  0  0
  184.8170  178.7040  144.2900 C   0  0  0  0  0  0  0  0  0  0  0  0
  187.5470  178.2420  140.2040 N   0  0  0  0  0  2  0  0  0  0  0  0
  184.9140  178.8670  141.4850 C   0  0  0  0  0  0  0  0  0  0  0  0
  187.3010  178.0890  141.5670 N   0  0  0  0  0  0  0  0  0  0  0  0
  188.3350  179.1950  137.2410 C   0  0  0  0  0  3  0  0  0  0  0  0
  190.6230  176.9920  141.0550 C   0  0  0  0  0  0  0  0  0  0  0  0
  189.1660  176.7100  141.0730 C   0  0  2  0  0  3  0  0  0  0  0  0
  186.0690  178.4660  142.2130 C   0  0  0  0  0  0  0  0  0  0  0  0
  184.7710  178.6290  145.6420 F   0  0  0  0  0  0  0  0  0  0  0  0
  184.8980  178.9430  139.9820 C   0  0  1  0  0  3  0  0  0  0  0  0
  183.7300  179.1550  142.1830 C   0  0  0  0  0  3  0  0  0  0  0  0
  185.4960  176.7050  137.2880 C   0  0  0  0  0  2  0  0  0  0  0  0
  191.3160  177.0280  142.0600 O   0  0  0  0  0  0  0  0  0  0  0  0
  191.2650  177.3210  139.4180 S   0  0  0  0  0  0  0  0  0  0  0  0
  184.4080  177.6330  139.3750 C   0  0  0  0  0  2  0  0  0  0  0  0
  188.6930  177.4770  139.9010 C   0  0  2  0  0  3  0  0  0  0  0  0
  184.1130  180.0140  139.5470 O   0  0  0  0  0  1  0  0  0  0  0  0
  186.9350  177.1350  137.5490 C   0  0  0  0  0  2  0  0  0  0  0  0
  189.5960  177.8240  138.9820 C   0  0  1  0  0  3  0  0  0  0  0  0
  189.4060  178.9070  137.9980 C   0  0  0  0  0  3  0  0  0  0  0  0
  183.6820  179.0790  143.5750 C   0  0  0  0  0  3  0  0  0  0  0  0
  185.9960  178.3940  143.6130 C   0  0  0  0  0  3  0  0  0  0  0  0
  187.1370  178.4740  137.1200 O   0  0  0  0  0  0  0  0  0  0  0  0
  188.3800  177.3510  142.2250 C   0  0  0  0  0  2  0  0  0  0  0  0
  1 16  1  0  0  0  0
  2 10  1  0  0  0  0
  3  5  1  0  0  0  0
  4 12  2  0  0  0  0
  4  9  1  0  0  0  0
  5  9  1  0  0  0  0
  5 25  1  0  0  0  0
  6 21  2  0  0  0  0
  7  8  1  0  0  0  0
  7 14  2  0  0  0  0
  8 25  1  1  0  0  0
  9 23  2  0  0  0  0
 11 18  1  1  0  0  0
 11  4  1  0  0  0  0
 12 22  1  0  0  0  0
 13 19  1  0  0  0  0
 13  1  1  0  0  0  0
 15  7  1  0  0  0  0
 16 11  1  0  0  0  0
 17  3  1  1  0  0  0
 17  8  1  0  0  0  0
 20 21  1  1  0  0  0
 20 15  1  0  0  0  0
 20 17  1  0  0  0  0
 22  2  2  0  0  0  0
 23  2  1  0  0  0  0
 24  6  1  0  0  0  0
 24 19  1  0  0  0  0
M  END
>  <MODEL>
2

>  <REMARK>
 VINA RESULT:      -7.8      2.364      5.289
  Name = 
  0 active torsions:
  status: ('A' for Active; 'I' for Inactive)
                            x       y       z     vdW  Elec       q    Type
                         _______ _______ _______ _____ _____    ______ ____

>  <TORSDO>
F 0

$$$$
=
 OpenBabel10232408513D

 25 28  0  0  1  0  0  0  0  0999 V2000
  189.4520  178.0380  146.5370 C   0  0  0  0  0  2  0  0  0  0  0  0
  183.4730  179.0890  144.1500 C   0  0  0  0  0  0  0  0  0  0  0  0
  188.0050  177.5500  142.9450 N   0  0  0  0  0  2  0  0  0  0  0  0
  185.9160  178.0180  145.0380 C   0  0  0  0  0  0  0  0  0  0  0  0
  186.7910  178.1850  142.6890 N   0  0  0  0  0  0  0  0  0  0  0  0
  190.4770  175.5390  143.3410 C   0  0  0  0  0  3  0  0  0  0  0  0
  188.5690  178.2300  139.6320 C   0  0  0  0  0  0  0  0  0  0  0  0
  188.2620  178.8430  140.9480 C   0  0  2  0  0  3  0  0  0  0  0  0
  185.7410  178.3410  143.6630 C   0  0  0  0  0  0  0  0  0  0  0  0
  182.2940  179.6010  143.7210 F   0  0  0  0  0  0  0  0  0  0  0  0
  187.2110  177.4720  145.5760 C   0  0  1  0  0  3  0  0  0  0  0  0
  184.8670  178.2610  145.9380 C   0  0  0  0  0  3  0  0  0  0  0  0
  190.6060  178.5170  145.6590 C   0  0  0  0  0  2  0  0  0  0  0  0
  187.8560  178.3520  138.6490 O   0  0  0  0  0  0  0  0  0  0  0  0
  190.0660  177.2500  139.6350 S   0  0  0  0  0  0  0  0  0  0  0  0
  188.1120  178.5950  146.0770 C   0  0  0  0  0  2  0  0  0  0  0  0
  188.8770  177.8790  141.8860 C   0  0  2  0  0  3  0  0  0  0  0  0
  186.9740  176.5380  146.5890 O   0  0  0  0  0  1  0  0  0  0  0  0
  190.6050  177.8610  144.2840 C   0  0  0  0  0  2  0  0  0  0  0  0
  189.8040  177.0500  141.4010 C   0  0  1  0  0  3  0  0  0  0  0  0
  190.2100  175.7880  142.0490 C   0  0  0  0  0  3  0  0  0  0  0  0
  183.6520  178.7880  145.4980 C   0  0  0  0  0  3  0  0  0  0  0  0
  184.5110  178.8730  143.2440 C   0  0  0  0  0  3  0  0  0  0  0  0
  190.5300  176.4480  144.4090 O   0  0  0  0  0  0  0  0  0  0  0  0
  186.7850  178.8140  141.3680 C   0  0  0  0  0  2  0  0  0  0  0  0
  2 22  1  0  0  0  0
  4 11  1  0  0  0  0
  4 12  1  0  0  0  0
  5  3  1  0  0  0  0
  5  9  1  0  0  0  0
  6 24  1  0  0  0  0
  7 15  1  0  0  0  0
  7  8  1  0  0  0  0
  8 25  1  1  0  0  0
  8 17  1  0  0  0  0
  9  4  2  0  0  0  0
 10  2  1  0  0  0  0
 11 16  1  0  0  0  0
 11 18  1  1  0  0  0
 13  1  1  0  0  0  0
 14  7  2  0  0  0  0
 15 20  1  0  0  0  0
 16  1  1  0  0  0  0
 17  3  1  6  0  0  0
 19 24  1  0  0  0  0
 19 13  1  0  0  0  0
 20 17  1  0  0  0  0
 20 21  1  6  0  0  0
 21  6  2  0  0  0  0
 22 12  2  0  0  0  0
 23  9  1  0  0  0  0
 23  2  2  0  0  0  0
 25  5  1  0  0  0  0
M  END
>  <MODEL>
3

>  <REMARK>
 VINA RESULT:      -7.8      1.088      1.283
  Name = 
  0 active torsions:
  status: ('A' for Active; 'I' for Inactive)
                            x       y       z     vdW  Elec       q    Type
                         _______ _______ _______ _____ _____    ______ ____

>  <TORSDO>
F 0

$$$$
=
 OpenBabel10232408513D

 25 28  0  0  1  0  0  0  0  0999 V2000
  189.6960  177.1210  140.6290 C   0  0  0  0  0  2  0  0  0  0  0  0
  183.7750  178.6980  142.8680 C   0  0  0  0  0  0  0  0  0  0  0  0
  188.4830  178.0780  144.2140 N   0  0  0  0  0  2  0  0  0  0  0  0
  186.4700  178.6280  142.0680 C   0  0  0  0  0  0  0  0  0  0  0  0
  187.1070  178.0260  144.4220 N   0  0  0  0  0  0  0  0  0  0  0  0
  191.5940  178.8270  143.9450 C   0  0  0  0  0  3  0  0  0  0  0  0
  188.5850  177.1190  147.5040 C   0  0  0  0  0  0  0  0  0  0  0  0
  188.0870  176.7410  146.1580 C   0  0  2  0  0  3  0  0  0  0  0  0
  186.1260  178.3710  143.4250 C   0  0  0  0  0  0  0  0  0  0  0  0
  182.4770  178.7360  143.2550 F   0  0  0  0  0  0  0  0  0  0  0  0
  187.8910  178.5750  141.5760 C   0  0  1  0  0  3  0  0  0  0  0  0
  185.4490  178.8930  141.1410 C   0  0  0  0  0  3  0  0  0  0  0  0
  190.4980  176.1630  141.5050 C   0  0  0  0  0  2  0  0  0  0  0  0
  187.8570  177.2880  148.4690 O   0  0  0  0  0  0  0  0  0  0  0  0
  190.3580  177.3510  147.5680 S   0  0  0  0  0  0  0  0  0  0  0  0
  188.2320  177.1870  141.0430 C   0  0  0  0  0  2  0  0  0  0  0  0
  189.0900  177.3710  145.2730 C   0  0  2  0  0  3  0  0  0  0  0  0
  188.1160  179.5490  140.5990 O   0  0  0  0  0  1  0  0  0  0  0  0
  190.7350  176.7100  142.9060 C   0  0  0  0  0  2  0  0  0  0  0  0
  190.2680  177.7000  145.8080 C   0  0  1  0  0  3  0  0  0  0  0  0
  191.2020  178.6790  145.2200 C   0  0  0  0  0  3  0  0  0  0  0  0
  184.1120  178.9330  141.5370 C   0  0  0  0  0  3  0  0  0  0  0  0
  184.7730  178.4130  143.8000 C   0  0  0  0  0  3  0  0  0  0  0  0
  191.2840  178.0190  142.8410 O   0  0  0  0  0  0  0  0  0  0  0  0
  186.7840  177.4220  145.7150 C   0  0  0  0  0  2  0  0  0  0  0  0
  1 16  1  0  0  0  0
  1 13  1  0  0  0  0
  2 10  1  0  0  0  0
  2 23  1  0  0  0  0
  3  5  1  0  0  0  0
  4  9  1  0  0  0  0
  5 25  1  0  0  0  0
  6 21  2  0  0  0  0
  7 15  1  0  0  0  0
  7 14  2  0  0  0  0
  8 25  1  6  0  0  0
  8  7  1  0  0  0  0
  9 23  2  0  0  0  0
  9  5  1  0  0  0  0
 11 18  1  6  0  0  0
 11  4  1  0  0  0  0
 12 22  1  0  0  0  0
 12  4  2  0  0  0  0
 13 19  1  0  0  0  0
 16 11  1  0  0  0  0
 17  3  1  1  0  0  0
 17 20  1  0  0  0  0
 17  8  1  0  0  0  0
 20 21  1  1  0  0  0
 20 15  1  0  0  0  0
 22  2  2  0  0  0  0
 24 19  1  0  0  0  0
 24  6  1  0  0  0  0
M  END
>  <MODEL>
4

>  <REMARK>
 VINA RESULT:      -7.3      2.229      4.884
  Name = 
  0 active torsions:
  status: ('A' for Active; 'I' for Inactive)
                            x       y       z     vdW  Elec       q    Type
                         _______ _______ _______ _____ _____    ______ ____

>  <TORSDO>
F 0

$$$$
=
 OpenBabel10232408513D

 25 28  0  0  1  0  0  0  0  0999 V2000
  191.5460  176.1880  146.5930 C   0  0  0  0  0  2  0  0  0  0  0  0
  190.1580  177.7870  140.4240 C   0  0  0  0  0  0  0  0  0  0  0  0
  188.4570  178.0090  145.0520 N   0  0  0  0  0  2  0  0  0  0  0  0
  190.7680  177.7400  143.1670 C   0  0  0  0  0  0  0  0  0  0  0  0
  188.3120  177.8930  143.6710 N   0  0  0  0  0  0  0  0  0  0  0  0
  188.7760  178.9330  148.1110 C   0  0  0  0  0  3  0  0  0  0  0  0
  185.0300  178.0380  144.9790 C   0  0  0  0  0  0  0  0  0  0  0  0
  186.2320  177.2500  144.6120 C   0  0  2  0  0  3  0  0  0  0  0  0
  189.4140  177.8490  142.7440 C   0  0  0  0  0  0  0  0  0  0  0  0
  189.8640  177.8150  139.1010 F   0  0  0  0  0  0  0  0  0  0  0  0
  191.1520  177.6790  144.6210 C   0  0  1  0  0  3  0  0  0  0  0  0
  191.7820  177.6350  142.2020 C   0  0  0  0  0  3  0  0  0  0  0  0
  190.3920  175.5950  147.3960 C   0  0  0  0  0  2  0  0  0  0  0  0
  184.1920  178.4080  144.1720 O   0  0  0  0  0  0  0  0  0  0  0  0
  184.9480  178.4410  146.7210 S   0  0  0  0  0  0  0  0  0  0  0  0
  191.2430  176.2350  145.1020 C   0  0  0  0  0  2  0  0  0  0  0  0
  187.2100  177.6910  145.6290 C   0  0  2  0  0  3  0  0  0  0  0  0
  192.3570  178.3520  144.8460 O   0  0  0  0  0  1  0  0  0  0  0  0
  189.1990  176.5380  147.4880 C   0  0  0  0  0  2  0  0  0  0  0  0
  186.7350  178.2640  146.7360 C   0  0  1  0  0  3  0  0  0  0  0  0
  187.5340  179.1180  147.6370 C   0  0  0  0  0  3  0  0  0  0  0  0
  191.4810  177.6630  140.8400 C   0  0  0  0  0  3  0  0  0  0  0  0
  189.1350  177.8720  141.3670 C   0  0  0  0  0  3  0  0  0  0  0  0
  189.6130  177.8190  147.9430 O   0  0  0  0  0  0  0  0  0  0  0  0
  186.9170  177.6540  143.2990 C   0  0  0  0  0  2  0  0  0  0  0  0
  1 13  1  0  0  0  0
  2 22  2  0  0  0  0
  2 23  1  0  0  0  0
  4 11  1  0  0  0  0
  5  3  1  0  0  0  0
  7 15  1  0  0  0  0
  8 25  1  6  0  0  0
  8  7  1  0  0  0  0
  8 17  1  0  0  0  0
  9  4  1  0  0  0  0
  9  5  1  0  0  0  0
 10  2  1  0  0  0  0
 11 18  1  6  0  0  0
 11 16  1  0  0  0  0
 12  4  2  0  0  0  0
 13 19  1  0  0  0  0
 14  7  2  0  0  0  0
 15 20  1  0  0  0  0
 16  1  1  0  0  0  0
 17  3  1  6  0  0  0
 17 20  1  0  0  0  0
 19 24  1  0  0  0  0
 20 21  1  6  0  0  0
 21  6  2  0  0  0  0
 22 12  1  0  0  0  0
 23  9  2  0  0  0  0
 24  6  1  0  0  0  0
 25  5  1  0  0  0  0
M  END
>  <MODEL>
5

>  <REMARK>
 VINA RESULT:      -7.3      3.267      5.683
  Name = 
  0 active torsions:
  status: ('A' for Active; 'I' for Inactive)
                            x       y       z     vdW  Elec       q    Type
                         _______ _______ _______ _____ _____    ______ ____

>  <TORSDO>
F 0

$$$$
=
 OpenBabel10232408513D

 25 28  0  0  1  0  0  0  0  0999 V2000
  192.4950  176.9370  141.3130 C   0  0  0  0  0  2  0  0  0  0  0  0
  186.8710  177.8670  144.4850 C   0  0  0  0  0  0  0  0  0  0  0  0
  188.8030  176.9150  140.0440 N   0  0  0  0  0  2  0  0  0  0  0  0
  189.0580  176.8710  143.0270 C   0  0  0  0  0  0  0  0  0  0  0  0
  187.8640  177.4810  140.9030 N   0  0  0  0  0  0  0  0  0  0  0  0
  190.5730  175.0740  138.0970 C   0  0  0  0  0  3  0  0  0  0  0  0
  186.7130  178.1600  137.6290 C   0  0  0  0  0  0  0  0  0  0  0  0
  187.5510  178.5270  138.7970 C   0  0  2  0  0  3  0  0  0  0  0  0
  187.9270  177.3940  142.3400 C   0  0  0  0  0  0  0  0  0  0  0  0
  185.8140  178.3440  145.1870 F   0  0  0  0  0  0  0  0  0  0  0  0
  190.2700  176.3520  142.3010 C   0  0  1  0  0  3  0  0  0  0  0  0
  189.0720  176.8810  144.4310 C   0  0  0  0  0  3  0  0  0  0  0  0
  192.6150  177.6420  139.9650 C   0  0  0  0  0  2  0  0  0  0  0  0
  185.5140  178.3790  137.5630 O   0  0  0  0  0  0  0  0  0  0  0  0
  187.6220  177.3170  136.3390 S   0  0  0  0  0  0  0  0  0  0  0  0
  191.3130  177.4500  142.1250 C   0  0  0  0  0  2  0  0  0  0  0  0
  188.5930  177.4780  138.7690 C   0  0  2  0  0  3  0  0  0  0  0  0
  190.8170  175.2520  142.9680 O   0  0  0  0  0  1  0  0  0  0  0  0
  191.5300  177.2170  138.9840 C   0  0  0  0  0  2  0  0  0  0  0  0
  188.7720  176.8160  137.6240 C   0  0  1  0  0  3  0  0  0  0  0  0
  189.4390  175.5040  137.5200 C   0  0  0  0  0  3  0  0  0  0  0  0
  187.9860  177.3700  145.1560 C   0  0  0  0  0  3  0  0  0  0  0  0
  186.8460  177.8850  143.0910 C   0  0  0  0  0  3  0  0  0  0  0  0
  191.4770  175.8020  138.8850 O   0  0  0  0  0  0  0  0  0  0  0  0
  186.9040  178.3110  140.1730 C   0  0  0  0  0  2  0  0  0  0  0  0
  1 16  1  0  0  0  0
  2 22  1  0  0  0  0
  2 10  1  0  0  0  0
  3  5  1  0  0  0  0
  4 12  1  0  0  0  0
  5  9  1  0  0  0  0
  6 24  1  0  0  0  0
  7  8  1  0  0  0  0
  8 25  1  1  0  0  0
  9  4  2  0  0  0  0
  9 23  1  0  0  0  0
 11 18  1  1  0  0  0
 11  4  1  0  0  0  0
 12 22  2  0  0  0  0
 13  1  1  0  0  0  0
 14  7  2  0  0  0  0
 15 20  1  0  0  0  0
 15  7  1  0  0  0  0
 16 11  1  0  0  0  0
 17  8  1  0  0  0  0
 17  3  1  1  0  0  0
 19 13  1  0  0  0  0
 20 21  1  1  0  0  0
 20 17  1  0  0  0  0
 21  6  2  0  0  0  0
 23  2  2  0  0  0  0
 24 19  1  0  0  0  0
 25  5  1  0  0  0  0
M  END
>  <MODEL>
6

>  <REMARK>
 VINA RESULT:      -6.6      2.212      3.340
  Name = 
  0 active torsions:
  status: ('A' for Active; 'I' for Inactive)
                            x       y       z     vdW  Elec       q    Type
                         _______ _______ _______ _____ _____    ______ ____

>  <TORSDO>
F 0

$$$$
=
 OpenBabel10232408513D

 25 28  0  0  1  0  0  0  0  0999 V2000
  189.2820  176.3730  137.1230 C   0  0  0  0  0  2  0  0  0  0  0  0
  184.4010  179.0210  140.5470 C   0  0  0  0  0  0  0  0  0  0  0  0
  189.1070  177.5610  140.8380 N   0  0  0  0  0  2  0  0  0  0  0  0
  186.7860  178.4540  139.1710 C   0  0  0  0  0  0  0  0  0  0  0  0
  187.8270  177.7620  141.3500 N   0  0  0  0  0  0  0  0  0  0  0  0
  192.1570  177.7270  139.8450 C   0  0  0  0  0  3  0  0  0  0  0  0
  189.7860  176.6220  144.0640 C   0  0  0  0  0  0  0  0  0  0  0  0
  188.9360  176.3320  142.8830 C   0  0  2  0  0  3  0  0  0  0  0  0
  186.7210  178.2740  140.5810 C   0  0  0  0  0  0  0  0  0  0  0  0
  183.2530  179.2980  141.2120 F   0  0  0  0  0  0  0  0  0  0  0  0
  188.0250  178.1380  138.3770 C   0  0  1  0  0  3  0  0  0  0  0  0
  185.6440  178.8940  138.4830 C   0  0  0  0  0  3  0  0  0  0  0  0
  190.0800  175.2900  137.8430 C   0  0  0  0  0  2  0  0  0  0  0  0
  189.3390  176.9280  145.1580 O   0  0  0  0  0  0  0  0  0  0  0  0
  191.5390  176.5270  143.7200 S   0  0  0  0  0  0  0  0  0  0  0  0
  187.9860  176.7080  137.8490 C   0  0  0  0  0  2  0  0  0  0  0  0
  189.8050  176.7620  141.7670 C   0  0  2  0  0  3  0  0  0  0  0  0
  188.1890  179.0480  137.3290 O   0  0  0  0  0  1  0  0  0  0  0  0
  190.7240  175.7950  139.1280 C   0  0  0  0  0  2  0  0  0  0  0  0
  191.1130  176.8740  142.0090 C   0  0  1  0  0  3  0  0  0  0  0  0
  192.0460  177.6620  141.1820 C   0  0  0  0  0  3  0  0  0  0  0  0
  184.4610  179.1800  139.1650 C   0  0  0  0  0  3  0  0  0  0  0  0
  185.5180  178.5650  141.2460 C   0  0  0  0  0  3  0  0  0  0  0  0
  191.4650  176.9810  138.8790 O   0  0  0  0  0  0  0  0  0  0  0  0
  187.7070  177.2360  142.7100 C   0  0  0  0  0  2  0  0  0  0  0  0
  1 13  1  0  0  0  0
  1 16  1  0  0  0  0
  2 10  1  0  0  0  0
  2 23  1  0  0  0  0
  3  5  1  0  0  0  0
  4  9  1  0  0  0  0
  5 25  1  0  0  0  0
  6 21  2  0  0  0  0
  7 14  2  0  0  0  0
  8 25  1  1  0  0  0
  8  7  1  0  0  0  0
  9 23  2  0  0  0  0
  9  5  1  0  0  0  0
 11 18  1  6  0  0  0
 11  4  1  0  0  0  0
 12 22  1  0  0  0  0
 12  4  2  0  0  0  0
 13 19  1  0  0  0  0
 15  7  1  0  0  0  0
 16 11  1  0  0  0  0
 17  3  1  1  0  0  0
 17 20  1  0  0  0  0
 17  8  1  0  0  0  0
 20 21  1  1  0  0  0
 20 15  1  0  0  0  0
 22  2  2  0  0  0  0
 24 19  1  0  0  0  0
 24  6  1  0  0  0  0
M  END
>  <MODEL>
7

>  <REMARK>
 VINA RESULT:      -6.5      2.763      5.547
  Name = 
  0 active torsions:
  status: ('A' for Active; 'I' for Inactive)
                            x       y       z     vdW  Elec       q    Type
                         _______ _______ _______ _____ _____    ______ ____

>  <TORSDO>
F 0

$$$$
=
 OpenBabel10232408513D

 25 28  0  0  1  0  0  0  0  0999 V2000
  188.3590  177.1350  143.7540 C   0  0  0  0  0  2  0  0  0  0  0  0
  187.6490  178.2330  137.3630 C   0  0  0  0  0  0  0  0  0  0  0  0
  185.3980  178.6810  141.7330 N   0  0  0  0  0  2  0  0  0  0  0  0
  187.9280  178.4050  140.1560 C   0  0  0  0  0  0  0  0  0  0  0  0
  185.4250  178.4630  140.3580 N   0  0  0  0  0  0  0  0  0  0  0  0
  185.3080  179.8270  144.7320 C   0  0  0  0  0  3  0  0  0  0  0  0
  182.0060  178.5240  141.2610 C   0  0  0  0  0  0  0  0  0  0  0  0
  183.2780  177.7760  141.0960 C   0  0  2  0  0  3  0  0  0  0  0  0
  186.6310  178.4130  139.5710 C   0  0  0  0  0  0  0  0  0  0  0  0
  187.5140  178.1540  136.0170 F   0  0  0  0  0  0  0  0  0  0  0  0
  188.1380  178.4640  141.6440 C   0  0  1  0  0  3  0  0  0  0  0  0
  189.0530  178.2890  139.3250 C   0  0  0  0  0  3  0  0  0  0  0  0
  187.1440  176.5380  144.4590 C   0  0  0  0  0  2  0  0  0  0  0  0
  181.2560  178.7930  140.3370 O   0  0  0  0  0  0  0  0  0  0  0  0
  181.6990  179.0390  142.9470 S   0  0  0  0  0  0  0  0  0  0  0  0
  188.2340  177.0630  142.2380 C   0  0  0  0  0  2  0  0  0  0  0  0
  184.1070  178.3370  142.1840 C   0  0  2  0  0  3  0  0  0  0  0  0
  189.2760  179.2140  141.9570 O   0  0  0  0  0  1  0  0  0  0  0  0
  185.9080  177.4210  144.3420 C   0  0  0  0  0  2  0  0  0  0  0  0
  183.4780  178.9590  143.1830 C   0  0  1  0  0  3  0  0  0  0  0  0
  184.1240  179.9130  144.1050 C   0  0  0  0  0  3  0  0  0  0  0  0
  188.9170  178.2080  137.9390 C   0  0  0  0  0  3  0  0  0  0  0  0
  186.5180  178.3280  138.1730 C   0  0  0  0  0  3  0  0  0  0  0  0
  186.2070  178.7500  144.7460 O   0  0  0  0  0  0  0  0  0  0  0  0
  184.0960  178.1260  139.8450 C   0  0  0  0  0  2  0  0  0  0  0  0
  1 13  1  0  0  0  0
  2 22  2  0  0  0  0
  2 23  1  0  0  0  0
  4 11  1  0  0  0  0
  5  3  1  0  0  0  0
  6 24  1  0  0  0  0
  7 15  1  0  0  0  0
  8 25  1  6  0  0  0
  8  7  1  0  0  0  0
  8 17  1  0  0  0  0
  9  4  1  0  0  0  0
  9  5  1  0  0  0  0
 10  2  1  0  0  0  0
 11 18  1  6  0  0  0
 11 16  1  0  0  0  0
 12  4  2  0  0  0  0
 14  7  2  0  0  0  0
 15 20  1  0  0  0  0
 16  1  1  0  0  0  0
 17  3  1  6  0  0  0
 17 20  1  0  0  0  0
 19 13  1  0  0  0  0
 19 24  1  0  0  0  0
 20 21  1  6  0  0  0
 21  6  2  0  0  0  0
 22 12  1  0  0  0  0
 23  9  2  0  0  0  0
 25  5  1  0  0  0  0
M  END
>  <MODEL>
8

>  <REMARK>
 VINA RESULT:      -6.1      3.625      6.179
  Name = 
  0 active torsions:
  status: ('A' for Active; 'I' for Inactive)
                            x       y       z     vdW  Elec       q    Type
                         _______ _______ _______ _____ _____    ______ ____

>  <TORSDO>
F 0

$$$$
=
 OpenBabel10232408513D

 25 28  0  0  1  0  0  0  0  0999 V2000
  189.6400  178.1850  137.2800 C   0  0  0  0  0  2  0  0  0  0  0  0
  189.2820  177.8670  143.7860 C   0  0  0  0  0  0  0  0  0  0  0  0
  186.5780  177.7340  139.6600 N   0  0  0  0  0  2  0  0  0  0  0  0
  189.2250  177.3930  141.0160 C   0  0  0  0  0  0  0  0  0  0  0  0
  186.8000  178.0470  140.9990 N   0  0  0  0  0  0  0  0  0  0  0  0
  185.8740  176.4220  136.8150 C   0  0  0  0  0  3  0  0  0  0  0  0
  183.4310  178.9050  140.3510 C   0  0  0  0  0  0  0  0  0  0  0  0
  184.8710  179.2630  140.3460 C   0  0  2  0  0  3  0  0  0  0  0  0
  188.0420  177.8090  141.6890 C   0  0  0  0  0  0  0  0  0  0  0  0
  189.3080  178.0920  145.1220 F   0  0  0  0  0  0  0  0  0  0  0  0
  189.2620  177.1540  139.5310 C   0  0  1  0  0  3  0  0  0  0  0  0
  190.4140  177.2460  141.7480 C   0  0  0  0  0  3  0  0  0  0  0  0
  188.5780  179.0480  136.6040 C   0  0  0  0  0  2  0  0  0  0  0  0
  182.7300  178.9420  141.3500 O   0  0  0  0  0  0  0  0  0  0  0  0
  182.8260  178.3650  138.7560 S   0  0  0  0  0  0  0  0  0  0  0  0
  189.6900  178.4130  138.7850 C   0  0  0  0  0  2  0  0  0  0  0  0
  185.3970  178.3990  139.2680 C   0  0  2  0  0  3  0  0  0  0  0  0
  190.1070  176.0840  139.2200 O   0  0  0  0  0  1  0  0  0  0  0  0
  187.1620  178.5740  136.9020 C   0  0  0  0  0  2  0  0  0  0  0  0
  184.5230  177.9060  138.3880 C   0  0  1  0  0  3  0  0  0  0  0  0
  184.7810  176.7340  137.5300 C   0  0  0  0  0  3  0  0  0  0  0  0
  190.4430  177.4770  143.1230 C   0  0  0  0  0  3  0  0  0  0  0  0
  188.0960  178.0380  143.0730 C   0  0  0  0  0  3  0  0  0  0  0  0
  187.0340  177.1870  136.6220 O   0  0  0  0  0  0  0  0  0  0  0  0
  185.6770  178.7960  141.5660 C   0  0  0  0  0  2  0  0  0  0  0  0
  1 16  1  0  0  0  0
  2 10  1  0  0  0  0
  3  5  1  0  0  0  0
  4  9  2  0  0  0  0
  4 12  1  0  0  0  0
  5 25  1  0  0  0  0
  5  9  1  0  0  0  0
  6 21  2  0  0  0  0
  7 14  2  0  0  0  0
  8  7  1  0  0  0  0
  8 25  1  1  0  0  0
  9 23  1  0  0  0  0
 11 18  1  1  0  0  0
 11  4  1  0  0  0  0
 12 22  2  0  0  0  0
 13 19  1  0  0  0  0
 13  1  1  0  0  0  0
 15  7  1  0  0  0  0
 16 11  1  0  0  0  0
 17  3  1  1  0  0  0
 17  8  1  0  0  0  0
 20 21  1  1  0  0  0
 20 15  1  0  0  0  0
 20 17  1  0  0  0  0
 22  2  1  0  0  0  0
 23  2  2  0  0  0  0
 24  6  1  0  0  0  0
 24 19  1  0  0  0  0
M  END
>  <MODEL>
9

>  <REMARK>
 VINA RESULT:      -6.1      3.299      5.781
  Name = 
  0 active torsions:
  status: ('A' for Active; 'I' for Inactive)
                            x       y       z     vdW  Elec       q    Type
                         _______ _______ _______ _____ _____    ______ ____

>  <TORSDO>
F 0

$$$$
