=
 OpenBabel10232411453D

 27 29  0  0  1  0  0  0  0  0999 V2000
  184.7550  178.6730  144.1660 C   0  0  0  0  0  0  0  0  0  0  0  0
  185.7080  178.0010  141.9140 C   0  0  2  0  0  3  0  0  0  0  0  0
  184.4550  178.6340  146.5250 N   0  0  0  0  0  0  0  0  0  0  0  0
  188.5250  178.0230  141.4160 C   0  0  0  0  0  3  0  0  0  0  0  0
  186.0480  178.2200  144.3230 C   0  0  0  0  0  0  0  0  0  0  0  0
  186.5650  177.9760  145.5970 C   0  0  0  0  0  3  0  0  0  0  0  0
  185.7350  178.1970  146.7030 C   0  0  0  0  0  3  0  0  0  0  0  0
  186.2900  178.5020  140.6620 N   0  0  0  0  0  0  0  0  0  0  0  0
  184.2500  178.9690  142.4760 S   0  0  0  0  0  0  0  0  0  0  0  0
  188.0330  177.9440  142.8050 C   0  0  0  0  0  0  0  0  0  0  0  0
  183.9450  178.8760  145.2840 C   0  0  0  0  0  3  0  0  0  0  0  0
  187.6900  178.3050  140.4120 C   0  0  0  0  0  3  0  0  0  0  0  0
  186.7080  178.0120  143.0390 C   0  0  0  0  0  0  0  0  0  0  0  0
  189.0430  177.8830  143.9050 C   0  0  0  0  0  2  0  0  0  0  0  0
  190.2510  178.5940  143.5150 N   0  0  0  0  0  2  0  0  0  0  0  0
  191.3320  178.1230  144.3650 C   0  0  0  0  0  2  0  0  0  0  0  0
  190.9580  176.7860  144.9810 C   0  0  0  0  0  2  0  0  0  0  0  0
  191.3640  176.7470  146.4470 C   0  0  1  0  0  3  0  0  0  0  0  0
  190.1460  176.5220  147.3420 C   0  0  0  0  0  2  0  0  0  0  0  0
  189.4800  177.8310  147.7430 C   0  0  0  0  0  1  0  0  0  0  0  0
  192.5570  175.7730  148.0420 C   0  0  0  0  0  1  0  0  0  0  0  0
  192.3240  175.7530  146.6660 O   0  0  0  0  0  0  0  0  0  0  0  0
  185.4290  178.8080  139.5280 C   0  0  0  0  0  2  0  0  0  0  0  0
  186.6500  177.8030  136.0510 N   0  0  0  0  0  1  0  0  0  0  0  0
  185.9090  177.7730  137.2640 C   0  0  0  0  0  0  0  0  0  0  0  0
  186.1850  178.7340  138.2840 N   0  0  0  0  0  2  0  0  0  0  0  0
  185.0230  176.8940  137.4320 O   0  0  0  0  0  0  0  0  0  0  0  0
  1  5  2  0  0  0  0
  1 11  1  0  0  0  0
  2  9  1  1  0  0  0
  2 13  1  0  0  0  0
  3  7  1  0  0  0  0
  4 10  1  0  0  0  0
  5  6  1  0  0  0  0
  6  7  2  0  0  0  0
  8  2  1  0  0  0  0
  9  1  1  0  0  0  0
 10 13  2  0  0  0  0
 10 14  1  0  0  0  0
 11  3  2  0  0  0  0
 12  8  1  0  0  0  0
 12  4  2  0  0  0  0
 13  5  1  0  0  0  0
 15 14  1  0  0  0  0
 15 16  1  0  0  0  0
 16 17  1  0  0  0  0
 18 17  1  6  0  0  0
 18 22  1  0  0  0  0
 18 19  1  0  0  0  0
 19 20  1  0  0  0  0
 22 21  1  0  0  0  0
 23  8  1  0  0  0  0
 24 25  1  0  0  0  0
 25 27  2  0  0  0  0
 25 26  1  0  0  0  0
 26 23  1  0  0  0  0
M  END
>  <MODEL>
1

>  <REMARK>
 VINA RESULT:      -7.5      0.000      0.000
  Name = 
  9 active torsions:
  status: ('A' for Active; 'I' for Inactive)
    1  A    between atoms: C_4  and  C_26
    2  A    between atoms: C_8  and  C_13
    3  A    between atoms: C_8  and  C_26
    4  A    between atoms: C_10  and  C_16
    5  A    between atoms: C_10  and  N_17
    6  A    between atoms: C_13  and  N_17
    7  A    between atoms: N_14  and  C_22
    8  A    between atoms: N_21  and  C_22
    9  A    between atoms: C_26  and  O_27
                            x       y       z     vdW  Elec       q    Type
                         _______ _______ _______ _____ _____    ______ ____

>  <TORSDO>
F 9

$$$$
=
 OpenBabel10232411453D

 27 29  0  0  1  0  0  0  0  0999 V2000
  187.0340  178.2620  146.9280 C   0  0  0  0  0  0  0  0  0  0  0  0
  185.2710  178.1100  145.1110 C   0  0  2  0  0  3  0  0  0  0  0  0
  188.9320  177.6160  148.2070 N   0  0  0  0  0  0  0  0  0  0  0  0
  185.9860  177.8710  142.3510 C   0  0  0  0  0  3  0  0  0  0  0  0
  187.5500  177.6060  145.8300 C   0  0  0  0  0  0  0  0  0  0  0  0
  188.7800  176.9480  145.9100 C   0  0  0  0  0  3  0  0  0  0  0  0
  189.4660  176.9700  147.1310 C   0  0  0  0  0  3  0  0  0  0  0  0
  184.5830  178.8500  144.0440 N   0  0  0  0  0  0  0  0  0  0  0  0
  185.4680  179.0820  146.6590 S   0  0  0  0  0  0  0  0  0  0  0  0
  186.9580  177.4820  143.3900 C   0  0  0  0  0  0  0  0  0  0  0  0
  187.7330  178.2610  148.1350 C   0  0  0  0  0  3  0  0  0  0  0  0
  184.8720  178.5340  142.6740 C   0  0  0  0  0  3  0  0  0  0  0  0
  186.6460  177.6690  144.6870 C   0  0  0  0  0  0  0  0  0  0  0  0
  188.2940  176.9760  142.9470 C   0  0  0  0  0  2  0  0  0  0  0  0
  188.6620  177.5840  141.6770 N   0  0  0  0  0  2  0  0  0  0  0  0
  189.9080  176.9730  141.2430 C   0  0  0  0  0  2  0  0  0  0  0  0
  191.0840  177.8180  141.7030 C   0  0  0  0  0  2  0  0  0  0  0  0
  191.8180  177.1270  142.8420 C   0  0  1  0  0  3  0  0  0  0  0  0
  191.7130  177.9420  144.1300 C   0  0  0  0  0  2  0  0  0  0  0  0
  191.0520  179.2940  143.9000 C   0  0  0  0  0  1  0  0  0  0  0  0
  191.8570  175.4210  144.2570 C   0  0  0  0  0  1  0  0  0  0  0  0
  191.3190  175.8340  143.0370 O   0  0  0  0  0  0  0  0  0  0  0  0
  183.3550  179.5770  144.3350 C   0  0  0  0  0  2  0  0  0  0  0  0
  179.9820  177.9660  143.5500 N   0  0  0  0  0  1  0  0  0  0  0  0
  181.0280  178.9290  143.5660 C   0  0  0  0  0  0  0  0  0  0  0  0
  182.2140  178.6690  144.3170 N   0  0  0  0  0  2  0  0  0  0  0  0
  180.8950  180.0050  142.9270 O   0  0  0  0  0  0  0  0  0  0  0  0
  1 11  1  0  0  0  0
  2 13  1  6  0  0  0
  2  9  1  0  0  0  0
  4 12  2  0  0  0  0
  4 10  1  0  0  0  0
  5  6  1  0  0  0  0
  5  1  2  0  0  0  0
  6  7  2  0  0  0  0
  7  3  1  0  0  0  0
  8 23  1  0  0  0  0
  8  2  1  0  0  0  0
  9  1  1  0  0  0  0
 10 13  2  0  0  0  0
 11  3  2  0  0  0  0
 12  8  1  0  0  0  0
 13  5  1  0  0  0  0
 14 10  1  0  0  0  0
 15 14  1  0  0  0  0
 16 15  1  0  0  0  0
 16 17  1  0  0  0  0
 18 17  1  6  0  0  0
 18 22  1  0  0  0  0
 18 19  1  0  0  0  0
 20 19  1  0  0  0  0
 22 21  1  0  0  0  0
 24 25  1  0  0  0  0
 25 26  1  0  0  0  0
 26 23  1  0  0  0  0
 27 25  2  0  0  0  0
M  END
>  <MODEL>
2

>  <REMARK>
 VINA RESULT:      -7.5      2.993      4.590
  Name = 
  9 active torsions:
  status: ('A' for Active; 'I' for Inactive)
    1  A    between atoms: C_4  and  C_26
    2  A    between atoms: C_8  and  C_13
    3  A    between atoms: C_8  and  C_26
    4  A    between atoms: C_10  and  C_16
    5  A    between atoms: C_10  and  N_17
    6  A    between atoms: C_13  and  N_17
    7  A    between atoms: N_14  and  C_22
    8  A    between atoms: N_21  and  C_22
    9  A    between atoms: C_26  and  O_27
                            x       y       z     vdW  Elec       q    Type
                         _______ _______ _______ _____ _____    ______ ____

>  <TORSDO>
F 9

$$$$
=
 OpenBabel10232411453D

 27 29  0  0  1  0  0  0  0  0999 V2000
  190.9390  176.9390  145.0210 C   0  0  0  0  0  0  0  0  0  0  0  0
  190.0140  177.9480  142.8850 C   0  0  2  0  0  3  0  0  0  0  0  0
  191.1580  176.5660  147.3590 N   0  0  0  0  0  0  0  0  0  0  0  0
  187.2240  177.8370  142.2660 C   0  0  0  0  0  3  0  0  0  0  0  0
  189.6120  177.2720  145.1980 C   0  0  0  0  0  0  0  0  0  0  0  0
  189.0380  177.2460  146.4710 C   0  0  0  0  0  3  0  0  0  0  0  0
  189.8450  176.8810  147.5550 C   0  0  0  0  0  3  0  0  0  0  0  0
  189.5100  177.6480  141.5390 N   0  0  0  0  0  0  0  0  0  0  0  0
  191.5190  176.9880  143.3290 S   0  0  0  0  0  0  0  0  0  0  0  0
  187.6640  177.6930  143.6660 C   0  0  0  0  0  0  0  0  0  0  0  0
  191.7240  176.5870  146.1190 C   0  0  0  0  0  3  0  0  0  0  0  0
  188.1090  177.7970  141.2660 C   0  0  0  0  0  3  0  0  0  0  0  0
  188.9820  177.6680  143.9440 C   0  0  0  0  0  0  0  0  0  0  0  0
  186.6160  177.4880  144.7140 C   0  0  0  0  0  2  0  0  0  0  0  0
  186.0350  178.7670  145.0960 N   0  0  0  0  0  2  0  0  0  0  0  0
  184.6160  178.5520  145.3280 C   0  0  0  0  0  2  0  0  0  0  0  0
  183.8030  179.4880  144.4510 C   0  0  0  0  0  2  0  0  0  0  0  0
  183.2500  178.7380  143.2470 C   0  0  1  0  0  3  0  0  0  0  0  0
  181.8080  179.1540  142.9640 C   0  0  0  0  0  2  0  0  0  0  0  0
  180.8300  178.5510  143.9630 C   0  0  0  0  0  1  0  0  0  0  0  0
  183.5840  178.0510  141.1660 C   0  0  0  0  0  1  0  0  0  0  0  0
  184.0540  178.9530  142.1220 O   0  0  0  0  0  0  0  0  0  0  0  0
  190.4280  177.6090  140.4080 C   0  0  0  0  0  2  0  0  0  0  0  0
  190.8400  174.6840  137.9860 N   0  0  0  0  0  1  0  0  0  0  0  0
  190.7600  176.0230  138.4580 C   0  0  0  0  0  0  0  0  0  0  0  0
  190.4670  176.2700  139.8340 N   0  0  0  0  0  2  0  0  0  0  0  0
  190.9380  176.9790  137.6580 O   0  0  0  0  0  0  0  0  0  0  0  0
  1  5  2  0  0  0  0
  1 11  1  0  0  0  0
  2  9  1  1  0  0  0
  2 13  1  0  0  0  0
  3  7  1  0  0  0  0
  4 10  1  0  0  0  0
  5  6  1  0  0  0  0
  6  7  2  0  0  0  0
  8  2  1  0  0  0  0
  9  1  1  0  0  0  0
 10 13  2  0  0  0  0
 10 14  1  0  0  0  0
 11  3  2  0  0  0  0
 12  8  1  0  0  0  0
 12  4  2  0  0  0  0
 13  5  1  0  0  0  0
 14 15  1  0  0  0  0
 15 16  1  0  0  0  0
 17 16  1  0  0  0  0
 18 19  1  6  0  0  0
 18 17  1  0  0  0  0
 19 20  1  0  0  0  0
 21 22  1  0  0  0  0
 22 18  1  0  0  0  0
 23  8  1  0  0  0  0
 24 25  1  0  0  0  0
 25 26  1  0  0  0  0
 26 23  1  0  0  0  0
 27 25  2  0  0  0  0
M  END
>  <MODEL>
3

>  <REMARK>
 VINA RESULT:      -7.5      3.299      6.315
  Name = 
  9 active torsions:
  status: ('A' for Active; 'I' for Inactive)
    1  A    between atoms: C_4  and  C_26
    2  A    between atoms: C_8  and  C_13
    3  A    between atoms: C_8  and  C_26
    4  A    between atoms: C_10  and  C_16
    5  A    between atoms: C_10  and  N_17
    6  A    between atoms: C_13  and  N_17
    7  A    between atoms: N_14  and  C_22
    8  A    between atoms: N_21  and  C_22
    9  A    between atoms: C_26  and  O_27
                            x       y       z     vdW  Elec       q    Type
                         _______ _______ _______ _____ _____    ______ ____

>  <TORSDO>
F 9

$$$$
=
 OpenBabel10232411453D

 27 29  0  0  1  0  0  0  0  0999 V2000
  187.2140  178.1370  147.1710 C   0  0  0  0  0  0  0  0  0  0  0  0
  185.5480  177.8100  145.2860 C   0  0  2  0  0  3  0  0  0  0  0  0
  189.1920  177.7810  148.4400 N   0  0  0  0  0  0  0  0  0  0  0  0
  186.3290  178.0480  142.5440 C   0  0  0  0  0  3  0  0  0  0  0  0
  187.8740  177.7380  146.0280 C   0  0  0  0  0  0  0  0  0  0  0  0
  189.2190  177.3620  146.0800 C   0  0  0  0  0  3  0  0  0  0  0  0
  189.8690  177.3940  147.3200 C   0  0  0  0  0  3  0  0  0  0  0  0
  184.7250  178.4970  144.2820 N   0  0  0  0  0  0  0  0  0  0  0  0
  185.5070  178.6180  146.9370 S   0  0  0  0  0  0  0  0  0  0  0  0
  187.3520  177.7660  143.5690 C   0  0  0  0  0  0  0  0  0  0  0  0
  187.8810  178.1510  148.3950 C   0  0  0  0  0  3  0  0  0  0  0  0
  185.0920  178.4090  142.8970 C   0  0  0  0  0  3  0  0  0  0  0  0
  186.9920  177.7320  144.8670 C   0  0  0  0  0  0  0  0  0  0  0  0
  188.7710  177.6190  143.1230 C   0  0  0  0  0  2  0  0  0  0  0  0
  189.0430  176.2340  142.7680 N   0  0  0  0  0  2  0  0  0  0  0  0
  190.3710  176.1850  142.1780 C   0  0  0  0  0  2  0  0  0  0  0  0
  190.5300  177.3130  141.1740 C   0  0  0  0  0  2  0  0  0  0  0  0
  190.6750  176.7520  139.7660 C   0  0  1  0  0  3  0  0  0  0  0  0
  189.6970  177.4300  138.8090 C   0  0  0  0  0  2  0  0  0  0  0  0
  188.7600  178.3890  139.5300 C   0  0  0  0  0  1  0  0  0  0  0  0
  191.9720  176.4180  138.0000 C   0  0  0  0  0  1  0  0  0  0  0  0
  191.9890  176.8980  139.3110 O   0  0  0  0  0  0  0  0  0  0  0  0
  183.3630  178.8990  144.6050 C   0  0  0  0  0  2  0  0  0  0  0  0
  180.5830  179.4880  142.0530 N   0  0  0  0  0  1  0  0  0  0  0  0
  181.2300  179.0620  143.2450 C   0  0  0  0  0  0  0  0  0  0  0  0
  182.6370  179.2520  143.3910 N   0  0  0  0  0  2  0  0  0  0  0  0
  180.5580  178.5130  144.1570 O   0  0  0  0  0  0  0  0  0  0  0  0
  1 11  1  0  0  0  0
  2 13  1  6  0  0  0
  2  9  1  0  0  0  0
  4 12  2  0  0  0  0
  4 10  1  0  0  0  0
  5  6  1  0  0  0  0
  5  1  2  0  0  0  0
  6  7  2  0  0  0  0
  7  3  1  0  0  0  0
  8 23  1  0  0  0  0
  8  2  1  0  0  0  0
  9  1  1  0  0  0  0
 10 13  2  0  0  0  0
 11  3  2  0  0  0  0
 12  8  1  0  0  0  0
 13  5  1  0  0  0  0
 14 10  1  0  0  0  0
 15 14  1  0  0  0  0
 16 15  1  0  0  0  0
 17 16  1  0  0  0  0
 18 19  1  6  0  0  0
 18 17  1  0  0  0  0
 19 20  1  0  0  0  0
 21 22  1  0  0  0  0
 22 18  1  0  0  0  0
 24 25  1  0  0  0  0
 25 26  1  0  0  0  0
 25 27  2  0  0  0  0
 26 23  1  0  0  0  0
M  END
>  <MODEL>
4

>  <REMARK>
 VINA RESULT:      -7.4      3.412      5.515
  Name = 
  9 active torsions:
  status: ('A' for Active; 'I' for Inactive)
    1  A    between atoms: C_4  and  C_26
    2  A    between atoms: C_8  and  C_13
    3  A    between atoms: C_8  and  C_26
    4  A    between atoms: C_10  and  C_16
    5  A    between atoms: C_10  and  N_17
    6  A    between atoms: C_13  and  N_17
    7  A    between atoms: N_14  and  C_22
    8  A    between atoms: N_21  and  C_22
    9  A    between atoms: C_26  and  O_27
                            x       y       z     vdW  Elec       q    Type
                         _______ _______ _______ _____ _____    ______ ____

>  <TORSDO>
F 9

$$$$
=
 OpenBabel10232411453D

 27 29  0  0  1  0  0  0  0  0999 V2000
  189.7310  177.2650  145.7420 C   0  0  0  0  0  0  0  0  0  0  0  0
  190.2110  178.0210  143.3690 C   0  0  2  0  0  3  0  0  0  0  0  0
  188.6020  177.1710  147.8320 N   0  0  0  0  0  0  0  0  0  0  0  0
  188.2210  177.8640  141.3200 C   0  0  0  0  0  3  0  0  0  0  0  0
  188.5550  177.6290  145.1210 C   0  0  0  0  0  0  0  0  0  0  0  0
  187.3750  177.7610  145.8580 C   0  0  0  0  0  3  0  0  0  0  0  0
  187.4240  177.5200  147.2370 C   0  0  0  0  0  3  0  0  0  0  0  0
  190.5090  177.5670  142.0040 N   0  0  0  0  0  0  0  0  0  0  0  0
  191.1470  177.1060  144.6600 S   0  0  0  0  0  0  0  0  0  0  0  0
  187.8070  177.8840  142.7350 C   0  0  0  0  0  0  0  0  0  0  0  0
  189.7550  177.0390  147.1180 C   0  0  0  0  0  3  0  0  0  0  0  0
  189.5040  177.6970  140.9870 C   0  0  0  0  0  3  0  0  0  0  0  0
  188.7490  177.8790  143.6970 C   0  0  0  0  0  0  0  0  0  0  0  0
  186.3440  177.8160  143.0390 C   0  0  0  0  0  2  0  0  0  0  0  0
  185.5990  178.6370  142.0970 N   0  0  0  0  0  2  0  0  0  0  0  0
  184.2470  178.1070  142.0260 C   0  0  0  0  0  2  0  0  0  0  0  0
  183.5980  178.5240  140.7180 C   0  0  0  0  0  2  0  0  0  0  0  0
  184.6570  178.9670  139.7190 C   0  0  1  0  0  3  0  0  0  0  0  0
  184.8450  177.9160  138.6260 C   0  0  0  0  0  2  0  0  0  0  0  0
  186.1800  178.0660  137.9110 C   0  0  0  0  0  1  0  0  0  0  0  0
  182.9550  180.1080  138.8750 C   0  0  0  0  0  1  0  0  0  0  0  0
  184.3180  180.2030  139.1590 O   0  0  0  0  0  0  0  0  0  0  0  0
  191.8910  177.3850  141.5810 C   0  0  0  0  0  2  0  0  0  0  0  0
  193.1600  176.7640  138.0320 N   0  0  0  0  0  1  0  0  0  0  0  0
  193.1810  176.9660  139.4390 C   0  0  0  0  0  0  0  0  0  0  0  0
  191.9610  177.2270  140.1340 N   0  0  0  0  0  2  0  0  0  0  0  0
  194.2770  176.9240  140.0590 O   0  0  0  0  0  0  0  0  0  0  0  0
  1 11  1  0  0  0  0
  2 13  1  1  0  0  0
  2  9  1  0  0  0  0
  4 10  1  0  0  0  0
  5  1  2  0  0  0  0
  5  6  1  0  0  0  0
  6  7  2  0  0  0  0
  7  3  1  0  0  0  0
  8  2  1  0  0  0  0
  9  1  1  0  0  0  0
 10 14  1  0  0  0  0
 10 13  2  0  0  0  0
 11  3  2  0  0  0  0
 12  4  2  0  0  0  0
 12  8  1  0  0  0  0
 13  5  1  0  0  0  0
 15 14  1  0  0  0  0
 16 15  1  0  0  0  0
 17 16  1  0  0  0  0
 18 19  1  6  0  0  0
 18 17  1  0  0  0  0
 20 19  1  0  0  0  0
 21 22  1  0  0  0  0
 22 18  1  0  0  0  0
 23  8  1  0  0  0  0
 24 25  1  0  0  0  0
 25 27  2  0  0  0  0
 25 26  1  0  0  0  0
 26 23  1  0  0  0  0
M  END
>  <MODEL>
5

>  <REMARK>
 VINA RESULT:      -7.3      3.164      6.944
  Name = 
  9 active torsions:
  status: ('A' for Active; 'I' for Inactive)
    1  A    between atoms: C_4  and  C_26
    2  A    between atoms: C_8  and  C_13
    3  A    between atoms: C_8  and  C_26
    4  A    between atoms: C_10  and  C_16
    5  A    between atoms: C_10  and  N_17
    6  A    between atoms: C_13  and  N_17
    7  A    between atoms: N_14  and  C_22
    8  A    between atoms: N_21  and  C_22
    9  A    between atoms: C_26  and  O_27
                            x       y       z     vdW  Elec       q    Type
                         _______ _______ _______ _____ _____    ______ ____

>  <TORSDO>
F 9

$$$$
=
 OpenBabel10232411453D

 27 29  0  0  1  0  0  0  0  0999 V2000
  188.1050  177.6220  146.3350 C   0  0  0  0  0  0  0  0  0  0  0  0
  186.4160  177.6330  144.4430 C   0  0  2  0  0  3  0  0  0  0  0  0
  190.1080  177.0660  147.4890 N   0  0  0  0  0  0  0  0  0  0  0  0
  187.1510  178.4040  141.7880 C   0  0  0  0  0  3  0  0  0  0  0  0
  188.7540  177.4610  145.1290 C   0  0  0  0  0  0  0  0  0  0  0  0
  190.1040  177.1050  145.0920 C   0  0  0  0  0  3  0  0  0  0  0  0
  190.7720  176.9120  146.3080 C   0  0  0  0  0  3  0  0  0  0  0  0
  185.5680  178.4850  143.5990 N   0  0  0  0  0  0  0  0  0  0  0  0
  186.3880  178.1100  146.2190 S   0  0  0  0  0  0  0  0  0  0  0  0
  188.1930  177.9490  142.7280 C   0  0  0  0  0  0  0  0  0  0  0  0
  188.7910  177.4140  147.5320 C   0  0  0  0  0  3  0  0  0  0  0  0
  185.9140  178.6700  142.2190 C   0  0  0  0  0  3  0  0  0  0  0  0
  187.8540  177.6610  143.9990 C   0  0  0  0  0  0  0  0  0  0  0  0
  189.6080  177.9150  142.2440 C   0  0  0  0  0  2  0  0  0  0  0  0
  189.7810  176.8380  141.2810 N   0  0  0  0  0  2  0  0  0  0  0  0
  190.7380  177.2900  140.2850 C   0  0  0  0  0  2  0  0  0  0  0  0
  190.3540  176.7500  138.9180 C   0  0  0  0  0  2  0  0  0  0  0  0
  188.8690  176.9640  138.6630 C   0  0  1  0  0  3  0  0  0  0  0  0
  188.5720  178.4360  138.3870 C   0  0  0  0  0  2  0  0  0  0  0  0
  188.9840  178.8500  136.9810 C   0  0  0  0  0  1  0  0  0  0  0  0
  189.4790  175.2720  137.3680 C   0  0  0  0  0  1  0  0  0  0  0  0
  188.4330  176.1660  137.5990 O   0  0  0  0  0  0  0  0  0  0  0  0
  184.2040  178.7930  144.0100 C   0  0  0  0  0  2  0  0  0  0  0  0
  181.0910  178.8710  141.8000 N   0  0  0  0  0  1  0  0  0  0  0  0
  181.8910  178.8180  142.9730 C   0  0  0  0  0  0  0  0  0  0  0  0
  183.3140  178.7860  142.8560 N   0  0  0  0  0  2  0  0  0  0  0  0
  181.3390  178.7900  144.1050 O   0  0  0  0  0  0  0  0  0  0  0  0
  1 11  1  0  0  0  0
  2 13  1  6  0  0  0
  2  9  1  0  0  0  0
  3 11  2  0  0  0  0
  4 12  2  0  0  0  0
  4 10  1  0  0  0  0
  5  1  2  0  0  0  0
  6  5  1  0  0  0  0
  6  7  2  0  0  0  0
  7  3  1  0  0  0  0
  8 23  1  0  0  0  0
  8  2  1  0  0  0  0
  9  1  1  0  0  0  0
 10 13  2  0  0  0  0
 12  8  1  0  0  0  0
 13  5  1  0  0  0  0
 14 10  1  0  0  0  0
 15 14  1  0  0  0  0
 16 15  1  0  0  0  0
 17 16  1  0  0  0  0
 18 19  1  6  0  0  0
 18 17  1  0  0  0  0
 20 19  1  0  0  0  0
 21 22  1  0  0  0  0
 22 18  1  0  0  0  0
 24 25  1  0  0  0  0
 25 27  2  0  0  0  0
 26 25  1  0  0  0  0
 26 23  1  0  0  0  0
M  END
>  <MODEL>
6

>  <REMARK>
 VINA RESULT:      -7.0      3.151      5.975
  Name = 
  9 active torsions:
  status: ('A' for Active; 'I' for Inactive)
    1  A    between atoms: C_4  and  C_26
    2  A    between atoms: C_8  and  C_13
    3  A    between atoms: C_8  and  C_26
    4  A    between atoms: C_10  and  C_16
    5  A    between atoms: C_10  and  N_17
    6  A    between atoms: C_13  and  N_17
    7  A    between atoms: N_14  and  C_22
    8  A    between atoms: N_21  and  C_22
    9  A    between atoms: C_26  and  O_27
                            x       y       z     vdW  Elec       q    Type
                         _______ _______ _______ _____ _____    ______ ____

>  <TORSDO>
F 9

$$$$
=
 OpenBabel10232411453D

 27 29  0  0  1  0  0  0  0  0999 V2000
  188.7200  177.4290  146.1710 C   0  0  0  0  0  0  0  0  0  0  0  0
  187.0750  177.4100  144.2400 C   0  0  2  0  0  3  0  0  0  0  0  0
  190.6970  176.8920  147.3780 N   0  0  0  0  0  0  0  0  0  0  0  0
  187.8690  178.1520  141.5940 C   0  0  0  0  0  3  0  0  0  0  0  0
  189.3970  177.2550  144.9820 C   0  0  0  0  0  0  0  0  0  0  0  0
  190.7490  176.9030  144.9810 C   0  0  0  0  0  3  0  0  0  0  0  0
  191.3900  176.7270  146.2140 C   0  0  0  0  0  3  0  0  0  0  0  0
  186.2440  178.2500  143.3670 N   0  0  0  0  0  0  0  0  0  0  0  0
  187.0050  177.9090  146.0090 S   0  0  0  0  0  0  0  0  0  0  0  0
  188.8910  177.7120  142.5630 C   0  0  0  0  0  0  0  0  0  0  0  0
  189.3790  177.2370  147.3860 C   0  0  0  0  0  3  0  0  0  0  0  0
  186.6220  178.4190  141.9930 C   0  0  0  0  0  3  0  0  0  0  0  0
  188.5230  177.4390  143.8300 C   0  0  0  0  0  0  0  0  0  0  0  0
  190.3160  177.6770  142.1130 C   0  0  0  0  0  2  0  0  0  0  0  0
  190.4870  176.6740  141.0730 N   0  0  0  0  0  2  0  0  0  0  0  0
  191.2430  177.2860  139.9920 C   0  0  0  0  0  2  0  0  0  0  0  0
  190.5040  177.1020  138.6780 C   0  0  0  0  0  2  0  0  0  0  0  0
  191.2860  176.1760  137.7570 C   0  0  1  0  0  3  0  0  0  0  0  0
  192.7750  176.5190  137.7790 C   0  0  0  0  0  2  0  0  0  0  0  0
  193.6500  175.2750  137.7240 C   0  0  0  0  0  1  0  0  0  0  0  0
  190.0030  174.4170  137.3400 C   0  0  0  0  0  1  0  0  0  0  0  0
  191.0840  174.8400  138.1170 O   0  0  0  0  0  0  0  0  0  0  0  0
  184.8710  178.5590  143.7430 C   0  0  0  0  0  2  0  0  0  0  0  0
  181.8280  178.7260  141.4400 N   0  0  0  0  0  1  0  0  0  0  0  0
  182.6050  178.7860  142.6290 C   0  0  0  0  0  0  0  0  0  0  0  0
  183.9950  178.4620  142.5820 N   0  0  0  0  0  2  0  0  0  0  0  0
  182.0580  179.1140  143.7150 O   0  0  0  0  0  0  0  0  0  0  0  0
  1 11  1  0  0  0  0
  2 13  1  6  0  0  0
  2  9  1  0  0  0  0
  3 11  2  0  0  0  0
  4 12  2  0  0  0  0
  4 10  1  0  0  0  0
  5  1  2  0  0  0  0
  6  5  1  0  0  0  0
  6  7  2  0  0  0  0
  7  3  1  0  0  0  0
  8 23  1  0  0  0  0
  8  2  1  0  0  0  0
  9  1  1  0  0  0  0
 10 13  2  0  0  0  0
 12  8  1  0  0  0  0
 13  5  1  0  0  0  0
 14 10  1  0  0  0  0
 15 14  1  0  0  0  0
 16 15  1  0  0  0  0
 17 16  1  0  0  0  0
 18 19  1  1  0  0  0
 18 22  1  0  0  0  0
 18 17  1  0  0  0  0
 20 19  1  0  0  0  0
 21 22  1  0  0  0  0
 24 25  1  0  0  0  0
 25 27  2  0  0  0  0
 26 25  1  0  0  0  0
 26 23  1  0  0  0  0
M  END
>  <MODEL>
7

>  <REMARK>
 VINA RESULT:      -6.9      3.637      6.000
  Name = 
  9 active torsions:
  status: ('A' for Active; 'I' for Inactive)
    1  A    between atoms: C_4  and  C_26
    2  A    between atoms: C_8  and  C_13
    3  A    between atoms: C_8  and  C_26
    4  A    between atoms: C_10  and  C_16
    5  A    between atoms: C_10  and  N_17
    6  A    between atoms: C_13  and  N_17
    7  A    between atoms: N_14  and  C_22
    8  A    between atoms: N_21  and  C_22
    9  A    between atoms: C_26  and  O_27
                            x       y       z     vdW  Elec       q    Type
                         _______ _______ _______ _____ _____    ______ ____

>  <TORSDO>
F 9

$$$$
=
 OpenBabel10232411453D

 27 29  0  0  1  0  0  0  0  0999 V2000
  189.0820  177.5540  138.6810 C   0  0  0  0  0  0  0  0  0  0  0  0
  187.8670  178.4740  140.7090 C   0  0  2  0  0  3  0  0  0  0  0  0
  190.9290  176.8550  137.3560 N   0  0  0  0  0  0  0  0  0  0  0  0
  188.1900  177.3070  143.3000 C   0  0  0  0  0  3  0  0  0  0  0  0
  189.7860  177.2460  139.8260 C   0  0  0  0  0  0  0  0  0  0  0  0
  191.0790  176.7250  139.7460 C   0  0  0  0  0  3  0  0  0  0  0  0
  191.6390  176.5330  138.4760 C   0  0  0  0  0  3  0  0  0  0  0  0
  186.7430  178.2610  141.6300 N   0  0  0  0  0  0  0  0  0  0  0  0
  187.4280  178.1810  138.9470 S   0  0  0  0  0  0  0  0  0  0  0  0
  189.2240  177.0890  142.2710 C   0  0  0  0  0  0  0  0  0  0  0  0
  189.6660  177.3620  137.4290 C   0  0  0  0  0  3  0  0  0  0  0  0
  187.0120  177.8480  142.9790 C   0  0  0  0  0  3  0  0  0  0  0  0
  189.0310  177.5750  141.0300 C   0  0  0  0  0  0  0  0  0  0  0  0
  190.4100  176.2530  142.6340 C   0  0  0  0  0  2  0  0  0  0  0  0
  191.5550  177.1050  142.9160 N   0  0  0  0  0  2  0  0  0  0  0  0
  191.3750  177.6540  144.2500 C   0  0  0  0  0  2  0  0  0  0  0  0
  191.3080  176.5280  145.2660 C   0  0  0  0  0  2  0  0  0  0  0  0
  190.7640  177.0420  146.5910 C   0  0  1  0  0  3  0  0  0  0  0  0
  189.2550  177.2690  146.5060 C   0  0  0  0  0  2  0  0  0  0  0  0
  188.6040  177.3180  147.8810 C   0  0  0  0  0  1  0  0  0  0  0  0
  192.3590  175.7000  147.3440 C   0  0  0  0  0  1  0  0  0  0  0  0
  191.0690  176.1520  147.6270 O   0  0  0  0  0  0  0  0  0  0  0  0
  185.4400  178.8430  141.3390 C   0  0  0  0  0  2  0  0  0  0  0  0
  182.6830  179.0420  143.9740 N   0  0  0  0  0  1  0  0  0  0  0  0
  183.3130  178.8310  142.7180 C   0  0  0  0  0  0  0  0  0  0  0  0
  184.7090  179.0920  142.5750 N   0  0  0  0  0  2  0  0  0  0  0  0
  182.6320  178.4250  141.7390 O   0  0  0  0  0  0  0  0  0  0  0  0
  1  9  1  0  0  0  0
  1  5  1  0  0  0  0
  2  9  1  6  0  0  0
  2 13  1  0  0  0  0
  2  8  1  0  0  0  0
  3 11  1  0  0  0  0
  3  7  2  0  0  0  0
  5 13  1  0  0  0  0
  6  5  2  0  0  0  0
  7  6  1  0  0  0  0
  8 12  1  0  0  0  0
 10 14  1  0  0  0  0
 10  4  1  0  0  0  0
 11  1  2  0  0  0  0
 12  4  2  0  0  0  0
 13 10  2  0  0  0  0
 14 15  1  0  0  0  0
 15 16  1  0  0  0  0
 16 17  1  0  0  0  0
 18 17  1  6  0  0  0
 18 22  1  0  0  0  0
 19 18  1  0  0  0  0
 19 20  1  0  0  0  0
 21 22  1  0  0  0  0
 23  8  1  0  0  0  0
 23 26  1  0  0  0  0
 25 24  1  0  0  0  0
 26 25  1  0  0  0  0
 27 25  2  0  0  0  0
M  END
>  <MODEL>
8

>  <REMARK>
 VINA RESULT:      -6.8      2.510      5.138
  Name = 
  9 active torsions:
  status: ('A' for Active; 'I' for Inactive)
    1  A    between atoms: C_4  and  C_26
    2  A    between atoms: C_8  and  C_13
    3  A    between atoms: C_8  and  C_26
    4  A    between atoms: C_10  and  C_16
    5  A    between atoms: C_10  and  N_17
    6  A    between atoms: C_13  and  N_17
    7  A    between atoms: N_14  and  C_22
    8  A    between atoms: N_21  and  C_22
    9  A    between atoms: C_26  and  O_27
                            x       y       z     vdW  Elec       q    Type
                         _______ _______ _______ _____ _____    ______ ____

>  <TORSDO>
F 9

$$$$
=
 OpenBabel10232411453D

 27 29  0  0  1  0  0  0  0  0999 V2000
  190.1420  177.0150  144.1750 C   0  0  0  0  0  0  0  0  0  0  0  0
  190.6220  177.7690  141.8010 C   0  0  2  0  0  3  0  0  0  0  0  0
  189.1500  177.0570  146.3350 N   0  0  0  0  0  0  0  0  0  0  0  0
  188.5200  178.1280  139.8940 C   0  0  0  0  0  3  0  0  0  0  0  0
  189.0330  177.6450  143.6520 C   0  0  0  0  0  0  0  0  0  0  0  0
  187.9560  177.9840  144.4750 C   0  0  0  0  0  3  0  0  0  0  0  0
  188.0380  177.6710  145.8380 C   0  0  0  0  0  3  0  0  0  0  0  0
  190.7330  177.3300  140.4040 N   0  0  0  0  0  0  0  0  0  0  0  0
  191.4230  176.6180  142.9910 S   0  0  0  0  0  0  0  0  0  0  0  0
  188.2080  178.1650  141.3350 C   0  0  0  0  0  0  0  0  0  0  0  0
  190.2040  176.7230  145.5380 C   0  0  0  0  0  3  0  0  0  0  0  0
  189.7160  177.7140  139.4660 C   0  0  0  0  0  3  0  0  0  0  0  0
  189.1860  177.9180  142.2280 C   0  0  0  0  0  0  0  0  0  0  0  0
  186.7860  178.3870  141.7400 C   0  0  0  0  0  2  0  0  0  0  0  0
  185.9950  178.7880  140.5860 N   0  0  0  0  0  2  0  0  0  0  0  0
  184.6130  178.9100  141.0220 C   0  0  0  0  0  2  0  0  0  0  0  0
  184.5550  178.9790  142.5380 C   0  0  0  0  0  2  0  0  0  0  0  0
  183.2200  178.4490  143.0410 C   0  0  1  0  0  3  0  0  0  0  0  0
  183.0150  178.8030  144.5120 C   0  0  0  0  0  2  0  0  0  0  0  0
  184.3240  178.8070  145.2890 C   0  0  0  0  0  1  0  0  0  0  0  0
  181.1240  179.1580  143.1650 C   0  0  0  0  0  1  0  0  0  0  0  0
  182.1690  178.9480  142.2640 O   0  0  0  0  0  0  0  0  0  0  0  0
  192.0170  176.8850  139.8780 C   0  0  0  0  0  2  0  0  0  0  0  0
  192.5840  175.4890  136.3690 N   0  0  0  0  0  1  0  0  0  0  0  0
  192.8100  176.2280  137.5620 C   0  0  0  0  0  0  0  0  0  0  0  0
  191.8330  176.2040  138.6030 N   0  0  0  0  0  2  0  0  0  0  0  0
  193.8630  176.9060  137.6860 O   0  0  0  0  0  0  0  0  0  0  0  0
  1 11  1  0  0  0  0
  2 13  1  1  0  0  0
  2  9  1  0  0  0  0
  4 10  1  0  0  0  0
  5  1  2  0  0  0  0
  5  6  1  0  0  0  0
  6  7  2  0  0  0  0
  7  3  1  0  0  0  0
  8  2  1  0  0  0  0
  9  1  1  0  0  0  0
 10 14  1  0  0  0  0
 10 13  2  0  0  0  0
 11  3  2  0  0  0  0
 12  4  2  0  0  0  0
 12  8  1  0  0  0  0
 13  5  1  0  0  0  0
 15 16  1  0  0  0  0
 15 14  1  0  0  0  0
 16 17  1  0  0  0  0
 18 17  1  6  0  0  0
 18 19  1  0  0  0  0
 19 20  1  0  0  0  0
 22 18  1  0  0  0  0
 22 21  1  0  0  0  0
 23  8  1  0  0  0  0
 24 25  1  0  0  0  0
 25 27  2  0  0  0  0
 25 26  1  0  0  0  0
 26 23  1  0  0  0  0
M  END
>  <MODEL>
9

>  <REMARK>
 VINA RESULT:      -6.7      3.665      6.429
  Name = 
  9 active torsions:
  status: ('A' for Active; 'I' for Inactive)
    1  A    between atoms: C_4  and  C_26
    2  A    between atoms: C_8  and  C_13
    3  A    between atoms: C_8  and  C_26
    4  A    between atoms: C_10  and  C_16
    5  A    between atoms: C_10  and  N_17
    6  A    between atoms: C_13  and  N_17
    7  A    between atoms: N_14  and  C_22
    8  A    between atoms: N_21  and  C_22
    9  A    between atoms: C_26  and  O_27
                            x       y       z     vdW  Elec       q    Type
                         _______ _______ _______ _____ _____    ______ ____

>  <TORSDO>
F 9

$$$$
