=
 OpenBabel10232409193D

 30 34  0  0  1  0  0  0  0  0999 V2000
  186.7690  178.5520  141.0000 C   0  0  0  0  0  0  0  0  0  0  0  0
  184.4180  178.8630  141.9440 C   0  0  0  0  0  0  0  0  0  0  0  0
  185.1630  178.6090  140.4390 S   0  0  0  0  0  0  0  0  0  0  0  0
  188.8980  177.8540  143.3690 N   0  0  0  0  0  2  0  0  0  0  0  0
  184.6770  178.2040  146.5460 C   0  0  0  0  0  1  0  0  0  0  0  0
  183.0190  178.4800  142.2830 C   0  0  0  0  0  2  0  0  0  0  0  0
  183.1160  179.0970  144.7550 C   0  0  0  0  0  3  0  0  0  0  0  0
  187.5200  178.2280  143.4860 C   0  0  0  0  0  0  0  0  0  0  0  0
  185.4430  178.8750  142.8620 C   0  0  0  0  0  0  0  0  0  0  0  0
  185.4770  178.5100  144.2560 C   0  0  0  0  0  0  0  0  0  0  0  0
  186.7010  178.6960  142.3730 C   0  0  0  0  0  0  0  0  0  0  0  0
  182.5200  179.1170  143.5520 C   0  0  0  0  0  3  0  0  0  0  0  0
  186.8200  178.1150  144.5810 N   0  0  0  0  0  0  0  0  0  0  0  0
  184.4490  178.5520  145.1150 C   0  0  0  0  0  0  0  0  0  0  0  0
  187.5410  178.5950  136.7280 N   0  0  0  0  0  2  0  0  0  0  0  0
  189.2910  177.8380  135.4550 O   0  0  0  0  0  0  0  0  0  0  0  0
  188.7470  178.0100  136.5760 C   0  0  0  0  0  0  0  0  0  0  0  0
  188.0730  178.1440  138.8540 C   0  0  0  0  0  0  0  0  0  0  0  0
  187.1650  178.6720  138.0020 N   0  0  0  0  0  0  0  0  0  0  0  0
  187.9230  178.1150  140.2760 N   0  0  0  0  0  2  0  0  0  0  0  0
  189.4260  177.5490  138.0460 S   0  0  0  0  0  0  0  0  0  0  0  0
  191.7120  176.1940  145.1600 N   0  0  0  0  0  2  0  0  0  0  0  0
  191.5520  176.6080  146.5510 C   0  0  1  0  0  3  0  0  0  0  0  0
  190.0770  176.8320  146.8610 C   0  0  0  0  0  2  0  0  0  0  0  0
  190.8420  176.6700  144.1260 C   0  0  0  0  0  0  0  0  0  0  0  0
  191.1040  176.2940  142.7760 N   0  0  0  0  0  1  0  0  0  0  0  0
  189.5080  177.8310  145.8570 C   0  0  0  0  0  2  0  0  0  0  0  0
  189.7570  177.4050  144.4290 C   0  0  0  0  0  0  0  0  0  0  0  0
  192.9930  176.1890  148.4280 O   0  0  0  0  0  1  0  0  0  0  0  0
  192.1620  175.5750  147.4870 C   0  0  0  0  0  2  0  0  0  0  0  0
  1 11  2  0  0  0  0
  2  6  1  0  0  0  0
  2  9  2  0  0  0  0
  3  1  1  0  0  0  0
  3  2  1  0  0  0  0
  4  8  1  0  0  0  0
  4 28  1  0  0  0  0
  6 12  1  0  0  0  0
  7 14  1  0  0  0  0
  8 13  2  0  0  0  0
  9 10  1  0  0  0  0
 10 13  1  0  0  0  0
 10 14  2  0  0  0  0
 11  9  1  0  0  0  0
 11  8  1  0  0  0  0
 12  7  2  0  0  0  0
 14  5  1  0  0  0  0
 15 19  1  0  0  0  0
 16 17  2  0  0  0  0
 17 15  1  0  0  0  0
 17 21  1  0  0  0  0
 18 20  1  0  0  0  0
 19 18  2  0  0  0  0
 20  1  1  0  0  0  0
 21 18  1  0  0  0  0
 22 23  1  0  0  0  0
 23 24  1  0  0  0  0
 23 30  1  1  0  0  0
 25 28  2  0  0  0  0
 25 22  1  0  0  0  0
 26 25  1  0  0  0  0
 27 24  1  0  0  0  0
 28 27  1  0  0  0  0
 30 29  1  0  0  0  0
M  END
>  <MODEL>
1

>  <REMARK>
 VINA RESULT:     -10.4      0.000      0.000
  Name = 
  3 active torsions:
  status: ('A' for Active; 'I' for Inactive)
    1  A    between atoms: C_1  and  N_25
    2  A    between atoms: N_7  and  C_30
    3  A    between atoms: CA_8  and  C_22
                            x       y       z     vdW  Elec       q    Type
                         _______ _______ _______ _____ _____    ______ ____

>  <TORSDO>
F 3

$$$$
=
 OpenBabel10232409193D

 30 34  0  0  1  0  0  0  0  0999 V2000
  188.7320  177.6910  142.0560 C   0  0  0  0  0  0  0  0  0  0  0  0
  189.1570  177.6130  144.5710 C   0  0  0  0  0  0  0  0  0  0  0  0
  190.0450  177.7810  143.1340 S   0  0  0  0  0  0  0  0  0  0  0  0
  185.5760  178.2050  141.4180 N   0  0  0  0  0  2  0  0  0  0  0  0
  185.0640  178.2850  146.6870 C   0  0  0  0  0  1  0  0  0  0  0  0
  189.5760  178.1300  145.9040 C   0  0  0  0  0  2  0  0  0  0  0  0
  187.4400  177.5290  147.1600 C   0  0  0  0  0  3  0  0  0  0  0  0
  186.2060  177.9650  142.6820 C   0  0  0  0  0  0  0  0  0  0  0  0
  187.8420  177.5120  144.1790 C   0  0  0  0  0  0  0  0  0  0  0  0
  186.6180  177.8850  144.8440 C   0  0  0  0  0  0  0  0  0  0  0  0
  187.6000  177.5670  142.8400 C   0  0  0  0  0  0  0  0  0  0  0  0
  188.7780  177.5540  147.0420 C   0  0  0  0  0  3  0  0  0  0  0  0
  185.6280  178.1530  143.8370 N   0  0  0  0  0  0  0  0  0  0  0  0
  186.4190  177.9490  146.1670 C   0  0  0  0  0  0  0  0  0  0  0  0
  190.9290  175.8510  138.7950 N   0  0  0  0  0  2  0  0  0  0  0  0
  191.0900  176.3340  136.5600 O   0  0  0  0  0  0  0  0  0  0  0  0
  190.6190  176.5760  137.7000 C   0  0  0  0  0  0  0  0  0  0  0  0
  189.5200  177.3590  139.6600 C   0  0  0  0  0  0  0  0  0  0  0  0
  190.3130  176.2880  139.8910 N   0  0  0  0  0  0  0  0  0  0  0  0
  188.7330  178.0110  140.6610 N   0  0  0  0  0  2  0  0  0  0  0  0
  189.5390  177.8220  138.0410 S   0  0  0  0  0  0  0  0  0  0  0  0
  182.5270  179.6550  139.8410 N   0  0  0  0  0  2  0  0  0  0  0  0
  181.4320  179.2260  140.7060 C   0  0  1  0  0  3  0  0  0  0  0  0
  181.9250  179.0860  142.1410 C   0  0  0  0  0  2  0  0  0  0  0  0
  183.8820  179.2540  140.0830 C   0  0  0  0  0  0  0  0  0  0  0  0
  184.8920  179.6380  139.1540 N   0  0  0  0  0  1  0  0  0  0  0  0
  183.1250  178.1440  142.1610 C   0  0  0  0  0  2  0  0  0  0  0  0
  184.2060  178.5810  141.2010 C   0  0  0  0  0  0  0  0  0  0  0  0
  179.9830  180.7520  141.8660 O   0  0  0  0  0  1  0  0  0  0  0  0
  180.2670  180.2010  140.6140 C   0  0  0  0  0  2  0  0  0  0  0  0
  1 11  2  0  0  0  0
  1  3  1  0  0  0  0
  2  6  1  0  0  0  0
  3  2  1  0  0  0  0
  4  8  1  0  0  0  0
  6 12  1  0  0  0  0
  8 11  1  0  0  0  0
  8 13  2  0  0  0  0
  9  2  2  0  0  0  0
  9 10  1  0  0  0  0
 10 14  2  0  0  0  0
 11  9  1  0  0  0  0
 12  7  2  0  0  0  0
 13 10  1  0  0  0  0
 14  5  1  0  0  0  0
 14  7  1  0  0  0  0
 15 19  1  0  0  0  0
 16 17  2  0  0  0  0
 17 21  1  0  0  0  0
 17 15  1  0  0  0  0
 18 19  2  0  0  0  0
 18 20  1  0  0  0  0
 20  1  1  0  0  0  0
 21 18  1  0  0  0  0
 22 25  1  0  0  0  0
 22 23  1  0  0  0  0
 23 30  1  1  0  0  0
 23 24  1  0  0  0  0
 24 27  1  0  0  0  0
 25 28  2  0  0  0  0
 26 25  1  0  0  0  0
 28  4  1  0  0  0  0
 28 27  1  0  0  0  0
 30 29  1  0  0  0  0
M  END
>  <MODEL>
2

>  <REMARK>
 VINA RESULT:     -10.3      3.208      6.685
  Name = 
  3 active torsions:
  status: ('A' for Active; 'I' for Inactive)
    1  A    between atoms: C_1  and  N_25
    2  A    between atoms: N_7  and  C_30
    3  A    between atoms: CA_8  and  C_22
                            x       y       z     vdW  Elec       q    Type
                         _______ _______ _______ _____ _____    ______ ____

>  <TORSDO>
F 3

$$$$
=
 OpenBabel10232409193D

 30 34  0  0  1  0  0  0  0  0999 V2000
  185.2450  179.1760  141.7210 C   0  0  0  0  0  0  0  0  0  0  0  0
  186.2640  178.3020  143.8920 C   0  0  0  0  0  0  0  0  0  0  0  0
  184.7750  178.8950  143.3320 S   0  0  0  0  0  0  0  0  0  0  0  0
  187.1100  178.4050  139.1600 N   0  0  0  0  0  2  0  0  0  0  0  0
  190.2150  176.1050  142.7790 C   0  0  0  0  0  1  0  0  0  0  0  0
  186.4400  177.3740  145.0440 C   0  0  0  0  0  2  0  0  0  0  0  0
  188.9510  177.0200  144.7810 C   0  0  0  0  0  3  0  0  0  0  0  0
  187.3840  178.2210  140.5540 C   0  0  0  0  0  0  0  0  0  0  0  0
  187.0980  178.3150  142.7970 C   0  0  0  0  0  0  0  0  0  0  0  0
  188.2290  177.4910  142.4520 C   0  0  0  0  0  0  0  0  0  0  0  0
  186.5620  178.7660  141.6290 C   0  0  0  0  0  0  0  0  0  0  0  0
  187.8630  177.2850  145.5230 C   0  0  0  0  0  3  0  0  0  0  0  0
  188.3520  177.4810  141.0200 N   0  0  0  0  0  0  0  0  0  0  0  0
  189.0460  176.8620  143.3080 C   0  0  0  0  0  0  0  0  0  0  0  0
  182.5680  176.5360  139.5510 N   0  0  0  0  0  2  0  0  0  0  0  0
  181.2410  176.8380  137.7060 O   0  0  0  0  0  0  0  0  0  0  0  0
  182.0570  177.2850  138.5540 C   0  0  0  0  0  0  0  0  0  0  0  0
  183.5620  178.5030  139.9370 C   0  0  0  0  0  0  0  0  0  0  0  0
  183.4090  177.2170  140.3270 N   0  0  0  0  0  0  0  0  0  0  0  0
  184.3930  179.4550  140.6070 N   0  0  0  0  0  2  0  0  0  0  0  0
  182.6300  178.8670  138.5820 S   0  0  0  0  0  0  0  0  0  0  0  0
  188.0540  176.6120  136.0340 N   0  0  0  0  0  2  0  0  0  0  0  0
  189.4340  177.0180  135.7840 C   0  0  1  0  0  3  0  0  0  0  0  0
  190.1410  177.3010  137.1040 C   0  0  0  0  0  2  0  0  0  0  0  0
  187.3010  177.1340  137.1360 C   0  0  0  0  0  0  0  0  0  0  0  0
  185.9330  176.7610  137.2740 N   0  0  0  0  0  1  0  0  0  0  0  0
  189.3320  178.3320  137.8860 C   0  0  0  0  0  2  0  0  0  0  0  0
  187.8920  177.9100  138.0610 C   0  0  0  0  0  0  0  0  0  0  0  0
  191.4860  175.8190  135.4260 O   0  0  0  0  0  1  0  0  0  0  0  0
  190.1670  175.9520  134.9830 C   0  0  0  0  0  2  0  0  0  0  0  0
  1  3  1  0  0  0  0
  2  6  1  0  0  0  0
  3  2  1  0  0  0  0
  4  8  1  0  0  0  0
  5 14  1  0  0  0  0
  6 12  1  0  0  0  0
  7 12  2  0  0  0  0
  8 13  2  0  0  0  0
  8 11  1  0  0  0  0
  9  2  2  0  0  0  0
 10  9  1  0  0  0  0
 10 14  2  0  0  0  0
 11  1  2  0  0  0  0
 11  9  1  0  0  0  0
 13 10  1  0  0  0  0
 14  7  1  0  0  0  0
 15 19  1  0  0  0  0
 16 17  2  0  0  0  0
 17 21  1  0  0  0  0
 17 15  1  0  0  0  0
 18 19  2  0  0  0  0
 18 20  1  0  0  0  0
 20  1  1  0  0  0  0
 21 18  1  0  0  0  0
 22 25  1  0  0  0  0
 23 30  1  1  0  0  0
 23 22  1  0  0  0  0
 23 24  1  0  0  0  0
 24 27  1  0  0  0  0
 25 26  1  0  0  0  0
 25 28  2  0  0  0  0
 27 28  1  0  0  0  0
 28  4  1  0  0  0  0
 30 29  1  0  0  0  0
M  END
>  <MODEL>
3

>  <REMARK>
 VINA RESULT:      -9.2      3.629      6.797
  Name = 
  3 active torsions:
  status: ('A' for Active; 'I' for Inactive)
    1  A    between atoms: C_1  and  N_25
    2  A    between atoms: N_7  and  C_30
    3  A    between atoms: CA_8  and  C_22
                            x       y       z     vdW  Elec       q    Type
                         _______ _______ _______ _____ _____    ______ ____

>  <TORSDO>
F 3

$$$$
=
 OpenBabel10232409193D

 30 34  0  0  1  0  0  0  0  0999 V2000
  189.2440  177.8990  142.3790 C   0  0  0  0  0  0  0  0  0  0  0  0
  190.0120  177.6030  139.9640 C   0  0  0  0  0  0  0  0  0  0  0  0
  190.5750  177.2640  141.5290 S   0  0  0  0  0  0  0  0  0  0  0  0
  186.0560  178.5710  142.5180 N   0  0  0  0  0  0  0  0  0  0  0  0
  186.2850  178.2110  137.2410 C   0  0  0  0  0  1  0  0  0  0  0  0
  190.4010  176.8580  138.7330 C   0  0  0  0  0  2  0  0  0  0  0  0
  188.8160  178.0510  137.1320 C   0  0  0  0  0  3  0  0  0  0  0  0
  186.8990  178.4650  141.3650 C   0  0  0  0  0  0  0  0  0  0  0  0
  188.7790  178.1890  140.1360 C   0  0  0  0  0  0  0  0  0  0  0  0
  187.6080  178.2070  139.2960 C   0  0  0  0  0  0  0  0  0  0  0  0
  188.3510  178.3390  141.4200 C   0  0  0  0  0  0  0  0  0  0  0  0
  190.0260  177.5730  137.4630 C   0  0  0  0  0  3  0  0  0  0  0  0
  186.4580  178.3890  140.1390 N   0  0  0  0  0  0  0  0  0  0  0  0
  187.5850  178.1010  137.9600 C   0  0  0  0  0  0  0  0  0  0  0  0
  191.8960  177.0900  145.7200 N   0  0  0  0  0  2  0  0  0  0  0  0
  191.5180  176.6910  147.9450 O   0  0  0  0  0  0  0  0  0  0  0  0
  191.0890  176.9480  146.7910 C   0  0  0  0  0  0  0  0  0  0  0  0
  189.8870  177.4280  144.7950 C   0  0  0  0  0  0  0  0  0  0  0  0
  191.2240  177.3600  144.6030 N   0  0  0  0  0  0  0  0  0  0  0  0
  188.9380  177.7220  143.7660 N   0  0  0  0  0  2  0  0  0  0  0  0
  189.4650  177.1580  146.4030 S   0  0  0  0  0  0  0  0  0  0  0  0
  182.5580  178.9460  143.7450 N   0  0  0  0  0  0  0  0  0  0  0  0
  181.7660  179.1300  142.5330 C   0  0  1  0  0  3  0  0  0  0  0  0
  182.4120  178.3880  141.3700 C   0  0  0  0  0  2  0  0  0  0  0  0
  183.9850  178.8150  143.7020 C   0  0  0  0  0  0  0  0  0  0  0  0
  184.7070  178.7220  144.9270 N   0  0  0  0  0  1  0  0  0  0  0  0
  183.8590  178.8530  141.2310 C   0  0  0  0  0  2  0  0  0  0  0  0
  184.6270  178.7150  142.5250 C   0  0  0  0  0  0  0  0  0  0  0  0
  180.1450  178.2650  144.0820 O   0  0  0  0  0  1  0  0  0  0  0  0
  180.3340  178.6660  142.7570 C   0  0  0  0  0  2  0  0  0  0  0  0
  1 20  1  0  0  0  0
  2  9  2  0  0  0  0
  2  3  1  0  0  0  0
  3  1  1  0  0  0  0
  4 28  2  0  0  0  0
  5 14  1  0  0  0  0
  6  2  1  0  0  0  0
  7 12  2  0  0  0  0
  7 14  1  0  0  0  0
  8 11  1  0  0  0  0
  8  4  1  0  0  0  0
  9 11  1  0  0  0  0
 10  9  1  0  0  0  0
 10 13  1  0  0  0  0
 11  1  2  0  0  0  0
 12  6  1  0  0  0  0
 13  8  2  0  0  0  0
 14 10  2  0  0  0  0
 15 17  1  0  0  0  0
 17 16  2  0  0  0  0
 18 21  1  0  0  0  0
 19 18  2  0  0  0  0
 19 15  1  0  0  0  0
 20 18  1  0  0  0  0
 21 17  1  0  0  0  0
 23 30  1  1  0  0  0
 23 22  1  0  0  0  0
 24 23  1  0  0  0  0
 25 22  2  0  0  0  0
 25 26  1  0  0  0  0
 27 24  1  0  0  0  0
 27 28  1  0  0  0  0
 28 25  1  0  0  0  0
 30 29  1  0  0  0  0
M  END
>  <MODEL>
4

>  <REMARK>
 VINA RESULT:      -9.1      3.213      8.130
  Name = 
  3 active torsions:
  status: ('A' for Active; 'I' for Inactive)
    1  A    between atoms: C_1  and  N_25
    2  A    between atoms: N_7  and  C_30
    3  A    between atoms: CA_8  and  C_22
                            x       y       z     vdW  Elec       q    Type
                         _______ _______ _______ _____ _____    ______ ____

>  <TORSDO>
F 3

$$$$
=
 OpenBabel10232409193D

 30 34  0  0  1  0  0  0  0  0999 V2000
  184.3290  179.2020  141.7210 C   0  0  0  0  0  0  0  0  0  0  0  0
  184.4790  178.8230  144.2400 C   0  0  0  0  0  0  0  0  0  0  0  0
  183.2870  179.0920  143.0610 S   0  0  0  0  0  0  0  0  0  0  0  0
  187.1110  178.3590  140.2420 N   0  0  0  0  0  2  0  0  0  0  0  0
  188.7180  177.1160  145.1320 C   0  0  0  0  0  1  0  0  0  0  0  0
  184.2630  178.1110  145.5310 C   0  0  0  0  0  2  0  0  0  0  0  0
  186.6950  178.1100  146.2980 C   0  0  0  0  0  3  0  0  0  0  0  0
  186.8270  178.4250  141.6450 C   0  0  0  0  0  0  0  0  0  0  0  0
  185.6730  178.8020  143.5550 C   0  0  0  0  0  0  0  0  0  0  0  0
  186.9130  178.1190  143.8240 C   0  0  0  0  0  0  0  0  0  0  0  0
  185.6050  178.9890  142.2080 C   0  0  0  0  0  0  0  0  0  0  0  0
  185.3850  178.3120  146.5140 C   0  0  0  0  0  3  0  0  0  0  0  0
  187.5910  177.9170  142.5730 N   0  0  0  0  0  0  0  0  0  0  0  0
  187.3760  177.7540  145.0270 C   0  0  0  0  0  0  0  0  0  0  0  0
  182.6360  175.9840  139.3490 N   0  0  0  0  0  2  0  0  0  0  0  0
  182.1100  175.8000  137.1260 O   0  0  0  0  0  0  0  0  0  0  0  0
  182.5500  176.4710  138.0950 C   0  0  0  0  0  0  0  0  0  0  0  0
  183.4360  178.0540  139.6340 C   0  0  0  0  0  0  0  0  0  0  0  0
  183.1300  176.8700  140.2110 N   0  0  0  0  0  0  0  0  0  0  0  0
  183.9650  179.1820  140.3370 N   0  0  0  0  0  2  0  0  0  0  0  0
  183.0910  178.0610  137.9850 S   0  0  0  0  0  0  0  0  0  0  0  0
  189.4110  176.8520  137.7290 N   0  0  0  0  0  2  0  0  0  0  0  0
  190.7230  176.8920  138.3680 C   0  0  1  0  0  3  0  0  0  0  0  0
  190.5720  176.7720  139.8790 C   0  0  0  0  0  2  0  0  0  0  0  0
  188.2460  177.3940  138.3630 C   0  0  0  0  0  0  0  0  0  0  0  0
  187.0120  177.3980  137.6510 N   0  0  0  0  0  1  0  0  0  0  0  0
  189.6210  177.8610  140.3680 C   0  0  0  0  0  2  0  0  0  0  0  0
  188.3000  177.8340  139.6330 C   0  0  0  0  0  0  0  0  0  0  0  0
  191.0890  174.5330  138.0950 O   0  0  0  0  0  1  0  0  0  0  0  0
  191.6190  175.7940  137.8140 C   0  0  0  0  0  2  0  0  0  0  0  0
  1 11  2  0  0  0  0
  1  3  1  0  0  0  0
  2  6  1  0  0  0  0
  3  2  1  0  0  0  0
  4  8  1  0  0  0  0
  6 12  1  0  0  0  0
  7 12  2  0  0  0  0
  8 11  1  0  0  0  0
  8 13  2  0  0  0  0
  9 10  1  0  0  0  0
  9  2  2  0  0  0  0
 10 14  2  0  0  0  0
 11  9  1  0  0  0  0
 13 10  1  0  0  0  0
 14  5  1  0  0  0  0
 14  7  1  0  0  0  0
 15 19  1  0  0  0  0
 16 17  2  0  0  0  0
 17 15  1  0  0  0  0
 18 19  2  0  0  0  0
 18 20  1  0  0  0  0
 20  1  1  0  0  0  0
 21 17  1  0  0  0  0
 21 18  1  0  0  0  0
 22 25  1  0  0  0  0
 22 23  1  0  0  0  0
 23 30  1  6  0  0  0
 23 24  1  0  0  0  0
 24 27  1  0  0  0  0
 25 28  2  0  0  0  0
 26 25  1  0  0  0  0
 28  4  1  0  0  0  0
 28 27  1  0  0  0  0
 30 29  1  0  0  0  0
M  END
>  <MODEL>
5

>  <REMARK>
 VINA RESULT:      -9.1      3.165      5.451
  Name = 
  3 active torsions:
  status: ('A' for Active; 'I' for Inactive)
    1  A    between atoms: C_1  and  N_25
    2  A    between atoms: N_7  and  C_30
    3  A    between atoms: CA_8  and  C_22
                            x       y       z     vdW  Elec       q    Type
                         _______ _______ _______ _____ _____    ______ ____

>  <TORSDO>
F 3

$$$$
=
 OpenBabel10232409193D

 30 34  0  0  1  0  0  0  0  0999 V2000
  186.0220  178.2400  143.7090 C   0  0  0  0  0  0  0  0  0  0  0  0
  187.2320  177.7550  145.9020 C   0  0  0  0  0  0  0  0  0  0  0  0
  185.6400  177.9160  145.3350 S   0  0  0  0  0  0  0  0  0  0  0  0
  188.0230  177.8680  141.1610 N   0  0  0  0  0  2  0  0  0  0  0  0
  191.6180  176.6090  144.8390 C   0  0  0  0  0  1  0  0  0  0  0  0
  187.6420  176.9540  147.0910 C   0  0  0  0  0  2  0  0  0  0  0  0
  190.1590  177.2510  146.8140 C   0  0  0  0  0  3  0  0  0  0  0  0
  188.3350  177.8220  142.5580 C   0  0  0  0  0  0  0  0  0  0  0  0
  188.0340  177.9350  144.7990 C   0  0  0  0  0  0  0  0  0  0  0  0
  189.3410  177.4180  144.4760 C   0  0  0  0  0  0  0  0  0  0  0  0
  187.4000  178.1810  143.6190 C   0  0  0  0  0  0  0  0  0  0  0  0
  189.0400  177.2580  147.5570 C   0  0  0  0  0  3  0  0  0  0  0  0
  189.4620  177.3780  143.0440 N   0  0  0  0  0  0  0  0  0  0  0  0
  190.2920  177.0590  145.3480 C   0  0  0  0  0  0  0  0  0  0  0  0
  181.7960  179.2210  143.5490 N   0  0  0  0  0  2  0  0  0  0  0  0
  180.2480  179.1620  141.8600 O   0  0  0  0  0  0  0  0  0  0  0  0
  181.4240  178.9940  142.2730 C   0  0  0  0  0  0  0  0  0  0  0  0
  183.7320  178.5540  142.6470 C   0  0  0  0  0  0  0  0  0  0  0  0
  183.0880  178.9760  143.7590 N   0  0  0  0  0  0  0  0  0  0  0  0
  185.1260  178.2400  142.5930 N   0  0  0  0  0  2  0  0  0  0  0  0
  182.7040  178.4690  141.3150 S   0  0  0  0  0  0  0  0  0  0  0  0
  189.3870  177.5290  137.7110 N   0  0  0  0  0  2  0  0  0  0  0  0
  190.7370  177.0080  137.9030 C   0  0  1  0  0  3  0  0  0  0  0  0
  190.7890  176.1460  139.1580 C   0  0  0  0  0  2  0  0  0  0  0  0
  188.5370  177.8490  138.8190 C   0  0  0  0  0  0  0  0  0  0  0  0
  187.2610  178.4330  138.5640 N   0  0  0  0  0  1  0  0  0  0  0  0
  190.2750  176.9620  140.3400 C   0  0  0  0  0  2  0  0  0  0  0  0
  188.9060  177.5450  140.0750 C   0  0  0  0  0  0  0  0  0  0  0  0
  192.5810  176.1730  136.6090 O   0  0  0  0  0  1  0  0  0  0  0  0
  191.1870  176.2270  136.6770 C   0  0  0  0  0  2  0  0  0  0  0  0
  1  3  1  0  0  0  0
  2  6  1  0  0  0  0
  3  2  1  0  0  0  0
  4  8  1  0  0  0  0
  5 14  1  0  0  0  0
  6 12  1  0  0  0  0
  7 12  2  0  0  0  0
  8 13  2  0  0  0  0
  8 11  1  0  0  0  0
  9  2  2  0  0  0  0
 10  9  1  0  0  0  0
 10 14  2  0  0  0  0
 11  1  2  0  0  0  0
 11  9  1  0  0  0  0
 13 10  1  0  0  0  0
 14  7  1  0  0  0  0
 15 19  1  0  0  0  0
 16 17  2  0  0  0  0
 17 15  1  0  0  0  0
 18 19  2  0  0  0  0
 20 18  1  0  0  0  0
 20  1  1  0  0  0  0
 21 17  1  0  0  0  0
 21 18  1  0  0  0  0
 22 23  1  0  0  0  0
 22 25  1  0  0  0  0
 23 30  1  6  0  0  0
 23 24  1  0  0  0  0
 24 27  1  0  0  0  0
 25 28  2  0  0  0  0
 26 25  1  0  0  0  0
 28 27  1  0  0  0  0
 28  4  1  0  0  0  0
 29 30  1  0  0  0  0
M  END
>  <MODEL>
6

>  <REMARK>
 VINA RESULT:      -9.1      3.133      6.796
  Name = 
  3 active torsions:
  status: ('A' for Active; 'I' for Inactive)
    1  A    between atoms: C_1  and  N_25
    2  A    between atoms: N_7  and  C_30
    3  A    between atoms: CA_8  and  C_22
                            x       y       z     vdW  Elec       q    Type
                         _______ _______ _______ _____ _____    ______ ____

>  <TORSDO>
F 3

$$$$
=
 OpenBabel10232409193D

 30 34  0  0  1  0  0  0  0  0999 V2000
  188.0240  178.4000  139.5830 C   0  0  0  0  0  0  0  0  0  0  0  0
  187.6570  178.0890  142.0890 C   0  0  0  0  0  0  0  0  0  0  0  0
  186.7840  178.6110  140.7290 S   0  0  0  0  0  0  0  0  0  0  0  0
  190.6960  176.8170  138.5880 N   0  0  0  0  0  2  0  0  0  0  0  0
  191.1040  175.3880  143.6690 C   0  0  0  0  0  1  0  0  0  0  0  0
  187.0550  177.5060  143.3220 C   0  0  0  0  0  2  0  0  0  0  0  0
  189.2440  176.9100  144.4860 C   0  0  0  0  0  3  0  0  0  0  0  0
  190.2130  177.0070  139.9230 C   0  0  0  0  0  0  0  0  0  0  0  0
  188.8990  177.7380  141.6150 C   0  0  0  0  0  0  0  0  0  0  0  0
  189.8590  176.7710  142.0840 C   0  0  0  0  0  0  0  0  0  0  0  0
  189.1040  177.8860  140.2770 C   0  0  0  0  0  0  0  0  0  0  0  0
  188.0140  177.4490  144.4800 C   0  0  0  0  0  3  0  0  0  0  0  0
  190.6570  176.3550  140.9630 N   0  0  0  0  0  0  0  0  0  0  0  0
  190.0080  176.3440  143.3450 C   0  0  0  0  0  0  0  0  0  0  0  0
  186.8230  175.2400  136.8600 N   0  0  0  0  0  2  0  0  0  0  0  0
  186.6820  175.1250  134.5750 O   0  0  0  0  0  0  0  0  0  0  0  0
  186.9390  175.7680  135.6250 C   0  0  0  0  0  0  0  0  0  0  0  0
  187.5200  177.3110  137.3410 C   0  0  0  0  0  0  0  0  0  0  0  0
  187.1460  176.1030  137.8210 N   0  0  0  0  0  0  0  0  0  0  0  0
  187.8990  178.4220  138.1580 N   0  0  0  0  0  2  0  0  0  0  0  0
  187.4570  177.3690  135.6580 S   0  0  0  0  0  0  0  0  0  0  0  0
  192.6040  173.9090  137.2540 N   0  0  0  0  0  2  0  0  0  0  0  0
  193.9940  174.3540  137.2560 C   0  0  1  0  0  3  0  0  0  0  0  0
  194.2210  175.3480  138.3880 C   0  0  0  0  0  2  0  0  0  0  0  0
  191.5340  174.7730  137.6550 C   0  0  0  0  0  0  0  0  0  0  0  0
  190.1920  174.3040  137.5510 N   0  0  0  0  0  1  0  0  0  0  0  0
  193.2150  176.4870  138.2550 C   0  0  0  0  0  2  0  0  0  0  0  0
  191.7920  175.9820  138.1830 C   0  0  0  0  0  0  0  0  0  0  0  0
  195.2790  172.9290  138.7020 O   0  0  0  0  0  1  0  0  0  0  0  0
  194.9360  173.1640  137.3680 C   0  0  0  0  0  2  0  0  0  0  0  0
  1 11  2  0  0  0  0
  1  3  1  0  0  0  0
  2  6  1  0  0  0  0
  3  2  1  0  0  0  0
  4  8  1  0  0  0  0
  6 12  1  0  0  0  0
  8 11  1  0  0  0  0
  8 13  2  0  0  0  0
  9 10  1  0  0  0  0
  9  2  2  0  0  0  0
 10 14  2  0  0  0  0
 11  9  1  0  0  0  0
 12  7  2  0  0  0  0
 13 10  1  0  0  0  0
 14  5  1  0  0  0  0
 14  7  1  0  0  0  0
 15 19  1  0  0  0  0
 16 17  2  0  0  0  0
 17 21  1  0  0  0  0
 17 15  1  0  0  0  0
 18 19  2  0  0  0  0
 18 20  1  0  0  0  0
 20  1  1  0  0  0  0
 21 18  1  0  0  0  0
 22 23  1  0  0  0  0
 22 25  1  0  0  0  0
 23 30  1  1  0  0  0
 23 24  1  0  0  0  0
 25 28  2  0  0  0  0
 26 25  1  0  0  0  0
 27 24  1  0  0  0  0
 28 27  1  0  0  0  0
 28  4  1  0  0  0  0
 30 29  1  0  0  0  0
M  END
>  <MODEL>
7

>  <REMARK>
 VINA RESULT:      -9.0      3.842      6.002
  Name = 
  3 active torsions:
  status: ('A' for Active; 'I' for Inactive)
    1  A    between atoms: C_1  and  N_25
    2  A    between atoms: N_7  and  C_30
    3  A    between atoms: CA_8  and  C_22
                            x       y       z     vdW  Elec       q    Type
                         _______ _______ _______ _____ _____    ______ ____

>  <TORSDO>
F 3

$$$$
=
 OpenBabel10232409193D

 30 34  0  0  1  0  0  0  0  0999 V2000
  188.4540  178.1400  139.0100 C   0  0  0  0  0  0  0  0  0  0  0  0
  185.9170  178.4120  138.9520 C   0  0  0  0  0  0  0  0  0  0  0  0
  187.1800  178.0070  137.8910 S   0  0  0  0  0  0  0  0  0  0  0  0
  189.5370  177.9240  142.0790 N   0  0  0  0  0  0  0  0  0  0  0  0
  184.4230  178.4110  143.3610 C   0  0  0  0  0  1  0  0  0  0  0  0
  184.4980  177.9820  138.8000 C   0  0  0  0  0  2  0  0  0  0  0  0
  183.6440  178.9380  141.0030 C   0  0  0  0  0  3  0  0  0  0  0  0
  188.2120  178.2130  141.6150 C   0  0  0  0  0  0  0  0  0  0  0  0
  186.5180  178.6220  140.1720 C   0  0  0  0  0  0  0  0  0  0  0  0
  186.0250  178.4550  141.5160 C   0  0  0  0  0  0  0  0  0  0  0  0
  187.8690  178.4650  140.2200 C   0  0  0  0  0  0  0  0  0  0  0  0
  183.5490  178.7510  139.6770 C   0  0  0  0  0  3  0  0  0  0  0  0
  187.1510  178.2030  142.3740 N   0  0  0  0  0  0  0  0  0  0  0  0
  184.7490  178.5420  141.9130 C   0  0  0  0  0  0  0  0  0  0  0  0
  189.9520  174.4950  137.1890 N   0  0  0  0  0  2  0  0  0  0  0  0
  192.0600  173.6230  136.9580 O   0  0  0  0  0  0  0  0  0  0  0  0
  191.2900  174.5350  137.3570 C   0  0  0  0  0  0  0  0  0  0  0  0
  190.1960  176.4480  138.2520 C   0  0  0  0  0  0  0  0  0  0  0  0
  189.3400  175.5660  137.6890 N   0  0  0  0  0  0  0  0  0  0  0  0
  189.8020  177.6890  138.8450 N   0  0  0  0  0  2  0  0  0  0  0  0
  191.7960  175.9320  138.1470 S   0  0  0  0  0  0  0  0  0  0  0  0
  191.5980  176.9590  145.0280 N   0  0  0  0  0  0  0  0  0  0  0  0
  190.7790  177.3260  146.1800 C   0  0  1  0  0  3  0  0  0  0  0  0
  189.3020  177.2050  145.8280 C   0  0  0  0  0  2  0  0  0  0  0  0
  191.1720  177.2200  143.6850 C   0  0  0  0  0  0  0  0  0  0  0  0
  192.0550  176.9130  142.6090 N   0  0  0  0  0  1  0  0  0  0  0  0
  189.0200  178.0450  144.5850 C   0  0  0  0  0  2  0  0  0  0  0  0
  189.9360  177.6860  143.4380 C   0  0  0  0  0  0  0  0  0  0  0  0
  192.3550  175.8150  147.1840 O   0  0  0  0  0  1  0  0  0  0  0  0
  191.1330  176.4630  147.3820 C   0  0  0  0  0  2  0  0  0  0  0  0
  1 11  2  0  0  0  0
  2  9  2  0  0  0  0
  3  2  1  0  0  0  0
  3  1  1  0  0  0  0
  4 28  2  0  0  0  0
  6  2  1  0  0  0  0
  6 12  1  0  0  0  0
  7 14  1  0  0  0  0
  8  4  1  0  0  0  0
  8 13  2  0  0  0  0
  9 11  1  0  0  0  0
  9 10  1  0  0  0  0
 10 14  2  0  0  0  0
 10 13  1  0  0  0  0
 11  8  1  0  0  0  0
 12  7  2  0  0  0  0
 14  5  1  0  0  0  0
 15 17  1  0  0  0  0
 15 19  1  0  0  0  0
 16 17  2  0  0  0  0
 17 21  1  0  0  0  0
 18 20  1  0  0  0  0
 19 18  2  0  0  0  0
 20  1  1  0  0  0  0
 21 18  1  0  0  0  0
 22 23  1  0  0  0  0
 23 30  1  1  0  0  0
 24 23  1  0  0  0  0
 25 22  2  0  0  0  0
 26 25  1  0  0  0  0
 27 24  1  0  0  0  0
 28 25  1  0  0  0  0
 28 27  1  0  0  0  0
 29 30  1  0  0  0  0
M  END
>  <MODEL>
8

>  <REMARK>
 VINA RESULT:      -8.7      2.276      2.869
  Name = 
  3 active torsions:
  status: ('A' for Active; 'I' for Inactive)
    1  A    between atoms: C_1  and  N_25
    2  A    between atoms: N_7  and  C_30
    3  A    between atoms: CA_8  and  C_22
                            x       y       z     vdW  Elec       q    Type
                         _______ _______ _______ _____ _____    ______ ____

>  <TORSDO>
F 3

$$$$
=
 OpenBabel10232409193D

 30 34  0  0  1  0  0  0  0  0999 V2000
  187.9980  177.5630  144.7700 C   0  0  0  0  0  0  0  0  0  0  0  0
  185.6070  178.3420  145.2070 C   0  0  0  0  0  0  0  0  0  0  0  0
  187.0740  178.1970  146.0500 S   0  0  0  0  0  0  0  0  0  0  0  0
  188.5860  177.3290  141.5710 N   0  0  0  0  0  2  0  0  0  0  0  0
  183.5740  178.9610  141.0650 C   0  0  0  0  0  1  0  0  0  0  0  0
  184.5220  179.3100  145.5340 C   0  0  0  0  0  2  0  0  0  0  0  0
  183.0260  178.7880  143.5370 C   0  0  0  0  0  3  0  0  0  0  0  0
  187.3460  177.6010  142.2360 C   0  0  0  0  0  0  0  0  0  0  0  0
  185.8760  177.9110  143.9280 C   0  0  0  0  0  0  0  0  0  0  0  0
  185.2900  178.2660  142.6610 C   0  0  0  0  0  0  0  0  0  0  0  0
  187.1520  177.5050  143.6790 C   0  0  0  0  0  0  0  0  0  0  0  0
  183.2200  178.9940  144.8500 C   0  0  0  0  0  3  0  0  0  0  0  0
  186.2740  178.0420  141.6370 N   0  0  0  0  0  0  0  0  0  0  0  0
  184.0410  178.7060  142.4560 C   0  0  0  0  0  0  0  0  0  0  0  0
  190.7530  176.0010  147.7400 N   0  0  0  0  0  2  0  0  0  0  0  0
  193.0380  175.8290  147.8040 O   0  0  0  0  0  0  0  0  0  0  0  0
  191.9820  176.1630  147.2080 C   0  0  0  0  0  0  0  0  0  0  0  0
  190.2500  176.9230  145.7640 C   0  0  0  0  0  0  0  0  0  0  0  0
  189.7840  176.4250  146.9310 N   0  0  0  0  0  0  0  0  0  0  0  0
  189.4210  177.4280  144.7130 N   0  0  0  0  0  2  0  0  0  0  0  0
  191.9310  176.8530  145.6730 S   0  0  0  0  0  0  0  0  0  0  0  0
  190.3780  177.4120  138.3060 N   0  0  0  0  0  2  0  0  0  0  0  0
  189.3150  177.3840  137.3070 C   0  0  1  0  0  3  0  0  0  0  0  0
  188.0680  178.0670  137.8540 C   0  0  0  0  0  2  0  0  0  0  0  0
  190.0980  177.3410  139.7100 C   0  0  0  0  0  0  0  0  0  0  0  0
  191.1850  177.2880  140.6290 N   0  0  0  0  0  1  0  0  0  0  0  0
  187.6820  177.4060  139.1750 C   0  0  0  0  0  2  0  0  0  0  0  0
  188.8310  177.3890  140.1570 C   0  0  0  0  0  0  0  0  0  0  0  0
  189.6000  177.1770  134.9300 O   0  0  0  0  0  1  0  0  0  0  0  0
  189.7800  178.0390  136.0150 C   0  0  0  0  0  2  0  0  0  0  0  0
  1  3  1  0  0  0  0
  2  6  1  0  0  0  0
  2  3  1  0  0  0  0
  4  8  1  0  0  0  0
  5 14  1  0  0  0  0
  7 12  2  0  0  0  0
  8 11  1  0  0  0  0
  9  2  2  0  0  0  0
 10  9  1  0  0  0  0
 11  9  1  0  0  0  0
 11  1  2  0  0  0  0
 12  6  1  0  0  0  0
 13  8  2  0  0  0  0
 13 10  1  0  0  0  0
 14 10  2  0  0  0  0
 14  7  1  0  0  0  0
 17 15  1  0  0  0  0
 17 16  2  0  0  0  0
 18 19  2  0  0  0  0
 19 15  1  0  0  0  0
 20  1  1  0  0  0  0
 20 18  1  0  0  0  0
 21 18  1  0  0  0  0
 21 17  1  0  0  0  0
 22 25  1  0  0  0  0
 23 30  1  6  0  0  0
 23 24  1  0  0  0  0
 23 22  1  0  0  0  0
 24 27  1  0  0  0  0
 25 28  2  0  0  0  0
 25 26  1  0  0  0  0
 27 28  1  0  0  0  0
 28  4  1  0  0  0  0
 29 30  1  0  0  0  0
M  END
>  <MODEL>
9

>  <REMARK>
 VINA RESULT:      -8.4      2.399      7.004
  Name = 
  3 active torsions:
  status: ('A' for Active; 'I' for Inactive)
    1  A    between atoms: C_1  and  N_25
    2  A    between atoms: N_7  and  C_30
    3  A    between atoms: CA_8  and  C_22
                            x       y       z     vdW  Elec       q    Type
                         _______ _______ _______ _____ _____    ______ ____

>  <TORSDO>
F 3

$$$$
