=
 OpenBabel10232411593D

 41 46  0  0  1  0  0  0  0  0999 V2000
  188.6860  177.3170  140.8650 C   0  0  0  0  0  3  0  0  0  0  0  0
  189.0520  178.3840  141.5710 C   0  0  0  0  0  3  0  0  0  0  0  0
  189.9530  176.8560  144.8400 C   0  0  0  0  0  0  0  0  0  0  0  0
  189.2370  176.9040  143.5130 C   0  0  2  0  0  3  0  0  0  0  0  0
  189.0250  178.3340  143.0590 C   0  0  2  0  0  3  0  0  0  0  0  0
  191.9630  175.9440  146.0700 C   0  0  0  0  0  2  0  0  0  0  0  0
  187.2340  177.3350  147.0980 O   0  0  0  0  0  0  0  0  0  0  0  0
  187.9040  177.4390  146.0340 C   0  0  0  0  0  0  0  0  0  0  0  0
  187.8300  177.5160  143.5090 C   0  0  2  0  0  3  0  0  0  0  0  0
  191.4280  176.5530  144.7800 C   0  0  0  0  0  2  0  0  0  0  0  0
  191.5190  176.8010  147.2400 C   0  0  0  0  0  2  0  0  0  0  0  0
  189.3170  177.0400  146.0180 C   0  0  0  0  0  0  0  0  0  0  0  0
  189.9980  176.7600  147.3370 C   0  0  0  0  0  2  0  0  0  0  0  0
  187.3130  178.1060  144.8260 C   0  0  1  0  0  3  0  0  0  0  0  0
  185.7890  178.0540  144.8440 C   0  0  0  0  0  2  0  0  0  0  0  0
  185.2150  178.9870  143.7910 C   0  0  0  0  0  2  0  0  0  0  0  0
  183.9610  178.3850  143.1700 C   0  0  1  0  0  3  0  0  0  0  0  0
  181.7860  178.6540  144.0760 O   0  0  0  0  0  0  0  0  0  0  0  0
  182.7620  179.1870  143.5680 C   0  0  0  0  0  3  0  0  0  0  0  0
  184.0690  178.3350  141.6500 C   0  0  0  0  0  2  0  0  0  0  0  0
  185.3570  178.9830  141.1790 C   0  0  0  0  0  1  0  0  0  0  0  0
  188.7040  177.3430  139.3690 C   0  0  1  0  0  3  0  0  0  0  0  0
  188.9080  178.7600  138.8590 C   0  0  0  0  0  1  0  0  0  0  0  0
  191.8210  175.5780  138.4020 C   0  0  2  0  0  3  0  0  0  0  0  0
  190.9020  174.8320  136.1880 C   0  0  1  0  0  3  0  0  0  0  0  0
  189.6890  175.2110  135.6310 C   0  0  0  0  0  3  0  0  0  0  0  0
  192.1890  174.7610  135.5030 C   0  0  0  0  0  2  0  0  0  0  0  0
  191.0240  176.5000  139.2280 N   0  0  0  0  0  0  0  0  0  0  0  0
  189.6450  175.5230  137.7440 C   0  0  2  0  0  3  0  0  0  0  0  0
  193.2590  175.3330  136.0640 C   0  0  2  0  0  3  0  0  0  0  0  0
  189.7790  176.4490  138.8450 C   0  0  0  0  0  0  0  0  0  0  0  0
  193.0550  176.5280  137.4320 S   0  0  0  0  0  0  0  0  0  0  0  0
  190.8310  175.0010  137.5090 N   0  0  2  0  0  0  0  0  0  0  0  0
  188.8970  175.6810  136.6310 N   0  0  0  0  0  0  0  0  0  0  0  0
  198.5590  174.9620  137.0630 O   0  0  0  0  0  0  0  0  0  0  0  0
  196.9940  174.9660  135.3170 N   0  0  0  0  0  2  0  0  0  0  0  0
  195.8100  175.0810  136.1130 C   0  0  0  0  0  0  0  0  0  0  0  0
  195.8880  175.1350  137.3690 O   0  0  0  0  0  0  0  0  0  0  0  0
  199.4680  174.8000  134.8770 C   0  0  0  0  0  1  0  0  0  0  0  0
  198.3310  174.9130  135.8250 C   0  0  0  0  0  0  0  0  0  0  0  0
  194.5370  175.1070  135.4560 N   0  0  0  0  0  2  0  0  0  0  0  0
  1  2  2  0  0  0  0
  3 12  2  0  0  0  0
  4  3  1  1  0  0  0
  5  2  1  6  0  0  0
  5  9  1  0  0  0  0
  5  4  1  0  0  0  0
  6 11  1  0  0  0  0
  8  7  2  0  0  0  0
  9  4  1  0  0  0  0
  9 14  1  0  0  0  0
 10  3  1  0  0  0  0
 10  6  1  0  0  0  0
 11 13  1  0  0  0  0
 12  8  1  0  0  0  0
 12 13  1  0  0  0  0
 14 15  1  0  0  0  0
 14  8  1  0  0  0  0
 16 15  1  0  0  0  0
 17 19  1  0  0  0  0
 17 16  1  0  0  0  0
 19 18  2  0  0  0  0
 20 17  1  0  0  0  0
 21 20  1  0  0  0  0
 22  1  1  0  0  0  0
 23 22  1  0  0  0  0
 24 28  1  0  0  0  0
 25 33  1  0  0  0  0
 26 25  1  0  0  0  0
 26 34  2  0  0  0  0
 27 30  1  0  0  0  0
 27 25  1  0  0  0  0
 29 31  1  0  0  0  0
 30 32  1  0  0  0  0
 31 28  2  0  0  0  0
 31 22  1  0  0  0  0
 32 24  1  0  0  0  0
 33 29  1  0  0  0  0
 33 24  1  0  0  0  0
 34 29  1  0  0  0  0
 36 40  1  0  0  0  0
 36 37  1  0  0  0  0
 37 38  2  0  0  0  0
 39 40  1  0  0  0  0
 40 35  2  0  0  0  0
 41 30  1  0  0  0  0
 41 37  1  0  0  0  0
M  END
>  <MODEL>
1

>  <REMARK>
 VINA RESULT:      -9.6      0.000      0.000
  Name = 
  9 active torsions:
  status: ('A' for Active; 'I' for Inactive)
    1  A    between atoms: C_4  and  C_6
    2  A    between atoms: C_6  and  C_31
    3  A    between atoms: C_7  and  C_13
    4  A    between atoms: C_10  and  C_26
    5  A    between atoms: C_11  and  C_25
    6  A    between atoms: C_11  and  C_38
    7  A    between atoms: C_25  and  C_26
    8  A    between atoms: C_26  and  C_40
    9  A    between atoms: C_27  and  N_41
                            x       y       z     vdW  Elec       q    Type
                         _______ _______ _______ _____ _____    ______ ____

>  <TORSDO>
F 9

$$$$
=
 OpenBabel10232411593D

 41 46  0  0  1  0  0  0  0  0999 V2000
  188.9760  177.2520  140.8400 C   0  0  0  0  0  3  0  0  0  0  0  0
  188.0650  177.7400  141.6790 C   0  0  0  0  0  3  0  0  0  0  0  0
  189.7070  176.6540  144.8350 C   0  0  0  0  0  0  0  0  0  0  0  0
  188.6920  176.5470  143.7240 C   0  0  2  0  0  3  0  0  0  0  0  0
  188.3970  177.9050  143.1210 C   0  0  2  0  0  3  0  0  0  0  0  0
  191.9410  175.8290  145.6770 C   0  0  0  0  0  2  0  0  0  0  0  0
  187.6200  177.5880  147.5730 O   0  0  0  0  0  0  0  0  0  0  0  0
  188.0150  177.5050  146.3770 C   0  0  0  0  0  0  0  0  0  0  0  0
  187.3340  177.2210  143.9600 C   0  0  2  0  0  3  0  0  0  0  0  0
  191.1190  176.2720  144.4740 C   0  0  0  0  0  2  0  0  0  0  0  0
  191.8050  176.8670  146.7750 C   0  0  0  0  0  2  0  0  0  0  0  0
  189.3770  177.0380  146.0880 C   0  0  0  0  0  0  0  0  0  0  0  0
  190.3530  176.9160  147.2350 C   0  0  0  0  0  2  0  0  0  0  0  0
  187.1590  178.0190  145.2560 C   0  0  1  0  0  3  0  0  0  0  0  0
  185.6850  178.0470  145.6420 C   0  0  0  0  0  2  0  0  0  0  0  0
  184.9770  179.2000  144.9500 C   0  0  0  0  0  2  0  0  0  0  0  0
  184.0570  178.6810  143.8520 C   0  0  1  0  0  3  0  0  0  0  0  0
  181.7040  178.5790  144.1280 O   0  0  0  0  0  0  0  0  0  0  0  0
  182.6960  179.2830  144.0040 C   0  0  0  0  0  3  0  0  0  0  0  0
  184.6140  179.0020  142.4700 C   0  0  0  0  0  2  0  0  0  0  0  0
  184.0590  178.0490  141.4280 C   0  0  0  0  0  1  0  0  0  0  0  0
  188.6650  177.0760  139.3870 C   0  0  1  0  0  3  0  0  0  0  0  0
  187.8980  178.2730  138.8520 C   0  0  0  0  0  1  0  0  0  0  0  0
  191.4240  176.0670  137.1200 C   0  0  2  0  0  3  0  0  0  0  0  0
  193.2140  176.6110  138.7940 C   0  0  1  0  0  3  0  0  0  0  0  0
  193.0190  176.9780  140.1180 C   0  0  0  0  0  3  0  0  0  0  0  0
  194.1900  175.6490  138.2940 C   0  0  0  0  0  2  0  0  0  0  0  0
  190.0140  176.1410  137.5380 N   0  0  0  0  0  0  0  0  0  0  0  0
  191.2370  177.3400  138.9950 C   0  0  2  0  0  3  0  0  0  0  0  0
  193.7920  174.6950  137.4460 C   0  0  2  0  0  3  0  0  0  0  0  0
  189.9230  176.8810  138.6060 C   0  0  0  0  0  0  0  0  0  0  0  0
  192.0130  174.3330  137.2370 S   0  0  0  0  0  0  0  0  0  0  0  0
  192.1010  176.8840  138.1120 N   0  0  2  0  0  0  0  0  0  0  0  0
  191.7390  177.4180  140.2470 N   0  0  0  0  0  0  0  0  0  0  0  0
  196.7660  170.2350  138.1460 O   0  0  0  0  0  0  0  0  0  0  0  0
  196.4540  172.0510  136.6950 N   0  0  0  0  0  2  0  0  0  0  0  0
  195.3670  172.6730  137.3880 C   0  0  0  0  0  0  0  0  0  0  0  0
  194.9080  172.1640  138.4450 O   0  0  0  0  0  0  0  0  0  0  0  0
  198.2390  170.3220  136.2870 C   0  0  0  0  0  1  0  0  0  0  0  0
  197.1170  170.8500  137.1040 C   0  0  0  0  0  0  0  0  0  0  0  0
  194.7960  173.8690  136.8440 N   0  0  0  0  0  2  0  0  0  0  0  0
  1  2  2  0  0  0  0
  3 12  2  0  0  0  0
  4  9  1  0  0  0  0
  4  3  1  1  0  0  0
  5  2  1  6  0  0  0
  5  4  1  0  0  0  0
  5  9  1  0  0  0  0
  6 11  1  0  0  0  0
  8  7  2  0  0  0  0
  9 14  1  0  0  0  0
 10  3  1  0  0  0  0
 10  6  1  0  0  0  0
 11 13  1  0  0  0  0
 12  8  1  0  0  0  0
 12 13  1  0  0  0  0
 14 15  1  0  0  0  0
 14  8  1  0  0  0  0
 16 15  1  0  0  0  0
 17 19  1  0  0  0  0
 17 16  1  0  0  0  0
 19 18  2  0  0  0  0
 20 17  1  0  0  0  0
 21 20  1  0  0  0  0
 22  1  1  0  0  0  0
 23 22  1  0  0  0  0
 24 32  1  0  0  0  0
 24 28  1  0  0  0  0
 24 33  1  0  0  0  0
 25 26  1  0  0  0  0
 26 34  2  0  0  0  0
 27 25  1  0  0  0  0
 28 31  2  0  0  0  0
 29 34  1  0  0  0  0
 30 27  1  0  0  0  0
 31 29  1  0  0  0  0
 31 22  1  0  0  0  0
 32 30  1  0  0  0  0
 33 25  1  0  0  0  0
 33 29  1  0  0  0  0
 36 40  1  0  0  0  0
 36 37  1  0  0  0  0
 37 38  2  0  0  0  0
 39 40  1  0  0  0  0
 40 35  2  0  0  0  0
 41 37  1  0  0  0  0
 41 30  1  0  0  0  0
M  END
>  <MODEL>
2

>  <REMARK>
 VINA RESULT:      -8.6      1.882      2.368
  Name = 
  9 active torsions:
  status: ('A' for Active; 'I' for Inactive)
    1  A    between atoms: C_4  and  C_6
    2  A    between atoms: C_6  and  C_31
    3  A    between atoms: C_7  and  C_13
    4  A    between atoms: C_10  and  C_26
    5  A    between atoms: C_11  and  C_25
    6  A    between atoms: C_11  and  C_38
    7  A    between atoms: C_25  and  C_26
    8  A    between atoms: C_26  and  C_40
    9  A    between atoms: C_27  and  N_41
                            x       y       z     vdW  Elec       q    Type
                         _______ _______ _______ _____ _____    ______ ____

>  <TORSDO>
F 9

$$$$
=
 OpenBabel10232411593D

 41 46  0  0  1  0  0  0  0  0999 V2000
  187.8620  178.0860  139.4480 C   0  0  0  0  0  3  0  0  0  0  0  0
  188.5820  178.4520  140.5070 C   0  0  0  0  0  3  0  0  0  0  0  0
  187.8260  177.5810  144.0420 C   0  0  0  0  0  0  0  0  0  0  0  0
  187.7620  177.3780  142.5490 C   0  0  2  0  0  3  0  0  0  0  0  0
  187.9100  178.6940  141.8130 C   0  0  2  0  0  3  0  0  0  0  0  0
  189.0070  176.9000  146.1700 C   0  0  0  0  0  2  0  0  0  0  0  0
  184.4590  178.5290  144.7450 O   0  0  0  0  0  0  0  0  0  0  0  0
  185.5300  178.4140  144.0870 C   0  0  0  0  0  0  0  0  0  0  0  0
  186.5630  177.9960  141.8180 C   0  0  2  0  0  3  0  0  0  0  0  0
  189.1440  177.2520  144.6940 C   0  0  0  0  0  2  0  0  0  0  0  0
  188.1870  177.9760  146.8580 C   0  0  0  0  0  2  0  0  0  0  0  0
  186.7650  178.0010  144.7660 C   0  0  0  0  0  0  0  0  0  0  0  0
  186.7780  177.9750  146.2770 C   0  0  0  0  0  2  0  0  0  0  0  0
  185.5880  178.8390  142.6480 C   0  0  1  0  0  3  0  0  0  0  0  0
  184.2100  178.8120  141.9980 C   0  0  0  0  0  2  0  0  0  0  0  0
  184.1100  177.6580  141.0150 C   0  0  0  0  0  2  0  0  0  0  0  0
  183.7860  178.1720  139.6180 C   0  0  1  0  0  3  0  0  0  0  0  0
  182.8020  176.0400  139.2900 O   0  0  0  0  0  0  0  0  0  0  0  0
  183.2490  177.0560  138.7780 C   0  0  0  0  0  3  0  0  0  0  0  0
  182.7770  179.3130  139.6710 C   0  0  0  0  0  2  0  0  0  0  0  0
  182.0180  179.4240  138.3630 C   0  0  0  0  0  1  0  0  0  0  0  0
  188.5150  177.8380  138.1250 C   0  0  1  0  0  3  0  0  0  0  0  0
  188.9810  179.1440  137.5020 C   0  0  0  0  0  1  0  0  0  0  0  0
  191.7730  176.1160  138.5560 C   0  0  2  0  0  3  0  0  0  0  0  0
  191.1200  174.1740  137.1060 C   0  0  1  0  0  3  0  0  0  0  0  0
  189.9620  174.0630  136.3500 C   0  0  0  0  0  3  0  0  0  0  0  0
  192.4740  173.8410  136.6740 C   0  0  0  0  0  2  0  0  0  0  0  0
  190.8630  177.2700  138.6510 N   0  0  0  0  0  0  0  0  0  0  0  0
  189.6820  175.5090  137.8980 C   0  0  2  0  0  3  0  0  0  0  0  0
  193.4590  174.7210  136.8810 C   0  0  2  0  0  3  0  0  0  0  0  0
  189.6680  176.9030  138.2800 C   0  0  0  0  0  0  0  0  0  0  0  0
  193.0720  176.4560  137.3040 S   0  0  0  0  0  0  0  0  0  0  0  0
  190.9030  175.0520  138.0850 N   0  0  2  0  0  0  0  0  0  0  0  0
  189.0520  174.9440  136.8460 N   0  0  0  0  0  0  0  0  0  0  0  0
  198.5080  174.6830  138.8140 O   0  0  0  0  0  0  0  0  0  0  0  0
  197.2380  174.1190  136.9250 N   0  0  0  0  0  2  0  0  0  0  0  0
  195.9520  174.4920  137.4330 C   0  0  0  0  0  0  0  0  0  0  0  0
  195.8360  174.9550  138.5980 O   0  0  0  0  0  0  0  0  0  0  0  0
  199.7370  173.8100  136.9810 C   0  0  0  0  0  1  0  0  0  0  0  0
  198.4730  174.2310  137.6380 C   0  0  0  0  0  0  0  0  0  0  0  0
  194.8010  174.3040  136.6000 N   0  0  0  0  0  2  0  0  0  0  0  0
  1  2  2  0  0  0  0
  3 10  1  0  0  0  0
  3 12  2  0  0  0  0
  4  3  1  1  0  0  0
  5  2  1  6  0  0  0
  5  9  1  0  0  0  0
  5  4  1  0  0  0  0
  6 11  1  0  0  0  0
  8  7  2  0  0  0  0
  8 12  1  0  0  0  0
  9  4  1  0  0  0  0
  9 14  1  0  0  0  0
 10  6  1  0  0  0  0
 12 13  1  0  0  0  0
 13 11  1  0  0  0  0
 14  8  1  0  0  0  0
 15 14  1  0  0  0  0
 16 15  1  0  0  0  0
 17 20  1  0  0  0  0
 17 16  1  0  0  0  0
 19 18  2  0  0  0  0
 19 17  1  0  0  0  0
 21 20  1  0  0  0  0
 22 31  1  0  0  0  0
 22  1  1  0  0  0  0
 23 22  1  0  0  0  0
 24 28  1  0  0  0  0
 25 33  1  0  0  0  0
 26 34  2  0  0  0  0
 26 25  1  0  0  0  0
 27 30  1  0  0  0  0
 27 25  1  0  0  0  0
 29 33  1  0  0  0  0
 29 31  1  0  0  0  0
 30 32  1  0  0  0  0
 31 28  2  0  0  0  0
 32 24  1  0  0  0  0
 33 24  1  0  0  0  0
 34 29  1  0  0  0  0
 36 37  1  0  0  0  0
 36 40  1  0  0  0  0
 37 38  2  0  0  0  0
 39 40  1  0  0  0  0
 40 35  2  0  0  0  0
 41 30  1  0  0  0  0
 41 37  1  0  0  0  0
M  END
>  <MODEL>
3

>  <REMARK>
 VINA RESULT:      -8.2      1.741      2.509
  Name = 
  9 active torsions:
  status: ('A' for Active; 'I' for Inactive)
    1  A    between atoms: C_4  and  C_6
    2  A    between atoms: C_6  and  C_31
    3  A    between atoms: C_7  and  C_13
    4  A    between atoms: C_10  and  C_26
    5  A    between atoms: C_11  and  C_25
    6  A    between atoms: C_11  and  C_38
    7  A    between atoms: C_25  and  C_26
    8  A    between atoms: C_26  and  C_40
    9  A    between atoms: C_27  and  N_41
                            x       y       z     vdW  Elec       q    Type
                         _______ _______ _______ _____ _____    ______ ____

>  <TORSDO>
F 9

$$$$
=
 OpenBabel10232411593D

 41 46  0  0  1  0  0  0  0  0999 V2000
  183.7330  177.8290  139.3080 C   0  0  0  0  0  3  0  0  0  0  0  0
  183.2910  177.9030  138.0550 C   0  0  0  0  0  3  0  0  0  0  0  0
  184.7230  174.7070  136.8050 C   0  0  0  0  0  0  0  0  0  0  0  0
  184.7170  175.9540  137.6530 C   0  0  2  0  0  3  0  0  0  0  0  0
  183.9090  177.0560  136.9980 C   0  0  2  0  0  3  0  0  0  0  0  0
  184.2120  172.2320  136.7660 C   0  0  0  0  0  2  0  0  0  0  0  0
  187.3360  175.4660  134.4980 O   0  0  0  0  0  0  0  0  0  0  0  0
  186.3750  175.6750  135.2880 C   0  0  0  0  0  0  0  0  0  0  0  0
  185.4190  177.1890  137.0710 C   0  0  2  0  0  3  0  0  0  0  0  0
  183.7760  173.6160  137.2340 C   0  0  0  0  0  2  0  0  0  0  0  0
  184.5150  172.2880  135.2810 C   0  0  0  0  0  2  0  0  0  0  0  0
  185.5440  174.5530  135.7420 C   0  0  0  0  0  0  0  0  0  0  0  0
  185.7000  173.2180  135.0510 C   0  0  0  0  0  2  0  0  0  0  0  0
  185.9800  177.0780  135.6500 C   0  0  1  0  0  3  0  0  0  0  0  0
  187.1420  178.0500  135.4840 C   0  0  0  0  0  2  0  0  0  0  0  0
  187.4720  178.7130  136.8100 C   0  0  0  0  0  2  0  0  0  0  0  0
  188.9540  178.5620  137.1300 C   0  0  1  0  0  3  0  0  0  0  0  0
  188.2950  178.8550  139.3890 O   0  0  0  0  0  0  0  0  0  0  0  0
  189.1460  178.4510  138.6090 C   0  0  0  0  0  3  0  0  0  0  0  0
  189.5450  177.3390  136.4380 C   0  0  0  0  0  2  0  0  0  0  0  0
  189.6120  176.1600  137.3900 C   0  0  0  0  0  1  0  0  0  0  0  0
  183.1290  178.6720  140.3860 C   0  0  1  0  0  3  0  0  0  0  0  0
  181.8910  178.0020  140.9610 C   0  0  0  0  0  1  0  0  0  0  0  0
  186.0360  178.8810  142.6820 C   0  0  2  0  0  3  0  0  0  0  0  0
  184.6050  179.0230  144.7400 C   0  0  1  0  0  3  0  0  0  0  0  0
  183.2270  178.8730  144.7960 C   0  0  0  0  0  3  0  0  0  0  0  0
  185.5810  178.4290  145.6480 C   0  0  0  0  0  2  0  0  0  0  0  0
  185.3910  178.6250  141.3840 N   0  0  0  0  0  0  0  0  0  0  0  0
  183.8200  179.3790  142.8070 C   0  0  2  0  0  3  0  0  0  0  0  0
  186.6410  177.7920  145.1410 C   0  0  2  0  0  3  0  0  0  0  0  0
  184.1250  178.9240  141.4690 C   0  0  0  0  0  0  0  0  0  0  0  0
  186.6680  177.3050  143.3790 S   0  0  0  0  0  0  0  0  0  0  0  0
  184.9410  179.3760  143.4990 N   0  0  2  0  0  0  0  0  0  0  0  0
  182.7320  179.0750  143.5450 N   0  0  0  0  0  0  0  0  0  0  0  0
  191.9840  177.2070  145.7230 O   0  0  0  0  0  0  0  0  0  0  0  0
  189.9410  176.7820  146.7940 N   0  0  0  0  0  2  0  0  0  0  0  0
  189.0780  177.3680  145.8130 C   0  0  0  0  0  0  0  0  0  0  0  0
  189.5580  177.8960  144.7740 O   0  0  0  0  0  0  0  0  0  0  0  0
  192.1370  176.0750  147.8030 C   0  0  0  0  0  1  0  0  0  0  0  0
  191.3690  176.7220  146.7100 C   0  0  0  0  0  0  0  0  0  0  0  0
  187.6650  177.3640  146.0480 N   0  0  0  0  0  2  0  0  0  0  0  0
  1 22  1  0  0  0  0
  2  1  2  0  0  0  0
  3 10  1  0  0  0  0
  4  3  1  6  0  0  0
  5  9  1  0  0  0  0
  5  4  1  0  0  0  0
  5  2  1  1  0  0  0
  6 10  1  0  0  0  0
  7  8  2  0  0  0  0
  8 14  1  0  0  0  0
  8 12  1  0  0  0  0
  9  4  1  0  0  0  0
 11  6  1  0  0  0  0
 12  3  2  0  0  0  0
 13 11  1  0  0  0  0
 13 12  1  0  0  0  0
 14  9  1  0  0  0  0
 15 14  1  0  0  0  0
 15 16  1  0  0  0  0
 16 17  1  0  0  0  0
 17 19  1  0  0  0  0
 19 18  2  0  0  0  0
 20 17  1  0  0  0  0
 20 21  1  0  0  0  0
 22 23  1  0  0  0  0
 22 31  1  0  0  0  0
 24 32  1  0  0  0  0
 24 33  1  0  0  0  0
 25 26  1  0  0  0  0
 25 27  1  0  0  0  0
 28 31  2  0  0  0  0
 28 24  1  0  0  0  0
 29 33  1  0  0  0  0
 29 34  1  0  0  0  0
 30 27  1  0  0  0  0
 30 41  1  0  0  0  0
 31 29  1  0  0  0  0
 32 30  1  0  0  0  0
 33 25  1  0  0  0  0
 34 26  2  0  0  0  0
 35 40  2  0  0  0  0
 37 41  1  0  0  0  0
 37 36  1  0  0  0  0
 38 37  2  0  0  0  0
 40 36  1  0  0  0  0
 40 39  1  0  0  0  0
M  END
>  <MODEL>
4

>  <REMARK>
 VINA RESULT:      -8.2      5.258     10.115
  Name = 
  9 active torsions:
  status: ('A' for Active; 'I' for Inactive)
    1  A    between atoms: C_4  and  C_6
    2  A    between atoms: C_6  and  C_31
    3  A    between atoms: C_7  and  C_13
    4  A    between atoms: C_10  and  C_26
    5  A    between atoms: C_11  and  C_25
    6  A    between atoms: C_11  and  C_38
    7  A    between atoms: C_25  and  C_26
    8  A    between atoms: C_26  and  C_40
    9  A    between atoms: C_27  and  N_41
                            x       y       z     vdW  Elec       q    Type
                         _______ _______ _______ _____ _____    ______ ____

>  <TORSDO>
F 9

$$$$
=
 OpenBabel10232411593D

 41 46  0  0  1  0  0  0  0  0999 V2000
  185.2610  178.0450  139.9830 C   0  0  0  0  0  3  0  0  0  0  0  0
  185.2420  179.1570  140.7130 C   0  0  0  0  0  3  0  0  0  0  0  0
  187.2420  177.6750  143.4770 C   0  0  0  0  0  0  0  0  0  0  0  0
  186.0980  177.7110  142.4940 C   0  0  2  0  0  3  0  0  0  0  0  0
  185.7500  179.1350  142.1130 C   0  0  2  0  0  3  0  0  0  0  0  0
  189.5510  176.7530  143.9250 C   0  0  0  0  0  2  0  0  0  0  0  0
  185.5180  178.2410  146.5480 O   0  0  0  0  0  0  0  0  0  0  0  0
  185.7620  178.3140  145.3120 C   0  0  0  0  0  0  0  0  0  0  0  0
  184.7880  178.3450  142.9810 C   0  0  2  0  0  3  0  0  0  0  0  0
  188.5940  177.3470  142.8990 C   0  0  0  0  0  2  0  0  0  0  0  0
  189.5640  177.6400  145.1560 C   0  0  0  0  0  2  0  0  0  0  0  0
  187.0720  177.8920  144.8000 C   0  0  0  0  0  0  0  0  0  0  0  0
  188.1790  177.6250  145.7930 C   0  0  0  0  0  2  0  0  0  0  0  0
  184.7830  178.9680  144.3810 C   0  0  1  0  0  3  0  0  0  0  0  0
  183.3670  178.9410  144.9450 C   0  0  0  0  0  2  0  0  0  0  0  0
  182.4230  179.7210  144.0440 C   0  0  0  0  0  2  0  0  0  0  0  0
  181.5090  178.7720  143.2790 C   0  0  1  0  0  3  0  0  0  0  0  0
  179.9820  177.2310  144.2360 O   0  0  0  0  0  0  0  0  0  0  0  0
  180.3390  178.3950  144.1320 C   0  0  0  0  0  3  0  0  0  0  0  0
  181.0210  179.4060  141.9810 C   0  0  0  0  0  2  0  0  0  0  0  0
  181.7050  178.7780  140.7820 C   0  0  0  0  0  1  0  0  0  0  0  0
  184.7560  178.0410  138.5750 C   0  0  1  0  0  3  0  0  0  0  0  0
  184.2830  179.4270  138.1710 C   0  0  0  0  0  1  0  0  0  0  0  0
  187.1200  176.2180  136.3730 C   0  0  2  0  0  3  0  0  0  0  0  0
  189.0300  177.7700  136.8680 C   0  0  1  0  0  3  0  0  0  0  0  0
  189.0390  178.7880  137.8090 C   0  0  0  0  0  3  0  0  0  0  0  0
  190.0880  176.7920  136.6350 C   0  0  0  0  0  2  0  0  0  0  0  0
  185.8640  176.3730  137.1250 N   0  0  0  0  0  0  0  0  0  0  0  0
  187.0250  178.2920  137.3000 C   0  0  2  0  0  3  0  0  0  0  0  0
  189.7730  175.4950  136.5610 C   0  0  2  0  0  3  0  0  0  0  0  0
  185.8200  177.5690  137.6410 C   0  0  0  0  0  0  0  0  0  0  0  0
  188.1450  174.9070  137.1470 S   0  0  0  0  0  0  0  0  0  0  0  0
  187.7640  177.5090  136.5410 N   0  0  2  0  0  0  0  0  0  0  0  0
  187.7490  179.1000  138.1040 N   0  0  0  0  0  0  0  0  0  0  0  0
  194.4800  173.3090  138.0740 O   0  0  0  0  0  0  0  0  0  0  0  0
  192.9590  173.3930  136.2910 N   0  0  0  0  0  2  0  0  0  0  0  0
  191.9810  174.2400  136.9050 C   0  0  0  0  0  0  0  0  0  0  0  0
  192.1500  174.6630  138.0800 O   0  0  0  0  0  0  0  0  0  0  0  0
  195.1050  172.0840  136.1410 C   0  0  0  0  0  1  0  0  0  0  0  0
  194.1790  172.9600  136.9020 C   0  0  0  0  0  0  0  0  0  0  0  0
  190.8000  174.5760  136.1680 N   0  0  0  0  0  2  0  0  0  0  0  0
  1  2  2  0  0  0  0
  3 12  2  0  0  0  0
  4  9  1  0  0  0  0
  4  3  1  1  0  0  0
  5  2  1  6  0  0  0
  5  4  1  0  0  0  0
  5  9  1  0  0  0  0
  6 11  1  0  0  0  0
  8  7  2  0  0  0  0
  9 14  1  0  0  0  0
 10  3  1  0  0  0  0
 10  6  1  0  0  0  0
 11 13  1  0  0  0  0
 12  8  1  0  0  0  0
 12 13  1  0  0  0  0
 14 15  1  0  0  0  0
 14  8  1  0  0  0  0
 16 15  1  0  0  0  0
 17 16  1  0  0  0  0
 17 19  1  0  0  0  0
 19 18  2  0  0  0  0
 20 17  1  0  0  0  0
 21 20  1  0  0  0  0
 22  1  1  0  0  0  0
 23 22  1  0  0  0  0
 24 33  1  0  0  0  0
 24 28  1  0  0  0  0
 24 32  1  0  0  0  0
 25 26  1  0  0  0  0
 26 34  2  0  0  0  0
 27 25  1  0  0  0  0
 28 31  2  0  0  0  0
 29 31  1  0  0  0  0
 29 34  1  0  0  0  0
 30 27  1  0  0  0  0
 30 32  1  0  0  0  0
 31 22  1  0  0  0  0
 33 25  1  0  0  0  0
 33 29  1  0  0  0  0
 36 40  1  0  0  0  0
 36 37  1  0  0  0  0
 37 38  2  0  0  0  0
 39 40  1  0  0  0  0
 40 35  2  0  0  0  0
 41 30  1  0  0  0  0
 41 37  1  0  0  0  0
M  END
>  <MODEL>
5

>  <REMARK>
 VINA RESULT:      -8.1      2.377      3.730
  Name = 
  9 active torsions:
  status: ('A' for Active; 'I' for Inactive)
    1  A    between atoms: C_4  and  C_6
    2  A    between atoms: C_6  and  C_31
    3  A    between atoms: C_7  and  C_13
    4  A    between atoms: C_10  and  C_26
    5  A    between atoms: C_11  and  C_25
    6  A    between atoms: C_11  and  C_38
    7  A    between atoms: C_25  and  C_26
    8  A    between atoms: C_26  and  C_40
    9  A    between atoms: C_27  and  N_41
                            x       y       z     vdW  Elec       q    Type
                         _______ _______ _______ _____ _____    ______ ____

>  <TORSDO>
F 9

$$$$
=
 OpenBabel10232411593D

 41 46  0  0  1  0  0  0  0  0999 V2000
  186.5770  177.8300  140.1750 C   0  0  0  0  0  3  0  0  0  0  0  0
  185.9680  178.8740  140.7320 C   0  0  0  0  0  3  0  0  0  0  0  0
  186.8850  177.7830  144.1670 C   0  0  0  0  0  0  0  0  0  0  0  0
  186.1370  177.6780  142.8610 C   0  0  2  0  0  3  0  0  0  0  0  0
  185.9790  179.0370  142.2110 C   0  0  2  0  0  3  0  0  0  0  0  0
  188.8840  176.9570  145.4740 C   0  0  0  0  0  2  0  0  0  0  0  0
  184.2520  178.7120  146.3870 O   0  0  0  0  0  0  0  0  0  0  0  0
  184.8980  178.6300  145.3060 C   0  0  0  0  0  0  0  0  0  0  0  0
  184.7590  178.3510  142.7980 C   0  0  2  0  0  3  0  0  0  0  0  0
  188.3430  177.4020  144.1210 C   0  0  0  0  0  2  0  0  0  0  0  0
  188.5110  177.9940  146.5180 C   0  0  0  0  0  2  0  0  0  0  0  0
  186.2900  178.1640  145.3190 C   0  0  0  0  0  0  0  0  0  0  0  0
  186.9930  178.0410  146.6500 C   0  0  0  0  0  2  0  0  0  0  0  0
  184.3060  179.1470  144.0260 C   0  0  1  0  0  3  0  0  0  0  0  0
  182.7830  179.1730  144.0820 C   0  0  0  0  0  2  0  0  0  0  0  0
  182.1960  178.7890  142.7340 C   0  0  0  0  0  2  0  0  0  0  0  0
  180.7020  178.5160  142.8600 C   0  0  1  0  0  3  0  0  0  0  0  0
  180.0900  180.7790  142.5050 O   0  0  0  0  0  0  0  0  0  0  0  0
  179.9820  179.7810  143.2030 C   0  0  0  0  0  3  0  0  0  0  0  0
  180.1390  177.9330  141.5680 C   0  0  0  0  0  2  0  0  0  0  0  0
  181.2190  177.8280  140.5080 C   0  0  0  0  0  1  0  0  0  0  0  0
  186.5790  177.6430  138.6910 C   0  0  1  0  0  3  0  0  0  0  0  0
  185.8890  178.8080  138.0010 C   0  0  0  0  0  1  0  0  0  0  0  0
  189.7600  176.8560  136.9500 C   0  0  2  0  0  3  0  0  0  0  0  0
  191.1310  177.0060  139.0470 C   0  0  1  0  0  3  0  0  0  0  0  0
  190.6470  177.1600  140.3380 C   0  0  0  0  0  3  0  0  0  0  0  0
  192.1750  176.0820  138.6150 C   0  0  0  0  0  2  0  0  0  0  0  0
  188.2940  176.9460  137.0510 N   0  0  0  0  0  0  0  0  0  0  0  0
  189.1780  177.8110  138.9300 C   0  0  2  0  0  3  0  0  0  0  0  0
  191.9590  175.3070  137.5470 C   0  0  2  0  0  3  0  0  0  0  0  0
  187.9770  177.5040  138.1860 C   0  0  0  0  0  0  0  0  0  0  0  0
  190.2670  175.0940  136.8890 S   0  0  0  0  0  0  0  0  0  0  0  0
  190.2100  177.4560  138.1940 N   0  0  2  0  0  0  0  0  0  0  0  0
  189.3810  177.6510  140.2550 N   0  0  0  0  0  0  0  0  0  0  0  0
  197.3540  175.0020  137.3580 O   0  0  0  0  0  0  0  0  0  0  0  0
  195.4060  173.9800  136.5440 N   0  0  0  0  0  2  0  0  0  0  0  0
  194.4520  174.8010  137.2280 C   0  0  0  0  0  0  0  0  0  0  0  0
  194.8370  175.7260  137.9910 O   0  0  0  0  0  0  0  0  0  0  0  0
  197.6980  173.1940  135.8600 C   0  0  0  0  0  1  0  0  0  0  0  0
  196.8280  174.1150  136.6340 C   0  0  0  0  0  0  0  0  0  0  0  0
  193.0560  174.5320  137.0470 N   0  0  0  0  0  2  0  0  0  0  0  0
  1  2  2  0  0  0  0
  3 12  2  0  0  0  0
  4  3  1  1  0  0  0
  5  2  1  6  0  0  0
  5  9  1  0  0  0  0
  5  4  1  0  0  0  0
  6 11  1  0  0  0  0
  8 12  1  0  0  0  0
  8  7  2  0  0  0  0
  9  4  1  0  0  0  0
  9 14  1  0  0  0  0
 10  3  1  0  0  0  0
 10  6  1  0  0  0  0
 11 13  1  0  0  0  0
 12 13  1  0  0  0  0
 14 15  1  0  0  0  0
 14  8  1  0  0  0  0
 16 17  1  0  0  0  0
 16 15  1  0  0  0  0
 17 19  1  0  0  0  0
 18 19  2  0  0  0  0
 20 17  1  0  0  0  0
 21 20  1  0  0  0  0
 22  1  1  0  0  0  0
 23 22  1  0  0  0  0
 24 28  1  0  0  0  0
 24 33  1  0  0  0  0
 25 26  1  0  0  0  0
 27 25  1  0  0  0  0
 28 31  2  0  0  0  0
 29 34  1  0  0  0  0
 30 27  1  0  0  0  0
 31 22  1  0  0  0  0
 31 29  1  0  0  0  0
 32 24  1  0  0  0  0
 32 30  1  0  0  0  0
 33 29  1  0  0  0  0
 33 25  1  0  0  0  0
 34 26  2  0  0  0  0
 36 40  1  0  0  0  0
 36 37  1  0  0  0  0
 37 38  2  0  0  0  0
 39 40  1  0  0  0  0
 40 35  2  0  0  0  0
 41 37  1  0  0  0  0
 41 30  1  0  0  0  0
M  END
>  <MODEL>
6

>  <REMARK>
 VINA RESULT:      -7.9      1.864      3.098
  Name = 
  9 active torsions:
  status: ('A' for Active; 'I' for Inactive)
    1  A    between atoms: C_4  and  C_6
    2  A    between atoms: C_6  and  C_31
    3  A    between atoms: C_7  and  C_13
    4  A    between atoms: C_10  and  C_26
    5  A    between atoms: C_11  and  C_25
    6  A    between atoms: C_11  and  C_38
    7  A    between atoms: C_25  and  C_26
    8  A    between atoms: C_26  and  C_40
    9  A    between atoms: C_27  and  N_41
                            x       y       z     vdW  Elec       q    Type
                         _______ _______ _______ _____ _____    ______ ____

>  <TORSDO>
F 9

$$$$
=
 OpenBabel10232411593D

 41 46  0  0  1  0  0  0  0  0999 V2000
  185.8240  178.4400  143.6730 C   0  0  0  0  0  3  0  0  0  0  0  0
  186.1660  177.1590  143.7830 C   0  0  0  0  0  3  0  0  0  0  0  0
  189.5680  177.2070  145.2840 C   0  0  0  0  0  0  0  0  0  0  0  0
  188.3850  177.8210  144.5770 C   0  0  2  0  0  3  0  0  0  0  0  0
  187.6040  176.7740  143.8110 C   0  0  2  0  0  3  0  0  0  0  0  0
  190.7100  176.9050  147.5180 C   0  0  0  0  0  2  0  0  0  0  0  0
  191.9680  177.1240  142.6460 O   0  0  0  0  0  0  0  0  0  0  0  0
  190.8330  177.0990  143.1980 C   0  0  0  0  0  0  0  0  0  0  0  0
  188.4120  177.8040  143.0430 C   0  0  2  0  0  3  0  0  0  0  0  0
  189.3910  176.9470  146.7580 C   0  0  0  0  0  2  0  0  0  0  0  0
  191.6630  175.9680  146.7980 C   0  0  0  0  0  2  0  0  0  0  0  0
  190.7310  176.9320  144.6530 C   0  0  0  0  0  0  0  0  0  0  0  0
  191.9720  176.5380  145.4190 C   0  0  0  0  0  2  0  0  0  0  0  0
  189.5840  177.0870  142.3650 C   0  0  1  0  0  3  0  0  0  0  0  0
  189.8210  177.6900  140.9860 C   0  0  0  0  0  2  0  0  0  0  0  0
  189.3480  176.7370  139.9020 C   0  0  0  0  0  2  0  0  0  0  0  0
  190.1720  176.9180  138.6330 C   0  0  1  0  0  3  0  0  0  0  0  0
  190.9900  174.7610  138.0810 O   0  0  0  0  0  0  0  0  0  0  0  0
  190.1780  175.6450  137.8460 C   0  0  0  0  0  3  0  0  0  0  0  0
  189.6220  178.0530  137.7770 C   0  0  0  0  0  2  0  0  0  0  0  0
  188.4000  177.6020  137.0010 C   0  0  0  0  0  1  0  0  0  0  0  0
  184.3870  178.8520  143.6410 C   0  0  1  0  0  3  0  0  0  0  0  0
  184.2170  180.2550  144.2000 C   0  0  0  0  0  1  0  0  0  0  0  0
  182.5890  178.2360  140.4540 C   0  0  2  0  0  3  0  0  0  0  0  0
  184.6620  178.4580  139.0560 C   0  0  1  0  0  3  0  0  0  0  0  0
  185.9610  178.5870  139.5250 C   0  0  0  0  0  3  0  0  0  0  0  0
  184.2110  177.5910  137.9720 C   0  0  0  0  0  2  0  0  0  0  0  0
  182.7160  178.2470  141.9210 N   0  0  0  0  0  0  0  0  0  0  0  0
  184.5800  179.1580  141.0520 C   0  0  2  0  0  3  0  0  0  0  0  0
  183.1460  176.8060  138.1650 C   0  0  0  0  0  0  0  0  0  0  0  0
  183.8570  178.7870  142.2470 C   0  0  0  0  0  0  0  0  0  0  0  0
  182.5180  176.5030  139.8540 S   0  0  0  0  0  0  0  0  0  0  0  0
  183.8260  178.8580  140.0140 N   0  0  2  0  0  0  0  0  0  0  0  0
  185.9010  179.0090  140.8160 N   0  0  0  0  0  0  0  0  0  0  0  0
  180.0050  172.6560  136.7030 O   0  0  0  0  0  0  0  0  0  0  0  0
  181.4390  174.2960  135.8350 N   0  0  0  0  0  2  0  0  0  0  0  0
  181.7520  174.9570  137.0660 C   0  0  0  0  0  0  0  0  0  0  0  0
  181.2480  174.5590  138.1500 O   0  0  0  0  0  0  0  0  0  0  0  0
  180.3460  172.5750  134.3570 C   0  0  0  0  0  1  0  0  0  0  0  0
  180.5750  173.1630  135.7010 C   0  0  0  0  0  0  0  0  0  0  0  0
  182.6260  176.0910  137.0370 N   0  0  0  0  0  0  0  0  0  0  0  0
  1  2  2  0  0  0  0
  3 10  1  0  0  0  0
  4  3  1  1  0  0  0
  5  2  1  6  0  0  0
  5  4  1  0  0  0  0
  7  8  2  0  0  0  0
  8 12  1  0  0  0  0
  9  5  1  0  0  0  0
  9  4  1  0  0  0  0
 10  6  1  0  0  0  0
 11  6  1  0  0  0  0
 12  3  2  0  0  0  0
 12 13  1  0  0  0  0
 13 11  1  0  0  0  0
 14  9  1  0  0  0  0
 14  8  1  0  0  0  0
 15 14  1  0  0  0  0
 16 15  1  0  0  0  0
 17 16  1  0  0  0  0
 19 18  2  0  0  0  0
 19 17  1  0  0  0  0
 20 17  1  0  0  0  0
 21 20  1  0  0  0  0
 22  1  1  0  0  0  0
 22 23  1  0  0  0  0
 24 28  1  0  0  0  0
 25 26  1  0  0  0  0
 25 33  1  0  0  0  0
 26 34  2  0  0  0  0
 27 30  1  0  0  0  0
 27 25  1  0  0  0  0
 28 31  2  0  0  0  0
 29 31  1  0  0  0  0
 30 32  1  0  0  0  0
 31 22  1  0  0  0  0
 32 24  1  0  0  0  0
 33 24  1  0  0  0  0
 33 29  1  0  0  0  0
 34 29  1  0  0  0  0
 36 37  1  0  0  0  0
 37 38  2  0  0  0  0
 39 40  1  0  0  0  0
 40 36  1  0  0  0  0
 40 35  2  0  0  0  0
 41 37  1  0  0  0  0
 41 30  2  0  0  0  0
M  END
>  <MODEL>
7

>  <REMARK>
 VINA RESULT:      -7.8      4.858      8.972
  Name = 
  9 active torsions:
  status: ('A' for Active; 'I' for Inactive)
    1  A    between atoms: C_4  and  C_6
    2  A    between atoms: C_6  and  C_31
    3  A    between atoms: C_7  and  C_13
    4  A    between atoms: C_10  and  C_26
    5  A    between atoms: C_11  and  C_25
    6  A    between atoms: C_11  and  C_38
    7  A    between atoms: C_25  and  C_26
    8  A    between atoms: C_26  and  C_40
    9  A    between atoms: C_27  and  N_41
                            x       y       z     vdW  Elec       q    Type
                         _______ _______ _______ _____ _____    ______ ____

>  <TORSDO>
F 9

$$$$
=
 OpenBabel10232411593D

 41 46  0  0  1  0  0  0  0  0999 V2000
  187.7240  178.3850  141.0500 C   0  0  0  0  0  3  0  0  0  0  0  0
  187.0580  177.8050  142.0450 C   0  0  0  0  0  3  0  0  0  0  0  0
  183.7590  178.7820  140.6320 C   0  0  0  0  0  0  0  0  0  0  0  0
  185.0660  179.0420  141.3400 C   0  0  2  0  0  3  0  0  0  0  0  0
  185.5690  177.7930  142.0340 C   0  0  2  0  0  3  0  0  0  0  0  0
  182.5530  178.8950  138.4150 C   0  0  0  0  0  2  0  0  0  0  0  0
  181.4440  179.1550  143.3200 O   0  0  0  0  0  0  0  0  0  0  0  0
  182.5310  178.8780  142.7410 C   0  0  0  0  0  0  0  0  0  0  0  0
  185.0530  178.9480  142.8710 C   0  0  2  0  0  3  0  0  0  0  0  0
  183.8500  178.5650  139.1430 C   0  0  0  0  0  2  0  0  0  0  0  0
  181.4050  178.1870  139.1100 C   0  0  0  0  0  2  0  0  0  0  0  0
  182.5720  178.7710  141.2770 C   0  0  0  0  0  0  0  0  0  0  0  0
  181.2630  178.7410  140.5230 C   0  0  0  0  0  2  0  0  0  0  0  0
  183.7470  178.5100  143.5410 C   0  0  1  0  0  3  0  0  0  0  0  0
  183.6830  179.0770  144.9540 C   0  0  0  0  0  2  0  0  0  0  0  0
  184.4590  178.1930  145.9160 C   0  0  0  0  0  2  0  0  0  0  0  0
  185.8720  178.7280  146.1130 C   0  0  1  0  0  3  0  0  0  0  0  0
  185.9700  180.3260  147.8620 O   0  0  0  0  0  0  0  0  0  0  0  0
  186.0610  179.1510  147.5350 C   0  0  0  0  0  3  0  0  0  0  0  0
  186.9140  177.6790  145.7420 C   0  0  0  0  0  2  0  0  0  0  0  0
  187.9300  177.5090  146.8550 C   0  0  0  0  0  1  0  0  0  0  0  0
  189.2200  178.4110  141.0390 C   0  0  1  0  0  3  0  0  0  0  0  0
  189.7720  178.1230  142.4260 C   0  0  0  0  0  1  0  0  0  0  0  0
  191.1290  175.9550  139.0160 C   0  0  2  0  0  3  0  0  0  0  0  0
  190.1080  176.7050  136.8490 C   0  0  1  0  0  3  0  0  0  0  0  0
  189.2750  177.7990  136.6670 C   0  0  0  0  0  3  0  0  0  0  0  0
  191.2360  176.3230  136.0070 C   0  0  0  0  0  2  0  0  0  0  0  0
  190.8340  176.7160  140.2420 N   0  0  0  0  0  0  0  0  0  0  0  0
  189.2520  177.2050  138.7190 C   0  0  2  0  0  3  0  0  0  0  0  0
  192.4110  176.0380  136.5780 C   0  0  2  0  0  3  0  0  0  0  0  0
  189.7520  177.4180  140.0590 C   0  0  0  0  0  0  0  0  0  0  0  0
  192.7300  176.5130  138.3140 S   0  0  0  0  0  0  0  0  0  0  0  0
  190.0430  176.3340  138.1280 N   0  0  2  0  0  0  0  0  0  0  0  0
  188.7510  178.1340  137.8770 N   0  0  0  0  0  0  0  0  0  0  0  0
  197.2040  173.5380  136.6550 O   0  0  0  0  0  0  0  0  0  0  0  0
  195.6410  174.5150  135.2040 N   0  0  0  0  0  2  0  0  0  0  0  0
  194.6570  174.8680  136.1820 C   0  0  0  0  0  0  0  0  0  0  0  0
  194.8420  174.6010  137.3990 O   0  0  0  0  0  0  0  0  0  0  0  0
  197.8150  173.5620  134.3620 C   0  0  0  0  0  1  0  0  0  0  0  0
  196.8850  173.8620  135.4800 C   0  0  0  0  0  0  0  0  0  0  0  0
  193.4510  175.5070  135.7480 N   0  0  0  0  0  2  0  0  0  0  0  0
  1  2  2  0  0  0  0
  3 12  2  0  0  0  0
  4  3  1  6  0  0  0
  4  5  1  0  0  0  0
  4  9  1  0  0  0  0
  5  2  1  1  0  0  0
  5  9  1  0  0  0  0
  6 11  1  0  0  0  0
  6 10  1  0  0  0  0
  8  7  2  0  0  0  0
  8 14  1  0  0  0  0
  9 14  1  0  0  0  0
 10  3  1  0  0  0  0
 11 13  1  0  0  0  0
 12  8  1  0  0  0  0
 13 12  1  0  0  0  0
 14 15  1  0  0  0  0
 15 16  1  0  0  0  0
 16 17  1  0  0  0  0
 17 19  1  0  0  0  0
 19 18  2  0  0  0  0
 20 17  1  0  0  0  0
 20 21  1  0  0  0  0
 22  1  1  0  0  0  0
 22 23  1  0  0  0  0
 24 28  1  0  0  0  0
 25 33  1  0  0  0  0
 26 25  1  0  0  0  0
 26 34  2  0  0  0  0
 27 30  1  0  0  0  0
 27 25  1  0  0  0  0
 29 31  1  0  0  0  0
 30 32  1  0  0  0  0
 31 28  2  0  0  0  0
 31 22  1  0  0  0  0
 32 24  1  0  0  0  0
 33 29  1  0  0  0  0
 33 24  1  0  0  0  0
 34 29  1  0  0  0  0
 36 40  1  0  0  0  0
 36 37  1  0  0  0  0
 37 38  2  0  0  0  0
 39 40  1  0  0  0  0
 40 35  2  0  0  0  0
 41 37  1  0  0  0  0
 41 30  1  0  0  0  0
M  END
>  <MODEL>
8

>  <REMARK>
 VINA RESULT:      -7.6      1.793      5.098
  Name = 
  9 active torsions:
  status: ('A' for Active; 'I' for Inactive)
    1  A    between atoms: C_4  and  C_6
    2  A    between atoms: C_6  and  C_31
    3  A    between atoms: C_7  and  C_13
    4  A    between atoms: C_10  and  C_26
    5  A    between atoms: C_11  and  C_25
    6  A    between atoms: C_11  and  C_38
    7  A    between atoms: C_25  and  C_26
    8  A    between atoms: C_26  and  C_40
    9  A    between atoms: C_27  and  N_41
                            x       y       z     vdW  Elec       q    Type
                         _______ _______ _______ _____ _____    ______ ____

>  <TORSDO>
F 9

$$$$
=
 OpenBabel10232411593D

 41 46  0  0  1  0  0  0  0  0999 V2000
  187.2070  177.8590  138.4320 C   0  0  0  0  0  3  0  0  0  0  0  0
  185.9770  178.3390  138.2660 C   0  0  0  0  0  3  0  0  0  0  0  0
  182.7420  179.1200  139.9260 C   0  0  0  0  0  0  0  0  0  0  0  0
  184.1650  179.4100  139.5160 C   0  0  2  0  0  3  0  0  0  0  0  0
  184.9490  178.1280  139.3220 C   0  0  2  0  0  3  0  0  0  0  0  0
  180.3100  179.5030  139.3590 C   0  0  0  0  0  2  0  0  0  0  0  0
  183.1320  178.6420  143.4400 O   0  0  0  0  0  0  0  0  0  0  0  0
  183.4400  178.6330  142.2160 C   0  0  0  0  0  0  0  0  0  0  0  0
  185.2650  179.0160  140.5100 C   0  0  2  0  0  3  0  0  0  0  0  0
  181.7100  179.2150  138.8320 C   0  0  0  0  0  2  0  0  0  0  0  0
  179.9930  178.5240  140.4740 C   0  0  0  0  0  2  0  0  0  0  0  0
  182.3980  178.8230  141.1990 C   0  0  0  0  0  0  0  0  0  0  0  0
  180.9520  178.7650  141.6340 C   0  0  0  0  0  2  0  0  0  0  0  0
  184.8350  178.2830  141.7850 C   0  0  1  0  0  3  0  0  0  0  0  0
  185.8490  178.5470  142.8920 C   0  0  0  0  0  2  0  0  0  0  0  0
  187.0830  177.6820  142.6990 C   0  0  0  0  0  2  0  0  0  0  0  0
  187.4090  176.9220  143.9780 C   0  0  1  0  0  3  0  0  0  0  0  0
  189.7560  176.8600  143.6460 O   0  0  0  0  0  0  0  0  0  0  0  0
  188.8280  177.1810  144.3740 C   0  0  0  0  0  3  0  0  0  0  0  0
  186.4730  177.3250  145.1120 C   0  0  0  0  0  2  0  0  0  0  0  0
  187.2540  177.8930  146.2810 C   0  0  0  0  0  1  0  0  0  0  0  0
  188.2570  178.0560  137.3850 C   0  0  1  0  0  3  0  0  0  0  0  0
  188.9890  179.3700  137.5990 C   0  0  0  0  0  1  0  0  0  0  0  0
  190.9030  175.5360  138.0290 C   0  0  2  0  0  3  0  0  0  0  0  0
  191.3610  175.1580  135.5900 C   0  0  1  0  0  3  0  0  0  0  0  0
  190.8270  175.8780  134.5310 C   0  0  0  0  0  3  0  0  0  0  0  0
  192.7560  174.7610  135.7550 C   0  0  0  0  0  2  0  0  0  0  0  0
  189.9760  176.6100  138.4210 N   0  0  0  0  0  0  0  0  0  0  0  0
  189.5940  176.1100  136.2610 C   0  0  2  0  0  3  0  0  0  0  0  0
  193.3670  174.9930  136.9210 C   0  0  2  0  0  3  0  0  0  0  0  0
  189.2270  176.9200  137.4000 C   0  0  0  0  0  0  0  0  0  0  0  0
  192.6320  176.1450  138.1340 S   0  0  0  0  0  0  0  0  0  0  0  0
  190.5520  175.2900  136.6410 N   0  0  2  0  0  0  0  0  0  0  0  0
  189.7080  176.5100  134.9760 N   0  0  0  0  0  0  0  0  0  0  0  0
  198.5820  175.6160  135.6360 O   0  0  0  0  0  0  0  0  0  0  0  0
  197.1040  174.1830  136.7610 N   0  0  0  0  0  2  0  0  0  0  0  0
  195.9050  174.9400  136.5610 C   0  0  0  0  0  0  0  0  0  0  0  0
  195.9350  176.0300  135.9300 O   0  0  0  0  0  0  0  0  0  0  0  0
  199.5600  173.6630  136.5640 C   0  0  0  0  0  1  0  0  0  0  0  0
  198.4030  174.5520  136.2860 C   0  0  0  0  0  0  0  0  0  0  0  0
  194.6780  174.4460  137.1120 N   0  0  0  0  0  2  0  0  0  0  0  0
  2  1  2  0  0  0  0
  3 12  2  0  0  0  0
  4  3  1  1  0  0  0
  4  9  1  0  0  0  0
  5  2  1  6  0  0  0
  5  4  1  0  0  0  0
  5  9  1  0  0  0  0
  6 11  1  0  0  0  0
  8  7  2  0  0  0  0
  9 14  1  0  0  0  0
 10  6  1  0  0  0  0
 10  3  1  0  0  0  0
 11 13  1  0  0  0  0
 12 13  1  0  0  0  0
 12  8  1  0  0  0  0
 14  8  1  0  0  0  0
 14 15  1  0  0  0  0
 16 15  1  0  0  0  0
 16 17  1  0  0  0  0
 17 19  1  0  0  0  0
 17 20  1  0  0  0  0
 18 19  2  0  0  0  0
 20 21  1  0  0  0  0
 22 31  1  0  0  0  0
 22 23  1  0  0  0  0
 22  1  1  0  0  0  0
 24 32  1  0  0  0  0
 24 28  1  0  0  0  0
 25 27  1  0  0  0  0
 25 33  1  0  0  0  0
 26 34  2  0  0  0  0
 26 25  1  0  0  0  0
 27 30  1  0  0  0  0
 29 33  1  0  0  0  0
 29 31  1  0  0  0  0
 30 41  1  0  0  0  0
 30 32  1  0  0  0  0
 31 28  2  0  0  0  0
 33 24  1  0  0  0  0
 34 29  1  0  0  0  0
 35 40  2  0  0  0  0
 37 36  1  0  0  0  0
 37 41  1  0  0  0  0
 38 37  2  0  0  0  0
 40 39  1  0  0  0  0
 40 36  1  0  0  0  0
M  END
>  <MODEL>
9

>  <REMARK>
 VINA RESULT:      -7.6      1.949      5.452
  Name = 
  9 active torsions:
  status: ('A' for Active; 'I' for Inactive)
    1  A    between atoms: C_4  and  C_6
    2  A    between atoms: C_6  and  C_31
    3  A    between atoms: C_7  and  C_13
    4  A    between atoms: C_10  and  C_26
    5  A    between atoms: C_11  and  C_25
    6  A    between atoms: C_11  and  C_38
    7  A    between atoms: C_25  and  C_26
    8  A    between atoms: C_26  and  C_40
    9  A    between atoms: C_27  and  N_41
                            x       y       z     vdW  Elec       q    Type
                         _______ _______ _______ _____ _____    ______ ____

>  <TORSDO>
F 9

$$$$
