=
 OpenBabel10232411373D

 27 29  0  0  1  0  0  0  0  0999 V2000
  191.6140  176.5160  146.1590 C   0  0  0  0  0  3  0  0  0  0  0  0
  191.1520  176.9300  144.9100 C   0  0  0  0  0  3  0  0  0  0  0  0
  187.4810  177.5960  145.7720 C   0  0  1  0  0  3  0  0  0  0  0  0
  184.4920  178.4590  144.3890 C   0  0  0  0  0  0  0  0  0  0  0  0
  189.4480  176.7830  147.0850 C   0  0  0  0  0  3  0  0  0  0  0  0
  189.8050  177.2790  144.7410 C   0  0  0  0  0  0  0  0  0  0  0  0
  186.9750  177.7500  144.3600 C   0  0  0  0  0  0  0  0  0  0  0  0
  185.9810  179.1660  147.0780 C   0  0  0  0  0  3  0  0  0  0  0  0
  187.9060  177.8680  143.2270 C   0  0  0  0  0  0  0  0  0  0  0  0
  187.4730  178.1370  142.0740 O   0  0  0  0  0  0  0  0  0  0  0  0
  188.9370  177.2130  145.8540 C   0  0  0  0  0  0  0  0  0  0  0  0
  187.1960  178.8310  146.6020 C   0  0  0  0  0  3  0  0  0  0  0  0
  189.3120  177.6630  143.4400 N   0  0  0  0  0  0  0  0  0  0  0  0
  185.7190  178.0660  144.2400 C   0  0  0  0  0  0  0  0  0  0  0  0
  184.0150  178.7240  145.6820 O   0  0  0  0  0  0  0  0  0  0  0  0
  190.7590  176.4480  147.2120 N   0  0  0  0  0  0  0  0  0  0  0  0
  183.6200  178.6790  143.2050 C   0  0  0  0  0  1  0  0  0  0  0  0
  184.7240  178.3520  146.8750 C   0  0  0  0  0  2  0  0  0  0  0  0
  190.2350  177.8370  142.3210 C   0  0  0  0  0  2  0  0  0  0  0  0
  190.2330  176.5950  141.4470 C   0  0  0  0  0  2  0  0  0  0  0  0
  190.4050  176.9880  139.9920 C   0  0  0  0  0  2  0  0  0  0  0  0
  189.7410  178.2570  139.7400 N   0  0  0  0  0  2  0  0  0  0  0  0
  189.1230  178.2200  138.1220 S   0  0  0  0  0  0  0  0  0  0  0  0
  188.9940  179.6220  137.5910 O   0  0  0  0  0  0  0  0  0  0  0  0
  190.0500  177.4320  137.2370 O   0  0  0  0  0  0  0  0  0  0  0  0
  187.5250  177.4430  138.1270 C   0  0  0  0  0  2  0  0  0  0  0  0
  186.4930  178.4410  138.3370 N   0  0  0  0  0  1  0  0  0  0  0  0
  1 16  1  0  0  0  0
  2  1  2  0  0  0  0
  3 11  1  0  0  0  0
  3 12  1  1  0  0  0
  4 15  1  0  0  0  0
  5 16  2  0  0  0  0
  6  2  1  0  0  0  0
  6 11  2  0  0  0  0
  7  3  1  0  0  0  0
  9 13  1  0  0  0  0
  9  7  1  0  0  0  0
 10  9  2  0  0  0  0
 11  5  1  0  0  0  0
 12  8  2  0  0  0  0
 13  6  1  0  0  0  0
 14  7  2  0  0  0  0
 14  4  2  0  0  0  0
 15 18  1  0  0  0  0
 17  4  1  0  0  0  0
 18  8  1  0  0  0  0
 19 13  1  0  0  0  0
 20 19  1  0  0  0  0
 21 20  1  0  0  0  0
 22 21  1  0  0  0  0
 23 26  1  0  0  0  0
 23 22  1  0  0  0  0
 24 23  2  0  0  0  0
 25 23  2  0  0  0  0
 26 27  1  0  0  0  0
M  END
>  <MODEL>
1

>  <REMARK>
 VINA RESULT:      -8.9      0.000      0.000
  Name = 
  6 active torsions:
  status: ('A' for Active; 'I' for Inactive)
    1  A    between atoms: S_4  and  C_12
    2  A    between atoms: S_4  and  N_23
    3  A    between atoms: C_7  and  C_16
    4  A    between atoms: C_7  and  C_21
    5  A    between atoms: C_16  and  N_23
    6  A    between atoms: N_20  and  C_21
                            x       y       z     vdW  Elec       q    Type
                         _______ _______ _______ _____ _____    ______ ____

>  <TORSDO>
F 6

$$$$
=
 OpenBabel10232411373D

 27 29  0  0  1  0  0  0  0  0999 V2000
  191.6570  176.4570  146.4100 C   0  0  0  0  0  3  0  0  0  0  0  0
  191.2500  176.9060  145.1540 C   0  0  0  0  0  3  0  0  0  0  0  0
  187.5470  177.5590  145.8740 C   0  0  1  0  0  3  0  0  0  0  0  0
  184.6210  178.4690  144.3880 C   0  0  0  0  0  0  0  0  0  0  0  0
  189.4530  176.7050  147.2480 C   0  0  0  0  0  3  0  0  0  0  0  0
  189.9120  177.2640  144.9360 C   0  0  0  0  0  0  0  0  0  0  0  0
  187.1020  177.7530  144.4470 C   0  0  0  0  0  0  0  0  0  0  0  0
  185.9940  179.0980  147.1570 C   0  0  0  0  0  3  0  0  0  0  0  0
  188.0820  177.8990  143.3580 C   0  0  0  0  0  0  0  0  0  0  0  0
  187.6990  178.2010  142.1950 O   0  0  0  0  0  0  0  0  0  0  0  0
  188.9970  177.1700  146.0090 C   0  0  0  0  0  0  0  0  0  0  0  0
  187.2280  178.7730  146.7240 C   0  0  0  0  0  3  0  0  0  0  0  0
  189.4760  177.6840  143.6270 N   0  0  0  0  0  0  0  0  0  0  0  0
  185.8530  178.0760  144.2810 C   0  0  0  0  0  0  0  0  0  0  0  0
  184.0890  178.7000  145.6660 O   0  0  0  0  0  0  0  0  0  0  0  0
  190.7570  176.3630  147.4230 N   0  0  0  0  0  0  0  0  0  0  0  0
  183.8010  178.7240  143.1740 C   0  0  0  0  0  1  0  0  0  0  0  0
  184.7460  178.2930  146.8780 C   0  0  0  0  0  2  0  0  0  0  0  0
  190.4470  177.8860  142.5530 C   0  0  0  0  0  2  0  0  0  0  0  0
  190.4960  176.6580  141.6590 C   0  0  0  0  0  2  0  0  0  0  0  0
  190.9070  177.0600  140.2550 C   0  0  0  0  0  2  0  0  0  0  0  0
  190.2760  176.1800  139.2840 N   0  0  0  0  0  2  0  0  0  0  0  0
  191.4320  175.8540  138.0350 S   0  0  0  0  0  0  0  0  0  0  0  0
  191.5760  174.3690  137.8450 O   0  0  0  0  0  0  0  0  0  0  0  0
  190.9830  176.4830  136.7440 O   0  0  0  0  0  0  0  0  0  0  0  0
  193.0020  176.5440  138.5010 C   0  0  0  0  0  2  0  0  0  0  0  0
  194.0740  175.7980  137.8680 N   0  0  0  0  0  1  0  0  0  0  0  0
  1 16  1  0  0  0  0
  2  1  2  0  0  0  0
  3 11  1  0  0  0  0
  3 12  1  1  0  0  0
  4 15  1  0  0  0  0
  5 16  2  0  0  0  0
  6  2  1  0  0  0  0
  6 11  2  0  0  0  0
  7  3  1  0  0  0  0
  9 13  1  0  0  0  0
  9  7  1  0  0  0  0
 10  9  2  0  0  0  0
 11  5  1  0  0  0  0
 12  8  2  0  0  0  0
 13  6  1  0  0  0  0
 14  4  2  0  0  0  0
 14  7  2  0  0  0  0
 15 18  1  0  0  0  0
 17  4  1  0  0  0  0
 18  8  1  0  0  0  0
 19 13  1  0  0  0  0
 20 19  1  0  0  0  0
 21 20  1  0  0  0  0
 22 21  1  0  0  0  0
 23 26  1  0  0  0  0
 23 22  1  0  0  0  0
 24 23  2  0  0  0  0
 25 23  2  0  0  0  0
 27 26  1  0  0  0  0
M  END
>  <MODEL>
2

>  <REMARK>
 VINA RESULT:      -8.7      1.609      2.348
  Name = 
  6 active torsions:
  status: ('A' for Active; 'I' for Inactive)
    1  A    between atoms: S_4  and  C_12
    2  A    between atoms: S_4  and  N_23
    3  A    between atoms: C_7  and  C_16
    4  A    between atoms: C_7  and  C_21
    5  A    between atoms: C_16  and  N_23
    6  A    between atoms: N_20  and  C_21
                            x       y       z     vdW  Elec       q    Type
                         _______ _______ _______ _____ _____    ______ ____

>  <TORSDO>
F 6

$$$$
=
 OpenBabel10232411373D

 27 29  0  0  1  0  0  0  0  0999 V2000
  191.6300  176.4670  146.2940 C   0  0  0  0  0  3  0  0  0  0  0  0
  191.1970  176.9100  145.0450 C   0  0  0  0  0  3  0  0  0  0  0  0
  187.5110  177.5730  145.8430 C   0  0  1  0  0  3  0  0  0  0  0  0
  184.5550  178.4800  144.4160 C   0  0  0  0  0  0  0  0  0  0  0  0
  189.4450  176.7230  147.1790 C   0  0  0  0  0  3  0  0  0  0  0  0
  189.8550  177.2690  144.8550 C   0  0  0  0  0  0  0  0  0  0  0  0
  187.0360  177.7600  144.4250 C   0  0  0  0  0  0  0  0  0  0  0  0
  185.9890  179.1210  147.1510 C   0  0  0  0  0  3  0  0  0  0  0  0
  187.9920  177.8990  143.3140 C   0  0  0  0  0  0  0  0  0  0  0  0
  187.5840  178.1960  142.1580 O   0  0  0  0  0  0  0  0  0  0  0  0
  188.9640  177.1820  145.9480 C   0  0  0  0  0  0  0  0  0  0  0  0
  187.2130  178.7920  146.6930 C   0  0  0  0  0  3  0  0  0  0  0  0
  189.3910  177.6830  143.5530 N   0  0  0  0  0  0  0  0  0  0  0  0
  185.7840  178.0840  144.2840 C   0  0  0  0  0  0  0  0  0  0  0  0
  184.0520  178.7180  145.7040 O   0  0  0  0  0  0  0  0  0  0  0  0
  190.7520  176.3800  147.3270 N   0  0  0  0  0  0  0  0  0  0  0  0
  183.7100  178.7300  143.2180 C   0  0  0  0  0  1  0  0  0  0  0  0
  184.7340  178.3170  146.9030 C   0  0  0  0  0  2  0  0  0  0  0  0
  190.3380  177.8780  142.4580 C   0  0  0  0  0  2  0  0  0  0  0  0
  190.5890  176.5590  141.7450 C   0  0  0  0  0  2  0  0  0  0  0  0
  189.9480  176.5860  140.3710 C   0  0  0  0  0  2  0  0  0  0  0  0
  190.3220  177.8080  139.6740 N   0  0  0  0  0  2  0  0  0  0  0  0
  189.1800  178.0580  138.3950 S   0  0  0  0  0  0  0  0  0  0  0  0
  187.8410  177.4980  138.7880 O   0  0  0  0  0  0  0  0  0  0  0  0
  189.0440  179.5290  138.1110 O   0  0  0  0  0  0  0  0  0  0  0  0
  189.7580  177.2350  136.9310 C   0  0  0  0  0  2  0  0  0  0  0  0
  191.0680  176.6600  137.1740 N   0  0  0  0  0  1  0  0  0  0  0  0
  1 16  1  0  0  0  0
  2  1  2  0  0  0  0
  3 11  1  0  0  0  0
  3 12  1  1  0  0  0
  4 15  1  0  0  0  0
  5 16  2  0  0  0  0
  6  2  1  0  0  0  0
  6 11  2  0  0  0  0
  7  3  1  0  0  0  0
  9 13  1  0  0  0  0
  9  7  1  0  0  0  0
 10  9  2  0  0  0  0
 11  5  1  0  0  0  0
 12  8  2  0  0  0  0
 13  6  1  0  0  0  0
 14  4  2  0  0  0  0
 14  7  2  0  0  0  0
 15 18  1  0  0  0  0
 17  4  1  0  0  0  0
 18  8  1  0  0  0  0
 19 13  1  0  0  0  0
 20 19  1  0  0  0  0
 21 20  1  0  0  0  0
 22 21  1  0  0  0  0
 23 24  2  0  0  0  0
 23 22  1  0  0  0  0
 25 23  2  0  0  0  0
 26 27  1  0  0  0  0
 26 23  1  0  0  0  0
M  END
>  <MODEL>
3

>  <REMARK>
 VINA RESULT:      -8.5      1.078      1.319
  Name = 
  6 active torsions:
  status: ('A' for Active; 'I' for Inactive)
    1  A    between atoms: S_4  and  C_12
    2  A    between atoms: S_4  and  N_23
    3  A    between atoms: C_7  and  C_16
    4  A    between atoms: C_7  and  C_21
    5  A    between atoms: C_16  and  N_23
    6  A    between atoms: N_20  and  C_21
                            x       y       z     vdW  Elec       q    Type
                         _______ _______ _______ _____ _____    ______ ____

>  <TORSDO>
F 6

$$$$
=
 OpenBabel10232411373D

 27 29  0  0  1  0  0  0  0  0999 V2000
  189.5080  177.2090  146.6390 C   0  0  0  0  0  3  0  0  0  0  0  0
  189.6150  177.5150  145.2840 C   0  0  0  0  0  3  0  0  0  0  0  0
  185.9110  177.9930  144.4400 C   0  0  1  0  0  3  0  0  0  0  0  0
  183.7790  178.5750  141.8500 C   0  0  0  0  0  0  0  0  0  0  0  0
  187.1470  177.3900  146.5280 C   0  0  0  0  0  3  0  0  0  0  0  0
  188.4610  177.7650  144.5280 C   0  0  0  0  0  0  0  0  0  0  0  0
  186.0560  178.0270  142.9400 C   0  0  0  0  0  0  0  0  0  0  0  0
  183.9440  179.5390  144.8480 C   0  0  0  0  0  3  0  0  0  0  0  0
  187.3790  178.1360  142.3060 C   0  0  0  0  0  0  0  0  0  0  0  0
  187.4750  178.3060  141.0600 O   0  0  0  0  0  0  0  0  0  0  0  0
  187.2020  177.7110  145.1660 C   0  0  0  0  0  0  0  0  0  0  0  0
  185.2570  179.2550  144.9640 C   0  0  0  0  0  3  0  0  0  0  0  0
  188.5620  178.0360  143.1140 N   0  0  0  0  0  0  0  0  0  0  0  0
  184.9640  178.2530  142.2700 C   0  0  0  0  0  0  0  0  0  0  0  0
  182.7850  178.8860  142.7890 O   0  0  0  0  0  0  0  0  0  0  0  0
  188.2860  177.1500  147.2300 N   0  0  0  0  0  0  0  0  0  0  0  0
  183.4940  178.6660  140.3930 C   0  0  0  0  0  1  0  0  0  0  0  0
  182.9240  178.6340  144.1970 C   0  0  0  0  0  2  0  0  0  0  0  0
  189.8700  178.2020  142.4850 C   0  0  0  0  0  2  0  0  0  0  0  0
  190.3780  176.8610  141.9790 C   0  0  0  0  0  2  0  0  0  0  0  0
  190.2490  176.7980  140.4690 C   0  0  0  0  0  2  0  0  0  0  0  0
  191.5510  177.0010  139.8530 N   0  0  0  0  0  2  0  0  0  0  0  0
  191.4650  176.4110  138.2260 S   0  0  0  0  0  0  0  0  0  0  0  0
  190.9420  175.0010  138.2200 O   0  0  0  0  0  0  0  0  0  0  0  0
  190.5540  177.2870  137.4100 O   0  0  0  0  0  0  0  0  0  0  0  0
  193.0910  176.4400  137.5100 C   0  0  0  0  0  2  0  0  0  0  0  0
  194.0330  175.7920  138.4040 N   0  0  0  0  0  1  0  0  0  0  0  0
  1 16  1  0  0  0  0
  2  1  2  0  0  0  0
  3 12  1  1  0  0  0
  3 11  1  0  0  0  0
  4 14  2  0  0  0  0
  4 15  1  0  0  0  0
  5 16  2  0  0  0  0
  6 11  2  0  0  0  0
  6  2  1  0  0  0  0
  7  3  1  0  0  0  0
  8 12  2  0  0  0  0
  9  7  1  0  0  0  0
  9 13  1  0  0  0  0
 10  9  2  0  0  0  0
 11  5  1  0  0  0  0
 13  6  1  0  0  0  0
 14  7  2  0  0  0  0
 15 18  1  0  0  0  0
 17  4  1  0  0  0  0
 18  8  1  0  0  0  0
 19 13  1  0  0  0  0
 20 19  1  0  0  0  0
 21 20  1  0  0  0  0
 22 21  1  0  0  0  0
 23 22  1  0  0  0  0
 24 23  2  0  0  0  0
 25 23  2  0  0  0  0
 26 23  1  0  0  0  0
 26 27  1  0  0  0  0
M  END
>  <MODEL>
4

>  <REMARK>
 VINA RESULT:      -8.1      2.005      2.913
  Name = 
  6 active torsions:
  status: ('A' for Active; 'I' for Inactive)
    1  A    between atoms: S_4  and  C_12
    2  A    between atoms: S_4  and  N_23
    3  A    between atoms: C_7  and  C_16
    4  A    between atoms: C_7  and  C_21
    5  A    between atoms: C_16  and  N_23
    6  A    between atoms: N_20  and  C_21
                            x       y       z     vdW  Elec       q    Type
                         _______ _______ _______ _____ _____    ______ ____

>  <TORSDO>
F 6

$$$$
=
 OpenBabel10232411373D

 27 29  0  0  1  0  0  0  0  0999 V2000
  188.2590  177.9700  139.4500 C   0  0  0  0  0  3  0  0  0  0  0  0
  187.3490  178.3560  140.4340 C   0  0  0  0  0  3  0  0  0  0  0  0
  189.3120  177.3320  143.5590 C   0  0  1  0  0  3  0  0  0  0  0  0
  189.0820  177.1220  146.9490 C   0  0  0  0  0  0  0  0  0  0  0  0
  189.7660  177.1850  141.1040 C   0  0  0  0  0  3  0  0  0  0  0  0
  187.6520  178.1530  141.7880 C   0  0  0  0  0  0  0  0  0  0  0  0
  188.1910  177.4920  144.5530 C   0  0  0  0  0  0  0  0  0  0  0  0
  191.3610  177.9300  144.9250 C   0  0  0  0  0  3  0  0  0  0  0  0
  186.9320  178.1570  144.1800 C   0  0  0  0  0  0  0  0  0  0  0  0
  186.0620  178.4090  145.0580 O   0  0  0  0  0  0  0  0  0  0  0  0
  188.8900  177.5630  142.1290 C   0  0  0  0  0  0  0  0  0  0  0  0
  190.5030  178.1970  143.9210 C   0  0  0  0  0  3  0  0  0  0  0  0
  186.6950  178.5070  142.8080 N   0  0  0  0  0  0  0  0  0  0  0  0
  188.5050  177.2880  145.7990 C   0  0  0  0  0  0  0  0  0  0  0  0
  190.4750  176.9610  146.9950 O   0  0  0  0  0  0  0  0  0  0  0  0
  189.4380  177.3940  139.8020 N   0  0  0  0  0  0  0  0  0  0  0  0
  188.2870  177.1570  148.2050 C   0  0  0  0  0  1  0  0  0  0  0  0
  191.2790  176.7210  145.8270 C   0  0  0  0  0  2  0  0  0  0  0  0
  185.4670  179.2160  142.4560 C   0  0  0  0  0  2  0  0  0  0  0  0
  184.2880  178.2590  142.4790 C   0  0  0  0  0  2  0  0  0  0  0  0
  183.3470  178.5710  141.3310 C   0  0  0  0  0  2  0  0  0  0  0  0
  183.6410  177.7040  140.2010 N   0  0  0  0  0  2  0  0  0  0  0  0
  183.8410  178.7070  138.8020 S   0  0  0  0  0  0  0  0  0  0  0  0
  184.4900  180.0060  139.1930 O   0  0  0  0  0  0  0  0  0  0  0  0
  184.6990  178.0040  137.7860 O   0  0  0  0  0  0  0  0  0  0  0  0
  182.2470  179.0350  138.0890 C   0  0  0  0  0  2  0  0  0  0  0  0
  181.8280  180.3840  138.4220 N   0  0  0  0  0  1  0  0  0  0  0  0
  1 16  2  0  0  0  0
  1  2  1  0  0  0  0
  2  6  2  0  0  0  0
  3 12  1  1  0  0  0
  3  7  1  0  0  0  0
  4 15  1  0  0  0  0
  4 17  1  0  0  0  0
  5 11  2  0  0  0  0
  6 11  1  0  0  0  0
  6 13  1  0  0  0  0
  7 14  2  0  0  0  0
  8 18  1  0  0  0  0
  9  7  1  0  0  0  0
  9 10  2  0  0  0  0
 11  3  1  0  0  0  0
 12  8  2  0  0  0  0
 13  9  1  0  0  0  0
 14  4  2  0  0  0  0
 16  5  1  0  0  0  0
 18 15  1  0  0  0  0
 19 20  1  0  0  0  0
 19 13  1  0  0  0  0
 21 20  1  0  0  0  0
 22 21  1  0  0  0  0
 23 24  2  0  0  0  0
 23 22  1  0  0  0  0
 25 23  2  0  0  0  0
 26 27  1  0  0  0  0
 26 23  1  0  0  0  0
M  END
>  <MODEL>
5

>  <REMARK>
 VINA RESULT:      -8.0      2.834      5.361
  Name = 
  6 active torsions:
  status: ('A' for Active; 'I' for Inactive)
    1  A    between atoms: S_4  and  C_12
    2  A    between atoms: S_4  and  N_23
    3  A    between atoms: C_7  and  C_16
    4  A    between atoms: C_7  and  C_21
    5  A    between atoms: C_16  and  N_23
    6  A    between atoms: N_20  and  C_21
                            x       y       z     vdW  Elec       q    Type
                         _______ _______ _______ _____ _____    ______ ____

>  <TORSDO>
F 6

$$$$
=
 OpenBabel10232411373D

 27 29  0  0  1  0  0  0  0  0999 V2000
  188.0630  177.6810  147.8730 C   0  0  0  0  0  3  0  0  0  0  0  0
  187.0640  177.7360  146.9030 C   0  0  0  0  0  3  0  0  0  0  0  0
  189.2310  177.6690  143.7470 C   0  0  1  0  0  3  0  0  0  0  0  0
  189.0740  177.8850  140.3520 C   0  0  0  0  0  0  0  0  0  0  0  0
  189.7380  177.6450  146.1950 C   0  0  0  0  0  3  0  0  0  0  0  0
  187.4070  177.7460  145.5430 C   0  0  0  0  0  0  0  0  0  0  0  0
  188.1480  178.0210  142.7600 C   0  0  0  0  0  0  0  0  0  0  0  0
  190.7550  176.1630  142.3910 C   0  0  0  0  0  3  0  0  0  0  0  0
  186.7300  178.0200  143.1540 C   0  0  0  0  0  0  0  0  0  0  0  0
  185.8290  178.1770  142.2860 O   0  0  0  0  0  0  0  0  0  0  0  0
  188.7720  177.6900  145.1830 C   0  0  0  0  0  0  0  0  0  0  0  0
  189.8850  176.3450  143.4050 C   0  0  0  0  0  3  0  0  0  0  0  0
  186.3790  177.8500  144.5360 N   0  0  0  0  0  0  0  0  0  0  0  0
  188.5030  178.0290  141.5080 C   0  0  0  0  0  0  0  0  0  0  0  0
  190.3840  177.3850  140.2990 O   0  0  0  0  0  0  0  0  0  0  0  0
  189.3700  177.6410  147.5040 N   0  0  0  0  0  0  0  0  0  0  0  0
  188.3330  178.1920  139.1000 C   0  0  0  0  0  1  0  0  0  0  0  0
  191.2250  177.2530  141.4570 C   0  0  0  0  0  2  0  0  0  0  0  0
  184.9680  177.7940  144.9100 C   0  0  0  0  0  2  0  0  0  0  0  0
  184.3850  179.1970  144.9550 C   0  0  0  0  0  2  0  0  0  0  0  0
  182.8970  179.1470  144.6660 C   0  0  0  0  0  2  0  0  0  0  0  0
  182.6660  179.2620  143.2350 N   0  0  0  0  0  2  0  0  0  0  0  0
  180.9580  179.1640  142.9640 S   0  0  0  0  0  0  0  0  0  0  0  0
  180.3160  178.3330  144.0420 O   0  0  0  0  0  0  0  0  0  0  0  0
  180.3580  180.5430  142.9710 O   0  0  0  0  0  0  0  0  0  0  0  0
  180.6610  178.4090  141.3830 C   0  0  0  0  0  2  0  0  0  0  0  0
  181.9240  178.0350  140.7720 N   0  0  0  0  0  1  0  0  0  0  0  0
  2  1  2  0  0  0  0
  3 12  1  6  0  0  0
  3 11  1  0  0  0  0
  4 14  2  0  0  0  0
  5 16  2  0  0  0  0
  6  2  1  0  0  0  0
  7  9  1  0  0  0  0
  7  3  1  0  0  0  0
  8 12  2  0  0  0  0
  9 13  1  0  0  0  0
 10  9  2  0  0  0  0
 11  6  2  0  0  0  0
 11  5  1  0  0  0  0
 13 19  1  0  0  0  0
 13  6  1  0  0  0  0
 14  7  2  0  0  0  0
 15  4  1  0  0  0  0
 15 18  1  0  0  0  0
 16  1  1  0  0  0  0
 17  4  1  0  0  0  0
 18  8  1  0  0  0  0
 19 20  1  0  0  0  0
 21 20  1  0  0  0  0
 22 21  1  0  0  0  0
 23 25  2  0  0  0  0
 23 22  1  0  0  0  0
 23 24  2  0  0  0  0
 26 23  1  0  0  0  0
 27 26  1  0  0  0  0
M  END
>  <MODEL>
6

>  <REMARK>
 VINA RESULT:      -7.6      3.123      6.251
  Name = 
  6 active torsions:
  status: ('A' for Active; 'I' for Inactive)
    1  A    between atoms: S_4  and  C_12
    2  A    between atoms: S_4  and  N_23
    3  A    between atoms: C_7  and  C_16
    4  A    between atoms: C_7  and  C_21
    5  A    between atoms: C_16  and  N_23
    6  A    between atoms: N_20  and  C_21
                            x       y       z     vdW  Elec       q    Type
                         _______ _______ _______ _____ _____    ______ ____

>  <TORSDO>
F 6

$$$$
=
 OpenBabel10232411373D

 27 29  0  0  1  0  0  0  0  0999 V2000
  185.0010  178.4190  146.5010 C   0  0  0  0  0  3  0  0  0  0  0  0
  184.6630  178.6580  145.1700 C   0  0  0  0  0  3  0  0  0  0  0  0
  187.9710  177.7130  143.4880 C   0  0  1  0  0  3  0  0  0  0  0  0
  189.5530  177.6550  140.4740 C   0  0  0  0  0  0  0  0  0  0  0  0
  187.1920  177.7730  145.8630 C   0  0  0  0  0  3  0  0  0  0  0  0
  185.6110  178.4500  144.1570 C   0  0  0  0  0  0  0  0  0  0  0  0
  187.6550  178.2580  142.1190 C   0  0  0  0  0  0  0  0  0  0  0  0
  189.4630  175.7310  142.9710 C   0  0  0  0  0  3  0  0  0  0  0  0
  186.2910  178.6820  141.7650 C   0  0  0  0  0  0  0  0  0  0  0  0
  186.0130  179.0010  140.5770 O   0  0  0  0  0  0  0  0  0  0  0  0
  186.8980  177.9900  144.5120 C   0  0  0  0  0  0  0  0  0  0  0  0
  188.3020  176.2350  143.4350 C   0  0  0  0  0  3  0  0  0  0  0  0
  185.2800  178.7400  142.7830 N   0  0  0  0  0  0  0  0  0  0  0  0
  188.5590  178.0550  141.2060 C   0  0  0  0  0  0  0  0  0  0  0  0
  190.5210  176.8120  141.0420 O   0  0  0  0  0  0  0  0  0  0  0  0
  186.2500  177.9880  146.8200 N   0  0  0  0  0  0  0  0  0  0  0  0
  189.6370  178.0390  139.0400 C   0  0  0  0  0  1  0  0  0  0  0  0
  190.6150  176.5600  142.4540 C   0  0  0  0  0  2  0  0  0  0  0  0
  183.9160  179.1090  142.4120 C   0  0  0  0  0  2  0  0  0  0  0  0
  183.2850  178.0000  141.5850 C   0  0  0  0  0  2  0  0  0  0  0  0
  182.0340  178.5170  140.9000 C   0  0  0  0  0  2  0  0  0  0  0  0
  181.7510  177.7180  139.7180 N   0  0  0  0  0  2  0  0  0  0  0  0
  182.4070  178.5500  138.3470 S   0  0  0  0  0  0  0  0  0  0  0  0
  183.7750  178.0120  138.0290 O   0  0  0  0  0  0  0  0  0  0  0  0
  181.5070  178.3670  137.1570 O   0  0  0  0  0  0  0  0  0  0  0  0
  182.5280  180.2830  138.7220 C   0  0  0  0  0  2  0  0  0  0  0  0
  183.9230  180.6630  138.8460 N   0  0  0  0  0  1  0  0  0  0  0  0
  1 16  1  0  0  0  0
  2  1  2  0  0  0  0
  3 12  1  6  0  0  0
  3 11  1  0  0  0  0
  4 15  1  0  0  0  0
  4 14  2  0  0  0  0
  5 16  2  0  0  0  0
  6 11  2  0  0  0  0
  6  2  1  0  0  0  0
  7  3  1  0  0  0  0
  8 12  2  0  0  0  0
  9  7  1  0  0  0  0
  9 13  1  0  0  0  0
 10  9  2  0  0  0  0
 11  5  1  0  0  0  0
 13  6  1  0  0  0  0
 14  7  2  0  0  0  0
 15 18  1  0  0  0  0
 17  4  1  0  0  0  0
 18  8  1  0  0  0  0
 19 13  1  0  0  0  0
 20 19  1  0  0  0  0
 21 20  1  0  0  0  0
 22 21  1  0  0  0  0
 23 26  1  0  0  0  0
 23 22  1  0  0  0  0
 24 23  2  0  0  0  0
 25 23  2  0  0  0  0
 26 27  1  0  0  0  0
M  END
>  <MODEL>
7

>  <REMARK>
 VINA RESULT:      -7.6      3.252      5.801
  Name = 
  6 active torsions:
  status: ('A' for Active; 'I' for Inactive)
    1  A    between atoms: S_4  and  C_12
    2  A    between atoms: S_4  and  N_23
    3  A    between atoms: C_7  and  C_16
    4  A    between atoms: C_7  and  C_21
    5  A    between atoms: C_16  and  N_23
    6  A    between atoms: N_20  and  C_21
                            x       y       z     vdW  Elec       q    Type
                         _______ _______ _______ _____ _____    ______ ____

>  <TORSDO>
F 6

$$$$
=
 OpenBabel10232411373D

 27 29  0  0  1  0  0  0  0  0999 V2000
  187.3430  178.2760  139.5130 C   0  0  0  0  0  3  0  0  0  0  0  0
  188.4690  177.7000  140.1000 C   0  0  0  0  0  3  0  0  0  0  0  0
  187.5730  178.1640  143.7940 C   0  0  1  0  0  3  0  0  0  0  0  0
  188.7900  177.7420  146.9460 C   0  0  0  0  0  0  0  0  0  0  0  0
  186.4400  178.7690  141.6490 C   0  0  0  0  0  3  0  0  0  0  0  0
  188.5860  177.6560  141.4970 C   0  0  0  0  0  0  0  0  0  0  0  0
  188.9200  177.8040  144.3670 C   0  0  0  0  0  0  0  0  0  0  0  0
  185.9710  177.3600  145.5850 C   0  0  0  0  0  3  0  0  0  0  0  0
  189.9670  177.1980  143.5280 C   0  0  0  0  0  0  0  0  0  0  0  0
  191.0330  176.7740  144.0500 O   0  0  0  0  0  0  0  0  0  0  0  0
  187.5460  178.1930  142.2870 C   0  0  0  0  0  0  0  0  0  0  0  0
  186.4800  177.2680  144.3410 C   0  0  0  0  0  3  0  0  0  0  0  0
  189.7700  177.1030  142.1090 N   0  0  0  0  0  0  0  0  0  0  0  0
  188.9960  177.7810  145.6660 C   0  0  0  0  0  0  0  0  0  0  0  0
  187.4850  177.9160  147.4310 O   0  0  0  0  0  0  0  0  0  0  0  0
  186.3600  178.7980  140.2920 N   0  0  0  0  0  0  0  0  0  0  0  0
  189.9110  177.4620  147.8830 C   0  0  0  0  0  1  0  0  0  0  0  0
  186.3970  178.3800  146.6150 C   0  0  0  0  0  2  0  0  0  0  0  0
  190.7900  176.4500  141.2910 C   0  0  0  0  0  2  0  0  0  0  0  0
  191.8820  177.4420  140.9310 C   0  0  0  0  0  2  0  0  0  0  0  0
  192.1430  177.4020  139.4370 C   0  0  0  0  0  2  0  0  0  0  0  0
  193.4740  176.8750  139.1810 N   0  0  0  0  0  2  0  0  0  0  0  0
  193.3960  175.9170  137.7390 S   0  0  0  0  0  0  0  0  0  0  0  0
  194.1170  176.6170  136.6200 O   0  0  0  0  0  0  0  0  0  0  0  0
  194.0290  174.5740  137.9800 O   0  0  0  0  0  0  0  0  0  0  0  0
  191.6930  175.6830  137.2880 C   0  0  0  0  0  2  0  0  0  0  0  0
  191.2270  174.3990  137.7770 N   0  0  0  0  0  1  0  0  0  0  0  0
  1  2  2  0  0  0  0
  1 16  1  0  0  0  0
  2  6  1  0  0  0  0
  3 12  1  6  0  0  0
  3  7  1  0  0  0  0
  4 15  1  0  0  0  0
  4 17  1  0  0  0  0
  5 11  1  0  0  0  0
  6 13  1  0  0  0  0
  6 11  2  0  0  0  0
  7 14  2  0  0  0  0
  8 18  1  0  0  0  0
  9 10  2  0  0  0  0
  9  7  1  0  0  0  0
 11  3  1  0  0  0  0
 12  8  2  0  0  0  0
 13  9  1  0  0  0  0
 14  4  2  0  0  0  0
 16  5  2  0  0  0  0
 18 15  1  0  0  0  0
 19 13  1  0  0  0  0
 20 19  1  0  0  0  0
 21 20  1  0  0  0  0
 22 21  1  0  0  0  0
 23 25  2  0  0  0  0
 23 22  1  0  0  0  0
 24 23  2  0  0  0  0
 26 23  1  0  0  0  0
 26 27  1  0  0  0  0
M  END
>  <MODEL>
8

>  <REMARK>
 VINA RESULT:      -7.5      2.701      4.626
  Name = 
  6 active torsions:
  status: ('A' for Active; 'I' for Inactive)
    1  A    between atoms: S_4  and  C_12
    2  A    between atoms: S_4  and  N_23
    3  A    between atoms: C_7  and  C_16
    4  A    between atoms: C_7  and  C_21
    5  A    between atoms: C_16  and  N_23
    6  A    between atoms: N_20  and  C_21
                            x       y       z     vdW  Elec       q    Type
                         _______ _______ _______ _____ _____    ______ ____

>  <TORSDO>
F 6

$$$$
=
 OpenBabel10232411373D

 27 29  0  0  1  0  0  0  0  0999 V2000
  183.3300  179.0200  144.9820 C   0  0  0  0  0  3  0  0  0  0  0  0
  183.3820  178.9980  143.5890 C   0  0  0  0  0  3  0  0  0  0  0  0
  187.0740  178.1080  143.1000 C   0  0  1  0  0  3  0  0  0  0  0  0
  189.4650  177.6970  140.7110 C   0  0  0  0  0  0  0  0  0  0  0  0
  185.6370  178.4910  145.1100 C   0  0  0  0  0  3  0  0  0  0  0  0
  184.5910  178.7150  142.9370 C   0  0  0  0  0  0  0  0  0  0  0  0
  187.1460  178.3810  141.6200 C   0  0  0  0  0  0  0  0  0  0  0  0
  188.7390  176.2210  143.4010 C   0  0  0  0  0  3  0  0  0  0  0  0
  185.9260  178.6060  140.8280 C   0  0  0  0  0  0  0  0  0  0  0  0
  185.9910  178.6920  139.5710 O   0  0  0  0  0  0  0  0  0  0  0  0
  185.7400  178.4480  143.7150 C   0  0  0  0  0  0  0  0  0  0  0  0
  187.4730  176.6810  143.4210 C   0  0  0  0  0  3  0  0  0  0  0  0
  184.6620  178.7370  141.4960 N   0  0  0  0  0  0  0  0  0  0  0  0
  188.2840  178.1160  141.0490 C   0  0  0  0  0  0  0  0  0  0  0  0
  190.2620  177.0590  141.6730 O   0  0  0  0  0  0  0  0  0  0  0  0
  184.4500  178.7720  145.7090 N   0  0  0  0  0  0  0  0  0  0  0  0
  189.9440  177.8400  139.3100 C   0  0  0  0  0  1  0  0  0  0  0  0
  189.9530  177.0590  143.0770 C   0  0  0  0  0  2  0  0  0  0  0  0
  183.4490  178.9030  140.6980 C   0  0  0  0  0  2  0  0  0  0  0  0
  182.7820  177.5560  140.4780 C   0  0  0  0  0  2  0  0  0  0  0  0
  183.0190  177.0910  139.0530 C   0  0  0  0  0  2  0  0  0  0  0  0
  182.8560  175.6470  138.9700 N   0  0  0  0  0  2  0  0  0  0  0  0
  183.7090  175.0980  137.5660 S   0  0  0  0  0  0  0  0  0  0  0  0
  184.4710  173.8420  137.8890 O   0  0  0  0  0  0  0  0  0  0  0  0
  182.7370  174.8220  136.4510 O   0  0  0  0  0  0  0  0  0  0  0  0
  184.8460  176.3600  137.0450 C   0  0  0  0  0  2  0  0  0  0  0  0
  184.9200  176.3890  135.5960 N   0  0  0  0  0  1  0  0  0  0  0  0
  1 16  1  0  0  0  0
  2  1  2  0  0  0  0
  3 12  1  6  0  0  0
  3 11  1  0  0  0  0
  4 14  2  0  0  0  0
  4 15  1  0  0  0  0
  5 16  2  0  0  0  0
  6  2  1  0  0  0  0
  6 11  2  0  0  0  0
  7  3  1  0  0  0  0
  8 12  2  0  0  0  0
  9 13  1  0  0  0  0
  9  7  1  0  0  0  0
 10  9  2  0  0  0  0
 11  5  1  0  0  0  0
 13  6  1  0  0  0  0
 14  7  2  0  0  0  0
 15 18  1  0  0  0  0
 17  4  1  0  0  0  0
 18  8  1  0  0  0  0
 19 13  1  0  0  0  0
 20 19  1  0  0  0  0
 21 20  1  0  0  0  0
 22 21  1  0  0  0  0
 23 24  2  0  0  0  0
 23 22  1  0  0  0  0
 25 23  2  0  0  0  0
 26 23  1  0  0  0  0
 27 26  1  0  0  0  0
M  END
>  <MODEL>
9

>  <REMARK>
 VINA RESULT:      -7.3      3.447      6.007
  Name = 
  6 active torsions:
  status: ('A' for Active; 'I' for Inactive)
    1  A    between atoms: S_4  and  C_12
    2  A    between atoms: S_4  and  N_23
    3  A    between atoms: C_7  and  C_16
    4  A    between atoms: C_7  and  C_21
    5  A    between atoms: C_16  and  N_23
    6  A    between atoms: N_20  and  C_21
                            x       y       z     vdW  Elec       q    Type
                         _______ _______ _______ _____ _____    ______ ____

>  <TORSDO>
F 6

$$$$
