=
 OpenBabel10222422043D

 44 50  0  0  1  0  0  0  0  0999 V2000
  188.2110  177.7790  138.7910 C   0  0  2  0  0  3  0  0  0  0  0  0
  189.5260  177.4590  138.9170 C   0  0  0  0  0  0  0  0  0  0  0  0
  187.4380  177.4570  137.6110 N   0  0  2  0  0  0  0  0  0  0  0  0
  186.0110  178.4670  139.8180 C   0  0  0  0  0  0  0  0  0  0  0  0
  193.7510  176.0740  137.8680 N   0  0  0  0  0  0  0  0  0  0  0  0
  187.5280  178.6070  139.8750 C   0  0  1  0  0  3  0  0  0  0  0  0
  192.2290  176.8300  139.2340 C   0  0  0  0  0  0  0  0  0  0  0  0
  192.6650  176.1670  137.1680 C   0  0  0  0  0  0  0  0  0  0  0  0
  185.4380  178.2450  138.6720 N   0  0  0  0  0  0  0  0  0  0  0  0
  186.1790  178.1720  137.4150 C   0  0  0  0  0  2  0  0  0  0  0  0
  191.5350  177.2880  140.3480 C   0  0  0  0  0  3  0  0  0  0  0  0
  190.1750  177.6110  140.1850 C   0  0  0  0  0  0  0  0  0  0  0  0
  189.3930  177.9840  141.3710 C   0  0  0  0  0  3  0  0  0  0  0  0
  191.6170  176.6760  138.0250 C   0  0  0  0  0  0  0  0  0  0  0  0
  193.4730  176.4850  139.1850 N   0  0  0  0  0  2  0  0  0  0  0  0
  185.1580  178.6830  140.9510 N   0  0  0  0  0  2  0  0  0  0  0  0
  190.2770  176.9750  137.8200 C   0  0  0  0  0  3  0  0  0  0  0  0
  188.1360  178.3940  141.2360 C   0  0  0  0  0  3  0  0  0  0  0  0
  187.3130  176.4220  135.3680 C   0  0  2  0  0  3  0  0  0  0  0  0
  186.9400  175.1630  134.5690 C   0  0  1  0  0  3  0  0  0  0  0  0
  188.3510  175.7090  134.5150 C   0  0  0  0  0  2  0  0  0  0  0  0
  187.4310  173.8070  136.7450 C   0  0  0  0  0  2  0  0  0  0  0  0
  186.8620  173.8160  135.3260 C   0  0  1  0  0  3  0  0  0  0  0  0
  187.6790  176.2330  136.8460 C   0  0  2  0  0  3  0  0  0  0  0  0
  186.9910  175.0460  137.4920 C   0  0  0  0  0  2  0  0  0  0  0  0
  186.5030  171.3460  134.3530 O   0  0  0  0  0  1  0  0  0  0  0  0
  185.3700  171.9770  134.8830 C   0  0  2  0  0  0  0  0  0  0  0  0
  185.4810  173.3430  135.3470 N   0  0  1  0  0  0  0  0  0  0  0  0
  185.4490  172.2430  136.2070 O   0  0  0  0  0  0  0  0  0  0  0  0
  184.0480  171.5670  134.4370 N   0  0  0  0  0  2  0  0  0  0  0  0
  183.2450  170.6000  135.1200 C   0  0  0  0  0  0  0  0  0  0  0  0
  183.6350  169.0070  135.1240 S   0  0  0  0  0  0  0  0  0  0  0  0
  180.8470  170.1140  135.4010 C   0  0  0  0  0  1  0  0  0  0  0  0
  181.9860  171.0400  135.7830 C   0  0  0  0  0  2  0  0  0  0  0  0
  185.5730  179.2230  142.2370 C   0  0  0  0  0  2  0  0  0  0  0  0
  184.6400  178.7620  143.3020 C   0  0  0  0  0  0  0  0  0  0  0  0
  183.4540  178.6140  143.0520 O   0  0  0  0  0  0  0  0  0  0  0  0
  185.1620  178.4790  144.6710 C   0  0  0  0  0  2  0  0  0  0  0  0
  186.5760  177.9270  144.5970 C   0  0  0  0  0  2  0  0  0  0  0  0
  187.0900  177.6070  145.9890 C   0  0  0  0  0  2  0  0  0  0  0  0
  188.5880  177.3540  145.9560 C   0  0  0  0  0  1  0  0  0  0  0  0
  192.5740  175.8690  135.7080 C   0  0  0  0  0  2  0  0  0  0  0  0
  191.6510  173.7150  136.4330 C   0  0  0  0  0  2  0  0  0  0  0  0
  191.7870  174.6220  135.4700 C   0  0  0  0  0  3  0  0  0  0  0  0
  1  2  1  6  0  0  0
  1  6  1  0  0  0  0
  2 12  1  0  0  0  0
  3 10  1  1  0  0  0
  3  1  1  0  0  0  0
  4  6  1  0  0  0  0
  4 16  1  0  0  0  0
  5 15  1  0  0  0  0
  6 18  1  1  0  0  0
  7 11  1  0  0  0  0
  8  5  2  0  0  0  0
  8 14  1  0  0  0  0
  9  4  2  0  0  0  0
 10  9  1  0  0  0  0
 12 11  2  0  0  0  0
 12 13  1  0  0  0  0
 14  7  2  0  0  0  0
 15  7  1  0  0  0  0
 16 35  1  0  0  0  0
 17 14  1  0  0  0  0
 17  2  2  0  0  0  0
 18 13  2  0  0  0  0
 19 21  1  6  0  0  0
 19 24  1  0  0  0  0
 20 21  1  6  0  0  0
 20 23  1  0  0  0  0
 20 19  1  0  0  0  0
 22 25  1  0  0  0  0
 23 28  1  0  0  0  0
 23 22  1  1  0  0  0
 24 25  1  1  0  0  0
 24  3  1  0  0  0  0
 27 26  1  6  0  0  0
 27 28  1  0  0  0  0
 27 29  1  0  0  0  0
 28 29  1  1  0  0  0
 30 27  1  0  0  0  0
 30 31  1  0  0  0  0
 31 32  2  0  0  0  0
 31 34  1  0  0  0  0
 33 34  1  0  0  0  0
 35 36  1  0  0  0  0
 36 38  1  0  0  0  0
 37 36  2  0  0  0  0
 39 38  1  0  0  0  0
 39 40  1  0  0  0  0
 41 40  1  0  0  0  0
 42  8  1  0  0  0  0
 44 42  1  0  0  0  0
 44 43  2  0  0  0  0
M  END
>  <MODEL>
1

>  <REMARK>
 VINA RESULT:      -6.8      0.000      0.000
  Name = 
  12 active torsions:
  status: ('A' for Active; 'I' for Inactive)
    1  A    between atoms: N_4  and  C_41
    2  A    between atoms: C_5  and  N_9
    3  A    between atoms: C_5  and  C_17
    4  A    between atoms: C_8  and  C_11
    5  A    between atoms: C_8  and  C_14
    6  A    between atoms: N_9  and  C_21
    7  A    between atoms: C_11  and  C_38
    8  A    between atoms: C_12  and  C_38
    9  A    between atoms: C_14  and  N_35
   10  A    between atoms: C_19  and  C_23
   11  A    between atoms: C_23  and  C_40
   12  A    between atoms: N_30  and  C_39
                            x       y       z     vdW  Elec       q    Type
                         _______ _______ _______ _____ _____    ______ ____

>  <TORSDO>
F 12

$$$$
=
 OpenBabel10222422043D

 44 50  0  0  1  0  0  0  0  0999 V2000
  191.6670  175.7230  137.9770 C   0  0  2  0  0  3  0  0  0  0  0  0
  190.6270  175.1600  137.3060 C   0  0  0  0  0  0  0  0  0  0  0  0
  191.4880  176.7620  138.9670 N   0  0  2  0  0  0  0  0  0  0  0  0
  194.0750  175.6760  138.7300 C   0  0  0  0  0  0  0  0  0  0  0  0
  186.4090  174.4310  135.7110 N   0  0  0  0  0  0  0  0  0  0  0  0
  193.0980  175.3390  137.6100 C   0  0  1  0  0  3  0  0  0  0  0  0
  188.5320  173.9680  135.8950 C   0  0  0  0  0  0  0  0  0  0  0  0
  186.8960  175.3240  136.5120 C   0  0  0  0  0  0  0  0  0  0  0  0
  193.8220  176.6860  139.5090 N   0  0  0  0  0  0  0  0  0  0  0  0
  192.6600  177.5540  139.3320 C   0  0  0  0  0  2  0  0  0  0  0  0
  189.7920  173.3900  135.7950 C   0  0  0  0  0  3  0  0  0  0  0  0
  190.8480  173.9960  136.5010 C   0  0  0  0  0  0  0  0  0  0  0  0
  192.1610  173.3370  136.5050 C   0  0  0  0  0  3  0  0  0  0  0  0
  188.3110  175.0730  136.6640 C   0  0  0  0  0  0  0  0  0  0  0  0
  187.4460  173.5600  135.3260 N   0  0  0  0  0  0  0  0  0  0  0  0
  195.3320  175.0070  138.9060 N   0  0  0  0  0  2  0  0  0  0  0  0
  189.3220  175.6980  137.3830 C   0  0  0  0  0  2  0  0  0  0  0  0
  193.2020  173.9350  137.0750 C   0  0  0  0  0  3  0  0  0  0  0  0
  189.7160  178.2010  139.9190 C   0  0  2  0  0  3  0  0  0  0  0  0
  188.9060  178.5550  141.1760 C   0  0  1  0  0  3  0  0  0  0  0  0
  188.2000  178.0820  139.9240 C   0  0  0  0  0  2  0  0  0  0  0  0
  189.3490  176.1110  141.9800 C   0  0  0  0  0  2  0  0  0  0  0  0
  188.8360  177.5110  142.3160 C   0  0  1  0  0  3  0  0  0  0  0  0
  190.3170  176.7910  139.8450 C   0  0  2  0  0  3  0  0  0  0  0  0
  190.6440  176.2010  141.2030 C   0  0  0  0  0  2  0  0  0  0  0  0
  187.7700  176.7790  144.6630 O   0  0  0  0  0  1  0  0  0  0  0  0
  188.9560  177.5230  144.7220 C   0  0  2  0  0  0  0  0  0  0  0  0
  189.5350  178.0200  143.4930 N   0  0  1  0  0  0  0  0  0  0  0  0
  190.0290  176.9070  144.1770 O   0  0  0  0  0  0  0  0  0  0  0  0
  189.2580  178.2940  145.9190 N   0  0  0  0  0  2  0  0  0  0  0  0
  189.6040  177.7030  147.1750 C   0  0  0  0  0  0  0  0  0  0  0  0
  190.8990  176.7090  147.3300 S   0  0  0  0  0  0  0  0  0  0  0  0
  187.3150  178.2530  147.8970 C   0  0  0  0  0  1  0  0  0  0  0  0
  188.7260  177.9400  148.3550 C   0  0  0  0  0  2  0  0  0  0  0  0
  195.9280  174.0620  137.9740 C   0  0  0  0  0  2  0  0  0  0  0  0
  197.0290  174.7240  137.2190 C   0  0  0  0  0  0  0  0  0  0  0  0
  197.8410  175.4190  137.8100 O   0  0  0  0  0  0  0  0  0  0  0  0
  197.1360  174.5300  135.7440 C   0  0  0  0  0  2  0  0  0  0  0  0
  197.1830  175.8710  135.0330 C   0  0  0  0  0  2  0  0  0  0  0  0
  195.7780  176.3470  134.7120 C   0  0  0  0  0  2  0  0  0  0  0  0
  195.6300  177.8240  135.0400 C   0  0  0  0  0  1  0  0  0  0  0  0
  186.1110  176.4550  137.0910 C   0  0  0  0  0  2  0  0  0  0  0  0
  186.7010  177.9340  135.2250 C   0  0  0  0  0  2  0  0  0  0  0  0
  186.5780  177.7620  136.5390 C   0  0  0  0  0  3  0  0  0  0  0  0
  1  2  1  6  0  0  0
  1  3  1  0  0  0  0
  2 17  1  0  0  0  0
  3 10  1  1  0  0  0
  3 24  1  0  0  0  0
  4 16  1  0  0  0  0
  4  9  2  0  0  0  0
  5  8  1  0  0  0  0
  6 18  1  1  0  0  0
  6  1  1  0  0  0  0
  6  4  1  0  0  0  0
  7 14  1  0  0  0  0
  8 14  2  0  0  0  0
  8 42  1  0  0  0  0
 10  9  1  0  0  0  0
 11  7  2  0  0  0  0
 11 12  1  0  0  0  0
 12 13  1  0  0  0  0
 12  2  2  0  0  0  0
 13 18  2  0  0  0  0
 14 17  1  0  0  0  0
 15  5  2  0  0  0  0
 15  7  1  0  0  0  0
 19 21  1  6  0  0  0
 19 20  1  0  0  0  0
 20 21  1  6  0  0  0
 20 23  1  0  0  0  0
 23 22  1  6  0  0  0
 23 28  1  0  0  0  0
 24 19  1  0  0  0  0
 24 25  1  1  0  0  0
 25 22  1  0  0  0  0
 27 26  1  6  0  0  0
 27 30  1  0  0  0  0
 28 29  1  6  0  0  0
 28 27  1  0  0  0  0
 29 27  1  0  0  0  0
 30 31  1  0  0  0  0
 31 32  2  0  0  0  0
 31 34  1  0  0  0  0
 33 34  1  0  0  0  0
 35 16  1  0  0  0  0
 36 37  2  0  0  0  0
 36 35  1  0  0  0  0
 38 36  1  0  0  0  0
 39 38  1  0  0  0  0
 40 39  1  0  0  0  0
 40 41  1  0  0  0  0
 43 44  2  0  0  0  0
 44 42  1  0  0  0  0
M  END
>  <MODEL>
2

>  <REMARK>
 VINA RESULT:      -6.6      4.449      9.910
  Name = 
  12 active torsions:
  status: ('A' for Active; 'I' for Inactive)
    1  A    between atoms: N_4  and  C_41
    2  A    between atoms: C_5  and  N_9
    3  A    between atoms: C_5  and  C_17
    4  A    between atoms: C_8  and  C_11
    5  A    between atoms: C_8  and  C_14
    6  A    between atoms: N_9  and  C_21
    7  A    between atoms: C_11  and  C_38
    8  A    between atoms: C_12  and  C_38
    9  A    between atoms: C_14  and  N_35
   10  A    between atoms: C_19  and  C_23
   11  A    between atoms: C_23  and  C_40
   12  A    between atoms: N_30  and  C_39
                            x       y       z     vdW  Elec       q    Type
                         _______ _______ _______ _____ _____    ______ ____

>  <TORSDO>
F 12

$$$$
=
 OpenBabel10222422043D

 44 50  0  0  1  0  0  0  0  0999 V2000
  186.8110  178.3540  140.5590 C   0  0  2  0  0  3  0  0  0  0  0  0
  187.1200  178.0570  141.8480 C   0  0  0  0  0  0  0  0  0  0  0  0
  187.7760  178.2730  139.4840 N   0  0  2  0  0  0  0  0  0  0  0  0
  185.0980  178.7310  138.7430 C   0  0  0  0  0  0  0  0  0  0  0  0
  189.5570  177.0700  145.5840 N   0  0  0  0  0  0  0  0  0  0  0  0
  185.4270  178.9030  140.2220 C   0  0  1  0  0  3  0  0  0  0  0  0
  187.6970  177.4600  144.5150 C   0  0  0  0  0  0  0  0  0  0  0  0
  189.8970  177.2780  144.3510 C   0  0  0  0  0  0  0  0  0  0  0  0
  186.0640  178.7460  137.8730 N   0  0  0  0  0  0  0  0  0  0  0  0
  187.4600  178.9720  138.2400 C   0  0  0  0  0  2  0  0  0  0  0  0
  186.3650  177.6420  144.1650 C   0  0  0  0  0  3  0  0  0  0  0  0
  186.0760  177.9500  142.8220 C   0  0  0  0  0  0  0  0  0  0  0  0
  184.6700  178.0290  142.4060 C   0  0  0  0  0  3  0  0  0  0  0  0
  188.6970  177.5540  143.5920 C   0  0  0  0  0  0  0  0  0  0  0  0
  188.1580  177.1750  145.6880 N   0  0  0  0  0  2  0  0  0  0  0  0
  183.7560  178.6680  138.2390 N   0  0  0  0  0  2  0  0  0  0  0  0
  188.4580  177.8470  142.2560 C   0  0  0  0  0  3  0  0  0  0  0  0
  184.3640  178.4190  141.1720 C   0  0  0  0  0  3  0  0  0  0  0  0
  190.1860  177.8540  139.8420 C   0  0  2  0  0  3  0  0  0  0  0  0
  191.4400  177.1280  139.3290 C   0  0  1  0  0  3  0  0  0  0  0  0
  190.9290  176.8660  140.7280 C   0  0  0  0  0  2  0  0  0  0  0  0
  189.8210  175.3640  138.2880 C   0  0  0  0  0  2  0  0  0  0  0  0
  191.2450  175.9090  138.3960 C   0  0  1  0  0  3  0  0  0  0  0  0
  188.8250  177.2530  139.4700 C   0  0  2  0  0  3  0  0  0  0  0  0
  188.8350  176.5030  138.1530 C   0  0  0  0  0  2  0  0  0  0  0  0
  193.7360  175.0510  137.9090 O   0  0  0  0  0  1  0  0  0  0  0  0
  193.0680  175.6630  136.8410 C   0  0  2  0  0  0  0  0  0  0  0  0
  191.7530  176.2220  137.0630 N   0  0  1  0  0  0  0  0  0  0  0  0
  191.9670  175.0020  136.4200 O   0  0  0  0  0  0  0  0  0  0  0  0
  193.8410  176.2730  135.7690 N   0  0  0  0  0  2  0  0  0  0  0  0
  195.0260  175.6920  135.2160 C   0  0  0  0  0  0  0  0  0  0  0  0
  195.0910  174.1080  134.7970 S   0  0  0  0  0  0  0  0  0  0  0  0
  195.8690  177.9870  134.9180 C   0  0  0  0  0  1  0  0  0  0  0  0
  196.2510  176.5290  135.0850 C   0  0  0  0  0  2  0  0  0  0  0  0
  182.5470  178.9280  139.0050 C   0  0  0  0  0  2  0  0  0  0  0  0
  181.6190  179.7790  138.2090 C   0  0  0  0  0  0  0  0  0  0  0  0
  181.1870  179.3750  137.1400 O   0  0  0  0  0  0  0  0  0  0  0  0
  181.2170  181.1190  138.7270 C   0  0  0  0  0  2  0  0  0  0  0  0
  180.9180  182.0660  137.5770 C   0  0  0  0  0  2  0  0  0  0  0  0
  181.7550  183.3260  137.7010 C   0  0  0  0  0  2  0  0  0  0  0  0
  181.1690  184.4390  136.8490 C   0  0  0  0  0  1  0  0  0  0  0  0
  191.3060  177.3020  143.8560 C   0  0  0  0  0  2  0  0  0  0  0  0
  191.1220  179.7420  144.0410 C   0  0  0  0  0  2  0  0  0  0  0  0
  191.9000  178.6620  144.0190 C   0  0  0  0  0  3  0  0  0  0  0  0
  1  2  1  1  0  0  0
  2 17  2  0  0  0  0
  2 12  1  0  0  0  0
  3 10  1  6  0  0  0
  3  1  1  0  0  0  0
  4  6  1  0  0  0  0
  5 15  1  0  0  0  0
  6  1  1  0  0  0  0
  6 18  1  1  0  0  0
  7 15  1  0  0  0  0
  8  5  2  0  0  0  0
  9 10  1  0  0  0  0
  9  4  2  0  0  0  0
 11  7  1  0  0  0  0
 12 11  2  0  0  0  0
 13 12  1  0  0  0  0
 14  8  1  0  0  0  0
 14  7  2  0  0  0  0
 16  4  1  0  0  0  0
 16 35  1  0  0  0  0
 17 14  1  0  0  0  0
 18 13  2  0  0  0  0
 19 21  1  1  0  0  0
 20 19  1  0  0  0  0
 20 21  1  1  0  0  0
 23 22  1  6  0  0  0
 23 20  1  0  0  0  0
 24 25  1  6  0  0  0
 24  3  1  0  0  0  0
 24 19  1  0  0  0  0
 25 22  1  0  0  0  0
 27 28  1  0  0  0  0
 27 26  1  1  0  0  0
 28 29  1  6  0  0  0
 28 23  1  0  0  0  0
 29 27  1  0  0  0  0
 30 27  1  0  0  0  0
 31 30  1  0  0  0  0
 32 31  2  0  0  0  0
 33 34  1  0  0  0  0
 34 31  1  0  0  0  0
 36 38  1  0  0  0  0
 36 35  1  0  0  0  0
 37 36  2  0  0  0  0
 39 40  1  0  0  0  0
 39 38  1  0  0  0  0
 41 40  1  0  0  0  0
 42 44  1  0  0  0  0
 42  8  1  0  0  0  0
 44 43  2  0  0  0  0
M  END
>  <MODEL>
3

>  <REMARK>
 VINA RESULT:      -6.5      4.336      7.829
  Name = 
  12 active torsions:
  status: ('A' for Active; 'I' for Inactive)
    1  A    between atoms: N_4  and  C_41
    2  A    between atoms: C_5  and  N_9
    3  A    between atoms: C_5  and  C_17
    4  A    between atoms: C_8  and  C_11
    5  A    between atoms: C_8  and  C_14
    6  A    between atoms: N_9  and  C_21
    7  A    between atoms: C_11  and  C_38
    8  A    between atoms: C_12  and  C_38
    9  A    between atoms: C_14  and  N_35
   10  A    between atoms: C_19  and  C_23
   11  A    between atoms: C_23  and  C_40
   12  A    between atoms: N_30  and  C_39
                            x       y       z     vdW  Elec       q    Type
                         _______ _______ _______ _____ _____    ______ ____

>  <TORSDO>
F 12

$$$$
=
 OpenBabel10222422043D

 44 50  0  0  1  0  0  0  0  0999 V2000
  187.3530  177.9940  139.0650 C   0  0  2  0  0  3  0  0  0  0  0  0
  188.6330  177.5530  138.9470 C   0  0  0  0  0  0  0  0  0  0  0  0
  186.3840  177.8780  137.9960 N   0  0  2  0  0  0  0  0  0  0  0  0
  185.4110  178.7370  140.4950 C   0  0  0  0  0  0  0  0  0  0  0  0
  192.4950  175.9560  137.1000 N   0  0  0  0  0  0  0  0  0  0  0  0
  186.9250  178.7420  140.3240 C   0  0  1  0  0  3  0  0  0  0  0  0
  191.2760  176.6700  138.7620 C   0  0  0  0  0  0  0  0  0  0  0  0
  191.3310  176.2200  136.5960 C   0  0  0  0  0  0  0  0  0  0  0  0
  184.6540  178.6990  139.4380 N   0  0  0  0  0  0  0  0  0  0  0  0
  185.1880  178.7130  138.0780 C   0  0  0  0  0  2  0  0  0  0  0  0
  190.8060  177.0490  140.0130 C   0  0  0  0  0  3  0  0  0  0  0  0
  189.4760  177.5010  140.1040 C   0  0  0  0  0  0  0  0  0  0  0  0
  188.9210  177.7950  141.4310 C   0  0  0  0  0  3  0  0  0  0  0  0
  190.4790  176.7100  137.6560 C   0  0  0  0  0  0  0  0  0  0  0  0
  192.4590  176.2310  138.4800 N   0  0  0  0  0  2  0  0  0  0  0  0
  184.7620  178.8880  141.7660 N   0  0  0  0  0  2  0  0  0  0  0  0
  189.1590  177.1410  137.7000 C   0  0  0  0  0  3  0  0  0  0  0  0
  187.7050  178.3210  141.5410 C   0  0  0  0  0  3  0  0  0  0  0  0
  185.9980  177.1670  135.6590 C   0  0  2  0  0  3  0  0  0  0  0  0
  185.3870  176.0960  134.7420 C   0  0  1  0  0  3  0  0  0  0  0  0
  186.8660  176.4060  134.6690 C   0  0  0  0  0  2  0  0  0  0  0  0
  185.7260  174.4160  136.7110 C   0  0  0  0  0  2  0  0  0  0  0  0
  185.1120  174.6950  135.3390 C   0  0  1  0  0  3  0  0  0  0  0  0
  186.3840  176.7370  137.0800 C   0  0  2  0  0  3  0  0  0  0  0  0
  185.5310  175.6070  137.6230 C   0  0  0  0  0  2  0  0  0  0  0  0
  184.3330  172.3270  134.3580 O   0  0  0  0  0  1  0  0  0  0  0  0
  183.3300  173.1300  134.9180 C   0  0  2  0  0  0  0  0  0  0  0  0
  183.6720  174.4540  135.3880 N   0  0  1  0  0  0  0  0  0  0  0  0
  183.4780  173.3660  136.2400 O   0  0  0  0  0  0  0  0  0  0  0  0
  181.9490  172.9460  134.4970 N   0  0  0  0  0  2  0  0  0  0  0  0
  180.9820  172.2100  135.2510 C   0  0  0  0  0  0  0  0  0  0  0  0
  180.4290  170.7510  134.7470 S   0  0  0  0  0  0  0  0  0  0  0  0
  180.3510  171.7790  137.5930 C   0  0  0  0  0  1  0  0  0  0  0  0
  180.4110  172.8150  136.4860 C   0  0  0  0  0  2  0  0  0  0  0  0
  185.4170  179.2360  143.0180 C   0  0  0  0  0  2  0  0  0  0  0  0
  184.6640  178.6480  144.1610 C   0  0  0  0  0  0  0  0  0  0  0  0
  183.4530  178.5040  144.0850 O   0  0  0  0  0  0  0  0  0  0  0  0
  185.3960  178.2310  145.3920 C   0  0  0  0  0  2  0  0  0  0  0  0
  186.6850  177.5130  145.0260 C   0  0  0  0  0  2  0  0  0  0  0  0
  187.7640  177.8120  146.0520 C   0  0  0  0  0  2  0  0  0  0  0  0
  187.1400  178.1290  147.4010 C   0  0  0  0  0  1  0  0  0  0  0  0
  190.9940  176.1040  135.1450 C   0  0  0  0  0  2  0  0  0  0  0  0
  189.6100  174.1390  134.6530 C   0  0  0  0  0  2  0  0  0  0  0  0
  190.8250  174.6730  134.7530 C   0  0  0  0  0  3  0  0  0  0  0  0
  1  2  1  6  0  0  0
  1  6  1  0  0  0  0
  2 12  1  0  0  0  0
  3 10  1  1  0  0  0
  3  1  1  0  0  0  0
  4 16  1  0  0  0  0
  5 15  1  0  0  0  0
  6  4  1  0  0  0  0
  6 18  1  1  0  0  0
  7 11  1  0  0  0  0
  8  5  2  0  0  0  0
  8 14  1  0  0  0  0
  9  4  2  0  0  0  0
 10  9  1  0  0  0  0
 11 12  2  0  0  0  0
 12 13  1  0  0  0  0
 13 18  2  0  0  0  0
 14 17  1  0  0  0  0
 14  7  2  0  0  0  0
 15  7  1  0  0  0  0
 16 35  1  0  0  0  0
 17  2  2  0  0  0  0
 19 21  1  6  0  0  0
 19 24  1  0  0  0  0
 20 21  1  6  0  0  0
 20 23  1  0  0  0  0
 20 19  1  0  0  0  0
 22 25  1  0  0  0  0
 23 28  1  0  0  0  0
 23 22  1  1  0  0  0
 24 25  1  1  0  0  0
 24  3  1  0  0  0  0
 27 26  1  6  0  0  0
 27 28  1  0  0  0  0
 27 29  1  0  0  0  0
 28 29  1  1  0  0  0
 30 27  1  0  0  0  0
 30 31  1  0  0  0  0
 31 34  1  0  0  0  0
 32 31  2  0  0  0  0
 34 33  1  0  0  0  0
 35 36  1  0  0  0  0
 36 38  1  0  0  0  0
 37 36  2  0  0  0  0
 39 38  1  0  0  0  0
 39 40  1  0  0  0  0
 40 41  1  0  0  0  0
 42  8  1  0  0  0  0
 43 44  2  0  0  0  0
 44 42  1  0  0  0  0
M  END
>  <MODEL>
4

>  <REMARK>
 VINA RESULT:      -6.2      1.539      1.671
  Name = 
  12 active torsions:
  status: ('A' for Active; 'I' for Inactive)
    1  A    between atoms: N_4  and  C_41
    2  A    between atoms: C_5  and  N_9
    3  A    between atoms: C_5  and  C_17
    4  A    between atoms: C_8  and  C_11
    5  A    between atoms: C_8  and  C_14
    6  A    between atoms: N_9  and  C_21
    7  A    between atoms: C_11  and  C_38
    8  A    between atoms: C_12  and  C_38
    9  A    between atoms: C_14  and  N_35
   10  A    between atoms: C_19  and  C_23
   11  A    between atoms: C_23  and  C_40
   12  A    between atoms: N_30  and  C_39
                            x       y       z     vdW  Elec       q    Type
                         _______ _______ _______ _____ _____    ______ ____

>  <TORSDO>
F 12

$$$$
=
 OpenBabel10222422043D

 44 50  0  0  1  0  0  0  0  0999 V2000
  191.0530  176.5560  137.9660 C   0  0  2  0  0  3  0  0  0  0  0  0
  189.9260  176.3090  137.2490 C   0  0  0  0  0  0  0  0  0  0  0  0
  191.0390  177.2670  139.2270 N   0  0  2  0  0  0  0  0  0  0  0  0
  193.4800  176.0820  138.4740 C   0  0  0  0  0  0  0  0  0  0  0  0
  185.5750  176.4510  135.8630 N   0  0  0  0  0  0  0  0  0  0  0  0
  192.4140  176.1770  137.3890 C   0  0  1  0  0  3  0  0  0  0  0  0
  187.6440  175.7740  135.7300 C   0  0  0  0  0  0  0  0  0  0  0  0
  186.1970  177.0220  136.8460 C   0  0  0  0  0  0  0  0  0  0  0  0
  193.3780  176.8330  139.5310 N   0  0  0  0  0  0  0  0  0  0  0  0
  192.3070  177.8110  139.7080 C   0  0  0  0  0  2  0  0  0  0  0  0
  188.8280  175.1450  135.3650 C   0  0  0  0  0  3  0  0  0  0  0  0
  189.9790  175.4220  136.1260 C   0  0  0  0  0  0  0  0  0  0  0  0
  191.2120  174.6800  135.8320 C   0  0  0  0  0  3  0  0  0  0  0  0
  187.5830  176.6160  136.8020 C   0  0  0  0  0  0  0  0  0  0  0  0
  186.4920  175.6480  135.1580 N   0  0  0  0  0  0  0  0  0  0  0  0
  194.6660  175.2850  138.3450 N   0  0  0  0  0  2  0  0  0  0  0  0
  188.6910  176.9100  137.5860 C   0  0  0  0  0  2  0  0  0  0  0  0
  192.3400  174.9910  136.4630 C   0  0  0  0  0  3  0  0  0  0  0  0
  189.2710  178.4940  140.4450 C   0  0  2  0  0  3  0  0  0  0  0  0
  188.5280  178.6590  141.7800 C   0  0  1  0  0  3  0  0  0  0  0  0
  187.7650  178.3000  140.5240 C   0  0  0  0  0  2  0  0  0  0  0  0
  189.1260  176.1630  142.2600 C   0  0  0  0  0  2  0  0  0  0  0  0
  188.5760  177.4870  142.7900 C   0  0  1  0  0  3  0  0  0  0  0  0
  189.9270  177.1350  140.1690 C   0  0  2  0  0  3  0  0  0  0  0  0
  190.3640  176.4080  141.4250 C   0  0  0  0  0  2  0  0  0  0  0  0
  187.2410  177.2490  145.1000 O   0  0  0  0  0  1  0  0  0  0  0  0
  188.5770  177.6620  145.1920 C   0  0  2  0  0  0  0  0  0  0  0  0
  189.3260  177.8900  143.9760 N   0  0  1  0  0  0  0  0  0  0  0  0
  189.4730  176.7460  144.7630 O   0  0  0  0  0  0  0  0  0  0  0  0
  189.0120  178.4210  146.3550 N   0  0  0  0  0  2  0  0  0  0  0  0
  189.1580  177.8570  147.6610 C   0  0  0  0  0  0  0  0  0  0  0  0
  187.8570  177.4990  148.5930 S   0  0  0  0  0  0  0  0  0  0  0  0
  191.2300  176.5400  147.4710 C   0  0  0  0  0  1  0  0  0  0  0  0
  190.5250  177.6570  148.2170 C   0  0  0  0  0  2  0  0  0  0  0  0
  195.1080  174.6100  137.1330 C   0  0  0  0  0  2  0  0  0  0  0  0
  196.1230  173.5750  137.4750 C   0  0  0  0  0  0  0  0  0  0  0  0
  196.9990  173.8240  138.2900 O   0  0  0  0  0  0  0  0  0  0  0  0
  196.0600  172.2340  136.8230 C   0  0  0  0  0  2  0  0  0  0  0  0
  195.3590  171.2350  137.7280 C   0  0  0  0  0  2  0  0  0  0  0  0
  194.4530  170.3300  136.9110 C   0  0  0  0  0  2  0  0  0  0  0  0
  194.3360  168.9650  137.5690 C   0  0  0  0  0  1  0  0  0  0  0  0
  185.5680  177.9940  137.7900 C   0  0  0  0  0  2  0  0  0  0  0  0
  183.1840  178.4100  138.1900 C   0  0  0  0  0  2  0  0  0  0  0  0
  184.1960  177.5470  138.1750 C   0  0  0  0  0  3  0  0  0  0  0  0
  1  2  1  6  0  0  0
  1  3  1  0  0  0  0
  2 17  1  0  0  0  0
  3 10  1  1  0  0  0
  3 24  1  0  0  0  0
  4  9  2  0  0  0  0
  5  8  1  0  0  0  0
  6 18  1  1  0  0  0
  6  1  1  0  0  0  0
  6  4  1  0  0  0  0
  7 14  1  0  0  0  0
  8 42  1  0  0  0  0
  9 10  1  0  0  0  0
 11  7  2  0  0  0  0
 11 12  1  0  0  0  0
 12  2  2  0  0  0  0
 13 12  1  0  0  0  0
 13 18  2  0  0  0  0
 14  8  2  0  0  0  0
 14 17  1  0  0  0  0
 15  7  1  0  0  0  0
 15  5  2  0  0  0  0
 16  4  1  0  0  0  0
 19 21  1  6  0  0  0
 19 20  1  0  0  0  0
 20 21  1  6  0  0  0
 20 23  1  0  0  0  0
 23 22  1  6  0  0  0
 23 28  1  0  0  0  0
 24 19  1  0  0  0  0
 24 25  1  1  0  0  0
 25 22  1  0  0  0  0
 27 26  1  6  0  0  0
 27 30  1  0  0  0  0
 28 29  1  1  0  0  0
 28 27  1  0  0  0  0
 29 27  1  0  0  0  0
 30 31  1  0  0  0  0
 31 34  1  0  0  0  0
 31 32  2  0  0  0  0
 33 34  1  0  0  0  0
 35 36  1  0  0  0  0
 35 16  1  0  0  0  0
 36 37  2  0  0  0  0
 38 36  1  0  0  0  0
 38 39  1  0  0  0  0
 40 41  1  0  0  0  0
 40 39  1  0  0  0  0
 42 44  1  0  0  0  0
 44 43  2  0  0  0  0
M  END
>  <MODEL>
5

>  <REMARK>
 VINA RESULT:      -5.9      4.482      9.991
  Name = 
  12 active torsions:
  status: ('A' for Active; 'I' for Inactive)
    1  A    between atoms: N_4  and  C_41
    2  A    between atoms: C_5  and  N_9
    3  A    between atoms: C_5  and  C_17
    4  A    between atoms: C_8  and  C_11
    5  A    between atoms: C_8  and  C_14
    6  A    between atoms: N_9  and  C_21
    7  A    between atoms: C_11  and  C_38
    8  A    between atoms: C_12  and  C_38
    9  A    between atoms: C_14  and  N_35
   10  A    between atoms: C_19  and  C_23
   11  A    between atoms: C_23  and  C_40
   12  A    between atoms: N_30  and  C_39
                            x       y       z     vdW  Elec       q    Type
                         _______ _______ _______ _____ _____    ______ ____

>  <TORSDO>
F 12

$$$$
=
 OpenBabel10222422043D

 44 50  0  0  1  0  0  0  0  0999 V2000
  186.6510  178.2890  139.7800 C   0  0  2  0  0  3  0  0  0  0  0  0
  187.8410  177.8900  139.2570 C   0  0  0  0  0  0  0  0  0  0  0  0
  185.4650  178.4750  138.9720 N   0  0  2  0  0  0  0  0  0  0  0  0
  185.1280  178.6260  141.7640 C   0  0  0  0  0  0  0  0  0  0  0  0
  191.0810  176.8330  136.2150 N   0  0  0  0  0  0  0  0  0  0  0  0
  186.5640  178.6690  141.2550 C   0  0  1  0  0  3  0  0  0  0  0  0
  190.3110  177.0740  138.2410 C   0  0  0  0  0  0  0  0  0  0  0  0
  189.8550  177.2310  136.0810 C   0  0  0  0  0  0  0  0  0  0  0  0
  184.1550  178.8820  140.9390 N   0  0  0  0  0  0  0  0  0  0  0  0
  184.3760  179.2620  139.5460 C   0  0  0  0  0  2  0  0  0  0  0  0
  190.1550  177.1010  139.6220 C   0  0  0  0  0  3  0  0  0  0  0  0
  188.9120  177.5190  140.1330 C   0  0  0  0  0  0  0  0  0  0  0  0
  188.6850  177.4440  141.5820 C   0  0  0  0  0  3  0  0  0  0  0  0
  189.2940  177.4190  137.4000 C   0  0  0  0  0  0  0  0  0  0  0  0
  191.3690  176.7220  137.5890 N   0  0  0  0  0  2  0  0  0  0  0  0
  184.7870  178.4290  143.1430 N   0  0  0  0  0  2  0  0  0  0  0  0
  188.0490  177.8300  137.8600 C   0  0  0  0  0  3  0  0  0  0  0  0
  187.5630  177.9270  142.1040 C   0  0  0  0  0  3  0  0  0  0  0  0
  183.6920  177.6430  137.4620 C   0  0  2  0  0  3  0  0  0  0  0  0
  183.1320  176.4250  136.7090 C   0  0  1  0  0  3  0  0  0  0  0  0
  183.5490  177.6650  135.9480 C   0  0  0  0  0  2  0  0  0  0  0  0
  185.5650  175.4790  136.7170 C   0  0  0  0  0  2  0  0  0  0  0  0
  184.0810  175.2310  136.4470 C   0  0  1  0  0  3  0  0  0  0  0  0
  185.1850  177.6250  137.8130 C   0  0  2  0  0  3  0  0  0  0  0  0
  185.7420  176.2300  138.0170 C   0  0  0  0  0  2  0  0  0  0  0  0
  183.7930  172.9880  135.0120 O   0  0  0  0  0  1  0  0  0  0  0  0
  183.5740  172.8770  136.3920 C   0  0  2  0  0  0  0  0  0  0  0  0
  183.6310  174.0690  137.2090 N   0  0  1  0  0  0  0  0  0  0  0  0
  184.6630  173.1300  137.1510 O   0  0  0  0  0  0  0  0  0  0  0  0
  182.7320  171.8040  136.8980 N   0  0  0  0  0  2  0  0  0  0  0  0
  182.5130  170.5730  136.2030 C   0  0  0  0  0  0  0  0  0  0  0  0
  181.0920  170.2510  135.4510 S   0  0  0  0  0  0  0  0  0  0  0  0
  184.2920  169.4890  134.8880 C   0  0  0  0  0  1  0  0  0  0  0  0
  183.5750  169.5290  136.2250 C   0  0  0  0  0  2  0  0  0  0  0  0
  185.7240  178.4190  144.2570 C   0  0  0  0  0  2  0  0  0  0  0  0
  185.0490  178.9170  145.4880 C   0  0  0  0  0  0  0  0  0  0  0  0
  183.8530  179.1650  145.4700 O   0  0  0  0  0  0  0  0  0  0  0  0
  185.8380  179.1040  146.7400 C   0  0  0  0  0  2  0  0  0  0  0  0
  186.5120  177.8030  147.1430 C   0  0  0  0  0  2  0  0  0  0  0  0
  188.0000  178.0230  147.3500 C   0  0  0  0  0  2  0  0  0  0  0  0
  188.7820  177.5340  146.1430 C   0  0  0  0  0  1  0  0  0  0  0  0
  189.2000  177.5170  134.7700 C   0  0  0  0  0  2  0  0  0  0  0  0
  188.6630  175.1280  134.6110 C   0  0  0  0  0  2  0  0  0  0  0  0
  188.3100  176.3880  134.3660 C   0  0  0  0  0  3  0  0  0  0  0  0
  1  2  1  6  0  0  0
  1  6  1  0  0  0  0
  2 12  1  0  0  0  0
  3 10  1  1  0  0  0
  3  1  1  0  0  0  0
  4 16  1  0  0  0  0
  5 15  1  0  0  0  0
  6  4  1  0  0  0  0
  6 18  1  1  0  0  0
  7 11  1  0  0  0  0
  8  5  2  0  0  0  0
  8 14  1  0  0  0  0
  9  4  2  0  0  0  0
 10  9  1  0  0  0  0
 11 12  2  0  0  0  0
 12 13  1  0  0  0  0
 13 18  2  0  0  0  0
 14 17  1  0  0  0  0
 14  7  2  0  0  0  0
 15  7  1  0  0  0  0
 16 35  1  0  0  0  0
 17  2  2  0  0  0  0
 19 21  1  6  0  0  0
 19 24  1  0  0  0  0
 20 21  1  6  0  0  0
 20 19  1  0  0  0  0
 22 25  1  0  0  0  0
 23 20  1  0  0  0  0
 23 22  1  1  0  0  0
 23 28  1  0  0  0  0
 24 25  1  1  0  0  0
 24  3  1  0  0  0  0
 27 26  1  6  0  0  0
 27 30  1  0  0  0  0
 27 29  1  0  0  0  0
 27 28  1  0  0  0  0
 28 29  1  1  0  0  0
 31 34  1  0  0  0  0
 31 30  1  0  0  0  0
 32 31  2  0  0  0  0
 33 34  1  0  0  0  0
 35 36  1  0  0  0  0
 36 38  1  0  0  0  0
 37 36  2  0  0  0  0
 38 39  1  0  0  0  0
 39 40  1  0  0  0  0
 41 40  1  0  0  0  0
 42  8  1  0  0  0  0
 44 43  2  0  0  0  0
 44 42  1  0  0  0  0
M  END
>  <MODEL>
6

>  <REMARK>
 VINA RESULT:      -5.7      1.930      2.735
  Name = 
  12 active torsions:
  status: ('A' for Active; 'I' for Inactive)
    1  A    between atoms: N_4  and  C_41
    2  A    between atoms: C_5  and  N_9
    3  A    between atoms: C_5  and  C_17
    4  A    between atoms: C_8  and  C_11
    5  A    between atoms: C_8  and  C_14
    6  A    between atoms: N_9  and  C_21
    7  A    between atoms: C_11  and  C_38
    8  A    between atoms: C_12  and  C_38
    9  A    between atoms: C_14  and  N_35
   10  A    between atoms: C_19  and  C_23
   11  A    between atoms: C_23  and  C_40
   12  A    between atoms: N_30  and  C_39
                            x       y       z     vdW  Elec       q    Type
                         _______ _______ _______ _____ _____    ______ ____

>  <TORSDO>
F 12

$$$$
=
 OpenBabel10222422043D

 44 50  0  0  1  0  0  0  0  0999 V2000
  186.3720  174.8580  135.2650 C   0  0  2  0  0  3  0  0  0  0  0  0
  185.9520  173.5650  135.2710 C   0  0  0  0  0  0  0  0  0  0  0  0
  185.4570  175.9770  135.3180 N   0  0  2  0  0  0  0  0  0  0  0  0
  188.1980  176.5740  135.5630 C   0  0  0  0  0  0  0  0  0  0  0  0
  183.2080  169.9170  135.0880 N   0  0  0  0  0  0  0  0  0  0  0  0
  187.8550  175.1690  135.0820 C   0  0  1  0  0  3  0  0  0  0  0  0
  185.1500  170.8900  135.2810 C   0  0  0  0  0  0  0  0  0  0  0  0
  182.9730  171.1900  135.0220 C   0  0  0  0  0  0  0  0  0  0  0  0
  187.2950  177.5080  135.4900 N   0  0  0  0  0  0  0  0  0  0  0  0
  185.9690  177.2860  134.9180 C   0  0  0  0  0  2  0  0  0  0  0  0
  186.5030  171.1610  135.4440 C   0  0  0  0  0  3  0  0  0  0  0  0
  186.9070  172.5100  135.4320 C   0  0  0  0  0  0  0  0  0  0  0  0
  188.3120  172.8260  135.7210 C   0  0  0  0  0  3  0  0  0  0  0  0
  184.2330  171.8890  135.1340 C   0  0  0  0  0  0  0  0  0  0  0  0
  184.5910  169.7250  135.2640 N   0  0  0  0  0  2  0  0  0  0  0  0
  189.5120  176.9600  135.9900 N   0  0  0  0  0  2  0  0  0  0  0  0
  184.5860  173.2320  135.1240 C   0  0  0  0  0  3  0  0  0  0  0  0
  188.7460  174.0780  135.6150 C   0  0  0  0  0  3  0  0  0  0  0  0
  183.2980  177.1020  135.7530 C   0  0  2  0  0  3  0  0  0  0  0  0
  182.2770  177.5220  136.8230 C   0  0  1  0  0  3  0  0  0  0  0  0
  181.8610  176.6080  135.6910 C   0  0  0  0  0  2  0  0  0  0  0  0
  183.1640  175.5260  138.2530 C   0  0  0  0  0  2  0  0  0  0  0  0
  182.3060  176.7900  138.1860 C   0  0  1  0  0  3  0  0  0  0  0  0
  184.2100  175.9130  136.0820 C   0  0  2  0  0  3  0  0  0  0  0  0
  184.4910  175.7580  137.5640 C   0  0  0  0  0  2  0  0  0  0  0  0
  180.6160  176.9670  140.2560 O   0  0  0  0  0  1  0  0  0  0  0  0
  181.8020  177.7060  140.3560 C   0  0  2  0  0  0  0  0  0  0  0  0
  182.7170  177.7180  139.2350 N   0  0  1  0  0  0  0  0  0  0  0  0
  182.9250  176.9550  140.3850 O   0  0  0  0  0  0  0  0  0  0  0  0
  181.8460  178.8760  141.2200 N   0  0  0  0  0  2  0  0  0  0  0  0
  182.0200  178.8070  142.6390 C   0  0  0  0  0  0  0  0  0  0  0  0
  180.7380  178.7370  143.6590 S   0  0  0  0  0  0  0  0  0  0  0  0
  183.3300  178.9850  144.7170 C   0  0  0  0  0  1  0  0  0  0  0  0
  183.3960  178.8730  143.2060 C   0  0  0  0  0  2  0  0  0  0  0  0
  190.7170  176.1540  135.8670 C   0  0  0  0  0  2  0  0  0  0  0  0
  191.4420  176.1300  137.1680 C   0  0  0  0  0  0  0  0  0  0  0  0
  192.6360  176.3870  137.2060 O   0  0  0  0  0  0  0  0  0  0  0  0
  190.7030  175.7960  138.4210 C   0  0  0  0  0  2  0  0  0  0  0  0
  190.9740  176.8400  139.4920 C   0  0  0  0  0  2  0  0  0  0  0  0
  189.6670  177.3880  140.0350 C   0  0  0  0  0  2  0  0  0  0  0  0
  189.1380  178.4900  139.1330 C   0  0  0  0  0  1  0  0  0  0  0  0
  181.6250  171.7870  134.7840 C   0  0  0  0  0  2  0  0  0  0  0  0
  181.2270  172.2730  137.1550 C   0  0  0  0  0  2  0  0  0  0  0  0
  180.7930  171.7260  136.0220 C   0  0  0  0  0  3  0  0  0  0  0  0
  1  2  1  6  0  0  0
  1  3  1  0  0  0  0
  2 12  1  0  0  0  0
  3 10  1  1  0  0  0
  3 24  1  0  0  0  0
  4 16  1  0  0  0  0
  5 15  1  0  0  0  0
  6  1  1  0  0  0  0
  6  4  1  0  0  0  0
  6 18  1  1  0  0  0
  7 11  1  0  0  0  0
  8  5  2  0  0  0  0
  8 14  1  0  0  0  0
  9  4  2  0  0  0  0
 10  9  1  0  0  0  0
 12 11  2  0  0  0  0
 12 13  1  0  0  0  0
 14  7  2  0  0  0  0
 15  7  1  0  0  0  0
 17 14  1  0  0  0  0
 17  2  2  0  0  0  0
 18 13  2  0  0  0  0
 19 21  1  6  0  0  0
 19 24  1  0  0  0  0
 19 20  1  0  0  0  0
 20 21  1  6  0  0  0
 20 23  1  0  0  0  0
 23 22  1  6  0  0  0
 23 28  1  0  0  0  0
 24 25  1  1  0  0  0
 25 22  1  0  0  0  0
 27 26  1  6  0  0  0
 27 29  1  0  0  0  0
 27 30  1  0  0  0  0
 28 27  1  0  0  0  0
 28 29  1  1  0  0  0
 30 31  1  0  0  0  0
 31 34  1  0  0  0  0
 31 32  2  0  0  0  0
 34 33  1  0  0  0  0
 35 16  1  0  0  0  0
 35 36  1  0  0  0  0
 36 37  2  0  0  0  0
 36 38  1  0  0  0  0
 38 39  1  0  0  0  0
 39 40  1  0  0  0  0
 41 40  1  0  0  0  0
 42  8  1  0  0  0  0
 42 44  1  0  0  0  0
 44 43  2  0  0  0  0
M  END
>  <MODEL>
7

>  <REMARK>
 VINA RESULT:      -5.4      3.466      8.448
  Name = 
  12 active torsions:
  status: ('A' for Active; 'I' for Inactive)
    1  A    between atoms: N_4  and  C_41
    2  A    between atoms: C_5  and  N_9
    3  A    between atoms: C_5  and  C_17
    4  A    between atoms: C_8  and  C_11
    5  A    between atoms: C_8  and  C_14
    6  A    between atoms: N_9  and  C_21
    7  A    between atoms: C_11  and  C_38
    8  A    between atoms: C_12  and  C_38
    9  A    between atoms: C_14  and  N_35
   10  A    between atoms: C_19  and  C_23
   11  A    between atoms: C_23  and  C_40
   12  A    between atoms: N_30  and  C_39
                            x       y       z     vdW  Elec       q    Type
                         _______ _______ _______ _____ _____    ______ ____

>  <TORSDO>
F 12

$$$$
=
 OpenBabel10222422043D

 44 50  0  0  1  0  0  0  0  0999 V2000
  188.8630  177.6950  138.7230 C   0  0  2  0  0  3  0  0  0  0  0  0
  190.1220  177.2470  138.4770 C   0  0  0  0  0  0  0  0  0  0  0  0
  187.8020  177.6260  137.7410 N   0  0  2  0  0  0  0  0  0  0  0  0
  187.0640  178.4090  140.3430 C   0  0  0  0  0  0  0  0  0  0  0  0
  193.7850  175.6750  136.2440 N   0  0  0  0  0  0  0  0  0  0  0  0
  188.5580  178.4050  140.0390 C   0  0  1  0  0  3  0  0  0  0  0  0
  192.7270  176.3440  138.0300 C   0  0  0  0  0  0  0  0  0  0  0  0
  192.5840  175.9670  135.8540 C   0  0  0  0  0  0  0  0  0  0  0  0
  186.2160  178.4150  139.3570 N   0  0  0  0  0  0  0  0  0  0  0  0
  186.6290  178.4680  137.9560 C   0  0  0  0  0  2  0  0  0  0  0  0
  192.3740  176.6860  139.3300 C   0  0  0  0  0  3  0  0  0  0  0  0
  191.0630  177.1480  139.5530 C   0  0  0  0  0  0  0  0  0  0  0  0
  190.6320  177.4020  140.9330 C   0  0  0  0  0  3  0  0  0  0  0  0
  191.8360  176.4290  137.0010 C   0  0  0  0  0  0  0  0  0  0  0  0
  193.8740  175.9040  137.6300 N   0  0  0  0  0  2  0  0  0  0  0  0
  186.5320  178.5240  141.6710 N   0  0  0  0  0  2  0  0  0  0  0  0
  190.5310  176.8710  137.1760 C   0  0  0  0  0  3  0  0  0  0  0  0
  189.4370  177.9360  141.1680 C   0  0  0  0  0  3  0  0  0  0  0  0
  186.5740  176.7440  135.7840 C   0  0  2  0  0  3  0  0  0  0  0  0
  185.9540  175.5000  135.1280 C   0  0  1  0  0  3  0  0  0  0  0  0
  187.0400  176.2750  134.4140 C   0  0  0  0  0  2  0  0  0  0  0  0
  187.6920  174.0950  136.4770 C   0  0  0  0  0  2  0  0  0  0  0  0
  186.4410  174.1090  135.5980 C   0  0  1  0  0  3  0  0  0  0  0  0
  187.7070  176.5150  136.7920 C   0  0  2  0  0  3  0  0  0  0  0  0
  187.6110  175.1880  137.5200 C   0  0  0  0  0  2  0  0  0  0  0  0
  185.7010  171.7970  134.4660 O   0  0  0  0  0  1  0  0  0  0  0  0
  185.0600  172.1370  135.6640 C   0  0  2  0  0  0  0  0  0  0  0  0
  185.3550  173.4120  136.2810 N   0  0  1  0  0  0  0  0  0  0  0  0
  185.8810  172.2010  136.7360 O   0  0  0  0  0  0  0  0  0  0  0  0
  183.7450  171.5840  135.9540 N   0  0  0  0  0  2  0  0  0  0  0  0
  182.5190  172.2550  135.6520 C   0  0  0  0  0  0  0  0  0  0  0  0
  181.0870  171.7470  136.2690 S   0  0  0  0  0  0  0  0  0  0  0  0
  181.1140  173.7990  134.3460 C   0  0  0  0  0  1  0  0  0  0  0  0
  182.5340  173.3990  134.6980 C   0  0  0  0  0  2  0  0  0  0  0  0
  187.2990  178.8240  142.8700 C   0  0  0  0  0  2  0  0  0  0  0  0
  186.8220  177.9760  143.9980 C   0  0  0  0  0  0  0  0  0  0  0  0
  185.6430  177.9930  144.3190 O   0  0  0  0  0  0  0  0  0  0  0  0
  187.7880  177.1040  144.7280 C   0  0  0  0  0  2  0  0  0  0  0  0
  189.1580  177.1650  144.0740 C   0  0  0  0  0  2  0  0  0  0  0  0
  190.0480  178.1540  144.8060 C   0  0  0  0  0  2  0  0  0  0  0  0
  191.5080  177.9140  144.4560 C   0  0  0  0  0  1  0  0  0  0  0  0
  192.1190  175.9030  134.4370 C   0  0  0  0  0  2  0  0  0  0  0  0
  190.4290  174.1280  134.3490 C   0  0  0  0  0  2  0  0  0  0  0  0
  190.7050  175.4290  134.3640 C   0  0  0  0  0  3  0  0  0  0  0  0
  1  2  1  6  0  0  0
  1  6  1  0  0  0  0
  2 12  1  0  0  0  0
  3 10  1  1  0  0  0
  3  1  1  0  0  0  0
  4 16  1  0  0  0  0
  5 15  1  0  0  0  0
  6  4  1  0  0  0  0
  6 18  1  1  0  0  0
  7 11  1  0  0  0  0
  8  5  2  0  0  0  0
  8 14  1  0  0  0  0
  9  4  2  0  0  0  0
 10  9  1  0  0  0  0
 11 12  2  0  0  0  0
 12 13  1  0  0  0  0
 13 18  2  0  0  0  0
 14 17  1  0  0  0  0
 14  7  2  0  0  0  0
 15  7  1  0  0  0  0
 16 35  1  0  0  0  0
 17  2  2  0  0  0  0
 19 21  1  6  0  0  0
 19 24  1  0  0  0  0
 20 21  1  6  0  0  0
 20 23  1  0  0  0  0
 20 19  1  0  0  0  0
 22 25  1  0  0  0  0
 23 28  1  0  0  0  0
 23 22  1  1  0  0  0
 24 25  1  1  0  0  0
 24  3  1  0  0  0  0
 27 26  1  6  0  0  0
 27 30  1  0  0  0  0
 27 28  1  0  0  0  0
 27 29  1  0  0  0  0
 28 29  1  1  0  0  0
 31 30  1  0  0  0  0
 31 32  2  0  0  0  0
 33 34  1  0  0  0  0
 34 31  1  0  0  0  0
 35 36  1  0  0  0  0
 36 37  2  0  0  0  0
 36 38  1  0  0  0  0
 39 38  1  0  0  0  0
 39 40  1  0  0  0  0
 41 40  1  0  0  0  0
 42  8  1  0  0  0  0
 43 44  2  0  0  0  0
 44 42  1  0  0  0  0
M  END
>  <MODEL>
8

>  <REMARK>
 VINA RESULT:      -5.3      1.493      1.800
  Name = 
  12 active torsions:
  status: ('A' for Active; 'I' for Inactive)
    1  A    between atoms: N_4  and  C_41
    2  A    between atoms: C_5  and  N_9
    3  A    between atoms: C_5  and  C_17
    4  A    between atoms: C_8  and  C_11
    5  A    between atoms: C_8  and  C_14
    6  A    between atoms: N_9  and  C_21
    7  A    between atoms: C_11  and  C_38
    8  A    between atoms: C_12  and  C_38
    9  A    between atoms: C_14  and  N_35
   10  A    between atoms: C_19  and  C_23
   11  A    between atoms: C_23  and  C_40
   12  A    between atoms: N_30  and  C_39
                            x       y       z     vdW  Elec       q    Type
                         _______ _______ _______ _____ _____    ______ ____

>  <TORSDO>
F 12

$$$$
=
 OpenBabel10222422043D

 44 50  0  0  1  0  0  0  0  0999 V2000
  188.1460  177.5000  142.2920 C   0  0  2  0  0  3  0  0  0  0  0  0
  186.8530  177.8480  142.5210 C   0  0  0  0  0  0  0  0  0  0  0  0
  188.6650  177.2480  140.9650 N   0  0  2  0  0  0  0  0  0  0  0  0
  190.5460  177.3440  143.0590 C   0  0  0  0  0  0  0  0  0  0  0  0
  182.4040  178.6230  141.8260 N   0  0  0  0  0  0  0  0  0  0  0  0
  189.0810  177.2520  143.4720 C   0  0  1  0  0  3  0  0  0  0  0  0
  184.2060  178.5640  143.0530 C   0  0  0  0  0  0  0  0  0  0  0  0
  183.3520  178.2190  141.0410 C   0  0  0  0  0  0  0  0  0  0  0  0
  190.8840  177.0190  141.8460 N   0  0  0  0  0  0  0  0  0  0  0  0
  189.9260  176.5170  140.8630 C   0  0  0  0  0  2  0  0  0  0  0  0
  185.1240  178.6580  144.0920 C   0  0  0  0  0  3  0  0  0  0  0  0
  186.4570  178.2910  143.8240 C   0  0  0  0  0  0  0  0  0  0  0  0
  187.4660  178.4940  144.8700 C   0  0  0  0  0  3  0  0  0  0  0  0
  184.5760  178.1490  141.8070 C   0  0  0  0  0  0  0  0  0  0  0  0
  182.9480  178.8540  143.1040 N   0  0  0  0  0  2  0  0  0  0  0  0
  191.6030  177.6620  143.9750 N   0  0  0  0  0  2  0  0  0  0  0  0
  185.8790  177.7850  141.4960 C   0  0  0  0  0  3  0  0  0  0  0  0
  188.7100  178.0620  144.6860 C   0  0  0  0  0  3  0  0  0  0  0  0
  187.2360  177.1390  138.9500 C   0  0  2  0  0  3  0  0  0  0  0  0
  187.1110  177.4980  137.4600 C   0  0  1  0  0  3  0  0  0  0  0  0
  186.1010  178.0230  138.4570 C   0  0  0  0  0  2  0  0  0  0  0  0
  188.7640  179.4610  137.9380 C   0  0  0  0  0  2  0  0  0  0  0  0
  188.0190  178.6200  136.9020 C   0  0  1  0  0  3  0  0  0  0  0  0
  188.1870  177.9920  139.7990 C   0  0  2  0  0  3  0  0  0  0  0  0
  189.3470  178.5710  139.0130 C   0  0  0  0  0  2  0  0  0  0  0  0
  187.0020  176.7680  135.2540 O   0  0  0  0  0  1  0  0  0  0  0  0
  188.3410  177.1230  135.0430 C   0  0  2  0  0  0  0  0  0  0  0  0
  188.9720  178.0540  135.9510 N   0  0  1  0  0  0  0  0  0  0  0  0
  188.5260  178.4110  134.6770 O   0  0  0  0  0  0  0  0  0  0  0  0
  189.2330  176.1830  134.3800 N   0  0  0  0  0  2  0  0  0  0  0  0
  189.6180  174.9250  134.9420 C   0  0  0  0  0  0  0  0  0  0  0  0
  188.9070  173.5220  134.4760 S   0  0  0  0  0  0  0  0  0  0  0  0
  189.9580  174.7120  137.3720 C   0  0  0  0  0  1  0  0  0  0  0  0
  190.6370  174.8960  136.0280 C   0  0  0  0  0  2  0  0  0  0  0  0
  191.4720  177.7660  145.4200 C   0  0  0  0  0  2  0  0  0  0  0  0
  191.5680  176.4120  146.0340 C   0  0  0  0  0  0  0  0  0  0  0  0
  192.0630  175.4910  145.4030 O   0  0  0  0  0  0  0  0  0  0  0  0
  191.0640  176.1920  147.4210 C   0  0  0  0  0  2  0  0  0  0  0  0
  189.5840  176.5230  147.5070 C   0  0  0  0  0  2  0  0  0  0  0  0
  189.3800  177.8370  148.2390 C   0  0  0  0  0  2  0  0  0  0  0  0
  187.9140  178.0250  148.5930 C   0  0  0  0  0  1  0  0  0  0  0  0
  183.1540  177.8210  139.6150 C   0  0  0  0  0  2  0  0  0  0  0  0
  183.0850  175.6550  138.4660 C   0  0  0  0  0  2  0  0  0  0  0  0
  182.7350  176.3910  139.5170 C   0  0  0  0  0  3  0  0  0  0  0  0
  1  2  1  1  0  0  0
  1  6  1  0  0  0  0
  2 12  1  0  0  0  0
  3 10  1  1  0  0  0
  3  1  1  0  0  0  0
  4  6  1  0  0  0  0
  4 16  1  0  0  0  0
  5 15  1  0  0  0  0
  6 18  1  1  0  0  0
  7 15  1  0  0  0  0
  7 11  1  0  0  0  0
  8 14  1  0  0  0  0
  8  5  2  0  0  0  0
  9  4  2  0  0  0  0
 10  9  1  0  0  0  0
 12 11  2  0  0  0  0
 12 13  1  0  0  0  0
 14  7  2  0  0  0  0
 16 35  1  0  0  0  0
 17 14  1  0  0  0  0
 17  2  2  0  0  0  0
 18 13  2  0  0  0  0
 19 21  1  1  0  0  0
 19 24  1  0  0  0  0
 20 21  1  1  0  0  0
 20 19  1  0  0  0  0
 22 25  1  0  0  0  0
 23 20  1  0  0  0  0
 23 22  1  1  0  0  0
 24 25  1  6  0  0  0
 24  3  1  0  0  0  0
 27 26  1  1  0  0  0
 27 28  1  0  0  0  0
 28 29  1  6  0  0  0
 28 23  1  0  0  0  0
 29 27  1  0  0  0  0
 30 31  1  0  0  0  0
 30 27  1  0  0  0  0
 31 34  1  0  0  0  0
 32 31  2  0  0  0  0
 34 33  1  0  0  0  0
 35 36  1  0  0  0  0
 36 38  1  0  0  0  0
 37 36  2  0  0  0  0
 38 39  1  0  0  0  0
 39 40  1  0  0  0  0
 40 41  1  0  0  0  0
 42  8  1  0  0  0  0
 43 44  2  0  0  0  0
 44 42  1  0  0  0  0
M  END
>  <MODEL>
9

>  <REMARK>
 VINA RESULT:      -5.3      3.547      6.950
  Name = 
  12 active torsions:
  status: ('A' for Active; 'I' for Inactive)
    1  A    between atoms: N_4  and  C_41
    2  A    between atoms: C_5  and  N_9
    3  A    between atoms: C_5  and  C_17
    4  A    between atoms: C_8  and  C_11
    5  A    between atoms: C_8  and  C_14
    6  A    between atoms: N_9  and  C_21
    7  A    between atoms: C_11  and  C_38
    8  A    between atoms: C_12  and  C_38
    9  A    between atoms: C_14  and  N_35
   10  A    between atoms: C_19  and  C_23
   11  A    between atoms: C_23  and  C_40
   12  A    between atoms: N_30  and  C_39
                            x       y       z     vdW  Elec       q    Type
                         _______ _______ _______ _____ _____    ______ ____

>  <TORSDO>
F 12

$$$$
