=
 OpenBabel10232408063D

 38 41  0  0  1  0  0  0  0  0999 V2000
  189.7190  177.5580  144.1030 C   0  0  0  0  0  0  0  0  0  0  0  0
  190.2730  177.3490  141.7500 C   0  0  0  0  0  0  0  0  0  0  0  0
  190.7080  177.1370  139.2340 C   0  0  0  0  0  3  0  0  0  0  0  0
  190.5700  177.2270  143.1540 N   0  0  0  0  0  0  0  0  0  0  0  0
  189.0940  177.8150  141.4110 C   0  0  0  0  0  0  0  0  0  0  0  0
  188.6050  177.9570  140.0900 C   0  0  0  0  0  0  0  0  0  0  0  0
  191.2410  176.9310  140.6580 C   0  0  0  0  0  3  0  0  0  0  0  0
  188.0840  178.1920  142.3240 C   0  0  0  0  0  0  0  0  0  0  0  0
  187.3470  178.3990  140.1480 C   0  0  0  0  0  3  0  0  0  0  0  0
  190.0910  177.4050  145.4740 N   0  0  0  0  0  2  0  0  0  0  0  0
  189.4710  177.6000  138.9610 C   0  0  0  0  0  0  0  0  0  0  0  0
  188.3220  178.1030  143.8010 C   0  0  0  0  0  3  0  0  0  0  0  0
  187.0200  178.5480  141.5980 C   0  0  0  0  0  0  0  0  0  0  0  0
  185.7160  178.9840  142.1300 C   0  0  0  0  0  0  0  0  0  0  0  0
  185.5410  180.1830  142.4810 O   0  0  0  0  0  0  0  0  0  0  0  0
  184.6030  177.9940  142.2810 C   0  0  1  0  0  3  0  0  0  0  0  0
  183.6480  178.4540  143.3680 C   0  0  0  0  0  1  0  0  0  0  0  0
  183.8650  177.8210  140.9640 C   0  0  0  0  0  2  0  0  0  0  0  0
  183.0860  179.0200  140.6600 N   0  0  0  0  0  2  0  0  0  0  0  0
  183.3390  178.1670  138.3670 C   0  0  0  0  0  1  0  0  0  0  0  0
  183.2580  179.4000  139.2550 C   0  0  0  0  0  0  0  0  0  0  0  0
  184.4090  180.1740  139.0930 O   0  0  0  0  0  1  0  0  0  0  0  0
  182.0580  180.2170  138.8230 C   0  0  0  0  0  1  0  0  0  0  0  0
  191.3790  176.8630  145.8780 C   0  0  0  0  0  2  0  0  0  0  0  0
  192.5040  175.6460  147.7350 C   0  0  0  0  0  1  0  0  0  0  0  0
  191.3890  176.6100  147.3740 C   0  0  0  0  0  2  0  0  0  0  0  0
  189.0270  177.7890  137.5520 C   0  0  0  0  0  2  0  0  0  0  0  0
  188.4190  176.5620  137.0620 N   0  0  0  0  0  2  0  0  0  0  0  0
  186.4590  175.1920  136.4520 N   0  0  0  0  0  2  0  0  0  0  0  0
  187.0110  176.4500  136.8540 C   0  0  0  0  0  0  0  0  0  0  0  0
  186.2600  177.4480  137.0320 O   0  0  0  0  0  0  0  0  0  0  0  0
  185.0390  175.0130  136.1890 C   0  0  0  0  0  2  0  0  0  0  0  0
  182.9280  174.4230  137.3080 O   0  0  0  0  0  0  0  0  0  0  0  0
  184.3430  174.4250  137.4190 C   0  0  1  0  0  3  0  0  0  0  0  0
  184.8940  173.0450  137.8000 C   0  0  0  0  0  2  0  0  0  0  0  0
  184.3880  171.9770  136.8360 C   0  0  0  0  0  2  0  0  0  0  0  0
  182.8770  172.0880  136.6810 C   0  0  0  0  0  2  0  0  0  0  0  0
  182.5320  173.5230  136.2940 C   0  0  0  0  0  2  0  0  0  0  0  0
  1 10  1  0  0  0  0
  2  4  1  0  0  0  0
  3  7  1  0  0  0  0
  4  1  2  0  0  0  0
  5  2  1  0  0  0  0
  5  8  1  0  0  0  0
  6  9  1  0  0  0  0
  6  5  2  0  0  0  0
  7  2  2  0  0  0  0
  8 12  2  0  0  0  0
  9 13  2  0  0  0  0
 10 24  1  0  0  0  0
 11  3  2  0  0  0  0
 11  6  1  0  0  0  0
 12  1  1  0  0  0  0
 13 14  1  0  0  0  0
 13  8  1  0  0  0  0
 14 16  1  0  0  0  0
 14 15  2  0  0  0  0
 16 17  1  1  0  0  0
 18 16  1  0  0  0  0
 19 18  1  0  0  0  0
 20 21  1  0  0  0  0
 21 19  1  0  0  0  0
 22 21  1  0  0  0  0
 23 21  1  0  0  0  0
 24 26  1  0  0  0  0
 26 25  1  0  0  0  0
 27 11  1  0  0  0  0
 28 27  1  0  0  0  0
 29 30  1  0  0  0  0
 30 31  2  0  0  0  0
 30 28  1  0  0  0  0
 32 29  1  0  0  0  0
 33 34  1  0  0  0  0
 34 32  1  6  0  0  0
 34 35  1  0  0  0  0
 36 35  1  0  0  0  0
 37 36  1  0  0  0  0
 38 37  1  0  0  0  0
 38 33  1  0  0  0  0
M  END
>  <MODEL>
1

>  <REMARK>
 VINA RESULT:      -7.7      0.000      0.000
  Name = 
  11 active torsions:
  status: ('A' for Active; 'I' for Inactive)
    1  A    between atoms: C_1  and  C_6
    2  A    between atoms: C_1  and  C_36
    3  A    between atoms: N_4  and  C_38
    4  A    between atoms: C_6  and  C_10
    5  A    between atoms: C_7  and  C_22
    6  A    between atoms: N_9  and  C_10
    7  A    between atoms: N_9  and  C_11
    8  A    between atoms: N_12  and  C_22
    9  A    between atoms: N_28  and  C_34
   10  A    between atoms: C_30  and  C_38
   11  A    between atoms: C_34  and  C_37
                            x       y       z     vdW  Elec       q    Type
                         _______ _______ _______ _____ _____    ______ ____

>  <TORSDO>
F 11

$$$$
=
 OpenBabel10232408063D

 38 41  0  0  1  0  0  0  0  0999 V2000
  190.0070  177.3790  143.9830 C   0  0  0  0  0  0  0  0  0  0  0  0
  187.6300  177.8300  144.1730 C   0  0  0  0  0  0  0  0  0  0  0  0
  185.1250  178.3650  144.2320 C   0  0  0  0  0  3  0  0  0  0  0  0
  188.9270  177.5300  144.7220 N   0  0  0  0  0  0  0  0  0  0  0  0
  187.5300  177.9560  142.8710 C   0  0  0  0  0  0  0  0  0  0  0  0
  186.3560  178.2980  142.1570 C   0  0  0  0  0  0  0  0  0  0  0  0
  186.3950  178.0410  145.0310 C   0  0  0  0  0  2  0  0  0  0  0  0
  188.6070  177.8360  141.9650 C   0  0  0  0  0  0  0  0  0  0  0  0
  186.6600  178.3960  140.8610 C   0  0  0  0  0  3  0  0  0  0  0  0
  191.2570  177.0840  144.6060 N   0  0  0  0  0  2  0  0  0  0  0  0
  185.1020  178.5030  142.8910 C   0  0  0  0  0  0  0  0  0  0  0  0
  189.9850  177.5150  142.4590 C   0  0  0  0  0  2  0  0  0  0  0  0
  188.1190  178.0950  140.7480 C   0  0  0  0  0  0  0  0  0  0  0  0
  188.8920  178.1180  139.4930 C   0  0  0  0  0  0  0  0  0  0  0  0
  189.1170  179.2110  138.9050 O   0  0  0  0  0  0  0  0  0  0  0  0
  189.3870  176.8370  138.8970 C   0  0  1  0  0  3  0  0  0  0  0  0
  188.6970  176.5870  137.5670 C   0  0  0  0  0  1  0  0  0  0  0  0
  190.8950  176.8850  138.7120 C   0  0  0  0  0  2  0  0  0  0  0  0
  191.4230  175.5360  138.5120 N   0  0  0  0  0  2  0  0  0  0  0  0
  193.2370  174.1960  137.5310 C   0  0  0  0  0  1  0  0  0  0  0  0
  192.5900  175.5690  137.6270 C   0  0  0  0  0  0  0  0  0  0  0  0
  193.5260  176.5010  138.0840 O   0  0  0  0  0  1  0  0  0  0  0  0
  192.1360  175.9790  136.2410 C   0  0  0  0  0  1  0  0  0  0  0  0
  191.4040  176.9680  146.0490 C   0  0  0  0  0  2  0  0  0  0  0  0
  192.5330  175.6700  147.8470 C   0  0  0  0  0  1  0  0  0  0  0  0
  192.0800  175.6560  146.3990 C   0  0  0  0  0  2  0  0  0  0  0  0
  183.8280  178.8030  142.1820 C   0  0  0  0  0  2  0  0  0  0  0  0
  183.4500  177.6710  141.3530 N   0  0  0  0  0  2  0  0  0  0  0  0
  182.6660  176.6870  139.2290 N   0  0  0  0  0  2  0  0  0  0  0  0
  183.1120  177.8250  139.9740 C   0  0  0  0  0  0  0  0  0  0  0  0
  183.1980  178.9550  139.4210 O   0  0  0  0  0  0  0  0  0  0  0  0
  182.3370  176.7620  137.8130 C   0  0  0  0  0  2  0  0  0  0  0  0
  182.8310  175.7100  135.6450 O   0  0  0  0  0  0  0  0  0  0  0  0
  183.1710  175.7520  137.0220 C   0  0  1  0  0  3  0  0  0  0  0  0
  184.6780  175.9390  137.2390 C   0  0  0  0  0  2  0  0  0  0  0  0
  185.1860  177.1580  136.4770 C   0  0  0  0  0  2  0  0  0  0  0  0
  184.7070  177.1070  135.0330 C   0  0  0  0  0  2  0  0  0  0  0  0
  183.1920  176.9290  135.0290 C   0  0  0  0  0  2  0  0  0  0  0  0
  1 10  1  0  0  0  0
  1  4  2  0  0  0  0
  2  4  1  0  0  0  0
  2  7  1  0  0  0  0
  3  7  1  0  0  0  0
  5  2  2  0  0  0  0
  6  5  1  0  0  0  0
  6 11  1  0  0  0  0
  8 12  1  0  0  0  0
  8  5  1  0  0  0  0
  9  6  2  0  0  0  0
 10 24  1  0  0  0  0
 11  3  2  0  0  0  0
 12  1  1  0  0  0  0
 13  9  1  0  0  0  0
 13  8  2  0  0  0  0
 14 13  1  0  0  0  0
 15 14  2  0  0  0  0
 16 17  1  6  0  0  0
 16 14  1  0  0  0  0
 18 16  1  0  0  0  0
 19 18  1  0  0  0  0
 20 21  1  0  0  0  0
 21 22  1  0  0  0  0
 21 19  1  0  0  0  0
 23 21  1  0  0  0  0
 24 26  1  0  0  0  0
 26 25  1  0  0  0  0
 27 11  1  0  0  0  0
 28 27  1  0  0  0  0
 29 30  1  0  0  0  0
 30 28  1  0  0  0  0
 31 30  2  0  0  0  0
 32 29  1  0  0  0  0
 33 34  1  0  0  0  0
 34 35  1  0  0  0  0
 34 32  1  1  0  0  0
 36 35  1  0  0  0  0
 37 36  1  0  0  0  0
 38 37  1  0  0  0  0
 38 33  1  0  0  0  0
M  END
>  <MODEL>
2

>  <REMARK>
 VINA RESULT:      -7.7      2.242      5.558
  Name = 
  11 active torsions:
  status: ('A' for Active; 'I' for Inactive)
    1  A    between atoms: C_1  and  C_6
    2  A    between atoms: C_1  and  C_36
    3  A    between atoms: N_4  and  C_38
    4  A    between atoms: C_6  and  C_10
    5  A    between atoms: C_7  and  C_22
    6  A    between atoms: N_9  and  C_10
    7  A    between atoms: N_9  and  C_11
    8  A    between atoms: N_12  and  C_22
    9  A    between atoms: N_28  and  C_34
   10  A    between atoms: C_30  and  C_38
   11  A    between atoms: C_34  and  C_37
                            x       y       z     vdW  Elec       q    Type
                         _______ _______ _______ _____ _____    ______ ____

>  <TORSDO>
F 11

$$$$
=
 OpenBabel10232408063D

 38 41  0  0  1  0  0  0  0  0999 V2000
  186.7010  178.0250  142.8910 C   0  0  0  0  0  0  0  0  0  0  0  0
  187.5110  178.0460  140.6040 C   0  0  0  0  0  0  0  0  0  0  0  0
  188.5090  178.0590  138.2430 C   0  0  0  0  0  3  0  0  0  0  0  0
  186.5090  178.2740  141.6120 N   0  0  0  0  0  0  0  0  0  0  0  0
  188.6700  177.5660  140.9890 C   0  0  0  0  0  0  0  0  0  0  0  0
  189.7890  177.3270  140.1540 C   0  0  0  0  0  0  0  0  0  0  0  0
  187.2990  178.3700  139.1360 C   0  0  0  0  0  3  0  0  0  0  0  0
  189.0150  177.2700  142.3260 C   0  0  0  0  0  0  0  0  0  0  0  0
  190.8010  176.9020  140.9130 C   0  0  0  0  0  3  0  0  0  0  0  0
  185.6550  178.2800  143.8290 N   0  0  0  0  0  2  0  0  0  0  0  0
  189.6810  177.5870  138.7150 C   0  0  0  0  0  0  0  0  0  0  0  0
  188.0210  177.4710  143.4310 C   0  0  0  0  0  3  0  0  0  0  0  0
  190.2890  176.8690  142.3170 C   0  0  0  0  0  0  0  0  0  0  0  0
  191.0850  176.4870  143.4970 C   0  0  0  0  0  0  0  0  0  0  0  0
  191.3300  175.2730  143.7330 O   0  0  0  0  0  0  0  0  0  0  0  0
  191.5800  177.5430  144.4370 C   0  0  1  0  0  3  0  0  0  0  0  0
  191.1720  178.9150  143.9310 C   0  0  0  0  0  1  0  0  0  0  0  0
  191.0340  177.3080  145.8350 C   0  0  0  0  0  2  0  0  0  0  0  0
  189.7540  177.9960  146.0000 N   0  0  0  0  0  2  0  0  0  0  0  0
  189.3700  178.3630  148.4010 C   0  0  0  0  0  1  0  0  0  0  0  0
  189.0560  177.5000  147.1890 C   0  0  0  0  0  0  0  0  0  0  0  0
  189.4110  176.1740  147.4490 O   0  0  0  0  0  1  0  0  0  0  0  0
  187.5630  177.5620  146.9360 C   0  0  0  0  0  1  0  0  0  0  0  0
  184.3710  178.8400  143.4350 C   0  0  0  0  0  2  0  0  0  0  0  0
  184.2320  178.7680  145.9180 C   0  0  0  0  0  1  0  0  0  0  0  0
  183.4400  178.8950  144.6300 C   0  0  0  0  0  2  0  0  0  0  0  0
  190.8070  177.2940  137.7860 C   0  0  0  0  0  2  0  0  0  0  0  0
  191.2510  175.9230  137.9720 N   0  0  0  0  0  2  0  0  0  0  0  0
  192.8640  174.0870  137.6280 N   0  0  0  0  0  2  0  0  0  0  0  0
  192.5160  175.4680  137.4910 C   0  0  0  0  0  0  0  0  0  0  0  0
  193.3150  176.2750  136.9420 O   0  0  0  0  0  0  0  0  0  0  0  0
  194.1490  173.5590  137.1910 C   0  0  0  0  0  2  0  0  0  0  0  0
  195.5360  171.9080  138.3740 O   0  0  0  0  0  0  0  0  0  0  0  0
  195.0250  173.2310  138.4020 C   0  0  1  0  0  3  0  0  0  0  0  0
  196.1300  174.2720  138.6250 C   0  0  0  0  0  2  0  0  0  0  0  0
  197.2460  174.1010  137.6010 C   0  0  0  0  0  2  0  0  0  0  0  0
  197.6850  172.6440  137.5450 C   0  0  0  0  0  2  0  0  0  0  0  0
  196.4540  171.7740  137.3090 C   0  0  0  0  0  2  0  0  0  0  0  0
  1 12  1  0  0  0  0
  1 10  1  0  0  0  0
  2  5  1  0  0  0  0
  2  4  1  0  0  0  0
  3 11  2  0  0  0  0
  3  7  1  0  0  0  0
  4  1  2  0  0  0  0
  5  8  1  0  0  0  0
  6  9  1  0  0  0  0
  6  5  2  0  0  0  0
  7  2  2  0  0  0  0
  8 12  2  0  0  0  0
  9 13  2  0  0  0  0
 11  6  1  0  0  0  0
 13  8  1  0  0  0  0
 13 14  1  0  0  0  0
 14 15  2  0  0  0  0
 14 16  1  0  0  0  0
 16 17  1  6  0  0  0
 16 18  1  0  0  0  0
 18 19  1  0  0  0  0
 19 21  1  0  0  0  0
 21 22  1  0  0  0  0
 21 20  1  0  0  0  0
 23 21  1  0  0  0  0
 24 10  1  0  0  0  0
 24 26  1  0  0  0  0
 26 25  1  0  0  0  0
 27 28  1  0  0  0  0
 27 11  1  0  0  0  0
 30 29  1  0  0  0  0
 30 28  1  0  0  0  0
 31 30  2  0  0  0  0
 32 29  1  0  0  0  0
 33 34  1  0  0  0  0
 34 32  1  6  0  0  0
 34 35  1  0  0  0  0
 36 35  1  0  0  0  0
 37 36  1  0  0  0  0
 38 37  1  0  0  0  0
 38 33  1  0  0  0  0
M  END
>  <MODEL>
3

>  <REMARK>
 VINA RESULT:      -7.6      4.407      7.902
  Name = 
  11 active torsions:
  status: ('A' for Active; 'I' for Inactive)
    1  A    between atoms: C_1  and  C_6
    2  A    between atoms: C_1  and  C_36
    3  A    between atoms: N_4  and  C_38
    4  A    between atoms: C_6  and  C_10
    5  A    between atoms: C_7  and  C_22
    6  A    between atoms: N_9  and  C_10
    7  A    between atoms: N_9  and  C_11
    8  A    between atoms: N_12  and  C_22
    9  A    between atoms: N_28  and  C_34
   10  A    between atoms: C_30  and  C_38
   11  A    between atoms: C_34  and  C_37
                            x       y       z     vdW  Elec       q    Type
                         _______ _______ _______ _____ _____    ______ ____

>  <TORSDO>
F 11

$$$$
=
 OpenBabel10232408063D

 38 41  0  0  1  0  0  0  0  0999 V2000
  183.2030  178.7510  143.0690 C   0  0  0  0  0  0  0  0  0  0  0  0
  185.0530  178.5700  141.5100 C   0  0  0  0  0  0  0  0  0  0  0  0
  187.1030  178.3950  139.9820 C   0  0  0  0  0  3  0  0  0  0  0  0
  183.6710  178.8000  141.8390 N   0  0  0  0  0  0  0  0  0  0  0  0
  185.8800  178.2980  142.4920 C   0  0  0  0  0  0  0  0  0  0  0  0
  187.2770  178.0950  142.3710 C   0  0  0  0  0  0  0  0  0  0  0  0
  185.5960  178.6650  140.0950 C   0  0  0  0  0  3  0  0  0  0  0  0
  185.5170  178.2300  143.8560 C   0  0  0  0  0  0  0  0  0  0  0  0
  187.7860  177.9090  143.5910 C   0  0  0  0  0  3  0  0  0  0  0  0
  181.8170  178.9930  143.3120 N   0  0  0  0  0  2  0  0  0  0  0  0
  187.8970  178.1440  141.0430 C   0  0  0  0  0  0  0  0  0  0  0  0
  184.0940  178.4480  144.2760 C   0  0  0  0  0  3  0  0  0  0  0  0
  186.6380  177.9980  144.5440 C   0  0  0  0  0  0  0  0  0  0  0  0
  186.7460  177.8830  146.0090 C   0  0  0  0  0  0  0  0  0  0  0  0
  185.7180  177.6700  146.7080 O   0  0  0  0  0  0  0  0  0  0  0  0
  188.0780  178.0470  146.6740 C   0  0  1  0  0  3  0  0  0  0  0  0
  187.8940  178.1400  148.1790 C   0  0  0  0  0  1  0  0  0  0  0  0
  188.9940  176.8870  146.3220 C   0  0  0  0  0  2  0  0  0  0  0  0
  189.8320  176.5390  147.4680 N   0  0  0  0  0  2  0  0  0  0  0  0
  191.8210  175.1690  147.0040 C   0  0  0  0  0  1  0  0  0  0  0  0
  191.2490  176.5750  147.0960 C   0  0  0  0  0  0  0  0  0  0  0  0
  191.9810  177.3220  148.0220 O   0  0  0  0  0  1  0  0  0  0  0  0
  191.3770  177.2300  145.7360 C   0  0  0  0  0  1  0  0  0  0  0  0
  180.8840  179.3260  142.2460 C   0  0  0  0  0  2  0  0  0  0  0  0
  180.3470  177.8200  140.3400 C   0  0  0  0  0  1  0  0  0  0  0  0
  180.1220  178.0870  141.8160 C   0  0  0  0  0  2  0  0  0  0  0  0
  189.3500  177.8770  140.8550 C   0  0  0  0  0  2  0  0  0  0  0  0
  189.6560  177.8160  139.4350 N   0  0  0  0  0  2  0  0  0  0  0  0
  190.8850  176.8860  137.5070 N   0  0  0  0  0  2  0  0  0  0  0  0
  190.5560  176.8450  138.8990 C   0  0  0  0  0  0  0  0  0  0  0  0
  191.0620  175.9660  139.6480 O   0  0  0  0  0  0  0  0  0  0  0  0
  191.7670  175.9090  136.8850 C   0  0  0  0  0  2  0  0  0  0  0  0
  193.9690  175.9360  137.9830 O   0  0  0  0  0  0  0  0  0  0  0  0
  193.2090  176.4220  136.8870 C   0  0  1  0  0  3  0  0  0  0  0  0
  193.9160  176.1880  135.5460 C   0  0  0  0  0  2  0  0  0  0  0  0
  194.2960  174.7210  135.3850 C   0  0  0  0  0  2  0  0  0  0  0  0
  195.0190  174.2290  136.6310 C   0  0  0  0  0  2  0  0  0  0  0  0
  194.1570  174.5420  137.8500 C   0  0  0  0  0  2  0  0  0  0  0  0
  1 10  1  0  0  0  0
  1 12  1  0  0  0  0
  2  4  1  0  0  0  0
  2  5  1  0  0  0  0
  3  7  1  0  0  0  0
  3 11  2  0  0  0  0
  4  1  2  0  0  0  0
  5  8  1  0  0  0  0
  6  5  2  0  0  0  0
  6  9  1  0  0  0  0
  7  2  2  0  0  0  0
  8 12  2  0  0  0  0
  8 13  1  0  0  0  0
  9 13  2  0  0  0  0
 11  6  1  0  0  0  0
 13 14  1  0  0  0  0
 14 16  1  0  0  0  0
 14 15  2  0  0  0  0
 16 17  1  1  0  0  0
 18 16  1  0  0  0  0
 18 19  1  0  0  0  0
 20 21  1  0  0  0  0
 21 19  1  0  0  0  0
 21 22  1  0  0  0  0
 23 21  1  0  0  0  0
 24 10  1  0  0  0  0
 25 26  1  0  0  0  0
 26 24  1  0  0  0  0
 27 11  1  0  0  0  0
 28 27  1  0  0  0  0
 29 30  1  0  0  0  0
 30 28  1  0  0  0  0
 30 31  2  0  0  0  0
 32 29  1  0  0  0  0
 34 32  1  6  0  0  0
 34 33  1  0  0  0  0
 35 34  1  0  0  0  0
 36 35  1  0  0  0  0
 36 37  1  0  0  0  0
 37 38  1  0  0  0  0
 38 33  1  0  0  0  0
M  END
>  <MODEL>
4

>  <REMARK>
 VINA RESULT:      -7.6      3.811      8.126
  Name = 
  11 active torsions:
  status: ('A' for Active; 'I' for Inactive)
    1  A    between atoms: C_1  and  C_6
    2  A    between atoms: C_1  and  C_36
    3  A    between atoms: N_4  and  C_38
    4  A    between atoms: C_6  and  C_10
    5  A    between atoms: C_7  and  C_22
    6  A    between atoms: N_9  and  C_10
    7  A    between atoms: N_9  and  C_11
    8  A    between atoms: N_12  and  C_22
    9  A    between atoms: N_28  and  C_34
   10  A    between atoms: C_30  and  C_38
   11  A    between atoms: C_34  and  C_37
                            x       y       z     vdW  Elec       q    Type
                         _______ _______ _______ _____ _____    ______ ____

>  <TORSDO>
F 11

$$$$
=
 OpenBabel10232408063D

 38 41  0  0  1  0  0  0  0  0999 V2000
  187.9670  177.2900  145.4600 C   0  0  0  0  0  0  0  0  0  0  0  0
  185.9580  178.0290  144.3180 C   0  0  0  0  0  0  0  0  0  0  0  0
  183.9240  178.8520  142.9930 C   0  0  0  0  0  3  0  0  0  0  0  0
  186.6970  177.6410  145.4900 N   0  0  0  0  0  0  0  0  0  0  0  0
  186.5880  178.0290  143.1670 C   0  0  0  0  0  0  0  0  0  0  0  0
  186.0450  178.4280  141.9210 C   0  0  0  0  0  0  0  0  0  0  0  0
  184.5050  178.4690  144.3610 C   0  0  0  0  0  2  0  0  0  0  0  0
  187.9490  177.6920  142.9940 C   0  0  0  0  0  0  0  0  0  0  0  0
  187.0050  178.3540  140.9960 C   0  0  0  0  0  3  0  0  0  0  0  0
  188.6290  176.9200  146.6700 N   0  0  0  0  0  2  0  0  0  0  0  0
  184.6420  178.8500  141.8510 C   0  0  0  0  0  0  0  0  0  0  0  0
  188.7830  177.2680  144.1660 C   0  0  0  0  0  2  0  0  0  0  0  0
  188.2320  177.8760  141.7020 C   0  0  0  0  0  0  0  0  0  0  0  0
  189.5480  177.6790  141.0670 C   0  0  0  0  0  0  0  0  0  0  0  0
  190.6070  177.8580  141.7300 O   0  0  0  0  0  0  0  0  0  0  0  0
  189.6300  177.2940  139.6230 C   0  0  1  0  0  3  0  0  0  0  0  0
  189.3650  178.5080  138.7500 C   0  0  0  0  0  1  0  0  0  0  0  0
  190.9930  176.7010  139.3080 C   0  0  0  0  0  2  0  0  0  0  0  0
  190.8430  175.4670  138.5380 N   0  0  0  0  0  2  0  0  0  0  0  0
  191.4840  175.8820  136.2000 C   0  0  0  0  0  1  0  0  0  0  0  0
  191.9210  175.3430  137.5530 C   0  0  0  0  0  0  0  0  0  0  0  0
  192.3170  174.0100  137.4250 O   0  0  0  0  0  1  0  0  0  0  0  0
  193.1070  176.1580  138.0280 C   0  0  0  0  0  1  0  0  0  0  0  0
  187.9630  176.9390  147.9630 C   0  0  0  0  0  2  0  0  0  0  0  0
  189.9180  178.3960  148.4620 C   0  0  0  0  0  1  0  0  0  0  0  0
  188.4630  178.1110  148.7870 C   0  0  0  0  0  2  0  0  0  0  0  0
  184.0060  179.2200  140.5560 C   0  0  0  0  0  2  0  0  0  0  0  0
  183.8110  178.0270  139.7490 N   0  0  0  0  0  2  0  0  0  0  0  0
  184.1610  176.7010  137.6970 N   0  0  0  0  0  2  0  0  0  0  0  0
  184.4560  177.8570  138.4870 C   0  0  0  0  0  0  0  0  0  0  0  0
  185.2720  178.7230  138.0680 O   0  0  0  0  0  0  0  0  0  0  0  0
  184.8050  176.4450  136.4170 C   0  0  0  0  0  2  0  0  0  0  0  0
  186.0390  174.5470  135.4560 O   0  0  0  0  0  0  0  0  0  0  0  0
  185.9120  175.4020  136.5810 C   0  0  1  0  0  3  0  0  0  0  0  0
  187.2530  176.0300  136.9840 C   0  0  0  0  0  2  0  0  0  0  0  0
  187.9010  176.7270  135.7930 C   0  0  0  0  0  2  0  0  0  0  0  0
  187.9190  175.7950  134.5890 C   0  0  0  0  0  2  0  0  0  0  0  0
  186.5020  175.2870  134.3460 C   0  0  0  0  0  2  0  0  0  0  0  0
  1  4  2  0  0  0  0
  1 10  1  0  0  0  0
  2  7  1  0  0  0  0
  2  4  1  0  0  0  0
  3  7  1  0  0  0  0
  5  2  2  0  0  0  0
  6  5  1  0  0  0  0
  8  5  1  0  0  0  0
  8 12  1  0  0  0  0
  9 13  1  0  0  0  0
  9  6  2  0  0  0  0
 10 24  1  0  0  0  0
 11  6  1  0  0  0  0
 11  3  2  0  0  0  0
 12  1  1  0  0  0  0
 13  8  2  0  0  0  0
 14 13  1  0  0  0  0
 14 15  2  0  0  0  0
 16 17  1  6  0  0  0
 16 14  1  0  0  0  0
 18 16  1  0  0  0  0
 19 18  1  0  0  0  0
 20 21  1  0  0  0  0
 21 23  1  0  0  0  0
 21 19  1  0  0  0  0
 22 21  1  0  0  0  0
 24 26  1  0  0  0  0
 25 26  1  0  0  0  0
 27 11  1  0  0  0  0
 28 27  1  0  0  0  0
 29 30  1  0  0  0  0
 30 28  1  0  0  0  0
 31 30  2  0  0  0  0
 32 29  1  0  0  0  0
 33 34  1  0  0  0  0
 34 32  1  6  0  0  0
 34 35  1  0  0  0  0
 36 35  1  0  0  0  0
 37 36  1  0  0  0  0
 38 37  1  0  0  0  0
 38 33  1  0  0  0  0
M  END
>  <MODEL>
5

>  <REMARK>
 VINA RESULT:      -7.5      2.464      5.595
  Name = 
  11 active torsions:
  status: ('A' for Active; 'I' for Inactive)
    1  A    between atoms: C_1  and  C_6
    2  A    between atoms: C_1  and  C_36
    3  A    between atoms: N_4  and  C_38
    4  A    between atoms: C_6  and  C_10
    5  A    between atoms: C_7  and  C_22
    6  A    between atoms: N_9  and  C_10
    7  A    between atoms: N_9  and  C_11
    8  A    between atoms: N_12  and  C_22
    9  A    between atoms: N_28  and  C_34
   10  A    between atoms: C_30  and  C_38
   11  A    between atoms: C_34  and  C_37
                            x       y       z     vdW  Elec       q    Type
                         _______ _______ _______ _____ _____    ______ ____

>  <TORSDO>
F 11

$$$$
=
 OpenBabel10232408063D

 38 41  0  0  1  0  0  0  0  0999 V2000
  188.1050  177.6740  144.2180 C   0  0  0  0  0  0  0  0  0  0  0  0
  189.5020  177.3490  142.2610 C   0  0  0  0  0  0  0  0  0  0  0  0
  190.8490  177.0060  140.1080 C   0  0  0  0  0  3  0  0  0  0  0  0
  189.2530  177.3170  143.6780 N   0  0  0  0  0  0  0  0  0  0  0  0
  188.5310  177.7550  141.4760 C   0  0  0  0  0  0  0  0  0  0  0  0
  188.5710  177.8040  140.0610 C   0  0  0  0  0  0  0  0  0  0  0  0
  190.8120  176.9000  141.6390 C   0  0  0  0  0  2  0  0  0  0  0  0
  187.2490  178.1500  141.9200 C   0  0  0  0  0  0  0  0  0  0  0  0
  187.3790  178.2070  139.6170 C   0  0  0  0  0  3  0  0  0  0  0  0
  187.9380  177.6130  145.6350 N   0  0  0  0  0  2  0  0  0  0  0  0
  189.8000  177.4120  139.3630 C   0  0  0  0  0  0  0  0  0  0  0  0
  186.9170  178.1540  143.3810 C   0  0  0  0  0  2  0  0  0  0  0  0
  186.5320  178.4280  140.8280 C   0  0  0  0  0  0  0  0  0  0  0  0
  185.1200  178.8510  140.8040 C   0  0  0  0  0  0  0  0  0  0  0  0
  184.7790  179.8980  140.1900 O   0  0  0  0  0  0  0  0  0  0  0  0
  184.0890  178.0490  141.5370 C   0  0  1  0  0  3  0  0  0  0  0  0
  183.6890  178.7670  142.8140 C   0  0  0  0  0  1  0  0  0  0  0  0
  182.8730  177.8160  140.6550 C   0  0  0  0  0  2  0  0  0  0  0  0
  183.0580  176.6120  139.8470 N   0  0  0  0  0  2  0  0  0  0  0  0
  182.0640  178.1990  138.2520 C   0  0  0  0  0  1  0  0  0  0  0  0
  182.8580  176.9140  138.4260 C   0  0  0  0  0  0  0  0  0  0  0  0
  182.1980  175.8610  137.7890 O   0  0  0  0  0  1  0  0  0  0  0  0
  184.2130  177.1010  137.7760 C   0  0  0  0  0  1  0  0  0  0  0  0
  188.9860  177.1380  146.5260 C   0  0  0  0  0  2  0  0  0  0  0  0
  187.5710  178.2830  148.2230 C   0  0  0  0  0  1  0  0  0  0  0  0
  188.9920  177.9570  147.8030 C   0  0  0  0  0  2  0  0  0  0  0  0
  189.9150  177.5040  137.8810 C   0  0  0  0  0  2  0  0  0  0  0  0
  189.7980  176.1780  137.2980 N   0  0  0  0  0  2  0  0  0  0  0  0
  188.4780  174.3260  136.3380 N   0  0  0  0  0  2  0  0  0  0  0  0
  188.5500  175.6710  136.8240 C   0  0  0  0  0  0  0  0  0  0  0  0
  187.5200  176.3970  136.8430 O   0  0  0  0  0  0  0  0  0  0  0  0
  187.2490  173.7530  135.8090 C   0  0  0  0  0  2  0  0  0  0  0  0
  186.2900  172.7980  137.8630 O   0  0  0  0  0  0  0  0  0  0  0  0
  186.8650  172.5010  136.6000 C   0  0  1  0  0  3  0  0  0  0  0  0
  185.9980  171.5350  135.7830 C   0  0  0  0  0  2  0  0  0  0  0  0
  184.5720  172.0610  135.6640 C   0  0  0  0  0  2  0  0  0  0  0  0
  184.0440  172.4560  137.0360 C   0  0  0  0  0  2  0  0  0  0  0  0
  185.0360  173.4200  137.6790 C   0  0  0  0  0  2  0  0  0  0  0  0
  1 10  1  0  0  0  0
  2  4  1  0  0  0  0
  3  7  1  0  0  0  0
  4  1  2  0  0  0  0
  5  8  1  0  0  0  0
  5  2  2  0  0  0  0
  6  5  1  0  0  0  0
  7  2  1  0  0  0  0
  8 12  1  0  0  0  0
  9  6  2  0  0  0  0
  9 13  1  0  0  0  0
 10 24  1  0  0  0  0
 11  6  1  0  0  0  0
 11  3  2  0  0  0  0
 12  1  1  0  0  0  0
 13  8  2  0  0  0  0
 14 13  1  0  0  0  0
 14 16  1  0  0  0  0
 15 14  2  0  0  0  0
 16 17  1  1  0  0  0
 18 16  1  0  0  0  0
 19 18  1  0  0  0  0
 20 21  1  0  0  0  0
 21 19  1  0  0  0  0
 22 21  1  0  0  0  0
 23 21  1  0  0  0  0
 24 26  1  0  0  0  0
 26 25  1  0  0  0  0
 27 11  1  0  0  0  0
 28 27  1  0  0  0  0
 29 30  1  0  0  0  0
 30 31  2  0  0  0  0
 30 28  1  0  0  0  0
 32 29  1  0  0  0  0
 34 32  1  6  0  0  0
 34 33  1  0  0  0  0
 35 34  1  0  0  0  0
 36 35  1  0  0  0  0
 36 37  1  0  0  0  0
 37 38  1  0  0  0  0
 38 33  1  0  0  0  0
M  END
>  <MODEL>
6

>  <REMARK>
 VINA RESULT:      -7.5      1.715      2.252
  Name = 
  11 active torsions:
  status: ('A' for Active; 'I' for Inactive)
    1  A    between atoms: C_1  and  C_6
    2  A    between atoms: C_1  and  C_36
    3  A    between atoms: N_4  and  C_38
    4  A    between atoms: C_6  and  C_10
    5  A    between atoms: C_7  and  C_22
    6  A    between atoms: N_9  and  C_10
    7  A    between atoms: N_9  and  C_11
    8  A    between atoms: N_12  and  C_22
    9  A    between atoms: N_28  and  C_34
   10  A    between atoms: C_30  and  C_38
   11  A    between atoms: C_34  and  C_37
                            x       y       z     vdW  Elec       q    Type
                         _______ _______ _______ _____ _____    ______ ____

>  <TORSDO>
F 11

$$$$
=
 OpenBabel10232408063D

 38 41  0  0  1  0  0  0  0  0999 V2000
  188.7060  177.5890  144.3040 C   0  0  0  0  0  0  0  0  0  0  0  0
  189.7650  177.4080  142.1280 C   0  0  0  0  0  0  0  0  0  0  0  0
  190.7440  177.2220  139.7670 C   0  0  0  0  0  3  0  0  0  0  0  0
  189.7500  177.2810  143.5620 N   0  0  0  0  0  0  0  0  0  0  0  0
  188.6790  177.8540  141.5410 C   0  0  0  0  0  0  0  0  0  0  0  0
  188.4880  177.9950  140.1450 C   0  0  0  0  0  0  0  0  0  0  0  0
  190.9570  177.0160  141.2740 C   0  0  0  0  0  3  0  0  0  0  0  0
  187.4870  178.2050  142.2120 C   0  0  0  0  0  0  0  0  0  0  0  0
  187.2400  178.4130  139.9270 C   0  0  0  0  0  3  0  0  0  0  0  0
  188.7720  177.4340  145.7220 N   0  0  0  0  0  2  0  0  0  0  0  0
  189.5870  177.6640  139.2320 C   0  0  0  0  0  0  0  0  0  0  0  0
  187.3970  178.1100  143.7050 C   0  0  0  0  0  3  0  0  0  0  0  0
  186.6010  178.5450  141.2720 C   0  0  0  0  0  0  0  0  0  0  0  0
  185.2040  178.9520  141.5060 C   0  0  0  0  0  0  0  0  0  0  0  0
  184.5510  179.5380  140.6000 O   0  0  0  0  0  0  0  0  0  0  0  0
  184.5640  178.6960  142.8360 C   0  0  1  0  0  3  0  0  0  0  0  0
  184.7190  179.9160  143.7260 C   0  0  0  0  0  1  0  0  0  0  0  0
  183.0950  178.3490  142.6600 C   0  0  0  0  0  2  0  0  0  0  0  0
  182.2640  179.2560  143.4520 N   0  0  0  0  0  2  0  0  0  0  0  0
  180.8230  178.6940  141.5390 C   0  0  0  0  0  1  0  0  0  0  0  0
  180.8860  179.2540  142.9520 C   0  0  0  0  0  0  0  0  0  0  0  0
  180.3560  180.5460  142.9710 O   0  0  0  0  0  1  0  0  0  0  0  0
  180.0450  178.3710  143.8500 C   0  0  0  0  0  1  0  0  0  0  0  0
  189.9510  176.9140  146.3970 C   0  0  0  0  0  2  0  0  0  0  0  0
  188.5490  177.7140  148.2910 C   0  0  0  0  0  1  0  0  0  0  0  0
  189.9560  177.3560  147.8480 C   0  0  0  0  0  2  0  0  0  0  0  0
  189.4590  177.8530  137.7600 C   0  0  0  0  0  2  0  0  0  0  0  0
  189.4230  176.5580  137.1010 N   0  0  0  0  0  2  0  0  0  0  0  0
  188.2170  174.6090  136.1860 N   0  0  0  0  0  2  0  0  0  0  0  0
  188.1930  175.9210  136.7570 C   0  0  0  0  0  0  0  0  0  0  0  0
  187.0950  176.5060  136.9620 O   0  0  0  0  0  0  0  0  0  0  0  0
  187.0050  173.9130  135.7790 C   0  0  0  0  0  2  0  0  0  0  0  0
  186.2860  172.7850  137.8440 O   0  0  0  0  0  0  0  0  0  0  0  0
  186.8600  172.6040  136.5590 C   0  0  1  0  0  3  0  0  0  0  0  0
  186.1370  171.5180  135.7520 C   0  0  0  0  0  2  0  0  0  0  0  0
  184.6410  171.8020  135.6860 C   0  0  0  0  0  2  0  0  0  0  0  0
  184.1010  172.0860  137.0800 C   0  0  0  0  0  2  0  0  0  0  0  0
  184.9400  173.1930  137.7110 C   0  0  0  0  0  2  0  0  0  0  0  0
  1 10  1  0  0  0  0
  2  4  1  0  0  0  0
  3  7  1  0  0  0  0
  4  1  2  0  0  0  0
  5  2  1  0  0  0  0
  5  8  1  0  0  0  0
  6  5  2  0  0  0  0
  7  2  2  0  0  0  0
  8 12  2  0  0  0  0
  9  6  1  0  0  0  0
  9 13  2  0  0  0  0
 10 24  1  0  0  0  0
 11  3  2  0  0  0  0
 11  6  1  0  0  0  0
 12  1  1  0  0  0  0
 13 14  1  0  0  0  0
 13  8  1  0  0  0  0
 14 16  1  0  0  0  0
 15 14  2  0  0  0  0
 16 17  1  1  0  0  0
 18 16  1  0  0  0  0
 18 19  1  0  0  0  0
 20 21  1  0  0  0  0
 21 22  1  0  0  0  0
 21 19  1  0  0  0  0
 21 23  1  0  0  0  0
 24 26  1  0  0  0  0
 26 25  1  0  0  0  0
 27 11  1  0  0  0  0
 28 27  1  0  0  0  0
 29 30  1  0  0  0  0
 30 31  2  0  0  0  0
 30 28  1  0  0  0  0
 32 29  1  0  0  0  0
 34 32  1  6  0  0  0
 34 33  1  0  0  0  0
 35 34  1  0  0  0  0
 36 35  1  0  0  0  0
 36 37  1  0  0  0  0
 37 38  1  0  0  0  0
 38 33  1  0  0  0  0
M  END
>  <MODEL>
7

>  <REMARK>
 VINA RESULT:      -7.3      1.898      2.359
  Name = 
  11 active torsions:
  status: ('A' for Active; 'I' for Inactive)
    1  A    between atoms: C_1  and  C_6
    2  A    between atoms: C_1  and  C_36
    3  A    between atoms: N_4  and  C_38
    4  A    between atoms: C_6  and  C_10
    5  A    between atoms: C_7  and  C_22
    6  A    between atoms: N_9  and  C_10
    7  A    between atoms: N_9  and  C_11
    8  A    between atoms: N_12  and  C_22
    9  A    between atoms: N_28  and  C_34
   10  A    between atoms: C_30  and  C_38
   11  A    between atoms: C_34  and  C_37
                            x       y       z     vdW  Elec       q    Type
                         _______ _______ _______ _____ _____    ______ ____

>  <TORSDO>
F 11

$$$$
=
 OpenBabel10232408063D

 38 41  0  0  1  0  0  0  0  0999 V2000
  188.3520  177.2680  145.5520 C   0  0  0  0  0  0  0  0  0  0  0  0
  189.2780  177.0920  143.3160 C   0  0  0  0  0  0  0  0  0  0  0  0
  190.1160  176.9280  140.9000 C   0  0  0  0  0  3  0  0  0  0  0  0
  189.3220  176.8970  144.7420 N   0  0  0  0  0  0  0  0  0  0  0  0
  188.2140  177.6690  142.8080 C   0  0  0  0  0  0  0  0  0  0  0  0
  187.9690  177.8970  141.4320 C   0  0  0  0  0  0  0  0  0  0  0  0
  190.3820  176.6290  142.3820 C   0  0  0  0  0  3  0  0  0  0  0  0
  187.0970  178.1000  143.5580 C   0  0  0  0  0  0  0  0  0  0  0  0
  186.7590  178.4420  141.3020 C   0  0  0  0  0  3  0  0  0  0  0  0
  188.4720  177.0380  146.9560 N   0  0  0  0  0  2  0  0  0  0  0  0
  188.9840  177.5050  140.4480 C   0  0  0  0  0  0  0  0  0  0  0  0
  187.0730  177.9410  145.0480 C   0  0  0  0  0  3  0  0  0  0  0  0
  186.2030  178.5700  142.6830 C   0  0  0  0  0  0  0  0  0  0  0  0
  184.8670  179.0980  143.0110 C   0  0  0  0  0  0  0  0  0  0  0  0
  184.7470  180.1070  143.7580 O   0  0  0  0  0  0  0  0  0  0  0  0
  183.6440  178.4170  142.4770 C   0  0  1  0  0  3  0  0  0  0  0  0
  182.4350  178.8000  143.3140 C   0  0  0  0  0  1  0  0  0  0  0  0
  183.4220  178.7890  141.0210 C   0  0  0  0  0  2  0  0  0  0  0  0
  182.1330  178.2750  140.5590 N   0  0  0  0  0  2  0  0  0  0  0  0
  183.4220  178.1930  138.4650 C   0  0  0  0  0  1  0  0  0  0  0  0
  182.2890  177.5830  139.2760 C   0  0  0  0  0  0  0  0  0  0  0  0
  181.1010  177.6360  138.5430 O   0  0  0  0  0  1  0  0  0  0  0  0
  182.6270  176.1310  139.5470 C   0  0  0  0  0  1  0  0  0  0  0  0
  189.6260  176.3740  147.5430 C   0  0  0  0  0  2  0  0  0  0  0  0
  191.9980  175.9490  146.9220 C   0  0  0  0  0  1  0  0  0  0  0  0
  190.9060  176.9980  147.0200 C   0  0  0  0  0  2  0  0  0  0  0  0
  188.8020  177.7790  138.9950 C   0  0  0  0  0  2  0  0  0  0  0  0
  189.0220  176.5590  138.2360 N   0  0  0  0  0  2  0  0  0  0  0  0
  188.2220  174.6640  136.8710 N   0  0  0  0  0  2  0  0  0  0  0  0
  187.9650  175.9080  137.5310 C   0  0  0  0  0  0  0  0  0  0  0  0
  186.8130  176.4200  137.4980 O   0  0  0  0  0  0  0  0  0  0  0  0
  187.2030  173.9620  136.1060 C   0  0  0  0  0  2  0  0  0  0  0  0
  186.1290  172.7930  137.9860 O   0  0  0  0  0  0  0  0  0  0  0  0
  186.8580  172.6320  136.7800 C   0  0  1  0  0  3  0  0  0  0  0  0
  186.1760  171.6480  135.8200 C   0  0  0  0  0  2  0  0  0  0  0  0
  184.7270  172.0530  135.5740 C   0  0  0  0  0  2  0  0  0  0  0  0
  184.0240  172.3090  136.8990 C   0  0  0  0  0  2  0  0  0  0  0  0
  184.8470  173.3130  137.7000 C   0  0  0  0  0  2  0  0  0  0  0  0
  1 10  1  0  0  0  0
  2  4  1  0  0  0  0
  3  7  1  0  0  0  0
  4  1  2  0  0  0  0
  5  2  1  0  0  0  0
  5  8  1  0  0  0  0
  6  5  2  0  0  0  0
  7  2  2  0  0  0  0
  8 12  2  0  0  0  0
  9  6  1  0  0  0  0
  9 13  2  0  0  0  0
 10 24  1  0  0  0  0
 11  3  2  0  0  0  0
 11  6  1  0  0  0  0
 12  1  1  0  0  0  0
 13 14  1  0  0  0  0
 13  8  1  0  0  0  0
 14 15  2  0  0  0  0
 16 14  1  0  0  0  0
 16 17  1  1  0  0  0
 18 16  1  0  0  0  0
 19 18  1  0  0  0  0
 20 21  1  0  0  0  0
 21 23  1  0  0  0  0
 21 19  1  0  0  0  0
 22 21  1  0  0  0  0
 25 26  1  0  0  0  0
 26 24  1  0  0  0  0
 27 11  1  0  0  0  0
 28 27  1  0  0  0  0
 29 30  1  0  0  0  0
 30 28  1  0  0  0  0
 31 30  2  0  0  0  0
 32 29  1  0  0  0  0
 34 32  1  6  0  0  0
 34 33  1  0  0  0  0
 35 34  1  0  0  0  0
 36 35  1  0  0  0  0
 36 37  1  0  0  0  0
 37 38  1  0  0  0  0
 38 33  1  0  0  0  0
M  END
>  <MODEL>
8

>  <REMARK>
 VINA RESULT:      -7.2      1.599      2.015
  Name = 
  11 active torsions:
  status: ('A' for Active; 'I' for Inactive)
    1  A    between atoms: C_1  and  C_6
    2  A    between atoms: C_1  and  C_36
    3  A    between atoms: N_4  and  C_38
    4  A    between atoms: C_6  and  C_10
    5  A    between atoms: C_7  and  C_22
    6  A    between atoms: N_9  and  C_10
    7  A    between atoms: N_9  and  C_11
    8  A    between atoms: N_12  and  C_22
    9  A    between atoms: N_28  and  C_34
   10  A    between atoms: C_30  and  C_38
   11  A    between atoms: C_34  and  C_37
                            x       y       z     vdW  Elec       q    Type
                         _______ _______ _______ _____ _____    ______ ____

>  <TORSDO>
F 11

$$$$
=
 OpenBabel10232408063D

 38 41  0  0  1  0  0  0  0  0999 V2000
  190.3890  176.4080  143.4040 C   0  0  0  0  0  0  0  0  0  0  0  0
  188.1730  177.2070  143.9820 C   0  0  0  0  0  0  0  0  0  0  0  0
  185.8320  178.1340  144.4630 C   0  0  0  0  0  3  0  0  0  0  0  0
  189.4390  176.6000  144.2960 N   0  0  0  0  0  0  0  0  0  0  0  0
  187.9640  177.5850  142.7420 C   0  0  0  0  0  0  0  0  0  0  0  0
  186.8070  178.2430  142.2580 C   0  0  0  0  0  0  0  0  0  0  0  0
  187.0950  177.4620  145.0210 C   0  0  0  0  0  2  0  0  0  0  0  0
  188.8990  177.4540  141.6920 C   0  0  0  0  0  0  0  0  0  0  0  0
  186.9890  178.5240  140.9660 C   0  0  0  0  0  3  0  0  0  0  0  0
  191.6190  175.7990  143.7970 N   0  0  0  0  0  2  0  0  0  0  0  0
  185.6980  178.5170  143.1770 C   0  0  0  0  0  0  0  0  0  0  0  0
  190.2360  176.8220  141.9390 C   0  0  0  0  0  2  0  0  0  0  0  0
  188.3460  178.0080  140.6100 C   0  0  0  0  0  0  0  0  0  0  0  0
  188.9750  178.1310  139.2830 C   0  0  0  0  0  0  0  0  0  0  0  0
  189.1560  179.2680  138.7680 O   0  0  0  0  0  0  0  0  0  0  0  0
  189.3740  176.9000  138.5290 C   0  0  1  0  0  3  0  0  0  0  0  0
  188.7530  176.9200  137.1440 C   0  0  0  0  0  1  0  0  0  0  0  0
  190.8880  176.8060  138.4310 C   0  0  0  0  0  2  0  0  0  0  0  0
  191.2850  176.4520  137.0690 N   0  0  0  0  0  2  0  0  0  0  0  0
  192.4160  174.7810  135.6630 C   0  0  0  0  0  1  0  0  0  0  0  0
  192.1500  175.2690  137.0790 C   0  0  0  0  0  0  0  0  0  0  0  0
  191.5700  174.2440  137.8300 O   0  0  0  0  0  1  0  0  0  0  0  0
  193.4750  175.6430  137.7100 C   0  0  0  0  0  1  0  0  0  0  0  0
  191.8900  175.3980  145.1690 C   0  0  0  0  0  2  0  0  0  0  0  0
  191.9420  176.1580  147.5380 C   0  0  0  0  0  1  0  0  0  0  0  0
  191.7270  176.5860  146.0980 C   0  0  0  0  0  2  0  0  0  0  0  0
  184.4360  179.1510  142.7040 C   0  0  0  0  0  2  0  0  0  0  0  0
  183.7230  178.2320  141.8320 N   0  0  0  0  0  2  0  0  0  0  0  0
  182.6770  177.6390  139.6770 N   0  0  0  0  0  2  0  0  0  0  0  0
  183.4570  178.5440  140.4650 C   0  0  0  0  0  0  0  0  0  0  0  0
  183.8960  179.6130  139.9590 O   0  0  0  0  0  0  0  0  0  0  0  0
  182.3940  177.8750  138.2690 C   0  0  0  0  0  2  0  0  0  0  0  0
  180.5960  179.5230  138.5860 O   0  0  0  0  0  0  0  0  0  0  0  0
  180.9200  178.2390  138.0790 C   0  0  1  0  0  3  0  0  0  0  0  0
  180.4530  178.0560  136.6290 C   0  0  0  0  0  2  0  0  0  0  0  0
  180.9830  179.1800  135.7460 C   0  0  0  0  0  2  0  0  0  0  0  0
  180.6940  180.5290  136.3900 C   0  0  0  0  0  2  0  0  0  0  0  0
  181.2400  180.5160  137.8140 C   0  0  0  0  0  2  0  0  0  0  0  0
  1 10  1  0  0  0  0
  1  4  2  0  0  0  0
  2  4  1  0  0  0  0
  2  7  1  0  0  0  0
  3  7  1  0  0  0  0
  5  2  2  0  0  0  0
  6  5  1  0  0  0  0
  6 11  1  0  0  0  0
  8 12  1  0  0  0  0
  8  5  1  0  0  0  0
  9  6  2  0  0  0  0
 10 24  1  0  0  0  0
 11  3  2  0  0  0  0
 12  1  1  0  0  0  0
 13  9  1  0  0  0  0
 13  8  2  0  0  0  0
 14 13  1  0  0  0  0
 15 14  2  0  0  0  0
 16 17  1  6  0  0  0
 16 14  1  0  0  0  0
 18 16  1  0  0  0  0
 19 21  1  0  0  0  0
 19 18  1  0  0  0  0
 20 21  1  0  0  0  0
 21 23  1  0  0  0  0
 21 22  1  0  0  0  0
 24 26  1  0  0  0  0
 26 25  1  0  0  0  0
 27 11  1  0  0  0  0
 28 27  1  0  0  0  0
 29 30  1  0  0  0  0
 30 28  1  0  0  0  0
 31 30  2  0  0  0  0
 32 29  1  0  0  0  0
 34 32  1  6  0  0  0
 34 33  1  0  0  0  0
 35 34  1  0  0  0  0
 36 37  1  0  0  0  0
 36 35  1  0  0  0  0
 37 38  1  0  0  0  0
 38 33  1  0  0  0  0
M  END
>  <MODEL>
9

>  <REMARK>
 VINA RESULT:      -7.2      2.764      6.089
  Name = 
  11 active torsions:
  status: ('A' for Active; 'I' for Inactive)
    1  A    between atoms: C_1  and  C_6
    2  A    between atoms: C_1  and  C_36
    3  A    between atoms: N_4  and  C_38
    4  A    between atoms: C_6  and  C_10
    5  A    between atoms: C_7  and  C_22
    6  A    between atoms: N_9  and  C_10
    7  A    between atoms: N_9  and  C_11
    8  A    between atoms: N_12  and  C_22
    9  A    between atoms: N_28  and  C_34
   10  A    between atoms: C_30  and  C_38
   11  A    between atoms: C_34  and  C_37
                            x       y       z     vdW  Elec       q    Type
                         _______ _______ _______ _____ _____    ______ ____

>  <TORSDO>
F 11

$$$$
