=
 OpenBabel10222422123D

 29 31  0  0  1  0  0  0  0  0999 V2000
  191.0510  176.5930  139.4500 C   0  0  1  0  0  3  0  0  0  0  0  0
  192.2430  175.6340  136.7470 C   0  0  0  0  0  0  0  0  0  0  0  0
  192.5590  177.4490  141.1240 C   0  0  0  0  0  2  0  0  0  0  0  0
  188.9370  177.6560  140.3440 C   0  0  0  0  0  0  0  0  0  0  0  0
  191.1980  176.6030  136.8800 N   0  0  0  0  0  2  0  0  0  0  0  0
  192.4630  177.1130  139.6430 C   0  0  0  0  0  2  0  0  0  0  0  0
  189.2980  177.4440  137.9730 N   0  0  0  0  0  0  0  0  0  0  0  0
  192.4750  174.8080  137.6710 O   0  0  0  0  0  0  0  0  0  0  0  0
  188.4700  177.7750  139.0980 C   0  0  0  0  0  3  0  0  0  0  0  0
  192.9940  175.5870  135.5300 N   0  0  0  0  0  2  0  0  0  0  0  0
  190.2840  177.2050  140.5250 N   0  0  0  0  0  0  0  0  0  0  0  0
  191.1350  177.7240  141.5780 C   0  0  0  0  0  2  0  0  0  0  0  0
  190.4870  176.9280  138.0830 C   0  0  0  0  0  0  0  0  0  0  0  0
  194.0630  174.6320  135.2550 C   0  0  1  0  0  0  0  0  0  0  0  0
  194.6090  174.1820  136.4590 O   0  0  0  0  0  1  0  0  0  0  0  0
  193.5030  173.4510  134.4750 C   0  0  0  0  0  1  0  0  0  0  0  0
  195.1360  175.3400  134.4260 C   0  0  0  0  0  2  0  0  0  0  0  0
  197.5720  175.6780  134.7180 C   0  0  0  0  0  1  0  0  0  0  0  0
  196.0250  177.4610  135.2380 N   0  0  0  0  0  1  0  0  0  0  0  0
  196.2070  176.0200  135.2720 C   0  0  1  0  0  3  0  0  0  0  0  0
  187.8780  177.1990  142.5270 C   0  0  0  0  0  3  0  0  0  0  0  0
  188.1180  178.0290  141.5120 C   0  0  0  0  0  3  0  0  0  0  0  0
  185.5480  178.2810  145.9410 C   0  0  0  0  0  0  0  0  0  0  0  0
  185.8090  178.2020  143.5350 C   0  0  0  0  0  3  0  0  0  0  0  0
  186.7930  177.6630  146.0960 C   0  0  0  0  0  3  0  0  0  0  0  0
  185.0570  178.5510  144.6610 C   0  0  0  0  0  3  0  0  0  0  0  0
  187.0590  177.5800  143.6850 C   0  0  0  0  0  0  0  0  0  0  0  0
  187.5450  177.3140  144.9700 C   0  0  0  0  0  3  0  0  0  0  0  0
  184.7830  178.6340  147.0860 N   0  0  0  0  0  1  0  0  0  0  0  0
  1  6  1  6  0  0  0
  1 11  1  0  0  0  0
  2  5  1  0  0  0  0
  2  8  2  0  0  0  0
  3 12  1  0  0  0  0
  4 11  1  0  0  0  0
  4 22  1  0  0  0  0
  5 13  1  0  0  0  0
  6  3  1  0  0  0  0
  7 13  2  0  0  0  0
  7  9  1  0  0  0  0
  9  4  2  0  0  0  0
 10  2  1  0  0  0  0
 11 12  1  0  0  0  0
 13  1  1  0  0  0  0
 14 16  1  6  0  0  0
 14 10  1  0  0  0  0
 14 15  1  0  0  0  0
 17 14  1  0  0  0  0
 17 20  1  0  0  0  0
 19 20  1  0  0  0  0
 20 18  1  6  0  0  0
 21 27  1  0  0  0  0
 22 21  2  0  0  0  0
 23 25  1  0  0  0  0
 23 29  1  0  0  0  0
 24 27  2  0  0  0  0
 24 26  1  0  0  0  0
 26 23  2  0  0  0  0
 27 28  1  0  0  0  0
 28 25  2  0  0  0  0
M  END
>  <MODEL>
1

>  <REMARK>
 VINA RESULT:      -7.6      0.000      0.000
  Name = 
  5 active torsions:
  status: ('A' for Active; 'I' for Inactive)
    1  A    between atoms: C_2  and  N_19
    2  A    between atoms: C_2  and  C_25
    3  A    between atoms: C_9  and  C_20
    4  A    between atoms: C_10  and  C_13
    5  A    between atoms: C_23  and  C_25
                            x       y       z     vdW  Elec       q    Type
                         _______ _______ _______ _____ _____    ______ ____

>  <TORSDO>
F 5

$$$$
=
 OpenBabel10222422123D

 29 31  0  0  1  0  0  0  0  0999 V2000
  184.8240  179.1810  141.2530 C   0  0  1  0  0  3  0  0  0  0  0  0
  183.0890  179.7620  138.7440 C   0  0  0  0  0  0  0  0  0  0  0  0
  183.7380  178.2980  143.2140 C   0  0  0  0  0  2  0  0  0  0  0  0
  187.1770  178.4530  141.8300 C   0  0  0  0  0  0  0  0  0  0  0  0
  184.2580  178.9370  138.7540 N   0  0  0  0  0  2  0  0  0  0  0  0
  183.5440  178.5180  141.7210 C   0  0  0  0  0  2  0  0  0  0  0  0
  186.4060  178.4200  139.5500 N   0  0  0  0  0  0  0  0  0  0  0  0
  182.9070  180.6300  139.6400 O   0  0  0  0  0  0  0  0  0  0  0  0
  187.4440  178.2850  140.5320 C   0  0  0  0  0  3  0  0  0  0  0  0
  182.1480  179.6180  137.6760 N   0  0  0  0  0  2  0  0  0  0  0  0
  185.8310  178.7570  142.2140 N   0  0  0  0  0  0  0  0  0  0  0  0
  185.2400  178.2310  143.4300 C   0  0  0  0  0  2  0  0  0  0  0  0
  185.1940  178.8010  139.8320 C   0  0  0  0  0  0  0  0  0  0  0  0
  180.9330  180.4140  137.5310 C   0  0  1  0  0  0  0  0  0  0  0  0
  180.2820  180.0600  136.3460 O   0  0  0  0  0  1  0  0  0  0  0  0
  180.0120  180.1610  138.7150 C   0  0  0  0  0  1  0  0  0  0  0  0
  181.3300  181.8900  137.4870 C   0  0  0  0  0  2  0  0  0  0  0  0
  180.1090  184.0440  137.5500 C   0  0  0  0  0  1  0  0  0  0  0  0
  180.8160  183.1070  135.4360 N   0  0  0  0  0  1  0  0  0  0  0  0
  180.3200  182.7710  136.7600 C   0  0  1  0  0  3  0  0  0  0  0  0
  188.2510  177.2360  143.6910 C   0  0  0  0  0  3  0  0  0  0  0  0
  188.2190  178.2780  142.8590 C   0  0  0  0  0  3  0  0  0  0  0  0
  191.2250  176.7700  146.7220 C   0  0  0  0  0  0  0  0  0  0  0  0
  190.6290  176.8140  144.3750 C   0  0  0  0  0  3  0  0  0  0  0  0
  189.8940  177.0240  147.0650 C   0  0  0  0  0  3  0  0  0  0  0  0
  191.5920  176.6640  145.3780 C   0  0  0  0  0  3  0  0  0  0  0  0
  189.2910  177.0720  144.7150 C   0  0  0  0  0  0  0  0  0  0  0  0
  188.9300  177.1750  146.0630 C   0  0  0  0  0  3  0  0  0  0  0  0
  192.2050  176.6180  147.7410 N   0  0  0  0  0  1  0  0  0  0  0  0
  1  6  1  1  0  0  0
  1 11  1  0  0  0  0
  2  5  1  0  0  0  0
  2  8  2  0  0  0  0
  3 12  1  0  0  0  0
  4 11  1  0  0  0  0
  4 22  1  0  0  0  0
  5 13  1  0  0  0  0
  6  3  1  0  0  0  0
  7 13  2  0  0  0  0
  7  9  1  0  0  0  0
  9  4  2  0  0  0  0
 10  2  1  0  0  0  0
 11 12  1  0  0  0  0
 13  1  1  0  0  0  0
 14 10  1  0  0  0  0
 14 16  1  1  0  0  0
 15 14  1  0  0  0  0
 17 14  1  0  0  0  0
 19 20  1  0  0  0  0
 20 17  1  0  0  0  0
 20 18  1  1  0  0  0
 21 27  1  0  0  0  0
 22 21  2  0  0  0  0
 23 25  1  0  0  0  0
 23 29  1  0  0  0  0
 24 27  2  0  0  0  0
 24 26  1  0  0  0  0
 26 23  2  0  0  0  0
 27 28  1  0  0  0  0
 28 25  2  0  0  0  0
M  END
>  <MODEL>
2

>  <REMARK>
 VINA RESULT:      -7.4      6.638      9.901
  Name = 
  5 active torsions:
  status: ('A' for Active; 'I' for Inactive)
    1  A    between atoms: C_2  and  N_19
    2  A    between atoms: C_2  and  C_25
    3  A    between atoms: C_9  and  C_20
    4  A    between atoms: C_10  and  C_13
    5  A    between atoms: C_23  and  C_25
                            x       y       z     vdW  Elec       q    Type
                         _______ _______ _______ _____ _____    ______ ____

>  <TORSDO>
F 5

$$$$
=
 OpenBabel10222422123D

 29 31  0  0  1  0  0  0  0  0999 V2000
  185.2470  177.9980  142.1940 C   0  0  1  0  0  3  0  0  0  0  0  0
  182.5180  178.7890  140.9420 C   0  0  0  0  0  0  0  0  0  0  0  0
  187.2570  178.4970  140.9620 C   0  0  0  0  0  2  0  0  0  0  0  0
  186.3150  177.7660  144.4760 C   0  0  0  0  0  0  0  0  0  0  0  0
  182.9600  179.1780  142.2460 N   0  0  0  0  0  2  0  0  0  0  0  0
  185.7750  178.8300  141.0420 C   0  0  0  0  0  2  0  0  0  0  0  0
  184.1310  178.7480  144.2360 N   0  0  0  0  0  0  0  0  0  0  0  0
  183.0100  177.7780  140.3720 O   0  0  0  0  0  0  0  0  0  0  0  0
  185.2070  178.2490  145.0440 C   0  0  0  0  0  3  0  0  0  0  0  0
  181.4750  179.5380  140.3120 N   0  0  0  0  0  2  0  0  0  0  0  0
  186.4060  177.7740  143.0460 N   0  0  0  0  0  0  0  0  0  0  0  0
  187.6530  178.0390  142.3550 C   0  0  0  0  0  2  0  0  0  0  0  0
  184.1150  178.6790  142.9370 C   0  0  0  0  0  0  0  0  0  0  0  0
  180.9120  179.2310  139.0010 C   0  0  1  0  0  0  0  0  0  0  0  0
  180.1970  178.0320  139.0690 O   0  0  0  0  0  1  0  0  0  0  0  0
  179.9820  180.3550  138.5690 C   0  0  0  0  0  1  0  0  0  0  0  0
  182.0640  179.0960  138.0050 C   0  0  0  0  0  2  0  0  0  0  0  0
  181.3560  178.5920  135.6850 C   0  0  0  0  0  1  0  0  0  0  0  0
  183.1080  177.2960  136.7320 N   0  0  0  0  0  1  0  0  0  0  0  0
  181.8540  177.9870  136.9790 C   0  0  1  0  0  3  0  0  0  0  0  0
  188.6950  177.7370  145.1320 C   0  0  0  0  0  3  0  0  0  0  0  0
  187.4500  177.2860  145.2860 C   0  0  0  0  0  3  0  0  0  0  0  0
  191.9990  176.2980  147.4280 C   0  0  0  0  0  0  0  0  0  0  0  0
  189.8430  177.3980  147.3390 C   0  0  0  0  0  3  0  0  0  0  0  0
  191.9810  176.1510  146.0380 C   0  0  0  0  0  3  0  0  0  0  0  0
  190.9310  176.9220  148.0780 C   0  0  0  0  0  3  0  0  0  0  0  0
  189.8190  177.2500  145.9430 C   0  0  0  0  0  0  0  0  0  0  0  0
  190.8930  176.6260  145.2980 C   0  0  0  0  0  3  0  0  0  0  0  0
  193.1040  175.8140  148.1800 N   0  0  0  0  0  1  0  0  0  0  0  0
  1  6  1  6  0  0  0
  1 13  1  0  0  0  0
  1 11  1  0  0  0  0
  2  5  1  0  0  0  0
  3  6  1  0  0  0  0
  3 12  1  0  0  0  0
  4  9  2  0  0  0  0
  4 22  1  0  0  0  0
  5 13  1  0  0  0  0
  7  9  1  0  0  0  0
  8  2  2  0  0  0  0
 10  2  1  0  0  0  0
 11  4  1  0  0  0  0
 12 11  1  0  0  0  0
 13  7  2  0  0  0  0
 14 16  1  6  0  0  0
 14 15  1  0  0  0  0
 14 10  1  0  0  0  0
 17 14  1  0  0  0  0
 19 20  1  0  0  0  0
 20 18  1  6  0  0  0
 20 17  1  0  0  0  0
 21 22  2  0  0  0  0
 21 27  1  0  0  0  0
 23 26  1  0  0  0  0
 23 29  1  0  0  0  0
 24 26  2  0  0  0  0
 25 23  2  0  0  0  0
 27 24  1  0  0  0  0
 28 27  2  0  0  0  0
 28 25  1  0  0  0  0
M  END
>  <MODEL>
3

>  <REMARK>
 VINA RESULT:      -7.3      6.975      9.620
  Name = 
  5 active torsions:
  status: ('A' for Active; 'I' for Inactive)
    1  A    between atoms: C_2  and  N_19
    2  A    between atoms: C_2  and  C_25
    3  A    between atoms: C_9  and  C_20
    4  A    between atoms: C_10  and  C_13
    5  A    between atoms: C_23  and  C_25
                            x       y       z     vdW  Elec       q    Type
                         _______ _______ _______ _____ _____    ______ ____

>  <TORSDO>
F 5

$$$$
=
 OpenBabel10222422123D

 29 31  0  0  1  0  0  0  0  0999 V2000
  191.3400  176.5800  137.8480 C   0  0  1  0  0  3  0  0  0  0  0  0
  194.2190  176.0770  136.8000 C   0  0  0  0  0  0  0  0  0  0  0  0
  189.5810  175.1080  137.1080 C   0  0  0  0  0  2  0  0  0  0  0  0
  190.1780  177.4580  139.9180 C   0  0  0  0  0  0  0  0  0  0  0  0
  193.8590  176.1680  138.1820 N   0  0  0  0  0  2  0  0  0  0  0  0
  191.0950  175.2370  137.1890 C   0  0  0  0  0  2  0  0  0  0  0  0
  192.5540  177.0700  139.9140 N   0  0  0  0  0  0  0  0  0  0  0  0
  193.4880  176.5910  135.9100 O   0  0  0  0  0  0  0  0  0  0  0  0
  191.3580  177.5630  140.5350 C   0  0  0  0  0  3  0  0  0  0  0  0
  195.4460  175.4330  136.4440 N   0  0  0  0  0  2  0  0  0  0  0  0
  190.1380  176.8290  138.6310 N   0  0  0  0  0  0  0  0  0  0  0  0
  189.0320  175.9860  138.2200 C   0  0  0  0  0  2  0  0  0  0  0  0
  192.5910  176.5920  138.7040 C   0  0  0  0  0  0  0  0  0  0  0  0
  195.9440  175.2980  135.0800 C   0  0  1  0  0  0  0  0  0  0  0  0
  195.0830  174.4770  134.3460 O   0  0  0  0  0  1  0  0  0  0  0  0
  196.0200  176.6710  134.4270 C   0  0  0  0  0  1  0  0  0  0  0  0
  197.3380  174.6730  135.1380 C   0  0  0  0  0  2  0  0  0  0  0  0
  197.8720  172.6270  136.4290 C   0  0  0  0  0  1  0  0  0  0  0  0
  198.9480  174.7230  136.9700 N   0  0  0  0  0  1  0  0  0  0  0  0
  197.7040  174.1280  136.5150 C   0  0  1  0  0  3  0  0  0  0  0  0
  188.5300  177.4990  141.7550 C   0  0  0  0  0  3  0  0  0  0  0  0
  188.9320  177.9190  140.5550 C   0  0  0  0  0  3  0  0  0  0  0  0
  184.8900  178.8850  143.5110 C   0  0  0  0  0  0  0  0  0  0  0  0
  186.9320  177.5960  143.6880 C   0  0  0  0  0  3  0  0  0  0  0  0
  185.2350  179.2510  142.2060 C   0  0  0  0  0  3  0  0  0  0  0  0
  185.7380  178.0570  144.2510 C   0  0  0  0  0  3  0  0  0  0  0  0
  187.2840  177.9630  142.3800 C   0  0  0  0  0  0  0  0  0  0  0  0
  186.4290  178.7910  141.6440 C   0  0  0  0  0  3  0  0  0  0  0  0
  183.6760  179.3540  144.0830 N   0  0  0  0  0  1  0  0  0  0  0  0
  1  6  1  1  0  0  0
  1 11  1  0  0  0  0
  1 13  1  0  0  0  0
  2  5  1  0  0  0  0
  3  6  1  0  0  0  0
  3 12  1  0  0  0  0
  4  9  2  0  0  0  0
  4 22  1  0  0  0  0
  5 13  1  0  0  0  0
  7  9  1  0  0  0  0
  8  2  2  0  0  0  0
 10  2  1  0  0  0  0
 11  4  1  0  0  0  0
 12 11  1  0  0  0  0
 13  7  2  0  0  0  0
 14 16  1  6  0  0  0
 14 17  1  0  0  0  0
 14 10  1  0  0  0  0
 15 14  1  0  0  0  0
 17 20  1  0  0  0  0
 20 18  1  6  0  0  0
 20 19  1  0  0  0  0
 21 27  1  0  0  0  0
 22 21  2  0  0  0  0
 23 29  1  0  0  0  0
 23 26  1  0  0  0  0
 24 26  2  0  0  0  0
 25 23  2  0  0  0  0
 27 24  1  0  0  0  0
 28 25  1  0  0  0  0
 28 27  2  0  0  0  0
M  END
>  <MODEL>
4

>  <REMARK>
 VINA RESULT:      -6.9      1.973      2.966
  Name = 
  5 active torsions:
  status: ('A' for Active; 'I' for Inactive)
    1  A    between atoms: C_2  and  N_19
    2  A    between atoms: C_2  and  C_25
    3  A    between atoms: C_9  and  C_20
    4  A    between atoms: C_10  and  C_13
    5  A    between atoms: C_23  and  C_25
                            x       y       z     vdW  Elec       q    Type
                         _______ _______ _______ _____ _____    ______ ____

>  <TORSDO>
F 5

$$$$
=
 OpenBabel10222422123D

 29 31  0  0  1  0  0  0  0  0999 V2000
  185.3910  178.1020  143.6290 C   0  0  1  0  0  3  0  0  0  0  0  0
  187.9280  177.7580  145.3870 C   0  0  0  0  0  0  0  0  0  0  0  0
  183.4480  179.1300  144.6160 C   0  0  0  0  0  2  0  0  0  0  0  0
  184.7760  178.5030  141.2080 C   0  0  0  0  0  0  0  0  0  0  0  0
  187.8990  178.4160  144.1160 N   0  0  0  0  0  2  0  0  0  0  0  0
  184.9440  178.9360  144.8140 C   0  0  0  0  0  2  0  0  0  0  0  0
  187.0680  178.6350  141.9310 N   0  0  0  0  0  0  0  0  0  0  0  0
  187.0350  176.9250  145.7000 O   0  0  0  0  0  0  0  0  0  0  0  0
  186.0700  178.6300  140.9000 C   0  0  0  0  0  3  0  0  0  0  0  0
  189.0110  178.0270  146.2820 N   0  0  0  0  0  2  0  0  0  0  0  0
  184.4130  178.3870  142.5900 N   0  0  0  0  0  0  0  0  0  0  0  0
  183.2080  178.9920  143.1220 C   0  0  0  0  0  2  0  0  0  0  0  0
  186.8060  178.4250  143.1880 C   0  0  0  0  0  0  0  0  0  0  0  0
  189.1760  177.4040  147.5920 C   0  0  1  0  0  0  0  0  0  0  0  0
  189.7550  178.3190  148.4750 O   0  0  0  0  0  1  0  0  0  0  0  0
  187.8190  176.9690  148.1240 C   0  0  0  0  0  1  0  0  0  0  0  0
  190.0870  176.1860  147.4310 C   0  0  0  0  0  2  0  0  0  0  0  0
  192.4950  175.7940  147.8620 C   0  0  0  0  0  1  0  0  0  0  0  0
  191.7060  176.1600  145.6070 N   0  0  0  0  0  1  0  0  0  0  0  0
  191.5040  176.5400  146.9940 C   0  0  1  0  0  3  0  0  0  0  0  0
  183.9880  178.3700  138.8720 C   0  0  0  0  0  3  0  0  0  0  0  0
  183.7300  178.5370  140.1700 C   0  0  0  0  0  3  0  0  0  0  0  0
  180.9760  178.4310  135.8430 C   0  0  0  0  0  0  0  0  0  0  0  0
  181.7950  179.2090  137.9850 C   0  0  0  0  0  3  0  0  0  0  0  0
  182.1130  177.6290  135.7000 C   0  0  0  0  0  3  0  0  0  0  0  0
  180.8170  179.2200  136.9850 C   0  0  0  0  0  3  0  0  0  0  0  0
  182.9390  178.4080  137.8450 C   0  0  0  0  0  0  0  0  0  0  0  0
  183.0910  177.6190  136.6990 C   0  0  0  0  0  3  0  0  0  0  0  0
  179.9820  178.4420  134.8270 N   0  0  0  0  0  1  0  0  0  0  0  0
  1  6  1  1  0  0  0
  2  8  2  0  0  0  0
  2 10  1  0  0  0  0
  3  6  1  0  0  0  0
  4 11  1  0  0  0  0
  5  2  1  0  0  0  0
  7 13  2  0  0  0  0
  9  4  2  0  0  0  0
  9  7  1  0  0  0  0
 10 14  1  0  0  0  0
 11 12  1  0  0  0  0
 11  1  1  0  0  0  0
 12  3  1  0  0  0  0
 13  1  1  0  0  0  0
 13  5  1  0  0  0  0
 14 16  1  1  0  0  0
 14 15  1  0  0  0  0
 17 14  1  0  0  0  0
 19 20  1  0  0  0  0
 20 17  1  0  0  0  0
 20 18  1  1  0  0  0
 21 22  2  0  0  0  0
 22  4  1  0  0  0  0
 23 26  1  0  0  0  0
 25 23  2  0  0  0  0
 25 28  1  0  0  0  0
 26 24  2  0  0  0  0
 27 24  1  0  0  0  0
 27 21  1  0  0  0  0
 28 27  2  0  0  0  0
 29 23  1  0  0  0  0
M  END
>  <MODEL>
5

>  <REMARK>
 VINA RESULT:      -6.8      7.226      9.931
  Name = 
  5 active torsions:
  status: ('A' for Active; 'I' for Inactive)
    1  A    between atoms: C_2  and  N_19
    2  A    between atoms: C_2  and  C_25
    3  A    between atoms: C_9  and  C_20
    4  A    between atoms: C_10  and  C_13
    5  A    between atoms: C_23  and  C_25
                            x       y       z     vdW  Elec       q    Type
                         _______ _______ _______ _____ _____    ______ ____

>  <TORSDO>
F 5

$$$$
=
 OpenBabel10222422123D

 29 31  0  0  1  0  0  0  0  0999 V2000
  190.8820  176.5780  139.7110 C   0  0  1  0  0  3  0  0  0  0  0  0
  192.2730  175.7560  137.0590 C   0  0  0  0  0  0  0  0  0  0  0  0
  192.2610  177.3320  141.5380 C   0  0  0  0  0  2  0  0  0  0  0  0
  188.7090  177.6090  140.4980 C   0  0  0  0  0  0  0  0  0  0  0  0
  191.2250  176.7250  137.1640 N   0  0  0  0  0  2  0  0  0  0  0  0
  192.2770  177.0760  140.0380 C   0  0  0  0  0  2  0  0  0  0  0  0
  189.2490  177.5210  138.1540 N   0  0  0  0  0  0  0  0  0  0  0  0
  192.4300  174.8800  137.9520 O   0  0  0  0  0  0  0  0  0  0  0  0
  188.3390  177.7980  139.2280 C   0  0  0  0  0  3  0  0  0  0  0  0
  193.1140  175.7680  135.9020 N   0  0  0  0  0  2  0  0  0  0  0  0
  190.0380  177.1380  140.7560 N   0  0  0  0  0  0  0  0  0  0  0  0
  190.8080  177.5940  141.8970 C   0  0  0  0  0  2  0  0  0  0  0  0
  190.4250  176.9900  138.3250 C   0  0  0  0  0  0  0  0  0  0  0  0
  194.1970  174.8210  135.6570 C   0  0  1  0  0  0  0  0  0  0  0  0
  194.6840  174.9940  134.3590 O   0  0  0  0  0  1  0  0  0  0  0  0
  195.3180  175.0570  136.6590 C   0  0  0  0  0  1  0  0  0  0  0  0
  193.6420  173.4050  135.8210 C   0  0  0  0  0  2  0  0  0  0  0  0
  195.1830  171.6280  135.0460 C   0  0  0  0  0  1  0  0  0  0  0  0
  192.8640  171.6100  134.3650 N   0  0  0  0  0  1  0  0  0  0  0  0
  193.9910  172.4770  134.6630 C   0  0  1  0  0  3  0  0  0  0  0  0
  187.9180  177.3660  142.8230 C   0  0  0  0  0  3  0  0  0  0  0  0
  187.8060  177.9260  141.6190 C   0  0  0  0  0  3  0  0  0  0  0  0
  185.3280  178.2700  146.0990 C   0  0  0  0  0  0  0  0  0  0  0  0
  185.7740  178.3170  143.7200 C   0  0  0  0  0  3  0  0  0  0  0  0
  186.5600  177.6450  146.3170 C   0  0  0  0  0  3  0  0  0  0  0  0
  184.9370  178.6070  144.8010 C   0  0  0  0  0  3  0  0  0  0  0  0
  187.0100  177.6870  143.9330 C   0  0  0  0  0  0  0  0  0  0  0  0
  187.3970  177.3540  145.2360 C   0  0  0  0  0  3  0  0  0  0  0  0
  184.4760  178.5640  147.1990 N   0  0  0  0  0  1  0  0  0  0  0  0
  1  6  1  1  0  0  0
  1 11  1  0  0  0  0
  2  5  1  0  0  0  0
  2  8  2  0  0  0  0
  3 12  1  0  0  0  0
  4 11  1  0  0  0  0
  4 22  1  0  0  0  0
  5 13  1  0  0  0  0
  6  3  1  0  0  0  0
  7 13  2  0  0  0  0
  7  9  1  0  0  0  0
  9  4  2  0  0  0  0
 10  2  1  0  0  0  0
 11 12  1  0  0  0  0
 13  1  1  0  0  0  0
 14 17  1  0  0  0  0
 14 10  1  0  0  0  0
 14 16  1  1  0  0  0
 15 14  1  0  0  0  0
 19 20  1  0  0  0  0
 20 18  1  1  0  0  0
 20 17  1  0  0  0  0
 21 27  1  0  0  0  0
 22 21  2  0  0  0  0
 23 25  1  0  0  0  0
 23 29  1  0  0  0  0
 24 27  2  0  0  0  0
 24 26  1  0  0  0  0
 26 23  2  0  0  0  0
 27 28  1  0  0  0  0
 28 25  2  0  0  0  0
M  END
>  <MODEL>
6

>  <REMARK>
 VINA RESULT:      -6.7      1.145      1.959
  Name = 
  5 active torsions:
  status: ('A' for Active; 'I' for Inactive)
    1  A    between atoms: C_2  and  N_19
    2  A    between atoms: C_2  and  C_25
    3  A    between atoms: C_9  and  C_20
    4  A    between atoms: C_10  and  C_13
    5  A    between atoms: C_23  and  C_25
                            x       y       z     vdW  Elec       q    Type
                         _______ _______ _______ _____ _____    ______ ____

>  <TORSDO>
F 5

$$$$
=
 OpenBabel10222422123D

 29 31  0  0  1  0  0  0  0  0999 V2000
  189.6330  176.9710  139.9770 C   0  0  1  0  0  3  0  0  0  0  0  0
  191.6660  176.2310  137.7500 C   0  0  0  0  0  0  0  0  0  0  0  0
  190.4750  177.4170  142.1910 C   0  0  0  0  0  2  0  0  0  0  0  0
  187.4130  178.1580  140.2300 C   0  0  0  0  0  0  0  0  0  0  0  0
  190.7120  177.2940  137.6630 N   0  0  0  0  0  2  0  0  0  0  0  0
  190.9060  177.2870  140.7370 C   0  0  0  0  0  2  0  0  0  0  0  0
  188.6030  178.2100  138.1380 N   0  0  0  0  0  0  0  0  0  0  0  0
  191.4880  175.2710  138.5480 O   0  0  0  0  0  0  0  0  0  0  0  0
  187.4440  178.4910  138.9370 C   0  0  0  0  0  3  0  0  0  0  0  0
  192.8060  176.2500  136.8850 N   0  0  0  0  0  2  0  0  0  0  0  0
  188.5680  177.5280  140.7980 N   0  0  0  0  0  0  0  0  0  0  0  0
  189.0060  177.8010  142.1530 C   0  0  0  0  0  2  0  0  0  0  0  0
  189.6320  177.5440  138.5740 C   0  0  0  0  0  0  0  0  0  0  0  0
  193.8360  175.2160  136.8510 C   0  0  1  0  0  0  0  0  0  0  0  0
  193.3120  174.0540  136.2770 O   0  0  0  0  0  1  0  0  0  0  0  0
  195.0200  175.7030  136.0290 C   0  0  0  0  0  1  0  0  0  0  0  0
  194.2800  174.9350  138.2870 C   0  0  0  0  0  2  0  0  0  0  0  0
  196.3680  174.6660  139.5920 C   0  0  0  0  0  1  0  0  0  0  0  0
  195.3570  172.7570  138.5050 N   0  0  0  0  0  1  0  0  0  0  0  0
  195.6030  174.1830  138.3780 C   0  0  1  0  0  3  0  0  0  0  0  0
  185.0060  178.1060  140.7740 C   0  0  0  0  0  3  0  0  0  0  0  0
  186.2500  178.4740  141.0790 C   0  0  0  0  0  3  0  0  0  0  0  0
  181.6090  179.0390  143.1920 C   0  0  0  0  0  0  0  0  0  0  0  0
  183.9960  178.6830  142.9990 C   0  0  0  0  0  3  0  0  0  0  0  0
  181.4600  178.7840  141.8250 C   0  0  0  0  0  3  0  0  0  0  0  0
  182.8760  178.9880  143.7780 C   0  0  0  0  0  3  0  0  0  0  0  0
  183.8530  178.4290  141.6260 C   0  0  0  0  0  0  0  0  0  0  0  0
  182.5810  178.4800  141.0450 C   0  0  0  0  0  3  0  0  0  0  0  0
  180.4700  179.3490  143.9850 N   0  0  0  0  0  1  0  0  0  0  0  0
  1  6  1  1  0  0  0
  1 11  1  0  0  0  0
  2  8  2  0  0  0  0
  4 11  1  0  0  0  0
  4 22  1  0  0  0  0
  5  2  1  0  0  0  0
  5 13  1  0  0  0  0
  6  3  1  0  0  0  0
  7 13  2  0  0  0  0
  7  9  1  0  0  0  0
  9  4  2  0  0  0  0
 10  2  1  0  0  0  0
 11 12  1  0  0  0  0
 12  3  1  0  0  0  0
 13  1  1  0  0  0  0
 14 16  1  6  0  0  0
 14 10  1  0  0  0  0
 14 17  1  0  0  0  0
 15 14  1  0  0  0  0
 17 20  1  0  0  0  0
 20 19  1  0  0  0  0
 20 18  1  1  0  0  0
 21 22  2  0  0  0  0
 21 27  1  0  0  0  0
 23 26  1  0  0  0  0
 23 29  1  0  0  0  0
 24 26  2  0  0  0  0
 25 23  2  0  0  0  0
 27 24  1  0  0  0  0
 28 27  2  0  0  0  0
 28 25  1  0  0  0  0
M  END
>  <MODEL>
7

>  <REMARK>
 VINA RESULT:      -6.6      2.623      3.317
  Name = 
  5 active torsions:
  status: ('A' for Active; 'I' for Inactive)
    1  A    between atoms: C_2  and  N_19
    2  A    between atoms: C_2  and  C_25
    3  A    between atoms: C_9  and  C_20
    4  A    between atoms: C_10  and  C_13
    5  A    between atoms: C_23  and  C_25
                            x       y       z     vdW  Elec       q    Type
                         _______ _______ _______ _____ _____    ______ ____

>  <TORSDO>
F 5

$$$$
=
 OpenBabel10222422123D

 29 31  0  0  1  0  0  0  0  0999 V2000
  189.3960  177.4620  138.7590 C   0  0  1  0  0  3  0  0  0  0  0  0
  186.3340  177.8720  138.4460 C   0  0  0  0  0  0  0  0  0  0  0  0
  190.2720  177.0280  140.9620 C   0  0  0  0  0  2  0  0  0  0  0  0
  191.3510  176.5370  137.4460 C   0  0  0  0  0  0  0  0  0  0  0  0
  187.1080  176.9170  137.7140 N   0  0  0  0  0  2  0  0  0  0  0  0
  188.9810  177.0430  140.1560 C   0  0  0  0  0  2  0  0  0  0  0  0
  189.0960  176.2590  136.6510 N   0  0  0  0  0  0  0  0  0  0  0  0
  186.8830  178.8820  138.9660 O   0  0  0  0  0  0  0  0  0  0  0  0
  190.5160  176.1420  136.4800 C   0  0  0  0  0  3  0  0  0  0  0  0
  184.9180  177.6890  138.5440 N   0  0  0  0  0  2  0  0  0  0  0  0
  190.7920  177.0630  138.6560 N   0  0  0  0  0  0  0  0  0  0  0  0
  191.3860  176.8050  139.9530 C   0  0  0  0  0  2  0  0  0  0  0  0
  188.5390  176.8280  137.6810 C   0  0  0  0  0  0  0  0  0  0  0  0
  184.0120  178.6020  139.2340 C   0  0  1  0  0  0  0  0  0  0  0  0
  184.6090  179.8610  139.3420 O   0  0  0  0  0  1  0  0  0  0  0  0
  182.7120  178.7190  138.4510 C   0  0  0  0  0  1  0  0  0  0  0  0
  183.7310  178.0360  140.6270 C   0  0  0  0  0  2  0  0  0  0  0  0
  183.5100  178.7900  142.9760 C   0  0  0  0  0  1  0  0  0  0  0  0
  185.6850  178.2410  142.0740 N   0  0  0  0  0  1  0  0  0  0  0  0
  184.3950  178.8260  141.7490 C   0  0  1  0  0  3  0  0  0  0  0  0
  193.4120  175.2060  137.1740 C   0  0  0  0  0  3  0  0  0  0  0  0
  192.8110  176.3880  137.3090 C   0  0  0  0  0  3  0  0  0  0  0  0
  197.6500  174.7700  136.8530 C   0  0  0  0  0  0  0  0  0  0  0  0
  195.5590  175.5610  135.9230 C   0  0  0  0  0  3  0  0  0  0  0  0
  196.9670  174.2750  137.9670 C   0  0  0  0  0  3  0  0  0  0  0  0
  196.9460  175.4120  135.8310 C   0  0  0  0  0  3  0  0  0  0  0  0
  194.8690  175.0680  137.0410 C   0  0  0  0  0  0  0  0  0  0  0  0
  195.5790  174.4250  138.0600 C   0  0  0  0  0  3  0  0  0  0  0  0
  199.0610  174.6190  136.7590 N   0  0  0  0  0  1  0  0  0  0  0  0
  1  6  1  1  0  0  0
  2 10  1  0  0  0  0
  2  8  2  0  0  0  0
  4 11  1  0  0  0  0
  5  2  1  0  0  0  0
  6  3  1  0  0  0  0
  7 13  2  0  0  0  0
  9  7  1  0  0  0  0
  9  4  2  0  0  0  0
 10 14  1  0  0  0  0
 11  1  1  0  0  0  0
 11 12  1  0  0  0  0
 12  3  1  0  0  0  0
 13  5  1  0  0  0  0
 13  1  1  0  0  0  0
 14 16  1  6  0  0  0
 14 15  1  0  0  0  0
 14 17  1  0  0  0  0
 17 20  1  0  0  0  0
 20 19  1  0  0  0  0
 20 18  1  1  0  0  0
 21 22  2  0  0  0  0
 22  4  1  0  0  0  0
 23 25  1  0  0  0  0
 24 27  2  0  0  0  0
 25 28  2  0  0  0  0
 26 24  1  0  0  0  0
 26 23  2  0  0  0  0
 27 21  1  0  0  0  0
 27 28  1  0  0  0  0
 29 23  1  0  0  0  0
M  END
>  <MODEL>
8

>  <REMARK>
 VINA RESULT:      -6.4      3.449     10.100
  Name = 
  5 active torsions:
  status: ('A' for Active; 'I' for Inactive)
    1  A    between atoms: C_2  and  N_19
    2  A    between atoms: C_2  and  C_25
    3  A    between atoms: C_9  and  C_20
    4  A    between atoms: C_10  and  C_13
    5  A    between atoms: C_23  and  C_25
                            x       y       z     vdW  Elec       q    Type
                         _______ _______ _______ _____ _____    ______ ____

>  <TORSDO>
F 5

$$$$
=
 OpenBabel10222422123D

 29 31  0  0  1  0  0  0  0  0999 V2000
  189.8610  176.5280  138.5290 C   0  0  1  0  0  3  0  0  0  0  0  0
  192.4580  175.3920  137.2630 C   0  0  0  0  0  0  0  0  0  0  0  0
  189.9540  177.3370  140.7980 C   0  0  0  0  0  2  0  0  0  0  0  0
  187.7700  177.7690  137.8290 C   0  0  0  0  0  0  0  0  0  0  0  0
  191.6630  176.4360  136.6930 N   0  0  0  0  0  2  0  0  0  0  0  0
  190.8300  176.9540  139.6140 C   0  0  0  0  0  2  0  0  0  0  0  0
  189.5840  177.4470  136.2800 N   0  0  0  0  0  0  0  0  0  0  0  0
  191.9610  174.5850  138.0950 O   0  0  0  0  0  0  0  0  0  0  0  0
  188.2490  177.8760  136.5860 C   0  0  0  0  0  3  0  0  0  0  0  0
  193.8180  175.2480  136.8420 N   0  0  0  0  0  2  0  0  0  0  0  0
  188.6250  177.2310  138.8440 N   0  0  0  0  0  0  0  0  0  0  0  0
  188.6100  177.7270  140.2060 C   0  0  0  0  0  2  0  0  0  0  0  0
  190.3630  176.8530  137.1360 C   0  0  0  0  0  0  0  0  0  0  0  0
  194.7270  174.2110  137.3190 C   0  0  1  0  0  0  0  0  0  0  0  0
  194.8210  174.2790  138.7120 O   0  0  0  0  0  1  0  0  0  0  0  0
  194.2010  172.8430  136.9090 C   0  0  0  0  0  1  0  0  0  0  0  0
  196.1000  174.4510  136.6910 C   0  0  0  0  0  2  0  0  0  0  0  0
  198.2020  173.1800  137.0100 C   0  0  0  0  0  1  0  0  0  0  0  0
  197.9820  175.4130  137.9100 N   0  0  0  0  0  1  0  0  0  0  0  0
  197.2600  174.1810  137.6430 C   0  0  1  0  0  3  0  0  0  0  0  0
  185.3060  177.6470  137.7390 C   0  0  0  0  0  3  0  0  0  0  0  0
  186.4160  178.2410  138.1750 C   0  0  0  0  0  3  0  0  0  0  0  0
  181.4260  179.0800  138.8110 C   0  0  0  0  0  0  0  0  0  0  0  0
  182.8310  177.7700  137.3370 C   0  0  0  0  0  3  0  0  0  0  0  0
  182.5500  179.4410  139.5610 C   0  0  0  0  0  3  0  0  0  0  0  0
  181.5670  178.2460  137.6990 C   0  0  0  0  0  3  0  0  0  0  0  0
  183.9620  178.1270  138.0880 C   0  0  0  0  0  0  0  0  0  0  0  0
  183.8140  178.9640  139.1990 C   0  0  0  0  0  3  0  0  0  0  0  0
  180.1410  179.5640  139.1800 N   0  0  0  0  0  1  0  0  0  0  0  0
  1 11  1  0  0  0  0
  1  6  1  1  0  0  0
  2  8  2  0  0  0  0
  4 22  1  0  0  0  0
  4 11  1  0  0  0  0
  5 13  1  0  0  0  0
  5  2  1  0  0  0  0
  6  3  1  0  0  0  0
  7  9  1  0  0  0  0
  7 13  2  0  0  0  0
  9  4  2  0  0  0  0
 10  2  1  0  0  0  0
 10 14  1  0  0  0  0
 11 12  1  0  0  0  0
 12  3  1  0  0  0  0
 13  1  1  0  0  0  0
 14 16  1  6  0  0  0
 14 15  1  0  0  0  0
 17 14  1  0  0  0  0
 17 20  1  0  0  0  0
 20 18  1  6  0  0  0
 20 19  1  0  0  0  0
 21 27  1  0  0  0  0
 21 22  2  0  0  0  0
 23 29  1  0  0  0  0
 23 25  1  0  0  0  0
 24 26  1  0  0  0  0
 24 27  2  0  0  0  0
 26 23  2  0  0  0  0
 27 28  1  0  0  0  0
 28 25  2  0  0  0  0
M  END
>  <MODEL>
9

>  <REMARK>
 VINA RESULT:      -6.2      3.615      4.428
  Name = 
  5 active torsions:
  status: ('A' for Active; 'I' for Inactive)
    1  A    between atoms: C_2  and  N_19
    2  A    between atoms: C_2  and  C_25
    3  A    between atoms: C_9  and  C_20
    4  A    between atoms: C_10  and  C_13
    5  A    between atoms: C_23  and  C_25
                            x       y       z     vdW  Elec       q    Type
                         _______ _______ _______ _____ _____    ______ ____

>  <TORSDO>
F 5

$$$$
