=
 OpenBabel10232411433D

 27 29  0  0  1  0  0  0  0  0999 V2000
  188.6150  177.3510  144.5920 C   0  0  2  0  0  3  0  0  0  0  0  0
  186.1340  177.6440  144.2280 C   0  0  0  0  0  3  0  0  0  0  0  0
  188.7420  178.2050  146.6920 C   0  0  1  0  0  3  0  0  0  0  0  0
  189.4730  178.0150  145.4930 O   0  0  0  0  0  0  0  0  0  0  0  0
  187.2720  177.9390  146.4390 C   0  0  0  0  0  2  0  0  0  0  0  0
  188.7420  177.9040  143.1940 C   0  0  0  0  0  0  0  0  0  0  0  0
  187.2600  177.4680  145.0890 N   0  0  0  0  0  0  0  0  0  0  0  0
  186.3460  177.8990  142.9380 C   0  0  0  0  0  0  0  0  0  0  0  0
  187.6870  178.0830  142.4510 N   0  0  0  0  0  0  0  0  0  0  0  0
  182.0350  179.3790  139.6270 C   0  0  0  0  0  1  0  0  0  0  0  0
  185.4670  179.1100  141.0980 O   0  0  0  0  0  0  0  0  0  0  0  0
  182.7560  178.6110  141.8790 C   0  0  1  0  0  3  0  0  0  0  0  0
  183.9370  178.4610  142.8320 C   0  0  0  0  0  2  0  0  0  0  0  0
  184.4710  179.0470  140.1050 C   0  0  2  0  0  3  0  0  0  0  0  0
  181.6800  179.1520  142.5590 F   0  0  0  0  0  0  0  0  0  0  0  0
  184.8350  179.8750  139.0430 O   0  0  0  0  0  1  0  0  0  0  0  0
  183.1200  179.4950  140.6820 C   0  0  1  0  0  3  0  0  0  0  0  0
  185.1830  178.0930  142.0260 C   0  0  2  0  0  3  0  0  0  0  0  0
  189.2830  177.3190  147.8130 C   0  0  0  0  0  2  0  0  0  0  0  0
  190.7050  177.2920  147.8210 O   0  0  0  0  0  0  0  0  0  0  0  0
  191.9980  175.9880  146.3540 C   0  0  0  0  0  2  0  0  0  0  0  0
  191.3930  176.1210  147.5240 C   0  0  0  0  0  3  0  0  0  0  0  0
  190.0960  178.0590  142.5830 C   0  0  0  0  0  2  0  0  0  0  0  0
  190.4120  176.8890  141.7080 C   0  0  0  0  0  0  0  0  0  0  0  0
  190.3260  175.7560  142.1530 O   0  0  0  0  0  0  0  0  0  0  0  0
  190.9640  177.1490  140.0240 S   0  0  0  0  0  0  0  0  0  0  0  0
  189.2660  177.2000  139.3880 C   0  0  0  0  0  1  0  0  0  0  0  0
  1  6  1  6  0  0  0
  1  7  1  0  0  0  0
  1  4  1  0  0  0  0
  2  7  1  0  0  0  0
  3 19  1  1  0  0  0
  4  3  1  0  0  0  0
  5  3  1  0  0  0  0
  7  5  1  0  0  0  0
  8  2  2  0  0  0  0
  9  8  1  0  0  0  0
  9  6  2  0  0  0  0
 11 18  1  0  0  0  0
 12 15  1  1  0  0  0
 12 13  1  0  0  0  0
 14 16  1  6  0  0  0
 14 17  1  0  0  0  0
 14 11  1  0  0  0  0
 17 10  1  6  0  0  0
 17 12  1  0  0  0  0
 18 13  1  0  0  0  0
 18  8  1  1  0  0  0
 19 20  1  0  0  0  0
 21 22  2  0  0  0  0
 22 20  1  0  0  0  0
 23  6  1  0  0  0  0
 24 25  2  0  0  0  0
 24 23  1  0  0  0  0
 26 24  1  0  0  0  0
 27 26  1  0  0  0  0
M  END
>  <MODEL>
1

>  <REMARK>
 VINA RESULT:      -7.1      0.000      0.000
  Name = 
  7 active torsions:
  status: ('A' for Active; 'I' for Inactive)
    1  A    between atoms: C_2  and  S_4
    2  A    between atoms: C_2  and  C_15
    3  A    between atoms: C_8  and  O_26
    4  A    between atoms: C_10  and  C_14
    5  A    between atoms: C_14  and  O_26
    6  A    between atoms: C_15  and  C_19
    7  A    between atoms: C_21  and  C_23
                            x       y       z     vdW  Elec       q    Type
                         _______ _______ _______ _____ _____    ______ ____

>  <TORSDO>
F 7

$$$$
=
 OpenBabel10232411433D

 27 29  0  0  1  0  0  0  0  0999 V2000
  189.3480  177.6890  141.7840 C   0  0  2  0  0  3  0  0  0  0  0  0
  187.1370  178.5900  140.9620 C   0  0  0  0  0  3  0  0  0  0  0  0
  190.0110  176.6540  139.8750 C   0  0  1  0  0  3  0  0  0  0  0  0
  190.1190  176.6170  141.2870 O   0  0  0  0  0  0  0  0  0  0  0  0
  188.8810  177.5810  139.4750 C   0  0  0  0  0  2  0  0  0  0  0  0
  188.5670  177.2890  143.0120 C   0  0  0  0  0  0  0  0  0  0  0  0
  188.4730  178.1460  140.7230 N   0  0  0  0  0  0  0  0  0  0  0  0
  186.6050  178.4060  142.1680 C   0  0  0  0  0  0  0  0  0  0  0  0
  187.3370  177.6860  143.1760 N   0  0  0  0  0  0  0  0  0  0  0  0
  181.2200  179.4200  143.4820 C   0  0  0  0  0  1  0  0  0  0  0  0
  184.8530  178.5580  143.7610 O   0  0  0  0  0  0  0  0  0  0  0  0
  182.8290  178.6780  141.7360 C   0  0  1  0  0  3  0  0  0  0  0  0
  184.2410  178.1670  141.4710 C   0  0  0  0  0  2  0  0  0  0  0  0
  183.6590  179.2530  144.0300 C   0  0  2  0  0  3  0  0  0  0  0  0
  181.9210  177.9130  141.0290 F   0  0  0  0  0  0  0  0  0  0  0  0
  183.3890  179.1810  145.3970 O   0  0  0  0  0  1  0  0  0  0  0  0
  182.4980  178.6400  143.2310 C   0  0  1  0  0  3  0  0  0  0  0  0
  185.2090  178.8560  142.4330 C   0  0  2  0  0  3  0  0  0  0  0  0
  191.3310  177.0760  139.2320 C   0  0  0  0  0  2  0  0  0  0  0  0
  191.5040  176.4810  137.9520 O   0  0  0  0  0  0  0  0  0  0  0  0
  191.3880  174.2810  137.1320 C   0  0  0  0  0  2  0  0  0  0  0  0
  192.0350  175.2020  137.8300 C   0  0  0  0  0  3  0  0  0  0  0  0
  189.2660  176.6030  144.1390 C   0  0  0  0  0  2  0  0  0  0  0  0
  189.5820  177.5770  145.2280 C   0  0  0  0  0  0  0  0  0  0  0  0
  190.1040  178.6460  144.9570 O   0  0  0  0  0  0  0  0  0  0  0  0
  189.2410  177.1580  146.9360 S   0  0  0  0  0  0  0  0  0  0  0  0
  187.4950  177.6290  146.7890 C   0  0  0  0  0  1  0  0  0  0  0  0
  1  4  1  6  0  0  0
  1  6  1  0  0  0  0
  2  8  2  0  0  0  0
  3 19  1  6  0  0  0
  3  4  1  0  0  0  0
  5  3  1  0  0  0  0
  5  7  1  0  0  0  0
  6  9  2  0  0  0  0
  6 23  1  0  0  0  0
  7  2  1  0  0  0  0
  7  1  1  0  0  0  0
  8  9  1  0  0  0  0
 11 14  1  0  0  0  0
 12 15  1  6  0  0  0
 12 17  1  0  0  0  0
 13 12  1  0  0  0  0
 13 18  1  0  0  0  0
 14 16  1  1  0  0  0
 17 10  1  6  0  0  0
 17 14  1  0  0  0  0
 18  8  1  6  0  0  0
 18 11  1  0  0  0  0
 20 19  1  0  0  0  0
 21 22  2  0  0  0  0
 22 20  1  0  0  0  0
 23 24  1  0  0  0  0
 24 26  1  0  0  0  0
 25 24  2  0  0  0  0
 27 26  1  0  0  0  0
M  END
>  <MODEL>
2

>  <REMARK>
 VINA RESULT:      -7.1      2.523      5.329
  Name = 
  7 active torsions:
  status: ('A' for Active; 'I' for Inactive)
    1  A    between atoms: C_2  and  S_4
    2  A    between atoms: C_2  and  C_15
    3  A    between atoms: C_8  and  O_26
    4  A    between atoms: C_10  and  C_14
    5  A    between atoms: C_14  and  O_26
    6  A    between atoms: C_15  and  C_19
    7  A    between atoms: C_21  and  C_23
                            x       y       z     vdW  Elec       q    Type
                         _______ _______ _______ _____ _____    ______ ____

>  <TORSDO>
F 7

$$$$
=
 OpenBabel10232411433D

 27 29  0  0  1  0  0  0  0  0999 V2000
  190.4770  177.2060  141.3430 C   0  0  2  0  0  3  0  0  0  0  0  0
  188.0050  177.7050  141.2330 C   0  0  0  0  0  3  0  0  0  0  0  0
  190.7220  176.2970  139.2780 C   0  0  1  0  0  3  0  0  0  0  0  0
  191.2390  176.2840  140.5960 O   0  0  0  0  0  0  0  0  0  0  0  0
  189.3850  177.0110  139.2630 C   0  0  0  0  0  2  0  0  0  0  0  0
  190.1650  176.6790  142.7230 C   0  0  0  0  0  0  0  0  0  0  0  0
  189.2690  177.5000  140.6010 N   0  0  0  0  0  0  0  0  0  0  0  0
  187.8840  177.4340  142.5310 C   0  0  0  0  0  0  0  0  0  0  0  0
  188.9870  176.8570  143.2510 N   0  0  0  0  0  0  0  0  0  0  0  0
  182.9960  178.9310  144.9000 C   0  0  0  0  0  1  0  0  0  0  0  0
  185.7310  178.4200  142.3940 O   0  0  0  0  0  0  0  0  0  0  0  0
  185.4160  178.4720  145.2420 C   0  0  1  0  0  3  0  0  0  0  0  0
  186.7700  178.3180  144.5570 C   0  0  0  0  0  2  0  0  0  0  0  0
  184.4360  178.3320  142.9390 C   0  0  2  0  0  3  0  0  0  0  0  0
  185.5520  179.2760  146.3580 F   0  0  0  0  0  0  0  0  0  0  0  0
  183.5270  178.8980  142.0460 O   0  0  0  0  0  1  0  0  0  0  0  0
  184.3780  179.0680  144.2860 C   0  0  1  0  0  3  0  0  0  0  0  0
  186.5700  177.6340  143.2050 C   0  0  2  0  0  3  0  0  0  0  0  0
  191.7080  176.9400  138.3040 C   0  0  0  0  0  2  0  0  0  0  0  0
  193.0120  176.3910  138.4390 O   0  0  0  0  0  0  0  0  0  0  0  0
  194.3950  174.5610  137.9280 C   0  0  0  0  0  2  0  0  0  0  0  0
  193.4740  175.4310  137.5460 C   0  0  0  0  0  3  0  0  0  0  0  0
  191.2660  176.1310  143.5690 C   0  0  0  0  0  2  0  0  0  0  0  0
  191.5650  177.0560  144.7030 C   0  0  0  0  0  0  0  0  0  0  0  0
  191.7990  178.2330  144.4840 O   0  0  0  0  0  0  0  0  0  0  0  0
  191.6290  176.4300  146.3810 S   0  0  0  0  0  0  0  0  0  0  0  0
  189.9220  176.9400  146.7240 C   0  0  0  0  0  1  0  0  0  0  0  0
  1  4  1  6  0  0  0
  1  6  1  0  0  0  0
  2  8  2  0  0  0  0
  3 19  1  6  0  0  0
  3  4  1  0  0  0  0
  5  3  1  0  0  0  0
  5  7  1  0  0  0  0
  6  9  2  0  0  0  0
  6 23  1  0  0  0  0
  7  2  1  0  0  0  0
  7  1  1  0  0  0  0
  8  9  1  0  0  0  0
 11 14  1  0  0  0  0
 11 18  1  0  0  0  0
 12 15  1  1  0  0  0
 13 12  1  0  0  0  0
 14 16  1  6  0  0  0
 14 17  1  0  0  0  0
 17 10  1  1  0  0  0
 17 12  1  0  0  0  0
 18  8  1  6  0  0  0
 18 13  1  0  0  0  0
 19 20  1  0  0  0  0
 22 21  2  0  0  0  0
 22 20  1  0  0  0  0
 23 24  1  0  0  0  0
 24 26  1  0  0  0  0
 25 24  2  0  0  0  0
 26 27  1  0  0  0  0
M  END
>  <MODEL>
3

>  <REMARK>
 VINA RESULT:      -7.0      2.845      5.573
  Name = 
  7 active torsions:
  status: ('A' for Active; 'I' for Inactive)
    1  A    between atoms: C_2  and  S_4
    2  A    between atoms: C_2  and  C_15
    3  A    between atoms: C_8  and  O_26
    4  A    between atoms: C_10  and  C_14
    5  A    between atoms: C_14  and  O_26
    6  A    between atoms: C_15  and  C_19
    7  A    between atoms: C_21  and  C_23
                            x       y       z     vdW  Elec       q    Type
                         _______ _______ _______ _____ _____    ______ ____

>  <TORSDO>
F 7

$$$$
=
 OpenBabel10232411433D

 27 29  0  0  1  0  0  0  0  0999 V2000
  188.9020  177.4320  142.2200 C   0  0  2  0  0  3  0  0  0  0  0  0
  186.6810  177.9390  143.3100 C   0  0  0  0  0  3  0  0  0  0  0  0
  190.2470  177.8770  143.9930 C   0  0  1  0  0  3  0  0  0  0  0  0
  190.1950  177.8660  142.5780 O   0  0  0  0  0  0  0  0  0  0  0  0
  188.8460  177.7530  144.5560 C   0  0  0  0  0  2  0  0  0  0  0  0
  188.3520  178.2230  141.0590 C   0  0  0  0  0  0  0  0  0  0  0  0
  188.0500  177.5390  143.3870 N   0  0  0  0  0  0  0  0  0  0  0  0
  186.2150  178.4110  142.1560 C   0  0  0  0  0  0  0  0  0  0  0  0
  187.1040  178.6000  141.0420 N   0  0  0  0  0  0  0  0  0  0  0  0
  180.6550  179.3010  141.9340 C   0  0  0  0  0  1  0  0  0  0  0  0
  184.0600  178.3240  143.1460 O   0  0  0  0  0  0  0  0  0  0  0  0
  182.7380  178.8380  140.6570 C   0  0  1  0  0  3  0  0  0  0  0  0
  184.1800  178.3490  140.7470 C   0  0  0  0  0  2  0  0  0  0  0  0
  182.8200  178.9880  143.1570 C   0  0  2  0  0  3  0  0  0  0  0  0
  182.1100  178.2260  139.5870 F   0  0  0  0  0  0  0  0  0  0  0  0
  182.1520  178.6870  144.3440 O   0  0  0  0  0  1  0  0  0  0  0  0
  181.9730  178.5490  141.9520 C   0  0  1  0  0  3  0  0  0  0  0  0
  184.7900  178.8400  142.0600 C   0  0  2  0  0  3  0  0  0  0  0  0
  191.1580  176.7690  144.5200 C   0  0  0  0  0  2  0  0  0  0  0  0
  191.8020  177.1500  145.7300 O   0  0  0  0  0  0  0  0  0  0  0  0
  192.3020  175.7580  147.5560 C   0  0  0  0  0  2  0  0  0  0  0  0
  191.4490  176.5590  146.9370 C   0  0  0  0  0  3  0  0  0  0  0  0
  189.1820  178.4040  139.8310 C   0  0  0  0  0  2  0  0  0  0  0  0
  189.2420  177.1330  139.0490 C   0  0  0  0  0  0  0  0  0  0  0  0
  190.1760  176.3630  139.2080 O   0  0  0  0  0  0  0  0  0  0  0  0
  187.9740  176.7600  137.8400 S   0  0  0  0  0  0  0  0  0  0  0  0
  188.0440  178.4280  137.1300 C   0  0  0  0  0  1  0  0  0  0  0  0
  1  6  1  6  0  0  0
  1  4  1  0  0  0  0
  1  7  1  0  0  0  0
  2  7  1  0  0  0  0
  3 19  1  1  0  0  0
  3  5  1  0  0  0  0
  4  3  1  0  0  0  0
  7  5  1  0  0  0  0
  8  2  2  0  0  0  0
  9  6  2  0  0  0  0
  9  8  1  0  0  0  0
 11 14  1  0  0  0  0
 12 15  1  6  0  0  0
 12 13  1  0  0  0  0
 12 17  1  0  0  0  0
 13 18  1  0  0  0  0
 14 16  1  1  0  0  0
 17 10  1  6  0  0  0
 17 14  1  0  0  0  0
 18  8  1  1  0  0  0
 18 11  1  0  0  0  0
 19 20  1  0  0  0  0
 20 22  1  0  0  0  0
 22 21  2  0  0  0  0
 23  6  1  0  0  0  0
 24 25  2  0  0  0  0
 24 23  1  0  0  0  0
 26 24  1  0  0  0  0
 27 26  1  0  0  0  0
M  END
>  <MODEL>
4

>  <REMARK>
 VINA RESULT:      -7.0      2.020      2.702
  Name = 
  7 active torsions:
  status: ('A' for Active; 'I' for Inactive)
    1  A    between atoms: C_2  and  S_4
    2  A    between atoms: C_2  and  C_15
    3  A    between atoms: C_8  and  O_26
    4  A    between atoms: C_10  and  C_14
    5  A    between atoms: C_14  and  O_26
    6  A    between atoms: C_15  and  C_19
    7  A    between atoms: C_21  and  C_23
                            x       y       z     vdW  Elec       q    Type
                         _______ _______ _______ _____ _____    ______ ____

>  <TORSDO>
F 7

$$$$
=
 OpenBabel10232411433D

 27 29  0  0  1  0  0  0  0  0999 V2000
  187.5080  177.7710  140.4370 C   0  0  2  0  0  3  0  0  0  0  0  0
  188.6990  177.1270  142.5680 C   0  0  0  0  0  3  0  0  0  0  0  0
  189.3190  178.4170  139.2310 C   0  0  1  0  0  3  0  0  0  0  0  0
  187.9290  178.6280  139.3990 O   0  0  0  0  0  0  0  0  0  0  0  0
  189.8620  177.6340  140.4100 C   0  0  0  0  0  2  0  0  0  0  0  0
  186.5270  178.4530  141.3590 C   0  0  0  0  0  0  0  0  0  0  0  0
  188.6830  177.3170  141.1530 N   0  0  0  0  0  0  0  0  0  0  0  0
  187.6630  177.5570  143.2860 C   0  0  0  0  0  0  0  0  0  0  0  0
  186.5970  178.2810  142.6480 N   0  0  0  0  0  0  0  0  0  0  0  0
  187.8610  177.6040  148.9160 C   0  0  0  0  0  1  0  0  0  0  0  0
  186.9430  178.4120  145.3780 O   0  0  0  0  0  0  0  0  0  0  0  0
  189.0760  177.1310  146.7990 C   0  0  1  0  0  3  0  0  0  0  0  0
  189.1010  177.3620  145.2920 C   0  0  0  0  0  2  0  0  0  0  0  0
  186.7390  178.0330  146.7180 C   0  0  2  0  0  3  0  0  0  0  0  0
  190.3410  177.3320  147.3180 F   0  0  0  0  0  0  0  0  0  0  0  0
  185.8310  178.9130  147.3070 O   0  0  0  0  0  1  0  0  0  0  0  0
  188.0700  178.0610  147.4840 C   0  0  1  0  0  3  0  0  0  0  0  0
  187.6660  177.3730  144.7650 C   0  0  2  0  0  3  0  0  0  0  0  0
  189.6130  177.7080  137.9100 C   0  0  0  0  0  2  0  0  0  0  0  0
  190.4580  176.5800  138.0960 O   0  0  0  0  0  0  0  0  0  0  0  0
  192.7680  176.2760  137.7830 C   0  0  0  0  0  2  0  0  0  0  0  0
  191.5530  176.3700  137.2650 C   0  0  0  0  0  3  0  0  0  0  0  0
  185.3490  179.1660  140.7830 C   0  0  0  0  0  2  0  0  0  0  0  0
  184.0850  178.4390  141.1110 C   0  0  0  0  0  0  0  0  0  0  0  0
  183.6270  177.6280  140.3220 O   0  0  0  0  0  0  0  0  0  0  0  0
  183.2140  178.7910  142.6360 S   0  0  0  0  0  0  0  0  0  0  0  0
  181.5980  178.7840  141.8110 C   0  0  0  0  0  1  0  0  0  0  0  0
  1  4  1  6  0  0  0
  1  7  1  0  0  0  0
  1  6  1  0  0  0  0
  2  8  2  0  0  0  0
  3 19  1  6  0  0  0
  3  4  1  0  0  0  0
  3  5  1  0  0  0  0
  5  7  1  0  0  0  0
  6  9  2  0  0  0  0
  7  2  1  0  0  0  0
  9  8  1  0  0  0  0
 11 14  1  0  0  0  0
 12 15  1  1  0  0  0
 12 17  1  0  0  0  0
 13 12  1  0  0  0  0
 14 16  1  1  0  0  0
 14 17  1  0  0  0  0
 17 10  1  1  0  0  0
 18  8  1  6  0  0  0
 18 13  1  0  0  0  0
 18 11  1  0  0  0  0
 19 20  1  0  0  0  0
 22 21  2  0  0  0  0
 22 20  1  0  0  0  0
 23 24  1  0  0  0  0
 23  6  1  0  0  0  0
 24 26  1  0  0  0  0
 25 24  2  0  0  0  0
 27 26  1  0  0  0  0
M  END
>  <MODEL>
5

>  <REMARK>
 VINA RESULT:      -7.0      3.257      7.151
  Name = 
  7 active torsions:
  status: ('A' for Active; 'I' for Inactive)
    1  A    between atoms: C_2  and  S_4
    2  A    between atoms: C_2  and  C_15
    3  A    between atoms: C_8  and  O_26
    4  A    between atoms: C_10  and  C_14
    5  A    between atoms: C_14  and  O_26
    6  A    between atoms: C_15  and  C_19
    7  A    between atoms: C_21  and  C_23
                            x       y       z     vdW  Elec       q    Type
                         _______ _______ _______ _____ _____    ______ ____

>  <TORSDO>
F 7

$$$$
=
 OpenBabel10232411433D

 27 29  0  0  1  0  0  0  0  0999 V2000
  187.5740  176.9850  144.9620 C   0  0  2  0  0  3  0  0  0  0  0  0
  185.4270  178.3120  145.0350 C   0  0  0  0  0  3  0  0  0  0  0  0
  188.6740  178.0470  146.6390 C   0  0  1  0  0  3  0  0  0  0  0  0
  188.8580  177.3320  145.4310 O   0  0  0  0  0  0  0  0  0  0  0  0
  187.2190  178.4440  146.7790 C   0  0  0  0  0  2  0  0  0  0  0  0
  187.4630  177.1570  143.4660 C   0  0  0  0  0  0  0  0  0  0  0  0
  186.6020  177.7980  145.6640 N   0  0  0  0  0  0  0  0  0  0  0  0
  185.3070  178.2050  143.7130 C   0  0  0  0  0  0  0  0  0  0  0  0
  186.3870  177.6630  142.9330 N   0  0  0  0  0  0  0  0  0  0  0  0
  180.4110  179.5430  141.2670 C   0  0  0  0  0  1  0  0  0  0  0  0
  182.9430  178.3960  143.7750 O   0  0  0  0  0  0  0  0  0  0  0  0
  182.7570  178.7840  140.9420 C   0  0  1  0  0  3  0  0  0  0  0  0
  183.9840  178.1840  141.6200 C   0  0  0  0  0  2  0  0  0  0  0  0
  181.8810  179.1620  143.2590 C   0  0  2  0  0  3  0  0  0  0  0  0
  182.5250  178.1300  139.7460 F   0  0  0  0  0  0  0  0  0  0  0  0
  180.7760  179.0320  144.1010 O   0  0  0  0  0  1  0  0  0  0  0  0
  181.5230  178.6850  141.8440 C   0  0  1  0  0  3  0  0  0  0  0  0
  184.0910  178.7430  143.0390 C   0  0  2  0  0  3  0  0  0  0  0  0
  189.1460  177.2300  147.8410 C   0  0  0  0  0  2  0  0  0  0  0  0
  190.0810  176.2280  147.4600 O   0  0  0  0  0  0  0  0  0  0  0  0
  192.3500  175.7580  147.8540 C   0  0  0  0  0  2  0  0  0  0  0  0
  191.4280  176.5360  147.3080 C   0  0  0  0  0  3  0  0  0  0  0  0
  188.5040  176.5610  142.5770 C   0  0  0  0  0  2  0  0  0  0  0  0
  189.2580  177.6360  141.8620 C   0  0  0  0  0  0  0  0  0  0  0  0
  189.8950  178.4590  142.4990 O   0  0  0  0  0  0  0  0  0  0  0  0
  189.1880  177.7470  140.0760 S   0  0  0  0  0  0  0  0  0  0  0  0
  190.7660  176.8740  139.8770 C   0  0  0  0  0  1  0  0  0  0  0  0
  1  6  1  6  0  0  0
  1  4  1  0  0  0  0
  1  7  1  0  0  0  0
  2  7  1  0  0  0  0
  3  5  1  0  0  0  0
  3 19  1  1  0  0  0
  4  3  1  0  0  0  0
  7  5  1  0  0  0  0
  8  2  2  0  0  0  0
  9  6  2  0  0  0  0
  9  8  1  0  0  0  0
 12 15  1  6  0  0  0
 12 13  1  0  0  0  0
 12 17  1  0  0  0  0
 13 18  1  0  0  0  0
 14 11  1  0  0  0  0
 14 16  1  1  0  0  0
 17 10  1  6  0  0  0
 17 14  1  0  0  0  0
 18  8  1  1  0  0  0
 18 11  1  0  0  0  0
 20 19  1  0  0  0  0
 22 20  1  0  0  0  0
 22 21  2  0  0  0  0
 23  6  1  0  0  0  0
 24 25  2  0  0  0  0
 24 23  1  0  0  0  0
 26 24  1  0  0  0  0
 27 26  1  0  0  0  0
M  END
>  <MODEL>
6

>  <REMARK>
 VINA RESULT:      -6.9      1.905      2.229
  Name = 
  7 active torsions:
  status: ('A' for Active; 'I' for Inactive)
    1  A    between atoms: C_2  and  S_4
    2  A    between atoms: C_2  and  C_15
    3  A    between atoms: C_8  and  O_26
    4  A    between atoms: C_10  and  C_14
    5  A    between atoms: C_14  and  O_26
    6  A    between atoms: C_15  and  C_19
    7  A    between atoms: C_21  and  C_23
                            x       y       z     vdW  Elec       q    Type
                         _______ _______ _______ _____ _____    ______ ____

>  <TORSDO>
F 7

$$$$
=
 OpenBabel10232411433D

 27 29  0  0  1  0  0  0  0  0999 V2000
  189.0930  177.7010  142.7020 C   0  0  2  0  0  3  0  0  0  0  0  0
  186.9090  177.6040  143.9650 C   0  0  0  0  0  3  0  0  0  0  0  0
  190.4210  178.4190  144.3970 C   0  0  1  0  0  3  0  0  0  0  0  0
  190.2620  178.4350  142.9900 O   0  0  0  0  0  0  0  0  0  0  0  0
  189.1430  177.9310  145.0480 C   0  0  0  0  0  2  0  0  0  0  0  0
  188.2740  178.3620  141.6200 C   0  0  0  0  0  0  0  0  0  0  0  0
  188.3360  177.5580  143.9280 N   0  0  0  0  0  0  0  0  0  0  0  0
  186.2500  177.9770  142.8700 C   0  0  0  0  0  0  0  0  0  0  0  0
  186.9750  178.4140  141.7070 N   0  0  0  0  0  0  0  0  0  0  0  0
  180.7010  178.9510  142.8020 C   0  0  0  0  0  1  0  0  0  0  0  0
  184.2930  178.7430  141.7680 O   0  0  0  0  0  0  0  0  0  0  0  0
  182.7550  178.7360  144.1860 C   0  0  1  0  0  3  0  0  0  0  0  0
  184.2800  178.7260  144.1700 C   0  0  0  0  0  2  0  0  0  0  0  0
  182.9060  178.5190  141.6940 C   0  0  2  0  0  3  0  0  0  0  0  0
  182.3100  179.5390  145.2190 F   0  0  0  0  0  0  0  0  0  0  0  0
  182.4320  178.9990  140.4720 O   0  0  0  0  0  1  0  0  0  0  0  0
  182.1920  179.2330  142.8510 C   0  0  1  0  0  3  0  0  0  0  0  0
  184.7600  178.0380  142.8920 C   0  0  2  0  0  3  0  0  0  0  0  0
  191.6170  177.5600  144.8070 C   0  0  0  0  0  2  0  0  0  0  0  0
  191.6080  177.2800  146.2000 O   0  0  0  0  0  0  0  0  0  0  0  0
  192.3900  175.7920  147.8430 C   0  0  0  0  0  2  0  0  0  0  0  0
  191.8180  175.9870  146.6650 C   0  0  0  0  0  3  0  0  0  0  0  0
  188.9350  178.7800  140.3470 C   0  0  0  0  0  2  0  0  0  0  0  0
  189.2470  177.5870  139.5040 C   0  0  0  0  0  0  0  0  0  0  0  0
  188.3640  177.0560  138.8490 O   0  0  0  0  0  0  0  0  0  0  0  0
  190.9020  176.9030  139.4900 S   0  0  0  0  0  0  0  0  0  0  0  0
  190.5250  175.8040  138.0960 C   0  0  0  0  0  1  0  0  0  0  0  0
  1  6  1  6  0  0  0
  1  4  1  0  0  0  0
  1  7  1  0  0  0  0
  3 19  1  6  0  0  0
  3  5  1  0  0  0  0
  4  3  1  0  0  0  0
  6  9  2  0  0  0  0
  7  2  1  0  0  0  0
  7  5  1  0  0  0  0
  8  2  2  0  0  0  0
  9  8  1  0  0  0  0
 11 18  1  0  0  0  0
 12 15  1  1  0  0  0
 13 12  1  0  0  0  0
 14 16  1  6  0  0  0
 14 11  1  0  0  0  0
 14 17  1  0  0  0  0
 17 10  1  1  0  0  0
 17 12  1  0  0  0  0
 18  8  1  1  0  0  0
 18 13  1  0  0  0  0
 19 20  1  0  0  0  0
 20 22  1  0  0  0  0
 22 21  2  0  0  0  0
 23  6  1  0  0  0  0
 24 23  1  0  0  0  0
 25 24  2  0  0  0  0
 26 24  1  0  0  0  0
 27 26  1  0  0  0  0
M  END
>  <MODEL>
7

>  <REMARK>
 VINA RESULT:      -6.9      1.783      2.261
  Name = 
  7 active torsions:
  status: ('A' for Active; 'I' for Inactive)
    1  A    between atoms: C_2  and  S_4
    2  A    between atoms: C_2  and  C_15
    3  A    between atoms: C_8  and  O_26
    4  A    between atoms: C_10  and  C_14
    5  A    between atoms: C_14  and  O_26
    6  A    between atoms: C_15  and  C_19
    7  A    between atoms: C_21  and  C_23
                            x       y       z     vdW  Elec       q    Type
                         _______ _______ _______ _____ _____    ______ ____

>  <TORSDO>
F 7

$$$$
=
 OpenBabel10232411433D

 27 29  0  0  1  0  0  0  0  0999 V2000
  189.2290  177.5380  144.2900 C   0  0  2  0  0  3  0  0  0  0  0  0
  190.5880  177.7540  142.1730 C   0  0  0  0  0  3  0  0  0  0  0  0
  190.7300  176.3700  145.5280 C   0  0  1  0  0  3  0  0  0  0  0  0
  189.3460  176.6030  145.3390 O   0  0  0  0  0  0  0  0  0  0  0  0
  191.5050  176.9300  144.3530 C   0  0  0  0  0  2  0  0  0  0  0  0
  188.0950  177.1890  143.3570 C   0  0  0  0  0  0  0  0  0  0  0  0
  190.4950  177.5940  143.5890 N   0  0  0  0  0  0  0  0  0  0  0  0
  189.4790  177.6630  141.4420 C   0  0  0  0  0  0  0  0  0  0  0  0
  188.2320  177.3160  142.0670 N   0  0  0  0  0  0  0  0  0  0  0  0
  189.2240  177.7370  135.8140 C   0  0  0  0  0  1  0  0  0  0  0  0
  188.2670  177.9720  139.4270 O   0  0  0  0  0  0  0  0  0  0  0  0
  190.3440  176.8100  137.8310 C   0  0  1  0  0  3  0  0  0  0  0  0
  190.2380  176.6020  139.3380 C   0  0  0  0  0  2  0  0  0  0  0  0
  188.4250  178.3990  138.0950 C   0  0  2  0  0  3  0  0  0  0  0  0
  190.7560  175.6340  137.2310 F   0  0  0  0  0  0  0  0  0  0  0  0
  187.1830  178.7880  137.5920 O   0  0  0  0  0  1  0  0  0  0  0  0
  189.0060  177.2630  137.2400 C   0  0  1  0  0  3  0  0  0  0  0  0
  189.5590  177.8210  139.9620 C   0  0  2  0  0  3  0  0  0  0  0  0
  191.2140  176.9650  146.8490 C   0  0  0  0  0  2  0  0  0  0  0  0
  190.2010  176.9220  147.8460 O   0  0  0  0  0  0  0  0  0  0  0  0
  188.2440  178.0220  148.5420 C   0  0  0  0  0  2  0  0  0  0  0  0
  189.5260  178.0790  148.2210 C   0  0  0  0  0  3  0  0  0  0  0  0
  186.7450  176.8870  143.9190 C   0  0  0  0  0  2  0  0  0  0  0  0
  186.0630  178.1460  144.3450 C   0  0  0  0  0  0  0  0  0  0  0  0
  186.2290  178.5760  145.4750 O   0  0  0  0  0  0  0  0  0  0  0  0
  184.9610  178.9990  143.2190 S   0  0  0  0  0  0  0  0  0  0  0  0
  183.6670  179.1640  144.4790 C   0  0  0  0  0  1  0  0  0  0  0  0
  1  6  1  6  0  0  0
  1  4  1  0  0  0  0
  2  7  1  0  0  0  0
  3 19  1  1  0  0  0
  4  3  1  0  0  0  0
  5  3  1  0  0  0  0
  6 23  1  0  0  0  0
  7  1  1  0  0  0  0
  7  5  1  0  0  0  0
  8  9  1  0  0  0  0
  8  2  2  0  0  0  0
  9  6  2  0  0  0  0
 11 18  1  0  0  0  0
 12 15  1  6  0  0  0
 12 13  1  0  0  0  0
 13 18  1  0  0  0  0
 14 16  1  6  0  0  0
 14 11  1  0  0  0  0
 17 10  1  6  0  0  0
 17 12  1  0  0  0  0
 17 14  1  0  0  0  0
 18  8  1  1  0  0  0
 19 20  1  0  0  0  0
 20 22  1  0  0  0  0
 22 21  2  0  0  0  0
 23 24  1  0  0  0  0
 24 25  2  0  0  0  0
 26 24  1  0  0  0  0
 26 27  1  0  0  0  0
M  END
>  <MODEL>
8

>  <REMARK>
 VINA RESULT:      -6.8      3.418      5.271
  Name = 
  7 active torsions:
  status: ('A' for Active; 'I' for Inactive)
    1  A    between atoms: C_2  and  S_4
    2  A    between atoms: C_2  and  C_15
    3  A    between atoms: C_8  and  O_26
    4  A    between atoms: C_10  and  C_14
    5  A    between atoms: C_14  and  O_26
    6  A    between atoms: C_15  and  C_19
    7  A    between atoms: C_21  and  C_23
                            x       y       z     vdW  Elec       q    Type
                         _______ _______ _______ _____ _____    ______ ____

>  <TORSDO>
F 7

$$$$
=
 OpenBabel10232411433D

 27 29  0  0  1  0  0  0  0  0999 V2000
  185.9140  178.9260  140.3420 C   0  0  2  0  0  3  0  0  0  0  0  0
  185.1720  178.2060  142.6460 C   0  0  0  0  0  3  0  0  0  0  0  0
  184.2260  177.9910  139.1460 C   0  0  1  0  0  3  0  0  0  0  0  0
  185.5870  178.3800  139.0840 O   0  0  0  0  0  0  0  0  0  0  0  0
  183.7600  177.9980  140.5880 C   0  0  0  0  0  2  0  0  0  0  0  0
  187.2830  178.4860  140.8010 C   0  0  0  0  0  0  0  0  0  0  0  0
  184.8860  178.5350  141.2860 N   0  0  0  0  0  0  0  0  0  0  0  0
  186.4420  178.0690  143.0200 C   0  0  0  0  0  0  0  0  0  0  0  0
  187.4950  178.1600  142.0440 N   0  0  0  0  0  0  0  0  0  0  0  0
  187.8600  177.4700  148.4400 C   0  0  0  0  0  1  0  0  0  0  0  0
  186.2340  178.6960  145.2990 O   0  0  0  0  0  0  0  0  0  0  0  0
  188.5630  177.2150  146.0690 C   0  0  1  0  0  3  0  0  0  0  0  0
  188.2710  177.6160  144.6260 C   0  0  0  0  0  2  0  0  0  0  0  0
  186.3090  178.1710  146.6020 C   0  0  2  0  0  3  0  0  0  0  0  0
  189.9190  177.3290  146.3140 F   0  0  0  0  0  0  0  0  0  0  0  0
  185.5910  178.9970  147.4680 O   0  0  0  0  0  1  0  0  0  0  0  0
  187.7740  178.0820  147.0540 C   0  0  1  0  0  3  0  0  0  0  0  0
  186.7580  177.7180  144.4340 C   0  0  2  0  0  3  0  0  0  0  0  0
  183.3550  178.8950  138.2760 C   0  0  0  0  0  2  0  0  0  0  0  0
  182.9170  180.0450  138.9870 O   0  0  0  0  0  0  0  0  0  0  0  0
  181.4980  181.8090  138.3550 C   0  0  0  0  0  2  0  0  0  0  0  0
  181.6440  180.5650  138.7810 C   0  0  0  0  0  3  0  0  0  0  0  0
  188.4470  178.6170  139.8750 C   0  0  0  0  0  2  0  0  0  0  0  0
  188.9650  177.2690  139.4930 C   0  0  0  0  0  0  0  0  0  0  0  0
  189.7790  176.7040  140.2060 O   0  0  0  0  0  0  0  0  0  0  0  0
  188.4330  176.5000  137.9650 S   0  0  0  0  0  0  0  0  0  0  0  0
  188.5020  178.0690  137.0560 C   0  0  0  0  0  1  0  0  0  0  0  0
  1  4  1  6  0  0  0
  1  6  1  0  0  0  0
  1  7  1  0  0  0  0
  2  8  2  0  0  0  0
  3 19  1  6  0  0  0
  3  5  1  0  0  0  0
  4  3  1  0  0  0  0
  5  7  1  0  0  0  0
  6  9  2  0  0  0  0
  7  2  1  0  0  0  0
  9  8  1  0  0  0  0
 11 14  1  0  0  0  0
 12 15  1  1  0  0  0
 12 17  1  0  0  0  0
 13 12  1  0  0  0  0
 14 17  1  0  0  0  0
 14 16  1  1  0  0  0
 17 10  1  1  0  0  0
 18  8  1  6  0  0  0
 18 13  1  0  0  0  0
 18 11  1  0  0  0  0
 19 20  1  0  0  0  0
 21 22  2  0  0  0  0
 22 20  1  0  0  0  0
 23  6  1  0  0  0  0
 24 23  1  0  0  0  0
 24 25  2  0  0  0  0
 26 24  1  0  0  0  0
 27 26  1  0  0  0  0
M  END
>  <MODEL>
9

>  <REMARK>
 VINA RESULT:      -6.7      2.834      7.309
  Name = 
  7 active torsions:
  status: ('A' for Active; 'I' for Inactive)
    1  A    between atoms: C_2  and  S_4
    2  A    between atoms: C_2  and  C_15
    3  A    between atoms: C_8  and  O_26
    4  A    between atoms: C_10  and  C_14
    5  A    between atoms: C_14  and  O_26
    6  A    between atoms: C_15  and  C_19
    7  A    between atoms: C_21  and  C_23
                            x       y       z     vdW  Elec       q    Type
                         _______ _______ _______ _____ _____    ______ ____

>  <TORSDO>
F 7

$$$$
