=
 OpenBabel10222421433D

 47 55  0  0  1  0  0  0  0  0999 V2000
  191.5800  176.1180  134.7480 C   0  0  0  0  0  2  0  0  0  0  0  0
  186.3750  172.7520  135.8160 C   0  0  0  0  0  0  0  0  0  0  0  0
  190.6970  173.2690  134.9130 N   0  0  0  0  0  2  0  0  0  0  0  0
  192.0720  173.0890  134.7210 N   0  0  0  0  0  2  0  0  0  0  0  0
  187.8790  174.7780  135.3660 C   0  0  1  0  0  3  0  0  0  0  0  0
  196.0200  176.7110  134.4430 C   0  0  1  0  0  3  0  0  0  0  0  0
  188.7380  170.2650  134.6530 C   0  0  0  0  0  3  0  0  0  0  0  0
  189.9730  170.9120  134.5110 C   0  0  0  0  0  3  0  0  0  0  0  0
  185.3810  173.2650  136.3890 O   0  0  0  0  0  0  0  0  0  0  0  0
  194.3980  173.5810  137.4270 N   0  0  0  0  0  0  0  0  0  0  0  0
  192.9050  175.4140  135.1070 C   0  0  1  0  0  3  0  0  0  0  0  0
  189.7150  172.2740  134.6150 C   0  0  0  0  0  0  0  0  0  0  0  0
  196.2040  178.1410  134.6390 N   0  0  0  0  0  1  0  0  0  0  0  0
  196.3580  175.3970  135.9730 C   0  0  0  0  0  0  0  0  0  0  0  0
  197.1860  176.0050  134.8880 C   0  0  0  0  0  2  0  0  0  0  0  0
  195.1920  176.1740  135.5000 N   0  0  0  0  0  0  0  0  0  0  0  0
  188.9790  175.2790  134.6380 N   0  0  0  0  0  2  0  0  0  0  0  0
  188.3910  172.4730  134.7450 N   0  0  0  0  0  0  0  0  0  0  0  0
  187.5700  173.4670  135.3400 C   0  0  2  0  0  3  0  0  0  0  0  0
  186.4710  171.2890  135.4560 C   0  0  0  0  0  2  0  0  0  0  0  0
  196.5880  174.5410  136.9650 C   0  0  0  0  0  3  0  0  0  0  0  0
  195.7380  174.1410  139.2690 N   0  0  0  0  0  1  0  0  0  0  0  0
  193.8090  176.3350  135.9180 C   0  0  0  0  0  2  0  0  0  0  0  0
  194.0960  173.3580  136.0180 C   0  0  0  0  0  2  0  0  0  0  0  0
  190.6550  176.5300  135.8330 N   0  0  1  0  0  0  0  0  0  0  0  0
  187.3360  175.8670  136.1760 C   0  0  0  0  0  0  0  0  0  0  0  0
  186.0440  175.8880  136.9200 C   0  0  0  0  0  1  0  0  0  0  0  0
  188.1710  176.9080  136.0790 C   0  0  0  0  0  0  0  0  0  0  0  0
  192.7520  173.9740  135.6680 C   0  0  2  0  0  3  0  0  0  0  0  0
  189.3310  176.5840  135.1690 C   0  0  2  0  0  3  0  0  0  0  0  0
  187.8160  171.2840  134.8010 C   0  0  0  0  0  0  0  0  0  0  0  0
  195.5170  174.0770  137.8670 C   0  0  0  0  0  0  0  0  0  0  0  0
  191.0030  175.7130  139.3850 C   0  0  0  0  0  2  0  0  0  0  0  0
  191.6230  175.9960  138.0320 C   0  0  1  0  0  3  0  0  0  0  0  0
  190.6430  175.5670  136.9490 C   0  0  1  0  0  3  0  0  0  0  0  0
  190.1570  176.2210  138.2350 C   0  0  1  0  0  3  0  0  0  0  0  0
  187.8790  178.2930  136.5730 C   0  0  0  0  0  2  0  0  0  0  0  0
  188.2110  178.4470  138.0510 C   0  0  0  0  0  2  0  0  0  0  0  0
  186.9380  178.4150  138.8830 C   0  0  0  0  0  2  0  0  0  0  0  0
  188.3600  177.7030  143.1580 C   0  0  0  0  0  3  0  0  0  0  0  0
  186.2340  178.8480  141.2830 C   0  0  0  0  0  3  0  0  0  0  0  0
  187.2520  178.3430  140.3420 C   0  0  0  0  0  0  0  0  0  0  0  0
  186.0920  178.4470  142.5460 C   0  0  0  0  0  3  0  0  0  0  0  0
  189.0680  177.9570  142.0580 C   0  0  0  0  0  0  0  0  0  0  0  0
  188.4980  177.9930  140.6940 C   0  0  0  0  0  3  0  0  0  0  0  0
  186.9110  177.3570  143.1450 C   0  0  0  0  0  2  0  0  0  0  0  0
  190.4010  178.1560  142.1900 F   0  0  0  0  0  0  0  0  0  0  0  0
  2  9  2  0  0  0  0
  4  3  1  0  0  0  0
  4 29  1  0  0  0  0
  5 17  1  1  0  0  0
  5 26  1  0  0  0  0
  6 13  1  1  0  0  0
  6 15  1  0  0  0  0
  6 16  1  0  0  0  0
  7 31  2  0  0  0  0
  8 12  2  0  0  0  0
  8  7  1  0  0  0  0
 10 32  2  0  0  0  0
 11  1  1  1  0  0  0
 11 29  1  0  0  0  0
 11 23  1  0  0  0  0
 12 18  1  0  0  0  0
 12  3  1  0  0  0  0
 14 21  2  0  0  0  0
 15 14  1  0  0  0  0
 16 23  1  0  0  0  0
 16 14  1  0  0  0  0
 18 31  1  0  0  0  0
 18 19  1  0  0  0  0
 19  5  1  0  0  0  0
 19  2  1  6  0  0  0
 20  2  1  0  0  0  0
 21 32  1  0  0  0  0
 24 10  1  0  0  0  0
 25  1  1  6  0  0  0
 26 27  1  0  0  0  0
 28 26  2  0  0  0  0
 28 37  1  0  0  0  0
 29 24  1  6  0  0  0
 30 17  1  1  0  0  0
 30 25  1  0  0  0  0
 30 28  1  0  0  0  0
 31 20  1  0  0  0  0
 32 22  1  0  0  0  0
 34 36  1  0  0  0  0
 34 33  1  1  0  0  0
 35 25  1  6  0  0  0
 35 34  1  0  0  0  0
 35 36  1  0  0  0  0
 36 33  1  1  0  0  0
 37 38  1  0  0  0  0
 38 39  1  0  0  0  0
 39 42  1  0  0  0  0
 41 43  2  0  0  0  0
 42 45  2  0  0  0  0
 42 41  1  0  0  0  0
 43 46  1  0  0  0  0
 44 47  1  0  0  0  0
 44 40  2  0  0  0  0
 45 44  1  0  0  0  0
 46 40  1  0  0  0  0
M  END
>  <MODEL>
1

>  <REMARK>
 VINA RESULT:      -7.4      0.000      0.000
  Name = 
  5 active torsions:
  status: ('A' for Active; 'I' for Inactive)
    1  A    between atoms: C_5  and  C_30
    2  A    between atoms: C_19  and  C_31
    3  A    between atoms: C_19  and  C_42
    4  A    between atoms: C_30  and  C_31
    5  A    between atoms: C_37  and  N_38
                            x       y       z     vdW  Elec       q    Type
                         _______ _______ _______ _____ _____    ______ ____

>  <TORSDO>
F 5

$$$$
=
 OpenBabel10222421433D

 47 55  0  0  1  0  0  0  0  0999 V2000
  185.4410  178.7410  137.6170 C   0  0  0  0  0  2  0  0  0  0  0  0
  189.7120  177.0400  141.9100 C   0  0  0  0  0  0  0  0  0  0  0  0
  185.6150  178.0600  140.5210 N   0  0  0  0  0  2  0  0  0  0  0  0
  184.2300  178.2300  140.3900 N   0  0  0  0  0  2  0  0  0  0  0  0
  188.7280  177.8580  139.6890 C   0  0  1  0  0  3  0  0  0  0  0  0
  181.2680  179.1880  136.0210 C   0  0  1  0  0  3  0  0  0  0  0  0
  186.7790  177.7610  143.9100 C   0  0  0  0  0  3  0  0  0  0  0  0
  185.7330  178.0280  143.0160 C   0  0  0  0  0  3  0  0  0  0  0  0
  190.8200  176.5580  141.5620 O   0  0  0  0  0  0  0  0  0  0  0  0
  182.1880  175.6770  138.8790 N   0  0  0  0  0  0  0  0  0  0  0  0
  183.9990  178.2740  137.9020 C   0  0  1  0  0  3  0  0  0  0  0  0
  186.3150  178.1660  141.7620 C   0  0  0  0  0  0  0  0  0  0  0  0
  181.4420  179.2520  134.5790 N   0  0  0  0  0  1  0  0  0  0  0  0
  180.6760  177.4500  136.9230 C   0  0  0  0  0  0  0  0  0  0  0  0
  179.9830  178.6340  136.3320 C   0  0  0  0  0  2  0  0  0  0  0  0
  181.9780  178.0430  136.5500 N   0  0  0  0  0  0  0  0  0  0  0  0
  187.7570  178.6750  139.0710 N   0  0  0  0  0  2  0  0  0  0  0  0
  187.6520  178.0620  141.8720 N   0  0  0  0  0  0  0  0  0  0  0  0
  188.7090  177.6470  141.0200 C   0  0  2  0  0  3  0  0  0  0  0  0
  189.2530  177.1330  143.3450 C   0  0  0  0  0  2  0  0  0  0  0  0
  180.2800  176.3240  137.5100 C   0  0  0  0  0  3  0  0  0  0  0  0
  181.0880  173.9770  137.6950 N   0  0  0  0  0  1  0  0  0  0  0  0
  183.3720  177.6480  136.6610 C   0  0  0  0  0  2  0  0  0  0  0  0
  182.3780  177.0210  139.4130 C   0  0  0  0  0  2  0  0  0  0  0  0
  186.4750  177.7370  137.2600 N   0  0  1  0  0  0  0  0  0  0  0  0
  189.5450  177.2510  138.6410 C   0  0  0  0  0  0  0  0  0  0  0  0
  190.8290  176.5110  138.8050 C   0  0  0  0  0  1  0  0  0  0  0  0
  188.9840  177.5400  137.4610 C   0  0  0  0  0  0  0  0  0  0  0  0
  183.8180  177.4630  139.2140 C   0  0  2  0  0  3  0  0  0  0  0  0
  187.7490  178.3880  137.6480 C   0  0  2  0  0  3  0  0  0  0  0  0
  187.9250  177.7890  143.1370 C   0  0  0  0  0  0  0  0  0  0  0  0
  181.2380  175.3440  138.0560 C   0  0  0  0  0  0  0  0  0  0  0  0
  186.0180  174.1050  137.3280 C   0  0  0  0  0  2  0  0  0  0  0  0
  185.4520  175.5010  137.1620 C   0  0  1  0  0  3  0  0  0  0  0  0
  186.2930  176.4680  137.9850 C   0  0  1  0  0  3  0  0  0  0  0  0
  186.9340  175.3090  137.2350 C   0  0  1  0  0  3  0  0  0  0  0  0
  189.6190  177.2990  136.1250 C   0  0  0  0  0  2  0  0  0  0  0  0
  189.4920  175.8440  135.6950 C   0  0  0  0  0  2  0  0  0  0  0  0
  190.5940  175.4890  134.7070 C   0  0  0  0  0  2  0  0  0  0  0  0
  193.9660  173.7300  137.2260 C   0  0  0  0  0  3  0  0  0  0  0  0
  192.9760  175.9920  135.4230 C   0  0  0  0  0  3  0  0  0  0  0  0
  191.8340  175.0580  135.4200 C   0  0  0  0  0  0  0  0  0  0  0  0
  193.9290  176.0350  136.3540 C   0  0  0  0  0  3  0  0  0  0  0  0
  193.0490  173.1110  136.4830 C   0  0  0  0  0  0  0  0  0  0  0  0
  191.8950  173.7910  135.8540 C   0  0  0  0  0  3  0  0  0  0  0  0
  193.9070  175.1780  137.5730 C   0  0  0  0  0  2  0  0  0  0  0  0
  193.1560  171.7710  136.3250 F   0  0  0  0  0  0  0  0  0  0  0  0
  1 11  1  0  0  0  0
  2 20  1  0  0  0  0
  3 12  1  0  0  0  0
  4  3  1  0  0  0  0
  5 26  1  6  0  0  0
  5 19  1  0  0  0  0
  6 13  1  6  0  0  0
  6 15  1  0  0  0  0
  6 16  1  0  0  0  0
  8  7  1  0  0  0  0
  9  2  2  0  0  0  0
 10 24  1  0  0  0  0
 11 23  1  6  0  0  0
 11 29  1  0  0  0  0
 12 18  1  0  0  0  0
 12  8  2  0  0  0  0
 14 21  2  0  0  0  0
 15 14  1  0  0  0  0
 16 23  1  0  0  0  0
 16 14  1  0  0  0  0
 17  5  1  0  0  0  0
 18 31  1  0  0  0  0
 19 18  1  0  0  0  0
 19  2  1  1  0  0  0
 21 32  1  0  0  0  0
 22 32  1  0  0  0  0
 25  1  1  1  0  0  0
 25 30  1  0  0  0  0
 26 27  1  0  0  0  0
 28 26  2  0  0  0  0
 29 24  1  1  0  0  0
 29  4  1  0  0  0  0
 30 28  1  1  0  0  0
 30 17  1  0  0  0  0
 31 20  1  0  0  0  0
 31  7  2  0  0  0  0
 32 10  2  0  0  0  0
 34 36  1  0  0  0  0
 34 33  1  1  0  0  0
 34 35  1  0  0  0  0
 35 25  1  6  0  0  0
 36 33  1  1  0  0  0
 36 35  1  0  0  0  0
 37 28  1  0  0  0  0
 38 37  1  0  0  0  0
 39 42  1  0  0  0  0
 39 38  1  0  0  0  0
 40 46  1  0  0  0  0
 41 43  2  0  0  0  0
 42 41  1  0  0  0  0
 42 45  2  0  0  0  0
 43 46  1  0  0  0  0
 44 40  2  0  0  0  0
 45 44  1  0  0  0  0
 47 44  1  0  0  0  0
M  END
>  <MODEL>
2

>  <REMARK>
 VINA RESULT:      -7.3      4.305      9.832
  Name = 
  5 active torsions:
  status: ('A' for Active; 'I' for Inactive)
    1  A    between atoms: C_5  and  C_30
    2  A    between atoms: C_19  and  C_31
    3  A    between atoms: C_19  and  C_42
    4  A    between atoms: C_30  and  C_31
    5  A    between atoms: C_37  and  N_38
                            x       y       z     vdW  Elec       q    Type
                         _______ _______ _______ _____ _____    ______ ____

>  <TORSDO>
F 5

$$$$
=
 OpenBabel10222421433D

 47 55  0  0  1  0  0  0  0  0999 V2000
  191.4510  176.1480  134.5390 C   0  0  0  0  0  2  0  0  0  0  0  0
  186.3640  172.5910  135.5570 C   0  0  0  0  0  0  0  0  0  0  0  0
  190.6850  173.2690  134.7660 N   0  0  0  0  0  2  0  0  0  0  0  0
  192.0730  173.1440  134.6200 N   0  0  0  0  0  2  0  0  0  0  0  0
  187.7930  174.6670  135.0900 C   0  0  1  0  0  3  0  0  0  0  0  0
  195.8690  176.9240  134.3460 C   0  0  1  0  0  3  0  0  0  0  0  0
  188.8650  170.1760  134.5410 C   0  0  0  0  0  3  0  0  0  0  0  0
  190.0750  170.8720  134.4150 C   0  0  0  0  0  3  0  0  0  0  0  0
  185.3320  173.0770  136.0850 O   0  0  0  0  0  0  0  0  0  0  0  0
  194.2920  173.8150  137.3760 N   0  0  0  0  0  0  0  0  0  0  0  0
  192.7930  175.5130  134.9580 C   0  0  1  0  0  3  0  0  0  0  0  0
  189.7570  172.2240  134.4700 C   0  0  0  0  0  0  0  0  0  0  0  0
  195.9860  178.3660  134.5030 N   0  0  0  0  0  1  0  0  0  0  0  0
  196.2160  175.6720  135.9250 C   0  0  0  0  0  0  0  0  0  0  0  0
  197.0500  176.2830  134.8460 C   0  0  0  0  0  2  0  0  0  0  0  0
  195.0330  176.3830  135.3950 N   0  0  0  0  0  0  0  0  0  0  0  0
  188.8930  175.1940  134.3790 N   0  0  0  0  0  2  0  0  0  0  0  0
  188.4220  172.3690  134.5550 N   0  0  0  0  0  0  0  0  0  0  0  0
  187.5420  173.3430  135.0950 C   0  0  2  0  0  3  0  0  0  0  0  0
  186.5330  171.1240  135.2460 C   0  0  0  0  0  2  0  0  0  0  0  0
  196.4520  174.8550  136.9490 C   0  0  0  0  0  3  0  0  0  0  0  0
  195.5500  174.4860  139.2380 N   0  0  0  0  0  1  0  0  0  0  0  0
  193.6330  176.4960  135.7670 C   0  0  0  0  0  2  0  0  0  0  0  0
  194.0420  173.5380  135.9660 C   0  0  0  0  0  2  0  0  0  0  0  0
  190.4770  176.5500  135.5840 N   0  0  1  0  0  0  0  0  0  0  0  0
  187.1800  175.7540  135.8500 C   0  0  0  0  0  0  0  0  0  0  0  0
  185.8660  175.7410  136.5550 C   0  0  0  0  0  1  0  0  0  0  0  0
  187.9730  176.8280  135.7460 C   0  0  0  0  0  0  0  0  0  0  0  0
  192.6850  174.0840  135.5580 C   0  0  2  0  0  3  0  0  0  0  0  0
  189.1730  176.5270  134.8800 C   0  0  2  0  0  3  0  0  0  0  0  0
  187.8960  171.1580  134.6310 C   0  0  0  0  0  0  0  0  0  0  0  0
  195.3750  174.3720  137.8330 C   0  0  0  0  0  0  0  0  0  0  0  0
  190.7150  175.8580  139.1720 C   0  0  0  0  0  2  0  0  0  0  0  0
  191.3770  176.1390  137.8370 C   0  0  1  0  0  3  0  0  0  0  0  0
  190.4720  175.6210  136.7280 C   0  0  1  0  0  3  0  0  0  0  0  0
  189.8930  176.2820  137.9710 C   0  0  1  0  0  3  0  0  0  0  0  0
  187.6070  178.2120  136.1880 C   0  0  0  0  0  2  0  0  0  0  0  0
  186.3890  178.2090  137.1010 C   0  0  0  0  0  2  0  0  0  0  0  0
  186.8150  178.3970  138.5490 C   0  0  0  0  0  2  0  0  0  0  0  0
  183.6090  178.5530  141.7910 C   0  0  0  0  0  3  0  0  0  0  0  0
  184.2950  178.5540  138.8120 C   0  0  0  0  0  3  0  0  0  0  0  0
  185.6270  178.5250  139.4460 C   0  0  0  0  0  0  0  0  0  0  0  0
  183.1590  178.1770  139.3970 C   0  0  0  0  0  3  0  0  0  0  0  0
  184.8430  179.0580  141.7910 C   0  0  0  0  0  0  0  0  0  0  0  0
  185.8500  178.7840  140.7430 C   0  0  0  0  0  3  0  0  0  0  0  0
  183.1110  177.5920  140.7670 C   0  0  0  0  0  2  0  0  0  0  0  0
  185.2110  179.8380  142.8330 F   0  0  0  0  0  0  0  0  0  0  0  0
  2  9  2  0  0  0  0
  4  3  1  0  0  0  0
  4 29  1  0  0  0  0
  5 17  1  1  0  0  0
  5 19  1  0  0  0  0
  5 26  1  0  0  0  0
  6 13  1  1  0  0  0
  6 15  1  0  0  0  0
  6 16  1  0  0  0  0
  7 31  2  0  0  0  0
  8 12  2  0  0  0  0
  8  7  1  0  0  0  0
 10 32  2  0  0  0  0
 11  1  1  1  0  0  0
 11 29  1  0  0  0  0
 11 23  1  0  0  0  0
 12 18  1  0  0  0  0
 12  3  1  0  0  0  0
 14 21  2  0  0  0  0
 15 14  1  0  0  0  0
 16 23  1  0  0  0  0
 16 14  1  0  0  0  0
 18 31  1  0  0  0  0
 18 19  1  0  0  0  0
 19  2  1  6  0  0  0
 20  2  1  0  0  0  0
 21 32  1  0  0  0  0
 24 10  1  0  0  0  0
 25  1  1  6  0  0  0
 26 27  1  0  0  0  0
 28 26  2  0  0  0  0
 28 37  1  0  0  0  0
 29 24  1  6  0  0  0
 30 17  1  1  0  0  0
 30 25  1  0  0  0  0
 30 28  1  0  0  0  0
 31 20  1  0  0  0  0
 32 22  1  0  0  0  0
 34 36  1  0  0  0  0
 34 33  1  1  0  0  0
 35 25  1  6  0  0  0
 35 34  1  0  0  0  0
 35 36  1  0  0  0  0
 36 33  1  1  0  0  0
 37 38  1  0  0  0  0
 38 39  1  0  0  0  0
 39 42  1  0  0  0  0
 40 44  2  0  0  0  0
 41 43  2  0  0  0  0
 41 42  1  0  0  0  0
 42 45  2  0  0  0  0
 43 46  1  0  0  0  0
 44 47  1  0  0  0  0
 45 44  1  0  0  0  0
 46 40  1  0  0  0  0
M  END
>  <MODEL>
3

>  <REMARK>
 VINA RESULT:      -6.3      1.335      1.738
  Name = 
  5 active torsions:
  status: ('A' for Active; 'I' for Inactive)
    1  A    between atoms: C_5  and  C_30
    2  A    between atoms: C_19  and  C_31
    3  A    between atoms: C_19  and  C_42
    4  A    between atoms: C_30  and  C_31
    5  A    between atoms: C_37  and  N_38
                            x       y       z     vdW  Elec       q    Type
                         _______ _______ _______ _____ _____    ______ ____

>  <TORSDO>
F 5

$$$$
=
 OpenBabel10222421433D

 47 55  0  0  1  0  0  0  0  0999 V2000
  185.5290  179.7080  138.6640 C   0  0  0  0  0  2  0  0  0  0  0  0
  190.1530  176.3770  141.3260 C   0  0  0  0  0  0  0  0  0  0  0  0
  186.1640  178.3350  141.2410 N   0  0  0  0  0  2  0  0  0  0  0  0
  184.8500  178.7480  141.4990 N   0  0  0  0  0  2  0  0  0  0  0  0
  188.9180  177.8470  139.6280 C   0  0  1  0  0  3  0  0  0  0  0  0
  181.3030  181.1780  138.2910 C   0  0  1  0  0  3  0  0  0  0  0  0
  187.9270  177.0550  144.1010 C   0  0  0  0  0  3  0  0  0  0  0  0
  186.7960  177.6900  143.5700 C   0  0  0  0  0  3  0  0  0  0  0  0
  191.0360  175.8230  140.6230 O   0  0  0  0  0  0  0  0  0  0  0  0
  182.0450  176.9860  140.0860 N   0  0  0  0  0  0  0  0  0  0  0  0
  184.1140  179.4210  139.2080 C   0  0  1  0  0  3  0  0  0  0  0  0
  187.1170  178.0300  142.2610 C   0  0  0  0  0  0  0  0  0  0  0  0
  181.1780  181.5570  136.8930 N   0  0  0  0  0  1  0  0  0  0  0  0
  180.5620  179.3920  138.9580 C   0  0  0  0  0  0  0  0  0  0  0  0
  180.0250  180.7770  138.8030 C   0  0  0  0  0  2  0  0  0  0  0  0
  181.8510  179.8430  138.3910 N   0  0  0  0  0  0  0  0  0  0  0  0
  188.0320  178.9310  139.4460 N   0  0  0  0  0  2  0  0  0  0  0  0
  188.3940  177.6920  142.0080 N   0  0  0  0  0  0  0  0  0  0  0  0
  189.1360  177.3300  140.8530 C   0  0  2  0  0  3  0  0  0  0  0  0
  190.0370  176.1960  142.8190 C   0  0  0  0  0  2  0  0  0  0  0  0
  180.0710  178.2350  139.3950 C   0  0  0  0  0  3  0  0  0  0  0  0
  180.3870  175.8150  138.9100 N   0  0  0  0  0  1  0  0  0  0  0  0
  183.1220  179.2170  138.0670 C   0  0  0  0  0  2  0  0  0  0  0  0
  182.6220  178.1170  140.8050 C   0  0  0  0  0  2  0  0  0  0  0  0
  186.2290  178.6680  137.8700 N   0  0  1  0  0  0  0  0  0  0  0  0
  189.3490  177.3860  138.3100 C   0  0  0  0  0  0  0  0  0  0  0  0
  190.4540  176.4350  137.9980 C   0  0  0  0  0  1  0  0  0  0  0  0
  188.6250  178.0340  137.3900 C   0  0  0  0  0  0  0  0  0  0  0  0
  184.0470  178.3590  140.3400 C   0  0  2  0  0  3  0  0  0  0  0  0
  187.6640  178.9980  138.0430 C   0  0  2  0  0  3  0  0  0  0  0  0
  188.8630  177.0850  143.0850 C   0  0  0  0  0  0  0  0  0  0  0  0
  180.8940  177.0140  139.4800 C   0  0  0  0  0  0  0  0  0  0  0  0
  185.0370  175.2470  137.3450 C   0  0  0  0  0  2  0  0  0  0  0  0
  184.7580  176.7130  137.6040 C   0  0  1  0  0  3  0  0  0  0  0  0
  185.9410  177.3070  138.3570 C   0  0  1  0  0  3  0  0  0  0  0  0
  186.1470  176.2750  137.2560 C   0  0  1  0  0  3  0  0  0  0  0  0
  188.8990  178.0210  135.9160 C   0  0  0  0  0  2  0  0  0  0  0  0
  188.5750  176.6700  135.2940 C   0  0  0  0  0  2  0  0  0  0  0  0
  189.7220  176.2090  134.4080 C   0  0  0  0  0  2  0  0  0  0  0  0
  191.8710  172.3010  135.3680 C   0  0  0  0  0  3  0  0  0  0  0  0
  189.2730  173.9130  135.3940 C   0  0  0  0  0  3  0  0  0  0  0  0
  190.2460  174.8830  134.8570 C   0  0  0  0  0  0  0  0  0  0  0  0
  189.4230  172.5890  135.3790 C   0  0  0  0  0  3  0  0  0  0  0  0
  192.3230  173.5540  135.4190 C   0  0  0  0  0  0  0  0  0  0  0  0
  191.5770  174.7250  134.9100 C   0  0  0  0  0  3  0  0  0  0  0  0
  190.5820  171.9140  134.7290 C   0  0  0  0  0  2  0  0  0  0  0  0
  193.5570  173.7650  135.9320 F   0  0  0  0  0  0  0  0  0  0  0  0
  1 11  1  0  0  0  0
  2 20  1  0  0  0  0
  3  4  1  0  0  0  0
  3 12  1  0  0  0  0
  5 26  1  6  0  0  0
  5 19  1  0  0  0  0
  6 13  1  6  0  0  0
  6 16  1  0  0  0  0
  6 15  1  0  0  0  0
  8  7  1  0  0  0  0
  9  2  2  0  0  0  0
 10 24  1  0  0  0  0
 11 23  1  6  0  0  0
 11 29  1  0  0  0  0
 12  8  2  0  0  0  0
 14 21  2  0  0  0  0
 15 14  1  0  0  0  0
 16 14  1  0  0  0  0
 17  5  1  0  0  0  0
 18 12  1  0  0  0  0
 18 31  1  0  0  0  0
 19  2  1  1  0  0  0
 19 18  1  0  0  0  0
 20 31  1  0  0  0  0
 21 32  1  0  0  0  0
 22 32  1  0  0  0  0
 23 16  1  0  0  0  0
 25 30  1  0  0  0  0
 25  1  1  1  0  0  0
 27 26  1  0  0  0  0
 28 26  2  0  0  0  0
 29 24  1  1  0  0  0
 29  4  1  0  0  0  0
 30 28  1  6  0  0  0
 30 17  1  0  0  0  0
 31  7  2  0  0  0  0
 32 10  2  0  0  0  0
 34 33  1  1  0  0  0
 34 35  1  0  0  0  0
 35 25  1  6  0  0  0
 36 33  1  1  0  0  0
 36 34  1  0  0  0  0
 36 35  1  0  0  0  0
 37 28  1  0  0  0  0
 38 37  1  0  0  0  0
 39 42  1  0  0  0  0
 39 38  1  0  0  0  0
 40 44  2  0  0  0  0
 42 45  2  0  0  0  0
 42 41  1  0  0  0  0
 43 41  2  0  0  0  0
 44 47  1  0  0  0  0
 45 44  1  0  0  0  0
 46 40  1  0  0  0  0
 46 43  1  0  0  0  0
M  END
>  <MODEL>
4

>  <REMARK>
 VINA RESULT:      -6.0      4.619     10.107
  Name = 
  5 active torsions:
  status: ('A' for Active; 'I' for Inactive)
    1  A    between atoms: C_5  and  C_30
    2  A    between atoms: C_19  and  C_31
    3  A    between atoms: C_19  and  C_42
    4  A    between atoms: C_30  and  C_31
    5  A    between atoms: C_37  and  N_38
                            x       y       z     vdW  Elec       q    Type
                         _______ _______ _______ _____ _____    ______ ____

>  <TORSDO>
F 5

$$$$
=
 OpenBabel10222421433D

 47 55  0  0  1  0  0  0  0  0999 V2000
  190.3290  174.0200  136.7360 C   0  0  0  0  0  2  0  0  0  0  0  0
  186.8950  178.3970  139.6710 C   0  0  0  0  0  0  0  0  0  0  0  0
  190.5620  175.9830  138.9760 N   0  0  0  0  0  2  0  0  0  0  0  0
  191.8670  175.4750  138.9580 N   0  0  0  0  0  2  0  0  0  0  0  0
  187.4870  176.4530  138.1090 C   0  0  1  0  0  3  0  0  0  0  0  0
  194.1650  171.9870  135.5910 C   0  0  1  0  0  3  0  0  0  0  0  0
  189.7970  178.0590  141.8110 C   0  0  0  0  0  3  0  0  0  0  0  0
  190.6820  177.1890  141.1610 C   0  0  0  0  0  3  0  0  0  0  0  0
  185.8770  178.8920  139.1230 O   0  0  0  0  0  0  0  0  0  0  0  0
  194.2270  176.5260  136.4490 N   0  0  0  0  0  0  0  0  0  0  0  0
  191.8550  174.2370  136.7860 C   0  0  1  0  0  3  0  0  0  0  0  0
  189.9710  176.6180  140.1120 C   0  0  0  0  0  0  0  0  0  0  0  0
  193.8500  171.3040  134.3460 N   0  0  0  0  0  1  0  0  0  0  0  0
  195.1700  173.7680  135.5760 C   0  0  0  0  0  0  0  0  0  0  0  0
  195.5580  172.3260  135.6200 C   0  0  0  0  0  2  0  0  0  0  0  0
  193.7480  173.3700  135.5100 N   0  0  0  0  0  0  0  0  0  0  0  0
  188.2160  175.2530  137.9590 N   0  0  0  0  0  2  0  0  0  0  0  0
  188.6980  177.0500  140.1440 N   0  0  0  0  0  0  0  0  0  0  0  0
  187.6700  177.2450  139.1830 C   0  0  2  0  0  3  0  0  0  0  0  0
  187.4560  178.8790  140.9860 C   0  0  0  0  0  2  0  0  0  0  0  0
  195.8340  174.9210  135.5690 C   0  0  0  0  0  3  0  0  0  0  0  0
  195.5290  177.2000  134.6180 N   0  0  0  0  0  1  0  0  0  0  0  0
  192.4760  174.0650  135.4040 C   0  0  0  0  0  2  0  0  0  0  0  0
  193.8240  175.6580  137.5500 C   0  0  0  0  0  2  0  0  0  0  0  0
  189.4860  174.9430  135.9360 N   0  0  1  0  0  0  0  0  0  0  0  0
  186.7140  176.6700  136.8880 C   0  0  0  0  0  0  0  0  0  0  0  0
  185.6230  177.6620  136.6690 C   0  0  0  0  0  1  0  0  0  0  0  0
  187.0960  175.7540  135.9900 C   0  0  0  0  0  0  0  0  0  0  0  0
  192.3130  175.5010  137.5650 C   0  0  2  0  0  3  0  0  0  0  0  0
  188.1500  174.8410  136.5690 C   0  0  2  0  0  3  0  0  0  0  0  0
  188.6020  177.9290  141.1280 C   0  0  0  0  0  0  0  0  0  0  0  0
  195.1450  176.2250  135.5770 C   0  0  0  0  0  0  0  0  0  0  0  0
  190.1670  178.1720  134.3500 C   0  0  0  0  0  2  0  0  0  0  0  0
  190.5540  176.7330  134.6290 C   0  0  1  0  0  3  0  0  0  0  0  0
  189.9830  176.3300  135.9810 C   0  0  1  0  0  3  0  0  0  0  0  0
  189.1990  177.2250  135.0310 C   0  0  1  0  0  3  0  0  0  0  0  0
  186.4010  175.4830  134.6900 C   0  0  0  0  0  2  0  0  0  0  0  0
  185.8090  174.0810  134.6480 C   0  0  0  0  0  2  0  0  0  0  0  0
  184.3120  174.1490  134.3900 C   0  0  0  0  0  2  0  0  0  0  0  0
  181.9310  175.9810  137.8230 C   0  0  0  0  0  3  0  0  0  0  0  0
  183.8870  173.8320  136.8720 C   0  0  0  0  0  3  0  0  0  0  0  0
  183.5720  174.5520  135.6240 C   0  0  0  0  0  0  0  0  0  0  0  0
  183.7360  174.3260  138.1010 C   0  0  0  0  0  3  0  0  0  0  0  0
  181.6130  175.8660  136.5330 C   0  0  0  0  0  0  0  0  0  0  0  0
  182.5500  175.4100  135.4850 C   0  0  0  0  0  3  0  0  0  0  0  0
  183.2970  175.7260  138.3610 C   0  0  0  0  0  2  0  0  0  0  0  0
  180.3650  176.2270  136.1510 F   0  0  0  0  0  0  0  0  0  0  0  0
  1 11  1  0  0  0  0
  2 20  1  0  0  0  0
  3 12  1  0  0  0  0
  4  3  1  0  0  0  0
  5 26  1  6  0  0  0
  5 19  1  0  0  0  0
  6 13  1  6  0  0  0
  6 15  1  0  0  0  0
  8  7  1  0  0  0  0
  9  2  2  0  0  0  0
 10 24  1  0  0  0  0
 11 23  1  6  0  0  0
 11 29  1  0  0  0  0
 12 18  1  0  0  0  0
 12  8  2  0  0  0  0
 14 15  1  0  0  0  0
 16 14  1  0  0  0  0
 16  6  1  0  0  0  0
 17  5  1  0  0  0  0
 18 31  1  0  0  0  0
 19  2  1  1  0  0  0
 19 18  1  0  0  0  0
 20 31  1  0  0  0  0
 21 14  2  0  0  0  0
 21 32  1  0  0  0  0
 22 32  1  0  0  0  0
 23 16  1  0  0  0  0
 25 30  1  0  0  0  0
 25  1  1  1  0  0  0
 27 26  1  0  0  0  0
 28 26  2  0  0  0  0
 29 24  1  1  0  0  0
 29  4  1  0  0  0  0
 30 28  1  6  0  0  0
 30 17  1  0  0  0  0
 31  7  2  0  0  0  0
 32 10  2  0  0  0  0
 34 33  1  1  0  0  0
 34 36  1  0  0  0  0
 34 35  1  0  0  0  0
 35 25  1  6  0  0  0
 36 33  1  1  0  0  0
 36 35  1  0  0  0  0
 37 28  1  0  0  0  0
 38 37  1  0  0  0  0
 39 38  1  0  0  0  0
 39 42  1  0  0  0  0
 40 46  1  0  0  0  0
 41 43  2  0  0  0  0
 42 41  1  0  0  0  0
 43 46  1  0  0  0  0
 44 40  2  0  0  0  0
 45 42  2  0  0  0  0
 45 44  1  0  0  0  0
 47 44  1  0  0  0  0
M  END
>  <MODEL>
5

>  <REMARK>
 VINA RESULT:      -5.6      2.924      5.803
  Name = 
  5 active torsions:
  status: ('A' for Active; 'I' for Inactive)
    1  A    between atoms: C_5  and  C_30
    2  A    between atoms: C_19  and  C_31
    3  A    between atoms: C_19  and  C_42
    4  A    between atoms: C_30  and  C_31
    5  A    between atoms: C_37  and  N_38
                            x       y       z     vdW  Elec       q    Type
                         _______ _______ _______ _____ _____    ______ ____

>  <TORSDO>
F 5

$$$$
=
 OpenBabel10222421433D

 47 55  0  0  1  0  0  0  0  0999 V2000
  183.3070  175.0190  138.6700 C   0  0  0  0  0  2  0  0  0  0  0  0
  183.7540  170.0510  134.8380 C   0  0  0  0  0  0  0  0  0  0  0  0
  181.5730  173.2990  136.9490 N   0  0  0  0  0  2  0  0  0  0  0  0
  180.6340  174.2450  137.3770 N   0  0  0  0  0  2  0  0  0  0  0  0
  184.4200  171.8240  136.5660 C   0  0  1  0  0  3  0  0  0  0  0  0
  181.2930  178.6660  140.3440 C   0  0  1  0  0  3  0  0  0  0  0  0
  180.1770  170.4610  135.2380 C   0  0  0  0  0  3  0  0  0  0  0  0
  179.9830  171.6330  135.9810 C   0  0  0  0  0  3  0  0  0  0  0  0
  184.8600  169.7130  134.3460 O   0  0  0  0  0  0  0  0  0  0  0  0
  180.5350  177.5410  135.9280 N   0  0  0  0  0  0  0  0  0  0  0  0
  182.1360  175.9770  138.3720 C   0  0  1  0  0  3  0  0  0  0  0  0
  181.2300  171.9950  136.4750 C   0  0  0  0  0  0  0  0  0  0  0  0
  182.3810  179.4500  140.9060 N   0  0  0  0  0  1  0  0  0  0  0  0
  180.5030  179.1380  138.5170 C   0  0  0  0  0  0  0  0  0  0  0  0
  180.2300  179.5360  139.9310 C   0  0  0  0  0  2  0  0  0  0  0  0
  181.6140  178.2830  138.9870 N   0  0  0  0  0  0  0  0  0  0  0  0
  184.0160  172.5630  137.6980 N   0  0  0  0  0  2  0  0  0  0  0  0
  182.1400  171.0690  136.1230 N   0  0  0  0  0  0  0  0  0  0  0  0
  183.5400  171.0640  135.8850 C   0  0  2  0  0  3  0  0  0  0  0  0
  182.4420  169.4040  134.4700 C   0  0  0  0  0  2  0  0  0  0  0  0
  179.9820  179.4520  137.3340 C   0  0  0  0  0  3  0  0  0  0  0  0
  180.7780  179.6760  134.9870 N   0  0  0  0  0  1  0  0  0  0  0  0
  182.6070  177.4280  138.3580 C   0  0  0  0  0  2  0  0  0  0  0  0
  180.1220  176.5660  136.9310 C   0  0  0  0  0  2  0  0  0  0  0  0
  184.4400  174.9340  137.7150 N   0  0  1  0  0  0  0  0  0  0  0  0
  185.8060  172.1770  136.2630 C   0  0  0  0  0  0  0  0  0  0  0  0
  186.7310  171.4910  135.3170 C   0  0  0  0  0  1  0  0  0  0  0  0
  186.1520  173.2000  137.0530 C   0  0  0  0  0  0  0  0  0  0  0  0
  181.2360  175.5630  137.1750 C   0  0  2  0  0  3  0  0  0  0  0  0
  185.0100  173.5880  137.9620 C   0  0  2  0  0  3  0  0  0  0  0  0
  181.5250  170.1790  135.3620 C   0  0  0  0  0  0  0  0  0  0  0  0
  180.4480  178.8300  136.0800 C   0  0  0  0  0  0  0  0  0  0  0  0
  184.4720  176.6520  134.4830 C   0  0  0  0  0  2  0  0  0  0  0  0
  183.9690  176.5350  135.9080 C   0  0  1  0  0  3  0  0  0  0  0  0
  184.0010  175.0690  136.3150 C   0  0  1  0  0  3  0  0  0  0  0  0
  185.1000  175.6680  135.4490 C   0  0  1  0  0  3  0  0  0  0  0  0
  187.5470  173.7210  137.2220 C   0  0  0  0  0  2  0  0  0  0  0  0
  188.1010  174.2820  135.9190 C   0  0  0  0  0  2  0  0  0  0  0  0
  189.3410  175.1190  136.1910 C   0  0  0  0  0  2  0  0  0  0  0  0
  188.5090  178.0120  139.6190 C   0  0  0  0  0  3  0  0  0  0  0  0
  188.3320  177.4070  136.6270 C   0  0  0  0  0  3  0  0  0  0  0  0
  189.0430  176.2250  137.1510 C   0  0  0  0  0  0  0  0  0  0  0  0
  187.5680  178.2250  137.3500 C   0  0  0  0  0  3  0  0  0  0  0  0
  189.5280  177.1710  139.4450 C   0  0  0  0  0  0  0  0  0  0  0  0
  189.5900  176.1540  138.3730 C   0  0  0  0  0  3  0  0  0  0  0  0
  187.2700  177.9890  138.7910 C   0  0  0  0  0  2  0  0  0  0  0  0
  190.5520  177.2210  140.3280 F   0  0  0  0  0  0  0  0  0  0  0  0
  3  4  1  0  0  0  0
  5 26  1  6  0  0  0
  5 17  1  0  0  0  0
  6 13  1  6  0  0  0
  7 31  2  0  0  0  0
  7  8  1  0  0  0  0
  8 12  2  0  0  0  0
  9  2  2  0  0  0  0
 10 32  2  0  0  0  0
 10 24  1  0  0  0  0
 11 23  1  6  0  0  0
 11  1  1  0  0  0  0
 12  3  1  0  0  0  0
 14 16  1  0  0  0  0
 14 15  1  0  0  0  0
 15  6  1  0  0  0  0
 16  6  1  0  0  0  0
 17 30  1  0  0  0  0
 18 12  1  0  0  0  0
 19  2  1  1  0  0  0
 19 18  1  0  0  0  0
 19  5  1  0  0  0  0
 20  2  1  0  0  0  0
 20 31  1  0  0  0  0
 21 14  2  0  0  0  0
 22 32  1  0  0  0  0
 23 16  1  0  0  0  0
 25 30  1  0  0  0  0
 25  1  1  1  0  0  0
 26 28  2  0  0  0  0
 27 26  1  0  0  0  0
 28 37  1  0  0  0  0
 29 24  1  1  0  0  0
 29  4  1  0  0  0  0
 29 11  1  0  0  0  0
 30 28  1  6  0  0  0
 31 18  1  0  0  0  0
 32 21  1  0  0  0  0
 34 33  1  6  0  0  0
 34 35  1  0  0  0  0
 35 25  1  1  0  0  0
 36 33  1  6  0  0  0
 36 34  1  0  0  0  0
 36 35  1  0  0  0  0
 38 39  1  0  0  0  0
 38 37  1  0  0  0  0
 39 42  1  0  0  0  0
 41 42  1  0  0  0  0
 41 43  2  0  0  0  0
 42 45  2  0  0  0  0
 43 46  1  0  0  0  0
 44 40  2  0  0  0  0
 44 47  1  0  0  0  0
 45 44  1  0  0  0  0
 46 40  1  0  0  0  0
M  END
>  <MODEL>
6

>  <REMARK>
 VINA RESULT:      -5.6      5.071      9.514
  Name = 
  5 active torsions:
  status: ('A' for Active; 'I' for Inactive)
    1  A    between atoms: C_5  and  C_30
    2  A    between atoms: C_19  and  C_31
    3  A    between atoms: C_19  and  C_42
    4  A    between atoms: C_30  and  C_31
    5  A    between atoms: C_37  and  N_38
                            x       y       z     vdW  Elec       q    Type
                         _______ _______ _______ _____ _____    ______ ____

>  <TORSDO>
F 5

$$$$
=
 OpenBabel10222421433D

 47 55  0  0  1  0  0  0  0  0999 V2000
  185.6740  176.2340  138.4750 C   0  0  0  0  0  2  0  0  0  0  0  0
  189.3320  172.5920  134.8810 C   0  0  0  0  0  0  0  0  0  0  0  0
  185.4490  173.9420  136.5710 N   0  0  0  0  0  2  0  0  0  0  0  0
  184.0940  174.1770  136.8360 N   0  0  0  0  0  2  0  0  0  0  0  0
  188.6540  174.3320  136.6370 C   0  0  1  0  0  3  0  0  0  0  0  0
  181.7610  178.0320  139.7470 C   0  0  1  0  0  3  0  0  0  0  0  0
  186.1250  170.9130  134.7550 C   0  0  0  0  0  3  0  0  0  0  0  0
  185.2110  171.7320  135.4320 C   0  0  0  0  0  3  0  0  0  0  0  0
  190.4910  172.9590  134.5600 O   0  0  0  0  0  0  0  0  0  0  0  0
  182.3590  176.9340  135.2990 N   0  0  0  0  0  0  0  0  0  0  0  0
  184.2190  176.3910  137.9870 C   0  0  1  0  0  3  0  0  0  0  0  0
  185.9620  172.6990  136.0890 C   0  0  0  0  0  0  0  0  0  0  0  0
  182.1380  179.2560  140.4370 N   0  0  0  0  0  1  0  0  0  0  0  0
  181.0940  178.0890  137.8140 C   0  0  0  0  0  0  0  0  0  0  0  0
  180.4600  178.1830  139.1640 C   0  0  0  0  0  2  0  0  0  0  0  0
  182.4190  177.9740  138.4600 N   0  0  0  0  0  0  0  0  0  0  0  0
  187.7590  174.6520  137.6800 N   0  0  0  0  0  2  0  0  0  0  0  0
  187.2720  172.4610  135.8940 N   0  0  0  0  0  0  0  0  0  0  0  0
  188.4510  173.2510  135.8580 C   0  0  2  0  0  3  0  0  0  0  0  0
  188.6710  171.3460  134.3460 C   0  0  0  0  0  2  0  0  0  0  0  0
  180.6490  178.1260  136.5610 C   0  0  0  0  0  3  0  0  0  0  0  0
  181.4860  178.8910  134.3460 N   0  0  0  0  0  1  0  0  0  0  0  0
  183.7940  177.8560  138.0020 C   0  0  0  0  0  2  0  0  0  0  0  0
  182.4340  175.8380  136.2590 C   0  0  0  0  0  2  0  0  0  0  0  0
  186.7750  176.8510  137.6940 N   0  0  1  0  0  0  0  0  0  0  0  0
  189.6290  175.4150  136.5250 C   0  0  0  0  0  0  0  0  0  0  0  0
  190.8960  175.4180  135.7400 C   0  0  0  0  0  1  0  0  0  0  0  0
  189.2340  176.4090  137.3290 C   0  0  0  0  0  0  0  0  0  0  0  0
  183.8750  175.6160  136.6860 C   0  0  2  0  0  3  0  0  0  0  0  0
  187.9620  176.0400  138.0550 C   0  0  2  0  0  3  0  0  0  0  0  0
  187.3680  171.4240  135.0780 C   0  0  0  0  0  0  0  0  0  0  0  0
  181.5460  177.9440  135.4030 C   0  0  0  0  0  0  0  0  0  0  0  0
  186.7240  178.4030  134.3780 C   0  0  0  0  0  2  0  0  0  0  0  0
  186.0820  178.1620  135.7300 C   0  0  1  0  0  3  0  0  0  0  0  0
  186.5260  176.7990  136.2430 C   0  0  1  0  0  3  0  0  0  0  0  0
  187.4870  177.7060  135.4870 C   0  0  1  0  0  3  0  0  0  0  0  0
  190.0600  177.6100  137.6810 C   0  0  0  0  0  2  0  0  0  0  0  0
  189.8620  178.0240  139.1330 C   0  0  0  0  0  2  0  0  0  0  0  0
  190.4780  176.9920  140.0640 C   0  0  0  0  0  2  0  0  0  0  0  0
  189.3480  176.9690  144.4840 C   0  0  0  0  0  3  0  0  0  0  0  0
  188.6130  177.7370  141.6170 C   0  0  0  0  0  3  0  0  0  0  0  0
  189.9550  177.1450  141.4550 C   0  0  0  0  0  0  0  0  0  0  0  0
  187.7980  177.5170  142.6480 C   0  0  0  0  0  3  0  0  0  0  0  0
  190.5470  177.0910  143.9140 C   0  0  0  0  0  0  0  0  0  0  0  0
  190.8000  176.9040  142.4680 C   0  0  0  0  0  3  0  0  0  0  0  0
  188.1200  176.5610  143.7440 C   0  0  0  0  0  2  0  0  0  0  0  0
  191.6060  177.3650  144.7100 F   0  0  0  0  0  0  0  0  0  0  0  0
  3  4  1  0  0  0  0
  5 26  1  6  0  0  0
  5 17  1  0  0  0  0
  6 13  1  1  0  0  0
  7 31  2  0  0  0  0
  7  8  1  0  0  0  0
  8 12  2  0  0  0  0
  9  2  2  0  0  0  0
 10 32  2  0  0  0  0
 10 24  1  0  0  0  0
 11 23  1  6  0  0  0
 11  1  1  0  0  0  0
 12  3  1  0  0  0  0
 14 16  1  0  0  0  0
 14 15  1  0  0  0  0
 15  6  1  0  0  0  0
 16  6  1  0  0  0  0
 17 30  1  0  0  0  0
 18 12  1  0  0  0  0
 19  2  1  1  0  0  0
 19 18  1  0  0  0  0
 19  5  1  0  0  0  0
 20  2  1  0  0  0  0
 20 31  1  0  0  0  0
 21 14  2  0  0  0  0
 22 32  1  0  0  0  0
 23 16  1  0  0  0  0
 25 30  1  0  0  0  0
 25  1  1  1  0  0  0
 26 28  2  0  0  0  0
 27 26  1  0  0  0  0
 28 37  1  0  0  0  0
 29 24  1  1  0  0  0
 29  4  1  0  0  0  0
 29 11  1  0  0  0  0
 30 28  1  6  0  0  0
 31 18  1  0  0  0  0
 32 21  1  0  0  0  0
 34 33  1  6  0  0  0
 34 35  1  0  0  0  0
 35 25  1  1  0  0  0
 36 33  1  6  0  0  0
 36 34  1  0  0  0  0
 36 35  1  0  0  0  0
 37 38  1  0  0  0  0
 38 39  1  0  0  0  0
 39 42  1  0  0  0  0
 41 43  2  0  0  0  0
 42 41  1  0  0  0  0
 42 45  2  0  0  0  0
 43 46  1  0  0  0  0
 44 40  2  0  0  0  0
 44 47  1  0  0  0  0
 45 44  1  0  0  0  0
 46 40  1  0  0  0  0
M  END
>  <MODEL>
7

>  <REMARK>
 VINA RESULT:      -5.4      3.661      8.022
  Name = 
  5 active torsions:
  status: ('A' for Active; 'I' for Inactive)
    1  A    between atoms: C_5  and  C_30
    2  A    between atoms: C_19  and  C_31
    3  A    between atoms: C_19  and  C_42
    4  A    between atoms: C_30  and  C_31
    5  A    between atoms: C_37  and  N_38
                            x       y       z     vdW  Elec       q    Type
                         _______ _______ _______ _____ _____    ______ ____

>  <TORSDO>
F 5

$$$$
=
 OpenBabel10222421433D

 47 55  0  0  1  0  0  0  0  0999 V2000
  191.6180  176.4080  134.9710 C   0  0  0  0  0  2  0  0  0  0  0  0
  186.1320  173.5560  136.1270 C   0  0  0  0  0  0  0  0  0  0  0  0
  190.4080  173.6760  134.9230 N   0  0  0  0  0  2  0  0  0  0  0  0
  191.7350  173.3640  134.6000 N   0  0  0  0  0  2  0  0  0  0  0  0
  187.8340  175.4360  135.7580 C   0  0  0  0  0  0  0  0  0  0  0  0
  196.0640  176.5240  134.3580 C   0  0  1  0  0  3  0  0  0  0  0  0
  188.0860  170.9600  134.5270 C   0  0  0  0  0  3  0  0  0  0  0  0
  189.3770  171.4750  134.3480 C   0  0  0  0  0  3  0  0  0  0  0  0
  185.2500  174.1130  136.8300 O   0  0  0  0  0  0  0  0  0  0  0  0
  194.2900  173.2890  137.1380 N   0  0  0  0  0  0  0  0  0  0  0  0
  192.8690  175.5230  135.1460 C   0  0  1  0  0  3  0  0  0  0  0  0
  189.2950  172.8370  134.6100 C   0  0  0  0  0  0  0  0  0  0  0  0
  196.4340  177.8930  134.6800 N   0  0  0  0  0  1  0  0  0  0  0  0
  196.3470  175.0200  135.7150 C   0  0  0  0  0  0  0  0  0  0  0  0
  197.1640  175.6460  134.6310 C   0  0  0  0  0  2  0  0  0  0  0  0
  195.2540  175.9720  135.4220 N   0  0  0  0  0  0  0  0  0  0  0  0
  188.9330  175.8860  134.9950 N   0  0  0  0  0  0  0  0  0  0  0  0
  188.0180  173.1700  134.8690 N   0  0  0  0  0  0  0  0  0  0  0  0
  187.3680  174.1790  135.6270 C   0  0  2  0  0  3  0  0  0  0  0  0
  186.0230  172.1410  135.6150 C   0  0  0  0  0  2  0  0  0  0  0  0
  196.5420  174.0400  136.5930 C   0  0  0  0  0  3  0  0  0  0  0  0
  195.8150  173.4890  138.9080 N   0  0  0  0  0  1  0  0  0  0  0  0
  193.9340  176.2410  135.9670 C   0  0  0  0  0  2  0  0  0  0  0  0
  193.8630  173.2580  135.7430 C   0  0  0  0  0  2  0  0  0  0  0  0
  190.8290  176.8000  136.1660 N   0  0  1  0  0  0  0  0  0  0  0  0
  187.4870  176.4840  136.7160 C   0  0  0  0  0  0  0  0  0  0  0  0
  186.2630  176.5700  137.5630 C   0  0  0  0  0  1  0  0  0  0  0  0
  188.4330  177.4290  136.6550 C   0  0  0  0  0  0  0  0  0  0  0  0
  192.5830  174.0570  135.5700 C   0  0  2  0  0  3  0  0  0  0  0  0
  189.4780  177.0760  135.6230 C   0  0  2  0  0  3  0  0  0  0  0  0
  187.3070  172.0540  134.8530 C   0  0  0  0  0  0  0  0  0  0  0  0
  195.4890  173.6040  137.5300 C   0  0  0  0  0  0  0  0  0  0  0  0
  191.5250  175.5000  139.5170 C   0  0  0  0  0  2  0  0  0  0  0  0
  191.9810  175.8200  138.1070 C   0  0  1  0  0  3  0  0  0  0  0  0
  190.7790  175.7280  137.1760 C   0  0  1  0  0  3  0  0  0  0  0  0
  190.6450  176.3020  138.5800 C   0  0  1  0  0  3  0  0  0  0  0  0
  188.3480  178.7750  137.3080 C   0  0  0  0  0  2  0  0  0  0  0  0
  187.9830  178.6650  138.7820 C   0  0  0  0  0  2  0  0  0  0  0  0
  189.1070  177.9900  139.5530 C   0  0  0  0  0  2  0  0  0  0  0  0
  187.5490  178.0310  143.8410 C   0  0  0  0  0  3  0  0  0  0  0  0
  189.7640  177.2400  141.8880 C   0  0  0  0  0  3  0  0  0  0  0  0
  188.7530  177.8420  140.9970 C   0  0  0  0  0  0  0  0  0  0  0  0
  189.8590  177.4600  143.1990 C   0  0  0  0  0  3  0  0  0  0  0  0
  186.8800  177.9150  142.6940 C   0  0  0  0  0  0  0  0  0  0  0  0
  187.4860  178.0960  141.3570 C   0  0  0  0  0  3  0  0  0  0  0  0
  188.9840  178.4250  143.9220 C   0  0  0  0  0  2  0  0  0  0  0  0
  185.5530  177.6550  142.7550 F   0  0  0  0  0  0  0  0  0  0  0  0
  2  9  2  0  0  0  0
  4  3  1  0  0  0  0
  4 29  1  0  0  0  0
  5 26  1  0  0  0  0
  6 15  1  0  0  0  0
  6 13  1  1  0  0  0
  6 16  1  0  0  0  0
  7 31  2  0  0  0  0
  8  7  1  0  0  0  0
  8 12  2  0  0  0  0
 10 32  2  0  0  0  0
 11  1  1  1  0  0  0
 11 29  1  0  0  0  0
 11 23  1  0  0  0  0
 12 18  1  0  0  0  0
 12  3  1  0  0  0  0
 14 21  2  0  0  0  0
 15 14  1  0  0  0  0
 16 14  1  0  0  0  0
 16 23  1  0  0  0  0
 17  5  2  0  0  0  0
 18 19  1  0  0  0  0
 19  5  1  6  0  0  0
 19  2  1  0  0  0  0
 20  2  1  0  0  0  0
 21 32  1  0  0  0  0
 24 10  1  0  0  0  0
 25  1  1  6  0  0  0
 26 27  1  0  0  0  0
 28 26  2  0  0  0  0
 28 37  1  0  0  0  0
 29 24  1  6  0  0  0
 30 17  1  1  0  0  0
 30 25  1  0  0  0  0
 30 28  1  0  0  0  0
 31 18  1  0  0  0  0
 31 20  1  0  0  0  0
 32 22  1  0  0  0  0
 34 36  1  0  0  0  0
 34 33  1  1  0  0  0
 35 25  1  6  0  0  0
 35 34  1  0  0  0  0
 35 36  1  0  0  0  0
 36 33  1  1  0  0  0
 37 38  1  0  0  0  0
 38 39  1  0  0  0  0
 39 42  1  0  0  0  0
 40 46  1  0  0  0  0
 41 43  2  0  0  0  0
 42 45  2  0  0  0  0
 42 41  1  0  0  0  0
 43 46  1  0  0  0  0
 44 47  1  0  0  0  0
 44 40  2  0  0  0  0
 45 44  1  0  0  0  0
M  END
>  <MODEL>
8

>  <REMARK>
 VINA RESULT:      -4.5      1.017      1.413
  Name = 
  5 active torsions:
  status: ('A' for Active; 'I' for Inactive)
    1  A    between atoms: C_5  and  C_30
    2  A    between atoms: C_19  and  C_31
    3  A    between atoms: C_19  and  C_42
    4  A    between atoms: C_30  and  C_31
    5  A    between atoms: C_37  and  N_38
                            x       y       z     vdW  Elec       q    Type
                         _______ _______ _______ _____ _____    ______ ____

>  <TORSDO>
F 5

$$$$
