=
 OpenBabel10232408213D

 30 34  0  0  1  0  0  0  0  0999 V2000
  183.9740  180.0480  144.2270 C   0  0  0  0  0  2  0  0  0  0  0  0
  184.6370  178.7680  143.7310 C   0  0  2  0  0  0  0  0  0  0  0  0
  183.1610  178.7600  144.1500 C   0  0  2  0  0  3  0  0  0  0  0  0
  188.0640  178.2890  145.0870 C   0  0  1  0  0  3  0  0  0  0  0  0
  190.3400  177.2110  145.4860 N   0  0  0  0  0  0  0  0  0  0  0  0
  185.5280  178.7510  145.9620 C   0  0  0  0  0  2  0  0  0  0  0  0
  188.6250  177.0670  147.1770 C   0  0  0  0  0  3  0  0  0  0  0  0
  187.0850  176.4690  143.6090 C   0  0  0  0  0  1  0  0  0  0  0  0
  187.7380  177.7590  146.4590 C   0  0  0  0  0  0  0  0  0  0  0  0
  189.4530  177.9310  144.6190 C   0  0  0  0  0  0  0  0  0  0  0  0
  185.5710  178.0820  144.6480 N   0  0  2  0  0  0  0  0  0  0  0  0
  186.3590  177.9840  146.9910 C   0  0  0  0  0  2  0  0  0  0  0  0
  189.9870  176.7980  146.6670 C   0  0  0  0  0  0  0  0  0  0  0  0
  189.8930  178.3890  143.4950 N   0  0  0  0  0  2  0  0  0  0  0  0
  186.9410  177.9050  144.0960 C   0  0  1  0  0  3  0  0  0  0  0  0
  192.1900  175.7120  146.9380 C   0  0  0  0  0  1  0  0  0  0  0  0
  190.9130  176.0880  147.4340 O   0  0  0  0  0  0  0  0  0  0  0  0
  186.0460  179.5790  141.7140 C   0  0  0  0  0  3  0  0  0  0  0  0
  185.0320  178.6180  140.0980 C   0  0  0  0  0  0  0  0  0  0  0  0
  184.6280  178.2070  138.8290 C   0  0  0  0  0  3  0  0  0  0  0  0
  184.3920  178.2000  141.2290 C   0  0  0  0  0  0  0  0  0  0  0  0
  185.0410  178.7990  142.2830 C   0  0  0  0  0  0  0  0  0  0  0  0
  183.2820  177.3570  141.1850 C   0  0  0  0  0  3  0  0  0  0  0  0
  183.0810  176.9270  137.5370 F   0  0  0  0  0  0  0  0  0  0  0  0
  183.5150  177.3490  138.7480 C   0  0  0  0  0  0  0  0  0  0  0  0
  182.8460  176.9300  139.9190 C   0  0  0  0  0  3  0  0  0  0  0  0
  186.0150  179.4300  140.3990 O   0  0  0  0  0  0  0  0  0  0  0  0
  182.1910  178.8530  142.9780 C   0  0  0  0  0  2  0  0  0  0  0  0
  180.7920  179.1640  143.4740 C   0  0  0  0  0  2  0  0  0  0  0  0
  180.3640  180.3890  142.9590 O   0  0  0  0  0  1  0  0  0  0  0  0
  2 22  1  6  0  0  0
  2  3  1  0  0  0  0
  2  1  1  0  0  0  0
  2 11  1  0  0  0  0
  3 28  1  6  0  0  0
  3  1  1  0  0  0  0
  4 10  1  6  0  0  0
  4  9  1  0  0  0  0
  5 13  2  0  0  0  0
  6 12  1  0  0  0  0
  9 12  1  0  0  0  0
  9  7  2  0  0  0  0
 10  5  1  0  0  0  0
 11  6  1  1  0  0  0
 13  7  1  0  0  0  0
 13 17  1  0  0  0  0
 14 10  2  0  0  0  0
 15  8  1  1  0  0  0
 15 11  1  0  0  0  0
 15  4  1  0  0  0  0
 16 17  1  0  0  0  0
 18 22  2  0  0  0  0
 19 27  1  0  0  0  0
 19 21  1  0  0  0  0
 20 19  2  0  0  0  0
 21 22  1  0  0  0  0
 23 21  2  0  0  0  0
 24 25  1  0  0  0  0
 25 20  1  0  0  0  0
 25 26  2  0  0  0  0
 26 23  1  0  0  0  0
 27 18  1  0  0  0  0
 28 29  1  0  0  0  0
 30 29  1  0  0  0  0
M  END
>  <MODEL>
1

>  <REMARK>
 VINA RESULT:      -8.5      0.000      0.000
  Name = 
  5 active torsions:
  status: ('A' for Active; 'I' for Inactive)
    1  A    between atoms: O_13  and  C_20
    2  A    between atoms: N_15  and  C_22
    3  A    between atoms: C_16  and  C_22
    4  A    between atoms: C_24  and  C_27
    5  A    between atoms: C_25  and  C_27
                            x       y       z     vdW  Elec       q    Type
                         _______ _______ _______ _____ _____    ______ ____

>  <TORSDO>
F 5

$$$$
=
 OpenBabel10232408213D

 30 34  0  0  1  0  0  0  0  0999 V2000
  189.3610  178.9340  139.0250 C   0  0  0  0  0  2  0  0  0  0  0  0
  188.8930  177.5280  139.3810 C   0  0  2  0  0  0  0  0  0  0  0  0
  187.9340  178.5110  138.6950 C   0  0  2  0  0  3  0  0  0  0  0  0
  189.4190  178.2510  142.9880 C   0  0  1  0  0  3  0  0  0  0  0  0
  190.2750  177.9750  145.3740 N   0  0  0  0  0  0  0  0  0  0  0  0
  187.3870  177.9590  141.2010 C   0  0  0  0  0  2  0  0  0  0  0  0
  187.9850  177.4290  144.8430 C   0  0  0  0  0  3  0  0  0  0  0  0
  190.3970  176.1110  142.0310 C   0  0  0  0  0  1  0  0  0  0  0  0
  188.1160  177.7510  143.5560 C   0  0  0  0  0  0  0  0  0  0  0  0
  190.5330  178.3130  144.0040 C   0  0  0  0  0  0  0  0  0  0  0  0
  188.6110  177.2400  140.8030 N   0  0  2  0  0  0  0  0  0  0  0  0
  186.9650  177.5710  142.6190 C   0  0  0  0  0  2  0  0  0  0  0  0
  189.1150  177.5620  145.7900 C   0  0  0  0  0  0  0  0  0  0  0  0
  191.6820  178.8000  143.6740 N   0  0  0  0  0  2  0  0  0  0  0  0
  189.7710  177.4610  141.7070 C   0  0  1  0  0  3  0  0  0  0  0  0
  188.0980  177.9600  148.0060 C   0  0  0  0  0  1  0  0  0  0  0  0
  188.9610  177.2390  147.1400 O   0  0  0  0  0  0  0  0  0  0  0  0
  188.9780  175.3020  138.0600 C   0  0  0  0  0  3  0  0  0  0  0  0
  191.0860  175.0580  137.8080 C   0  0  0  0  0  0  0  0  0  0  0  0
  192.3440  174.5510  137.4900 C   0  0  0  0  0  3  0  0  0  0  0  0
  190.9310  176.2520  138.4530 C   0  0  0  0  0  0  0  0  0  0  0  0
  189.5770  176.4320  138.6110 C   0  0  0  0  0  0  0  0  0  0  0  0
  192.0200  177.0260  138.8520 C   0  0  0  0  0  3  0  0  0  0  0  0
  194.7100  174.8580  137.5900 F   0  0  0  0  0  0  0  0  0  0  0  0
  193.4660  175.3110  137.8710 C   0  0  0  0  0  0  0  0  0  0  0  0
  193.3040  176.5380  138.5500 C   0  0  0  0  0  3  0  0  0  0  0  0
  189.9200  174.5070  137.5760 O   0  0  0  0  0  0  0  0  0  0  0  0
  187.8140  178.2980  137.1900 C   0  0  0  0  0  2  0  0  0  0  0  0
  186.4040  177.8720  136.8290 C   0  0  0  0  0  2  0  0  0  0  0  0
  185.6080  177.8380  137.9750 O   0  0  0  0  0  1  0  0  0  0  0  0
  1  2  1  0  0  0  0
  2 22  1  6  0  0  0
  2 11  1  0  0  0  0
  3 28  1  6  0  0  0
  3  1  1  0  0  0  0
  3  2  1  0  0  0  0
  4  9  1  1  0  0  0
  4 10  1  0  0  0  0
  5 13  2  0  0  0  0
  6 12  1  0  0  0  0
  7 13  1  0  0  0  0
  9  7  2  0  0  0  0
 10  5  1  0  0  0  0
 11  6  1  1  0  0  0
 11 15  1  0  0  0  0
 12  9  1  0  0  0  0
 13 17  1  0  0  0  0
 14 10  2  0  0  0  0
 15  8  1  1  0  0  0
 15  4  1  0  0  0  0
 17 16  1  0  0  0  0
 18 22  2  0  0  0  0
 19 21  1  0  0  0  0
 20 19  2  0  0  0  0
 20 25  1  0  0  0  0
 21 22  1  0  0  0  0
 21 23  2  0  0  0  0
 24 25  1  0  0  0  0
 25 26  2  0  0  0  0
 26 23  1  0  0  0  0
 27 19  1  0  0  0  0
 27 18  1  0  0  0  0
 29 28  1  0  0  0  0
 29 30  1  0  0  0  0
M  END
>  <MODEL>
2

>  <REMARK>
 VINA RESULT:      -8.4      4.823      6.463
  Name = 
  5 active torsions:
  status: ('A' for Active; 'I' for Inactive)
    1  A    between atoms: O_13  and  C_20
    2  A    between atoms: N_15  and  C_22
    3  A    between atoms: C_16  and  C_22
    4  A    between atoms: C_24  and  C_27
    5  A    between atoms: C_25  and  C_27
                            x       y       z     vdW  Elec       q    Type
                         _______ _______ _______ _____ _____    ______ ____

>  <TORSDO>
F 5

$$$$
=
 OpenBabel10232408213D

 30 34  0  0  1  0  0  0  0  0999 V2000
  189.2090  179.0250  139.2370 C   0  0  0  0  0  2  0  0  0  0  0  0
  189.3190  177.5740  139.6890 C   0  0  2  0  0  0  0  0  0  0  0  0
  188.2150  177.9950  138.7100 C   0  0  2  0  0  3  0  0  0  0  0  0
  189.5530  178.0770  143.3640 C   0  0  1  0  0  3  0  0  0  0  0  0
  190.1410  177.6100  145.8010 N   0  0  0  0  0  0  0  0  0  0  0  0
  187.6870  178.0620  141.3820 C   0  0  0  0  0  2  0  0  0  0  0  0
  187.8750  177.3100  145.0290 C   0  0  0  0  0  3  0  0  0  0  0  0
  190.4210  175.8990  142.3860 C   0  0  0  0  0  1  0  0  0  0  0  0
  188.1600  177.6770  143.7790 C   0  0  0  0  0  0  0  0  0  0  0  0
  190.5620  177.9850  144.4820 C   0  0  0  0  0  0  0  0  0  0  0  0
  188.8740  177.2490  141.0610 N   0  0  2  0  0  0  0  0  0  0  0  0
  187.0940  177.6520  142.7310 C   0  0  0  0  0  2  0  0  0  0  0  0
  188.9130  177.2920  146.0830 C   0  0  0  0  0  0  0  0  0  0  0  0
  191.7770  178.3750  144.2870 N   0  0  0  0  0  2  0  0  0  0  0  0
  189.9550  177.3170  142.0800 C   0  0  1  0  0  3  0  0  0  0  0  0
  188.1460  177.8550  148.3630 C   0  0  0  0  0  1  0  0  0  0  0  0
  188.6000  176.9220  147.3930 O   0  0  0  0  0  0  0  0  0  0  0  0
  191.8760  177.2960  139.3780 C   0  0  0  0  0  3  0  0  0  0  0  0
  191.9470  175.5710  138.1200 C   0  0  0  0  0  0  0  0  0  0  0  0
  192.3820  174.5330  137.2980 C   0  0  0  0  0  3  0  0  0  0  0  0
  190.6240  175.7670  138.3940 C   0  0  0  0  0  0  0  0  0  0  0  0
  190.5600  176.8680  139.2150 C   0  0  0  0  0  0  0  0  0  0  0  0
  189.6260  174.9590  137.8510 C   0  0  0  0  0  3  0  0  0  0  0  0
  191.7730  172.6730  135.9290 F   0  0  0  0  0  0  0  0  0  0  0  0
  191.4010  173.6920  136.7390 C   0  0  0  0  0  0  0  0  0  0  0  0
  190.0320  173.9060  137.0130 C   0  0  0  0  0  3  0  0  0  0  0  0
  192.6790  176.4800  138.7140 O   0  0  0  0  0  0  0  0  0  0  0  0
  188.5400  177.6900  137.2520 C   0  0  0  0  0  2  0  0  0  0  0  0
  187.4340  178.2000  136.3480 C   0  0  0  0  0  2  0  0  0  0  0  0
  187.2100  179.5570  136.5870 O   0  0  0  0  0  1  0  0  0  0  0  0
  1  2  1  0  0  0  0
  2 22  1  6  0  0  0
  2 11  1  0  0  0  0
  3 28  1  6  0  0  0
  3  1  1  0  0  0  0
  3  2  1  0  0  0  0
  4  9  1  1  0  0  0
  4 10  1  0  0  0  0
  5 13  2  0  0  0  0
  6 12  1  0  0  0  0
  7 13  1  0  0  0  0
  9  7  2  0  0  0  0
 10  5  1  0  0  0  0
 11  6  1  1  0  0  0
 11 15  1  0  0  0  0
 12  9  1  0  0  0  0
 13 17  1  0  0  0  0
 14 10  2  0  0  0  0
 15  8  1  1  0  0  0
 15  4  1  0  0  0  0
 17 16  1  0  0  0  0
 19 21  1  0  0  0  0
 19 27  1  0  0  0  0
 20 19  2  0  0  0  0
 21 22  1  0  0  0  0
 22 18  2  0  0  0  0
 23 21  2  0  0  0  0
 24 25  1  0  0  0  0
 25 26  2  0  0  0  0
 25 20  1  0  0  0  0
 26 23  1  0  0  0  0
 27 18  1  0  0  0  0
 29 30  1  0  0  0  0
 29 28  1  0  0  0  0
M  END
>  <MODEL>
3

>  <REMARK>
 VINA RESULT:      -8.3      4.794      6.308
  Name = 
  5 active torsions:
  status: ('A' for Active; 'I' for Inactive)
    1  A    between atoms: O_13  and  C_20
    2  A    between atoms: N_15  and  C_22
    3  A    between atoms: C_16  and  C_22
    4  A    between atoms: C_24  and  C_27
    5  A    between atoms: C_25  and  C_27
                            x       y       z     vdW  Elec       q    Type
                         _______ _______ _______ _____ _____    ______ ____

>  <TORSDO>
F 5

$$$$
=
 OpenBabel10232408213D

 30 34  0  0  1  0  0  0  0  0999 V2000
  190.5230  175.5950  138.8130 C   0  0  0  0  0  2  0  0  0  0  0  0
  190.3860  177.1010  139.0010 C   0  0  2  0  0  0  0  0  0  0  0  0
  191.6870  176.5080  138.4430 C   0  0  2  0  0  3  0  0  0  0  0  0
  189.7490  176.7160  142.6420 C   0  0  1  0  0  3  0  0  0  0  0  0
  188.6450  177.0460  144.9160 N   0  0  0  0  0  0  0  0  0  0  0  0
  191.7860  177.3200  140.9400 C   0  0  0  0  0  2  0  0  0  0  0  0
  190.7520  178.1170  144.4320 C   0  0  0  0  0  3  0  0  0  0  0  0
  188.3390  178.3800  141.3390 C   0  0  0  0  0  1  0  0  0  0  0  0
  190.8230  177.6140  143.1990 C   0  0  0  0  0  0  0  0  0  0  0  0
  188.6050  176.4840  143.5970 C   0  0  0  0  0  0  0  0  0  0  0  0
  190.4580  177.6280  140.3800 N   0  0  2  0  0  0  0  0  0  0  0  0
  191.9670  177.9790  142.3080 C   0  0  0  0  0  2  0  0  0  0  0  0
  189.6170  177.8030  145.3280 C   0  0  0  0  0  0  0  0  0  0  0  0
  187.6540  175.6700  143.2800 N   0  0  0  0  0  2  0  0  0  0  0  0
  189.3190  177.2170  141.2440 C   0  0  1  0  0  3  0  0  0  0  0  0
  188.9770  177.6130  147.7070 C   0  0  0  0  0  1  0  0  0  0  0  0
  189.5620  178.3210  146.6240 O   0  0  0  0  0  0  0  0  0  0  0  0
  189.2450  179.1100  137.8290 C   0  0  0  0  0  3  0  0  0  0  0  0
  187.5720  178.1490  136.9120 C   0  0  0  0  0  0  0  0  0  0  0  0
  186.3870  177.8980  136.2230 C   0  0  0  0  0  3  0  0  0  0  0  0
  188.2800  177.1490  137.5150 C   0  0  0  0  0  0  0  0  0  0  0  0
  189.3700  177.7490  138.1000 C   0  0  0  0  0  0  0  0  0  0  0  0
  187.8520  175.8220  137.4990 C   0  0  0  0  0  3  0  0  0  0  0  0
  184.7800  176.2750  135.5260 F   0  0  0  0  0  0  0  0  0  0  0  0
  185.9290  176.5680  136.1790 C   0  0  0  0  0  0  0  0  0  0  0  0
  186.6560  175.5380  136.8160 C   0  0  0  0  0  3  0  0  0  0  0  0
  188.1580  179.3050  137.1010 O   0  0  0  0  0  0  0  0  0  0  0  0
  191.7940  176.5860  136.9250 C   0  0  0  0  0  2  0  0  0  0  0  0
  193.1890  176.1980  136.4740 C   0  0  0  0  0  2  0  0  0  0  0  0
  194.0530  176.1620  137.5720 O   0  0  0  0  0  1  0  0  0  0  0  0
  1  2  1  0  0  0  0
  2 22  1  6  0  0  0
  2 11  1  0  0  0  0
  3 28  1  6  0  0  0
  3  1  1  0  0  0  0
  3  2  1  0  0  0  0
  4  9  1  1  0  0  0
  4 10  1  0  0  0  0
  5 13  2  0  0  0  0
  6 12  1  0  0  0  0
  7 13  1  0  0  0  0
  9  7  2  0  0  0  0
 10  5  1  0  0  0  0
 11  6  1  1  0  0  0
 11 15  1  0  0  0  0
 12  9  1  0  0  0  0
 13 17  1  0  0  0  0
 14 10  2  0  0  0  0
 15  8  1  1  0  0  0
 15  4  1  0  0  0  0
 17 16  1  0  0  0  0
 18 22  2  0  0  0  0
 19 27  1  0  0  0  0
 19 21  1  0  0  0  0
 20 19  2  0  0  0  0
 21 22  1  0  0  0  0
 23 21  2  0  0  0  0
 24 25  1  0  0  0  0
 25 20  1  0  0  0  0
 25 26  2  0  0  0  0
 26 23  1  0  0  0  0
 27 18  1  0  0  0  0
 29 28  1  0  0  0  0
 29 30  1  0  0  0  0
M  END
>  <MODEL>
4

>  <REMARK>
 VINA RESULT:      -8.1      4.420      6.670
  Name = 
  5 active torsions:
  status: ('A' for Active; 'I' for Inactive)
    1  A    between atoms: O_13  and  C_20
    2  A    between atoms: N_15  and  C_22
    3  A    between atoms: C_16  and  C_22
    4  A    between atoms: C_24  and  C_27
    5  A    between atoms: C_25  and  C_27
                            x       y       z     vdW  Elec       q    Type
                         _______ _______ _______ _____ _____    ______ ____

>  <TORSDO>
F 5

$$$$
=
 OpenBabel10232408213D

 30 34  0  0  1  0  0  0  0  0999 V2000
  188.9500  178.7420  140.1610 C   0  0  0  0  0  2  0  0  0  0  0  0
  188.5280  178.0280  141.4400 C   0  0  2  0  0  0  0  0  0  0  0  0
  189.0190  177.2200  140.2310 C   0  0  2  0  0  3  0  0  0  0  0  0
  185.5590  179.0710  143.4170 C   0  0  1  0  0  3  0  0  0  0  0  0
  183.6750  178.9510  145.1310 N   0  0  0  0  0  0  0  0  0  0  0  0
  186.3570  178.8530  140.8240 C   0  0  0  0  0  2  0  0  0  0  0  0
  183.1920  178.6550  142.7850 C   0  0  0  0  0  3  0  0  0  0  0  0
  186.4770  176.7280  143.7630 C   0  0  0  0  0  1  0  0  0  0  0  0
  184.4640  178.8130  142.4150 C   0  0  0  0  0  0  0  0  0  0  0  0
  185.0730  179.0980  144.8450 C   0  0  0  0  0  0  0  0  0  0  0  0
  187.0810  177.9400  141.7280 N   0  0  2  0  0  0  0  0  0  0  0  0
  184.8450  178.6840  140.9750 C   0  0  0  0  0  2  0  0  0  0  0  0
  182.7860  178.7430  144.2050 C   0  0  0  0  0  0  0  0  0  0  0  0
  185.8910  179.3900  145.8010 N   0  0  0  0  0  2  0  0  0  0  0  0
  186.7390  178.1050  143.1660 C   0  0  1  0  0  3  0  0  0  0  0  0
  180.3850  178.6140  143.6400 C   0  0  0  0  0  1  0  0  0  0  0  0
  181.4490  178.5940  144.5800 O   0  0  0  0  0  0  0  0  0  0  0  0
  189.8820  179.5330  143.0560 C   0  0  0  0  0  3  0  0  0  0  0  0
  190.8750  178.0620  144.2450 C   0  0  0  0  0  0  0  0  0  0  0  0
  191.7000  177.4260  145.1710 C   0  0  0  0  0  3  0  0  0  0  0  0
  190.0780  177.3590  143.3870 C   0  0  0  0  0  0  0  0  0  0  0  0
  189.4190  178.2930  142.6220 C   0  0  0  0  0  0  0  0  0  0  0  0
  190.0570  175.9650  143.3680 C   0  0  0  0  0  3  0  0  0  0  0  0
  192.4860  175.3550  146.0610 F   0  0  0  0  0  0  0  0  0  0  0  0
  191.6970  176.0190  145.1840 C   0  0  0  0  0  0  0  0  0  0  0  0
  190.8830  175.2940  144.2860 C   0  0  0  0  0  3  0  0  0  0  0  0
  190.7450  179.3500  144.0420 O   0  0  0  0  0  0  0  0  0  0  0  0
  190.4790  176.7930  140.3330 C   0  0  0  0  0  2  0  0  0  0  0  0
  191.0590  176.5640  138.9510 C   0  0  0  0  0  2  0  0  0  0  0  0
  190.8010  175.2560  138.5360 O   0  0  0  0  0  1  0  0  0  0  0  0
  1  3  1  0  0  0  0
  1  2  1  0  0  0  0
  2 11  1  0  0  0  0
  2 22  1  1  0  0  0
  3 28  1  1  0  0  0
  3  2  1  0  0  0  0
  4  9  1  6  0  0  0
  4 10  1  0  0  0  0
  6 12  1  0  0  0  0
  7 13  1  0  0  0  0
  9  7  2  0  0  0  0
 10  5  1  0  0  0  0
 10 14  2  0  0  0  0
 11  6  1  6  0  0  0
 11 15  1  0  0  0  0
 12  9  1  0  0  0  0
 13 17  1  0  0  0  0
 13  5  2  0  0  0  0
 15  4  1  0  0  0  0
 15  8  1  6  0  0  0
 16 17  1  0  0  0  0
 18 27  1  0  0  0  0
 19 20  1  0  0  0  0
 20 25  2  0  0  0  0
 21 19  2  0  0  0  0
 22 18  2  0  0  0  0
 22 21  1  0  0  0  0
 23 21  1  0  0  0  0
 23 26  2  0  0  0  0
 25 24  1  0  0  0  0
 26 25  1  0  0  0  0
 27 19  1  0  0  0  0
 29 28  1  0  0  0  0
 30 29  1  0  0  0  0
M  END
>  <MODEL>
5

>  <REMARK>
 VINA RESULT:      -8.1      3.622      7.595
  Name = 
  5 active torsions:
  status: ('A' for Active; 'I' for Inactive)
    1  A    between atoms: O_13  and  C_20
    2  A    between atoms: N_15  and  C_22
    3  A    between atoms: C_16  and  C_22
    4  A    between atoms: C_24  and  C_27
    5  A    between atoms: C_25  and  C_27
                            x       y       z     vdW  Elec       q    Type
                         _______ _______ _______ _____ _____    ______ ____

>  <TORSDO>
F 5

$$$$
=
 OpenBabel10232408213D

 30 34  0  0  1  0  0  0  0  0999 V2000
  180.7340  179.8020  139.9420 C   0  0  0  0  0  2  0  0  0  0  0  0
  181.7140  179.0100  139.0840 C   0  0  2  0  0  0  0  0  0  0  0  0
  180.9820  180.2250  138.4980 C   0  0  2  0  0  3  0  0  0  0  0  0
  182.4310  175.4480  138.3020 C   0  0  1  0  0  3  0  0  0  0  0  0
  182.9130  173.3630  136.9160 N   0  0  0  0  0  0  0  0  0  0  0  0
  180.6330  176.9510  139.6880 C   0  0  0  0  0  2  0  0  0  0  0  0
  180.7200  173.6990  137.8640 C   0  0  0  0  0  3  0  0  0  0  0  0
  182.0990  177.0650  136.3710 C   0  0  0  0  0  1  0  0  0  0  0  0
  181.0500  174.8600  138.4330 C   0  0  0  0  0  0  0  0  0  0  0  0
  183.3600  174.6150  137.4530 C   0  0  0  0  0  0  0  0  0  0  0  0
  181.2720  177.6900  138.5840 N   0  0  2  0  0  0  0  0  0  0  0  0
  180.0210  175.6430  139.1850 C   0  0  0  0  0  2  0  0  0  0  0  0
  181.7040  172.9160  137.0850 C   0  0  0  0  0  0  0  0  0  0  0  0
  184.5980  174.9590  137.3230 N   0  0  0  0  0  2  0  0  0  0  0  0
  182.3320  176.9290  137.8700 C   0  0  1  0  0  3  0  0  0  0  0  0
  180.0040  171.2980  136.3140 C   0  0  0  0  0  1  0  0  0  0  0  0
  181.3540  171.6930  136.5090 O   0  0  0  0  0  0  0  0  0  0  0  0
  184.2680  179.2350  138.7200 C   0  0  0  0  0  3  0  0  0  0  0  0
  184.9900  178.9320  140.7080 C   0  0  0  0  0  0  0  0  0  0  0  0
  185.8120  178.7490  141.8180 C   0  0  0  0  0  3  0  0  0  0  0  0
  183.6290  178.8900  140.8050 C   0  0  0  0  0  0  0  0  0  0  0  0
  183.1460  179.0970  139.5340 C   0  0  0  0  0  0  0  0  0  0  0  0
  182.9780  178.6390  142.0120 C   0  0  0  0  0  3  0  0  0  0  0  0
  185.9450  178.3120  144.1620 F   0  0  0  0  0  0  0  0  0  0  0  0
  185.1890  178.5020  143.0550 C   0  0  0  0  0  0  0  0  0  0  0  0
  183.7810  178.4450  143.1500 C   0  0  0  0  0  3  0  0  0  0  0  0
  185.3560  179.1430  139.4680 O   0  0  0  0  0  0  0  0  0  0  0  0
  181.8210  181.4980  138.4900 C   0  0  0  0  0  2  0  0  0  0  0  0
  181.1060  182.5950  137.7260 C   0  0  0  0  0  2  0  0  0  0  0  0
  181.8830  183.7560  137.7180 O   0  0  0  0  0  1  0  0  0  0  0  0
  2 22  1  1  0  0  0
  2  1  1  0  0  0  0
  3 28  1  1  0  0  0
  3  2  1  0  0  0  0
  3  1  1  0  0  0  0
  4 10  1  6  0  0  0
  4  9  1  0  0  0  0
  5 13  2  0  0  0  0
  5 10  1  0  0  0  0
  7  9  2  0  0  0  0
  9 12  1  0  0  0  0
 11  2  1  0  0  0  0
 11  6  1  1  0  0  0
 12  6  1  0  0  0  0
 13  7  1  0  0  0  0
 14 10  2  0  0  0  0
 15  8  1  6  0  0  0
 15  4  1  0  0  0  0
 15 11  1  0  0  0  0
 16 17  1  0  0  0  0
 17 13  1  0  0  0  0
 18 27  1  0  0  0  0
 18 22  2  0  0  0  0
 19 21  2  0  0  0  0
 19 20  1  0  0  0  0
 20 25  2  0  0  0  0
 21 23  1  0  0  0  0
 22 21  1  0  0  0  0
 23 26  2  0  0  0  0
 25 26  1  0  0  0  0
 25 24  1  0  0  0  0
 27 19  1  0  0  0  0
 29 28  1  0  0  0  0
 30 29  1  0  0  0  0
M  END
>  <MODEL>
6

>  <REMARK>
 VINA RESULT:      -7.9      4.817      8.325
  Name = 
  5 active torsions:
  status: ('A' for Active; 'I' for Inactive)
    1  A    between atoms: O_13  and  C_20
    2  A    between atoms: N_15  and  C_22
    3  A    between atoms: C_16  and  C_22
    4  A    between atoms: C_24  and  C_27
    5  A    between atoms: C_25  and  C_27
                            x       y       z     vdW  Elec       q    Type
                         _______ _______ _______ _____ _____    ______ ____

>  <TORSDO>
F 5

$$$$
=
 OpenBabel10232408213D

 30 34  0  0  1  0  0  0  0  0999 V2000
  191.4370  177.9680  143.8200 C   0  0  0  0  0  2  0  0  0  0  0  0
  190.2990  177.3490  143.0160 C   0  0  2  0  0  0  0  0  0  0  0  0
  191.6000  176.5670  143.2400 C   0  0  2  0  0  3  0  0  0  0  0  0
  189.7220  176.7180  139.3990 C   0  0  1  0  0  3  0  0  0  0  0  0
  190.2110  176.5440  136.9030 N   0  0  0  0  0  0  0  0  0  0  0  0
  188.6430  178.1300  141.4610 C   0  0  0  0  0  2  0  0  0  0  0  0
  188.9310  178.4040  137.7540 C   0  0  0  0  0  3  0  0  0  0  0  0
  191.9780  177.6390  140.1190 C   0  0  0  0  0  1  0  0  0  0  0  0
  188.9970  177.9820  139.0180 C   0  0  0  0  0  0  0  0  0  0  0  0
  190.3730  176.0230  138.2290 C   0  0  0  0  0  0  0  0  0  0  0  0
  190.0790  177.8520  141.6430 N   0  0  2  0  0  0  0  0  0  0  0  0
  188.3840  178.7980  140.1100 C   0  0  0  0  0  2  0  0  0  0  0  0
  189.5560  177.6380  136.6530 C   0  0  0  0  0  0  0  0  0  0  0  0
  190.9590  174.8850  138.3990 N   0  0  0  0  0  2  0  0  0  0  0  0
  190.6760  176.9970  140.5830 C   0  0  1  0  0  3  0  0  0  0  0  0
  188.4540  177.6300  134.4420 C   0  0  0  0  0  1  0  0  0  0  0  0
  189.4650  178.0800  135.3310 O   0  0  0  0  0  0  0  0  0  0  0  0
  187.8820  176.4780  143.3470 C   0  0  0  0  0  3  0  0  0  0  0  0
  187.5030  177.0890  145.3590 C   0  0  0  0  0  0  0  0  0  0  0  0
  186.8920  177.3490  146.5850 C   0  0  0  0  0  3  0  0  0  0  0  0
  188.7940  177.4550  145.1050 C   0  0  0  0  0  0  0  0  0  0  0  0
  189.0600  177.0570  143.8160 C   0  0  0  0  0  0  0  0  0  0  0  0
  189.5720  178.1310  146.0440 C   0  0  0  0  0  3  0  0  0  0  0  0
  187.1010  178.3030  148.7630 F   0  0  0  0  0  0  0  0  0  0  0  0
  187.6520  178.0220  147.5590 C   0  0  0  0  0  0  0  0  0  0  0  0
  188.9820  178.4130  147.2880 C   0  0  0  0  0  3  0  0  0  0  0  0
  186.9760  176.5050  144.3110 O   0  0  0  0  0  0  0  0  0  0  0  0
  191.5140  175.5480  144.3710 C   0  0  0  0  0  2  0  0  0  0  0  0
  191.9860  176.1650  145.6730 C   0  0  0  0  0  2  0  0  0  0  0  0
  192.3510  175.1600  146.5730 O   0  0  0  0  0  1  0  0  0  0  0  0
  2  3  1  0  0  0  0
  2 22  1  1  0  0  0
  2  1  1  0  0  0  0
  3  1  1  0  0  0  0
  3 28  1  1  0  0  0
  4 10  1  6  0  0  0
  4 15  1  0  0  0  0
  5 10  1  0  0  0  0
  7  9  2  0  0  0  0
  9  4  1  0  0  0  0
  9 12  1  0  0  0  0
 10 14  2  0  0  0  0
 11  6  1  6  0  0  0
 11  2  1  0  0  0  0
 12  6  1  0  0  0  0
 13  5  2  0  0  0  0
 13  7  1  0  0  0  0
 15  8  1  6  0  0  0
 15 11  1  0  0  0  0
 16 17  1  0  0  0  0
 17 13  1  0  0  0  0
 18 22  2  0  0  0  0
 18 27  1  0  0  0  0
 19 20  1  0  0  0  0
 20 25  2  0  0  0  0
 21 19  2  0  0  0  0
 21 23  1  0  0  0  0
 22 21  1  0  0  0  0
 23 26  2  0  0  0  0
 25 24  1  0  0  0  0
 26 25  1  0  0  0  0
 27 19  1  0  0  0  0
 28 29  1  0  0  0  0
 29 30  1  0  0  0  0
M  END
>  <MODEL>
7

>  <REMARK>
 VINA RESULT:      -7.9      4.469      8.444
  Name = 
  5 active torsions:
  status: ('A' for Active; 'I' for Inactive)
    1  A    between atoms: O_13  and  C_20
    2  A    between atoms: N_15  and  C_22
    3  A    between atoms: C_16  and  C_22
    4  A    between atoms: C_24  and  C_27
    5  A    between atoms: C_25  and  C_27
                            x       y       z     vdW  Elec       q    Type
                         _______ _______ _______ _____ _____    ______ ____

>  <TORSDO>
F 5

$$$$
=
 OpenBabel10232408213D

 30 34  0  0  1  0  0  0  0  0999 V2000
  190.6540  175.7520  139.5020 C   0  0  0  0  0  2  0  0  0  0  0  0
  189.9320  177.0200  139.9420 C   0  0  2  0  0  0  0  0  0  0  0  0
  191.4580  176.9150  140.0760 C   0  0  2  0  0  3  0  0  0  0  0  0
  189.5500  177.9500  143.5200 C   0  0  1  0  0  3  0  0  0  0  0  0
  189.5420  177.7060  146.0580 N   0  0  0  0  0  0  0  0  0  0  0  0
  188.1450  178.0290  141.1900 C   0  0  0  0  0  2  0  0  0  0  0  0
  187.4570  177.7440  144.8430 C   0  0  0  0  0  3  0  0  0  0  0  0
  190.1070  175.5370  142.9520 C   0  0  0  0  0  1  0  0  0  0  0  0
  188.0520  177.8820  143.6570 C   0  0  0  0  0  0  0  0  0  0  0  0
  190.2810  177.8160  144.8330 C   0  0  0  0  0  0  0  0  0  0  0  0
  189.1700  176.9700  141.2080 N   0  0  2  0  0  0  0  0  0  0  0  0
  187.2290  177.9210  142.4100 C   0  0  0  0  0  2  0  0  0  0  0  0
  188.2430  177.6670  146.0950 C   0  0  0  0  0  0  0  0  0  0  0  0
  191.5650  177.9380  144.8730 N   0  0  0  0  0  2  0  0  0  0  0  0
  190.0230  176.9650  142.4270 C   0  0  1  0  0  3  0  0  0  0  0  0
  188.2390  177.8990  148.5540 C   0  0  0  0  0  1  0  0  0  0  0  0
  187.6100  177.5410  147.3330 O   0  0  0  0  0  0  0  0  0  0  0  0
  189.3580  179.1700  138.6150 C   0  0  0  0  0  3  0  0  0  0  0  0
  187.9850  178.3990  137.1700 C   0  0  0  0  0  0  0  0  0  0  0  0
  187.0570  178.2840  136.1370 C   0  0  0  0  0  3  0  0  0  0  0  0
  188.3980  177.3170  137.8920 C   0  0  0  0  0  0  0  0  0  0  0  0
  189.2950  177.7930  138.8200 C   0  0  0  0  0  0  0  0  0  0  0  0
  187.9020  176.0350  137.6580 C   0  0  0  0  0  3  0  0  0  0  0  0
  185.6320  176.8400  134.8780 F   0  0  0  0  0  0  0  0  0  0  0  0
  186.5410  177.0020  135.8680 C   0  0  0  0  0  0  0  0  0  0  0  0
  186.9590  175.8870  136.6260 C   0  0  0  0  0  3  0  0  0  0  0  0
  188.5660  179.4910  137.6050 O   0  0  0  0  0  0  0  0  0  0  0  0
  192.2190  177.5970  138.9450 C   0  0  0  0  0  2  0  0  0  0  0  0
  192.9300  176.5660  138.0900 C   0  0  0  0  0  2  0  0  0  0  0  0
  194.1020  176.1460  138.7230 O   0  0  0  0  0  1  0  0  0  0  0  0
  1  2  1  0  0  0  0
  1  3  1  0  0  0  0
  2 22  1  6  0  0  0
  2  3  1  0  0  0  0
  2 11  1  0  0  0  0
  3 28  1  6  0  0  0
  4  9  1  1  0  0  0
  4 10  1  0  0  0  0
  5 13  2  0  0  0  0
  6 12  1  0  0  0  0
  7 13  1  0  0  0  0
  9  7  2  0  0  0  0
 10 14  2  0  0  0  0
 10  5  1  0  0  0  0
 11  6  1  1  0  0  0
 11 15  1  0  0  0  0
 12  9  1  0  0  0  0
 13 17  1  0  0  0  0
 15  8  1  1  0  0  0
 15  4  1  0  0  0  0
 17 16  1  0  0  0  0
 18 22  2  0  0  0  0
 19 27  1  0  0  0  0
 19 21  1  0  0  0  0
 20 19  2  0  0  0  0
 21 22  1  0  0  0  0
 23 21  2  0  0  0  0
 24 25  1  0  0  0  0
 25 20  1  0  0  0  0
 25 26  2  0  0  0  0
 26 23  1  0  0  0  0
 27 18  1  0  0  0  0
 29 30  1  0  0  0  0
 29 28  1  0  0  0  0
M  END
>  <MODEL>
8

>  <REMARK>
 VINA RESULT:      -7.8      3.952      6.150
  Name = 
  5 active torsions:
  status: ('A' for Active; 'I' for Inactive)
    1  A    between atoms: O_13  and  C_20
    2  A    between atoms: N_15  and  C_22
    3  A    between atoms: C_16  and  C_22
    4  A    between atoms: C_24  and  C_27
    5  A    between atoms: C_25  and  C_27
                            x       y       z     vdW  Elec       q    Type
                         _______ _______ _______ _____ _____    ______ ____

>  <TORSDO>
F 5

$$$$
=
 OpenBabel10232408213D

 30 34  0  0  1  0  0  0  0  0999 V2000
  189.3310  178.7000  137.2900 C   0  0  0  0  0  2  0  0  0  0  0  0
  189.3380  177.5700  138.3110 C   0  0  2  0  0  0  0  0  0  0  0  0
  188.0410  178.3340  138.0140 C   0  0  2  0  0  3  0  0  0  0  0  0
  189.8910  176.6500  141.8700 C   0  0  1  0  0  3  0  0  0  0  0  0
  189.6840  176.7230  144.4100 N   0  0  0  0  0  0  0  0  0  0  0  0
  191.3190  177.2750  139.6370 C   0  0  0  0  0  2  0  0  0  0  0  0
  191.6650  177.5860  143.3370 C   0  0  0  0  0  3  0  0  0  0  0  0
  188.4480  178.6770  141.3570 C   0  0  0  0  0  1  0  0  0  0  0  0
  191.2310  177.2970  142.1090 C   0  0  0  0  0  0  0  0  0  0  0  0
  189.1080  176.4050  143.1350 C   0  0  0  0  0  0  0  0  0  0  0  0
  189.9570  177.8400  139.6270 N   0  0  2  0  0  0  0  0  0  0  0  0
  192.0590  177.6620  140.9190 C   0  0  0  0  0  2  0  0  0  0  0  0
  190.8570  177.2690  144.5350 C   0  0  0  0  0  0  0  0  0  0  0  0
  187.9780  175.7830  143.0850 N   0  0  0  0  0  2  0  0  0  0  0  0
  189.1170  177.4340  140.7850 C   0  0  1  0  0  3  0  0  0  0  0  0
  191.6070  176.5510  146.7770 C   0  0  0  0  0  1  0  0  0  0  0  0
  191.3290  177.5600  145.8160 O   0  0  0  0  0  0  0  0  0  0  0  0
  188.8470  175.0530  137.9450 C   0  0  0  0  0  3  0  0  0  0  0  0
  190.5680  174.4630  136.8240 C   0  0  0  0  0  0  0  0  0  0  0  0
  191.5260  173.7180  136.1390 C   0  0  0  0  0  3  0  0  0  0  0  0
  190.7040  175.8070  137.0200 C   0  0  0  0  0  0  0  0  0  0  0  0
  189.5970  176.2080  137.7290 C   0  0  0  0  0  0  0  0  0  0  0  0
  191.8190  176.5130  136.5680 C   0  0  0  0  0  3  0  0  0  0  0  0
  193.6230  173.7200  134.9960 F   0  0  0  0  0  0  0  0  0  0  0  0
  192.6610  174.4010  135.6620 C   0  0  0  0  0  0  0  0  0  0  0  0
  192.8070  175.7890  135.8790 C   0  0  0  0  0  3  0  0  0  0  0  0
  189.4600  174.0290  137.3730 O   0  0  0  0  0  0  0  0  0  0  0  0
  187.1130  177.6120  137.0440 C   0  0  0  0  0  2  0  0  0  0  0  0
  187.2540  178.1920  135.6500 C   0  0  0  0  0  2  0  0  0  0  0  0
  187.2760  177.1640  134.7050 O   0  0  0  0  0  1  0  0  0  0  0  0
  1  3  1  0  0  0  0
  1  2  1  0  0  0  0
  2 22  1  6  0  0  0
  2 11  1  0  0  0  0
  3 28  1  6  0  0  0
  3  2  1  0  0  0  0
  4  9  1  1  0  0  0
  4 10  1  0  0  0  0
  5 13  2  0  0  0  0
  6 12  1  0  0  0  0
  7 13  1  0  0  0  0
  9  7  2  0  0  0  0
 10  5  1  0  0  0  0
 11  6  1  6  0  0  0
 11 15  1  0  0  0  0
 12  9  1  0  0  0  0
 13 17  1  0  0  0  0
 14 10  2  0  0  0  0
 15  8  1  1  0  0  0
 15  4  1  0  0  0  0
 17 16  1  0  0  0  0
 19 21  1  0  0  0  0
 19 27  1  0  0  0  0
 20 19  2  0  0  0  0
 21 22  1  0  0  0  0
 22 18  2  0  0  0  0
 23 21  2  0  0  0  0
 24 25  1  0  0  0  0
 25 26  2  0  0  0  0
 25 20  1  0  0  0  0
 26 23  1  0  0  0  0
 27 18  1  0  0  0  0
 29 28  1  0  0  0  0
 30 29  1  0  0  0  0
M  END
>  <MODEL>
9

>  <REMARK>
 VINA RESULT:      -7.6      5.484      7.261
  Name = 
  5 active torsions:
  status: ('A' for Active; 'I' for Inactive)
    1  A    between atoms: O_13  and  C_20
    2  A    between atoms: N_15  and  C_22
    3  A    between atoms: C_16  and  C_22
    4  A    between atoms: C_24  and  C_27
    5  A    between atoms: C_25  and  C_27
                            x       y       z     vdW  Elec       q    Type
                         _______ _______ _______ _____ _____    ______ ____

>  <TORSDO>
F 5

$$$$
