=
 OpenBabel10232409213D

 60 71  0  0  1  0  0  0  0  0999 V2000
  189.2800  177.9900  140.7420 N   0  0  0  0  0  0  0  0  0  0  0  0
  186.7370  178.1830  141.2700 C   0  0  1  0  0  3  0  0  0  0  0  0
  188.3650  180.1200  141.5360 C   0  0  0  0  0  1  0  0  0  0  0  0
  188.2020  178.6040  141.5520 C   0  0  2  0  0  0  0  0  0  0  0  0
  184.8280  178.6200  139.9600 C   0  0  2  0  0  3  0  0  0  0  0  0
  190.0580  175.9370  142.0710 C   0  0  0  0  0  1  0  0  0  0  0  0
  185.4150  178.0950  143.3260 C   0  0  1  0  0  3  0  0  0  0  0  0
  186.8420  178.3900  145.4550 N   0  0  0  0  0  0  0  0  0  0  0  0
  184.6450  179.2380  141.3240 C   0  0  0  0  0  2  0  0  0  0  0  0
  188.7570  178.0390  142.8610 C   0  0  1  0  0  3  0  0  0  0  0  0
  185.8150  178.9200  142.1550 N   0  0  2  0  0  0  0  0  0  0  0  0
  187.8580  176.9810  143.5180 C   0  0  0  0  0  2  0  0  0  0  0  0
  186.3090  178.4460  139.8430 C   0  0  0  0  0  2  0  0  0  0  0  0
  186.6440  177.6420  144.1850 C   0  0  2  0  0  0  0  0  0  0  0  0
  189.8730  177.4640  141.9910 C   0  0  2  0  0  3  0  0  0  0  0  0
  186.3250  177.0070  145.4570 C   0  0  0  0  0  2  0  0  0  0  0  0
  182.9410  179.0970  138.4730 C   0  0  0  0  0  2  0  0  0  0  0  0
  184.3250  179.4890  138.8170 C   0  0  1  0  0  3  0  0  0  0  0  0
  183.2120  180.2570  139.2130 O   0  0  0  0  0  0  0  0  0  0  0  0
  183.0840  178.6220  144.0470 C   0  0  0  0  0  2  0  0  0  0  0  0
  184.3920  178.8130  144.1870 C   0  0  0  0  0  3  0  0  0  0  0  0
  188.8560  176.9430  139.8050 C   0  0  0  0  0  2  0  0  0  0  0  0
  191.7880  175.7400  137.5100 C   0  0  2  0  0  0  0  0  0  0  0  0
  189.6050  176.4340  136.4200 C   0  0  0  0  0  2  0  0  0  0  0  0
  189.6640  175.7740  137.7890 C   0  0  1  0  0  0  0  0  0  0  0  0
  190.9210  176.1020  138.6840 C   0  0  2  0  0  0  0  0  0  0  0  0
  191.9520  177.0240  138.1650 N   0  0  0  0  0  2  0  0  0  0  0  0
  189.7530  177.0260  138.5850 C   0  0  2  0  0  3  0  0  0  0  0  0
  190.6090  175.3660  136.6630 C   0  0  2  0  0  3  0  0  0  0  0  0
  192.7140  174.6930  137.9100 N   0  0  0  0  0  2  0  0  0  0  0  0
  193.6170  174.4990  136.7780 C   0  0  2  0  0  3  0  0  0  0  0  0
  193.3580  170.8850  135.2830 C   0  0  0  0  0  2  0  0  0  0  0  0
  194.8270  172.3870  137.2080 C   0  0  0  0  0  3  0  0  0  0  0  0
  192.8950  172.2970  135.6380 C   0  0  0  0  0  2  0  0  0  0  0  0
  193.8800  173.0410  136.5020 C   0  0  0  0  0  0  0  0  0  0  0  0
  194.1830  168.8560  136.2190 O   0  0  0  0  0  1  0  0  0  0  0  0
  195.0840  170.9070  137.0610 C   0  0  1  0  0  3  0  0  0  0  0  0
  195.4640  170.3870  138.2820 F   0  0  0  0  0  0  0  0  0  0  0  0
  193.8530  170.1750  136.5330 C   0  0  1  0  0  3  0  0  0  0  0  0
  194.8360  175.2990  136.9190 N   0  0  0  0  0  2  0  0  0  0  0  0
  196.2680  176.6080  135.7430 N   0  0  0  0  0  2  0  0  0  0  0  0
  196.8890  175.3470  135.9500 C   0  0  1  0  0  3  0  0  0  0  0  0
  195.4940  175.3990  135.6780 N   0  0  0  0  0  0  0  0  0  0  0  0
  197.6330  174.9930  134.7490 N   0  0  0  0  0  2  0  0  0  0  0  0
  198.1970  171.8890  135.1680 C   0  0  0  0  0  2  0  0  0  0  0  0
  199.0220  172.9400  134.4390 C   0  0  0  0  0  2  0  0  0  0  0  0
  199.5000  172.8760  137.1560 C   0  0  0  0  0  2  0  0  0  0  0  0
  198.9420  174.2160  136.6640 C   0  0  0  0  0  2  0  0  0  0  0  0
  198.6870  171.6890  136.6150 C   0  0  0  0  0  2  0  0  0  0  0  0
  198.8810  174.3150  135.1250 C   0  0  0  0  0  3  0  0  0  0  0  0
  188.2160  178.3250  145.9500 C   0  0  0  0  0  2  0  0  0  0  0  0
  188.2200  177.6580  147.3140 C   0  0  0  0  0  2  0  0  0  0  0  0
  189.2460  176.5270  147.3910 C   0  0  0  0  0  2  0  0  0  0  0  0
  190.6680  176.9910  147.0620 C   0  0  1  0  0  3  0  0  0  0  0  0
  192.3690  175.3020  146.7260 O   0  0  0  0  0  1  0  0  0  0  0  0
  192.6260  176.7990  148.4370 O   0  0  0  0  0  1  0  0  0  0  0  0
  191.7040  176.0570  147.6970 C   0  0  0  0  0  3  0  0  0  0  0  0
  190.8810  177.1570  145.5550 C   0  0  0  0  0  2  0  0  0  0  0  0
  192.1540  178.3670  144.2100 C   0  0  0  0  0  1  0  0  0  0  0  0
  191.2200  178.4770  145.2410 O   0  0  0  0  0  0  0  0  0  0  0  0
  1  4  1  0  0  0  0
  1 15  1  0  0  0  0
  2 13  1  6  0  0  0
  2  4  1  0  0  0  0
  2 11  1  0  0  0  0
  4  3  1  6  0  0  0
  4 10  1  0  0  0  0
  5 13  1  6  0  0  0
  5  9  1  0  0  0  0
  7 14  1  0  0  0  0
  7 21  1  1  0  0  0
  8 16  1  0  0  0  0
  8 51  1  0  0  0  0
 10 12  1  6  0  0  0
 11  9  1  6  0  0  0
 11  7  1  0  0  0  0
 14 12  1  6  0  0  0
 14  8  1  0  0  0  0
 14 16  1  0  0  0  0
 15  6  1  6  0  0  0
 15 10  1  0  0  0  0
 17 19  1  0  0  0  0
 18 17  1  6  0  0  0
 18 19  1  0  0  0  0
 18  5  1  0  0  0  0
 20 21  2  0  0  0  0
 22  1  1  0  0  0  0
 23 30  1  1  0  0  0
 23 27  1  0  0  0  0
 23 26  1  0  0  0  0
 25 24  1  6  0  0  0
 25 28  1  0  0  0  0
 25 26  1  0  0  0  0
 26 27  1  6  0  0  0
 28 26  1  0  0  0  0
 28 22  1  1  0  0  0
 29 24  1  6  0  0  0
 29 23  1  0  0  0  0
 29 25  1  0  0  0  0
 31 40  1  1  0  0  0
 31 30  1  0  0  0  0
 32 34  1  0  0  0  0
 32 39  1  0  0  0  0
 34 35  1  0  0  0  0
 35 31  1  0  0  0  0
 35 33  2  0  0  0  0
 37 33  1  0  0  0  0
 37 38  1  1  0  0  0
 39 36  1  6  0  0  0
 39 37  1  0  0  0  0
 41 42  1  0  0  0  0
 42 44  1  6  0  0  0
 43 41  1  0  0  0  0
 43 42  1  0  0  0  0
 43 40  1  0  0  0  0
 44 50  1  0  0  0  0
 45 49  1  0  0  0  0
 46 50  1  0  0  0  0
 46 45  1  0  0  0  0
 48 47  1  0  0  0  0
 49 47  1  0  0  0  0
 50 48  1  0  0  0  0
 51 52  1  0  0  0  0
 52 53  1  0  0  0  0
 54 58  1  6  0  0  0
 54 53  1  0  0  0  0
 54 57  1  0  0  0  0
 55 57  1  0  0  0  0
 57 56  1  0  0  0  0
 59 60  1  0  0  0  0
 60 58  1  0  0  0  0
M  END
>  <MODEL>
1

>  <REMARK>
 VINA RESULT:      -6.5      0.000      0.000
  Name = 
  18 active torsions:
  status: ('A' for Active; 'I' for Inactive)
    1  A    between atoms: N_1  and  C_28
    2  A    between atoms: C_3  and  C_29
    3  A    between atoms: C_3  and  C_38
    4  A    between atoms: C_3  and  C_47
    5  A    between atoms: N_7  and  C_36
    6  A    between atoms: N_7  and  C_53
    7  A    between atoms: C_10  and  C_11
    8  A    between atoms: C_10  and  C_47
    9  A    between atoms: C_11  and  N_25
   10  A    between atoms: C_15  and  N_30
   11  A    between atoms: C_17  and  C_58
   12  A    between atoms: C_20  and  C_35
   13  A    between atoms: C_21  and  C_39
   14  A    between atoms: C_28  and  C_56
   15  A    between atoms: C_29  and  O_51
   16  A    between atoms: N_30  and  C_35
   17  A    between atoms: C_35  and  N_42
   18  A    between atoms: N_42  and  N_55
                            x       y       z     vdW  Elec       q    Type
                         _______ _______ _______ _____ _____    ______ ____

>  <TORSDO>
F 18

$$$$
=
 OpenBabel10232409213D

 60 71  0  0  1  0  0  0  0  0999 V2000
  189.1020  178.0910  140.7240 N   0  0  0  0  0  0  0  0  0  0  0  0
  186.5820  178.2420  141.3640 C   0  0  1  0  0  3  0  0  0  0  0  0
  188.1970  180.1930  141.6000 C   0  0  0  0  0  1  0  0  0  0  0  0
  188.0530  178.6750  141.5910 C   0  0  2  0  0  0  0  0  0  0  0  0
  184.6130  178.6810  140.1470 C   0  0  2  0  0  3  0  0  0  0  0  0
  189.9610  176.0220  141.9740 C   0  0  0  0  0  1  0  0  0  0  0  0
  185.3520  178.0950  143.4730 C   0  0  1  0  0  3  0  0  0  0  0  0
  186.8660  178.3650  145.5440 N   0  0  0  0  0  0  0  0  0  0  0  0
  184.4820  179.2690  141.5300 C   0  0  0  0  0  2  0  0  0  0  0  0
  188.6710  178.0910  142.8630 C   0  0  1  0  0  3  0  0  0  0  0  0
  185.6910  178.9490  142.3030 N   0  0  2  0  0  0  0  0  0  0  0  0
  187.8140  177.0090  143.5370 C   0  0  0  0  0  2  0  0  0  0  0  0
  186.0900  178.5280  139.9630 C   0  0  0  0  0  2  0  0  0  0  0  0
  186.6220  177.6400  144.2690 C   0  0  2  0  0  0  0  0  0  0  0  0
  189.7540  177.5480  141.9340 C   0  0  2  0  0  3  0  0  0  0  0  0
  186.3660  176.9760  145.5400 C   0  0  0  0  0  2  0  0  0  0  0  0
  182.8490  178.9270  138.4650 C   0  0  0  0  0  2  0  0  0  0  0  0
  184.0500  179.5660  139.0450 C   0  0  1  0  0  3  0  0  0  0  0  0
  182.7480  180.0030  139.3580 O   0  0  0  0  0  0  0  0  0  0  0  0
  183.0470  178.5880  144.2960 C   0  0  0  0  0  2  0  0  0  0  0  0
  184.3580  178.7830  144.3920 C   0  0  0  0  0  3  0  0  0  0  0  0
  188.6500  177.0580  139.7830 C   0  0  0  0  0  2  0  0  0  0  0  0
  189.8320  176.3350  136.1240 C   0  0  2  0  0  0  0  0  0  0  0  0
  188.1370  178.1830  136.5060 C   0  0  0  0  0  2  0  0  0  0  0  0
  188.1880  176.9290  137.3650 C   0  0  1  0  0  0  0  0  0  0  0  0
  189.6120  176.2940  137.6110 C   0  0  2  0  0  0  0  0  0  0  0  0
  190.7990  176.9410  137.0180 N   0  0  0  0  0  2  0  0  0  0  0  0
  189.1150  177.4610  138.3970 C   0  0  2  0  0  3  0  0  0  0  0  0
  188.4600  176.8830  135.8640 C   0  0  2  0  0  3  0  0  0  0  0  0
  190.1430  174.9950  135.6540 N   0  0  0  0  0  2  0  0  0  0  0  0
  190.6000  174.2520  136.8260 C   0  0  2  0  0  3  0  0  0  0  0  0
  193.6940  172.2540  135.4870 C   0  0  0  0  0  2  0  0  0  0  0  0
  192.9710  174.1220  137.5130 C   0  0  0  0  0  3  0  0  0  0  0  0
  192.2180  172.5770  135.7100 C   0  0  0  0  0  2  0  0  0  0  0  0
  192.0020  173.7280  136.6590 C   0  0  0  0  0  0  0  0  0  0  0  0
  195.7390  171.7980  136.6210 O   0  0  0  0  0  1  0  0  0  0  0  0
  194.3740  173.5700  137.4730 C   0  0  1  0  0  3  0  0  0  0  0  0
  194.8780  173.5110  138.7570 F   0  0  0  0  0  0  0  0  0  0  0  0
  194.4150  172.1900  136.8240 C   0  0  1  0  0  3  0  0  0  0  0  0
  189.6320  173.2250  137.2220 N   0  0  0  0  0  2  0  0  0  0  0  0
  187.9040  171.8870  136.6130 N   0  0  0  0  0  2  0  0  0  0  0  0
  187.4560  173.2350  136.5710 C   0  0  1  0  0  3  0  0  0  0  0  0
  188.7770  172.9270  136.1430 N   0  0  0  0  0  0  0  0  0  0  0  0
  186.5710  173.3950  135.4260 N   0  0  0  0  0  2  0  0  0  0  0  0
  184.9700  176.0580  134.7320 C   0  0  0  0  0  2  0  0  0  0  0  0
  184.4840  174.6160  134.7970 C   0  0  0  0  0  2  0  0  0  0  0  0
  184.4980  175.8700  137.2550 C   0  0  0  0  0  2  0  0  0  0  0  0
  185.4210  174.6480  137.1860 C   0  0  0  0  0  2  0  0  0  0  0  0
  184.7010  176.8040  136.0520 C   0  0  0  0  0  2  0  0  0  0  0  0
  185.2460  173.8330  135.8860 C   0  0  0  0  0  3  0  0  0  0  0  0
  188.2610  178.3070  145.9780 C   0  0  0  0  0  2  0  0  0  0  0  0
  188.3340  177.5980  147.3190 C   0  0  0  0  0  2  0  0  0  0  0  0
  189.3350  176.4430  147.2980 C   0  0  0  0  0  2  0  0  0  0  0  0
  190.7650  176.9020  146.9980 C   0  0  1  0  0  3  0  0  0  0  0  0
  192.4570  175.1930  146.7130 O   0  0  0  0  0  1  0  0  0  0  0  0
  192.7020  176.7150  148.4030 O   0  0  0  0  0  1  0  0  0  0  0  0
  191.7850  175.9690  147.6620 C   0  0  0  0  0  3  0  0  0  0  0  0
  191.0120  177.0580  145.4950 C   0  0  0  0  0  2  0  0  0  0  0  0
  191.6270  178.8530  144.3590 C   0  0  0  0  0  1  0  0  0  0  0  0
  192.1060  177.8950  145.2530 O   0  0  0  0  0  0  0  0  0  0  0  0
  1  4  1  0  0  0  0
  1 15  1  0  0  0  0
  2 13  1  6  0  0  0
  2  4  1  0  0  0  0
  2 11  1  0  0  0  0
  4  3  1  1  0  0  0
  4 10  1  0  0  0  0
  5 13  1  6  0  0  0
  5  9  1  0  0  0  0
  7 14  1  0  0  0  0
  7 21  1  1  0  0  0
  8 51  1  0  0  0  0
 10 12  1  6  0  0  0
 11  9  1  6  0  0  0
 11  7  1  0  0  0  0
 14 12  1  6  0  0  0
 14 16  1  0  0  0  0
 14  8  1  0  0  0  0
 15  6  1  6  0  0  0
 15 10  1  0  0  0  0
 16  8  1  0  0  0  0
 17 19  1  0  0  0  0
 18 17  1  6  0  0  0
 18 19  1  0  0  0  0
 18  5  1  0  0  0  0
 20 21  2  0  0  0  0
 22  1  1  0  0  0  0
 23 30  1  6  0  0  0
 23 27  1  0  0  0  0
 23 26  1  0  0  0  0
 25 24  1  6  0  0  0
 25 26  1  0  0  0  0
 25 28  1  0  0  0  0
 26 27  1  6  0  0  0
 26 28  1  0  0  0  0
 28 22  1  1  0  0  0
 29 23  1  0  0  0  0
 29 24  1  1  0  0  0
 29 25  1  0  0  0  0
 31 30  1  6  0  0  0
 31 40  1  0  0  0  0
 32 34  1  0  0  0  0
 32 39  1  0  0  0  0
 34 35  1  0  0  0  0
 35 31  1  0  0  0  0
 35 33  2  0  0  0  0
 37 33  1  0  0  0  0
 37 38  1  1  0  0  0
 39 36  1  6  0  0  0
 39 37  1  0  0  0  0
 42 44  1  6  0  0  0
 42 41  1  0  0  0  0
 43 42  1  0  0  0  0
 43 41  1  0  0  0  0
 43 40  1  0  0  0  0
 44 50  1  0  0  0  0
 45 46  1  0  0  0  0
 45 49  1  0  0  0  0
 46 50  1  0  0  0  0
 48 47  1  0  0  0  0
 49 47  1  0  0  0  0
 50 48  1  0  0  0  0
 51 52  1  0  0  0  0
 53 52  1  0  0  0  0
 54 58  1  6  0  0  0
 54 53  1  0  0  0  0
 54 57  1  0  0  0  0
 55 57  1  0  0  0  0
 57 56  1  0  0  0  0
 59 60  1  0  0  0  0
 60 58  1  0  0  0  0
M  END
>  <MODEL>
2

>  <REMARK>
 VINA RESULT:      -6.5      2.380      5.366
  Name = 
  18 active torsions:
  status: ('A' for Active; 'I' for Inactive)
    1  A    between atoms: N_1  and  C_28
    2  A    between atoms: C_3  and  C_29
    3  A    between atoms: C_3  and  C_38
    4  A    between atoms: C_3  and  C_47
    5  A    between atoms: N_7  and  C_36
    6  A    between atoms: N_7  and  C_53
    7  A    between atoms: C_10  and  C_11
    8  A    between atoms: C_10  and  C_47
    9  A    between atoms: C_11  and  N_25
   10  A    between atoms: C_15  and  N_30
   11  A    between atoms: C_17  and  C_58
   12  A    between atoms: C_20  and  C_35
   13  A    between atoms: C_21  and  C_39
   14  A    between atoms: C_28  and  C_56
   15  A    between atoms: C_29  and  O_51
   16  A    between atoms: N_30  and  C_35
   17  A    between atoms: C_35  and  N_42
   18  A    between atoms: N_42  and  N_55
                            x       y       z     vdW  Elec       q    Type
                         _______ _______ _______ _____ _____    ______ ____

>  <TORSDO>
F 18

$$$$
=
 OpenBabel10232409213D

 60 71  0  0  1  0  0  0  0  0999 V2000
  189.1310  178.1340  140.7340 N   0  0  0  0  0  0  0  0  0  0  0  0
  186.6510  178.2190  141.5250 C   0  0  1  0  0  3  0  0  0  0  0  0
  188.2310  180.2070  141.6800 C   0  0  0  0  0  1  0  0  0  0  0  0
  188.1230  178.6870  141.6670 C   0  0  2  0  0  0  0  0  0  0  0  0
  184.6030  178.6190  140.4330 C   0  0  2  0  0  3  0  0  0  0  0  0
  190.1130  176.0780  141.9130 C   0  0  0  0  0  1  0  0  0  0  0  0
  185.5540  178.0280  143.7030 C   0  0  1  0  0  3  0  0  0  0  0  0
  187.1830  178.3210  145.6820 N   0  0  0  0  0  0  0  0  0  0  0  0
  184.5410  179.1940  141.8260 C   0  0  0  0  0  2  0  0  0  0  0  0
  188.8290  178.1090  142.8950 C   0  0  1  0  0  3  0  0  0  0  0  0
  185.8020  178.8980  142.5220 N   0  0  2  0  0  0  0  0  0  0  0  0
  188.0410  177.0020  143.6100 C   0  0  0  0  0  2  0  0  0  0  0  0
  186.0690  178.5030  140.1590 C   0  0  0  0  0  2  0  0  0  0  0  0
  186.8800  177.5990  144.4170 C   0  0  2  0  0  0  0  0  0  0  0  0
  189.8680  177.5990  141.8980 C   0  0  2  0  0  3  0  0  0  0  0  0
  186.7170  176.9200  145.6960 C   0  0  0  0  0  2  0  0  0  0  0  0
  183.2280  178.6480  138.4040 C   0  0  0  0  0  2  0  0  0  0  0  0
  183.9540  179.4980  139.3740 C   0  0  1  0  0  3  0  0  0  0  0  0
  182.5510  179.3710  139.3960 O   0  0  0  0  0  0  0  0  0  0  0  0
  183.2880  178.7240  144.4860 C   0  0  0  0  0  2  0  0  0  0  0  0
  184.6020  178.6850  144.6860 C   0  0  0  0  0  3  0  0  0  0  0  0
  188.6480  177.0970  139.8140 C   0  0  0  0  0  2  0  0  0  0  0  0
  190.6170  175.2350  136.9920 C   0  0  2  0  0  0  0  0  0  0  0  0
  189.5490  177.4700  136.4490 C   0  0  0  0  0  2  0  0  0  0  0  0
  188.9400  176.4910  137.4410 C   0  0  1  0  0  0  0  0  0  0  0  0
  189.9470  175.6150  138.2840 C   0  0  2  0  0  0  0  0  0  0  0  0
  191.3980  175.7910  138.0790 N   0  0  0  0  0  2  0  0  0  0  0  0
  189.6200  177.0230  138.6510 C   0  0  2  0  0  3  0  0  0  0  0  0
  189.6350  176.0130  136.1690 C   0  0  2  0  0  3  0  0  0  0  0  0
  190.6260  173.7850  136.8720 N   0  0  0  0  0  2  0  0  0  0  0  0
  190.4490  173.4970  135.4510 C   0  0  2  0  0  3  0  0  0  0  0  0
  186.7830  172.1320  135.2010 C   0  0  0  0  0  2  0  0  0  0  0  0
  189.4830  171.3230  134.7780 C   0  0  0  0  0  3  0  0  0  0  0  0
  187.9160  173.0420  135.6720 C   0  0  0  0  0  2  0  0  0  0  0  0
  189.2730  172.5900  135.1950 C   0  0  0  0  0  0  0  0  0  0  0  0
  186.0760  169.8590  135.1070 O   0  0  0  0  0  1  0  0  0  0  0  0
  188.3670  170.3250  134.5950 C   0  0  1  0  0  3  0  0  0  0  0  0
  188.8270  169.0630  134.9140 F   0  0  0  0  0  0  0  0  0  0  0  0
  187.1530  170.6780  135.4490 C   0  0  1  0  0  3  0  0  0  0  0  0
  191.6950  173.0300  134.8380 N   0  0  0  0  0  2  0  0  0  0  0  0
  193.0730  171.2860  135.2940 N   0  0  0  0  0  2  0  0  0  0  0  0
  193.8560  172.4710  135.2520 C   0  0  1  0  0  3  0  0  0  0  0  0
  192.5560  172.5170  135.8260 N   0  0  0  0  0  0  0  0  0  0  0  0
  194.8740  172.3910  136.2920 N   0  0  0  0  0  2  0  0  0  0  0  0
  197.1310  174.5490  136.9050 C   0  0  0  0  0  2  0  0  0  0  0  0
  195.6610  174.7470  136.5630 C   0  0  0  0  0  2  0  0  0  0  0  0
  196.0990  174.2720  139.2460 C   0  0  0  0  0  2  0  0  0  0  0  0
  195.2240  173.2090  138.5710 C   0  0  0  0  0  2  0  0  0  0  0  0
  197.3650  174.5690  138.4270 C   0  0  0  0  0  2  0  0  0  0  0  0
  194.8100  173.5930  137.1340 C   0  0  0  0  0  3  0  0  0  0  0  0
  188.6020  178.2940  146.0310 C   0  0  0  0  0  2  0  0  0  0  0  0
  188.8280  177.2490  147.1100 C   0  0  0  0  0  2  0  0  0  0  0  0
  190.3020  177.1500  147.5060 C   0  0  0  0  0  2  0  0  0  0  0  0
  191.0300  175.9990  146.8060 C   0  0  1  0  0  3  0  0  0  0  0  0
  191.9360  175.6460  144.5890 O   0  0  0  0  0  1  0  0  0  0  0  0
  191.4680  177.7820  145.2600 O   0  0  0  0  0  1  0  0  0  0  0  0
  191.9180  176.5270  145.6740 C   0  0  0  0  0  3  0  0  0  0  0  0
  191.8070  175.1280  147.7970 C   0  0  0  0  0  2  0  0  0  0  0  0
  193.3650  175.9650  149.1250 C   0  0  0  0  0  1  0  0  0  0  0  0
  193.1570  175.4910  147.8280 O   0  0  0  0  0  0  0  0  0  0  0  0
  1  4  1  0  0  0  0
  1 15  1  0  0  0  0
  2 13  1  6  0  0  0
  2  4  1  0  0  0  0
  2 11  1  0  0  0  0
  4  3  1  1  0  0  0
  4 10  1  0  0  0  0
  5 13  1  6  0  0  0
  5  9  1  0  0  0  0
  7 14  1  0  0  0  0
  7 21  1  1  0  0  0
  8 16  1  0  0  0  0
  8 51  1  0  0  0  0
 10 12  1  6  0  0  0
 11  9  1  6  0  0  0
 11  7  1  0  0  0  0
 14 12  1  6  0  0  0
 14  8  1  0  0  0  0
 14 16  1  0  0  0  0
 15  6  1  6  0  0  0
 15 10  1  0  0  0  0
 17 19  1  0  0  0  0
 18 17  1  6  0  0  0
 18 19  1  0  0  0  0
 18  5  1  0  0  0  0
 20 21  2  0  0  0  0
 22  1  1  0  0  0  0
 23 30  1  6  0  0  0
 23 27  1  0  0  0  0
 23 26  1  0  0  0  0
 25 24  1  6  0  0  0
 25 26  1  0  0  0  0
 25 28  1  0  0  0  0
 26 27  1  6  0  0  0
 26 28  1  0  0  0  0
 28 22  1  1  0  0  0
 29 24  1  1  0  0  0
 29 23  1  0  0  0  0
 29 25  1  0  0  0  0
 31 40  1  1  0  0  0
 31 30  1  0  0  0  0
 32 39  1  0  0  0  0
 32 34  1  0  0  0  0
 33 35  2  0  0  0  0
 35 31  1  0  0  0  0
 35 34  1  0  0  0  0
 37 33  1  0  0  0  0
 37 38  1  1  0  0  0
 37 39  1  0  0  0  0
 39 36  1  6  0  0  0
 40 43  1  0  0  0  0
 41 43  1  0  0  0  0
 42 41  1  0  0  0  0
 42 43  1  0  0  0  0
 42 44  1  1  0  0  0
 44 50  1  0  0  0  0
 45 49  1  0  0  0  0
 46 45  1  0  0  0  0
 46 50  1  0  0  0  0
 48 47  1  0  0  0  0
 49 47  1  0  0  0  0
 50 48  1  0  0  0  0
 51 52  1  0  0  0  0
 52 53  1  0  0  0  0
 54 53  1  1  0  0  0
 54 58  1  0  0  0  0
 55 57  1  0  0  0  0
 56 57  1  0  0  0  0
 57 54  1  0  0  0  0
 58 60  1  0  0  0  0
 60 59  1  0  0  0  0
M  END
>  <MODEL>
3

>  <REMARK>
 VINA RESULT:      -6.0      2.460      3.369
  Name = 
  18 active torsions:
  status: ('A' for Active; 'I' for Inactive)
    1  A    between atoms: N_1  and  C_28
    2  A    between atoms: C_3  and  C_29
    3  A    between atoms: C_3  and  C_38
    4  A    between atoms: C_3  and  C_47
    5  A    between atoms: N_7  and  C_36
    6  A    between atoms: N_7  and  C_53
    7  A    between atoms: C_10  and  C_11
    8  A    between atoms: C_10  and  C_47
    9  A    between atoms: C_11  and  N_25
   10  A    between atoms: C_15  and  N_30
   11  A    between atoms: C_17  and  C_58
   12  A    between atoms: C_20  and  C_35
   13  A    between atoms: C_21  and  C_39
   14  A    between atoms: C_28  and  C_56
   15  A    between atoms: C_29  and  O_51
   16  A    between atoms: N_30  and  C_35
   17  A    between atoms: C_35  and  N_42
   18  A    between atoms: N_42  and  N_55
                            x       y       z     vdW  Elec       q    Type
                         _______ _______ _______ _____ _____    ______ ____

>  <TORSDO>
F 18

$$$$
=
 OpenBabel10232409213D

 60 71  0  0  1  0  0  0  0  0999 V2000
  189.3120  176.6450  141.7300 N   0  0  0  0  0  0  0  0  0  0  0  0
  189.3710  177.2190  144.2700 C   0  0  1  0  0  3  0  0  0  0  0  0
  188.3430  175.0820  143.3490 C   0  0  0  0  0  1  0  0  0  0  0  0
  188.6730  176.5420  143.0620 C   0  0  2  0  0  0  0  0  0  0  0  0
  190.9770  176.9350  145.9690 C   0  0  2  0  0  3  0  0  0  0  0  0
  188.2820  178.7190  140.6260 C   0  0  0  0  0  1  0  0  0  0  0  0
  187.7460  178.1560  145.8390 C   0  0  1  0  0  3  0  0  0  0  0  0
  185.3270  178.0840  144.9470 N   0  0  0  0  0  0  0  0  0  0  0  0
  189.5990  176.7550  146.5560 C   0  0  0  0  0  2  0  0  0  0  0  0
  187.4120  177.2750  142.5990 C   0  0  1  0  0  3  0  0  0  0  0  0
  188.5980  176.9840  145.5040 N   0  0  2  0  0  0  0  0  0  0  0  0
  187.2130  178.6530  143.2480 C   0  0  0  0  0  2  0  0  0  0  0  0
  190.7750  176.7080  144.5050 C   0  0  0  0  0  2  0  0  0  0  0  0
  186.7310  178.5030  144.6980 C   0  0  2  0  0  0  0  0  0  0  0  0
  188.0930  177.3160  141.2320 C   0  0  2  0  0  3  0  0  0  0  0  0
  185.7260  179.5030  145.0300 C   0  0  0  0  0  2  0  0  0  0  0  0
  192.3370  176.2900  147.9030 C   0  0  0  0  0  2  0  0  0  0  0  0
  192.0070  175.9490  146.5020 C   0  0  1  0  0  3  0  0  0  0  0  0
  191.4940  175.2150  147.5890 O   0  0  0  0  0  0  0  0  0  0  0  0
  187.4320  178.5270  148.2880 C   0  0  0  0  0  2  0  0  0  0  0  0
  187.0230  177.9560  147.1590 C   0  0  0  0  0  3  0  0  0  0  0  0
  190.5160  177.4840  141.6630 C   0  0  0  0  0  2  0  0  0  0  0  0
  192.2310  176.4740  138.2950 C   0  0  2  0  0  0  0  0  0  0  0  0
  193.7040  177.0490  140.2780 C   0  0  0  0  0  2  0  0  0  0  0  0
  192.3570  177.7130  140.0380 C   0  0  1  0  0  0  0  0  0  0  0  0
  191.2370  176.8270  139.3660 C   0  0  2  0  0  0  0  0  0  0  0  0
  191.5420  175.4240  139.0200 N   0  0  0  0  0  2  0  0  0  0  0  0
  191.5440  176.7490  140.8240 C   0  0  2  0  0  3  0  0  0  0  0  0
  193.2900  177.3570  138.8850 C   0  0  2  0  0  3  0  0  0  0  0  0
  191.6770  176.8280  136.9980 N   0  0  0  0  0  2  0  0  0  0  0  0
  191.7860  175.6290  136.1700 C   0  0  2  0  0  3  0  0  0  0  0  0
  195.1990  173.8450  135.4460 C   0  0  0  0  0  2  0  0  0  0  0  0
  193.9330  176.3860  135.2080 C   0  0  0  0  0  3  0  0  0  0  0  0
  193.8390  174.0650  136.1060 C   0  0  0  0  0  2  0  0  0  0  0  0
  193.2010  175.3740  135.7210 C   0  0  0  0  0  0  0  0  0  0  0  0
  197.3240  174.8550  135.0730 O   0  0  0  0  0  1  0  0  0  0  0  0
  195.3850  176.2370  134.8270 C   0  0  1  0  0  3  0  0  0  0  0  0
  196.0450  177.4240  135.0680 F   0  0  0  0  0  0  0  0  0  0  0  0
  196.0510  175.0960  135.5910 C   0  0  1  0  0  3  0  0  0  0  0  0
  190.8140  175.6430  135.0740 N   0  0  0  0  0  2  0  0  0  0  0  0
  189.5900  177.4530  134.4620 N   0  0  0  0  0  2  0  0  0  0  0  0
  188.7610  176.3040  134.3630 C   0  0  1  0  0  3  0  0  0  0  0  0
  189.6860  176.4040  135.4380 N   0  0  0  0  0  0  0  0  0  0  0  0
  187.4200  176.6600  134.8070 N   0  0  0  0  0  2  0  0  0  0  0  0
  185.1280  175.8570  136.8650 C   0  0  0  0  0  2  0  0  0  0  0  0
  186.6300  175.6130  136.9330 C   0  0  0  0  0  2  0  0  0  0  0  0
  185.8910  178.1030  137.8640 C   0  0  0  0  0  2  0  0  0  0  0  0
  186.8250  178.1560  136.6500 C   0  0  0  0  0  2  0  0  0  0  0  0
  184.7270  177.1250  137.6430 C   0  0  0  0  0  2  0  0  0  0  0  0
  187.4010  176.7740  136.2710 C   0  0  0  0  0  3  0  0  0  0  0  0
  184.5450  177.9400  143.7200 C   0  0  0  0  0  2  0  0  0  0  0  0
  183.6330  179.1450  143.5670 C   0  0  0  0  0  2  0  0  0  0  0  0
  182.8830  179.1250  142.2350 C   0  0  0  0  0  2  0  0  0  0  0  0
  181.4070  178.7490  142.3900 C   0  0  1  0  0  3  0  0  0  0  0  0
  179.9990  180.5900  143.0910 O   0  0  0  0  0  1  0  0  0  0  0  0
  179.9820  178.6610  144.3200 O   0  0  0  0  0  1  0  0  0  0  0  0
  180.7700  179.5200  143.5530 C   0  0  0  0  0  3  0  0  0  0  0  0
  180.6320  178.9260  141.0820 C   0  0  0  0  0  2  0  0  0  0  0  0
  180.4570  177.0710  139.8890 C   0  0  0  0  0  1  0  0  0  0  0  0
  181.2400  178.2160  140.0420 O   0  0  0  0  0  0  0  0  0  0  0  0
  1  4  1  0  0  0  0
  2 13  1  1  0  0  0
  2 11  1  0  0  0  0
  4  3  1  1  0  0  0
  4  2  1  0  0  0  0
  5 13  1  6  0  0  0
  5 18  1  0  0  0  0
  5  9  1  0  0  0  0
  7 21  1  1  0  0  0
  8 16  1  0  0  0  0
 10  4  1  0  0  0  0
 10 12  1  1  0  0  0
 11  7  1  0  0  0  0
 11  9  1  1  0  0  0
 14 12  1  6  0  0  0
 14  8  1  0  0  0  0
 14 16  1  0  0  0  0
 14  7  1  0  0  0  0
 15  6  1  1  0  0  0
 15  1  1  0  0  0  0
 15 10  1  0  0  0  0
 18 19  1  0  0  0  0
 18 17  1  1  0  0  0
 19 17  1  0  0  0  0
 21 20  2  0  0  0  0
 22  1  1  0  0  0  0
 23 30  1  6  0  0  0
 23 29  1  0  0  0  0
 23 27  1  0  0  0  0
 23 26  1  0  0  0  0
 25 24  1  6  0  0  0
 25 28  1  0  0  0  0
 26 27  1  1  0  0  0
 26 25  1  0  0  0  0
 26 28  1  0  0  0  0
 28 22  1  1  0  0  0
 29 25  1  0  0  0  0
 29 24  1  1  0  0  0
 31 40  1  6  0  0  0
 31 30  1  0  0  0  0
 32 39  1  0  0  0  0
 32 34  1  0  0  0  0
 33 35  2  0  0  0  0
 35 34  1  0  0  0  0
 35 31  1  0  0  0  0
 37 38  1  1  0  0  0
 37 33  1  0  0  0  0
 37 39  1  0  0  0  0
 39 36  1  6  0  0  0
 40 43  1  0  0  0  0
 41 43  1  0  0  0  0
 42 41  1  0  0  0  0
 42 44  1  1  0  0  0
 42 43  1  0  0  0  0
 44 50  1  0  0  0  0
 45 46  1  0  0  0  0
 45 49  1  0  0  0  0
 48 47  1  0  0  0  0
 49 47  1  0  0  0  0
 50 48  1  0  0  0  0
 50 46  1  0  0  0  0
 51  8  1  0  0  0  0
 52 51  1  0  0  0  0
 53 54  1  0  0  0  0
 53 52  1  0  0  0  0
 54 58  1  6  0  0  0
 54 57  1  0  0  0  0
 55 57  1  0  0  0  0
 57 56  1  0  0  0  0
 59 60  1  0  0  0  0
 60 58  1  0  0  0  0
M  END
>  <MODEL>
4

>  <REMARK>
 VINA RESULT:      -5.6      2.784      7.849
  Name = 
  18 active torsions:
  status: ('A' for Active; 'I' for Inactive)
    1  A    between atoms: N_1  and  C_28
    2  A    between atoms: C_3  and  C_29
    3  A    between atoms: C_3  and  C_38
    4  A    between atoms: C_3  and  C_47
    5  A    between atoms: N_7  and  C_36
    6  A    between atoms: N_7  and  C_53
    7  A    between atoms: C_10  and  C_11
    8  A    between atoms: C_10  and  C_47
    9  A    between atoms: C_11  and  N_25
   10  A    between atoms: C_15  and  N_30
   11  A    between atoms: C_17  and  C_58
   12  A    between atoms: C_20  and  C_35
   13  A    between atoms: C_21  and  C_39
   14  A    between atoms: C_28  and  C_56
   15  A    between atoms: C_29  and  O_51
   16  A    between atoms: N_30  and  C_35
   17  A    between atoms: C_35  and  N_42
   18  A    between atoms: N_42  and  N_55
                            x       y       z     vdW  Elec       q    Type
                         _______ _______ _______ _____ _____    ______ ____

>  <TORSDO>
F 18

$$$$
=
 OpenBabel10232409213D

 60 71  0  0  1  0  0  0  0  0999 V2000
  188.8950  176.6940  142.0490 N   0  0  0  0  0  0  0  0  0  0  0  0
  189.1870  177.2570  144.5750 C   0  0  1  0  0  3  0  0  0  0  0  0
  188.0400  175.1440  143.7440 C   0  0  0  0  0  1  0  0  0  0  0  0
  188.3720  176.5990  143.4320 C   0  0  2  0  0  0  0  0  0  0  0  0
  190.9290  176.9360  146.1280 C   0  0  2  0  0  3  0  0  0  0  0  0
  187.8140  178.7910  141.0430 C   0  0  0  0  0  1  0  0  0  0  0  0
  187.7240  178.2210  146.2820 C   0  0  1  0  0  3  0  0  0  0  0  0
  185.2350  178.2000  145.6040 N   0  0  0  0  0  0  0  0  0  0  0  0
  189.6030  176.7810  146.8320 C   0  0  0  0  0  2  0  0  0  0  0  0
  187.0910  177.3580  143.0820 C   0  0  1  0  0  3  0  0  0  0  0  0
  188.5190  177.0330  145.8710 N   0  0  2  0  0  0  0  0  0  0  0  0
  186.9770  178.7370  143.7480 C   0  0  0  0  0  2  0  0  0  0  0  0
  190.5950  176.7180  144.6860 C   0  0  0  0  0  2  0  0  0  0  0  0
  186.6200  178.5920  145.2340 C   0  0  2  0  0  0  0  0  0  0  0  0
  187.6510  177.3900  141.6610 C   0  0  2  0  0  3  0  0  0  0  0  0
  185.6680  179.6110  145.6540 C   0  0  0  0  0  2  0  0  0  0  0  0
  192.4060  176.2300  147.9510 C   0  0  0  0  0  2  0  0  0  0  0  0
  191.9810  175.9280  146.5660 C   0  0  1  0  0  3  0  0  0  0  0  0
  191.5330  175.1700  147.6660 O   0  0  0  0  0  0  0  0  0  0  0  0
  187.8500  178.0230  148.7680 C   0  0  0  0  0  2  0  0  0  0  0  0
  187.1150  178.0310  147.6600 C   0  0  0  0  0  3  0  0  0  0  0  0
  190.1040  177.5080  141.8790 C   0  0  0  0  0  2  0  0  0  0  0  0
  191.6250  176.5030  138.4170 C   0  0  2  0  0  0  0  0  0  0  0  0
  193.2050  176.9340  140.3530 C   0  0  0  0  0  2  0  0  0  0  0  0
  191.8910  177.6810  140.1870 C   0  0  1  0  0  0  0  0  0  0  0  0
  190.6960  176.8810  139.5370 C   0  0  2  0  0  0  0  0  0  0  0  0
  190.9050  175.4740  139.1400 N   0  0  0  0  0  2  0  0  0  0  0  0
  191.0540  176.7410  140.9790 C   0  0  2  0  0  3  0  0  0  0  0  0
  192.7560  177.3070  138.9870 C   0  0  2  0  0  3  0  0  0  0  0  0
  191.0420  176.9280  137.1540 N   0  0  0  0  0  2  0  0  0  0  0  0
  191.5740  176.0220  136.1390 C   0  0  2  0  0  3  0  0  0  0  0  0
  188.1660  174.2180  135.4380 C   0  0  0  0  0  2  0  0  0  0  0  0
  190.9760  173.8150  135.1990 C   0  0  0  0  0  3  0  0  0  0  0  0
  189.1200  175.2200  136.0870 C   0  0  0  0  0  2  0  0  0  0  0  0
  190.5600  174.9980  135.7010 C   0  0  0  0  0  0  0  0  0  0  0  0
  187.7900  171.8930  135.0880 O   0  0  0  0  0  1  0  0  0  0  0  0
  190.0280  172.7020  134.8300 C   0  0  1  0  0  3  0  0  0  0  0  0
  190.6320  171.4860  135.0820 F   0  0  0  0  0  0  0  0  0  0  0  0
  188.7120  172.8090  135.5960 C   0  0  1  0  0  3  0  0  0  0  0  0
  192.8540  175.4420  136.5540 N   0  0  0  0  0  2  0  0  0  0  0  0
  194.6800  176.7370  136.1850 N   0  0  0  0  0  2  0  0  0  0  0  0
  195.0930  175.3770  136.1830 C   0  0  1  0  0  3  0  0  0  0  0  0
  193.8460  175.7260  135.5960 N   0  0  0  0  0  0  0  0  0  0  0  0
  196.1120  175.2030  135.1560 N   0  0  0  0  0  2  0  0  0  0  0  0
  198.7380  173.4560  134.7290 C   0  0  0  0  0  2  0  0  0  0  0  0
  198.5700  174.9690  134.7740 C   0  0  0  0  0  2  0  0  0  0  0  0
  198.8310  173.8300  137.2740 C   0  0  0  0  0  2  0  0  0  0  0  0
  197.4950  174.5520  137.0670 C   0  0  0  0  0  2  0  0  0  0  0  0
  199.1590  172.8930  136.1000 C   0  0  0  0  0  2  0  0  0  0  0  0
  197.4440  175.3620  135.7540 C   0  0  0  0  0  3  0  0  0  0  0  0
  184.3470  178.0760  144.4500 C   0  0  0  0  0  2  0  0  0  0  0  0
  183.3830  179.2500  144.4350 C   0  0  0  0  0  2  0  0  0  0  0  0
  181.9550  178.8090  144.1110 C   0  0  0  0  0  2  0  0  0  0  0  0
  181.6980  178.6880  142.6060 C   0  0  1  0  0  3  0  0  0  0  0  0
  180.2690  180.6000  143.0100 O   0  0  0  0  0  1  0  0  0  0  0  0
  180.5210  179.8470  140.8650 O   0  0  0  0  0  1  0  0  0  0  0  0
  180.4410  179.4700  142.2060 C   0  0  0  0  0  3  0  0  0  0  0  0
  182.9230  179.0950  141.7830 C   0  0  0  0  0  2  0  0  0  0  0  0
  184.3410  178.6090  140.1570 C   0  0  0  0  0  1  0  0  0  0  0  0
  183.1350  178.2010  140.7290 O   0  0  0  0  0  0  0  0  0  0  0  0
  1  4  1  0  0  0  0
  2 13  1  1  0  0  0
  2 11  1  0  0  0  0
  4  3  1  1  0  0  0
  4  2  1  0  0  0  0
  5 13  1  6  0  0  0
  5 18  1  0  0  0  0
  5  9  1  0  0  0  0
  7 21  1  1  0  0  0
  8 16  1  0  0  0  0
 10  4  1  0  0  0  0
 10 12  1  1  0  0  0
 11  7  1  0  0  0  0
 11  9  1  1  0  0  0
 14 12  1  6  0  0  0
 14  8  1  0  0  0  0
 14 16  1  0  0  0  0
 14  7  1  0  0  0  0
 15  6  1  1  0  0  0
 15  1  1  0  0  0  0
 15 10  1  0  0  0  0
 18 19  1  0  0  0  0
 18 17  1  1  0  0  0
 19 17  1  0  0  0  0
 21 20  2  0  0  0  0
 22  1  1  0  0  0  0
 23 30  1  6  0  0  0
 23 29  1  0  0  0  0
 23 27  1  0  0  0  0
 23 26  1  0  0  0  0
 25 24  1  6  0  0  0
 25 28  1  0  0  0  0
 26 27  1  1  0  0  0
 26 25  1  0  0  0  0
 26 28  1  0  0  0  0
 28 22  1  1  0  0  0
 29 25  1  0  0  0  0
 29 24  1  1  0  0  0
 31 40  1  1  0  0  0
 31 30  1  0  0  0  0
 32 39  1  0  0  0  0
 32 34  1  0  0  0  0
 33 35  2  0  0  0  0
 35 34  1  0  0  0  0
 35 31  1  0  0  0  0
 37 38  1  1  0  0  0
 37 33  1  0  0  0  0
 37 39  1  0  0  0  0
 39 36  1  6  0  0  0
 42 44  1  6  0  0  0
 42 41  1  0  0  0  0
 43 42  1  0  0  0  0
 43 41  1  0  0  0  0
 43 40  1  0  0  0  0
 44 50  1  0  0  0  0
 45 46  1  0  0  0  0
 45 49  1  0  0  0  0
 46 50  1  0  0  0  0
 48 47  1  0  0  0  0
 49 47  1  0  0  0  0
 50 48  1  0  0  0  0
 51  8  1  0  0  0  0
 52 51  1  0  0  0  0
 53 52  1  0  0  0  0
 54 58  1  6  0  0  0
 54 53  1  0  0  0  0
 56 57  1  0  0  0  0
 57 54  1  0  0  0  0
 57 55  1  0  0  0  0
 59 60  1  0  0  0  0
 60 58  1  0  0  0  0
M  END
>  <MODEL>
5

>  <REMARK>
 VINA RESULT:      -5.5      2.209      6.172
  Name = 
  18 active torsions:
  status: ('A' for Active; 'I' for Inactive)
    1  A    between atoms: N_1  and  C_28
    2  A    between atoms: C_3  and  C_29
    3  A    between atoms: C_3  and  C_38
    4  A    between atoms: C_3  and  C_47
    5  A    between atoms: N_7  and  C_36
    6  A    between atoms: N_7  and  C_53
    7  A    between atoms: C_10  and  C_11
    8  A    between atoms: C_10  and  C_47
    9  A    between atoms: C_11  and  N_25
   10  A    between atoms: C_15  and  N_30
   11  A    between atoms: C_17  and  C_58
   12  A    between atoms: C_20  and  C_35
   13  A    between atoms: C_21  and  C_39
   14  A    between atoms: C_28  and  C_56
   15  A    between atoms: C_29  and  O_51
   16  A    between atoms: N_30  and  C_35
   17  A    between atoms: C_35  and  N_42
   18  A    between atoms: N_42  and  N_55
                            x       y       z     vdW  Elec       q    Type
                         _______ _______ _______ _____ _____    ______ ____

>  <TORSDO>
F 18

$$$$
=
 OpenBabel10232409213D

 60 71  0  0  1  0  0  0  0  0999 V2000
  189.6680  177.9480  140.8710 N   0  0  0  0  0  0  0  0  0  0  0  0
  187.1120  178.0810  141.3490 C   0  0  1  0  0  3  0  0  0  0  0  0
  188.6780  180.0720  141.5870 C   0  0  0  0  0  1  0  0  0  0  0  0
  188.5590  178.5530  141.6440 C   0  0  2  0  0  0  0  0  0  0  0  0
  185.2150  178.4240  139.9950 C   0  0  2  0  0  3  0  0  0  0  0  0
  190.4820  175.9580  142.2710 C   0  0  0  0  0  1  0  0  0  0  0  0
  185.7570  178.0120  143.3840 C   0  0  1  0  0  3  0  0  0  0  0  0
  187.1360  178.4100  145.5280 N   0  0  0  0  0  0  0  0  0  0  0  0
  184.9900  179.0750  141.3380 C   0  0  0  0  0  2  0  0  0  0  0  0
  189.1060  178.0420  142.9780 C   0  0  1  0  0  3  0  0  0  0  0  0
  186.1540  178.8150  142.1970 N   0  0  2  0  0  0  0  0  0  0  0  0
  188.2270  176.9770  143.6500 C   0  0  0  0  0  2  0  0  0  0  0  0
  186.7020  178.2910  139.9090 C   0  0  0  0  0  2  0  0  0  0  0  0
  186.9820  177.6200  144.2770 C   0  0  2  0  0  0  0  0  0  0  0  0
  190.2540  177.4750  142.1440 C   0  0  2  0  0  3  0  0  0  0  0  0
  186.6600  177.0130  145.5610 C   0  0  0  0  0  2  0  0  0  0  0  0
  183.2290  179.3020  138.8600 C   0  0  0  0  0  2  0  0  0  0  0  0
  184.7070  179.2460  138.8190 C   0  0  1  0  0  3  0  0  0  0  0  0
  184.0160  180.3920  139.2590 O   0  0  0  0  0  0  0  0  0  0  0  0
  183.3980  178.4990  144.0420 C   0  0  0  0  0  2  0  0  0  0  0  0
  184.6980  178.7240  144.2070 C   0  0  0  0  0  3  0  0  0  0  0  0
  189.2920  176.8630  139.9570 C   0  0  0  0  0  2  0  0  0  0  0  0
  191.7770  175.6860  137.1740 C   0  0  2  0  0  0  0  0  0  0  0  0
  192.7180  176.8410  139.2260 C   0  0  0  0  0  2  0  0  0  0  0  0
  191.3560  177.1850  138.6450 C   0  0  1  0  0  0  0  0  0  0  0  0
  190.5480  176.0050  137.9790 C   0  0  2  0  0  0  0  0  0  0  0  0
  191.1370  174.6510  137.9620 N   0  0  0  0  0  2  0  0  0  0  0  0
  190.5700  176.2180  139.4560 C   0  0  2  0  0  3  0  0  0  0  0  0
  192.5430  176.8390  137.7510 C   0  0  2  0  0  3  0  0  0  0  0  0
  191.4390  175.7180  135.7600 N   0  0  0  0  0  2  0  0  0  0  0  0
  191.1060  174.3430  135.3930 C   0  0  2  0  0  3  0  0  0  0  0  0
  193.5610  171.3210  134.9430 C   0  0  0  0  0  2  0  0  0  0  0  0
  193.4420  174.1490  134.6100 C   0  0  0  0  0  3  0  0  0  0  0  0
  192.3570  172.0870  135.4910 C   0  0  0  0  0  2  0  0  0  0  0  0
  192.3290  173.5300  135.0590 C   0  0  0  0  0  0  0  0  0  0  0  0
  195.9330  171.3860  134.7460 O   0  0  0  0  0  1  0  0  0  0  0  0
  194.7360  173.4190  134.3470 C   0  0  1  0  0  3  0  0  0  0  0  0
  195.7970  174.2510  134.6450 F   0  0  0  0  0  0  0  0  0  0  0  0
  194.8290  172.1310  135.1590 C   0  0  1  0  0  3  0  0  0  0  0  0
  190.0700  174.3000  134.3580 N   0  0  0  0  0  2  0  0  0  0  0  0
  187.8560  173.8360  134.5400 N   0  0  0  0  0  2  0  0  0  0  0  0
  188.4060  173.8920  135.8490 C   0  0  1  0  0  3  0  0  0  0  0  0
  188.8600  174.8120  134.8650 N   0  0  0  0  0  0  0  0  0  0  0  0
  187.4360  174.5240  136.7330 N   0  0  0  0  0  2  0  0  0  0  0  0
  184.7740  176.2670  136.6440 C   0  0  0  0  0  2  0  0  0  0  0  0
  185.3280  175.2790  135.6260 C   0  0  0  0  0  2  0  0  0  0  0  0
  183.8650  174.0690  137.6290 C   0  0  0  0  0  2  0  0  0  0  0  0
  185.3280  173.6160  137.5810 C   0  0  0  0  0  2  0  0  0  0  0  0
  183.7420  175.6000  137.5750 C   0  0  0  0  0  2  0  0  0  0  0  0
  186.0780  174.1310  136.3340 C   0  0  0  0  0  3  0  0  0  0  0  0
  188.5020  178.3990  146.0480 C   0  0  0  0  0  2  0  0  0  0  0  0
  188.5500  177.5400  147.3000 C   0  0  0  0  0  2  0  0  0  0  0  0
  189.9860  177.2820  147.7580 C   0  0  0  0  0  2  0  0  0  0  0  0
  190.6500  176.1250  147.0080 C   0  0  1  0  0  3  0  0  0  0  0  0
  191.8800  177.8030  145.7710 O   0  0  0  0  0  1  0  0  0  0  0  0
  192.0210  175.6190  145.1030 O   0  0  0  0  0  1  0  0  0  0  0  0
  191.1870  176.5950  145.6510 C   0  0  0  0  0  3  0  0  0  0  0  0
  191.7260  175.4380  147.8520 C   0  0  0  0  0  2  0  0  0  0  0  0
  193.3600  175.8330  149.2900 C   0  0  0  0  0  1  0  0  0  0  0  0
  192.7900  176.3080  148.1080 O   0  0  0  0  0  0  0  0  0  0  0  0
  1  4  1  0  0  0  0
  1 15  1  0  0  0  0
  2 13  1  6  0  0  0
  2  4  1  0  0  0  0
  2 11  1  0  0  0  0
  4  3  1  6  0  0  0
  4 10  1  0  0  0  0
  5 13  1  6  0  0  0
  5  9  1  0  0  0  0
  7 21  1  1  0  0  0
  7 14  1  0  0  0  0
  8 16  1  0  0  0  0
  8 51  1  0  0  0  0
 10 12  1  6  0  0  0
 11  9  1  6  0  0  0
 11  7  1  0  0  0  0
 14 12  1  6  0  0  0
 14  8  1  0  0  0  0
 14 16  1  0  0  0  0
 15  6  1  6  0  0  0
 15 10  1  0  0  0  0
 17 19  1  0  0  0  0
 18 17  1  1  0  0  0
 18 19  1  0  0  0  0
 18  5  1  0  0  0  0
 20 21  2  0  0  0  0
 22  1  1  0  0  0  0
 23 30  1  6  0  0  0
 23 29  1  0  0  0  0
 23 27  1  0  0  0  0
 23 26  1  0  0  0  0
 25 24  1  1  0  0  0
 25 28  1  0  0  0  0
 26 27  1  1  0  0  0
 26 25  1  0  0  0  0
 26 28  1  0  0  0  0
 28 22  1  6  0  0  0
 29 25  1  0  0  0  0
 29 24  1  1  0  0  0
 31 40  1  6  0  0  0
 31 30  1  0  0  0  0
 32 39  1  0  0  0  0
 32 34  1  0  0  0  0
 33 35  2  0  0  0  0
 35 31  1  0  0  0  0
 35 34  1  0  0  0  0
 37 33  1  0  0  0  0
 37 38  1  1  0  0  0
 37 39  1  0  0  0  0
 39 36  1  6  0  0  0
 40 43  1  0  0  0  0
 41 43  1  0  0  0  0
 41 42  1  0  0  0  0
 42 44  1  1  0  0  0
 43 42  1  0  0  0  0
 45 49  1  0  0  0  0
 46 50  1  0  0  0  0
 46 45  1  0  0  0  0
 48 47  1  0  0  0  0
 49 47  1  0  0  0  0
 50 44  1  0  0  0  0
 50 48  1  0  0  0  0
 51 52  1  0  0  0  0
 52 53  1  0  0  0  0
 54 53  1  1  0  0  0
 54 58  1  0  0  0  0
 56 57  1  0  0  0  0
 57 55  1  0  0  0  0
 57 54  1  0  0  0  0
 58 60  1  0  0  0  0
 60 59  1  0  0  0  0
M  END
>  <MODEL>
6

>  <REMARK>
 VINA RESULT:      -5.5      2.335      5.466
  Name = 
  18 active torsions:
  status: ('A' for Active; 'I' for Inactive)
    1  A    between atoms: N_1  and  C_28
    2  A    between atoms: C_3  and  C_29
    3  A    between atoms: C_3  and  C_38
    4  A    between atoms: C_3  and  C_47
    5  A    between atoms: N_7  and  C_36
    6  A    between atoms: N_7  and  C_53
    7  A    between atoms: C_10  and  C_11
    8  A    between atoms: C_10  and  C_47
    9  A    between atoms: C_11  and  N_25
   10  A    between atoms: C_15  and  N_30
   11  A    between atoms: C_17  and  C_58
   12  A    between atoms: C_20  and  C_35
   13  A    between atoms: C_21  and  C_39
   14  A    between atoms: C_28  and  C_56
   15  A    between atoms: C_29  and  O_51
   16  A    between atoms: N_30  and  C_35
   17  A    between atoms: C_35  and  N_42
   18  A    between atoms: N_42  and  N_55
                            x       y       z     vdW  Elec       q    Type
                         _______ _______ _______ _____ _____    ______ ____

>  <TORSDO>
F 18

$$$$
=
 OpenBabel10232409213D

 60 71  0  0  1  0  0  0  0  0999 V2000
  185.6920  176.3040  135.8250 N   0  0  0  0  0  0  0  0  0  0  0  0
  184.4800  174.0510  136.3120 C   0  0  1  0  0  3  0  0  0  0  0  0
  183.8710  175.5660  134.3610 C   0  0  0  0  0  1  0  0  0  0  0  0
  184.4470  175.5040  135.7710 C   0  0  2  0  0  0  0  0  0  0  0  0
  184.9310  171.8050  135.7640 C   0  0  2  0  0  3  0  0  0  0  0  0
  185.6000  177.5780  138.0500 C   0  0  0  0  0  1  0  0  0  0  0  0
  182.3800  173.4530  137.4140 C   0  0  1  0  0  3  0  0  0  0  0  0
  180.7830  175.4600  137.6960 N   0  0  0  0  0  0  0  0  0  0  0  0
  183.4390  172.0260  135.7550 C   0  0  0  0  0  2  0  0  0  0  0  0
  183.6910  176.4750  136.6800 C   0  0  1  0  0  3  0  0  0  0  0  0
  183.1590  173.4160  136.1470 N   0  0  2  0  0  0  0  0  0  0  0  0
  183.3240  175.8920  138.0530 C   0  0  0  0  0  2  0  0  0  0  0  0
  185.4970  173.1810  135.6090 C   0  0  0  0  0  2  0  0  0  0  0  0
  182.1470  174.9140  137.9280 C   0  0  2  0  0  0  0  0  0  0  0  0
  184.9830  177.2900  136.6690 C   0  0  2  0  0  3  0  0  0  0  0  0
  181.2220  175.0500  139.0450 C   0  0  0  0  0  2  0  0  0  0  0  0
  185.6110  169.5370  135.1330 C   0  0  0  0  0  2  0  0  0  0  0  0
  185.4290  170.9170  134.6330 C   0  0  1  0  0  3  0  0  0  0  0  0
  184.5060  169.8920  134.3460 O   0  0  0  0  0  0  0  0  0  0  0  0
  180.2440  172.9040  136.2440 C   0  0  0  0  0  2  0  0  0  0  0  0
  181.0610  172.7150  137.2760 C   0  0  0  0  0  3  0  0  0  0  0  0
  186.8320  175.6670  136.4940 C   0  0  0  0  0  2  0  0  0  0  0  0
  190.6620  176.4620  136.5580 C   0  0  2  0  0  0  0  0  0  0  0  0
  189.3020  177.2220  134.5570 C   0  0  0  0  0  2  0  0  0  0  0  0
  188.9860  175.9490  135.3260 C   0  0  1  0  0  0  0  0  0  0  0  0
  189.2800  175.9630  136.8770 C   0  0  2  0  0  0  0  0  0  0  0  0
  189.8260  177.1890  137.4930 N   0  0  0  0  0  2  0  0  0  0  0  0
  188.0410  176.5610  136.2980 C   0  0  2  0  0  3  0  0  0  0  0  0
  190.4230  176.3990  135.0790 C   0  0  2  0  0  3  0  0  0  0  0  0
  191.6390  175.5560  137.1410 N   0  0  0  0  0  2  0  0  0  0  0  0
  192.9500  176.1130  136.8170 C   0  0  2  0  0  3  0  0  0  0  0  0
  194.3650  172.8600  135.1510 C   0  0  0  0  0  2  0  0  0  0  0  0
  195.2300  175.2060  136.5170 C   0  0  0  0  0  3  0  0  0  0  0  0
  193.3250  173.7660  135.8090 C   0  0  0  0  0  2  0  0  0  0  0  0
  193.9040  175.0660  136.3050 C   0  0  0  0  0  0  0  0  0  0  0  0
  196.5070  171.8690  135.4720 O   0  0  0  0  0  1  0  0  0  0  0  0
  196.2390  174.1560  136.1230 C   0  0  1  0  0  3  0  0  0  0  0  0
  197.2710  174.1480  137.0400 F   0  0  0  0  0  0  0  0  0  0  0  0
  195.6020  172.7730  136.0300 C   0  0  1  0  0  3  0  0  0  0  0  0
  193.4870  176.9030  137.9280 N   0  0  0  0  0  2  0  0  0  0  0  0
  193.8610  177.0280  140.1630 N   0  0  0  0  0  2  0  0  0  0  0  0
  192.4980  177.3500  139.9230 C   0  0  1  0  0  3  0  0  0  0  0  0
  193.1150  176.3240  139.1570 N   0  0  0  0  0  0  0  0  0  0  0  0
  191.6900  176.7770  140.9920 N   0  0  0  0  0  2  0  0  0  0  0  0
  191.4940  177.1090  144.1510 C   0  0  0  0  0  2  0  0  0  0  0  0
  191.8560  178.1330  143.0840 C   0  0  0  0  0  2  0  0  0  0  0  0
  189.1350  177.8640  143.4520 C   0  0  0  0  0  2  0  0  0  0  0  0
  189.6000  177.5010  142.0370 C   0  0  0  0  0  2  0  0  0  0  0  0
  190.0020  177.1880  144.5260 C   0  0  0  0  0  2  0  0  0  0  0  0
  191.0800  177.8570  141.7790 C   0  0  0  0  0  3  0  0  0  0  0  0
  180.7430  176.9210  137.6950 C   0  0  0  0  0  2  0  0  0  0  0  0
  180.2450  177.4060  139.0450 C   0  0  0  0  0  2  0  0  0  0  0  0
  180.9200  178.7130  139.4640 C   0  0  0  0  0  2  0  0  0  0  0  0
  181.6450  178.6020  140.8080 C   0  0  1  0  0  3  0  0  0  0  0  0
  183.9960  178.2420  141.2620 O   0  0  0  0  0  1  0  0  0  0  0  0
  183.4000  179.3610  139.3570 O   0  0  0  0  0  1  0  0  0  0  0  0
  183.0790  179.1330  140.6960 C   0  0  0  0  0  3  0  0  0  0  0  0
  180.8620  179.2760  141.9380 C   0  0  0  0  0  2  0  0  0  0  0  0
  180.5320  178.3380  143.9140 C   0  0  0  0  0  1  0  0  0  0  0  0
  180.0510  178.3520  142.6040 O   0  0  0  0  0  0  0  0  0  0  0  0
  1 22  1  0  0  0  0
  1 15  1  0  0  0  0
  2 13  1  6  0  0  0
  4  3  1  6  0  0  0
  4  1  1  0  0  0  0
  4  2  1  0  0  0  0
  4 10  1  0  0  0  0
  5 13  1  6  0  0  0
  7 21  1  6  0  0  0
  7 14  1  0  0  0  0
  8 14  1  0  0  0  0
  8 16  1  0  0  0  0
  9  5  1  0  0  0  0
 10 12  1  1  0  0  0
 11  9  1  1  0  0  0
 11  2  1  0  0  0  0
 11  7  1  0  0  0  0
 14 12  1  6  0  0  0
 14 16  1  0  0  0  0
 15 10  1  0  0  0  0
 15  6  1  1  0  0  0
 18 17  1  1  0  0  0
 18  5  1  0  0  0  0
 19 18  1  0  0  0  0
 19 17  1  0  0  0  0
 20 21  2  0  0  0  0
 23 26  1  0  0  0  0
 23 30  1  1  0  0  0
 23 27  1  0  0  0  0
 25 24  1  1  0  0  0
 25 28  1  0  0  0  0
 25 26  1  0  0  0  0
 26 27  1  6  0  0  0
 28 22  1  1  0  0  0
 28 26  1  0  0  0  0
 29 24  1  1  0  0  0
 29 25  1  0  0  0  0
 29 23  1  0  0  0  0
 31 30  1  1  0  0  0
 31 40  1  0  0  0  0
 32 34  1  0  0  0  0
 32 39  1  0  0  0  0
 34 35  1  0  0  0  0
 35 33  2  0  0  0  0
 35 31  1  0  0  0  0
 37 33  1  0  0  0  0
 37 38  1  1  0  0  0
 39 36  1  6  0  0  0
 39 37  1  0  0  0  0
 40 43  1  0  0  0  0
 42 41  1  0  0  0  0
 42 44  1  1  0  0  0
 43 42  1  0  0  0  0
 43 41  1  0  0  0  0
 44 50  1  0  0  0  0
 45 49  1  0  0  0  0
 46 45  1  0  0  0  0
 47 49  1  0  0  0  0
 48 47  1  0  0  0  0
 50 48  1  0  0  0  0
 50 46  1  0  0  0  0
 51  8  1  0  0  0  0
 51 52  1  0  0  0  0
 52 53  1  0  0  0  0
 54 53  1  6  0  0  0
 54 58  1  0  0  0  0
 56 57  1  0  0  0  0
 57 54  1  0  0  0  0
 57 55  1  0  0  0  0
 58 60  1  0  0  0  0
 60 59  1  0  0  0  0
M  END
>  <MODEL>
7

>  <REMARK>
 VINA RESULT:      -5.4      4.066      8.232
  Name = 
  18 active torsions:
  status: ('A' for Active; 'I' for Inactive)
    1  A    between atoms: N_1  and  C_28
    2  A    between atoms: C_3  and  C_29
    3  A    between atoms: C_3  and  C_38
    4  A    between atoms: C_3  and  C_47
    5  A    between atoms: N_7  and  C_36
    6  A    between atoms: N_7  and  C_53
    7  A    between atoms: C_10  and  C_11
    8  A    between atoms: C_10  and  C_47
    9  A    between atoms: C_11  and  N_25
   10  A    between atoms: C_15  and  N_30
   11  A    between atoms: C_17  and  C_58
   12  A    between atoms: C_20  and  C_35
   13  A    between atoms: C_21  and  C_39
   14  A    between atoms: C_28  and  C_56
   15  A    between atoms: C_29  and  O_51
   16  A    between atoms: N_30  and  C_35
   17  A    between atoms: C_35  and  N_42
   18  A    between atoms: N_42  and  N_55
                            x       y       z     vdW  Elec       q    Type
                         _______ _______ _______ _____ _____    ______ ____

>  <TORSDO>
F 18

$$$$
=
 OpenBabel10232409213D

 60 71  0  0  1  0  0  0  0  0999 V2000
  186.6080  176.8270  136.4000 N   0  0  0  0  0  0  0  0  0  0  0  0
  185.1670  174.6750  136.1280 C   0  0  1  0  0  3  0  0  0  0  0  0
  185.3170  176.4850  134.3460 C   0  0  0  0  0  1  0  0  0  0  0  0
  185.4010  176.1800  135.8380 C   0  0  2  0  0  0  0  0  0  0  0  0
  185.6320  172.4820  135.4040 C   0  0  2  0  0  3  0  0  0  0  0  0
  185.8810  177.8070  138.6570 C   0  0  0  0  0  1  0  0  0  0  0  0
  182.7910  174.1720  136.4150 C   0  0  1  0  0  3  0  0  0  0  0  0
  181.3160  176.2860  136.4970 N   0  0  0  0  0  0  0  0  0  0  0  0
  184.2390  172.8630  134.9660 C   0  0  0  0  0  2  0  0  0  0  0  0
  184.4530  177.1020  136.6070 C   0  0  1  0  0  3  0  0  0  0  0  0
  183.9340  174.2120  135.4640 N   0  0  2  0  0  0  0  0  0  0  0  0
  183.6260  176.3910  137.6890 C   0  0  0  0  0  2  0  0  0  0  0  0
  186.3010  173.7970  135.6490 C   0  0  0  0  0  2  0  0  0  0  0  0
  182.4950  175.5710  137.0530 C   0  0  2  0  0  0  0  0  0  0  0  0
  185.7270  177.7670  137.1250 C   0  0  2  0  0  3  0  0  0  0  0  0
  181.2690  175.6620  137.8340 C   0  0  0  0  0  2  0  0  0  0  0  0
  187.4450  170.8770  135.0290 C   0  0  0  0  0  2  0  0  0  0  0  0
  186.4130  171.6980  134.3590 C   0  0  1  0  0  3  0  0  0  0  0  0
  186.2590  170.3100  134.5430 O   0  0  0  0  0  0  0  0  0  0  0  0
  181.3270  172.2970  135.6570 C   0  0  0  0  0  2  0  0  0  0  0  0
  181.5450  173.6040  135.7600 C   0  0  0  0  0  3  0  0  0  0  0  0
  187.4290  175.9890  137.2830 C   0  0  0  0  0  2  0  0  0  0  0  0
  190.7350  176.7740  139.2220 C   0  0  2  0  0  0  0  0  0  0  0  0
  190.8560  176.4360  136.7110 C   0  0  0  0  0  2  0  0  0  0  0  0
  189.8590  175.6970  137.5900 C   0  0  1  0  0  0  0  0  0  0  0  0
  189.3100  176.4730  138.8500 C   0  0  2  0  0  0  0  0  0  0  0  0
  189.7740  177.8520  139.1020 N   0  0  0  0  0  2  0  0  0  0  0  0
  188.7590  176.6910  137.4800 C   0  0  2  0  0  3  0  0  0  0  0  0
  191.2790  175.9900  138.0640 C   0  0  2  0  0  3  0  0  0  0  0  0
  190.9870  176.2840  140.5680 N   0  0  0  0  0  2  0  0  0  0  0  0
  190.3820  177.2600  141.4720 C   0  0  2  0  0  3  0  0  0  0  0  0
  191.7950  175.8180  144.8310 C   0  0  0  0  0  2  0  0  0  0  0  0
  191.1060  178.2930  143.5980 C   0  0  0  0  0  3  0  0  0  0  0  0
  191.0500  175.8040  143.4970 C   0  0  0  0  0  2  0  0  0  0  0  0
  190.9430  177.1690  142.8670 C   0  0  0  0  0  0  0  0  0  0  0  0
  191.8790  176.8880  146.9580 O   0  0  0  0  0  1  0  0  0  0  0  0
  191.5680  178.2770  145.0340 C   0  0  1  0  0  3  0  0  0  0  0  0
  190.9600  179.3090  145.7200 F   0  0  0  0  0  0  0  0  0  0  0  0
  191.2640  176.9420  145.7070 C   0  0  1  0  0  3  0  0  0  0  0  0
  188.9190  177.2030  141.4220 N   0  0  0  0  0  2  0  0  0  0  0  0
  187.3860  178.8740  141.5130 N   0  0  0  0  0  2  0  0  0  0  0  0
  186.9870  177.8570  142.4220 C   0  0  1  0  0  3  0  0  0  0  0  0
  188.3680  178.1670  142.2880 N   0  0  0  0  0  0  0  0  0  0  0  0
  186.4320  178.4890  143.6110 N   0  0  0  0  0  2  0  0  0  0  0  0
  185.6740  178.9450  146.6690 C   0  0  0  0  0  2  0  0  0  0  0  0
  185.3120  177.7980  145.7350 C   0  0  0  0  0  2  0  0  0  0  0  0
  187.7860  177.4950  146.9200 C   0  0  0  0  0  2  0  0  0  0  0  0
  187.8460  177.5810  145.3910 C   0  0  0  0  0  2  0  0  0  0  0  0
  186.9160  178.6110  147.5180 C   0  0  0  0  0  2  0  0  0  0  0  0
  186.4520  177.5350  144.7290 C   0  0  0  0  0  3  0  0  0  0  0  0
  181.3690  177.7320  136.7110 C   0  0  0  0  0  2  0  0  0  0  0  0
  180.0210  178.2080  137.2220 C   0  0  0  0  0  2  0  0  0  0  0  0
  180.0730  178.5800  138.7040 C   0  0  0  0  0  2  0  0  0  0  0  0
  180.4810  180.0380  138.9360 C   0  0  1  0  0  3  0  0  0  0  0  0
  182.4640  178.8480  139.6540 O   0  0  0  0  0  1  0  0  0  0  0  0
  182.7000  180.9360  138.7490 O   0  0  0  0  0  1  0  0  0  0  0  0
  181.8900  180.1170  139.5370 C   0  0  0  0  0  3  0  0  0  0  0  0
  180.3440  180.8790  137.6640 C   0  0  0  0  0  2  0  0  0  0  0  0
  180.6570  182.8490  136.7080 C   0  0  0  0  0  1  0  0  0  0  0  0
  180.4740  182.2420  137.9510 O   0  0  0  0  0  0  0  0  0  0  0  0
  1 15  1  0  0  0  0
  1 22  1  0  0  0  0
  2 13  1  6  0  0  0
  4  3  1  6  0  0  0
  4  2  1  0  0  0  0
  4  1  1  0  0  0  0
  4 10  1  0  0  0  0
  5  9  1  6  0  0  0
  5 13  1  0  0  0  0
  7 21  1  6  0  0  0
  7 14  1  0  0  0  0
  8 51  1  0  0  0  0
  8 14  1  0  0  0  0
  8 16  1  0  0  0  0
 10 15  1  0  0  0  0
 10 12  1  1  0  0  0
 11  9  1  1  0  0  0
 11  2  1  0  0  0  0
 11  7  1  0  0  0  0
 14 12  1  1  0  0  0
 14 16  1  0  0  0  0
 15  6  1  1  0  0  0
 18 19  1  0  0  0  0
 18 17  1  1  0  0  0
 18  5  1  0  0  0  0
 19 17  1  0  0  0  0
 20 21  2  0  0  0  0
 23 30  1  1  0  0  0
 25 24  1  1  0  0  0
 25 29  1  0  0  0  0
 25 26  1  0  0  0  0
 26 27  1  6  0  0  0
 26 23  1  0  0  0  0
 27 23  1  0  0  0  0
 28 22  1  1  0  0  0
 28 25  1  0  0  0  0
 28 26  1  0  0  0  0
 29 24  1  6  0  0  0
 29 23  1  0  0  0  0
 31 30  1  6  0  0  0
 31 35  1  0  0  0  0
 32 39  1  0  0  0  0
 33 37  1  0  0  0  0
 34 32  1  0  0  0  0
 35 34  1  0  0  0  0
 35 33  2  0  0  0  0
 37 39  1  0  0  0  0
 37 38  1  1  0  0  0
 39 36  1  1  0  0  0
 40 31  1  0  0  0  0
 40 43  1  0  0  0  0
 41 43  1  0  0  0  0
 41 42  1  0  0  0  0
 42 44  1  1  0  0  0
 43 42  1  0  0  0  0
 44 50  1  0  0  0  0
 45 49  1  0  0  0  0
 46 45  1  0  0  0  0
 47 49  1  0  0  0  0
 48 47  1  0  0  0  0
 50 48  1  0  0  0  0
 50 46  1  0  0  0  0
 51 52  1  0  0  0  0
 52 53  1  0  0  0  0
 53 54  1  0  0  0  0
 54 58  1  6  0  0  0
 54 57  1  0  0  0  0
 56 57  1  0  0  0  0
 57 55  1  0  0  0  0
 58 60  1  0  0  0  0
 59 60  1  0  0  0  0
M  END
>  <MODEL>
8

>  <REMARK>
 VINA RESULT:      -5.2      4.509     10.537
  Name = 
  18 active torsions:
  status: ('A' for Active; 'I' for Inactive)
    1  A    between atoms: N_1  and  C_28
    2  A    between atoms: C_3  and  C_29
    3  A    between atoms: C_3  and  C_38
    4  A    between atoms: C_3  and  C_47
    5  A    between atoms: N_7  and  C_36
    6  A    between atoms: N_7  and  C_53
    7  A    between atoms: C_10  and  C_11
    8  A    between atoms: C_10  and  C_47
    9  A    between atoms: C_11  and  N_25
   10  A    between atoms: C_15  and  N_30
   11  A    between atoms: C_17  and  C_58
   12  A    between atoms: C_20  and  C_35
   13  A    between atoms: C_21  and  C_39
   14  A    between atoms: C_28  and  C_56
   15  A    between atoms: C_29  and  O_51
   16  A    between atoms: N_30  and  C_35
   17  A    between atoms: C_35  and  N_42
   18  A    between atoms: N_42  and  N_55
                            x       y       z     vdW  Elec       q    Type
                         _______ _______ _______ _____ _____    ______ ____

>  <TORSDO>
F 18

$$$$
=
 OpenBabel10232409213D

 60 71  0  0  1  0  0  0  0  0999 V2000
  185.3350  178.7860  138.4980 N   0  0  0  0  0  0  0  0  0  0  0  0
  182.8910  178.2500  139.2210 C   0  0  1  0  0  3  0  0  0  0  0  0
  183.7640  180.6200  138.9110 C   0  0  0  0  0  1  0  0  0  0  0  0
  184.1300  179.1820  139.2620 C   0  0  2  0  0  0  0  0  0  0  0  0
  180.9210  177.7200  138.0440 C   0  0  2  0  0  3  0  0  0  0  0  0
  186.7970  177.4690  140.1450 C   0  0  0  0  0  1  0  0  0  0  0  0
  181.7240  178.2120  141.3700 C   0  0  1  0  0  3  0  0  0  0  0  0
  183.0080  179.4440  143.2370 N   0  0  0  0  0  0  0  0  0  0  0  0
  180.5660  178.5430  139.2590 C   0  0  0  0  0  2  0  0  0  0  0  0
  184.8720  179.1500  140.5990 C   0  0  1  0  0  3  0  0  0  0  0  0
  181.7920  178.8280  140.0180 N   0  0  2  0  0  0  0  0  0  0  0  0
  184.4040  178.0390  141.5510 C   0  0  0  0  0  2  0  0  0  0  0  0
  182.3690  178.0200  137.8210 C   0  0  0  0  0  2  0  0  0  0  0  0
  183.0510  178.4000  142.1800 C   0  0  2  0  0  0  0  0  0  0  0  0
  186.0980  178.7880  139.7640 C   0  0  2  0  0  3  0  0  0  0  0  0
  182.9960  178.0090  143.5820 C   0  0  0  0  0  2  0  0  0  0  0  0
  180.9760  177.9070  135.6020 C   0  0  0  0  0  2  0  0  0  0  0  0
  180.1260  178.0860  136.7990 C   0  0  1  0  0  3  0  0  0  0  0  0
  179.9830  176.9770  135.9420 O   0  0  0  0  0  0  0  0  0  0  0  0
  179.9820  178.0460  143.1520 C   0  0  0  0  0  2  0  0  0  0  0  0
  180.5350  178.7330  142.1570 C   0  0  0  0  0  3  0  0  0  0  0  0
  185.2750  177.4710  137.8480 C   0  0  0  0  0  2  0  0  0  0  0  0
  187.9980  176.4430  135.2340 C   0  0  2  0  0  0  0  0  0  0  0  0
  185.6370  176.8720  134.4160 C   0  0  0  0  0  2  0  0  0  0  0  0
  185.9340  176.2870  135.7870 C   0  0  1  0  0  0  0  0  0  0  0  0
  187.2550  176.7770  136.4980 C   0  0  2  0  0  0  0  0  0  0  0  0
  188.1140  177.7660  135.8150 N   0  0  0  0  0  2  0  0  0  0  0  0
  185.9980  177.5800  136.5190 C   0  0  2  0  0  3  0  0  0  0  0  0
  186.7640  175.9170  134.5620 C   0  0  2  0  0  3  0  0  0  0  0  0
  189.0680  175.5090  135.5460 N   0  0  0  0  0  2  0  0  0  0  0  0
  189.0660  175.3630  137.0000 C   0  0  2  0  0  3  0  0  0  0  0  0
  192.7400  176.5270  137.7070 C   0  0  0  0  0  2  0  0  0  0  0  0
  190.1140  176.6900  138.8020 C   0  0  0  0  0  3  0  0  0  0  0  0
  191.6270  175.6720  137.1040 C   0  0  0  0  0  2  0  0  0  0  0  0
  190.2620  176.0170  137.6400 C   0  0  0  0  0  0  0  0  0  0  0  0
  193.6600  177.2830  139.7710 O   0  0  0  0  0  1  0  0  0  0  0  0
  191.2760  177.2880  139.5560 C   0  0  1  0  0  3  0  0  0  0  0  0
  191.0270  177.2150  140.9110 F   0  0  0  0  0  0  0  0  0  0  0  0
  192.5870  176.5830  139.2190 C   0  0  1  0  0  3  0  0  0  0  0  0
  188.8760  173.9660  137.3990 N   0  0  0  0  0  2  0  0  0  0  0  0
  188.0210  171.9270  136.8870 N   0  0  0  0  0  2  0  0  0  0  0  0
  186.9380  172.8250  137.0820 C   0  0  1  0  0  3  0  0  0  0  0  0
  188.1140  173.2860  136.4290 N   0  0  0  0  0  0  0  0  0  0  0  0
  185.8980  172.5170  136.1090 N   0  0  0  0  0  2  0  0  0  0  0  0
  183.1160  173.8070  135.2580 C   0  0  0  0  0  2  0  0  0  0  0  0
  183.4240  172.4110  135.7820 C   0  0  0  0  0  2  0  0  0  0  0  0
  183.0970  174.2770  137.7890 C   0  0  0  0  0  2  0  0  0  0  0  0
  184.4910  173.6400  137.7670 C   0  0  0  0  0  2  0  0  0  0  0  0
  182.6660  174.7490  136.3920 C   0  0  0  0  0  2  0  0  0  0  0  0
  184.5960  172.4530  136.7850 C   0  0  0  0  0  3  0  0  0  0  0  0
  184.3320  179.9500  143.5970 C   0  0  0  0  0  2  0  0  0  0  0  0
  184.7760  179.2990  144.8960 C   0  0  0  0  0  2  0  0  0  0  0  0
  186.2970  179.1610  144.9710 C   0  0  0  0  0  2  0  0  0  0  0  0
  186.7570  177.7030  145.0690 C   0  0  1  0  0  3  0  0  0  0  0  0
  187.8950  176.1280  143.6260 O   0  0  0  0  0  1  0  0  0  0  0  0
  187.8890  178.3430  143.0510 O   0  0  0  0  0  1  0  0  0  0  0  0
  187.9260  177.4380  144.1130 C   0  0  0  0  0  3  0  0  0  0  0  0
  187.0820  177.3030  146.5110 C   0  0  0  0  0  2  0  0  0  0  0  0
  188.6910  177.7960  147.9470 C   0  0  0  0  0  1  0  0  0  0  0  0
  188.4640  177.2070  146.7020 O   0  0  0  0  0  0  0  0  0  0  0  0
  1  4  1  0  0  0  0
  1 15  1  0  0  0  0
  2 13  1  6  0  0  0
  2  4  1  0  0  0  0
  2 11  1  0  0  0  0
  4  3  1  6  0  0  0
  4 10  1  0  0  0  0
  5 13  1  6  0  0  0
  5  9  1  0  0  0  0
  7 21  1  1  0  0  0
  7 14  1  0  0  0  0
  8 16  1  0  0  0  0
  8 51  1  0  0  0  0
 10 12  1  1  0  0  0
 11  9  1  6  0  0  0
 11  7  1  0  0  0  0
 14 12  1  6  0  0  0
 14  8  1  0  0  0  0
 14 16  1  0  0  0  0
 15  6  1  1  0  0  0
 15 10  1  0  0  0  0
 17 19  1  0  0  0  0
 18 17  1  6  0  0  0
 18  5  1  0  0  0  0
 19 18  1  0  0  0  0
 21 20  2  0  0  0  0
 22  1  1  0  0  0  0
 23 30  1  1  0  0  0
 23 27  1  0  0  0  0
 23 26  1  0  0  0  0
 25 24  1  6  0  0  0
 25 26  1  0  0  0  0
 25 28  1  0  0  0  0
 26 27  1  6  0  0  0
 26 28  1  0  0  0  0
 28 22  1  1  0  0  0
 29 24  1  6  0  0  0
 29 23  1  0  0  0  0
 29 25  1  0  0  0  0
 31 30  1  6  0  0  0
 31 40  1  0  0  0  0
 31 35  1  0  0  0  0
 32 39  1  0  0  0  0
 33 37  1  0  0  0  0
 34 35  1  0  0  0  0
 34 32  1  0  0  0  0
 35 33  2  0  0  0  0
 37 38  1  1  0  0  0
 39 37  1  0  0  0  0
 39 36  1  1  0  0  0
 41 42  1  0  0  0  0
 42 44  1  6  0  0  0
 43 41  1  0  0  0  0
 43 42  1  0  0  0  0
 43 40  1  0  0  0  0
 44 50  1  0  0  0  0
 45 46  1  0  0  0  0
 45 49  1  0  0  0  0
 46 50  1  0  0  0  0
 48 47  1  0  0  0  0
 49 47  1  0  0  0  0
 50 48  1  0  0  0  0
 51 52  1  0  0  0  0
 52 53  1  0  0  0  0
 54 53  1  1  0  0  0
 54 58  1  0  0  0  0
 55 57  1  0  0  0  0
 56 57  1  0  0  0  0
 57 54  1  0  0  0  0
 58 60  1  0  0  0  0
 60 59  1  0  0  0  0
M  END
>  <MODEL>
9

>  <REMARK>
 VINA RESULT:      -4.7      4.370      7.219
  Name = 
  18 active torsions:
  status: ('A' for Active; 'I' for Inactive)
    1  A    between atoms: N_1  and  C_28
    2  A    between atoms: C_3  and  C_29
    3  A    between atoms: C_3  and  C_38
    4  A    between atoms: C_3  and  C_47
    5  A    between atoms: N_7  and  C_36
    6  A    between atoms: N_7  and  C_53
    7  A    between atoms: C_10  and  C_11
    8  A    between atoms: C_10  and  C_47
    9  A    between atoms: C_11  and  N_25
   10  A    between atoms: C_15  and  N_30
   11  A    between atoms: C_17  and  C_58
   12  A    between atoms: C_20  and  C_35
   13  A    between atoms: C_21  and  C_39
   14  A    between atoms: C_28  and  C_56
   15  A    between atoms: C_29  and  O_51
   16  A    between atoms: N_30  and  C_35
   17  A    between atoms: C_35  and  N_42
   18  A    between atoms: N_42  and  N_55
                            x       y       z     vdW  Elec       q    Type
                         _______ _______ _______ _____ _____    ______ ____

>  <TORSDO>
F 18

$$$$
