=
 OpenBabel10232407533D

 26 29  0  0  1  0  0  0  0  0999 V2000
  189.3280  178.0680  148.1860 C   0  0  0  0  0  3  0  0  0  0  0  0
  186.8930  177.9640  146.2350 C   0  0  0  0  0  0  0  0  0  0  0  0
  189.6480  176.8480  147.3620 C   0  0  0  0  0  2  0  0  0  0  0  0
  188.0850  178.5560  148.3500 C   0  0  0  0  0  3  0  0  0  0  0  0
  185.8240  178.4240  144.1830 C   0  0  0  0  0  3  0  0  0  0  0  0
  186.9220  177.9740  143.4120 C   0  0  0  0  0  0  0  0  0  0  0  0
  188.0190  177.5060  144.1220 C   0  0  0  0  0  0  0  0  0  0  0  0
  189.2200  177.0310  145.9390 C   0  0  0  0  0  0  0  0  0  0  0  0
  189.2550  177.0170  143.7420 C   0  0  0  0  0  3  0  0  0  0  0  0
  185.8480  178.4040  145.5280 O   0  0  0  0  0  0  0  0  0  0  0  0
  186.8530  177.9410  147.7350 C   0  0  0  0  0  2  0  0  0  0  0  0
  187.9990  177.4980  145.5390 C   0  0  0  0  0  0  0  0  0  0  0  0
  189.9790  176.7270  144.8580 N   0  0  0  0  0  0  0  0  0  0  0  0
  186.9100  177.9870  141.9130 C   0  0  1  0  0  3  0  0  0  0  0  0
  183.5310  178.6100  141.0570 C   0  0  0  0  0  0  0  0  0  0  0  0
  185.4150  179.4760  140.5460 N   0  0  0  0  0  0  0  0  0  0  0  0
  184.4170  177.8620  141.7410 N   0  0  0  0  0  0  0  0  0  0  0  0
  185.5820  178.4380  141.3870 C   0  0  0  0  0  0  0  0  0  0  0  0
  184.1140  179.5840  140.3350 N   0  0  0  0  0  2  0  0  0  0  0  0
  180.9690  178.2190  141.1270 N   0  0  0  0  0  0  0  0  0  0  0  0
  182.1130  178.3940  141.0960 C   0  0  0  0  0  0  0  0  0  0  0  0
  188.0580  178.8250  141.3590 C   0  0  0  0  0  2  0  0  0  0  0  0
  188.7800  178.0700  140.2580 C   0  0  0  0  0  2  0  0  0  0  0  0
  188.4370  178.6480  138.9720 N   0  0  0  0  0  2  0  0  0  0  0  0
  187.7110  177.6280  138.2380 C   0  0  0  0  0  2  0  0  0  0  0  0
  186.7660  178.2890  137.2560 C   0  0  0  0  0  1  0  0  0  0  0  0
  1  4  2  0  0  0  0
  2 11  1  0  0  0  0
  3  1  1  0  0  0  0
  5 10  1  0  0  0  0
  6  7  1  0  0  0  0
  6  5  2  0  0  0  0
  7 12  1  0  0  0  0
  8  3  1  0  0  0  0
  9  7  2  0  0  0  0
  9 13  1  0  0  0  0
 10  2  1  0  0  0  0
 11  4  1  0  0  0  0
 12  8  1  0  0  0  0
 12  2  2  0  0  0  0
 13  8  2  0  0  0  0
 14 22  1  1  0  0  0
 14  6  1  0  0  0  0
 15 21  1  0  0  0  0
 15 17  2  0  0  0  0
 16 18  2  0  0  0  0
 18 17  1  0  0  0  0
 18 14  1  0  0  0  0
 19 16  1  0  0  0  0
 19 15  1  0  0  0  0
 21 20  3  0  0  0  0
 23 22  1  0  0  0  0
 24 23  1  0  0  0  0
 25 24  1  0  0  0  0
 26 25  1  0  0  0  0
M  END
>  <MODEL>
1

>  <REMARK>
 VINA RESULT:      -7.7      0.000      0.000
  Name = 
  7 active torsions:
  status: ('A' for Active; 'I' for Inactive)
    1  A    between atoms: C_5  and  C_25
    2  A    between atoms: C_7  and  N_20
    3  A    between atoms: C_8  and  C_16
    4  A    between atoms: C_11  and  C_15
    5  A    between atoms: C_11  and  C_16
    6  A    between atoms: C_15  and  N_20
    7  A    between atoms: C_16  and  C_21
                            x       y       z     vdW  Elec       q    Type
                         _______ _______ _______ _____ _____    ______ ____

>  <TORSDO>
F 7

$$$$
=
 OpenBabel10232407533D

 26 29  0  0  1  0  0  0  0  0999 V2000
  184.1800  179.2450  145.4230 C   0  0  0  0  0  3  0  0  0  0  0  0
  185.9590  178.1520  143.1020 C   0  0  0  0  0  0  0  0  0  0  0  0
  184.7520  177.9940  146.0380 C   0  0  0  0  0  2  0  0  0  0  0  0
  184.0640  179.4410  144.0970 C   0  0  0  0  0  3  0  0  0  0  0  0
  188.0120  177.9010  141.9680 C   0  0  0  0  0  3  0  0  0  0  0  0
  188.7240  177.5790  143.1480 C   0  0  0  0  0  0  0  0  0  0  0  0
  187.9820  177.5490  144.3220 C   0  0  0  0  0  0  0  0  0  0  0  0
  186.1610  177.7680  145.5900 C   0  0  0  0  0  0  0  0  0  0  0  0
  188.3090  177.3050  145.6430 C   0  0  0  0  0  3  0  0  0  0  0  0
  186.6950  178.1680  141.9860 O   0  0  0  0  0  0  0  0  0  0  0  0
  184.4860  178.4330  143.0590 C   0  0  0  0  0  2  0  0  0  0  0  0
  186.5940  177.8320  144.2940 C   0  0  0  0  0  0  0  0  0  0  0  0
  187.1900  177.4380  146.4080 N   0  0  0  0  0  0  0  0  0  0  0  0
  190.1920  177.2770  143.1450 C   0  0  1  0  0  3  0  0  0  0  0  0
  190.8740  176.5310  139.7510 C   0  0  0  0  0  0  0  0  0  0  0  0
  191.8150  177.6980  141.2720 N   0  0  0  0  0  0  0  0  0  0  0  0
  190.0740  176.3590  140.8200 N   0  0  0  0  0  0  0  0  0  0  0  0
  190.7050  177.1040  141.7480 C   0  0  0  0  0  0  0  0  0  0  0  0
  191.9230  177.3330  140.0060 N   0  0  0  0  0  2  0  0  0  0  0  0
  190.4340  175.4380  137.4420 N   0  0  0  0  0  0  0  0  0  0  0  0
  190.6310  175.9260  138.4730 C   0  0  0  0  0  0  0  0  0  0  0  0
  190.9760  178.3350  143.9140 C   0  0  0  0  0  2  0  0  0  0  0  0
  191.5940  177.7320  145.1620 C   0  0  0  0  0  2  0  0  0  0  0  0
  191.7770  176.3060  144.9700 N   0  0  0  0  0  2  0  0  0  0  0  0
  191.9640  175.7280  146.2880 C   0  0  0  0  0  2  0  0  0  0  0  0
  191.5030  176.7130  147.3410 C   0  0  0  0  0  1  0  0  0  0  0  0
  1  3  1  0  0  0  0
  2 12  2  0  0  0  0
  4  1  2  0  0  0  0
  5 10  1  0  0  0  0
  5  6  2  0  0  0  0
  6  7  1  0  0  0  0
  7  9  2  0  0  0  0
  8  3  1  0  0  0  0
  8 13  2  0  0  0  0
  9 13  1  0  0  0  0
 10  2  1  0  0  0  0
 11  2  1  0  0  0  0
 11  4  1  0  0  0  0
 12  7  1  0  0  0  0
 12  8  1  0  0  0  0
 14  6  1  0  0  0  0
 14 22  1  6  0  0  0
 15 19  1  0  0  0  0
 15 17  2  0  0  0  0
 16 18  2  0  0  0  0
 17 18  1  0  0  0  0
 18 14  1  0  0  0  0
 19 16  1  0  0  0  0
 20 21  3  0  0  0  0
 21 15  1  0  0  0  0
 22 23  1  0  0  0  0
 24 23  1  0  0  0  0
 24 25  1  0  0  0  0
 25 26  1  0  0  0  0
M  END
>  <MODEL>
2

>  <REMARK>
 VINA RESULT:      -7.7      3.336      6.039
  Name = 
  7 active torsions:
  status: ('A' for Active; 'I' for Inactive)
    1  A    between atoms: C_5  and  C_25
    2  A    between atoms: C_7  and  N_20
    3  A    between atoms: C_8  and  C_16
    4  A    between atoms: C_11  and  C_15
    5  A    between atoms: C_11  and  C_16
    6  A    between atoms: C_15  and  N_20
    7  A    between atoms: C_16  and  C_21
                            x       y       z     vdW  Elec       q    Type
                         _______ _______ _______ _____ _____    ______ ____

>  <TORSDO>
F 7

$$$$
=
 OpenBabel10232407533D

 26 29  0  0  1  0  0  0  0  0999 V2000
  182.8240  178.5660  142.4630 C   0  0  0  0  0  3  0  0  0  0  0  0
  184.7480  178.9140  144.8960 C   0  0  0  0  0  0  0  0  0  0  0  0
  184.0780  179.0630  141.7930 C   0  0  0  0  0  2  0  0  0  0  0  0
  182.5280  178.7870  143.7560 C   0  0  0  0  0  3  0  0  0  0  0  0
  186.4480  178.1730  146.3530 C   0  0  0  0  0  3  0  0  0  0  0  0
  187.2810  177.7350  145.2960 C   0  0  0  0  0  0  0  0  0  0  0  0
  186.7900  177.9200  144.0110 C   0  0  0  0  0  0  0  0  0  0  0  0
  185.3000  178.5200  142.4640 C   0  0  0  0  0  0  0  0  0  0  0  0
  187.2810  177.6130  142.7560 C   0  0  0  0  0  3  0  0  0  0  0  0
  185.2460  178.7300  146.1230 O   0  0  0  0  0  0  0  0  0  0  0  0
  183.4100  179.5660  144.6980 C   0  0  0  0  0  2  0  0  0  0  0  0
  185.5200  178.5170  143.8140 C   0  0  0  0  0  0  0  0  0  0  0  0
  186.3660  177.9870  141.8190 N   0  0  0  0  0  0  0  0  0  0  0  0
  188.6240  177.1130  145.5360 C   0  0  1  0  0  3  0  0  0  0  0  0
  190.9430  177.8200  142.9540 C   0  0  0  0  0  0  0  0  0  0  0  0
  190.1790  178.8770  144.6450 N   0  0  0  0  0  0  0  0  0  0  0  0
  190.0950  176.9400  143.5180 N   0  0  0  0  0  0  0  0  0  0  0  0
  189.6440  177.6440  144.5740 C   0  0  0  0  0  0  0  0  0  0  0  0
  191.0050  178.9880  143.6190 N   0  0  0  0  0  2  0  0  0  0  0  0
  192.3120  177.3180  140.8100 N   0  0  0  0  0  0  0  0  0  0  0  0
  191.7010  177.5420  141.7670 C   0  0  0  0  0  0  0  0  0  0  0  0
  189.0630  177.2860  146.9860 C   0  0  0  0  0  2  0  0  0  0  0  0
  190.1410  176.2770  147.3360 C   0  0  0  0  0  2  0  0  0  0  0  0
  191.3560  176.9780  147.7030 N   0  0  0  0  0  2  0  0  0  0  0  0
  192.4210  175.9910  147.7100 C   0  0  0  0  0  2  0  0  0  0  0  0
  192.3270  175.1380  146.4640 C   0  0  0  0  0  1  0  0  0  0  0  0
  1  4  2  0  0  0  0
  2 10  1  0  0  0  0
  3  1  1  0  0  0  0
  3  8  1  0  0  0  0
  4 11  1  0  0  0  0
  6 14  1  0  0  0  0
  6  5  2  0  0  0  0
  7  6  1  0  0  0  0
  8 12  1  0  0  0  0
  9  7  2  0  0  0  0
 10  5  1  0  0  0  0
 11  2  1  0  0  0  0
 12  7  1  0  0  0  0
 12  2  2  0  0  0  0
 13  8  2  0  0  0  0
 13  9  1  0  0  0  0
 14 22  1  1  0  0  0
 15 17  2  0  0  0  0
 15 19  1  0  0  0  0
 17 18  1  0  0  0  0
 18 16  2  0  0  0  0
 18 14  1  0  0  0  0
 19 16  1  0  0  0  0
 20 21  3  0  0  0  0
 21 15  1  0  0  0  0
 22 23  1  0  0  0  0
 23 24  1  0  0  0  0
 24 25  1  0  0  0  0
 26 25  1  0  0  0  0
M  END
>  <MODEL>
3

>  <REMARK>
 VINA RESULT:      -7.5      2.362      6.749
  Name = 
  7 active torsions:
  status: ('A' for Active; 'I' for Inactive)
    1  A    between atoms: C_5  and  C_25
    2  A    between atoms: C_7  and  N_20
    3  A    between atoms: C_8  and  C_16
    4  A    between atoms: C_11  and  C_15
    5  A    between atoms: C_11  and  C_16
    6  A    between atoms: C_15  and  N_20
    7  A    between atoms: C_16  and  C_21
                            x       y       z     vdW  Elec       q    Type
                         _______ _______ _______ _____ _____    ______ ____

>  <TORSDO>
F 7

$$$$
=
 OpenBabel10232407533D

 26 29  0  0  1  0  0  0  0  0999 V2000
  188.2320  176.9470  147.8220 C   0  0  0  0  0  3  0  0  0  0  0  0
  187.8750  177.8590  144.8580 C   0  0  0  0  0  0  0  0  0  0  0  0
  187.5690  178.2890  147.9920 C   0  0  0  0  0  2  0  0  0  0  0  0
  188.9370  176.5940  146.7330 C   0  0  0  0  0  3  0  0  0  0  0  0
  186.6340  178.0860  142.8650 C   0  0  0  0  0  3  0  0  0  0  0  0
  185.4880  178.5790  143.5330 C   0  0  0  0  0  0  0  0  0  0  0  0
  185.5890  178.7050  144.9120 C   0  0  0  0  0  0  0  0  0  0  0  0
  186.5670  178.5370  146.9090 C   0  0  0  0  0  0  0  0  0  0  0  0
  184.7060  179.1160  145.8930 C   0  0  0  0  0  3  0  0  0  0  0  0
  187.7540  177.7530  143.5310 O   0  0  0  0  0  0  0  0  0  0  0  0
  189.1590  177.4970  145.5460 C   0  0  0  0  0  2  0  0  0  0  0  0
  186.7910  178.3470  145.5720 C   0  0  0  0  0  0  0  0  0  0  0  0
  185.3140  179.0120  147.1070 N   0  0  0  0  0  0  0  0  0  0  0  0
  184.2330  178.9570  142.8050 C   0  0  1  0  0  3  0  0  0  0  0  0
  184.1730  178.0170  139.3910 C   0  0  0  0  0  0  0  0  0  0  0  0
  185.1160  179.5580  140.5290 N   0  0  0  0  0  0  0  0  0  0  0  0
  183.7670  177.7710  140.6510 N   0  0  0  0  0  0  0  0  0  0  0  0
  184.3850  178.7580  141.3280 C   0  0  0  0  0  0  0  0  0  0  0  0
  184.9830  179.0870  139.3010 N   0  0  0  0  0  2  0  0  0  0  0  0
  183.4640  176.5820  137.3510 N   0  0  0  0  0  0  0  0  0  0  0  0
  183.7810  177.2230  138.2620 C   0  0  0  0  0  0  0  0  0  0  0  0
  183.0260  178.2090  143.3600 C   0  0  0  0  0  2  0  0  0  0  0  0
  181.8120  179.1200  143.3990 C   0  0  0  0  0  2  0  0  0  0  0  0
  180.7670  178.5660  142.5600 N   0  0  0  0  0  2  0  0  0  0  0  0
  180.5790  179.4960  141.4610 C   0  0  0  0  0  2  0  0  0  0  0  0
  180.3250  178.7250  140.1840 C   0  0  0  0  0  1  0  0  0  0  0  0
  1  3  1  0  0  0  0
  2 11  1  0  0  0  0
  2 12  2  0  0  0  0
  4  1  2  0  0  0  0
  5 10  1  0  0  0  0
  5  6  2  0  0  0  0
  6  7  1  0  0  0  0
  7 12  1  0  0  0  0
  7  9  2  0  0  0  0
  8 13  2  0  0  0  0
  8  3  1  0  0  0  0
  9 13  1  0  0  0  0
 10  2  1  0  0  0  0
 11  4  1  0  0  0  0
 12  8  1  0  0  0  0
 14 22  1  1  0  0  0
 14  6  1  0  0  0  0
 15 17  2  0  0  0  0
 16 18  2  0  0  0  0
 17 18  1  0  0  0  0
 18 14  1  0  0  0  0
 19 15  1  0  0  0  0
 19 16  1  0  0  0  0
 20 21  3  0  0  0  0
 21 15  1  0  0  0  0
 22 23  1  0  0  0  0
 24 23  1  0  0  0  0
 25 24  1  0  0  0  0
 26 25  1  0  0  0  0
M  END
>  <MODEL>
4

>  <REMARK>
 VINA RESULT:      -7.4      2.122      4.178
  Name = 
  7 active torsions:
  status: ('A' for Active; 'I' for Inactive)
    1  A    between atoms: C_5  and  C_25
    2  A    between atoms: C_7  and  N_20
    3  A    between atoms: C_8  and  C_16
    4  A    between atoms: C_11  and  C_15
    5  A    between atoms: C_11  and  C_16
    6  A    between atoms: C_15  and  N_20
    7  A    between atoms: C_16  and  C_21
                            x       y       z     vdW  Elec       q    Type
                         _______ _______ _______ _____ _____    ______ ____

>  <TORSDO>
F 7

$$$$
=
 OpenBabel10232407533D

 26 29  0  0  1  0  0  0  0  0999 V2000
  189.7550  177.6970  146.0340 C   0  0  0  0  0  3  0  0  0  0  0  0
  188.2830  177.2760  143.3140 C   0  0  0  0  0  0  0  0  0  0  0  0
  190.7020  176.7740  145.3130 C   0  0  0  0  0  2  0  0  0  0  0  0
  188.4430  177.7910  145.7540 C   0  0  0  0  0  3  0  0  0  0  0  0
  187.8770  177.7780  141.0450 C   0  0  0  0  0  3  0  0  0  0  0  0
  189.2520  177.7860  140.7120 C   0  0  0  0  0  0  0  0  0  0  0  0
  190.1360  177.5180  141.7490 C   0  0  0  0  0  0  0  0  0  0  0  0
  190.7430  177.0780  143.8490 C   0  0  0  0  0  0  0  0  0  0  0  0
  191.5150  177.4590  141.8260 C   0  0  0  0  0  3  0  0  0  0  0  0
  187.4530  177.5310  142.2970 O   0  0  0  0  0  0  0  0  0  0  0  0
  187.7520  176.9810  144.6860 C   0  0  0  0  0  2  0  0  0  0  0  0
  189.6450  177.2570  143.0520 C   0  0  0  0  0  0  0  0  0  0  0  0
  191.8750  177.1870  143.1110 N   0  0  0  0  0  0  0  0  0  0  0  0
  189.7410  178.0580  139.3210 C   0  0  1  0  0  3  0  0  0  0  0  0
  192.2430  175.8290  138.1760 C   0  0  0  0  0  0  0  0  0  0  0  0
  190.1630  175.6770  138.6300 N   0  0  0  0  0  0  0  0  0  0  0  0
  191.9120  177.0790  138.5510 N   0  0  0  0  0  0  0  0  0  0  0  0
  190.6000  176.9360  138.8210 C   0  0  0  0  0  0  0  0  0  0  0  0
  191.2040  174.9760  138.2190 N   0  0  0  0  0  2  0  0  0  0  0  0
  194.6360  175.1360  137.4550 N   0  0  0  0  0  0  0  0  0  0  0  0
  193.5670  175.4460  137.7770 C   0  0  0  0  0  0  0  0  0  0  0  0
  188.5820  178.3540  138.3750 C   0  0  0  0  0  2  0  0  0  0  0  0
  189.1030  178.7280  137.0000 C   0  0  0  0  0  2  0  0  0  0  0  0
  188.4820  177.8800  136.0020 N   0  0  0  0  0  2  0  0  0  0  0  0
  189.5580  177.2120  135.2930 C   0  0  0  0  0  2  0  0  0  0  0  0
  189.2400  175.7380  135.1640 C   0  0  0  0  0  1  0  0  0  0  0  0
  2 11  1  0  0  0  0
  3  1  1  0  0  0  0
  4  1  2  0  0  0  0
  5 10  1  0  0  0  0
  6  5  2  0  0  0  0
  6  7  1  0  0  0  0
  7  9  2  0  0  0  0
  7 12  1  0  0  0  0
  8  3  1  0  0  0  0
  9 13  1  0  0  0  0
 10  2  1  0  0  0  0
 11  4  1  0  0  0  0
 12  2  2  0  0  0  0
 12  8  1  0  0  0  0
 13  8  2  0  0  0  0
 14 22  1  6  0  0  0
 14  6  1  0  0  0  0
 15 19  1  0  0  0  0
 15 17  2  0  0  0  0
 16 18  2  0  0  0  0
 17 18  1  0  0  0  0
 18 14  1  0  0  0  0
 19 16  1  0  0  0  0
 20 21  3  0  0  0  0
 21 15  1  0  0  0  0
 23 22  1  0  0  0  0
 24 23  1  0  0  0  0
 25 24  1  0  0  0  0
 26 25  1  0  0  0  0
M  END
>  <MODEL>
5

>  <REMARK>
 VINA RESULT:      -7.1      3.600      5.773
  Name = 
  7 active torsions:
  status: ('A' for Active; 'I' for Inactive)
    1  A    between atoms: C_5  and  C_25
    2  A    between atoms: C_7  and  N_20
    3  A    between atoms: C_8  and  C_16
    4  A    between atoms: C_11  and  C_15
    5  A    between atoms: C_11  and  C_16
    6  A    between atoms: C_15  and  N_20
    7  A    between atoms: C_16  and  C_21
                            x       y       z     vdW  Elec       q    Type
                         _______ _______ _______ _____ _____    ______ ____

>  <TORSDO>
F 7

$$$$
=
 OpenBabel10232407533D

 26 29  0  0  1  0  0  0  0  0999 V2000
  189.7410  176.7900  137.3980 C   0  0  0  0  0  3  0  0  0  0  0  0
  188.2480  178.3500  139.6530 C   0  0  0  0  0  0  0  0  0  0  0  0
  190.8350  176.9770  138.4170 C   0  0  0  0  0  2  0  0  0  0  0  0
  188.6570  177.5820  137.3110 C   0  0  0  0  0  3  0  0  0  0  0  0
  187.0550  178.4780  141.6840 C   0  0  0  0  0  3  0  0  0  0  0  0
  187.9630  177.6370  142.3700 C   0  0  0  0  0  0  0  0  0  0  0  0
  189.0400  177.1650  141.6300 C   0  0  0  0  0  0  0  0  0  0  0  0
  190.2960  176.8820  139.8100 C   0  0  0  0  0  0  0  0  0  0  0  0
  190.0990  176.3270  141.9280 C   0  0  0  0  0  3  0  0  0  0  0  0
  187.2250  178.7950  140.3880 O   0  0  0  0  0  0  0  0  0  0  0  0
  188.4010  178.7590  138.2170 C   0  0  0  0  0  2  0  0  0  0  0  0
  189.1820  177.5300  140.2690 C   0  0  0  0  0  0  0  0  0  0  0  0
  190.8610  176.1630  140.8110 N   0  0  0  0  0  0  0  0  0  0  0  0
  187.7900  177.2750  143.8140 C   0  0  1  0  0  3  0  0  0  0  0  0
  190.7070  177.1360  145.8180 C   0  0  0  0  0  0  0  0  0  0  0  0
  189.8490  178.5570  144.4750 N   0  0  0  0  0  0  0  0  0  0  0  0
  189.5710  176.5380  145.4110 N   0  0  0  0  0  0  0  0  0  0  0  0
  189.0660  177.4660  144.5750 C   0  0  0  0  0  0  0  0  0  0  0  0
  190.8880  178.3480  145.2640 N   0  0  0  0  0  2  0  0  0  0  0  0
  192.3730  176.0610  147.4890 N   0  0  0  0  0  0  0  0  0  0  0  0
  191.6280  176.5410  146.7430 C   0  0  0  0  0  0  0  0  0  0  0  0
  186.6300  178.0400  144.4410 C   0  0  0  0  0  2  0  0  0  0  0  0
  186.3010  177.4750  145.8100 C   0  0  0  0  0  2  0  0  0  0  0  0
  186.7740  178.3860  146.8340 N   0  0  0  0  0  2  0  0  0  0  0  0
  187.4450  177.5760  147.8350 C   0  0  0  0  0  2  0  0  0  0  0  0
  188.4810  178.4150  148.5520 C   0  0  0  0  0  1  0  0  0  0  0  0
  1  3  1  0  0  0  0
  2 12  2  0  0  0  0
  2 10  1  0  0  0  0
  3  8  1  0  0  0  0
  4  1  2  0  0  0  0
  4 11  1  0  0  0  0
  5  6  2  0  0  0  0
  6 14  1  0  0  0  0
  7  9  2  0  0  0  0
  7  6  1  0  0  0  0
  8 12  1  0  0  0  0
  8 13  2  0  0  0  0
 10  5  1  0  0  0  0
 11  2  1  0  0  0  0
 12  7  1  0  0  0  0
 13  9  1  0  0  0  0
 14 22  1  1  0  0  0
 14 18  1  0  0  0  0
 15 21  1  0  0  0  0
 16 18  2  0  0  0  0
 16 19  1  0  0  0  0
 17 15  2  0  0  0  0
 18 17  1  0  0  0  0
 19 15  1  0  0  0  0
 21 20  3  0  0  0  0
 22 23  1  0  0  0  0
 23 24  1  0  0  0  0
 24 25  1  0  0  0  0
 25 26  1  0  0  0  0
M  END
>  <MODEL>
6

>  <REMARK>
 VINA RESULT:      -7.1      3.339      7.568
  Name = 
  7 active torsions:
  status: ('A' for Active; 'I' for Inactive)
    1  A    between atoms: C_5  and  C_25
    2  A    between atoms: C_7  and  N_20
    3  A    between atoms: C_8  and  C_16
    4  A    between atoms: C_11  and  C_15
    5  A    between atoms: C_11  and  C_16
    6  A    between atoms: C_15  and  N_20
    7  A    between atoms: C_16  and  C_21
                            x       y       z     vdW  Elec       q    Type
                         _______ _______ _______ _____ _____    ______ ____

>  <TORSDO>
F 7

$$$$
=
 OpenBabel10232407533D

 26 29  0  0  1  0  0  0  0  0999 V2000
  188.4000  178.2560  136.6680 C   0  0  0  0  0  3  0  0  0  0  0  0
  189.8490  176.7370  138.9790 C   0  0  0  0  0  0  0  0  0  0  0  0
  187.2660  178.0070  137.6290 C   0  0  0  0  0  2  0  0  0  0  0  0
  189.5220  177.5160  136.6270 C   0  0  0  0  0  3  0  0  0  0  0  0
  190.9450  176.6390  141.0650 C   0  0  0  0  0  3  0  0  0  0  0  0
  189.9660  177.4300  141.7130 C   0  0  0  0  0  0  0  0  0  0  0  0
  188.9070  177.8610  140.9260 C   0  0  0  0  0  0  0  0  0  0  0  0
  187.7300  178.1090  139.0480 C   0  0  0  0  0  0  0  0  0  0  0  0
  187.7970  178.6460  141.1790 C   0  0  0  0  0  3  0  0  0  0  0  0
  190.8550  176.3300  139.7590 O   0  0  0  0  0  0  0  0  0  0  0  0
  189.7870  176.3400  137.5320 C   0  0  0  0  0  2  0  0  0  0  0  0
  188.8490  177.5070  139.5550 C   0  0  0  0  0  0  0  0  0  0  0  0
  187.0850  178.7890  140.0270 N   0  0  0  0  0  0  0  0  0  0  0  0
  190.0510  177.7810  143.1680 C   0  0  1  0  0  3  0  0  0  0  0  0
  187.0330  177.7430  145.0210 C   0  0  0  0  0  0  0  0  0  0  0  0
  188.0450  176.3740  143.7320 N   0  0  0  0  0  0  0  0  0  0  0  0
  188.1480  178.4090  144.6680 N   0  0  0  0  0  0  0  0  0  0  0  0
  188.7520  177.5120  143.8650 C   0  0  0  0  0  0  0  0  0  0  0  0
  186.9560  176.5200  144.4660 N   0  0  0  0  0  2  0  0  0  0  0  0
  185.2210  178.7160  146.5990 N   0  0  0  0  0  0  0  0  0  0  0  0
  186.0300  178.2820  145.8940 C   0  0  0  0  0  0  0  0  0  0  0  0
  191.2190  177.0700  143.8420 C   0  0  0  0  0  2  0  0  0  0  0  0
  191.2660  177.4130  145.3190 C   0  0  0  0  0  2  0  0  0  0  0  0
  191.9090  176.3340  146.0440 N   0  0  0  0  0  2  0  0  0  0  0  0
  191.4000  176.3830  147.4030 C   0  0  0  0  0  2  0  0  0  0  0  0
  189.9820  176.9130  147.3920 C   0  0  0  0  0  1  0  0  0  0  0  0
  1  3  1  0  0  0  0
  2 12  2  0  0  0  0
  2 10  1  0  0  0  0
  3  8  1  0  0  0  0
  4  1  2  0  0  0  0
  4 11  1  0  0  0  0
  5  6  2  0  0  0  0
  6 14  1  0  0  0  0
  7  9  2  0  0  0  0
  7  6  1  0  0  0  0
  8 12  1  0  0  0  0
  8 13  2  0  0  0  0
 10  5  1  0  0  0  0
 11  2  1  0  0  0  0
 12  7  1  0  0  0  0
 13  9  1  0  0  0  0
 14 22  1  1  0  0  0
 14 18  1  0  0  0  0
 15 21  1  0  0  0  0
 16 18  2  0  0  0  0
 16 19  1  0  0  0  0
 17 15  2  0  0  0  0
 18 17  1  0  0  0  0
 19 15  1  0  0  0  0
 21 20  3  0  0  0  0
 22 23  1  0  0  0  0
 23 24  1  0  0  0  0
 24 25  1  0  0  0  0
 26 25  1  0  0  0  0
M  END
>  <MODEL>
7

>  <REMARK>
 VINA RESULT:      -7.0      2.896      7.272
  Name = 
  7 active torsions:
  status: ('A' for Active; 'I' for Inactive)
    1  A    between atoms: C_5  and  C_25
    2  A    between atoms: C_7  and  N_20
    3  A    between atoms: C_8  and  C_16
    4  A    between atoms: C_11  and  C_15
    5  A    between atoms: C_11  and  C_16
    6  A    between atoms: C_15  and  N_20
    7  A    between atoms: C_16  and  C_21
                            x       y       z     vdW  Elec       q    Type
                         _______ _______ _______ _____ _____    ______ ____

>  <TORSDO>
F 7

$$$$
=
 OpenBabel10232407533D

 26 29  0  0  1  0  0  0  0  0999 V2000
  182.7540  178.4300  140.9530 C   0  0  0  0  0  3  0  0  0  0  0  0
  184.6890  178.4760  143.4020 C   0  0  0  0  0  0  0  0  0  0  0  0
  183.8490  179.3410  140.4610 C   0  0  0  0  0  2  0  0  0  0  0  0
  182.4850  178.2180  142.2530 C   0  0  0  0  0  3  0  0  0  0  0  0
  186.5740  177.7250  144.6050 C   0  0  0  0  0  3  0  0  0  0  0  0
  187.4240  177.7780  143.4740 C   0  0  0  0  0  0  0  0  0  0  0  0
  186.8410  178.2090  142.2890 C   0  0  0  0  0  0  0  0  0  0  0  0
  185.1860  178.8960  140.9620 C   0  0  0  0  0  0  0  0  0  0  0  0
  187.3210  178.3710  141.0030 C   0  0  0  0  0  3  0  0  0  0  0  0
  185.2750  178.0650  144.5310 O   0  0  0  0  0  0  0  0  0  0  0  0
  183.2400  178.8680  143.3850 C   0  0  0  0  0  2  0  0  0  0  0  0
  185.4700  178.5630  142.2590 C   0  0  0  0  0  0  0  0  0  0  0  0
  186.3030  178.7930  140.2020 N   0  0  0  0  0  0  0  0  0  0  0  0
  188.8740  177.4050  143.5400 C   0  0  1  0  0  3  0  0  0  0  0  0
  190.5180  176.9770  146.6470 C   0  0  0  0  0  0  0  0  0  0  0  0
  188.6960  177.8840  146.0020 N   0  0  0  0  0  0  0  0  0  0  0  0
  190.5120  176.7590  145.3190 N   0  0  0  0  0  0  0  0  0  0  0  0
  189.3510  177.3410  144.9580 C   0  0  0  0  0  0  0  0  0  0  0  0
  189.4350  177.6520  147.0730 N   0  0  0  0  0  2  0  0  0  0  0  0
  192.4200  176.1860  148.2210 N   0  0  0  0  0  0  0  0  0  0  0  0
  191.5710  176.5390  147.5180 C   0  0  0  0  0  0  0  0  0  0  0  0
  189.1450  176.1070  142.7870 C   0  0  0  0  0  2  0  0  0  0  0  0
  190.5000  176.1630  142.1070 C   0  0  0  0  0  2  0  0  0  0  0  0
  190.7000  177.4820  141.5380 N   0  0  0  0  0  2  0  0  0  0  0  0
  191.3850  177.2900  140.2720 C   0  0  0  0  0  2  0  0  0  0  0  0
  190.4750  176.5530  139.3130 C   0  0  0  0  0  1  0  0  0  0  0  0
  1  4  2  0  0  0  0
  2 10  1  0  0  0  0
  3  1  1  0  0  0  0
  3  8  1  0  0  0  0
  4 11  1  0  0  0  0
  6 14  1  0  0  0  0
  6  5  2  0  0  0  0
  7  6  1  0  0  0  0
  8 12  1  0  0  0  0
  9  7  2  0  0  0  0
 10  5  1  0  0  0  0
 11  2  1  0  0  0  0
 12  7  1  0  0  0  0
 12  2  2  0  0  0  0
 13  8  2  0  0  0  0
 13  9  1  0  0  0  0
 14 22  1  1  0  0  0
 14 18  1  0  0  0  0
 15 19  1  0  0  0  0
 15 21  1  0  0  0  0
 16 19  1  0  0  0  0
 17 15  2  0  0  0  0
 18 17  1  0  0  0  0
 18 16  2  0  0  0  0
 21 20  3  0  0  0  0
 23 22  1  0  0  0  0
 24 23  1  0  0  0  0
 25 24  1  0  0  0  0
 26 25  1  0  0  0  0
M  END
>  <MODEL>
8

>  <REMARK>
 VINA RESULT:      -7.0      2.110      6.513
  Name = 
  7 active torsions:
  status: ('A' for Active; 'I' for Inactive)
    1  A    between atoms: C_5  and  C_25
    2  A    between atoms: C_7  and  N_20
    3  A    between atoms: C_8  and  C_16
    4  A    between atoms: C_11  and  C_15
    5  A    between atoms: C_11  and  C_16
    6  A    between atoms: C_15  and  N_20
    7  A    between atoms: C_16  and  C_21
                            x       y       z     vdW  Elec       q    Type
                         _______ _______ _______ _____ _____    ______ ____

>  <TORSDO>
F 7

$$$$
=
 OpenBabel10232407533D

 26 29  0  0  1  0  0  0  0  0999 V2000
  190.1780  176.4580  138.8610 C   0  0  0  0  0  3  0  0  0  0  0  0
  187.9840  178.2440  140.1810 C   0  0  0  0  0  0  0  0  0  0  0  0
  190.9590  177.1490  139.9480 C   0  0  0  0  0  2  0  0  0  0  0  0
  189.0450  176.9480  138.3270 C   0  0  0  0  0  3  0  0  0  0  0  0
  186.3350  178.6880  141.8090 C   0  0  0  0  0  3  0  0  0  0  0  0
  187.1640  178.2830  142.8830 C   0  0  0  0  0  0  0  0  0  0  0  0
  188.4420  177.8580  142.5440 C   0  0  0  0  0  0  0  0  0  0  0  0
  190.1230  177.3410  141.1740 C   0  0  0  0  0  0  0  0  0  0  0  0
  189.5070  177.3790  143.2840 C   0  0  0  0  0  3  0  0  0  0  0  0
  186.7620  178.6540  140.5340 O   0  0  0  0  0  0  0  0  0  0  0  0
  188.4150  178.2530  138.7430 C   0  0  0  0  0  2  0  0  0  0  0  0
  188.8510  177.8450  141.1880 C   0  0  0  0  0  0  0  0  0  0  0  0
  190.5290  177.0690  142.4380 N   0  0  0  0  0  0  0  0  0  0  0  0
  186.7050  178.3160  144.3090 C   0  0  1  0  0  3  0  0  0  0  0  0
  183.2270  178.8720  143.9360 C   0  0  0  0  0  0  0  0  0  0  0  0
  184.6490  179.1270  145.5080 N   0  0  0  0  0  0  0  0  0  0  0  0
  184.3860  178.4700  143.3800 N   0  0  0  0  0  0  0  0  0  0  0  0
  185.2470  178.6510  144.4000 C   0  0  0  0  0  0  0  0  0  0  0  0
  183.3680  179.2680  145.2130 N   0  0  0  0  0  2  0  0  0  0  0  0
  180.9600  178.8750  142.6780 N   0  0  0  0  0  0  0  0  0  0  0  0
  181.9730  178.8730  143.2390 C   0  0  0  0  0  0  0  0  0  0  0  0
  187.0370  177.0130  145.0270 C   0  0  0  0  0  2  0  0  0  0  0  0
  187.5040  177.2930  146.4430 C   0  0  0  0  0  2  0  0  0  0  0  0
  188.9250  177.0230  146.5440 N   0  0  0  0  0  2  0  0  0  0  0  0
  189.3610  177.5560  147.8220 C   0  0  0  0  0  2  0  0  0  0  0  0
  188.1790  178.1640  148.5460 C   0  0  0  0  0  1  0  0  0  0  0  0
  1  3  1  0  0  0  0
  2 10  1  0  0  0  0
  2 12  2  0  0  0  0
  3  8  1  0  0  0  0
  4 11  1  0  0  0  0
  4  1  2  0  0  0  0
  5  6  2  0  0  0  0
  6 14  1  0  0  0  0
  7  6  1  0  0  0  0
  7  9  2  0  0  0  0
  8 12  1  0  0  0  0
  8 13  2  0  0  0  0
 10  5  1  0  0  0  0
 11  2  1  0  0  0  0
 12  7  1  0  0  0  0
 13  9  1  0  0  0  0
 14 18  1  0  0  0  0
 14 22  1  6  0  0  0
 15 19  1  0  0  0  0
 17 15  2  0  0  0  0
 17 18  1  0  0  0  0
 18 16  2  0  0  0  0
 19 16  1  0  0  0  0
 20 21  3  0  0  0  0
 21 15  1  0  0  0  0
 22 23  1  0  0  0  0
 23 24  1  0  0  0  0
 24 25  1  0  0  0  0
 25 26  1  0  0  0  0
M  END
>  <MODEL>
9

>  <REMARK>
 VINA RESULT:      -6.8      2.089      5.831
  Name = 
  7 active torsions:
  status: ('A' for Active; 'I' for Inactive)
    1  A    between atoms: C_5  and  C_25
    2  A    between atoms: C_7  and  N_20
    3  A    between atoms: C_8  and  C_16
    4  A    between atoms: C_11  and  C_15
    5  A    between atoms: C_11  and  C_16
    6  A    between atoms: C_15  and  N_20
    7  A    between atoms: C_16  and  C_21
                            x       y       z     vdW  Elec       q    Type
                         _______ _______ _______ _____ _____    ______ ____

>  <TORSDO>
F 7

$$$$
