=
 OpenBabel10232410093D

 62 68  0  0  1  0  0  0  0  0999 V2000
  189.3470  176.7610  137.9560 C   0  0  0  0  0  2  0  0  0  0  0  0
  187.6610  177.9770  139.3870 N   0  0  0  0  0  0  0  0  0  0  0  0
  190.5540  177.1980  141.4860 O   0  0  0  0  0  1  0  0  0  0  0  0
  189.6300  177.0590  140.4760 C   0  0  1  0  0  3  0  0  0  0  0  0
  188.8200  178.3500  140.2000 C   0  0  0  0  0  2  0  0  0  0  0  0
  187.8940  176.9350  138.2980 C   0  0  1  0  0  3  0  0  0  0  0  0
  190.2870  176.5050  139.1940 C   0  0  2  0  0  3  0  0  0  0  0  0
  186.2030  178.3210  141.4770 C   0  0  0  0  0  3  0  0  0  0  0  0
  183.9840  178.8150  139.9750 C   0  0  0  0  0  0  0  0  0  0  0  0
  186.3930  178.3130  140.0430 C   0  0  0  0  0  0  0  0  0  0  0  0
  183.7590  178.7360  141.3170 C   0  0  0  0  0  0  0  0  0  0  0  0
  182.9560  179.0760  139.1770 F   0  0  0  0  0  0  0  0  0  0  0  0
  184.9110  178.6810  142.0310 C   0  0  0  0  0  0  0  0  0  0  0  0
  182.3830  178.8570  141.8920 C   0  0  0  0  0  1  0  0  0  0  0  0
  185.2740  178.7860  139.3750 C   0  0  0  0  0  3  0  0  0  0  0  0
  185.0820  180.3900  143.6530 O   0  0  0  0  0  0  0  0  0  0  0  0
  184.8180  179.1900  143.4020 C   0  0  0  0  0  0  0  0  0  0  0  0
  184.7500  178.3010  144.5090 C   0  0  0  0  0  2  0  0  0  0  0  0
  185.0940  179.1110  145.7280 C   0  0  0  0  0  2  0  0  0  0  0  0
  186.4170  178.7520  146.1490 N   0  0  0  0  0  2  0  0  0  0  0  0
  186.6500  177.3530  145.8050 C   0  0  0  0  0  2  0  0  0  0  0  0
  188.9020  177.6790  144.7060 C   0  0  0  0  0  2  0  0  0  0  0  0
  190.2720  176.9200  144.8320 C   0  0  0  0  0  2  0  0  0  0  0  0
  189.8350  176.7940  147.3790 C   0  0  0  0  0  2  0  0  0  0  0  0
  188.0670  177.2050  145.8220 C   0  0  1  0  0  3  0  0  0  0  0  0
  188.6550  177.6630  147.1780 C   0  0  0  0  0  2  0  0  0  0  0  0
  190.8460  177.0530  146.2760 C   0  0  1  0  0  3  0  0  0  0  0  0
  192.2550  175.7380  147.8920 N   0  0  0  0  0  1  0  0  0  0  0  0
  192.0410  176.1340  146.4760 C   0  0  0  0  0  2  0  0  0  0  0  0
  186.9510  176.5710  137.1340 C   0  0  0  0  0  0  0  0  0  0  0  0
  185.4880  174.9220  136.1110 C   0  0  0  0  0  0  0  0  0  0  0  0
  186.4880  177.4450  136.0770 C   0  0  0  0  0  3  0  0  0  0  0  0
  184.9920  175.7330  135.1150 C   0  0  0  0  0  0  0  0  0  0  0  0
  184.6300  173.9940  136.5420 F   0  0  0  0  0  0  0  0  0  0  0  0
  185.4610  177.0070  135.1590 C   0  0  0  0  0  3  0  0  0  0  0  0
  186.4670  175.2970  137.0270 C   0  0  0  0  0  3  0  0  0  0  0  0
  183.7570  175.3220  134.3470 C   0  0  0  0  0  2  0  0  0  0  0  0
  180.5490  174.9090  136.8680 N   0  0  0  0  0  0  0  0  0  0  0  0
  181.1780  175.4050  134.4980 C   0  0  0  0  0  2  0  0  0  0  0  0
  182.4860  176.5170  136.4490 C   0  0  0  0  0  2  0  0  0  0  0  0
  180.7180  174.3150  135.4950 C   0  0  0  0  0  2  0  0  0  0  0  0
  182.4900  175.9920  134.9260 C   0  0  1  0  0  3  0  0  0  0  0  0
  181.4160  175.8470  137.3800 C   0  0  0  0  0  0  0  0  0  0  0  0
  180.4110  176.7470  139.3550 O   0  0  0  0  0  0  0  0  0  0  0  0
  182.3650  175.7830  139.7320 O   0  0  0  0  0  1  0  0  0  0  0  0
  181.3470  176.1450  138.8730 C   0  0  0  0  0  0  0  0  0  0  0  0
  191.7620  177.0040  138.9360 C   0  0  0  0  0  2  0  0  0  0  0  0
  193.0480  175.4340  136.7650 C   0  0  1  0  0  3  0  0  0  0  0  0
  192.2000  175.1030  137.8610 C   0  0  0  0  0  2  0  0  0  0  0  0
  192.4280  176.5590  137.6460 N   0  0  0  0  0  0  0  0  0  0  0  0
  197.5500  173.8530  136.4700 N   0  0  0  0  0  0  0  0  0  0  0  0
  197.8830  176.0650  135.9770 O   0  0  0  0  0  0  0  0  0  0  0  0
  196.9880  175.1940  136.2480 C   0  0  0  0  0  0  0  0  0  0  0  0
  195.8610  172.6750  137.6090 O   0  0  0  0  0  0  0  0  0  0  0  0
  195.6260  175.5780  136.2890 N   0  0  0  0  0  2  0  0  0  0  0  0
  194.5120  174.9310  137.0180 C   0  0  1  0  0  3  0  0  0  0  0  0
  195.0730  174.0410  138.5000 S   0  0  0  0  0  0  0  0  0  0  0  0
  197.1100  172.7760  136.9770 C   0  0  0  0  0  0  0  0  0  0  0  0
  198.0810  171.6570  137.0910 C   0  0  0  0  0  2  0  0  0  0  0  0
  196.8480  169.4850  136.3640 C   0  0  0  0  0  1  0  0  0  0  0  0
  197.6490  170.2240  137.3930 C   0  0  0  0  0  3  0  0  0  0  0  0
  198.8220  169.3600  137.9460 C   0  0  0  0  0  1  0  0  0  0  0  0
  1  6  1  0  0  0  0
  1  7  1  0  0  0  0
  2 10  1  0  0  0  0
  2  5  1  0  0  0  0
  4  3  1  1  0  0  0
  5  4  1  0  0  0  0
  6 30  1  6  0  0  0
  6  2  1  0  0  0  0
  7 47  1  6  0  0  0
  7  4  1  0  0  0  0
  8 13  1  0  0  0  0
  9 11  1  0  0  0  0
 10  8  2  0  0  0  0
 11 14  1  0  0  0  0
 11 13  2  0  0  0  0
 12  9  1  0  0  0  0
 13 17  1  0  0  0  0
 15  9  2  0  0  0  0
 15 10  1  0  0  0  0
 17 16  2  0  0  0  0
 17 18  1  0  0  0  0
 18 19  1  0  0  0  0
 19 20  1  0  0  0  0
 21 20  1  0  0  0  0
 22 23  1  0  0  0  0
 22 25  1  0  0  0  0
 23 27  1  0  0  0  0
 25 21  1  6  0  0  0
 25 26  1  0  0  0  0
 26 24  1  0  0  0  0
 27 29  1  6  0  0  0
 27 24  1  0  0  0  0
 29 28  1  0  0  0  0
 31 34  1  0  0  0  0
 31 36  2  0  0  0  0
 32 30  2  0  0  0  0
 33 35  2  0  0  0  0
 33 31  1  0  0  0  0
 35 32  1  0  0  0  0
 36 30  1  0  0  0  0
 37 33  1  0  0  0  0
 38 43  2  0  0  0  0
 39 42  1  0  0  0  0
 39 41  1  0  0  0  0
 40 43  1  0  0  0  0
 41 38  1  0  0  0  0
 42 37  1  1  0  0  0
 42 40  1  0  0  0  0
 43 46  1  0  0  0  0
 46 44  2  0  0  0  0
 46 45  1  0  0  0  0
 48 56  1  0  0  0  0
 48 50  1  0  0  0  0
 48 49  1  1  0  0  0
 50 49  1  0  0  0  0
 50 47  1  0  0  0  0
 51 58  2  0  0  0  0
 52 53  2  0  0  0  0
 53 55  1  0  0  0  0
 53 51  1  0  0  0  0
 54 57  1  0  0  0  0
 56 55  1  1  0  0  0
 56 57  1  0  0  0  0
 58 59  1  0  0  0  0
 58 54  1  0  0  0  0
 59 61  1  0  0  0  0
 60 61  1  0  0  0  0
 61 62  1  0  0  0  0
M  END
>  <MODEL>
1

>  <REMARK>
 VINA RESULT:      -8.5      0.000      0.000
  Name = 
  17 active torsions:
  status: ('A' for Active; 'I' for Inactive)
    1  A    between atoms: C_1  and  N_35
    2  A    between atoms: C_1  and  C_60
    3  A    between atoms: C_2  and  C_49
    4  A    between atoms: C_5  and  C_48
    5  A    between atoms: C_11  and  C_41
    6  A    between atoms: N_14  and  C_17
    7  A    between atoms: N_14  and  C_33
    8  A    between atoms: C_17  and  C_36
    9  A    between atoms: C_18  and  C_29
   10  A    between atoms: N_22  and  C_28
   11  A    between atoms: C_29  and  C_47
   12  A    between atoms: C_33  and  C_52
   13  A    between atoms: C_36  and  C_54
   14  A    between atoms: C_40  and  C_54
   15  A    between atoms: C_41  and  C_62
   16  A    between atoms: C_53  and  C_58
   17  A    between atoms: CA_56  and  C_61
                            x       y       z     vdW  Elec       q    Type
                         _______ _______ _______ _____ _____    ______ ____

>  <TORSDO>
F 17

$$$$
=
 OpenBabel10232410093D

 62 68  0  0  1  0  0  0  0  0999 V2000
  189.0950  176.8120  137.6520 C   0  0  0  0  0  2  0  0  0  0  0  0
  187.4540  178.0170  139.1430 N   0  0  0  0  0  0  0  0  0  0  0  0
  190.4620  177.3360  141.1100 O   0  0  0  0  0  1  0  0  0  0  0  0
  189.4940  177.1600  140.1490 C   0  0  1  0  0  3  0  0  0  0  0  0
  188.6430  178.4280  139.8930 C   0  0  0  0  0  2  0  0  0  0  0  0
  187.6560  176.9610  138.0620 C   0  0  1  0  0  3  0  0  0  0  0  0
  190.0990  176.5970  138.8470 C   0  0  2  0  0  3  0  0  0  0  0  0
  186.0680  178.2760  141.2930 C   0  0  0  0  0  3  0  0  0  0  0  0
  183.8120  178.8780  139.8890 C   0  0  0  0  0  0  0  0  0  0  0  0
  186.2130  178.3380  139.8550 C   0  0  0  0  0  0  0  0  0  0  0  0
  183.6270  178.7350  141.2320 C   0  0  0  0  0  0  0  0  0  0  0  0
  182.7630  179.1940  139.1380 F   0  0  0  0  0  0  0  0  0  0  0  0
  184.7990  178.6270  141.9060 C   0  0  0  0  0  0  0  0  0  0  0  0
  182.2710  178.8460  141.8550 C   0  0  0  0  0  1  0  0  0  0  0  0
  185.0820  178.8610  139.2480 C   0  0  0  0  0  3  0  0  0  0  0  0
  184.8900  180.2800  143.5900 O   0  0  0  0  0  0  0  0  0  0  0  0
  184.7570  179.0670  143.3030 C   0  0  0  0  0  0  0  0  0  0  0  0
  184.8910  178.1340  144.3670 C   0  0  0  0  0  2  0  0  0  0  0  0
  184.8300  178.9300  145.6410 C   0  0  0  0  0  2  0  0  0  0  0  0
  186.1450  178.9630  146.2140 N   0  0  0  0  0  2  0  0  0  0  0  0
  186.4650  177.6310  146.7170 C   0  0  0  0  0  2  0  0  0  0  0  0
  188.3730  177.7880  145.0670 C   0  0  0  0  0  2  0  0  0  0  0  0
  189.7250  177.0010  144.9190 C   0  0  0  0  0  2  0  0  0  0  0  0
  189.9400  177.1190  147.4950 C   0  0  0  0  0  2  0  0  0  0  0  0
  187.8410  177.4420  146.3950 C   0  0  1  0  0  3  0  0  0  0  0  0
  188.7520  178.0020  147.5120 C   0  0  0  0  0  2  0  0  0  0  0  0
  190.6440  177.2470  146.1560 C   0  0  1  0  0  3  0  0  0  0  0  0
  192.0240  175.5530  147.4010 N   0  0  0  0  0  1  0  0  0  0  0  0
  191.8440  176.3130  146.1370 C   0  0  0  0  0  2  0  0  0  0  0  0
  186.6660  176.5560  136.9520 C   0  0  0  0  0  0  0  0  0  0  0  0
  185.1880  174.8610  136.0320 C   0  0  0  0  0  0  0  0  0  0  0  0
  186.1350  177.4010  135.9030 C   0  0  0  0  0  3  0  0  0  0  0  0
  184.6290  175.6430  135.0470 C   0  0  0  0  0  0  0  0  0  0  0  0
  184.3700  173.9260  136.5220 F   0  0  0  0  0  0  0  0  0  0  0  0
  185.0740  176.9260  135.0440 C   0  0  0  0  0  3  0  0  0  0  0  0
  186.2030  175.2720  136.8920 C   0  0  0  0  0  3  0  0  0  0  0  0
  183.3670  175.1940  134.3460 C   0  0  0  0  0  2  0  0  0  0  0  0
  180.5050  174.6870  137.2400 N   0  0  0  0  0  0  0  0  0  0  0  0
  180.8240  175.0580  134.7860 C   0  0  0  0  0  2  0  0  0  0  0  0
  182.2200  176.4250  136.4990 C   0  0  0  0  0  2  0  0  0  0  0  0
  180.5820  174.0090  135.8980 C   0  0  0  0  0  2  0  0  0  0  0  0
  182.1110  175.7900  135.0230 C   0  0  1  0  0  3  0  0  0  0  0  0
  181.3280  175.7340  137.5880 C   0  0  0  0  0  0  0  0  0  0  0  0
  182.3090  175.7900  139.7680 O   0  0  0  0  0  1  0  0  0  0  0  0
  180.3850  176.8730  139.6500 O   0  0  0  0  0  0  0  0  0  0  0  0
  181.3910  176.1360  139.0560 C   0  0  0  0  0  0  0  0  0  0  0  0
  191.5490  177.1220  138.5080 C   0  0  0  0  0  2  0  0  0  0  0  0
  193.7610  175.3680  137.5800 C   0  0  1  0  0  3  0  0  0  0  0  0
  193.2390  176.6200  137.1460 C   0  0  0  0  0  2  0  0  0  0  0  0
  192.6550  176.0870  138.4090 N   0  0  0  0  0  0  0  0  0  0  0  0
  191.9200  171.6230  135.2460 N   0  0  0  0  0  0  0  0  0  0  0  0
  190.2920  173.1790  134.8260 O   0  0  0  0  0  0  0  0  0  0  0  0
  191.3980  172.9860  135.4360 C   0  0  0  0  0  0  0  0  0  0  0  0
  194.1950  171.7640  135.8300 O   0  0  0  0  0  0  0  0  0  0  0  0
  191.9710  174.0310  136.2000 N   0  0  0  0  0  2  0  0  0  0  0  0
  193.3910  174.2270  136.5680 C   0  0  1  0  0  3  0  0  0  0  0  0
  194.5320  173.4810  135.3660 S   0  0  0  0  0  0  0  0  0  0  0  0
  193.0420  171.0640  135.4410 C   0  0  0  0  0  0  0  0  0  0  0  0
  193.1570  169.6490  135.0050 C   0  0  0  0  0  2  0  0  0  0  0  0
  195.4670  168.4960  135.3280 C   0  0  0  0  0  1  0  0  0  0  0  0
  194.0320  168.6330  135.7380 C   0  0  0  0  0  3  0  0  0  0  0  0
  193.8760  168.7320  137.2860 C   0  0  0  0  0  1  0  0  0  0  0  0
  1  6  1  0  0  0  0
  1  7  1  0  0  0  0
  2 10  1  0  0  0  0
  2  5  1  0  0  0  0
  4  3  1  1  0  0  0
  5  4  1  0  0  0  0
  6 30  1  6  0  0  0
  6  2  1  0  0  0  0
  7 47  1  6  0  0  0
  7  4  1  0  0  0  0
  8 13  1  0  0  0  0
  9 11  1  0  0  0  0
 10  8  2  0  0  0  0
 11 14  1  0  0  0  0
 11 13  2  0  0  0  0
 12  9  1  0  0  0  0
 13 17  1  0  0  0  0
 15 10  1  0  0  0  0
 15  9  2  0  0  0  0
 17 16  2  0  0  0  0
 17 18  1  0  0  0  0
 18 19  1  0  0  0  0
 19 20  1  0  0  0  0
 20 21  1  0  0  0  0
 22 25  1  0  0  0  0
 23 22  1  0  0  0  0
 23 27  1  0  0  0  0
 24 26  1  0  0  0  0
 25 21  1  1  0  0  0
 25 26  1  0  0  0  0
 27 29  1  1  0  0  0
 27 24  1  0  0  0  0
 29 28  1  0  0  0  0
 31 34  1  0  0  0  0
 31 36  2  0  0  0  0
 32 30  2  0  0  0  0
 33 31  1  0  0  0  0
 35 33  2  0  0  0  0
 35 32  1  0  0  0  0
 36 30  1  0  0  0  0
 37 33  1  0  0  0  0
 38 43  2  0  0  0  0
 39 42  1  0  0  0  0
 39 41  1  0  0  0  0
 40 43  1  0  0  0  0
 41 38  1  0  0  0  0
 42 37  1  1  0  0  0
 42 40  1  0  0  0  0
 43 46  1  0  0  0  0
 46 45  2  0  0  0  0
 46 44  1  0  0  0  0
 48 49  1  6  0  0  0
 48 50  1  0  0  0  0
 49 50  1  0  0  0  0
 50 47  1  0  0  0  0
 51 53  1  0  0  0  0
 51 58  2  0  0  0  0
 52 53  2  0  0  0  0
 53 55  1  0  0  0  0
 55 56  1  0  0  0  0
 56 57  1  6  0  0  0
 56 48  1  0  0  0  0
 57 54  1  0  0  0  0
 58 54  1  0  0  0  0
 59 58  1  0  0  0  0
 59 61  1  0  0  0  0
 60 61  1  0  0  0  0
 61 62  1  0  0  0  0
M  END
>  <MODEL>
2

>  <REMARK>
 VINA RESULT:      -7.8      1.752      2.208
  Name = 
  17 active torsions:
  status: ('A' for Active; 'I' for Inactive)
    1  A    between atoms: C_1  and  N_35
    2  A    between atoms: C_1  and  C_60
    3  A    between atoms: C_2  and  C_49
    4  A    between atoms: C_5  and  C_48
    5  A    between atoms: C_11  and  C_41
    6  A    between atoms: N_14  and  C_17
    7  A    between atoms: N_14  and  C_33
    8  A    between atoms: C_17  and  C_36
    9  A    between atoms: C_18  and  C_29
   10  A    between atoms: N_22  and  C_28
   11  A    between atoms: C_29  and  C_47
   12  A    between atoms: C_33  and  C_52
   13  A    between atoms: C_36  and  C_54
   14  A    between atoms: C_40  and  C_54
   15  A    between atoms: C_41  and  C_62
   16  A    between atoms: C_53  and  C_58
   17  A    between atoms: CA_56  and  C_61
                            x       y       z     vdW  Elec       q    Type
                         _______ _______ _______ _____ _____    ______ ____

>  <TORSDO>
F 17

$$$$
=
 OpenBabel10232410093D

 62 68  0  0  1  0  0  0  0  0999 V2000
  189.5370  177.3680  139.3600 C   0  0  0  0  0  2  0  0  0  0  0  0
  187.4560  178.3920  140.3540 N   0  0  0  0  0  0  0  0  0  0  0  0
  189.7800  177.7010  143.0930 O   0  0  0  0  0  1  0  0  0  0  0  0
  189.1540  177.5540  141.8770 C   0  0  1  0  0  3  0  0  0  0  0  0
  188.3410  178.7990  141.4480 C   0  0  0  0  0  2  0  0  0  0  0  0
  188.0360  177.4260  139.3270 C   0  0  1  0  0  3  0  0  0  0  0  0
  190.1530  177.1120  140.7870 C   0  0  2  0  0  3  0  0  0  0  0  0
  185.4760  178.4180  141.9950 C   0  0  0  0  0  3  0  0  0  0  0  0
  183.7140  179.0610  140.0190 C   0  0  0  0  0  0  0  0  0  0  0  0
  186.0420  178.6080  140.6770 C   0  0  0  0  0  0  0  0  0  0  0  0
  183.1430  178.7960  141.2290 C   0  0  0  0  0  0  0  0  0  0  0  0
  182.9220  179.4040  139.0100 F   0  0  0  0  0  0  0  0  0  0  0  0
  184.0640  178.6700  142.2170 C   0  0  0  0  0  0  0  0  0  0  0  0
  181.6590  178.8070  141.4170 C   0  0  0  0  0  1  0  0  0  0  0  0
  185.1170  179.1420  139.7940 C   0  0  0  0  0  3  0  0  0  0  0  0
  183.0930  180.1150  143.8130 O   0  0  0  0  0  0  0  0  0  0  0  0
  183.5790  178.9870  143.5630 C   0  0  0  0  0  0  0  0  0  0  0  0
  183.9310  178.1760  144.6760 C   0  0  0  0  0  2  0  0  0  0  0  0
  184.0640  179.1020  145.8530 C   0  0  0  0  0  2  0  0  0  0  0  0
  185.4540  179.2040  146.1910 N   0  0  0  0  0  2  0  0  0  0  0  0
  185.7370  178.2720  147.2770 C   0  0  0  0  0  2  0  0  0  0  0  0
  187.7150  177.8390  145.7640 C   0  0  0  0  0  2  0  0  0  0  0  0
  189.0100  176.9630  145.9220 C   0  0  0  0  0  2  0  0  0  0  0  0
  189.1300  177.7920  148.3710 C   0  0  0  0  0  2  0  0  0  0  0  0
  187.1070  177.9170  147.1020 C   0  0  1  0  0  3  0  0  0  0  0  0
  188.0130  178.7140  148.0700 C   0  0  0  0  0  2  0  0  0  0  0  0
  189.8950  177.4920  147.0930 C   0  0  1  0  0  3  0  0  0  0  0  0
  191.8700  176.1950  146.2330 N   0  0  0  0  0  1  0  0  0  0  0  0
  191.0210  176.5210  147.4080 C   0  0  0  0  0  2  0  0  0  0  0  0
  187.4470  177.0600  137.9490 C   0  0  0  0  0  0  0  0  0  0  0  0
  187.2210  175.4060  136.1830 C   0  0  0  0  0  0  0  0  0  0  0  0
  186.5030  177.8310  137.1690 C   0  0  0  0  0  3  0  0  0  0  0  0
  186.2910  176.0900  135.4320 C   0  0  0  0  0  0  0  0  0  0  0  0
  187.1130  174.0770  136.1140 F   0  0  0  0  0  0  0  0  0  0  0  0
  185.9030  177.2700  135.9790 C   0  0  0  0  0  3  0  0  0  0  0  0
  187.8200  175.8940  137.3410 C   0  0  0  0  0  3  0  0  0  0  0  0
  185.5160  175.3740  134.3490 C   0  0  0  0  0  2  0  0  0  0  0  0
  183.3940  173.8760  137.5230 N   0  0  0  0  0  0  0  0  0  0  0  0
  183.9730  173.4520  135.1260 C   0  0  0  0  0  2  0  0  0  0  0  0
  183.3170  175.8440  135.9000 C   0  0  0  0  0  2  0  0  0  0  0  0
  184.3150  173.1240  136.5990 C   0  0  0  0  0  2  0  0  0  0  0  0
  184.1300  174.9200  134.8620 C   0  0  1  0  0  3  0  0  0  0  0  0
  183.0060  175.1750  137.2840 C   0  0  0  0  0  0  0  0  0  0  0  0
  181.4960  176.7830  138.2070 O   0  0  0  0  0  0  0  0  0  0  0  0
  182.7080  175.7470  139.7380 O   0  0  0  0  0  1  0  0  0  0  0  0
  182.3420  175.9430  138.4210 C   0  0  0  0  0  0  0  0  0  0  0  0
  191.6020  177.7210  140.9300 C   0  0  0  0  0  2  0  0  0  0  0  0
  193.7270  176.5710  139.1990 C   0  0  1  0  0  3  0  0  0  0  0  0
  193.0150  177.8050  139.2090 C   0  0  0  0  0  2  0  0  0  0  0  0
  192.7550  176.9060  140.3690 N   0  0  0  0  0  0  0  0  0  0  0  0
  192.2330  173.0650  136.3130 N   0  0  0  0  0  0  0  0  0  0  0  0
  190.2360  173.6600  137.2640 O   0  0  0  0  0  0  0  0  0  0  0  0
  191.4910  173.9040  137.2660 C   0  0  0  0  0  0  0  0  0  0  0  0
  194.2870  174.1730  136.0100 O   0  0  0  0  0  0  0  0  0  0  0  0
  192.0130  174.8860  138.1420 N   0  0  0  0  0  2  0  0  0  0  0  0
  193.2630  175.6670  138.0040 C   0  0  1  0  0  3  0  0  0  0  0  0
  193.7600  175.8860  136.2700 S   0  0  0  0  0  0  0  0  0  0  0  0
  193.3970  173.1060  135.8080 C   0  0  0  0  0  0  0  0  0  0  0  0
  193.7060  172.0790  134.7810 C   0  0  0  0  0  2  0  0  0  0  0  0
  194.8840  170.4480  136.4310 C   0  0  0  0  0  1  0  0  0  0  0  0
  194.1440  170.6620  135.1450 C   0  0  0  0  0  3  0  0  0  0  0  0
  192.9960  169.6250  134.9570 C   0  0  0  0  0  1  0  0  0  0  0  0
  1  7  1  0  0  0  0
  2 10  1  0  0  0  0
  2  5  1  0  0  0  0
  4  3  1  1  0  0  0
  5  4  1  0  0  0  0
  6 30  1  6  0  0  0
  6  1  1  0  0  0  0
  6  2  1  0  0  0  0
  7 47  1  6  0  0  0
  7  4  1  0  0  0  0
  8 13  1  0  0  0  0
  9 11  1  0  0  0  0
 10  8  2  0  0  0  0
 11 14  1  0  0  0  0
 11 13  2  0  0  0  0
 12  9  1  0  0  0  0
 13 17  1  0  0  0  0
 15  9  2  0  0  0  0
 15 10  1  0  0  0  0
 17 16  2  0  0  0  0
 17 18  1  0  0  0  0
 18 19  1  0  0  0  0
 19 20  1  0  0  0  0
 20 21  1  0  0  0  0
 22 23  1  0  0  0  0
 22 25  1  0  0  0  0
 23 27  1  0  0  0  0
 25 21  1  6  0  0  0
 25 26  1  0  0  0  0
 26 24  1  0  0  0  0
 27 29  1  1  0  0  0
 27 24  1  0  0  0  0
 28 29  1  0  0  0  0
 31 36  2  0  0  0  0
 32 30  2  0  0  0  0
 33 35  2  0  0  0  0
 33 31  1  0  0  0  0
 34 31  1  0  0  0  0
 35 32  1  0  0  0  0
 36 30  1  0  0  0  0
 37 33  1  0  0  0  0
 39 41  1  0  0  0  0
 40 43  1  0  0  0  0
 41 38  1  0  0  0  0
 42 37  1  1  0  0  0
 42 39  1  0  0  0  0
 42 40  1  0  0  0  0
 43 38  2  0  0  0  0
 43 46  1  0  0  0  0
 44 46  2  0  0  0  0
 46 45  1  0  0  0  0
 48 49  1  6  0  0  0
 48 50  1  0  0  0  0
 49 50  1  0  0  0  0
 50 47  1  0  0  0  0
 51 53  1  0  0  0  0
 52 53  2  0  0  0  0
 53 55  1  0  0  0  0
 54 57  1  0  0  0  0
 56 57  1  6  0  0  0
 56 55  1  0  0  0  0
 56 48  1  0  0  0  0
 58 54  1  0  0  0  0
 58 51  2  0  0  0  0
 59 61  1  0  0  0  0
 59 58  1  0  0  0  0
 61 60  1  0  0  0  0
 62 61  1  0  0  0  0
M  END
>  <MODEL>
3

>  <REMARK>
 VINA RESULT:      -7.5      2.012      2.608
  Name = 
  17 active torsions:
  status: ('A' for Active; 'I' for Inactive)
    1  A    between atoms: C_1  and  N_35
    2  A    between atoms: C_1  and  C_60
    3  A    between atoms: C_2  and  C_49
    4  A    between atoms: C_5  and  C_48
    5  A    between atoms: C_11  and  C_41
    6  A    between atoms: N_14  and  C_17
    7  A    between atoms: N_14  and  C_33
    8  A    between atoms: C_17  and  C_36
    9  A    between atoms: C_18  and  C_29
   10  A    between atoms: N_22  and  C_28
   11  A    between atoms: C_29  and  C_47
   12  A    between atoms: C_33  and  C_52
   13  A    between atoms: C_36  and  C_54
   14  A    between atoms: C_40  and  C_54
   15  A    between atoms: C_41  and  C_62
   16  A    between atoms: C_53  and  C_58
   17  A    between atoms: CA_56  and  C_61
                            x       y       z     vdW  Elec       q    Type
                         _______ _______ _______ _____ _____    ______ ____

>  <TORSDO>
F 17

$$$$
=
 OpenBabel10232410093D

 62 68  0  0  1  0  0  0  0  0999 V2000
  190.0640  176.6380  137.8810 C   0  0  0  0  0  2  0  0  0  0  0  0
  187.5570  176.8400  137.6790 N   0  0  0  0  0  0  0  0  0  0  0  0
  188.9910  177.3390  134.3510 O   0  0  0  0  0  1  0  0  0  0  0  0
  188.9040  177.3570  135.7240 C   0  0  1  0  0  3  0  0  0  0  0  0
  187.7730  176.4580  136.2820 C   0  0  0  0  0  2  0  0  0  0  0  0
  188.7990  177.1600  138.5030 C   0  0  1  0  0  3  0  0  0  0  0  0
  190.2680  177.0380  136.3710 C   0  0  2  0  0  3  0  0  0  0  0  0
  185.0060  176.5620  137.5110 C   0  0  0  0  0  3  0  0  0  0  0  0
  184.5620  178.9940  138.6560 C   0  0  0  0  0  0  0  0  0  0  0  0
  186.1840  177.2940  137.9220 C   0  0  0  0  0  0  0  0  0  0  0  0
  183.4420  178.3680  138.1940 C   0  0  0  0  0  0  0  0  0  0  0  0
  184.4250  180.1740  139.2480 F   0  0  0  0  0  0  0  0  0  0  0  0
  183.6870  177.0900  137.8100 C   0  0  0  0  0  0  0  0  0  0  0  0
  182.0940  179.0120  138.2680 C   0  0  0  0  0  1  0  0  0  0  0  0
  185.8570  178.4050  138.6840 C   0  0  0  0  0  3  0  0  0  0  0  0
  182.5390  175.2170  138.6770 O   0  0  0  0  0  0  0  0  0  0  0  0
  182.5350  176.1870  137.8830 C   0  0  0  0  0  0  0  0  0  0  0  0
  181.5470  176.1800  136.8620 C   0  0  0  0  0  2  0  0  0  0  0  0
  182.1880  175.5600  135.6510 C   0  0  0  0  0  2  0  0  0  0  0  0
  182.6620  174.2550  136.0120 N   0  0  0  0  0  2  0  0  0  0  0  0
  183.5160  173.7590  134.9380 C   0  0  0  0  0  2  0  0  0  0  0  0
  184.7610  172.8110  136.9230 C   0  0  0  0  0  2  0  0  0  0  0  0
  186.2110  173.0400  137.4830 C   0  0  0  0  0  2  0  0  0  0  0  0
  187.0360  173.0220  135.0300 C   0  0  0  0  0  2  0  0  0  0  0  0
  184.7420  173.4130  135.5790 C   0  0  1  0  0  3  0  0  0  0  0  0
  185.6690  172.6340  134.6170 C   0  0  0  0  0  2  0  0  0  0  0  0
  187.2820  172.5590  136.4550 C   0  0  1  0  0  3  0  0  0  0  0  0
  189.7160  172.7380  135.8480 N   0  0  0  0  0  1  0  0  0  0  0  0
  188.6780  172.9890  136.8800 C   0  0  0  0  0  2  0  0  0  0  0  0
  188.8950  177.3080  140.0340 C   0  0  0  0  0  0  0  0  0  0  0  0
  189.8090  176.4770  142.1270 C   0  0  0  0  0  0  0  0  0  0  0  0
  188.3660  178.3850  140.8440 C   0  0  0  0  0  3  0  0  0  0  0  0
  189.3590  177.5040  142.9260 C   0  0  0  0  0  0  0  0  0  0  0  0
  190.9610  175.9340  142.5280 F   0  0  0  0  0  0  0  0  0  0  0  0
  188.6940  178.4760  142.2490 C   0  0  0  0  0  3  0  0  0  0  0  0
  189.5320  176.3480  140.7690 C   0  0  0  0  0  3  0  0  0  0  0  0
  189.9250  177.6900  144.3150 C   0  0  0  0  0  2  0  0  0  0  0  0
  188.1240  178.2270  147.9600 N   0  0  0  0  0  0  0  0  0  0  0  0
  189.6390  176.6980  146.6840 C   0  0  0  0  0  2  0  0  0  0  0  0
  187.4940  177.6370  145.5580 C   0  0  0  0  0  2  0  0  0  0  0  0
  189.5620  177.8700  147.6920 C   0  0  0  0  0  2  0  0  0  0  0  0
  188.9930  177.0760  145.3850 C   0  0  1  0  0  3  0  0  0  0  0  0
  187.1680  178.2380  146.9700 C   0  0  0  0  0  0  0  0  0  0  0  0
  185.7800  180.0000  147.8000 O   0  0  0  0  0  1  0  0  0  0  0  0
  184.6310  178.2890  146.9990 O   0  0  0  0  0  0  0  0  0  0  0  0
  185.8340  178.9100  147.2720 C   0  0  0  0  0  0  0  0  0  0  0  0
  191.1440  175.9840  135.5870 C   0  0  0  0  0  2  0  0  0  0  0  0
  194.0710  175.7910  135.1160 C   0  0  1  0  0  3  0  0  0  0  0  0
  192.9370  175.0900  134.6140 C   0  0  0  0  0  2  0  0  0  0  0  0
  192.6330  176.2630  135.4820 N   0  0  0  0  0  0  0  0  0  0  0  0
  197.3820  173.2400  137.4360 N   0  0  0  0  0  0  0  0  0  0  0  0
  197.9770  175.3480  138.1070 O   0  0  0  0  0  0  0  0  0  0  0  0
  197.1610  174.6930  137.3740 C   0  0  0  0  0  0  0  0  0  0  0  0
  195.3880  172.2930  136.6210 O   0  0  0  0  0  0  0  0  0  0  0  0
  196.1940  175.3870  136.6080 N   0  0  0  0  0  2  0  0  0  0  0  0
  194.8950  174.8900  136.1010 C   0  0  1  0  0  3  0  0  0  0  0  0
  194.2050  173.5640  137.1340 S   0  0  0  0  0  0  0  0  0  0  0  0
  196.7080  172.2210  137.0950 C   0  0  0  0  0  0  0  0  0  0  0  0
  197.2900  170.8990  137.4410 C   0  0  0  0  0  2  0  0  0  0  0  0
  199.5220  169.6420  137.8920 C   0  0  0  0  0  1  0  0  0  0  0  0
  198.6740  170.4620  136.9670 C   0  0  0  0  0  3  0  0  0  0  0  0
  198.6430  169.8690  135.5270 C   0  0  0  0  0  1  0  0  0  0  0  0
  1  6  1  0  0  0  0
  2 10  1  0  0  0  0
  2  6  1  0  0  0  0
  4  3  1  6  0  0  0
  4  5  1  0  0  0  0
  4  7  1  0  0  0  0
  5  2  1  0  0  0  0
  6 30  1  1  0  0  0
  7 47  1  6  0  0  0
  7  1  1  0  0  0  0
  8 13  2  0  0  0  0
  8 10  1  0  0  0  0
  9 15  1  0  0  0  0
  9 12  1  0  0  0  0
 10 15  2  0  0  0  0
 11 14  1  0  0  0  0
 11  9  2  0  0  0  0
 13 17  1  0  0  0  0
 13 11  1  0  0  0  0
 17 16  2  0  0  0  0
 18 17  1  0  0  0  0
 19 20  1  0  0  0  0
 19 18  1  0  0  0  0
 21 20  1  0  0  0  0
 22 23  1  0  0  0  0
 24 27  1  0  0  0  0
 25 21  1  6  0  0  0
 25 22  1  0  0  0  0
 26 24  1  0  0  0  0
 26 25  1  0  0  0  0
 27 29  1  1  0  0  0
 27 23  1  0  0  0  0
 28 29  1  0  0  0  0
 30 36  2  0  0  0  0
 30 32  1  0  0  0  0
 31 34  1  0  0  0  0
 31 33  2  0  0  0  0
 32 35  2  0  0  0  0
 33 37  1  0  0  0  0
 35 33  1  0  0  0  0
 36 31  1  0  0  0  0
 39 41  1  0  0  0  0
 40 43  1  0  0  0  0
 41 38  1  0  0  0  0
 42 37  1  1  0  0  0
 42 40  1  0  0  0  0
 42 39  1  0  0  0  0
 43 46  1  0  0  0  0
 43 38  2  0  0  0  0
 45 46  2  0  0  0  0
 46 44  1  0  0  0  0
 48 49  1  6  0  0  0
 48 50  1  0  0  0  0
 48 56  1  0  0  0  0
 49 50  1  0  0  0  0
 50 47  1  0  0  0  0
 53 51  1  0  0  0  0
 53 52  2  0  0  0  0
 54 58  1  0  0  0  0
 54 57  1  0  0  0  0
 55 53  1  0  0  0  0
 56 55  1  1  0  0  0
 56 57  1  0  0  0  0
 58 51  2  0  0  0  0
 58 59  1  0  0  0  0
 61 59  1  0  0  0  0
 61 60  1  0  0  0  0
 62 61  1  0  0  0  0
M  END
>  <MODEL>
4

>  <REMARK>
 VINA RESULT:      -7.5      2.413      7.752
  Name = 
  17 active torsions:
  status: ('A' for Active; 'I' for Inactive)
    1  A    between atoms: C_1  and  N_35
    2  A    between atoms: C_1  and  C_60
    3  A    between atoms: C_2  and  C_49
    4  A    between atoms: C_5  and  C_48
    5  A    between atoms: C_11  and  C_41
    6  A    between atoms: N_14  and  C_17
    7  A    between atoms: N_14  and  C_33
    8  A    between atoms: C_17  and  C_36
    9  A    between atoms: C_18  and  C_29
   10  A    between atoms: N_22  and  C_28
   11  A    between atoms: C_29  and  C_47
   12  A    between atoms: C_33  and  C_52
   13  A    between atoms: C_36  and  C_54
   14  A    between atoms: C_40  and  C_54
   15  A    between atoms: C_41  and  C_62
   16  A    between atoms: C_53  and  C_58
   17  A    between atoms: CA_56  and  C_61
                            x       y       z     vdW  Elec       q    Type
                         _______ _______ _______ _____ _____    ______ ____

>  <TORSDO>
F 17

$$$$
=
 OpenBabel10232410093D

 62 68  0  0  1  0  0  0  0  0999 V2000
  189.6360  176.8780  138.0310 C   0  0  0  0  0  2  0  0  0  0  0  0
  187.1380  177.0150  137.7070 N   0  0  0  0  0  0  0  0  0  0  0  0
  188.7260  177.7830  134.5020 O   0  0  0  0  0  1  0  0  0  0  0  0
  188.5670  177.7050  135.8660 C   0  0  1  0  0  3  0  0  0  0  0  0
  187.4400  176.7370  136.3010 C   0  0  0  0  0  2  0  0  0  0  0  0
  188.3240  177.3180  138.6160 C   0  0  1  0  0  3  0  0  0  0  0  0
  189.9050  177.3860  136.5650 C   0  0  2  0  0  3  0  0  0  0  0  0
  184.6110  176.5420  137.6440 C   0  0  0  0  0  3  0  0  0  0  0  0
  184.0100  179.0930  138.3880 C   0  0  0  0  0  0  0  0  0  0  0  0
  185.7390  177.4090  137.9040 C   0  0  0  0  0  0  0  0  0  0  0  0
  182.9320  178.3250  138.0600 C   0  0  0  0  0  0  0  0  0  0  0  0
  183.7970  180.3430  138.7840 F   0  0  0  0  0  0  0  0  0  0  0  0
  183.2620  177.0210  137.8830 C   0  0  0  0  0  0  0  0  0  0  0  0
  181.5430  178.8800  138.0590 C   0  0  0  0  0  1  0  0  0  0  0  0
  185.3440  178.6050  138.4830 C   0  0  0  0  0  3  0  0  0  0  0  0
  182.0380  175.5420  139.2580 O   0  0  0  0  0  0  0  0  0  0  0  0
  182.1770  176.0670  138.1280 C   0  0  0  0  0  0  0  0  0  0  0  0
  181.4720  175.4690  137.0490 C   0  0  0  0  0  2  0  0  0  0  0  0
  182.5120  174.9790  136.0790 C   0  0  0  0  0  2  0  0  0  0  0  0
  182.3700  173.5580  135.9480 N   0  0  0  0  0  2  0  0  0  0  0  0
  183.1980  172.9140  136.9630 C   0  0  0  0  0  2  0  0  0  0  0  0
  182.9740  170.5960  135.9820 C   0  0  0  0  0  2  0  0  0  0  0  0
  184.0020  169.4310  135.7480 C   0  0  0  0  0  2  0  0  0  0  0  0
  185.6960  171.2350  134.9940 C   0  0  0  0  0  2  0  0  0  0  0  0
  183.7730  171.7890  136.3030 C   0  0  1  0  0  3  0  0  0  0  0  0
  184.6080  172.2340  135.0790 C   0  0  0  0  0  2  0  0  0  0  0  0
  185.1030  169.8630  134.7300 C   0  0  1  0  0  3  0  0  0  0  0  0
  187.4690  169.2870  135.3570 N   0  0  0  0  0  1  0  0  0  0  0  0
  186.2270  168.8400  134.6750 C   0  0  0  0  0  2  0  0  0  0  0  0
  188.3330  177.3630  140.1570 C   0  0  0  0  0  0  0  0  0  0  0  0
  187.2490  178.1120  142.1990 C   0  0  0  0  0  0  0  0  0  0  0  0
  189.2330  176.6610  141.0480 C   0  0  0  0  0  3  0  0  0  0  0  0
  188.0570  177.4270  143.0790 C   0  0  0  0  0  0  0  0  0  0  0  0
  185.9920  178.2730  142.6210 F   0  0  0  0  0  0  0  0  0  0  0  0
  189.0020  176.6610  142.4750 C   0  0  0  0  0  3  0  0  0  0  0  0
  187.4200  178.1370  140.8180 C   0  0  0  0  0  3  0  0  0  0  0  0
  187.6360  177.2540  144.5200 C   0  0  0  0  0  2  0  0  0  0  0  0
  189.6470  176.9900  148.0840 N   0  0  0  0  0  0  0  0  0  0  0  0
  188.0700  178.4290  146.7800 C   0  0  0  0  0  2  0  0  0  0  0  0
  190.1370  177.3770  145.6100 C   0  0  0  0  0  2  0  0  0  0  0  0
  188.1980  177.3410  147.8730 C   0  0  0  0  0  2  0  0  0  0  0  0
  188.6340  177.9400  145.4800 C   0  0  1  0  0  3  0  0  0  0  0  0
  190.5430  176.8880  147.0440 C   0  0  0  0  0  0  0  0  0  0  0  0
  192.5920  176.5850  148.2390 O   0  0  0  0  0  1  0  0  0  0  0  0
  192.3790  175.2200  146.5120 O   0  0  0  0  0  0  0  0  0  0  0  0
  191.8870  176.2260  147.3210 C   0  0  0  0  0  0  0  0  0  0  0  0
  190.8570  176.4150  135.7620 C   0  0  0  0  0  2  0  0  0  0  0  0
  193.7940  175.9760  135.8550 C   0  0  1  0  0  3  0  0  0  0  0  0
  192.7600  175.5850  134.9560 C   0  0  0  0  0  2  0  0  0  0  0  0
  192.3460  176.5160  136.0430 N   0  0  0  0  0  0  0  0  0  0  0  0
  196.3040  172.7190  138.2930 N   0  0  0  0  0  0  0  0  0  0  0  0
  196.0950  174.3330  139.9060 O   0  0  0  0  0  0  0  0  0  0  0  0
  195.8210  174.0500  138.6900 C   0  0  0  0  0  0  0  0  0  0  0  0
  195.0870  172.1920  136.3490 O   0  0  0  0  0  0  0  0  0  0  0  0
  195.1350  174.9950  137.8880 N   0  0  0  0  0  2  0  0  0  0  0  0
  194.3070  174.7490  136.6860 C   0  0  1  0  0  3  0  0  0  0  0  0
  193.5540  173.0940  136.6860 S   0  0  0  0  0  0  0  0  0  0  0  0
  196.0710  171.9400  137.3190 C   0  0  0  0  0  0  0  0  0  0  0  0
  196.7270  170.6090  137.3680 C   0  0  0  0  0  2  0  0  0  0  0  0
  194.9450  169.2810  138.7220 C   0  0  0  0  0  1  0  0  0  0  0  0
  195.9450  169.3180  137.6060 C   0  0  0  0  0  3  0  0  0  0  0  0
  195.3620  168.7320  136.2850 C   0  0  0  0  0  1  0  0  0  0  0  0
  1  6  1  0  0  0  0
  2 10  1  0  0  0  0
  2  6  1  0  0  0  0
  4  3  1  6  0  0  0
  4  5  1  0  0  0  0
  4  7  1  0  0  0  0
  5  2  1  0  0  0  0
  6 30  1  1  0  0  0
  7 47  1  6  0  0  0
  7  1  1  0  0  0  0
  8 13  2  0  0  0  0
  8 10  1  0  0  0  0
  9 15  1  0  0  0  0
  9 12  1  0  0  0  0
 10 15  2  0  0  0  0
 11  9  2  0  0  0  0
 13 11  1  0  0  0  0
 13 17  1  0  0  0  0
 14 11  1  0  0  0  0
 17 16  2  0  0  0  0
 18 17  1  0  0  0  0
 19 18  1  0  0  0  0
 20 19  1  0  0  0  0
 20 21  1  0  0  0  0
 22 25  1  0  0  0  0
 23 22  1  0  0  0  0
 24 26  1  0  0  0  0
 25 21  1  6  0  0  0
 26 25  1  0  0  0  0
 27 29  1  1  0  0  0
 27 24  1  0  0  0  0
 27 23  1  0  0  0  0
 29 28  1  0  0  0  0
 30 36  2  0  0  0  0
 30 32  1  0  0  0  0
 31 34  1  0  0  0  0
 31 33  2  0  0  0  0
 32 35  2  0  0  0  0
 33 37  1  0  0  0  0
 35 33  1  0  0  0  0
 36 31  1  0  0  0  0
 39 41  1  0  0  0  0
 40 43  1  0  0  0  0
 41 38  1  0  0  0  0
 42 37  1  1  0  0  0
 42 40  1  0  0  0  0
 42 39  1  0  0  0  0
 43 46  1  0  0  0  0
 43 38  2  0  0  0  0
 45 46  2  0  0  0  0
 46 44  1  0  0  0  0
 47 50  1  0  0  0  0
 48 49  1  6  0  0  0
 48 50  1  0  0  0  0
 48 56  1  0  0  0  0
 49 50  1  0  0  0  0
 51 53  1  0  0  0  0
 53 52  2  0  0  0  0
 54 57  1  0  0  0  0
 54 58  1  0  0  0  0
 55 53  1  0  0  0  0
 56 57  1  1  0  0  0
 56 55  1  0  0  0  0
 58 59  1  0  0  0  0
 58 51  2  0  0  0  0
 59 61  1  0  0  0  0
 61 60  1  0  0  0  0
 62 61  1  0  0  0  0
M  END
>  <MODEL>
5

>  <REMARK>
 VINA RESULT:      -7.0      2.975      8.506
  Name = 
  17 active torsions:
  status: ('A' for Active; 'I' for Inactive)
    1  A    between atoms: C_1  and  N_35
    2  A    between atoms: C_1  and  C_60
    3  A    between atoms: C_2  and  C_49
    4  A    between atoms: C_5  and  C_48
    5  A    between atoms: C_11  and  C_41
    6  A    between atoms: N_14  and  C_17
    7  A    between atoms: N_14  and  C_33
    8  A    between atoms: C_17  and  C_36
    9  A    between atoms: C_18  and  C_29
   10  A    between atoms: N_22  and  C_28
   11  A    between atoms: C_29  and  C_47
   12  A    between atoms: C_33  and  C_52
   13  A    between atoms: C_36  and  C_54
   14  A    between atoms: C_40  and  C_54
   15  A    between atoms: C_41  and  C_62
   16  A    between atoms: C_53  and  C_58
   17  A    between atoms: CA_56  and  C_61
                            x       y       z     vdW  Elec       q    Type
                         _______ _______ _______ _____ _____    ______ ____

>  <TORSDO>
F 17

$$$$
=
 OpenBabel10232410093D

 62 68  0  0  1  0  0  0  0  0999 V2000
  187.7890  175.8230  136.9930 C   0  0  0  0  0  2  0  0  0  0  0  0
  185.6310  176.8070  137.8570 N   0  0  0  0  0  0  0  0  0  0  0  0
  185.1270  175.9130  134.3460 O   0  0  0  0  0  1  0  0  0  0  0  0
  185.7900  176.3120  135.4830 C   0  0  1  0  0  3  0  0  0  0  0  0
  185.0040  176.0280  136.7870 C   0  0  0  0  0  2  0  0  0  0  0  0
  187.1540  176.8860  137.8460 C   0  0  1  0  0  3  0  0  0  0  0  0
  187.2170  175.7270  135.5290 C   0  0  2  0  0  3  0  0  0  0  0  0
  183.5970  177.3480  139.3340 C   0  0  0  0  0  3  0  0  0  0  0  0
  183.7640  180.0080  138.7670 C   0  0  0  0  0  0  0  0  0  0  0  0
  184.6930  177.7470  138.4790 C   0  0  0  0  0  0  0  0  0  0  0  0
  182.6690  179.6470  139.4970 C   0  0  0  0  0  0  0  0  0  0  0  0
  183.9280  181.2910  138.4700 F   0  0  0  0  0  0  0  0  0  0  0  0
  182.7290  178.3570  139.9130 C   0  0  0  0  0  0  0  0  0  0  0  0
  181.6260  180.6430  139.8930 C   0  0  0  0  0  1  0  0  0  0  0  0
  184.8270  179.1260  138.4260 C   0  0  0  0  0  3  0  0  0  0  0  0
  180.7250  178.1320  141.1410 O   0  0  0  0  0  0  0  0  0  0  0  0
  181.9770  178.0630  141.1350 C   0  0  0  0  0  0  0  0  0  0  0  0
  182.6250  178.0130  142.3990 C   0  0  0  0  0  2  0  0  0  0  0  0
  182.0600  179.1440  143.2130 C   0  0  0  0  0  2  0  0  0  0  0  0
  182.9160  179.3550  144.3450 N   0  0  0  0  0  2  0  0  0  0  0  0
  184.2950  179.4300  143.8760 C   0  0  0  0  0  2  0  0  0  0  0  0
  184.5050  178.7030  146.2880 C   0  0  0  0  0  2  0  0  0  0  0  0
  185.7300  178.5820  147.2640 C   0  0  0  0  0  2  0  0  0  0  0  0
  187.0730  177.6200  145.2720 C   0  0  0  0  0  2  0  0  0  0  0  0
  185.0710  178.8860  144.9410 C   0  0  1  0  0  3  0  0  0  0  0  0
  185.8200  177.6120  144.4850 C   0  0  0  0  0  2  0  0  0  0  0  0
  186.7410  177.5100  146.7500 C   0  0  1  0  0  3  0  0  0  0  0  0
  187.8520  178.0270  148.9460 N   0  0  0  0  0  1  0  0  0  0  0  0
  188.0330  177.5510  147.5500 C   0  0  0  0  0  2  0  0  0  0  0  0
  188.0740  177.3820  138.9790 C   0  0  0  0  0  0  0  0  0  0  0  0
  188.2770  178.5490  141.1010 C   0  0  0  0  0  0  0  0  0  0  0  0
  189.4820  177.0920  139.1530 C   0  0  0  0  0  3  0  0  0  0  0  0
  189.6040  178.2610  141.3240 C   0  0  0  0  0  0  0  0  0  0  0  0
  187.5450  178.6640  142.2120 F   0  0  0  0  0  0  0  0  0  0  0  0
  190.1660  177.4790  140.3660 C   0  0  0  0  0  3  0  0  0  0  0  0
  187.5680  178.1910  139.9580 C   0  0  0  0  0  3  0  0  0  0  0  0
  190.2050  178.4650  142.6960 C   0  0  0  0  0  2  0  0  0  0  0  0
  192.0630  175.5150  144.8560 N   0  0  0  0  0  0  0  0  0  0  0  0
  190.4510  175.9080  142.9840 C   0  0  0  0  0  2  0  0  0  0  0  0
  190.2700  177.3040  145.1680 C   0  0  0  0  0  2  0  0  0  0  0  0
  191.9210  175.6040  143.3600 C   0  0  0  0  0  2  0  0  0  0  0  0
  190.0120  177.2120  143.5810 C   0  0  1  0  0  3  0  0  0  0  0  0
  191.4000  176.3620  145.7140 C   0  0  0  0  0  0  0  0  0  0  0  0
  192.4820  175.4920  147.6610 O   0  0  0  0  0  0  0  0  0  0  0  0
  191.5150  177.4500  148.0030 O   0  0  0  0  0  1  0  0  0  0  0  0
  191.8480  176.4010  147.1700 C   0  0  0  0  0  0  0  0  0  0  0  0
  187.3570  174.2740  134.9280 C   0  0  0  0  0  2  0  0  0  0  0  0
  190.1070  173.2190  134.5290 C   0  0  1  0  0  3  0  0  0  0  0  0
  189.0500  172.9190  135.4370 C   0  0  0  0  0  2  0  0  0  0  0  0
  188.7110  173.8880  134.3570 N   0  0  0  0  0  0  0  0  0  0  0  0
  194.2240  175.2320  135.8900 N   0  0  0  0  0  0  0  0  0  0  0  0
  193.4970  176.8100  134.3980 O   0  0  0  0  0  0  0  0  0  0  0  0
  193.2170  175.6750  134.9150 C   0  0  0  0  0  0  0  0  0  0  0  0
  193.1440  173.5660  137.1540 O   0  0  0  0  0  0  0  0  0  0  0  0
  192.0450  174.9910  134.5110 N   0  0  0  0  0  2  0  0  0  0  0  0
  191.2730  173.9730  135.2590 C   0  0  1  0  0  3  0  0  0  0  0  0
  191.4360  174.1590  137.0600 S   0  0  0  0  0  0  0  0  0  0  0  0
  194.2590  174.3400  136.7920 C   0  0  0  0  0  0  0  0  0  0  0  0
  195.4810  174.3020  137.6350 C   0  0  0  0  0  2  0  0  0  0  0  0
  196.3230  171.8690  137.2570 C   0  0  0  0  0  1  0  0  0  0  0  0
  196.6310  173.3320  137.3690 C   0  0  0  0  0  3  0  0  0  0  0  0
  197.5580  173.8210  136.2160 C   0  0  0  0  0  1  0  0  0  0  0  0
  1  6  1  0  0  0  0
  2 10  1  0  0  0  0
  4  3  1  6  0  0  0
  4  7  1  0  0  0  0
  4  5  1  0  0  0  0
  5  2  1  0  0  0  0
  6  2  1  0  0  0  0
  6 30  1  1  0  0  0
  7 47  1  1  0  0  0
  7  1  1  0  0  0  0
  8 13  1  0  0  0  0
  9 11  1  0  0  0  0
 10  8  2  0  0  0  0
 11 14  1  0  0  0  0
 11 13  2  0  0  0  0
 12  9  1  0  0  0  0
 13 17  1  0  0  0  0
 15 10  1  0  0  0  0
 15  9  2  0  0  0  0
 17 16  2  0  0  0  0
 17 18  1  0  0  0  0
 18 19  1  0  0  0  0
 19 20  1  0  0  0  0
 21 20  1  0  0  0  0
 22 23  1  0  0  0  0
 24 27  1  0  0  0  0
 25 21  1  6  0  0  0
 25 22  1  0  0  0  0
 26 25  1  0  0  0  0
 26 24  1  0  0  0  0
 27 23  1  0  0  0  0
 27 29  1  1  0  0  0
 29 28  1  0  0  0  0
 30 32  2  0  0  0  0
 30 36  1  0  0  0  0
 31 33  1  0  0  0  0
 31 34  1  0  0  0  0
 32 35  1  0  0  0  0
 33 37  1  0  0  0  0
 35 33  2  0  0  0  0
 36 31  2  0  0  0  0
 38 43  2  0  0  0  0
 39 41  1  0  0  0  0
 39 42  1  0  0  0  0
 40 43  1  0  0  0  0
 41 38  1  0  0  0  0
 42 37  1  6  0  0  0
 42 40  1  0  0  0  0
 43 46  1  0  0  0  0
 46 44  2  0  0  0  0
 46 45  1  0  0  0  0
 48 56  1  0  0  0  0
 48 49  1  1  0  0  0
 50 48  1  0  0  0  0
 50 47  1  0  0  0  0
 50 49  1  0  0  0  0
 51 58  2  0  0  0  0
 52 53  2  0  0  0  0
 53 51  1  0  0  0  0
 55 53  1  0  0  0  0
 56 55  1  6  0  0  0
 56 57  1  0  0  0  0
 57 54  1  0  0  0  0
 58 54  1  0  0  0  0
 58 59  1  0  0  0  0
 60 61  1  0  0  0  0
 61 59  1  0  0  0  0
 62 61  1  0  0  0  0
M  END
>  <MODEL>
6

>  <REMARK>
 VINA RESULT:      -7.0      2.683      6.603
  Name = 
  17 active torsions:
  status: ('A' for Active; 'I' for Inactive)
    1  A    between atoms: C_1  and  N_35
    2  A    between atoms: C_1  and  C_60
    3  A    between atoms: C_2  and  C_49
    4  A    between atoms: C_5  and  C_48
    5  A    between atoms: C_11  and  C_41
    6  A    between atoms: N_14  and  C_17
    7  A    between atoms: N_14  and  C_33
    8  A    between atoms: C_17  and  C_36
    9  A    between atoms: C_18  and  C_29
   10  A    between atoms: N_22  and  C_28
   11  A    between atoms: C_29  and  C_47
   12  A    between atoms: C_33  and  C_52
   13  A    between atoms: C_36  and  C_54
   14  A    between atoms: C_40  and  C_54
   15  A    between atoms: C_41  and  C_62
   16  A    between atoms: C_53  and  C_58
   17  A    between atoms: CA_56  and  C_61
                            x       y       z     vdW  Elec       q    Type
                         _______ _______ _______ _____ _____    ______ ____

>  <TORSDO>
F 17

$$$$
=
 OpenBabel10232410093D

 62 68  0  0  1  0  0  0  0  0999 V2000
  186.5320  176.6570  137.1230 C   0  0  0  0  0  2  0  0  0  0  0  0
  188.6730  175.8390  136.0690 N   0  0  0  0  0  0  0  0  0  0  0  0
  185.8860  174.2120  134.3470 O   0  0  0  0  0  1  0  0  0  0  0  0
  186.5890  174.8010  135.3720 C   0  0  1  0  0  3  0  0  0  0  0  0
  187.8390  175.5810  134.8940 C   0  0  0  0  0  2  0  0  0  0  0  0
  187.9470  176.2100  137.3580 C   0  0  1  0  0  3  0  0  0  0  0  0
  185.6670  175.6700  136.2510 C   0  0  2  0  0  3  0  0  0  0  0  0
  191.1980  176.0180  135.6180 C   0  0  0  0  0  3  0  0  0  0  0  0
  191.5280  173.3200  135.8080 C   0  0  0  0  0  0  0  0  0  0  0  0
  190.0110  175.2550  135.9360 C   0  0  0  0  0  0  0  0  0  0  0  0
  192.6400  174.0050  135.4160 C   0  0  0  0  0  0  0  0  0  0  0  0
  191.6150  172.0020  135.9460 F   0  0  0  0  0  0  0  0  0  0  0  0
  192.4820  175.3480  135.5200 C   0  0  0  0  0  0  0  0  0  0  0  0
  193.9140  173.3010  135.0660 C   0  0  0  0  0  1  0  0  0  0  0  0
  190.3140  173.9330  136.2270 C   0  0  0  0  0  3  0  0  0  0  0  0
  194.0330  176.5340  136.8500 O   0  0  0  0  0  0  0  0  0  0  0  0
  193.7210  176.1060  135.7130 C   0  0  0  0  0  0  0  0  0  0  0  0
  194.4240  176.6520  134.6050 C   0  0  0  0  0  2  0  0  0  0  0  0
  195.8220  176.9310  135.0810 C   0  0  0  0  0  2  0  0  0  0  0  0
  196.6390  175.7950  134.7670 N   0  0  0  0  0  2  0  0  0  0  0  0
  197.5490  175.5550  135.8820 C   0  0  0  0  0  2  0  0  0  0  0  0
  198.0080  173.0750  136.0480 C   0  0  0  0  0  2  0  0  0  0  0  0
  197.0820  171.8310  136.2980 C   0  0  0  0  0  2  0  0  0  0  0  0
  195.8350  173.2610  138.0580 C   0  0  0  0  0  2  0  0  0  0  0  0
  197.1970  174.2620  136.3660 C   0  0  1  0  0  3  0  0  0  0  0  0
  196.8640  174.3080  137.8760 C   0  0  0  0  0  2  0  0  0  0  0  0
  196.4270  171.9060  137.7120 C   0  0  1  0  0  3  0  0  0  0  0  0
  195.8970  169.4660  138.0150 N   0  0  0  0  0  1  0  0  0  0  0  0
  195.3530  170.8410  137.8730 C   0  0  0  0  0  2  0  0  0  0  0  0
  188.5630  176.7990  138.6420 C   0  0  0  0  0  0  0  0  0  0  0  0
  190.3190  176.6920  140.3180 C   0  0  0  0  0  0  0  0  0  0  0  0
  188.1650  178.0120  139.3260 C   0  0  0  0  0  3  0  0  0  0  0  0
  189.9990  177.8610  140.9720 C   0  0  0  0  0  0  0  0  0  0  0  0
  191.6210  176.3930  140.3330 F   0  0  0  0  0  0  0  0  0  0  0  0
  188.9580  178.5330  140.4170 C   0  0  0  0  0  3  0  0  0  0  0  0
  189.5990  176.1530  139.2560 C   0  0  0  0  0  3  0  0  0  0  0  0
  190.9850  178.4880  141.9310 C   0  0  0  0  0  2  0  0  0  0  0  0
  189.6870  176.3800  145.2000 N   0  0  0  0  0  0  0  0  0  0  0  0
  188.9850  178.0970  143.5200 C   0  0  0  0  0  2  0  0  0  0  0  0
  191.3300  178.2470  144.6300 C   0  0  0  0  0  2  0  0  0  0  0  0
  188.9580  176.5970  143.9010 C   0  0  0  0  0  2  0  0  0  0  0  0
  190.3970  178.5740  143.3580 C   0  0  1  0  0  3  0  0  0  0  0  0
  190.8490  177.0460  145.5170 C   0  0  0  0  0  0  0  0  0  0  0  0
  191.7760  177.1720  147.7170 O   0  0  0  0  0  1  0  0  0  0  0  0
  192.3620  175.3400  146.6270 O   0  0  0  0  0  0  0  0  0  0  0  0
  191.6690  176.5330  146.6930 C   0  0  0  0  0  0  0  0  0  0  0  0
  184.5160  176.4170  135.4700 C   0  0  0  0  0  2  0  0  0  0  0  0
  181.7640  176.9020  136.4790 C   0  0  1  0  0  3  0  0  0  0  0  0
  182.6820  177.6600  135.6960 C   0  0  0  0  0  2  0  0  0  0  0  0
  183.1030  176.2650  136.0040 N   0  0  0  0  0  0  0  0  0  0  0  0
  182.1250  179.3930  140.5440 N   0  0  0  0  0  0  0  0  0  0  0  0
  180.9000  180.8690  139.2930 O   0  0  0  0  0  0  0  0  0  0  0  0
  181.4840  179.7330  139.2640 C   0  0  0  0  0  0  0  0  0  0  0  0
  182.4690  177.0670  140.4420 O   0  0  0  0  0  0  0  0  0  0  0  0
  181.4730  178.9690  138.0730 N   0  0  0  0  0  2  0  0  0  0  0  0
  181.6280  177.5040  137.9210 C   0  0  1  0  0  3  0  0  0  0  0  0
  181.0750  176.5890  139.3910 S   0  0  0  0  0  0  0  0  0  0  0  0
  182.5910  178.3260  141.0510 C   0  0  0  0  0  0  0  0  0  0  0  0
  183.0720  178.4190  142.4520 C   0  0  0  0  0  2  0  0  0  0  0  0
  184.4470  179.7670  144.2030 C   0  0  0  0  0  1  0  0  0  0  0  0
  184.3500  179.1650  142.8330 C   0  0  0  0  0  3  0  0  0  0  0  0
  185.6330  178.3630  142.4590 C   0  0  0  0  0  1  0  0  0  0  0  0
  1  6  1  0  0  0  0
  2  6  1  0  0  0  0
  4  3  1  6  0  0  0
  4  7  1  0  0  0  0
  5  4  1  0  0  0  0
  5  2  1  0  0  0  0
  6 30  1  6  0  0  0
  7 47  1  6  0  0  0
  7  1  1  0  0  0  0
  8 10  1  0  0  0  0
  9 12  1  0  0  0  0
  9 15  1  0  0  0  0
 10  2  1  0  0  0  0
 10 15  2  0  0  0  0
 11 13  1  0  0  0  0
 11  9  2  0  0  0  0
 13  8  2  0  0  0  0
 13 17  1  0  0  0  0
 14 11  1  0  0  0  0
 17 16  2  0  0  0  0
 18 19  1  0  0  0  0
 18 17  1  0  0  0  0
 20 19  1  0  0  0  0
 20 21  1  0  0  0  0
 22 23  1  0  0  0  0
 22 25  1  0  0  0  0
 23 27  1  0  0  0  0
 25 21  1  1  0  0  0
 25 26  1  0  0  0  0
 26 24  1  0  0  0  0
 27 29  1  6  0  0  0
 27 24  1  0  0  0  0
 29 28  1  0  0  0  0
 30 36  2  0  0  0  0
 30 32  1  0  0  0  0
 31 34  1  0  0  0  0
 31 33  2  0  0  0  0
 32 35  2  0  0  0  0
 33 37  1  0  0  0  0
 35 33  1  0  0  0  0
 36 31  1  0  0  0  0
 38 43  2  0  0  0  0
 39 41  1  0  0  0  0
 40 43  1  0  0  0  0
 41 38  1  0  0  0  0
 42 37  1  6  0  0  0
 42 39  1  0  0  0  0
 42 40  1  0  0  0  0
 43 46  1  0  0  0  0
 45 46  2  0  0  0  0
 46 44  1  0  0  0  0
 47 50  1  0  0  0  0
 48 49  1  6  0  0  0
 48 56  1  0  0  0  0
 49 50  1  0  0  0  0
 50 48  1  0  0  0  0
 51 58  2  0  0  0  0
 53 52  2  0  0  0  0
 53 51  1  0  0  0  0
 54 58  1  0  0  0  0
 55 53  1  0  0  0  0
 56 55  1  6  0  0  0
 56 57  1  0  0  0  0
 57 54  1  0  0  0  0
 58 59  1  0  0  0  0
 59 61  1  0  0  0  0
 61 60  1  0  0  0  0
 62 61  1  0  0  0  0
M  END
>  <MODEL>
7

>  <REMARK>
 VINA RESULT:      -6.7      3.416     11.874
  Name = 
  17 active torsions:
  status: ('A' for Active; 'I' for Inactive)
    1  A    between atoms: C_1  and  N_35
    2  A    between atoms: C_1  and  C_60
    3  A    between atoms: C_2  and  C_49
    4  A    between atoms: C_5  and  C_48
    5  A    between atoms: C_11  and  C_41
    6  A    between atoms: N_14  and  C_17
    7  A    between atoms: N_14  and  C_33
    8  A    between atoms: C_17  and  C_36
    9  A    between atoms: C_18  and  C_29
   10  A    between atoms: N_22  and  C_28
   11  A    between atoms: C_29  and  C_47
   12  A    between atoms: C_33  and  C_52
   13  A    between atoms: C_36  and  C_54
   14  A    between atoms: C_40  and  C_54
   15  A    between atoms: C_41  and  C_62
   16  A    between atoms: C_53  and  C_58
   17  A    between atoms: CA_56  and  C_61
                            x       y       z     vdW  Elec       q    Type
                         _______ _______ _______ _____ _____    ______ ____

>  <TORSDO>
F 17

$$$$
=
 OpenBabel10232410093D

 62 68  0  0  1  0  0  0  0  0999 V2000
  188.4080  176.5660  137.4830 C   0  0  0  0  0  2  0  0  0  0  0  0
  186.8400  177.9410  138.9030 N   0  0  0  0  0  0  0  0  0  0  0  0
  189.9350  177.4670  140.7930 O   0  0  0  0  0  1  0  0  0  0  0  0
  188.9230  177.1910  139.9040 C   0  0  1  0  0  3  0  0  0  0  0  0
  188.0630  178.4270  139.5460 C   0  0  0  0  0  2  0  0  0  0  0  0
  186.9910  176.7690  137.9390 C   0  0  1  0  0  3  0  0  0  0  0  0
  189.4670  176.4810  138.6470 C   0  0  2  0  0  3  0  0  0  0  0  0
  185.4420  178.1510  141.0510 C   0  0  0  0  0  3  0  0  0  0  0  0
  183.3260  179.2030  139.6940 C   0  0  0  0  0  0  0  0  0  0  0  0
  185.6340  178.3480  139.6310 C   0  0  0  0  0  0  0  0  0  0  0  0
  183.0860  178.9400  141.0100 C   0  0  0  0  0  0  0  0  0  0  0  0
  182.3500  179.7380  138.9700 F   0  0  0  0  0  0  0  0  0  0  0  0
  184.2150  178.6010  141.6820 C   0  0  0  0  0  0  0  0  0  0  0  0
  181.7410  179.1660  141.6240 C   0  0  0  0  0  1  0  0  0  0  0  0
  184.6000  179.0830  139.0710 C   0  0  0  0  0  3  0  0  0  0  0  0
  183.5500  179.8700  143.5600 O   0  0  0  0  0  0  0  0  0  0  0  0
  184.1930  178.8880  143.1190 C   0  0  0  0  0  0  0  0  0  0  0  0
  185.1320  178.2860  143.9990 C   0  0  0  0  0  2  0  0  0  0  0  0
  185.1930  179.1590  145.2210 C   0  0  0  0  0  2  0  0  0  0  0  0
  186.2620  178.6920  146.0550 N   0  0  0  0  0  2  0  0  0  0  0  0
  186.6040  177.3320  145.6530 C   0  0  0  0  0  2  0  0  0  0  0  0
  188.9290  177.8640  144.8150 C   0  0  0  0  0  2  0  0  0  0  0  0
  190.3230  177.1670  145.0150 C   0  0  0  0  0  2  0  0  0  0  0  0
  189.6520  176.8010  147.4880 C   0  0  0  0  0  2  0  0  0  0  0  0
  188.0200  177.2550  145.8000 C   0  0  1  0  0  3  0  0  0  0  0  0
  188.4480  177.6240  147.2400 C   0  0  0  0  0  2  0  0  0  0  0  0
  190.7470  177.2050  146.5160 C   0  0  1  0  0  3  0  0  0  0  0  0
  192.0940  175.2050  145.8000 N   0  0  0  0  0  1  0  0  0  0  0  0
  191.9690  176.3330  146.7590 C   0  0  0  0  0  2  0  0  0  0  0  0
  185.9500  176.2490  136.9280 C   0  0  0  0  0  0  0  0  0  0  0  0
  184.7090  174.3560  136.0450 C   0  0  0  0  0  0  0  0  0  0  0  0
  185.1250  177.0380  136.0380 C   0  0  0  0  0  3  0  0  0  0  0  0
  183.8770  175.0730  135.2150 C   0  0  0  0  0  0  0  0  0  0  0  0
  184.1620  173.2440  136.5430 F   0  0  0  0  0  0  0  0  0  0  0  0
  184.0640  176.4170  135.2770 C   0  0  0  0  0  3  0  0  0  0  0  0
  185.7370  174.9040  136.8060 C   0  0  0  0  0  3  0  0  0  0  0  0
  182.6380  174.4270  134.6390 C   0  0  0  0  0  2  0  0  0  0  0  0
  180.2560  173.5630  137.8630 N   0  0  0  0  0  0  0  0  0  0  0  0
  180.2270  173.8620  135.3790 C   0  0  0  0  0  2  0  0  0  0  0  0
  181.5310  175.5390  136.8740 C   0  0  0  0  0  2  0  0  0  0  0  0
  180.3060  172.8430  136.5410 C   0  0  0  0  0  2  0  0  0  0  0  0
  181.3770  174.8220  135.4410 C   0  0  1  0  0  3  0  0  0  0  0  0
  180.9060  174.7550  138.0810 C   0  0  0  0  0  0  0  0  0  0  0  0
  180.1380  175.1710  140.3070 O   0  0  0  0  0  1  0  0  0  0  0  0
  182.2310  175.8030  139.9740 O   0  0  0  0  0  0  0  0  0  0  0  0
  181.0570  175.2350  139.5190 C   0  0  0  0  0  0  0  0  0  0  0  0
  190.9000  176.9560  138.1850 C   0  0  0  0  0  2  0  0  0  0  0  0
  193.5610  175.6410  138.3400 C   0  0  1  0  0  3  0  0  0  0  0  0
  193.1080  176.9170  137.8940 C   0  0  0  0  0  2  0  0  0  0  0  0
  192.0740  176.0600  138.5400 N   0  0  0  0  0  0  0  0  0  0  0  0
  195.0230  172.1690  135.3970 N   0  0  0  0  0  0  0  0  0  0  0  0
  192.8720  171.4770  135.7730 O   0  0  0  0  0  0  0  0  0  0  0  0
  193.7340  172.3710  136.0770 C   0  0  0  0  0  0  0  0  0  0  0  0
  196.1160  174.2470  135.5540 O   0  0  0  0  0  0  0  0  0  0  0  0
  193.3910  173.3940  136.9920 N   0  0  0  0  0  2  0  0  0  0  0  0
  193.9850  174.7430  137.1260 C   0  0  1  0  0  3  0  0  0  0  0  0
  194.6840  175.3540  135.5630 S   0  0  0  0  0  0  0  0  0  0  0  0
  196.0490  172.8890  135.2010 C   0  0  0  0  0  0  0  0  0  0  0  0
  197.1160  172.3000  134.3530 C   0  0  0  0  0  2  0  0  0  0  0  0
  198.7670  174.2960  134.5920 C   0  0  0  0  0  1  0  0  0  0  0  0
  198.5470  172.8340  134.3460 C   0  0  0  0  0  3  0  0  0  0  0  0
  199.5090  171.9500  135.1960 C   0  0  0  0  0  1  0  0  0  0  0  0
  1  6  1  0  0  0  0
  1  7  1  0  0  0  0
  2  5  1  0  0  0  0
  2 10  1  0  0  0  0
  4  3  1  1  0  0  0
  5  4  1  0  0  0  0
  6 30  1  6  0  0  0
  6  2  1  0  0  0  0
  7 47  1  6  0  0  0
  7  4  1  0  0  0  0
  8 13  1  0  0  0  0
  9 11  1  0  0  0  0
 10  8  2  0  0  0  0
 11 14  1  0  0  0  0
 11 13  2  0  0  0  0
 12  9  1  0  0  0  0
 13 17  1  0  0  0  0
 15 10  1  0  0  0  0
 15  9  2  0  0  0  0
 17 16  2  0  0  0  0
 17 18  1  0  0  0  0
 18 19  1  0  0  0  0
 19 20  1  0  0  0  0
 21 20  1  0  0  0  0
 22 23  1  0  0  0  0
 22 25  1  0  0  0  0
 23 27  1  0  0  0  0
 25 21  1  6  0  0  0
 25 26  1  0  0  0  0
 26 24  1  0  0  0  0
 27 29  1  6  0  0  0
 27 24  1  0  0  0  0
 28 29  1  0  0  0  0
 31 34  1  0  0  0  0
 31 36  2  0  0  0  0
 32 30  2  0  0  0  0
 33 35  2  0  0  0  0
 33 31  1  0  0  0  0
 35 32  1  0  0  0  0
 36 30  1  0  0  0  0
 37 33  1  0  0  0  0
 38 43  2  0  0  0  0
 39 42  1  0  0  0  0
 39 41  1  0  0  0  0
 40 43  1  0  0  0  0
 41 38  1  0  0  0  0
 42 37  1  1  0  0  0
 42 40  1  0  0  0  0
 43 46  1  0  0  0  0
 46 45  2  0  0  0  0
 46 44  1  0  0  0  0
 47 50  1  0  0  0  0
 48 49  1  6  0  0  0
 48 50  1  0  0  0  0
 49 50  1  0  0  0  0
 51 53  1  0  0  0  0
 52 53  2  0  0  0  0
 53 55  1  0  0  0  0
 54 57  1  0  0  0  0
 55 56  1  0  0  0  0
 56 57  1  6  0  0  0
 56 48  1  0  0  0  0
 58 51  2  0  0  0  0
 58 54  1  0  0  0  0
 59 58  1  0  0  0  0
 61 59  1  0  0  0  0
 61 60  1  0  0  0  0
 61 62  1  0  0  0  0
M  END
>  <MODEL>
8

>  <REMARK>
 VINA RESULT:      -6.4      1.548      1.977
  Name = 
  17 active torsions:
  status: ('A' for Active; 'I' for Inactive)
    1  A    between atoms: C_1  and  N_35
    2  A    between atoms: C_1  and  C_60
    3  A    between atoms: C_2  and  C_49
    4  A    between atoms: C_5  and  C_48
    5  A    between atoms: C_11  and  C_41
    6  A    between atoms: N_14  and  C_17
    7  A    between atoms: N_14  and  C_33
    8  A    between atoms: C_17  and  C_36
    9  A    between atoms: C_18  and  C_29
   10  A    between atoms: N_22  and  C_28
   11  A    between atoms: C_29  and  C_47
   12  A    between atoms: C_33  and  C_52
   13  A    between atoms: C_36  and  C_54
   14  A    between atoms: C_40  and  C_54
   15  A    between atoms: C_41  and  C_62
   16  A    between atoms: C_53  and  C_58
   17  A    between atoms: CA_56  and  C_61
                            x       y       z     vdW  Elec       q    Type
                         _______ _______ _______ _____ _____    ______ ____

>  <TORSDO>
F 17

$$$$
=
 OpenBabel10232410093D

 62 68  0  0  1  0  0  0  0  0999 V2000
  190.9550  176.4950  137.9830 C   0  0  0  0  0  2  0  0  0  0  0  0
  188.4690  176.6850  137.5930 N   0  0  0  0  0  0  0  0  0  0  0  0
  190.1340  176.9480  134.3470 O   0  0  0  0  0  1  0  0  0  0  0  0
  189.9520  177.0620  135.7050 C   0  0  1  0  0  3  0  0  0  0  0  0
  188.7800  176.2060  136.2450 C   0  0  0  0  0  2  0  0  0  0  0  0
  189.6530  177.0620  138.4770 C   0  0  1  0  0  3  0  0  0  0  0  0
  191.2650  176.7890  136.4670 C   0  0  2  0  0  3  0  0  0  0  0  0
  186.4890  177.6190  138.9410 C   0  0  0  0  0  3  0  0  0  0  0  0
  184.8290  177.4960  136.7840 C   0  0  0  0  0  0  0  0  0  0  0  0
  187.0850  177.1560  137.7080 C   0  0  0  0  0  0  0  0  0  0  0  0
  184.2210  177.8460  137.9540 C   0  0  0  0  0  0  0  0  0  0  0  0
  184.0900  177.4350  135.6830 F   0  0  0  0  0  0  0  0  0  0  0  0
  185.1120  178.0790  138.9490 C   0  0  0  0  0  0  0  0  0  0  0  0
  182.7450  178.0810  138.0320 C   0  0  0  0  0  1  0  0  0  0  0  0
  186.2340  177.3340  136.6280 C   0  0  0  0  0  3  0  0  0  0  0  0
  185.4440  179.8300  140.4990 O   0  0  0  0  0  0  0  0  0  0  0  0
  184.6530  179.0000  139.9920 C   0  0  0  0  0  0  0  0  0  0  0  0
  183.4290  178.7740  140.6790 C   0  0  0  0  0  2  0  0  0  0  0  0
  183.7680  177.9620  141.8980 C   0  0  0  0  0  2  0  0  0  0  0  0
  184.4830  178.8030  142.8140 N   0  0  0  0  0  2  0  0  0  0  0  0
  183.8120  178.7540  144.1090 C   0  0  0  0  0  2  0  0  0  0  0  0
  186.0030  177.6240  144.6680 C   0  0  0  0  0  2  0  0  0  0  0  0
  186.6260  177.1070  146.0150 C   0  0  0  0  0  2  0  0  0  0  0  0
  185.7020  179.2520  147.1290 C   0  0  0  0  0  2  0  0  0  0  0  0
  184.8470  178.4550  145.0430 C   0  0  1  0  0  3  0  0  0  0  0  0
  185.3080  179.7310  145.7850 C   0  0  0  0  0  2  0  0  0  0  0  0
  186.8710  178.2920  146.9990 C   0  0  1  0  0  3  0  0  0  0  0  0
  188.5710  177.1090  148.4260 N   0  0  0  0  0  1  0  0  0  0  0  0
  187.2480  177.7830  148.3820 C   0  0  0  0  0  2  0  0  0  0  0  0
  189.6430  177.3160  139.9980 C   0  0  0  0  0  0  0  0  0  0  0  0
  190.8410  177.2070  142.1090 C   0  0  0  0  0  0  0  0  0  0  0  0
  188.6160  177.9880  140.7660 C   0  0  0  0  0  3  0  0  0  0  0  0
  189.9070  177.8770  142.8660 C   0  0  0  0  0  0  0  0  0  0  0  0
  192.1020  177.3800  142.5120 F   0  0  0  0  0  0  0  0  0  0  0  0
  188.8330  178.3120  142.1570 C   0  0  0  0  0  3  0  0  0  0  0  0
  190.6870  176.8800  140.7650 C   0  0  0  0  0  3  0  0  0  0  0  0
  190.2770  178.4070  144.2330 C   0  0  0  0  0  2  0  0  0  0  0  0
  192.1900  175.4780  146.3730 N   0  0  0  0  0  0  0  0  0  0  0  0
  190.2580  175.8950  144.8380 C   0  0  0  0  0  2  0  0  0  0  0  0
  190.7540  177.5470  146.7810 C   0  0  0  0  0  2  0  0  0  0  0  0
  191.7250  175.4130  144.9420 C   0  0  0  0  0  2  0  0  0  0  0  0
  190.1340  177.3120  145.3140 C   0  0  1  0  0  3  0  0  0  0  0  0
  191.8500  176.5120  147.2140 C   0  0  0  0  0  0  0  0  0  0  0  0
  193.2170  175.7150  149.0070 O   0  0  0  0  0  0  0  0  0  0  0  0
  192.6280  177.8330  149.2360 O   0  0  0  0  0  1  0  0  0  0  0  0
  192.6180  176.6500  148.5230 C   0  0  0  0  0  0  0  0  0  0  0  0
  192.1880  175.6820  135.8220 C   0  0  0  0  0  2  0  0  0  0  0  0
  195.1030  175.5910  135.2520 C   0  0  1  0  0  3  0  0  0  0  0  0
  193.9750  174.8620  134.7760 C   0  0  0  0  0  2  0  0  0  0  0  0
  193.6630  176.0100  135.6720 N   0  0  0  0  0  0  0  0  0  0  0  0
  198.6050  173.4070  137.6660 N   0  0  0  0  0  0  0  0  0  0  0  0
  198.5090  175.3810  138.8240 O   0  0  0  0  0  0  0  0  0  0  0  0
  198.0130  174.7440  137.8340 C   0  0  0  0  0  0  0  0  0  0  0  0
  197.0780  172.2410  136.3070 O   0  0  0  0  0  0  0  0  0  0  0  0
  197.0170  175.3540  137.0350 N   0  0  0  0  0  2  0  0  0  0  0  0
  195.9870  174.7020  136.1950 C   0  0  1  0  0  3  0  0  0  0  0  0
  195.5360  173.0490  136.8040 S   0  0  0  0  0  0  0  0  0  0  0  0
  198.2860  172.3680  137.0120 C   0  0  0  0  0  0  0  0  0  0  0  0
  199.1450  171.1730  137.2140 C   0  0  0  0  0  2  0  0  0  0  0  0
  197.3060  169.3530  136.9430 C   0  0  0  0  0  1  0  0  0  0  0  0
  198.5750  169.8090  137.5970 C   0  0  0  0  0  3  0  0  0  0  0  0
  199.6640  168.6940  137.5920 C   0  0  0  0  0  1  0  0  0  0  0  0
  1  6  1  0  0  0  0
  2 10  1  0  0  0  0
  2  6  1  0  0  0  0
  4  3  1  6  0  0  0
  4  5  1  0  0  0  0
  4  7  1  0  0  0  0
  5  2  1  0  0  0  0
  6 30  1  1  0  0  0
  7 47  1  6  0  0  0
  7  1  1  0  0  0  0
  8 13  1  0  0  0  0
  9 11  1  0  0  0  0
 10  8  2  0  0  0  0
 11 14  1  0  0  0  0
 11 13  2  0  0  0  0
 12  9  1  0  0  0  0
 13 17  1  0  0  0  0
 15  9  2  0  0  0  0
 15 10  1  0  0  0  0
 17 16  2  0  0  0  0
 17 18  1  0  0  0  0
 18 19  1  0  0  0  0
 19 20  1  0  0  0  0
 20 21  1  0  0  0  0
 22 25  1  0  0  0  0
 22 23  1  0  0  0  0
 23 27  1  0  0  0  0
 25 21  1  6  0  0  0
 25 26  1  0  0  0  0
 26 24  1  0  0  0  0
 27 24  1  0  0  0  0
 27 29  1  1  0  0  0
 29 28  1  0  0  0  0
 30 36  2  0  0  0  0
 30 32  1  0  0  0  0
 31 34  1  0  0  0  0
 31 33  2  0  0  0  0
 32 35  2  0  0  0  0
 33 37  1  0  0  0  0
 35 33  1  0  0  0  0
 36 31  1  0  0  0  0
 38 43  2  0  0  0  0
 39 41  1  0  0  0  0
 39 42  1  0  0  0  0
 40 43  1  0  0  0  0
 41 38  1  0  0  0  0
 42 37  1  6  0  0  0
 42 40  1  0  0  0  0
 43 46  1  0  0  0  0
 46 44  2  0  0  0  0
 46 45  1  0  0  0  0
 48 49  1  6  0  0  0
 48 50  1  0  0  0  0
 48 56  1  0  0  0  0
 49 50  1  0  0  0  0
 50 47  1  0  0  0  0
 51 53  1  0  0  0  0
 53 52  2  0  0  0  0
 54 57  1  0  0  0  0
 54 58  1  0  0  0  0
 55 53  1  0  0  0  0
 56 57  1  1  0  0  0
 56 55  1  0  0  0  0
 58 59  1  0  0  0  0
 58 51  2  0  0  0  0
 59 61  1  0  0  0  0
 60 61  1  0  0  0  0
 62 61  1  0  0  0  0
M  END
>  <MODEL>
9

>  <REMARK>
 VINA RESULT:      -6.1      2.717      6.847
  Name = 
  17 active torsions:
  status: ('A' for Active; 'I' for Inactive)
    1  A    between atoms: C_1  and  N_35
    2  A    between atoms: C_1  and  C_60
    3  A    between atoms: C_2  and  C_49
    4  A    between atoms: C_5  and  C_48
    5  A    between atoms: C_11  and  C_41
    6  A    between atoms: N_14  and  C_17
    7  A    between atoms: N_14  and  C_33
    8  A    between atoms: C_17  and  C_36
    9  A    between atoms: C_18  and  C_29
   10  A    between atoms: N_22  and  C_28
   11  A    between atoms: C_29  and  C_47
   12  A    between atoms: C_33  and  C_52
   13  A    between atoms: C_36  and  C_54
   14  A    between atoms: C_40  and  C_54
   15  A    between atoms: C_41  and  C_62
   16  A    between atoms: C_53  and  C_58
   17  A    between atoms: CA_56  and  C_61
                            x       y       z     vdW  Elec       q    Type
                         _______ _______ _______ _____ _____    ______ ____

>  <TORSDO>
F 17

$$$$
