=
 OpenBabel10232412343D

 34 37  0  0  1  0  0  0  0  0999 V2000
  186.9930  177.8180  146.3330 C   0  0  0  0  0  0  0  0  0  0  0  0
  184.0260  178.8120  142.8410 C   0  0  0  0  0  0  0  0  0  0  0  0
  187.7720  175.7880  143.8910 O   0  0  0  0  0  1  0  0  0  0  0  0
  185.5800  178.5080  146.9650 S   0  0  0  0  0  0  0  0  0  0  0  0
  188.0250  177.1400  144.1250 C   0  0  2  0  0  3  0  0  0  0  0  0
  189.3870  177.3030  144.8330 C   0  0  2  0  0  3  0  0  0  0  0  0
  183.2100  179.2740  143.8920 C   0  0  0  0  0  3  0  0  0  0  0  0
  183.5910  178.8880  141.5610 F   0  0  0  0  0  0  0  0  0  0  0  0
  189.3340  176.7930  146.2970 C   0  0  2  0  0  3  0  0  0  0  0  0
  185.7000  178.2130  144.4530 C   0  0  0  0  0  0  0  0  0  0  0  0
  185.2910  178.2730  143.1220 C   0  0  0  0  0  3  0  0  0  0  0  0
  184.8610  178.6800  145.4530 C   0  0  0  0  0  0  0  0  0  0  0  0
  186.9130  177.7290  144.9470 C   0  0  0  0  0  0  0  0  0  0  0  0
  183.6390  179.2020  145.1850 N   0  0  0  0  0  0  0  0  0  0  0  0
  188.1890  177.4000  147.0730 C   0  0  0  0  0  0  0  0  0  0  0  0
  188.2260  177.4800  148.3290 O   0  0  0  0  0  0  0  0  0  0  0  0
  190.6030  177.0180  146.9770 N   0  0  0  0  0  2  0  0  0  0  0  0
  192.4790  175.8760  147.9350 C   0  0  0  0  0  2  0  0  0  0  0  0
  191.1430  175.7140  147.3240 C   0  0  2  0  0  3  0  0  0  0  0  0
  192.3240  175.4970  146.5900 O   0  0  0  0  0  0  0  0  0  0  0  0
  189.8690  178.7560  144.7620 C   0  0  0  0  0  2  0  0  0  0  0  0
  190.5400  179.0610  143.4310 C   0  0  0  0  0  2  0  0  0  0  0  0
  191.8800  178.3410  143.3140 C   0  0  1  0  0  3  0  0  0  0  0  0
  192.3260  177.9050  144.5530 F   0  0  0  0  0  0  0  0  0  0  0  0
  191.8080  177.2360  142.3610 N   0  0  0  0  0  2  0  0  0  0  0  0
  190.8010  177.5220  141.3440 C   0  0  0  0  0  2  0  0  0  0  0  0
  191.3250  177.1350  139.9720 C   0  0  0  0  0  2  0  0  0  0  0  0
  190.4530  176.1450  139.3550 N   0  0  0  0  0  2  0  0  0  0  0  0
  190.0780  176.6400  138.0390 C   0  0  0  0  0  2  0  0  0  0  0  0
  189.7280  177.9910  138.1220 O   0  0  0  0  0  0  0  0  0  0  0  0
  188.0330  178.0280  138.0560 P   0  0  0  0  0  0  0  0  0  0  0  0
  187.5530  179.1630  136.8980 O   0  0  0  0  0  0  0  0  0  0  0  0
  187.4730  178.4300  139.4020 O   0  0  0  0  0  1  0  0  0  0  0  0
  187.4340  176.5060  137.6240 O   0  0  0  0  0  1  0  0  0  0  0  0
  1  4  1  0  0  0  0
  1 15  1  0  0  0  0
  2 11  2  0  0  0  0
  2  7  1  0  0  0  0
  5  3  1  1  0  0  0
  5  6  1  0  0  0  0
  5 13  1  0  0  0  0
  6 21  1  1  0  0  0
  6  9  1  0  0  0  0
  7 14  2  0  0  0  0
  8  2  1  0  0  0  0
  9 17  1  1  0  0  0
  9 15  1  0  0  0  0
 10 13  1  0  0  0  0
 10 12  2  0  0  0  0
 11 10  1  0  0  0  0
 12  4  1  0  0  0  0
 13  1  2  0  0  0  0
 14 12  1  0  0  0  0
 15 16  2  0  0  0  0
 19 17  1  6  0  0  0
 19 18  1  0  0  0  0
 20 19  1  0  0  0  0
 20 18  1  0  0  0  0
 22 21  1  0  0  0  0
 23 22  1  0  0  0  0
 23 24  1  1  0  0  0
 25 23  1  0  0  0  0
 26 25  1  0  0  0  0
 27 26  1  0  0  0  0
 28 27  1  0  0  0  0
 29 30  1  0  0  0  0
 29 28  1  0  0  0  0
 31 30  1  0  0  0  0
 31 33  1  0  0  0  0
 32 31  2  0  0  0  0
 34 31  1  0  0  0  0
M  END
>  <MODEL>
1

>  <REMARK>
 VINA RESULT:      -8.0      0.000      0.000
  Name = 
  12 active torsions:
  status: ('A' for Active; 'I' for Inactive)
    1  A    between atoms: C_2  and  O_4
    2  A    between atoms: C_2  and  N_12
    3  A    between atoms: O_4  and  P_13
    4  A    between atoms: N_5  and  C_18
    5  A    between atoms: N_5  and  C_29
    6  A    between atoms: C_6  and  C_8
    7  A    between atoms: C_6  and  N_12
    8  A    between atoms: C_8  and  N_16
    9  A    between atoms: C_11  and  C_23
   10  A    between atoms: C_15  and  C_23
   11  A    between atoms: C_15  and  C_32
   12  A    between atoms: N_16  and  C_32
                            x       y       z     vdW  Elec       q    Type
                         _______ _______ _______ _____ _____    ______ ____

>  <TORSDO>
F 12

$$$$
=
 OpenBabel10232412343D

 34 37  0  0  1  0  0  0  0  0999 V2000
  187.8890  176.1970  137.3340 C   0  0  0  0  0  0  0  0  0  0  0  0
  183.9720  178.5730  138.3330 C   0  0  0  0  0  0  0  0  0  0  0  0
  188.7590  179.3460  137.4570 O   0  0  0  0  0  1  0  0  0  0  0  0
  186.5380  175.3060  136.8320 S   0  0  0  0  0  0  0  0  0  0  0  0
  188.4880  178.3930  138.4380 C   0  0  2  0  0  3  0  0  0  0  0  0
  189.7970  177.6970  138.8690 C   0  0  2  0  0  3  0  0  0  0  0  0
  183.3460  177.4540  137.7500 C   0  0  0  0  0  3  0  0  0  0  0  0
  183.2240  179.5970  138.8090 F   0  0  0  0  0  0  0  0  0  0  0  0
  190.3450  176.7700  137.7520 C   0  0  2  0  0  3  0  0  0  0  0  0
  186.1040  177.5500  137.9190 C   0  0  0  0  0  0  0  0  0  0  0  0
  185.3720  178.6250  138.4200 C   0  0  0  0  0  3  0  0  0  0  0  0
  185.4430  176.4720  137.3530 C   0  0  0  0  0  0  0  0  0  0  0  0
  187.4910  177.3960  137.9160 C   0  0  0  0  0  0  0  0  0  0  0  0
  184.0900  176.4170  137.2670 N   0  0  0  0  0  0  0  0  0  0  0  0
  189.2990  175.8020  137.2490 C   0  0  0  0  0  0  0  0  0  0  0  0
  189.6290  174.7160  136.7040 O   0  0  0  0  0  0  0  0  0  0  0  0
  191.5400  176.0640  138.1950 N   0  0  0  0  0  2  0  0  0  0  0  0
  193.7690  175.5200  137.5060 C   0  0  0  0  0  2  0  0  0  0  0  0
  192.6080  176.4030  137.2700 C   0  0  2  0  0  3  0  0  0  0  0  0
  193.7300  176.8340  138.0030 O   0  0  0  0  0  0  0  0  0  0  0  0
  189.6040  176.9370  140.1850 C   0  0  0  0  0  2  0  0  0  0  0  0
  190.0070  177.7810  141.3860 C   0  0  0  0  0  2  0  0  0  0  0  0
  188.7790  178.3200  142.1140 C   0  0  1  0  0  3  0  0  0  0  0  0
  188.0730  179.2090  141.3180 F   0  0  0  0  0  0  0  0  0  0  0  0
  187.9200  177.2340  142.5810 N   0  0  0  0  0  2  0  0  0  0  0  0
  186.8730  177.7660  143.4470 C   0  0  0  0  0  2  0  0  0  0  0  0
  186.8260  176.9810  144.7460 C   0  0  0  0  0  2  0  0  0  0  0  0
  187.4110  177.7560  145.8310 N   0  0  0  0  0  2  0  0  0  0  0  0
  188.7730  177.2840  146.0320 C   0  0  0  0  0  2  0  0  0  0  0  0
  189.6810  178.2470  145.5810 O   0  0  0  0  0  0  0  0  0  0  0  0
  191.0740  177.3880  145.1340 P   0  0  0  0  0  0  0  0  0  0  0  0
  192.0700  178.3980  144.2120 O   0  0  0  0  0  0  0  0  0  0  0  0
  190.6930  176.1820  144.3060 O   0  0  0  0  0  1  0  0  0  0  0  0
  191.9160  176.8870  146.5130 O   0  0  0  0  0  1  0  0  0  0  0  0
  1 13  2  0  0  0  0
  2 11  1  0  0  0  0
  2  8  1  0  0  0  0
  4  1  1  0  0  0  0
  4 12  1  0  0  0  0
  5  3  1  6  0  0  0
  5  6  1  0  0  0  0
  6 21  1  1  0  0  0
  7  2  2  0  0  0  0
  9 17  1  1  0  0  0
  9  6  1  0  0  0  0
 10 11  2  0  0  0  0
 12 10  1  0  0  0  0
 13 10  1  0  0  0  0
 13  5  1  0  0  0  0
 14 12  2  0  0  0  0
 14  7  1  0  0  0  0
 15  1  1  0  0  0  0
 15  9  1  0  0  0  0
 16 15  2  0  0  0  0
 18 20  1  0  0  0  0
 19 18  1  0  0  0  0
 19 20  1  0  0  0  0
 19 17  1  1  0  0  0
 21 22  1  0  0  0  0
 22 23  1  0  0  0  0
 23 24  1  6  0  0  0
 23 25  1  0  0  0  0
 25 26  1  0  0  0  0
 26 27  1  0  0  0  0
 27 28  1  0  0  0  0
 28 29  1  0  0  0  0
 30 29  1  0  0  0  0
 31 30  1  0  0  0  0
 31 34  1  0  0  0  0
 32 31  2  0  0  0  0
 33 31  1  0  0  0  0
M  END
>  <MODEL>
2

>  <REMARK>
 VINA RESULT:      -6.5      3.854      7.550
  Name = 
  12 active torsions:
  status: ('A' for Active; 'I' for Inactive)
    1  A    between atoms: C_2  and  O_4
    2  A    between atoms: C_2  and  N_12
    3  A    between atoms: O_4  and  P_13
    4  A    between atoms: N_5  and  C_18
    5  A    between atoms: N_5  and  C_29
    6  A    between atoms: C_6  and  C_8
    7  A    between atoms: C_6  and  N_12
    8  A    between atoms: C_8  and  N_16
    9  A    between atoms: C_11  and  C_23
   10  A    between atoms: C_15  and  C_23
   11  A    between atoms: C_15  and  C_32
   12  A    between atoms: N_16  and  C_32
                            x       y       z     vdW  Elec       q    Type
                         _______ _______ _______ _____ _____    ______ ____

>  <TORSDO>
F 12

$$$$
=
 OpenBabel10232412343D

 34 37  0  0  1  0  0  0  0  0999 V2000
  187.9320  176.2520  137.3200 C   0  0  0  0  0  0  0  0  0  0  0  0
  184.1610  178.7480  138.5580 C   0  0  0  0  0  0  0  0  0  0  0  0
  188.9840  179.3200  137.7290 O   0  0  0  0  0  1  0  0  0  0  0  0
  186.5310  175.4910  136.7460 S   0  0  0  0  0  0  0  0  0  0  0  0
  188.6590  178.2970  138.6190 C   0  0  2  0  0  3  0  0  0  0  0  0
  189.9250  177.4900  138.9750 C   0  0  2  0  0  3  0  0  0  0  0  0
  183.4700  177.7260  137.8780 C   0  0  0  0  0  3  0  0  0  0  0  0
  183.4740  179.7640  139.1320 F   0  0  0  0  0  0  0  0  0  0  0  0
  190.4170  176.6400  137.7740 C   0  0  2  0  0  3  0  0  0  0  0  0
  186.2290  177.6460  138.0380 C   0  0  0  0  0  0  0  0  0  0  0  0
  185.5610  178.7100  138.6420 C   0  0  0  0  0  3  0  0  0  0  0  0
  185.5050  176.6650  137.3790 C   0  0  0  0  0  0  0  0  0  0  0  0
  187.6050  177.4120  138.0130 C   0  0  0  0  0  0  0  0  0  0  0  0
  184.1520  176.6970  137.2970 N   0  0  0  0  0  0  0  0  0  0  0  0
  189.3160  175.7860  137.1900 C   0  0  0  0  0  0  0  0  0  0  0  0
  189.5820  174.7370  136.5450 O   0  0  0  0  0  0  0  0  0  0  0  0
  191.5690  175.8280  138.1420 N   0  0  0  0  0  2  0  0  0  0  0  0
  193.9010  175.5650  137.6580 C   0  0  0  0  0  2  0  0  0  0  0  0
  192.7500  176.4900  137.6140 C   0  0  2  0  0  3  0  0  0  0  0  0
  193.7240  176.5680  138.6260 O   0  0  0  0  0  0  0  0  0  0  0  0
  189.6890  176.6230  140.2160 C   0  0  0  0  0  2  0  0  0  0  0  0
  189.1800  177.4480  141.3900 C   0  0  0  0  0  2  0  0  0  0  0  0
  189.3410  176.6900  142.7040 C   0  0  1  0  0  3  0  0  0  0  0  0
  188.1370  176.1340  143.1130 F   0  0  0  0  0  0  0  0  0  0  0  0
  190.3850  175.6720  142.6060 N   0  0  0  0  0  2  0  0  0  0  0  0
  191.4090  175.9130  143.6180 C   0  0  0  0  0  2  0  0  0  0  0  0
  191.3830  177.3700  144.0450 C   0  0  0  0  0  2  0  0  0  0  0  0
  191.5790  177.4820  145.4840 N   0  0  0  0  0  2  0  0  0  0  0  0
  190.4180  176.8960  146.1380 C   0  0  0  0  0  2  0  0  0  0  0  0
  189.3290  177.7690  146.0440 O   0  0  0  0  0  0  0  0  0  0  0  0
  188.5590  177.7020  147.5540 P   0  0  0  0  0  0  0  0  0  0  0  0
  189.5140  178.5060  148.6940 O   0  0  0  0  0  1  0  0  0  0  0  0
  188.3870  176.2620  147.9820 O   0  0  0  0  0  1  0  0  0  0  0  0
  187.0450  178.4530  147.4680 O   0  0  0  0  0  0  0  0  0  0  0  0
  1 13  2  0  0  0  0
  2 11  1  0  0  0  0
  2  8  1  0  0  0  0
  4  1  1  0  0  0  0
  4 12  1  0  0  0  0
  5  3  1  6  0  0  0
  5  6  1  0  0  0  0
  6 21  1  1  0  0  0
  7  2  2  0  0  0  0
  9 17  1  1  0  0  0
  9  6  1  0  0  0  0
 10 11  2  0  0  0  0
 12 10  1  0  0  0  0
 13 10  1  0  0  0  0
 13  5  1  0  0  0  0
 14 12  2  0  0  0  0
 14  7  1  0  0  0  0
 15  1  1  0  0  0  0
 15  9  1  0  0  0  0
 16 15  2  0  0  0  0
 18 20  1  0  0  0  0
 19 18  1  0  0  0  0
 19 17  1  1  0  0  0
 19 20  1  0  0  0  0
 21 22  1  0  0  0  0
 22 23  1  0  0  0  0
 23 24  1  6  0  0  0
 25 23  1  0  0  0  0
 25 26  1  0  0  0  0
 26 27  1  0  0  0  0
 27 28  1  0  0  0  0
 28 29  1  0  0  0  0
 30 29  1  0  0  0  0
 30 31  1  0  0  0  0
 31 33  1  0  0  0  0
 31 32  1  0  0  0  0
 34 31  2  0  0  0  0
M  END
>  <MODEL>
3

>  <REMARK>
 VINA RESULT:      -6.4      3.988      7.641
  Name = 
  12 active torsions:
  status: ('A' for Active; 'I' for Inactive)
    1  A    between atoms: C_2  and  O_4
    2  A    between atoms: C_2  and  N_12
    3  A    between atoms: O_4  and  P_13
    4  A    between atoms: N_5  and  C_18
    5  A    between atoms: N_5  and  C_29
    6  A    between atoms: C_6  and  C_8
    7  A    between atoms: C_6  and  N_12
    8  A    between atoms: C_8  and  N_16
    9  A    between atoms: C_11  and  C_23
   10  A    between atoms: C_15  and  C_23
   11  A    between atoms: C_15  and  C_32
   12  A    between atoms: N_16  and  C_32
                            x       y       z     vdW  Elec       q    Type
                         _______ _______ _______ _____ _____    ______ ____

>  <TORSDO>
F 12

$$$$
=
 OpenBabel10232412343D

 34 37  0  0  1  0  0  0  0  0999 V2000
  188.0420  176.3770  137.4560 C   0  0  0  0  0  0  0  0  0  0  0  0
  184.0610  178.6900  138.3420 C   0  0  0  0  0  0  0  0  0  0  0  0
  188.9100  179.4850  137.9810 O   0  0  0  0  0  1  0  0  0  0  0  0
  186.7380  175.5600  136.7470 S   0  0  0  0  0  0  0  0  0  0  0  0
  188.5480  178.4390  138.8300 C   0  0  2  0  0  3  0  0  0  0  0  0
  189.8100  177.6860  139.3020 C   0  0  2  0  0  3  0  0  0  0  0  0
  183.4850  177.6450  137.5940 C   0  0  0  0  0  3  0  0  0  0  0  0
  183.2770  179.6690  138.8530 F   0  0  0  0  0  0  0  0  0  0  0  0
  190.4520  176.8710  138.1480 C   0  0  2  0  0  3  0  0  0  0  0  0
  186.2170  177.6870  138.0160 C   0  0  0  0  0  0  0  0  0  0  0  0
  185.4470  178.7140  138.5590 C   0  0  0  0  0  3  0  0  0  0  0  0
  185.6050  176.6810  137.2860 C   0  0  0  0  0  0  0  0  0  0  0  0
  187.5990  177.5150  138.1210 C   0  0  0  0  0  0  0  0  0  0  0  0
  184.2650  176.6530  137.0750 N   0  0  0  0  0  0  0  0  0  0  0  0
  189.4520  175.9740  137.4570 C   0  0  0  0  0  0  0  0  0  0  0  0
  189.8260  174.9450  136.8340 O   0  0  0  0  0  0  0  0  0  0  0  0
  191.6000  176.1070  138.6210 N   0  0  0  0  0  2  0  0  0  0  0  0
  193.7860  175.4520  137.8920 C   0  0  0  0  0  2  0  0  0  0  0  0
  192.7380  176.4900  137.8030 C   0  0  2  0  0  3  0  0  0  0  0  0
  193.8660  176.6450  138.6300 O   0  0  0  0  0  0  0  0  0  0  0  0
  189.4970  176.7980  140.5100 C   0  0  0  0  0  2  0  0  0  0  0  0
  189.5140  177.5890  141.8090 C   0  0  0  0  0  2  0  0  0  0  0  0
  189.5400  176.6590  143.0180 C   0  0  1  0  0  3  0  0  0  0  0  0
  190.0010  175.3970  142.6720 F   0  0  0  0  0  0  0  0  0  0  0  0
  190.3310  177.2280  144.1080 N   0  0  0  0  0  2  0  0  0  0  0  0
  189.6350  177.0390  145.3770 C   0  0  0  0  0  2  0  0  0  0  0  0
  188.4140  177.9420  145.4370 C   0  0  0  0  0  2  0  0  0  0  0  0
  187.2010  177.1740  145.1980 N   0  0  0  0  0  2  0  0  0  0  0  0
  186.2160  178.0680  144.6080 C   0  0  0  0  0  2  0  0  0  0  0  0
  185.8080  177.5720  143.3660 O   0  0  0  0  0  0  0  0  0  0  0  0
  184.7870  178.7590  142.7130 P   0  0  0  0  0  0  0  0  0  0  0  0
  185.7130  179.8330  141.7910 O   0  0  0  0  0  1  0  0  0  0  0  0
  184.1080  179.5260  143.8260 O   0  0  0  0  0  1  0  0  0  0  0  0
  183.6180  178.0420  141.7220 O   0  0  0  0  0  0  0  0  0  0  0  0
  1 15  1  0  0  0  0
  1 13  2  0  0  0  0
  2 11  1  0  0  0  0
  2  8  1  0  0  0  0
  4 12  1  0  0  0  0
  4  1  1  0  0  0  0
  5  3  1  6  0  0  0
  5  6  1  0  0  0  0
  6 21  1  1  0  0  0
  7  2  2  0  0  0  0
  9 17  1  1  0  0  0
  9  6  1  0  0  0  0
 10 13  1  0  0  0  0
 10 11  2  0  0  0  0
 12 10  1  0  0  0  0
 13  5  1  0  0  0  0
 14 12  2  0  0  0  0
 14  7  1  0  0  0  0
 15  9  1  0  0  0  0
 16 15  2  0  0  0  0
 18 20  1  0  0  0  0
 19 18  1  0  0  0  0
 19 17  1  1  0  0  0
 19 20  1  0  0  0  0
 21 22  1  0  0  0  0
 22 23  1  0  0  0  0
 23 24  1  6  0  0  0
 23 25  1  0  0  0  0
 25 26  1  0  0  0  0
 26 27  1  0  0  0  0
 28 27  1  0  0  0  0
 29 28  1  0  0  0  0
 30 29  1  0  0  0  0
 31 30  1  0  0  0  0
 31 33  1  0  0  0  0
 32 31  1  0  0  0  0
 34 31  2  0  0  0  0
M  END
>  <MODEL>
4

>  <REMARK>
 VINA RESULT:      -6.3      3.805      6.990
  Name = 
  12 active torsions:
  status: ('A' for Active; 'I' for Inactive)
    1  A    between atoms: C_2  and  O_4
    2  A    between atoms: C_2  and  N_12
    3  A    between atoms: O_4  and  P_13
    4  A    between atoms: N_5  and  C_18
    5  A    between atoms: N_5  and  C_29
    6  A    between atoms: C_6  and  C_8
    7  A    between atoms: C_6  and  N_12
    8  A    between atoms: C_8  and  N_16
    9  A    between atoms: C_11  and  C_23
   10  A    between atoms: C_15  and  C_23
   11  A    between atoms: C_15  and  C_32
   12  A    between atoms: N_16  and  C_32
                            x       y       z     vdW  Elec       q    Type
                         _______ _______ _______ _____ _____    ______ ____

>  <TORSDO>
F 12

$$$$
=
 OpenBabel10232412343D

 34 37  0  0  1  0  0  0  0  0999 V2000
  188.1390  175.1330  137.1190 C   0  0  0  0  0  0  0  0  0  0  0  0
  183.8640  176.9940  136.6260 C   0  0  0  0  0  0  0  0  0  0  0  0
  188.6080  178.1690  135.9990 O   0  0  0  0  0  1  0  0  0  0  0  0
  187.0010  173.8970  136.9010 S   0  0  0  0  0  0  0  0  0  0  0  0
  188.2910  177.6550  137.2560 C   0  0  2  0  0  3  0  0  0  0  0  0
  189.5830  177.4260  138.0690 C   0  0  2  0  0  3  0  0  0  0  0  0
  183.4750  175.6460  136.5050 C   0  0  0  0  0  3  0  0  0  0  0  0
  182.9350  177.9770  136.5500 F   0  0  0  0  0  0  0  0  0  0  0  0
  190.4100  176.2400  137.5060 C   0  0  2  0  0  3  0  0  0  0  0  0
  186.1370  176.2770  136.8970 C   0  0  0  0  0  0  0  0  0  0  0  0
  185.2140  177.3180  136.8250 C   0  0  0  0  0  3  0  0  0  0  0  0
  185.7070  174.9660  136.7710 C   0  0  0  0  0  0  0  0  0  0  0  0
  187.5150  176.3760  137.1010 C   0  0  0  0  0  0  0  0  0  0  0  0
  184.4030  174.6480  136.5790 N   0  0  0  0  0  0  0  0  0  0  0  0
  189.5800  174.9880  137.3510 C   0  0  0  0  0  0  0  0  0  0  0  0
  190.1180  173.8490  137.3480 O   0  0  0  0  0  0  0  0  0  0  0  0
  191.5890  175.9870  138.3230 N   0  0  0  0  0  2  0  0  0  0  0  0
  193.8480  175.3550  137.8360 C   0  0  0  0  0  2  0  0  0  0  0  0
  192.7520  176.2900  137.5060 C   0  0  2  0  0  3  0  0  0  0  0  0
  193.8180  176.6640  138.3450 O   0  0  0  0  0  0  0  0  0  0  0  0
  189.2660  177.2330  139.5560 C   0  0  0  0  0  2  0  0  0  0  0  0
  188.1550  178.1630  140.0190 C   0  0  0  0  0  2  0  0  0  0  0  0
  188.0730  178.2060  141.5420 C   0  0  1  0  0  3  0  0  0  0  0  0
  189.1580  178.8800  142.0840 F   0  0  0  0  0  0  0  0  0  0  0  0
  186.8110  178.7910  141.9900 N   0  0  0  0  0  2  0  0  0  0  0  0
  186.2160  177.9530  143.0260 C   0  0  0  0  0  2  0  0  0  0  0  0
  187.3020  177.1810  143.7560 C   0  0  0  0  0  2  0  0  0  0  0  0
  187.6370  177.8380  145.0110 N   0  0  0  0  0  2  0  0  0  0  0  0
  189.0840  177.7940  145.1650 C   0  0  0  0  0  2  0  0  0  0  0  0
  189.5950  176.6600  144.5260 O   0  0  0  0  0  0  0  0  0  0  0  0
  191.2820  176.8110  144.6090 P   0  0  0  0  0  0  0  0  0  0  0  0
  191.7310  177.0830  146.2170 O   0  0  0  0  0  1  0  0  0  0  0  0
  191.7380  177.9810  143.7660 O   0  0  0  0  0  0  0  0  0  0  0  0
  192.0220  175.3930  144.0590 O   0  0  0  0  0  1  0  0  0  0  0  0
  1 15  1  0  0  0  0
  2 11  1  0  0  0  0
  4  1  1  0  0  0  0
  5  3  1  6  0  0  0
  5  6  1  0  0  0  0
  6 21  1  1  0  0  0
  7 14  1  0  0  0  0
  7  2  2  0  0  0  0
  8  2  1  0  0  0  0
  9  6  1  0  0  0  0
  9 17  1  1  0  0  0
 10 13  1  0  0  0  0
 11 10  2  0  0  0  0
 12 10  1  0  0  0  0
 12  4  1  0  0  0  0
 13  1  2  0  0  0  0
 13  5  1  0  0  0  0
 14 12  2  0  0  0  0
 15  9  1  0  0  0  0
 16 15  2  0  0  0  0
 18 20  1  0  0  0  0
 19 18  1  0  0  0  0
 19 17  1  1  0  0  0
 19 20  1  0  0  0  0
 21 22  1  0  0  0  0
 22 23  1  0  0  0  0
 23 25  1  0  0  0  0
 23 24  1  6  0  0  0
 25 26  1  0  0  0  0
 26 27  1  0  0  0  0
 27 28  1  0  0  0  0
 28 29  1  0  0  0  0
 30 31  1  0  0  0  0
 30 29  1  0  0  0  0
 31 32  1  0  0  0  0
 33 31  2  0  0  0  0
 34 31  1  0  0  0  0
M  END
>  <MODEL>
5

>  <REMARK>
 VINA RESULT:      -6.3      4.172      7.869
  Name = 
  12 active torsions:
  status: ('A' for Active; 'I' for Inactive)
    1  A    between atoms: C_2  and  O_4
    2  A    between atoms: C_2  and  N_12
    3  A    between atoms: O_4  and  P_13
    4  A    between atoms: N_5  and  C_18
    5  A    between atoms: N_5  and  C_29
    6  A    between atoms: C_6  and  C_8
    7  A    between atoms: C_6  and  N_12
    8  A    between atoms: C_8  and  N_16
    9  A    between atoms: C_11  and  C_23
   10  A    between atoms: C_15  and  C_23
   11  A    between atoms: C_15  and  C_32
   12  A    between atoms: N_16  and  C_32
                            x       y       z     vdW  Elec       q    Type
                         _______ _______ _______ _____ _____    ______ ____

>  <TORSDO>
F 12

$$$$
=
 OpenBabel10232412343D

 34 37  0  0  1  0  0  0  0  0999 V2000
  183.0700  178.8860  142.7830 C   0  0  0  0  0  0  0  0  0  0  0  0
  187.3690  177.6600  144.1990 C   0  0  0  0  0  0  0  0  0  0  0  0
  185.0590  179.5330  140.2700 O   0  0  0  0  0  1  0  0  0  0  0  0
  183.1540  178.9510  144.4740 S   0  0  0  0  0  0  0  0  0  0  0  0
  184.5060  178.3540  140.7690 C   0  0  2  0  0  3  0  0  0  0  0  0
  183.1820  178.0450  140.0400 C   0  0  2  0  0  3  0  0  0  0  0  0
  186.8300  177.8920  145.4790 C   0  0  0  0  0  3  0  0  0  0  0  0
  188.6560  177.2600  144.0680 F   0  0  0  0  0  0  0  0  0  0  0  0
  182.0640  179.0450  140.4390 C   0  0  2  0  0  3  0  0  0  0  0  0
  185.2510  178.2550  143.2400 C   0  0  0  0  0  0  0  0  0  0  0  0
  186.5700  177.8430  143.0600 C   0  0  0  0  0  3  0  0  0  0  0  0
  184.7660  178.4710  144.5190 C   0  0  0  0  0  0  0  0  0  0  0  0
  184.2910  178.4830  142.2520 C   0  0  0  0  0  0  0  0  0  0  0  0
  185.5340  178.2950  145.6230 N   0  0  0  0  0  0  0  0  0  0  0  0
  181.9020  179.1510  141.9370 C   0  0  0  0  0  0  0  0  0  0  0  0
  180.8140  179.5290  142.4470 O   0  0  0  0  0  0  0  0  0  0  0  0
  180.8000  178.7010  139.8000 N   0  0  0  0  0  2  0  0  0  0  0  0
  180.0220  179.1420  137.5780 C   0  0  0  0  0  2  0  0  0  0  0  0
  180.5080  179.7470  138.8350 C   0  0  2  0  0  3  0  0  0  0  0  0
  181.3470  179.5880  137.7170 O   0  0  0  0  0  0  0  0  0  0  0  0
  182.7500  176.5950  140.2800 C   0  0  0  0  0  2  0  0  0  0  0  0
  182.3390  175.9090  138.9850 C   0  0  0  0  0  2  0  0  0  0  0  0
  183.5470  175.6690  138.0840 C   0  0  1  0  0  3  0  0  0  0  0  0
  183.9150  174.3310  138.0840 F   0  0  0  0  0  0  0  0  0  0  0  0
  183.2990  176.1470  136.7260 N   0  0  0  0  0  2  0  0  0  0  0  0
  184.5650  176.4570  136.0700 C   0  0  0  0  0  2  0  0  0  0  0  0
  185.5610  176.9860  137.0890 C   0  0  0  0  0  2  0  0  0  0  0  0
  186.6590  177.6700  136.4200 N   0  0  0  0  0  2  0  0  0  0  0  0
  187.9050  177.1310  136.9450 C   0  0  0  0  0  2  0  0  0  0  0  0
  187.8310  177.0370  138.3380 O   0  0  0  0  0  0  0  0  0  0  0  0
  188.8560  178.2520  138.9320 P   0  0  0  0  0  0  0  0  0  0  0  0
  190.3920  177.5950  139.1960 O   0  0  0  0  0  1  0  0  0  0  0  0
  188.3170  178.7870  140.2400 O   0  0  0  0  0  1  0  0  0  0  0  0
  188.9760  179.5120  137.8090 O   0  0  0  0  0  0  0  0  0  0  0  0
  1  4  1  0  0  0  0
  2  7  1  0  0  0  0
  4 12  1  0  0  0  0
  5  3  1  6  0  0  0
  5 13  1  0  0  0  0
  6 21  1  1  0  0  0
  6  9  1  0  0  0  0
  6  5  1  0  0  0  0
  7 14  2  0  0  0  0
  8  2  1  0  0  0  0
  9 17  1  6  0  0  0
  9 15  1  0  0  0  0
 10 12  2  0  0  0  0
 11 10  1  0  0  0  0
 11  2  2  0  0  0  0
 12 14  1  0  0  0  0
 13  1  2  0  0  0  0
 13 10  1  0  0  0  0
 15 16  2  0  0  0  0
 15  1  1  0  0  0  0
 18 20  1  0  0  0  0
 18 19  1  0  0  0  0
 19 17  1  1  0  0  0
 20 19  1  0  0  0  0
 22 21  1  0  0  0  0
 23 24  1  6  0  0  0
 23 22  1  0  0  0  0
 25 23  1  0  0  0  0
 26 25  1  0  0  0  0
 26 27  1  0  0  0  0
 28 29  1  0  0  0  0
 28 27  1  0  0  0  0
 29 30  1  0  0  0  0
 30 31  1  0  0  0  0
 31 32  1  0  0  0  0
 31 33  1  0  0  0  0
 34 31  2  0  0  0  0
M  END
>  <MODEL>
6

>  <REMARK>
 VINA RESULT:      -6.2      3.973      7.731
  Name = 
  12 active torsions:
  status: ('A' for Active; 'I' for Inactive)
    1  A    between atoms: C_2  and  O_4
    2  A    between atoms: C_2  and  N_12
    3  A    between atoms: O_4  and  P_13
    4  A    between atoms: N_5  and  C_18
    5  A    between atoms: N_5  and  C_29
    6  A    between atoms: C_6  and  C_8
    7  A    between atoms: C_6  and  N_12
    8  A    between atoms: C_8  and  N_16
    9  A    between atoms: C_11  and  C_23
   10  A    between atoms: C_15  and  C_23
   11  A    between atoms: C_15  and  C_32
   12  A    between atoms: N_16  and  C_32
                            x       y       z     vdW  Elec       q    Type
                         _______ _______ _______ _____ _____    ______ ____

>  <TORSDO>
F 12

$$$$
=
 OpenBabel10232412343D

 34 37  0  0  1  0  0  0  0  0999 V2000
  190.4960  177.4730  143.5420 C   0  0  0  0  0  0  0  0  0  0  0  0
  187.8500  177.5540  147.4130 C   0  0  0  0  0  0  0  0  0  0  0  0
  188.0290  175.4010  142.9840 O   0  0  0  0  0  1  0  0  0  0  0  0
  191.4400  177.9430  144.8690 S   0  0  0  0  0  0  0  0  0  0  0  0
  188.1280  176.7920  142.9660 C   0  0  2  0  0  3  0  0  0  0  0  0
  188.4510  177.2750  141.5360 C   0  0  2  0  0  3  0  0  0  0  0  0
  189.0550  177.9540  148.0240 C   0  0  0  0  0  3  0  0  0  0  0  0
  186.7250  177.4250  148.1550 F   0  0  0  0  0  0  0  0  0  0  0  0
  189.9010  176.9070  141.1220 C   0  0  2  0  0  3  0  0  0  0  0  0
  188.9990  177.4370  145.3090 C   0  0  0  0  0  0  0  0  0  0  0  0
  187.8180  177.2910  146.0350 C   0  0  0  0  0  3  0  0  0  0  0  0
  190.1600  177.8310  145.9550 C   0  0  0  0  0  0  0  0  0  0  0  0
  189.1830  177.2390  143.9390 C   0  0  0  0  0  0  0  0  0  0  0  0
  190.1950  178.0870  147.2860 N   0  0  0  0  0  0  0  0  0  0  0  0
  190.9180  177.3590  142.1430 C   0  0  0  0  0  0  0  0  0  0  0  0
  192.1170  177.5650  141.8160 O   0  0  0  0  0  0  0  0  0  0  0  0
  190.2180  177.4300  139.8000 N   0  0  0  0  0  2  0  0  0  0  0  0
  191.5400  176.9110  137.8700 C   0  0  0  0  0  2  0  0  0  0  0  0
  190.8480  176.3550  139.0520 C   0  0  2  0  0  3  0  0  0  0  0  0
  190.2800  176.2970  137.7660 O   0  0  0  0  0  0  0  0  0  0  0  0
  188.1930  178.7790  141.3960 C   0  0  0  0  0  2  0  0  0  0  0  0
  186.8750  179.1860  142.0380 C   0  0  0  0  0  2  0  0  0  0  0  0
  185.6890  178.5990  141.2780 C   0  0  1  0  0  3  0  0  0  0  0  0
  184.6820  178.2030  142.1460 F   0  0  0  0  0  0  0  0  0  0  0  0
  185.1840  179.5370  140.2770 N   0  0  0  0  0  2  0  0  0  0  0  0
  184.2190  178.8670  139.4120 C   0  0  0  0  0  2  0  0  0  0  0  0
  184.9470  178.0270  138.3760 C   0  0  0  0  0  2  0  0  0  0  0  0
  186.1610  178.7010  137.9370 N   0  0  0  0  0  2  0  0  0  0  0  0
  186.8720  177.8000  137.0420 C   0  0  0  0  0  2  0  0  0  0  0  0
  187.1380  176.5930  137.6960 O   0  0  0  0  0  0  0  0  0  0  0  0
  186.9840  175.3880  136.5120 P   0  0  0  0  0  0  0  0  0  0  0  0
  185.3490  174.9880  136.3450 O   0  0  0  0  0  1  0  0  0  0  0  0
  187.7540  174.1540  136.9260 O   0  0  0  0  0  1  0  0  0  0  0  0
  187.5710  175.9520  135.0280 O   0  0  0  0  0  0  0  0  0  0  0  0
  1 13  2  0  0  0  0
  1  4  1  0  0  0  0
  2  7  1  0  0  0  0
  2  8  1  0  0  0  0
  4 12  1  0  0  0  0
  5  3  1  6  0  0  0
  5 13  1  0  0  0  0
  6 21  1  1  0  0  0
  6  5  1  0  0  0  0
  9 17  1  6  0  0  0
  9  6  1  0  0  0  0
  9 15  1  0  0  0  0
 10 12  2  0  0  0  0
 10 11  1  0  0  0  0
 11  2  2  0  0  0  0
 12 14  1  0  0  0  0
 13 10  1  0  0  0  0
 14  7  2  0  0  0  0
 15  1  1  0  0  0  0
 16 15  2  0  0  0  0
 18 19  1  0  0  0  0
 19 17  1  1  0  0  0
 20 18  1  0  0  0  0
 20 19  1  0  0  0  0
 21 22  1  0  0  0  0
 23 22  1  0  0  0  0
 23 24  1  1  0  0  0
 25 23  1  0  0  0  0
 26 25  1  0  0  0  0
 27 26  1  0  0  0  0
 28 27  1  0  0  0  0
 29 30  1  0  0  0  0
 29 28  1  0  0  0  0
 31 33  1  0  0  0  0
 31 30  1  0  0  0  0
 32 31  1  0  0  0  0
 34 31  2  0  0  0  0
M  END
>  <MODEL>
7

>  <REMARK>
 VINA RESULT:      -6.0      2.938      5.816
  Name = 
  12 active torsions:
  status: ('A' for Active; 'I' for Inactive)
    1  A    between atoms: C_2  and  O_4
    2  A    between atoms: C_2  and  N_12
    3  A    between atoms: O_4  and  P_13
    4  A    between atoms: N_5  and  C_18
    5  A    between atoms: N_5  and  C_29
    6  A    between atoms: C_6  and  C_8
    7  A    between atoms: C_6  and  N_12
    8  A    between atoms: C_8  and  N_16
    9  A    between atoms: C_11  and  C_23
   10  A    between atoms: C_15  and  C_23
   11  A    between atoms: C_15  and  C_32
   12  A    between atoms: N_16  and  C_32
                            x       y       z     vdW  Elec       q    Type
                         _______ _______ _______ _____ _____    ______ ____

>  <TORSDO>
F 12

$$$$
=
 OpenBabel10232412343D

 34 37  0  0  1  0  0  0  0  0999 V2000
  181.9580  178.8030  140.7840 C   0  0  0  0  0  0  0  0  0  0  0  0
  185.3780  178.5390  143.9800 C   0  0  0  0  0  0  0  0  0  0  0  0
  184.6640  179.8680  139.2890 O   0  0  0  0  0  1  0  0  0  0  0  0
  181.2920  178.8830  142.3400 S   0  0  0  0  0  0  0  0  0  0  0  0
  184.1930  178.5970  139.6180 C   0  0  2  0  0  3  0  0  0  0  0  0
  183.4000  178.0080  138.4320 C   0  0  2  0  0  3  0  0  0  0  0  0
  184.3080  178.6470  144.8890 C   0  0  0  0  0  3  0  0  0  0  0  0
  186.6480  178.4290  144.4390 F   0  0  0  0  0  0  0  0  0  0  0  0
  182.0470  178.7410  138.2310 C   0  0  2  0  0  3  0  0  0  0  0  0
  183.8070  178.6600  142.1700 C   0  0  0  0  0  0  0  0  0  0  0  0
  185.1280  178.5450  142.6000 C   0  0  0  0  0  3  0  0  0  0  0  0
  182.7870  178.7650  143.1020 C   0  0  0  0  0  0  0  0  0  0  0  0
  183.3410  178.6750  140.8540 C   0  0  0  0  0  0  0  0  0  0  0  0
  183.0250  178.7590  144.4370 N   0  0  0  0  0  0  0  0  0  0  0  0
  181.2400  178.8090  139.5060 C   0  0  0  0  0  0  0  0  0  0  0  0
  179.9870  178.9400  139.4740 O   0  0  0  0  0  0  0  0  0  0  0  0
  181.2760  178.1310  137.1550 N   0  0  0  0  0  2  0  0  0  0  0  0
  180.6570  178.4280  134.8600 C   0  0  0  0  0  2  0  0  0  0  0  0
  181.5360  178.9000  135.9500 C   0  0  2  0  0  3  0  0  0  0  0  0
  182.0030  178.0330  134.9450 O   0  0  0  0  0  0  0  0  0  0  0  0
  183.2020  176.4990  138.6020 C   0  0  0  0  0  2  0  0  0  0  0  0
  183.7440  175.7230  137.4110 C   0  0  0  0  0  2  0  0  0  0  0  0
  185.2650  175.8160  137.3410 C   0  0  1  0  0  3  0  0  0  0  0  0
  185.8470  174.5570  137.3450 F   0  0  0  0  0  0  0  0  0  0  0  0
  185.6970  176.5920  136.1800 N   0  0  0  0  0  2  0  0  0  0  0  0
  186.4900  177.7380  136.6150 C   0  0  0  0  0  2  0  0  0  0  0  0
  187.4730  177.3090  137.6910 C   0  0  0  0  0  2  0  0  0  0  0  0
  187.7520  178.4160  138.5950 N   0  0  0  0  0  2  0  0  0  0  0  0
  189.0380  178.1610  139.2270 C   0  0  0  0  0  2  0  0  0  0  0  0
  188.9630  177.0010  140.0050 O   0  0  0  0  0  0  0  0  0  0  0  0
  189.1920  177.5110  141.6070 P   0  0  0  0  0  0  0  0  0  0  0  0
  188.5260  179.0540  141.7940 O   0  0  0  0  0  0  0  0  0  0  0  0
  190.6700  177.5710  141.9240 O   0  0  0  0  0  1  0  0  0  0  0  0
  188.4270  176.4430  142.6730 O   0  0  0  0  0  1  0  0  0  0  0  0
  1 13  2  0  0  0  0
  1  4  1  0  0  0  0
  2  8  1  0  0  0  0
  2  7  1  0  0  0  0
  4 12  1  0  0  0  0
  5  3  1  6  0  0  0
  5 13  1  0  0  0  0
  6 21  1  1  0  0  0
  6  5  1  0  0  0  0
  9 17  1  6  0  0  0
  9  6  1  0  0  0  0
  9 15  1  0  0  0  0
 10 11  1  0  0  0  0
 10 12  2  0  0  0  0
 11  2  2  0  0  0  0
 12 14  1  0  0  0  0
 13 10  1  0  0  0  0
 14  7  2  0  0  0  0
 15  1  1  0  0  0  0
 16 15  2  0  0  0  0
 18 20  1  0  0  0  0
 18 19  1  0  0  0  0
 19 17  1  1  0  0  0
 20 19  1  0  0  0  0
 22 21  1  0  0  0  0
 23 24  1  6  0  0  0
 23 22  1  0  0  0  0
 25 26  1  0  0  0  0
 25 23  1  0  0  0  0
 26 27  1  0  0  0  0
 27 28  1  0  0  0  0
 28 29  1  0  0  0  0
 29 30  1  0  0  0  0
 30 31  1  0  0  0  0
 31 32  2  0  0  0  0
 31 33  1  0  0  0  0
 31 34  1  0  0  0  0
M  END
>  <MODEL>
8

>  <REMARK>
 VINA RESULT:      -5.9      4.535      8.240
  Name = 
  12 active torsions:
  status: ('A' for Active; 'I' for Inactive)
    1  A    between atoms: C_2  and  O_4
    2  A    between atoms: C_2  and  N_12
    3  A    between atoms: O_4  and  P_13
    4  A    between atoms: N_5  and  C_18
    5  A    between atoms: N_5  and  C_29
    6  A    between atoms: C_6  and  C_8
    7  A    between atoms: C_6  and  N_12
    8  A    between atoms: C_8  and  N_16
    9  A    between atoms: C_11  and  C_23
   10  A    between atoms: C_15  and  C_23
   11  A    between atoms: C_15  and  C_32
   12  A    between atoms: N_16  and  C_32
                            x       y       z     vdW  Elec       q    Type
                         _______ _______ _______ _____ _____    ______ ____

>  <TORSDO>
F 12

$$$$
=
 OpenBabel10232412343D

 34 37  0  0  1  0  0  0  0  0999 V2000
  188.2690  175.9200  136.7140 C   0  0  0  0  0  0  0  0  0  0  0  0
  184.6160  178.4390  138.2300 C   0  0  0  0  0  0  0  0  0  0  0  0
  189.3390  179.0010  136.9450 O   0  0  0  0  0  1  0  0  0  0  0  0
  186.8250  175.1410  136.2920 S   0  0  0  0  0  0  0  0  0  0  0  0
  189.1020  178.0000  137.8880 C   0  0  2  0  0  3  0  0  0  0  0  0
  190.4000  177.2060  138.1470 C   0  0  2  0  0  3  0  0  0  0  0  0
  183.8700  177.3980  137.6440 C   0  0  0  0  0  3  0  0  0  0  0  0
  183.9800  179.4690  138.8380 F   0  0  0  0  0  0  0  0  0  0  0  0
  190.7830  176.3260  136.9270 C   0  0  2  0  0  3  0  0  0  0  0  0
  186.6320  177.3290  137.5500 C   0  0  0  0  0  0  0  0  0  0  0  0
  186.0180  178.4070  138.1850 C   0  0  0  0  0  3  0  0  0  0  0  0
  185.8560  176.3290  136.9870 C   0  0  0  0  0  0  0  0  0  0  0  0
  188.0020  177.0980  137.4040 C   0  0  0  0  0  0  0  0  0  0  0  0
  184.5010  176.3560  137.0290 N   0  0  0  0  0  0  0  0  0  0  0  0
  189.6380  175.4540  136.4700 C   0  0  0  0  0  0  0  0  0  0  0  0
  189.8480  174.3900  135.8300 O   0  0  0  0  0  0  0  0  0  0  0  0
  191.9680  175.5260  137.2090 N   0  0  0  0  0  2  0  0  0  0  0  0
  194.3230  175.4740  136.7680 C   0  0  0  0  0  2  0  0  0  0  0  0
  193.0110  175.9660  136.2980 C   0  0  2  0  0  3  0  0  0  0  0  0
  193.9080  176.7980  136.9930 O   0  0  0  0  0  0  0  0  0  0  0  0
  190.2840  176.3720  139.4260 C   0  0  0  0  0  2  0  0  0  0  0  0
  191.0700  176.9890  140.5740 C   0  0  0  0  0  2  0  0  0  0  0  0
  190.1440  177.7090  141.5490 C   0  0  1  0  0  3  0  0  0  0  0  0
  188.8480  177.7710  141.0590 F   0  0  0  0  0  0  0  0  0  0  0  0
  190.1770  177.0850  142.8710 N   0  0  0  0  0  2  0  0  0  0  0  0
  189.0110  176.2240  143.0430 C   0  0  0  0  0  2  0  0  0  0  0  0
  188.0960  176.7990  144.1110 C   0  0  0  0  0  2  0  0  0  0  0  0
  186.9360  177.4320  143.5000 N   0  0  0  0  0  2  0  0  0  0  0  0
  185.9650  177.6930  144.5520 C   0  0  0  0  0  2  0  0  0  0  0  0
  186.2560  178.9100  145.1760 O   0  0  0  0  0  0  0  0  0  0  0  0
  185.8910  178.6800  146.8170 P   0  0  0  0  0  0  0  0  0  0  0  0
  184.3090  178.0940  146.9510 O   0  0  0  0  0  0  0  0  0  0  0  0
  185.9940  179.9940  147.5580 O   0  0  0  0  0  1  0  0  0  0  0  0
  186.9570  177.5580  147.4990 O   0  0  0  0  0  1  0  0  0  0  0  0
  1 13  2  0  0  0  0
  2  8  1  0  0  0  0
  4  1  1  0  0  0  0
  4 12  1  0  0  0  0
  5  3  1  6  0  0  0
  5  6  1  0  0  0  0
  6 21  1  1  0  0  0
  7  2  2  0  0  0  0
  9 17  1  1  0  0  0
  9  6  1  0  0  0  0
 10 11  2  0  0  0  0
 11  2  1  0  0  0  0
 12 14  2  0  0  0  0
 12 10  1  0  0  0  0
 13 10  1  0  0  0  0
 13  5  1  0  0  0  0
 14  7  1  0  0  0  0
 15  1  1  0  0  0  0
 15  9  1  0  0  0  0
 16 15  2  0  0  0  0
 18 20  1  0  0  0  0
 19 18  1  0  0  0  0
 19 20  1  0  0  0  0
 19 17  1  1  0  0  0
 21 22  1  0  0  0  0
 22 23  1  0  0  0  0
 23 24  1  6  0  0  0
 23 25  1  0  0  0  0
 25 26  1  0  0  0  0
 26 27  1  0  0  0  0
 28 27  1  0  0  0  0
 28 29  1  0  0  0  0
 29 30  1  0  0  0  0
 30 31  1  0  0  0  0
 31 32  2  0  0  0  0
 31 34  1  0  0  0  0
 31 33  1  0  0  0  0
M  END
>  <MODEL>
9

>  <REMARK>
 VINA RESULT:      -5.7      4.028      8.030
  Name = 
  12 active torsions:
  status: ('A' for Active; 'I' for Inactive)
    1  A    between atoms: C_2  and  O_4
    2  A    between atoms: C_2  and  N_12
    3  A    between atoms: O_4  and  P_13
    4  A    between atoms: N_5  and  C_18
    5  A    between atoms: N_5  and  C_29
    6  A    between atoms: C_6  and  C_8
    7  A    between atoms: C_6  and  N_12
    8  A    between atoms: C_8  and  N_16
    9  A    between atoms: C_11  and  C_23
   10  A    between atoms: C_15  and  C_23
   11  A    between atoms: C_15  and  C_32
   12  A    between atoms: N_16  and  C_32
                            x       y       z     vdW  Elec       q    Type
                         _______ _______ _______ _____ _____    ______ ____

>  <TORSDO>
F 12

$$$$
