=
 OpenBabel10232408503D

 25 27  0  0  1  0  0  0  0  0999 V2000
  184.6950  178.8930  144.5400 C   0  0  0  0  0  0  0  0  0  0  0  0
  187.7110  177.1470  143.3950 C   0  0  0  0  0  3  0  0  0  0  0  0
  185.5120  178.3000  143.5720 C   0  0  0  0  0  0  0  0  0  0  0  0
  185.1940  178.2250  142.2200 O   0  0  0  0  0  1  0  0  0  0  0  0
  185.4490  178.7940  146.0470 S   0  0  0  0  0  0  0  0  0  0  0  0
  186.8160  177.9880  145.4790 C   0  0  0  0  0  0  0  0  0  0  0  0
  186.6990  177.7920  144.1070 C   0  0  0  0  0  0  0  0  0  0  0  0
  188.9590  176.9020  145.4770 C   0  0  0  0  0  3  0  0  0  0  0  0
  187.9380  177.5530  146.1930 C   0  0  0  0  0  0  0  0  0  0  0  0
  188.8460  176.6950  144.0900 C   0  0  0  0  0  0  0  0  0  0  0  0
  189.1150  178.2670  148.1730 N   0  0  0  0  0  2  0  0  0  0  0  0
  188.0430  177.7760  147.6420 C   0  0  0  0  0  3  0  0  0  0  0  0
  183.4230  179.5130  144.3300 N   0  0  0  0  0  2  0  0  0  0  0  0
  182.2020  178.7810  144.0310 C   0  0  0  0  0  2  0  0  0  0  0  0
  180.5780  179.4220  142.6860 C   0  0  0  0  0  1  0  0  0  0  0  0
  181.8820  178.9310  142.6820 O   0  0  0  0  0  0  0  0  0  0  0  0
  189.9490  176.0230  143.3470 C   0  0  0  0  0  2  0  0  0  0  0  0
  190.4880  176.9220  142.2870 C   0  0  0  0  0  0  0  0  0  0  0  0
  190.3230  176.5710  140.9110 N   0  0  0  0  0  2  0  0  0  0  0  0
  191.1130  177.9660  142.6140 O   0  0  0  0  0  0  0  0  0  0  0  0
  190.8210  177.4010  139.8240 C   0  0  0  0  0  2  0  0  0  0  0  0
  187.8400  178.7570  140.2610 O   0  0  0  0  0  0  0  0  0  0  0  0
  188.5510  177.9990  139.5520 C   0  0  0  0  0  0  0  0  0  0  0  0
  188.7900  176.6990  138.8490 O   0  0  0  0  0  0  0  0  0  0  0  0
  189.7010  177.7180  138.8480 C   0  0  2  0  0  3  0  0  0  0  0  0
  1  5  1  0  0  0  0
  2 10  2  0  0  0  0
  2  7  1  0  0  0  0
  3  7  1  0  0  0  0
  3  1  2  0  0  0  0
  4  3  1  0  0  0  0
  6  5  1  0  0  0  0
  6  9  1  0  0  0  0
  7  6  2  0  0  0  0
  8  9  2  0  0  0  0
  9 12  1  0  0  0  0
 10  8  1  0  0  0  0
 12 11  2  0  0  0  0
 13  1  1  0  0  0  0
 14 13  1  0  0  0  0
 16 15  1  0  0  0  0
 16 14  1  0  0  0  0
 17 10  1  0  0  0  0
 18 20  2  0  0  0  0
 18 17  1  0  0  0  0
 19 18  1  0  0  0  0
 21 19  1  0  0  0  0
 23 22  2  0  0  0  0
 24 23  1  0  0  0  0
 25 24  1  0  0  0  0
 25 23  1  0  0  0  0
 25 21  1  1  0  0  0
M  END
>  <MODEL>
1

>  <REMARK>
 VINA RESULT:      -7.5      0.000      0.000
  Name = 
  8 active torsions:
  status: ('A' for Active; 'I' for Inactive)
    1  A    between atoms: C_1  and  N_19
    2  A    between atoms: C_7  and  C_25
    3  A    between atoms: C_13  and  C_23
    4  A    between atoms: C_14  and  N_19
    5  A    between atoms: C_14  and  O_20
    6  A    between atoms: N_15  and  C_23
    7  A    between atoms: C_18  and  C_24
    8  A    between atoms: C_22  and  C_25
                            x       y       z     vdW  Elec       q    Type
                         _______ _______ _______ _____ _____    ______ ____

>  <TORSDO>
F 8

$$$$
=
 OpenBabel10232408503D

 25 27  0  0  1  0  0  0  0  0999 V2000
  190.0400  176.5990  142.4920 C   0  0  0  0  0  0  0  0  0  0  0  0
  187.8350  177.7740  145.1770 C   0  0  0  0  0  3  0  0  0  0  0  0
  188.8480  177.1290  142.9970 C   0  0  0  0  0  0  0  0  0  0  0  0
  187.7500  177.4680  142.2140 O   0  0  0  0  0  1  0  0  0  0  0  0
  191.1080  176.3070  143.7650 S   0  0  0  0  0  0  0  0  0  0  0  0
  190.0650  176.8610  144.9680 C   0  0  0  0  0  0  0  0  0  0  0  0
  188.8710  177.2750  144.3870 C   0  0  0  0  0  0  0  0  0  0  0  0
  189.2310  177.4290  147.1470 C   0  0  0  0  0  3  0  0  0  0  0  0
  190.2740  176.9260  146.3490 C   0  0  0  0  0  0  0  0  0  0  0  0
  188.0220  177.8550  146.5670 C   0  0  0  0  0  0  0  0  0  0  0  0
  191.9640  176.9500  148.0690 N   0  0  0  0  0  2  0  0  0  0  0  0
  191.5420  176.4770  146.9420 C   0  0  0  0  0  3  0  0  0  0  0  0
  190.3440  176.3160  141.1220 N   0  0  0  0  0  2  0  0  0  0  0  0
  190.5820  177.3390  140.1160 C   0  0  0  0  0  2  0  0  0  0  0  0
  189.1390  178.5040  138.9230 C   0  0  0  0  0  1  0  0  0  0  0  0
  189.6450  177.2160  139.0890 O   0  0  0  0  0  0  0  0  0  0  0  0
  186.9220  178.3650  147.4330 C   0  0  0  0  0  2  0  0  0  0  0  0
  185.6820  178.5780  146.6320 C   0  0  0  0  0  0  0  0  0  0  0  0
  185.7550  179.2800  145.3900 N   0  0  0  0  0  2  0  0  0  0  0  0
  184.5760  178.1660  147.0740 O   0  0  0  0  0  0  0  0  0  0  0  0
  184.5870  179.5230  144.5550 C   0  0  0  0  0  2  0  0  0  0  0  0
  185.2940  179.5060  141.3280 O   0  0  0  0  0  0  0  0  0  0  0  0
  184.5990  179.0050  142.2500 C   0  0  0  0  0  0  0  0  0  0  0  0
  183.2810  178.5900  142.8250 O   0  0  0  0  0  0  0  0  0  0  0  0
  184.4620  178.4400  143.4980 C   0  0  2  0  0  3  0  0  0  0  0  0
  1  3  2  0  0  0  0
  1  5  1  0  0  0  0
  2 10  1  0  0  0  0
  3  7  1  0  0  0  0
  4  3  1  0  0  0  0
  5  6  1  0  0  0  0
  6  9  2  0  0  0  0
  7  6  1  0  0  0  0
  7  2  2  0  0  0  0
  9 12  1  0  0  0  0
  9  8  1  0  0  0  0
 10  8  2  0  0  0  0
 10 17  1  0  0  0  0
 12 11  2  0  0  0  0
 13  1  1  0  0  0  0
 14 13  1  0  0  0  0
 15 16  1  0  0  0  0
 16 14  1  0  0  0  0
 18 20  2  0  0  0  0
 18 17  1  0  0  0  0
 19 18  1  0  0  0  0
 21 19  1  0  0  0  0
 22 23  2  0  0  0  0
 23 24  1  0  0  0  0
 23 25  1  0  0  0  0
 24 25  1  0  0  0  0
 25 21  1  1  0  0  0
M  END
>  <MODEL>
2

>  <REMARK>
 VINA RESULT:      -7.4      2.223      5.893
  Name = 
  8 active torsions:
  status: ('A' for Active; 'I' for Inactive)
    1  A    between atoms: C_1  and  N_19
    2  A    between atoms: C_7  and  C_25
    3  A    between atoms: C_13  and  C_23
    4  A    between atoms: C_14  and  N_19
    5  A    between atoms: C_14  and  O_20
    6  A    between atoms: N_15  and  C_23
    7  A    between atoms: C_18  and  C_24
    8  A    between atoms: C_22  and  C_25
                            x       y       z     vdW  Elec       q    Type
                         _______ _______ _______ _____ _____    ______ ____

>  <TORSDO>
F 8

$$$$
=
 OpenBabel10232408503D

 25 27  0  0  1  0  0  0  0  0999 V2000
  187.3930  178.3780  140.9060 C   0  0  0  0  0  0  0  0  0  0  0  0
  187.6610  177.5040  144.4580 C   0  0  0  0  0  3  0  0  0  0  0  0
  188.0530  177.8650  142.0260 C   0  0  0  0  0  0  0  0  0  0  0  0
  189.3440  177.3480  142.0040 O   0  0  0  0  0  1  0  0  0  0  0  0
  185.8600  178.9230  141.3580 S   0  0  0  0  0  0  0  0  0  0  0  0
  186.0240  178.5000  142.9820 C   0  0  0  0  0  0  0  0  0  0  0  0
  187.2770  177.9350  143.1870 C   0  0  0  0  0  0  0  0  0  0  0  0
  185.4910  178.2260  145.3080 C   0  0  0  0  0  3  0  0  0  0  0  0
  185.1060  178.6600  144.0260 C   0  0  0  0  0  0  0  0  0  0  0  0
  186.7560  177.6480  145.5230 C   0  0  0  0  0  0  0  0  0  0  0  0
  182.7200  178.7930  144.3390 N   0  0  0  0  0  2  0  0  0  0  0  0
  183.7890  179.2650  143.7870 C   0  0  0  0  0  3  0  0  0  0  0  0
  187.9020  178.4650  139.5710 N   0  0  0  0  0  2  0  0  0  0  0  0
  187.1370  178.1070  138.3860 C   0  0  0  0  0  2  0  0  0  0  0  0
  188.9940  178.8800  137.4830 C   0  0  0  0  0  1  0  0  0  0  0  0
  187.6160  178.8190  137.2860 O   0  0  0  0  0  0  0  0  0  0  0  0
  187.1510  177.2160  146.8930 C   0  0  0  0  0  2  0  0  0  0  0  0
  188.5840  177.5340  147.1480 C   0  0  0  0  0  0  0  0  0  0  0  0
  189.5970  176.6060  146.7520 N   0  0  0  0  0  2  0  0  0  0  0  0
  188.8890  178.6040  147.7400 O   0  0  0  0  0  0  0  0  0  0  0  0
  191.0150  176.8520  146.9680 C   0  0  0  0  0  2  0  0  0  0  0  0
  191.5670  178.7990  144.3560 O   0  0  0  0  0  0  0  0  0  0  0  0
  191.4790  177.6180  144.7810 C   0  0  0  0  0  0  0  0  0  0  0  0
  190.9320  176.2270  144.6930 O   0  0  0  0  0  0  0  0  0  0  0  0
  191.7900  176.6240  145.6820 C   0  0  2  0  0  3  0  0  0  0  0  0
  1  5  1  0  0  0  0
  1  3  2  0  0  0  0
  2 10  1  0  0  0  0
  3  7  1  0  0  0  0
  4  3  1  0  0  0  0
  5  6  1  0  0  0  0
  6  7  1  0  0  0  0
  6  9  2  0  0  0  0
  7  2  2  0  0  0  0
  8 10  2  0  0  0  0
  9  8  1  0  0  0  0
 10 17  1  0  0  0  0
 12  9  1  0  0  0  0
 12 11  2  0  0  0  0
 13  1  1  0  0  0  0
 14 13  1  0  0  0  0
 16 15  1  0  0  0  0
 16 14  1  0  0  0  0
 17 18  1  0  0  0  0
 18 20  2  0  0  0  0
 19 21  1  0  0  0  0
 19 18  1  0  0  0  0
 22 23  2  0  0  0  0
 23 25  1  0  0  0  0
 24 23  1  0  0  0  0
 24 25  1  0  0  0  0
 25 21  1  1  0  0  0
M  END
>  <MODEL>
3

>  <REMARK>
 VINA RESULT:      -7.2      2.772      5.627
  Name = 
  8 active torsions:
  status: ('A' for Active; 'I' for Inactive)
    1  A    between atoms: C_1  and  N_19
    2  A    between atoms: C_7  and  C_25
    3  A    between atoms: C_13  and  C_23
    4  A    between atoms: C_14  and  N_19
    5  A    between atoms: C_14  and  O_20
    6  A    between atoms: N_15  and  C_23
    7  A    between atoms: C_18  and  C_24
    8  A    between atoms: C_22  and  C_25
                            x       y       z     vdW  Elec       q    Type
                         _______ _______ _______ _____ _____    ______ ____

>  <TORSDO>
F 8

$$$$
=
 OpenBabel10232408503D

 25 27  0  0  1  0  0  0  0  0999 V2000
  189.0620  177.0470  144.4220 C   0  0  0  0  0  0  0  0  0  0  0  0
  186.0290  177.8290  142.5150 C   0  0  0  0  0  3  0  0  0  0  0  0
  188.3120  177.1610  143.2480 C   0  0  0  0  0  0  0  0  0  0  0  0
  188.7920  176.8490  141.9810 O   0  0  0  0  0  1  0  0  0  0  0  0
  188.1120  177.4990  145.7420 S   0  0  0  0  0  0  0  0  0  0  0  0
  186.7410  177.8530  144.8260 C   0  0  0  0  0  0  0  0  0  0  0  0
  187.0110  177.6160  143.4830 C   0  0  0  0  0  0  0  0  0  0  0  0
  184.4990  178.5230  144.2840 C   0  0  0  0  0  3  0  0  0  0  0  0
  185.4910  178.3070  145.2590 C   0  0  0  0  0  0  0  0  0  0  0  0
  184.7660  178.2910  142.9220 C   0  0  0  0  0  0  0  0  0  0  0  0
  185.7430  179.5520  147.3070 N   0  0  0  0  0  2  0  0  0  0  0  0
  185.2260  178.5450  146.6840 C   0  0  0  0  0  3  0  0  0  0  0  0
  190.4180  176.6040  144.5390 N   0  0  0  0  0  2  0  0  0  0  0  0
  191.5020  177.4320  145.0440 C   0  0  0  0  0  2  0  0  0  0  0  0
  192.0760  175.8690  146.4900 C   0  0  0  0  0  1  0  0  0  0  0  0
  191.6730  177.2010  146.4090 O   0  0  0  0  0  0  0  0  0  0  0  0
  183.6940  178.5050  141.9090 C   0  0  0  0  0  2  0  0  0  0  0  0
  184.2890  178.8290  140.5810 C   0  0  0  0  0  0  0  0  0  0  0  0
  183.9590  178.0280  139.4440 N   0  0  0  0  0  2  0  0  0  0  0  0
  185.1020  179.7860  140.4790 O   0  0  0  0  0  0  0  0  0  0  0  0
  184.5000  178.2860  138.1170 C   0  0  0  0  0  2  0  0  0  0  0  0
  187.7460  178.5570  138.6730 O   0  0  0  0  0  0  0  0  0  0  0  0
  186.8450  178.0300  137.9710 C   0  0  0  0  0  0  0  0  0  0  0  0
  186.2440  177.6900  136.6420 O   0  0  0  0  0  0  0  0  0  0  0  0
  185.6580  177.3460  137.8290 C   0  0  2  0  0  3  0  0  0  0  0  0
  1 13  1  0  0  0  0
  1  5  1  0  0  0  0
  2 10  2  0  0  0  0
  2  7  1  0  0  0  0
  3  7  1  0  0  0  0
  3  1  2  0  0  0  0
  4  3  1  0  0  0  0
  6  9  1  0  0  0  0
  6  5  1  0  0  0  0
  7  6  2  0  0  0  0
  8  9  2  0  0  0  0
  9 12  1  0  0  0  0
 10  8  1  0  0  0  0
 12 11  2  0  0  0  0
 13 14  1  0  0  0  0
 14 16  1  0  0  0  0
 16 15  1  0  0  0  0
 17 10  1  0  0  0  0
 18 17  1  0  0  0  0
 19 18  1  0  0  0  0
 20 18  2  0  0  0  0
 21 19  1  0  0  0  0
 23 22  2  0  0  0  0
 24 25  1  0  0  0  0
 24 23  1  0  0  0  0
 25 23  1  0  0  0  0
 25 21  1  1  0  0  0
M  END
>  <MODEL>
4

>  <REMARK>
 VINA RESULT:      -7.1      2.731      5.717
  Name = 
  8 active torsions:
  status: ('A' for Active; 'I' for Inactive)
    1  A    between atoms: C_1  and  N_19
    2  A    between atoms: C_7  and  C_25
    3  A    between atoms: C_13  and  C_23
    4  A    between atoms: C_14  and  N_19
    5  A    between atoms: C_14  and  O_20
    6  A    between atoms: N_15  and  C_23
    7  A    between atoms: C_18  and  C_24
    8  A    between atoms: C_22  and  C_25
                            x       y       z     vdW  Elec       q    Type
                         _______ _______ _______ _____ _____    ______ ____

>  <TORSDO>
F 8

$$$$
=
 OpenBabel10232408503D

 25 27  0  0  1  0  0  0  0  0999 V2000
  189.7010  177.0220  143.1140 C   0  0  0  0  0  0  0  0  0  0  0  0
  186.3490  178.0130  144.2240 C   0  0  0  0  0  3  0  0  0  0  0  0
  188.3710  177.4010  142.9080 C   0  0  0  0  0  0  0  0  0  0  0  0
  187.7810  177.5320  141.6560 O   0  0  0  0  0  1  0  0  0  0  0  0
  190.0170  176.9600  144.7720 S   0  0  0  0  0  0  0  0  0  0  0  0
  188.4650  177.4240  145.2380 C   0  0  0  0  0  0  0  0  0  0  0  0
  187.6840  177.6270  144.1050 C   0  0  0  0  0  0  0  0  0  0  0  0
  186.6050  177.9860  146.6500 C   0  0  0  0  0  3  0  0  0  0  0  0
  187.9510  177.5950  146.5280 C   0  0  0  0  0  0  0  0  0  0  0  0
  185.8100  178.1990  145.5080 C   0  0  0  0  0  0  0  0  0  0  0  0
  188.6450  178.0720  148.7870 N   0  0  0  0  0  2  0  0  0  0  0  0
  188.7920  177.3700  147.7120 C   0  0  0  0  0  3  0  0  0  0  0  0
  190.6730  176.7090  142.1120 N   0  0  0  0  0  2  0  0  0  0  0  0
  191.9260  177.4290  141.9440 C   0  0  0  0  0  2  0  0  0  0  0  0
  191.0700  177.0880  139.9410 C   0  0  0  0  0  1  0  0  0  0  0  0
  192.2050  177.5770  140.5850 O   0  0  0  0  0  0  0  0  0  0  0  0
  184.3800  178.5900  145.6620 C   0  0  0  0  0  2  0  0  0  0  0  0
  183.8640  179.1850  144.3960 C   0  0  0  0  0  0  0  0  0  0  0  0
  182.9850  178.4250  143.5640 N   0  0  0  0  0  2  0  0  0  0  0  0
  184.2320  180.3410  144.0550 O   0  0  0  0  0  0  0  0  0  0  0  0
  182.4410  178.9420  142.3170 C   0  0  0  0  0  2  0  0  0  0  0  0
  185.2750  179.5280  140.7240 O   0  0  0  0  0  0  0  0  0  0  0  0
  184.1150  179.0470  140.6530 C   0  0  0  0  0  0  0  0  0  0  0  0
  182.7820  178.9230  139.9810 O   0  0  0  0  0  0  0  0  0  0  0  0
  183.0960  178.2540  141.1320 C   0  0  2  0  0  3  0  0  0  0  0  0
  1  5  1  0  0  0  0
  2 10  1  0  0  0  0
  3  1  2  0  0  0  0
  3  7  1  0  0  0  0
  4  3  1  0  0  0  0
  5  6  1  0  0  0  0
  6  9  2  0  0  0  0
  7  2  2  0  0  0  0
  7  6  1  0  0  0  0
  9  8  1  0  0  0  0
  9 12  1  0  0  0  0
 10 17  1  0  0  0  0
 10  8  2  0  0  0  0
 12 11  2  0  0  0  0
 13  1  1  0  0  0  0
 14 13  1  0  0  0  0
 15 16  1  0  0  0  0
 16 14  1  0  0  0  0
 18 17  1  0  0  0  0
 19 18  1  0  0  0  0
 20 18  2  0  0  0  0
 21 19  1  0  0  0  0
 23 22  2  0  0  0  0
 23 25  1  0  0  0  0
 24 23  1  0  0  0  0
 24 25  1  0  0  0  0
 25 21  1  1  0  0  0
M  END
>  <MODEL>
5

>  <REMARK>
 VINA RESULT:      -7.1      1.947      6.070
  Name = 
  8 active torsions:
  status: ('A' for Active; 'I' for Inactive)
    1  A    between atoms: C_1  and  N_19
    2  A    between atoms: C_7  and  C_25
    3  A    between atoms: C_13  and  C_23
    4  A    between atoms: C_14  and  N_19
    5  A    between atoms: C_14  and  O_20
    6  A    between atoms: N_15  and  C_23
    7  A    between atoms: C_18  and  C_24
    8  A    between atoms: C_22  and  C_25
                            x       y       z     vdW  Elec       q    Type
                         _______ _______ _______ _____ _____    ______ ____

>  <TORSDO>
F 8

$$$$
=
 OpenBabel10232408503D

 25 27  0  0  1  0  0  0  0  0999 V2000
  186.6860  178.5900  140.8340 C   0  0  0  0  0  0  0  0  0  0  0  0
  185.9520  178.2120  144.4080 C   0  0  0  0  0  3  0  0  0  0  0  0
  187.0270  178.3340  142.1660 C   0  0  0  0  0  0  0  0  0  0  0  0
  188.3150  178.0390  142.6000 O   0  0  0  0  0  1  0  0  0  0  0  0
  185.0350  178.9250  140.7310 S   0  0  0  0  0  0  0  0  0  0  0  0
  184.7400  178.7360  142.3810 C   0  0  0  0  0  0  0  0  0  0  0  0
  185.9290  178.4150  143.0270 C   0  0  0  0  0  0  0  0  0  0  0  0
  183.5550  178.6630  144.4690 C   0  0  0  0  0  3  0  0  0  0  0  0
  183.5340  178.8680  143.0770 C   0  0  0  0  0  0  0  0  0  0  0  0
  184.7530  178.3330  145.1300 C   0  0  0  0  0  0  0  0  0  0  0  0
  181.1470  179.1940  142.9770 N   0  0  0  0  0  2  0  0  0  0  0  0
  182.2910  179.2130  142.3740 C   0  0  0  0  0  3  0  0  0  0  0  0
  187.5670  178.5980  139.7060 N   0  0  0  0  0  2  0  0  0  0  0  0
  187.7180  177.4790  138.7880 C   0  0  0  0  0  2  0  0  0  0  0  0
  189.5930  178.3590  138.0320 C   0  0  0  0  0  1  0  0  0  0  0  0
  189.0730  177.2000  138.6070 O   0  0  0  0  0  0  0  0  0  0  0  0
  184.7560  178.1420  146.6080 C   0  0  0  0  0  2  0  0  0  0  0  0
  185.9660  178.7690  147.2120 C   0  0  0  0  0  0  0  0  0  0  0  0
  187.0630  177.9460  147.6160 N   0  0  0  0  0  2  0  0  0  0  0  0
  185.9980  180.0160  147.3920 O   0  0  0  0  0  0  0  0  0  0  0  0
  188.2750  178.4890  148.2100 C   0  0  0  0  0  2  0  0  0  0  0  0
  189.8280  178.1890  145.3100 O   0  0  0  0  0  0  0  0  0  0  0  0
  189.5600  177.6490  146.4140 C   0  0  0  0  0  0  0  0  0  0  0  0
  189.0640  176.4940  147.2260 O   0  0  0  0  0  0  0  0  0  0  0  0
  189.4820  177.6680  147.7890 C   0  0  2  0  0  3  0  0  0  0  0  0
  1  3  2  0  0  0  0
  2 10  1  0  0  0  0
  3  4  1  0  0  0  0
  3  7  1  0  0  0  0
  5  1  1  0  0  0  0
  5  6  1  0  0  0  0
  6  7  1  0  0  0  0
  6  9  2  0  0  0  0
  7  2  2  0  0  0  0
  8 10  2  0  0  0  0
  9  8  1  0  0  0  0
 10 17  1  0  0  0  0
 12 11  2  0  0  0  0
 12  9  1  0  0  0  0
 13  1  1  0  0  0  0
 14 13  1  0  0  0  0
 15 16  1  0  0  0  0
 16 14  1  0  0  0  0
 17 18  1  0  0  0  0
 18 20  2  0  0  0  0
 18 19  1  0  0  0  0
 19 21  1  0  0  0  0
 22 23  2  0  0  0  0
 23 24  1  0  0  0  0
 23 25  1  0  0  0  0
 24 25  1  0  0  0  0
 25 21  1  6  0  0  0
M  END
>  <MODEL>
6

>  <REMARK>
 VINA RESULT:      -6.8      2.661      6.641
  Name = 
  8 active torsions:
  status: ('A' for Active; 'I' for Inactive)
    1  A    between atoms: C_1  and  N_19
    2  A    between atoms: C_7  and  C_25
    3  A    between atoms: C_13  and  C_23
    4  A    between atoms: C_14  and  N_19
    5  A    between atoms: C_14  and  O_20
    6  A    between atoms: N_15  and  C_23
    7  A    between atoms: C_18  and  C_24
    8  A    between atoms: C_22  and  C_25
                            x       y       z     vdW  Elec       q    Type
                         _______ _______ _______ _____ _____    ______ ____

>  <TORSDO>
F 8

$$$$
=
 OpenBabel10232408503D

 25 27  0  0  1  0  0  0  0  0999 V2000
  190.8010  177.3220  141.2560 C   0  0  0  0  0  0  0  0  0  0  0  0
  187.6020  177.7040  143.0100 C   0  0  0  0  0  3  0  0  0  0  0  0
  189.4170  177.5140  141.3170 C   0  0  0  0  0  0  0  0  0  0  0  0
  188.5980  177.6620  140.2030 O   0  0  0  0  0  1  0  0  0  0  0  0
  191.4150  177.1660  142.8210 S   0  0  0  0  0  0  0  0  0  0  0  0
  189.9250  177.3520  143.5870 C   0  0  0  0  0  0  0  0  0  0  0  0
  188.9340  177.5320  142.6290 C   0  0  0  0  0  0  0  0  0  0  0  0
  188.2930  177.5080  145.3420 C   0  0  0  0  0  3  0  0  0  0  0  0
  189.6340  177.3350  144.9550 C   0  0  0  0  0  0  0  0  0  0  0  0
  187.2840  177.6970  144.3790 C   0  0  0  0  0  0  0  0  0  0  0  0
  190.4240  176.8920  147.1900 N   0  0  0  0  0  2  0  0  0  0  0  0
  190.6970  177.1370  145.9500 C   0  0  0  0  0  3  0  0  0  0  0  0
  191.6080  177.2440  140.0770 N   0  0  0  0  0  2  0  0  0  0  0  0
  193.0540  177.4040  140.0730 C   0  0  0  0  0  2  0  0  0  0  0  0
  192.5330  176.5380  138.1120 C   0  0  0  0  0  1  0  0  0  0  0  0
  193.6000  176.7090  138.9930 O   0  0  0  0  0  0  0  0  0  0  0  0
  185.8670  177.8560  144.8110 C   0  0  0  0  0  2  0  0  0  0  0  0
  185.1030  178.6520  143.8080 C   0  0  0  0  0  0  0  0  0  0  0  0
  184.6830  178.0370  142.5880 N   0  0  0  0  0  2  0  0  0  0  0  0
  184.8620  179.8680  144.0300 O   0  0  0  0  0  0  0  0  0  0  0  0
  183.9330  178.7510  141.5650 C   0  0  0  0  0  2  0  0  0  0  0  0
  183.4810  180.5720  138.8460 O   0  0  0  0  0  0  0  0  0  0  0  0
  184.0380  179.5620  139.3490 C   0  0  0  0  0  0  0  0  0  0  0  0
  184.3690  178.1020  139.3380 O   0  0  0  0  0  0  0  0  0  0  0  0
  184.7890  178.9490  140.3260 C   0  0  2  0  0  3  0  0  0  0  0  0
  1  3  2  0  0  0  0
  1  5  1  0  0  0  0
  2 10  1  0  0  0  0
  3  7  1  0  0  0  0
  4  3  1  0  0  0  0
  5  6  1  0  0  0  0
  6  9  2  0  0  0  0
  7  2  2  0  0  0  0
  7  6  1  0  0  0  0
  9  8  1  0  0  0  0
  9 12  1  0  0  0  0
 10 17  1  0  0  0  0
 10  8  2  0  0  0  0
 12 11  2  0  0  0  0
 13  1  1  0  0  0  0
 14 13  1  0  0  0  0
 15 16  1  0  0  0  0
 16 14  1  0  0  0  0
 18 20  2  0  0  0  0
 18 17  1  0  0  0  0
 19 18  1  0  0  0  0
 21 19  1  0  0  0  0
 22 23  2  0  0  0  0
 23 25  1  0  0  0  0
 24 23  1  0  0  0  0
 24 25  1  0  0  0  0
 25 21  1  1  0  0  0
M  END
>  <MODEL>
7

>  <REMARK>
 VINA RESULT:      -6.7      2.736      6.393
  Name = 
  8 active torsions:
  status: ('A' for Active; 'I' for Inactive)
    1  A    between atoms: C_1  and  N_19
    2  A    between atoms: C_7  and  C_25
    3  A    between atoms: C_13  and  C_23
    4  A    between atoms: C_14  and  N_19
    5  A    between atoms: C_14  and  O_20
    6  A    between atoms: N_15  and  C_23
    7  A    between atoms: C_18  and  C_24
    8  A    between atoms: C_22  and  C_25
                            x       y       z     vdW  Elec       q    Type
                         _______ _______ _______ _____ _____    ______ ____

>  <TORSDO>
F 8

$$$$
=
 OpenBabel10232408503D

 25 27  0  0  1  0  0  0  0  0999 V2000
  186.6430  177.8130  145.8130 C   0  0  0  0  0  0  0  0  0  0  0  0
  189.3600  176.8260  143.5560 C   0  0  0  0  0  3  0  0  0  0  0  0
  187.1900  177.5150  144.5610 C   0  0  0  0  0  0  0  0  0  0  0  0
  186.4790  177.5600  143.3670 O   0  0  0  0  0  1  0  0  0  0  0  0
  187.8360  177.6610  146.9980 S   0  0  0  0  0  0  0  0  0  0  0  0
  189.0550  177.2050  145.9260 C   0  0  0  0  0  0  0  0  0  0  0  0
  188.5430  177.1720  144.6330 C   0  0  0  0  0  0  0  0  0  0  0  0
  191.2180  176.5480  145.1130 C   0  0  0  0  0  3  0  0  0  0  0  0
  190.3920  176.8980  146.1970 C   0  0  0  0  0  0  0  0  0  0  0  0
  190.7060  176.5070  143.8030 C   0  0  0  0  0  0  0  0  0  0  0  0
  192.1110  176.5480  147.8520 N   0  0  0  0  0  2  0  0  0  0  0  0
  190.9130  176.9440  147.5710 C   0  0  0  0  0  3  0  0  0  0  0  0
  185.2960  178.2080  146.0920 N   0  0  0  0  0  2  0  0  0  0  0  0
  184.6610  179.3860  145.5210 C   0  0  0  0  0  2  0  0  0  0  0  0
  183.2140  179.1400  143.8760 C   0  0  0  0  0  1  0  0  0  0  0  0
  183.3160  179.1170  145.2660 O   0  0  0  0  0  0  0  0  0  0  0  0
  191.6040  176.1560  142.6670 C   0  0  0  0  0  2  0  0  0  0  0  0
  191.2440  176.9440  141.4540 C   0  0  0  0  0  0  0  0  0  0  0  0
  190.4790  176.3320  140.4130 N   0  0  0  0  0  2  0  0  0  0  0  0
  191.6450  178.1340  141.3420 O   0  0  0  0  0  0  0  0  0  0  0  0
  190.0900  177.0410  139.2030 C   0  0  0  0  0  2  0  0  0  0  0  0
  188.0520  178.3910  136.9810 O   0  0  0  0  0  0  0  0  0  0  0  0
  188.3340  178.2630  138.2000 C   0  0  0  0  0  0  0  0  0  0  0  0
  188.6040  178.8410  139.5550 O   0  0  0  0  0  0  0  0  0  0  0  0
  188.6450  177.4980  139.3020 C   0  0  2  0  0  3  0  0  0  0  0  0
  1 13  1  0  0  0  0
  1  5  1  0  0  0  0
  2 10  2  0  0  0  0
  2  7  1  0  0  0  0
  3  7  1  0  0  0  0
  3  1  2  0  0  0  0
  4  3  1  0  0  0  0
  6  9  1  0  0  0  0
  6  5  1  0  0  0  0
  7  6  2  0  0  0  0
  8  9  2  0  0  0  0
  9 12  1  0  0  0  0
 10  8  1  0  0  0  0
 12 11  2  0  0  0  0
 14 13  1  0  0  0  0
 15 16  1  0  0  0  0
 16 14  1  0  0  0  0
 17 10  1  0  0  0  0
 18 17  1  0  0  0  0
 19 18  1  0  0  0  0
 20 18  2  0  0  0  0
 21 19  1  0  0  0  0
 22 23  2  0  0  0  0
 23 25  1  0  0  0  0
 23 24  1  0  0  0  0
 25 21  1  6  0  0  0
 25 24  1  0  0  0  0
M  END
>  <MODEL>
8

>  <REMARK>
 VINA RESULT:      -6.6      1.769      2.304
  Name = 
  8 active torsions:
  status: ('A' for Active; 'I' for Inactive)
    1  A    between atoms: C_1  and  N_19
    2  A    between atoms: C_7  and  C_25
    3  A    between atoms: C_13  and  C_23
    4  A    between atoms: C_14  and  N_19
    5  A    between atoms: C_14  and  O_20
    6  A    between atoms: N_15  and  C_23
    7  A    between atoms: C_18  and  C_24
    8  A    between atoms: C_22  and  C_25
                            x       y       z     vdW  Elec       q    Type
                         _______ _______ _______ _____ _____    ______ ____

>  <TORSDO>
F 8

$$$$
=
 OpenBabel10232408503D

 25 27  0  0  1  0  0  0  0  0999 V2000
  188.2800  177.4240  144.1590 C   0  0  0  0  0  0  0  0  0  0  0  0
  186.5060  178.5070  141.1370 C   0  0  0  0  0  3  0  0  0  0  0  0
  188.1930  177.7460  142.8010 C   0  0  0  0  0  0  0  0  0  0  0  0
  189.2630  177.6860  141.9140 O   0  0  0  0  0  1  0  0  0  0  0  0
  186.7630  177.6070  144.8770 S   0  0  0  0  0  0  0  0  0  0  0  0
  185.9880  178.1060  143.4660 C   0  0  0  0  0  0  0  0  0  0  0  0
  186.9050  178.1300  142.4200 C   0  0  0  0  0  0  0  0  0  0  0  0
  184.2420  178.8340  141.9860 C   0  0  0  0  0  3  0  0  0  0  0  0
  184.6460  178.4530  143.2780 C   0  0  0  0  0  0  0  0  0  0  0  0
  185.1640  178.8660  140.9230 C   0  0  0  0  0  0  0  0  0  0  0  0
  183.8250  179.1890  145.4220 N   0  0  0  0  0  2  0  0  0  0  0  0
  183.6930  178.4150  144.3960 C   0  0  0  0  0  3  0  0  0  0  0  0
  189.4440  176.9870  144.8680 N   0  0  0  0  0  2  0  0  0  0  0  0
  189.9200  177.5970  146.1000 C   0  0  0  0  0  2  0  0  0  0  0  0
  189.1150  177.7800  148.1450 C   0  0  0  0  0  1  0  0  0  0  0  0
  189.5000  176.8380  147.1930 O   0  0  0  0  0  0  0  0  0  0  0  0
  184.7100  179.2510  139.5580 C   0  0  0  0  0  2  0  0  0  0  0  0
  185.3420  178.3750  138.5310 C   0  0  0  0  0  0  0  0  0  0  0  0
  186.5710  178.7740  137.9190 N   0  0  0  0  0  2  0  0  0  0  0  0
  184.7710  177.3060  138.1870 O   0  0  0  0  0  0  0  0  0  0  0  0
  187.2450  177.9680  136.9120 C   0  0  0  0  0  2  0  0  0  0  0  0
  189.9530  177.4050  138.7180 O   0  0  0  0  0  0  0  0  0  0  0  0
  189.3750  178.1800  137.9130 C   0  0  0  0  0  0  0  0  0  0  0  0
  188.9000  179.5410  137.5100 O   0  0  0  0  0  0  0  0  0  0  0  0
  188.6840  178.4270  136.7480 C   0  0  2  0  0  3  0  0  0  0  0  0
  1 13  1  0  0  0  0
  1  5  1  0  0  0  0
  2  7  1  0  0  0  0
  3  1  2  0  0  0  0
  4  3  1  0  0  0  0
  6  5  1  0  0  0  0
  7  3  1  0  0  0  0
  7  6  2  0  0  0  0
  8  9  2  0  0  0  0
  9  6  1  0  0  0  0
  9 12  1  0  0  0  0
 10  2  2  0  0  0  0
 10  8  1  0  0  0  0
 12 11  2  0  0  0  0
 13 14  1  0  0  0  0
 14 16  1  0  0  0  0
 16 15  1  0  0  0  0
 17 10  1  0  0  0  0
 18 17  1  0  0  0  0
 19 18  1  0  0  0  0
 20 18  2  0  0  0  0
 21 19  1  0  0  0  0
 23 22  2  0  0  0  0
 24 23  1  0  0  0  0
 25 21  1  1  0  0  0
 25 24  1  0  0  0  0
 25 23  1  0  0  0  0
M  END
>  <MODEL>
9

>  <REMARK>
 VINA RESULT:      -6.6      2.644      5.450
  Name = 
  8 active torsions:
  status: ('A' for Active; 'I' for Inactive)
    1  A    between atoms: C_1  and  N_19
    2  A    between atoms: C_7  and  C_25
    3  A    between atoms: C_13  and  C_23
    4  A    between atoms: C_14  and  N_19
    5  A    between atoms: C_14  and  O_20
    6  A    between atoms: N_15  and  C_23
    7  A    between atoms: C_18  and  C_24
    8  A    between atoms: C_22  and  C_25
                            x       y       z     vdW  Elec       q    Type
                         _______ _______ _______ _____ _____    ______ ____

>  <TORSDO>
F 8

$$$$
