=
 OpenBabel10232407553D

 26 28  0  0  1  0  0  0  0  0999 V2000
  186.6880  177.8400  144.4180 C   0  0  0  0  0  3  0  0  0  0  0  0
  185.8330  178.4060  147.0700 C   0  0  0  0  0  3  0  0  0  0  0  0
  187.1070  177.9110  146.8040 C   0  0  0  0  0  0  0  0  0  0  0  0
  191.5060  176.6810  146.1580 C   0  0  0  0  0  3  0  0  0  0  0  0
  187.5280  177.6320  145.5120 C   0  0  0  0  0  0  0  0  0  0  0  0
  189.8110  177.1050  144.3680 C   0  0  2  0  0  3  0  0  0  0  0  0
  184.9700  178.6120  145.9790 C   0  0  0  0  0  3  0  0  0  0  0  0
  191.1870  176.7010  144.8520 C   0  0  0  0  0  3  0  0  0  0  0  0
  188.2210  177.6420  147.7050 C   0  0  0  0  0  0  0  0  0  0  0  0
  188.8730  177.1470  145.4870 N   0  0  0  0  0  0  0  0  0  0  0  0
  188.2530  177.8060  148.9520 O   0  0  0  0  0  0  0  0  0  0  0  0
  189.3040  177.1980  146.8410 C   0  0  0  0  0  0  0  0  0  0  0  0
  185.3950  178.3320  144.6630 C   0  0  0  0  0  3  0  0  0  0  0  0
  190.5400  177.0030  147.1750 N   0  0  0  0  0  0  0  0  0  0  0  0
  189.3480  176.1540  143.3710 N   0  0  0  0  0  2  0  0  0  0  0  0
  190.3010  176.1950  142.2730 C   0  0  0  0  0  2  0  0  0  0  0  0
  190.1720  177.5090  141.5240 C   0  0  0  0  0  2  0  0  0  0  0  0
  189.7640  177.2510  140.0840 C   0  0  0  0  0  2  0  0  0  0  0  0
  188.7630  178.2970  139.6180 C   0  0  1  0  0  3  0  0  0  0  0  0
  189.1130  178.7760  137.4850 C   0  0  0  0  0  1  0  0  0  0  0  0
  188.3250  177.9910  138.3270 O   0  0  0  0  0  0  0  0  0  0  0  0
  187.5700  178.3210  140.5630 C   0  0  0  0  0  2  0  0  0  0  0  0
  185.2130  179.2430  140.4550 C   0  0  0  0  0  0  0  0  0  0  0  0
  186.3450  178.6270  139.8370 N   0  0  0  0  0  2  0  0  0  0  0  0
  184.0410  179.4920  139.6900 N   0  0  0  0  0  1  0  0  0  0  0  0
  185.2450  179.5690  141.6720 O   0  0  0  0  0  0  0  0  0  0  0  0
  1 13  2  0  0  0  0
  1  5  1  0  0  0  0
  3  2  1  0  0  0  0
  3  9  1  0  0  0  0
  4 14  1  0  0  0  0
  5  3  2  0  0  0  0
  6 15  1  6  0  0  0
  6  8  1  0  0  0  0
  6 10  1  0  0  0  0
  7  2  2  0  0  0  0
  8  4  2  0  0  0  0
  9 11  2  0  0  0  0
 10  5  1  0  0  0  0
 10 12  1  0  0  0  0
 12 14  2  0  0  0  0
 12  9  1  0  0  0  0
 13  7  1  0  0  0  0
 16 15  1  0  0  0  0
 17 16  1  0  0  0  0
 18 17  1  0  0  0  0
 19 18  1  1  0  0  0
 19 22  1  0  0  0  0
 20 21  1  0  0  0  0
 21 19  1  0  0  0  0
 23 26  2  0  0  0  0
 24 23  1  0  0  0  0
 24 22  1  0  0  0  0
 25 23  1  0  0  0  0
M  END
>  <MODEL>
1

>  <REMARK>
 VINA RESULT:      -8.5      0.000      0.000
  Name = 
  8 active torsions:
  status: ('A' for Active; 'I' for Inactive)
    1  A    between atoms: C_2  and  C_12
    2  A    between atoms: C_2  and  O_20
    3  A    between atoms: C_2  and  C_26
    4  A    between atoms: N_7  and  C_11
    5  A    between atoms: N_7  and  C_15
    6  A    between atoms: N_9  and  C_12
    7  A    between atoms: C_15  and  C_16
    8  A    between atoms: C_16  and  C_26
                            x       y       z     vdW  Elec       q    Type
                         _______ _______ _______ _____ _____    ______ ____

>  <TORSDO>
F 8

$$$$
=
 OpenBabel10232407553D

 26 28  0  0  1  0  0  0  0  0999 V2000
  186.8250  177.8350  144.3650 C   0  0  0  0  0  3  0  0  0  0  0  0
  185.7910  178.4420  146.9430 C   0  0  0  0  0  3  0  0  0  0  0  0
  187.0770  177.9350  146.7740 C   0  0  0  0  0  0  0  0  0  0  0  0
  191.5010  176.6670  146.4520 C   0  0  0  0  0  3  0  0  0  0  0  0
  187.5850  177.6360  145.5170 C   0  0  0  0  0  0  0  0  0  0  0  0
  189.9380  177.0770  144.5420 C   0  0  2  0  0  3  0  0  0  0  0  0
  185.0080  178.6390  145.7920 C   0  0  0  0  0  3  0  0  0  0  0  0
  191.2740  176.6720  145.1270 C   0  0  0  0  0  3  0  0  0  0  0  0
  188.1230  177.6710  147.7530 C   0  0  0  0  0  0  0  0  0  0  0  0
  188.9240  177.1410  145.5930 N   0  0  0  0  0  0  0  0  0  0  0  0
  188.0700  177.8520  148.9970 O   0  0  0  0  0  0  0  0  0  0  0  0
  189.2600  177.2080  146.9730 C   0  0  0  0  0  0  0  0  0  0  0  0
  185.5210  178.3380  144.5130 C   0  0  0  0  0  3  0  0  0  0  0  0
  190.4690  177.0090  147.3950 N   0  0  0  0  0  0  0  0  0  0  0  0
  189.5390  176.1170  143.5280 N   0  0  0  0  0  2  0  0  0  0  0  0
  190.4430  176.2900  142.4030 C   0  0  0  0  0  2  0  0  0  0  0  0
  190.1270  177.5850  141.6790 C   0  0  0  0  0  2  0  0  0  0  0  0
  188.8000  177.4670  140.9510 C   0  0  0  0  0  2  0  0  0  0  0  0
  189.0000  177.6040  139.4500 C   0  0  1  0  0  3  0  0  0  0  0  0
  189.0850  178.9550  137.6970 C   0  0  0  0  0  1  0  0  0  0  0  0
  188.8120  178.9340  139.0660 O   0  0  0  0  0  0  0  0  0  0  0  0
  190.4120  177.1680  139.0800 C   0  0  0  0  0  2  0  0  0  0  0  0
  190.6190  175.1960  137.5050 C   0  0  0  0  0  0  0  0  0  0  0  0
  190.4550  175.7360  138.8180 N   0  0  0  0  0  2  0  0  0  0  0  0
  190.6280  173.7850  137.3200 N   0  0  0  0  0  1  0  0  0  0  0  0
  190.7570  175.9560  136.5100 O   0  0  0  0  0  0  0  0  0  0  0  0
  1 13  2  0  0  0  0
  1  5  1  0  0  0  0
  3  2  1  0  0  0  0
  3  9  1  0  0  0  0
  4 14  1  0  0  0  0
  5 10  1  0  0  0  0
  5  3  2  0  0  0  0
  6 15  1  6  0  0  0
  6  8  1  0  0  0  0
  6 10  1  0  0  0  0
  7  2  2  0  0  0  0
  8  4  2  0  0  0  0
  9 11  2  0  0  0  0
 10 12  1  0  0  0  0
 12 14  2  0  0  0  0
 12  9  1  0  0  0  0
 13  7  1  0  0  0  0
 16 15  1  0  0  0  0
 17 16  1  0  0  0  0
 18 17  1  0  0  0  0
 19 22  1  1  0  0  0
 19 18  1  0  0  0  0
 20 21  1  0  0  0  0
 21 19  1  0  0  0  0
 23 24  1  0  0  0  0
 24 22  1  0  0  0  0
 25 23  1  0  0  0  0
 26 23  2  0  0  0  0
M  END
>  <MODEL>
2

>  <REMARK>
 VINA RESULT:      -8.4      2.192      3.092
  Name = 
  8 active torsions:
  status: ('A' for Active; 'I' for Inactive)
    1  A    between atoms: C_2  and  C_12
    2  A    between atoms: C_2  and  O_20
    3  A    between atoms: C_2  and  C_26
    4  A    between atoms: N_7  and  C_11
    5  A    between atoms: N_7  and  C_15
    6  A    between atoms: N_9  and  C_12
    7  A    between atoms: C_15  and  C_16
    8  A    between atoms: C_16  and  C_26
                            x       y       z     vdW  Elec       q    Type
                         _______ _______ _______ _____ _____    ______ ____

>  <TORSDO>
F 8

$$$$
=
 OpenBabel10232407553D

 26 28  0  0  1  0  0  0  0  0999 V2000
  186.9000  177.7460  144.3280 C   0  0  0  0  0  3  0  0  0  0  0  0
  185.8940  178.4380  146.8960 C   0  0  0  0  0  3  0  0  0  0  0  0
  187.1760  177.9200  146.7290 C   0  0  0  0  0  0  0  0  0  0  0  0
  191.5900  176.6230  146.4030 C   0  0  0  0  0  3  0  0  0  0  0  0
  187.6700  177.5800  145.4780 C   0  0  0  0  0  0  0  0  0  0  0  0
  190.0110  176.9810  144.4980 C   0  0  2  0  0  3  0  0  0  0  0  0
  185.1000  178.6030  145.7470 C   0  0  0  0  0  3  0  0  0  0  0  0
  191.3500  176.5870  145.0810 C   0  0  0  0  0  3  0  0  0  0  0  0
  188.2310  177.6820  147.7060 C   0  0  0  0  0  0  0  0  0  0  0  0
  189.0080  177.0820  145.5560 N   0  0  0  0  0  0  0  0  0  0  0  0
  188.1910  177.9010  148.9450 O   0  0  0  0  0  0  0  0  0  0  0  0
  189.3580  177.1900  146.9300 C   0  0  0  0  0  0  0  0  0  0  0  0
  185.5990  178.2600  144.4730 C   0  0  0  0  0  3  0  0  0  0  0  0
  190.5700  176.9980  147.3450 N   0  0  0  0  0  0  0  0  0  0  0  0
  189.5970  175.9910  143.5180 N   0  0  0  0  0  2  0  0  0  0  0  0
  190.1970  176.3750  142.2500 C   0  0  0  0  0  2  0  0  0  0  0  0
  189.6880  177.7410  141.8280 C   0  0  0  0  0  2  0  0  0  0  0  0
  188.8220  177.6150  140.5880 C   0  0  0  0  0  2  0  0  0  0  0  0
  189.6730  177.7040  139.3310 C   0  0  1  0  0  3  0  0  0  0  0  0
  191.1700  176.2530  138.5860 C   0  0  0  0  0  1  0  0  0  0  0  0
  189.7970  176.4400  138.7520 O   0  0  0  0  0  0  0  0  0  0  0  0
  189.0190  178.6530  138.3360 C   0  0  0  0  0  2  0  0  0  0  0  0
  186.6800  178.0240  137.5950 C   0  0  0  0  0  0  0  0  0  0  0  0
  188.1000  177.9310  137.4660 N   0  0  0  0  0  2  0  0  0  0  0  0
  185.8430  177.2720  136.7250 N   0  0  0  0  0  1  0  0  0  0  0  0
  186.1620  178.7670  138.4710 O   0  0  0  0  0  0  0  0  0  0  0  0
  1 13  2  0  0  0  0
  1  5  1  0  0  0  0
  3  2  1  0  0  0  0
  3  9  1  0  0  0  0
  4 14  1  0  0  0  0
  5 10  1  0  0  0  0
  5  3  2  0  0  0  0
  6 15  1  6  0  0  0
  6  8  1  0  0  0  0
  6 10  1  0  0  0  0
  7  2  2  0  0  0  0
  8  4  2  0  0  0  0
  9 11  2  0  0  0  0
 10 12  1  0  0  0  0
 12 14  2  0  0  0  0
 12  9  1  0  0  0  0
 13  7  1  0  0  0  0
 16 15  1  0  0  0  0
 17 16  1  0  0  0  0
 18 17  1  0  0  0  0
 19 22  1  6  0  0  0
 19 18  1  0  0  0  0
 20 21  1  0  0  0  0
 21 19  1  0  0  0  0
 23 26  2  0  0  0  0
 24 23  1  0  0  0  0
 24 22  1  0  0  0  0
 25 23  1  0  0  0  0
M  END
>  <MODEL>
3

>  <REMARK>
 VINA RESULT:      -8.4      1.525      1.722
  Name = 
  8 active torsions:
  status: ('A' for Active; 'I' for Inactive)
    1  A    between atoms: C_2  and  C_12
    2  A    between atoms: C_2  and  O_20
    3  A    between atoms: C_2  and  C_26
    4  A    between atoms: N_7  and  C_11
    5  A    between atoms: N_7  and  C_15
    6  A    between atoms: N_9  and  C_12
    7  A    between atoms: C_15  and  C_16
    8  A    between atoms: C_16  and  C_26
                            x       y       z     vdW  Elec       q    Type
                         _______ _______ _______ _____ _____    ______ ____

>  <TORSDO>
F 8

$$$$
=
 OpenBabel10232407553D

 26 28  0  0  1  0  0  0  0  0999 V2000
  188.4110  176.9530  143.4140 C   0  0  0  0  0  3  0  0  0  0  0  0
  191.1770  176.3090  143.5220 C   0  0  0  0  0  3  0  0  0  0  0  0
  190.4930  176.7780  144.6410 C   0  0  0  0  0  0  0  0  0  0  0  0
  188.3700  177.9080  148.5770 C   0  0  0  0  0  3  0  0  0  0  0  0
  189.1430  177.0950  144.5920 C   0  0  0  0  0  0  0  0  0  0  0  0
  187.2820  177.6020  146.3460 C   0  0  2  0  0  3  0  0  0  0  0  0
  190.4560  176.1700  142.3240 C   0  0  0  0  0  3  0  0  0  0  0  0
  187.2610  177.9480  147.8190 C   0  0  0  0  0  3  0  0  0  0  0  0
  190.9500  176.9800  146.0100 C   0  0  0  0  0  0  0  0  0  0  0  0
  188.6590  177.5430  145.8600 N   0  0  0  0  0  0  0  0  0  0  0  0
  192.1010  176.7670  146.4720 O   0  0  0  0  0  0  0  0  0  0  0  0
  189.7720  177.4260  146.7370 C   0  0  0  0  0  0  0  0  0  0  0  0
  189.0830  176.4890  142.2700 C   0  0  0  0  0  3  0  0  0  0  0  0
  189.6540  177.5740  148.0180 N   0  0  0  0  0  0  0  0  0  0  0  0
  186.5380  178.6030  145.6010 N   0  0  0  0  0  2  0  0  0  0  0  0
  185.4270  179.0170  146.4420 C   0  0  0  0  0  2  0  0  0  0  0  0
  184.1110  178.7180  145.7470 C   0  0  0  0  0  2  0  0  0  0  0  0
  184.0290  179.4780  144.4350 C   0  0  0  0  0  2  0  0  0  0  0  0
  183.5530  178.5620  143.3180 C   0  0  1  0  0  3  0  0  0  0  0  0
  181.3680  178.9120  143.3780 C   0  0  0  0  0  1  0  0  0  0  0  0
  182.5090  179.1710  142.6180 O   0  0  0  0  0  0  0  0  0  0  0  0
  184.7050  178.2820  142.3610 C   0  0  0  0  0  2  0  0  0  0  0  0
  184.4140  179.0590  139.9690 C   0  0  0  0  0  0  0  0  0  0  0  0
  184.7770  179.3060  141.3290 N   0  0  0  0  0  2  0  0  0  0  0  0
  184.5320  180.1010  139.0080 N   0  0  0  0  0  1  0  0  0  0  0  0
  183.9890  177.9280  139.6130 O   0  0  0  0  0  0  0  0  0  0  0  0
  1  5  1  0  0  0  0
  2  3  1  0  0  0  0
  3  9  1  0  0  0  0
  5  3  2  0  0  0  0
  5 10  1  0  0  0  0
  6 15  1  6  0  0  0
  6  8  1  0  0  0  0
  7  2  2  0  0  0  0
  8  4  2  0  0  0  0
  9 11  2  0  0  0  0
  9 12  1  0  0  0  0
 10  6  1  0  0  0  0
 10 12  1  0  0  0  0
 12 14  2  0  0  0  0
 13  7  1  0  0  0  0
 13  1  2  0  0  0  0
 14  4  1  0  0  0  0
 15 16  1  0  0  0  0
 17 16  1  0  0  0  0
 18 17  1  0  0  0  0
 19 22  1  6  0  0  0
 19 18  1  0  0  0  0
 21 19  1  0  0  0  0
 21 20  1  0  0  0  0
 23 24  1  0  0  0  0
 24 22  1  0  0  0  0
 25 23  1  0  0  0  0
 26 23  2  0  0  0  0
M  END
>  <MODEL>
4

>  <REMARK>
 VINA RESULT:      -8.1      2.293      4.921
  Name = 
  8 active torsions:
  status: ('A' for Active; 'I' for Inactive)
    1  A    between atoms: C_2  and  C_12
    2  A    between atoms: C_2  and  O_20
    3  A    between atoms: C_2  and  C_26
    4  A    between atoms: N_7  and  C_11
    5  A    between atoms: N_7  and  C_15
    6  A    between atoms: N_9  and  C_12
    7  A    between atoms: C_15  and  C_16
    8  A    between atoms: C_16  and  C_26
                            x       y       z     vdW  Elec       q    Type
                         _______ _______ _______ _____ _____    ______ ____

>  <TORSDO>
F 8

$$$$
=
 OpenBabel10232407553D

 26 28  0  0  1  0  0  0  0  0999 V2000
  185.8090  177.9550  142.7720 C   0  0  0  0  0  3  0  0  0  0  0  0
  183.9020  178.9480  144.6310 C   0  0  0  0  0  3  0  0  0  0  0  0
  185.1440  178.4730  145.0440 C   0  0  0  0  0  0  0  0  0  0  0  0
  189.3320  177.3520  146.6190 C   0  0  0  0  0  3  0  0  0  0  0  0
  186.0770  177.9860  144.1400 C   0  0  0  0  0  0  0  0  0  0  0  0
  188.6090  177.3670  144.2250 C   0  0  2  0  0  3  0  0  0  0  0  0
  183.6120  178.9140  143.2560 C   0  0  0  0  0  3  0  0  0  0  0  0
  189.6170  177.1220  145.3260 C   0  0  0  0  0  3  0  0  0  0  0  0
  185.7400  178.4220  146.3730 C   0  0  0  0  0  0  0  0  0  0  0  0
  187.2770  177.5670  144.7940 N   0  0  0  0  0  0  0  0  0  0  0  0
  185.2290  178.8090  147.4560 O   0  0  0  0  0  0  0  0  0  0  0  0
  187.0740  177.8810  146.1660 C   0  0  0  0  0  0  0  0  0  0  0  0
  184.5580  178.4220  142.3340 C   0  0  0  0  0  3  0  0  0  0  0  0
  188.0310  177.8060  147.0350 N   0  0  0  0  0  0  0  0  0  0  0  0
  188.5940  176.2330  143.3180 N   0  0  0  0  0  2  0  0  0  0  0  0
  189.9320  176.1170  142.7630 C   0  0  0  0  0  2  0  0  0  0  0  0
  190.1650  177.2120  141.7390 C   0  0  0  0  0  2  0  0  0  0  0  0
  188.9570  177.3430  140.8290 C   0  0  0  0  0  2  0  0  0  0  0  0
  189.3910  177.6610  139.4070 C   0  0  1  0  0  3  0  0  0  0  0  0
  189.8010  176.0060  137.9940 C   0  0  0  0  0  1  0  0  0  0  0  0
  190.3870  176.7680  139.0050 O   0  0  0  0  0  0  0  0  0  0  0  0
  188.1980  177.5400  138.4680 C   0  0  0  0  0  2  0  0  0  0  0  0
  185.7870  178.3160  138.4360 C   0  0  0  0  0  0  0  0  0  0  0  0
  187.1450  178.4710  138.8520 N   0  0  0  0  0  2  0  0  0  0  0  0
  184.8160  179.2770  138.8300 N   0  0  0  0  0  1  0  0  0  0  0  0
  185.4420  177.3350  137.7250 O   0  0  0  0  0  0  0  0  0  0  0  0
  1  5  1  0  0  0  0
  2  3  1  0  0  0  0
  3  9  1  0  0  0  0
  4 14  1  0  0  0  0
  5 10  1  0  0  0  0
  5  3  2  0  0  0  0
  6 15  1  6  0  0  0
  6 10  1  0  0  0  0
  6  8  1  0  0  0  0
  7  2  2  0  0  0  0
  8  4  2  0  0  0  0
  9 11  2  0  0  0  0
 10 12  1  0  0  0  0
 12  9  1  0  0  0  0
 12 14  2  0  0  0  0
 13  1  2  0  0  0  0
 13  7  1  0  0  0  0
 16 15  1  0  0  0  0
 17 16  1  0  0  0  0
 18 17  1  0  0  0  0
 19 22  1  6  0  0  0
 19 18  1  0  0  0  0
 20 21  1  0  0  0  0
 21 19  1  0  0  0  0
 22 24  1  0  0  0  0
 23 25  1  0  0  0  0
 23 24  1  0  0  0  0
 26 23  2  0  0  0  0
M  END
>  <MODEL>
5

>  <REMARK>
 VINA RESULT:      -8.0      1.753      2.313
  Name = 
  8 active torsions:
  status: ('A' for Active; 'I' for Inactive)
    1  A    between atoms: C_2  and  C_12
    2  A    between atoms: C_2  and  O_20
    3  A    between atoms: C_2  and  C_26
    4  A    between atoms: N_7  and  C_11
    5  A    between atoms: N_7  and  C_15
    6  A    between atoms: N_9  and  C_12
    7  A    between atoms: C_15  and  C_16
    8  A    between atoms: C_16  and  C_26
                            x       y       z     vdW  Elec       q    Type
                         _______ _______ _______ _____ _____    ______ ____

>  <TORSDO>
F 8

$$$$
=
 OpenBabel10232407553D

 26 28  0  0  1  0  0  0  0  0999 V2000
  189.0380  176.7090  143.2640 C   0  0  0  0  0  3  0  0  0  0  0  0
  191.2000  176.5510  145.1040 C   0  0  0  0  0  3  0  0  0  0  0  0
  189.9610  177.0650  145.4770 C   0  0  0  0  0  0  0  0  0  0  0  0
  185.8470  178.4140  147.0710 C   0  0  0  0  0  3  0  0  0  0  0  0
  188.9030  177.1450  144.5820 C   0  0  0  0  0  0  0  0  0  0  0  0
  186.3410  177.6000  144.7580 C   0  0  2  0  0  3  0  0  0  0  0  0
  191.3550  176.1160  143.7760 C   0  0  0  0  0  3  0  0  0  0  0  0
  185.4210  178.1560  145.8230 C   0  0  0  0  0  3  0  0  0  0  0  0
  189.4890  177.5440  146.7700 C   0  0  0  0  0  0  0  0  0  0  0  0
  187.7330  177.6940  145.1940 N   0  0  0  0  0  0  0  0  0  0  0  0
  190.1340  177.5950  147.8490 O   0  0  0  0  0  0  0  0  0  0  0  0
  188.0940  177.8960  146.5540 C   0  0  0  0  0  0  0  0  0  0  0  0
  190.2820  176.1940  142.8640 C   0  0  0  0  0  3  0  0  0  0  0  0
  187.2200  178.2150  147.4550 N   0  0  0  0  0  0  0  0  0  0  0  0
  186.1590  178.3420  143.5220 N   0  0  0  0  0  2  0  0  0  0  0  0
  184.7330  178.5840  143.3800 C   0  0  0  0  0  2  0  0  0  0  0  0
  184.2950  178.2860  141.9580 C   0  0  0  0  0  2  0  0  0  0  0  0
  185.2960  178.8610  140.9720 C   0  0  0  0  0  2  0  0  0  0  0  0
  184.7290  178.8380  139.5610 C   0  0  1  0  0  3  0  0  0  0  0  0
  182.9740  179.9840  138.8450 C   0  0  0  0  0  1  0  0  0  0  0  0
  184.3180  180.1220  139.1950 O   0  0  0  0  0  0  0  0  0  0  0  0
  185.7950  178.3530  138.5880 C   0  0  0  0  0  2  0  0  0  0  0  0
  188.2470  177.7240  138.6670 C   0  0  0  0  0  0  0  0  0  0  0  0
  187.1150  178.4140  139.2010 N   0  0  0  0  0  2  0  0  0  0  0  0
  189.5010  177.8100  139.3310 N   0  0  0  0  0  1  0  0  0  0  0  0
  188.1440  177.0410  137.6130 O   0  0  0  0  0  0  0  0  0  0  0  0
  1  5  1  0  0  0  0
  2  3  1  0  0  0  0
  3  9  1  0  0  0  0
  4 14  1  0  0  0  0
  5 10  1  0  0  0  0
  5  3  2  0  0  0  0
  6 15  1  6  0  0  0
  6 10  1  0  0  0  0
  6  8  1  0  0  0  0
  7  2  2  0  0  0  0
  8  4  2  0  0  0  0
  9 11  2  0  0  0  0
 10 12  1  0  0  0  0
 12  9  1  0  0  0  0
 12 14  2  0  0  0  0
 13  1  2  0  0  0  0
 13  7  1  0  0  0  0
 16 15  1  0  0  0  0
 17 16  1  0  0  0  0
 18 17  1  0  0  0  0
 19 22  1  6  0  0  0
 19 18  1  0  0  0  0
 20 21  1  0  0  0  0
 21 19  1  0  0  0  0
 22 24  1  0  0  0  0
 23 24  1  0  0  0  0
 23 25  1  0  0  0  0
 26 23  2  0  0  0  0
M  END
>  <MODEL>
6

>  <REMARK>
 VINA RESULT:      -7.9      1.728      4.502
  Name = 
  8 active torsions:
  status: ('A' for Active; 'I' for Inactive)
    1  A    between atoms: C_2  and  C_12
    2  A    between atoms: C_2  and  O_20
    3  A    between atoms: C_2  and  C_26
    4  A    between atoms: N_7  and  C_11
    5  A    between atoms: N_7  and  C_15
    6  A    between atoms: N_9  and  C_12
    7  A    between atoms: C_15  and  C_16
    8  A    between atoms: C_16  and  C_26
                            x       y       z     vdW  Elec       q    Type
                         _______ _______ _______ _____ _____    ______ ____

>  <TORSDO>
F 8

$$$$
=
 OpenBabel10232407553D

 26 28  0  0  1  0  0  0  0  0999 V2000
  189.0790  177.2580  145.4210 C   0  0  0  0  0  3  0  0  0  0  0  0
  187.8040  177.7970  147.9040 C   0  0  0  0  0  3  0  0  0  0  0  0
  187.1590  178.0190  146.6900 C   0  0  0  0  0  0  0  0  0  0  0  0
  184.6660  178.4430  142.8320 C   0  0  0  0  0  3  0  0  0  0  0  0
  187.7780  177.7590  145.4760 C   0  0  0  0  0  0  0  0  0  0  0  0
  187.0090  177.5810  142.9900 C   0  0  2  0  0  3  0  0  0  0  0  0
  189.1190  177.3020  147.8670 C   0  0  0  0  0  3  0  0  0  0  0  0
  185.7700  177.9820  142.2190 C   0  0  0  0  0  3  0  0  0  0  0  0
  185.8040  178.4760  146.4120 C   0  0  0  0  0  0  0  0  0  0  0  0
  186.9200  178.0530  144.3710 N   0  0  0  0  0  0  0  0  0  0  0  0
  184.9110  178.7770  147.2460 O   0  0  0  0  0  0  0  0  0  0  0  0
  185.6900  178.4530  144.9620 C   0  0  0  0  0  0  0  0  0  0  0  0
  189.7510  177.0340  146.6340 C   0  0  0  0  0  3  0  0  0  0  0  0
  184.6150  178.6220  144.2590 N   0  0  0  0  0  0  0  0  0  0  0  0
  188.1850  178.1460  142.3500 N   0  0  0  0  0  2  0  0  0  0  0  0
  188.8860  177.0460  141.7090 C   0  0  0  0  0  2  0  0  0  0  0  0
  189.6280  177.5480  140.4840 C   0  0  0  0  0  2  0  0  0  0  0  0
  188.7570  178.5170  139.7060 C   0  0  0  0  0  2  0  0  0  0  0  0
  188.0520  177.8030  138.5640 C   0  0  1  0  0  3  0  0  0  0  0  0
  185.9830  177.8770  137.7780 C   0  0  0  0  0  1  0  0  0  0  0  0
  187.1220  178.6600  137.9700 O   0  0  0  0  0  0  0  0  0  0  0  0
  189.0750  177.3700  137.5220 C   0  0  0  0  0  2  0  0  0  0  0  0
  190.2600  175.1320  137.5560 C   0  0  0  0  0  0  0  0  0  0  0  0
  189.0820  175.9200  137.3790 N   0  0  0  0  0  2  0  0  0  0  0  0
  190.1980  173.7230  137.3780 N   0  0  0  0  0  1  0  0  0  0  0  0
  191.3530  175.6740  137.8710 O   0  0  0  0  0  0  0  0  0  0  0  0
  1  5  2  0  0  0  0
  1 13  1  0  0  0  0
  3  2  2  0  0  0  0
  4 14  1  0  0  0  0
  5  3  1  0  0  0  0
  6 15  1  6  0  0  0
  6 10  1  0  0  0  0
  7  2  1  0  0  0  0
  8  4  2  0  0  0  0
  8  6  1  0  0  0  0
  9  3  1  0  0  0  0
  9 11  2  0  0  0  0
 10 12  1  0  0  0  0
 10  5  1  0  0  0  0
 12  9  1  0  0  0  0
 13  7  2  0  0  0  0
 14 12  2  0  0  0  0
 16 15  1  0  0  0  0
 17 16  1  0  0  0  0
 18 17  1  0  0  0  0
 19 22  1  6  0  0  0
 19 18  1  0  0  0  0
 20 21  1  0  0  0  0
 21 19  1  0  0  0  0
 23 26  2  0  0  0  0
 24 22  1  0  0  0  0
 24 23  1  0  0  0  0
 25 23  1  0  0  0  0
M  END
>  <MODEL>
7

>  <REMARK>
 VINA RESULT:      -7.6      2.565      4.460
  Name = 
  8 active torsions:
  status: ('A' for Active; 'I' for Inactive)
    1  A    between atoms: C_2  and  C_12
    2  A    between atoms: C_2  and  O_20
    3  A    between atoms: C_2  and  C_26
    4  A    between atoms: N_7  and  C_11
    5  A    between atoms: N_7  and  C_15
    6  A    between atoms: N_9  and  C_12
    7  A    between atoms: C_15  and  C_16
    8  A    between atoms: C_16  and  C_26
                            x       y       z     vdW  Elec       q    Type
                         _______ _______ _______ _____ _____    ______ ____

>  <TORSDO>
F 8

$$$$
=
 OpenBabel10232407553D

 26 28  0  0  1  0  0  0  0  0999 V2000
  190.6160  176.7160  144.7520 C   0  0  0  0  0  3  0  0  0  0  0  0
  190.1610  176.9440  147.5480 C   0  0  0  0  0  3  0  0  0  0  0  0
  189.1970  177.3250  146.6190 C   0  0  0  0  0  0  0  0  0  0  0  0
  185.6950  178.2590  143.7650 C   0  0  0  0  0  3  0  0  0  0  0  0
  189.4150  177.2170  145.2530 C   0  0  0  0  0  0  0  0  0  0  0  0
  187.9360  177.3640  143.1100 C   0  0  2  0  0  3  0  0  0  0  0  0
  191.3810  176.4460  147.0600 C   0  0  0  0  0  3  0  0  0  0  0  0
  186.5450  177.8710  142.7990 C   0  0  0  0  0  3  0  0  0  0  0  0
  187.8420  177.8250  146.8160 C   0  0  0  0  0  0  0  0  0  0  0  0
  188.2820  177.6570  144.5000 N   0  0  0  0  0  0  0  0  0  0  0  0
  187.2510  178.0250  147.9090 O   0  0  0  0  0  0  0  0  0  0  0  0
  187.3030  177.9890  145.4750 C   0  0  0  0  0  0  0  0  0  0  0  0
  191.6070  176.3320  145.6720 C   0  0  0  0  0  3  0  0  0  0  0  0
  186.0770  178.2550  145.1520 N   0  0  0  0  0  0  0  0  0  0  0  0
  188.8950  177.9960  142.2190 N   0  0  0  0  0  2  0  0  0  0  0  0
  188.2150  178.2130  140.9530 C   0  0  0  0  0  2  0  0  0  0  0  0
  189.0500  177.6580  139.8140 C   0  0  0  0  0  2  0  0  0  0  0  0
  188.9760  178.5830  138.6120 C   0  0  0  0  0  2  0  0  0  0  0  0
  188.4950  177.8250  137.3850 C   0  0  1  0  0  3  0  0  0  0  0  0
  188.1290  175.7040  136.8650 C   0  0  0  0  0  1  0  0  0  0  0  0
  189.1160  176.5760  137.3250 O   0  0  0  0  0  0  0  0  0  0  0  0
  186.9860  177.6340  137.4600 C   0  0  0  0  0  2  0  0  0  0  0  0
  185.0450  178.7370  138.6560 C   0  0  0  0  0  0  0  0  0  0  0  0
  186.3520  178.7900  138.0790 N   0  0  0  0  0  2  0  0  0  0  0  0
  184.4780  179.9120  139.2230 N   0  0  0  0  0  1  0  0  0  0  0  0
  184.3920  177.6600  138.6690 O   0  0  0  0  0  0  0  0  0  0  0  0
  1  5  2  0  0  0  0
  1 13  1  0  0  0  0
  3  9  1  0  0  0  0
  3  2  2  0  0  0  0
  4 14  1  0  0  0  0
  5  3  1  0  0  0  0
  6 15  1  6  0  0  0
  6 10  1  0  0  0  0
  7  2  1  0  0  0  0
  8  6  1  0  0  0  0
  8  4  2  0  0  0  0
  9 11  2  0  0  0  0
 10  5  1  0  0  0  0
 10 12  1  0  0  0  0
 12  9  1  0  0  0  0
 13  7  2  0  0  0  0
 14 12  2  0  0  0  0
 16 15  1  0  0  0  0
 17 16  1  0  0  0  0
 18 17  1  0  0  0  0
 19 22  1  1  0  0  0
 19 18  1  0  0  0  0
 20 21  1  0  0  0  0
 21 19  1  0  0  0  0
 22 24  1  0  0  0  0
 23 26  2  0  0  0  0
 23 25  1  0  0  0  0
 24 23  1  0  0  0  0
M  END
>  <MODEL>
8

>  <REMARK>
 VINA RESULT:      -7.6      1.699      3.523
  Name = 
  8 active torsions:
  status: ('A' for Active; 'I' for Inactive)
    1  A    between atoms: C_2  and  C_12
    2  A    between atoms: C_2  and  O_20
    3  A    between atoms: C_2  and  C_26
    4  A    between atoms: N_7  and  C_11
    5  A    between atoms: N_7  and  C_15
    6  A    between atoms: N_9  and  C_12
    7  A    between atoms: C_15  and  C_16
    8  A    between atoms: C_16  and  C_26
                            x       y       z     vdW  Elec       q    Type
                         _______ _______ _______ _____ _____    ______ ____

>  <TORSDO>
F 8

$$$$
=
 OpenBabel10232407553D

 26 28  0  0  1  0  0  0  0  0999 V2000
  189.9410  177.0090  144.4500 C   0  0  0  0  0  3  0  0  0  0  0  0
  190.6830  176.8880  147.1920 C   0  0  0  0  0  3  0  0  0  0  0  0
  189.4190  177.3170  146.7960 C   0  0  0  0  0  0  0  0  0  0  0  0
  185.0450  178.3680  145.7740 C   0  0  0  0  0  3  0  0  0  0  0  0
  189.0530  177.3780  145.4590 C   0  0  0  0  0  0  0  0  0  0  0  0
  186.8190  177.6850  144.1490 C   0  0  2  0  0  3  0  0  0  0  0  0
  191.5940  176.5200  146.1870 C   0  0  0  0  0  3  0  0  0  0  0  0
  185.4210  178.1430  144.5030 C   0  0  0  0  0  3  0  0  0  0  0  0
  188.2640  177.7120  147.5940 C   0  0  0  0  0  0  0  0  0  0  0  0
  187.7080  177.8360  145.3000 N   0  0  0  0  0  0  0  0  0  0  0  0
  188.1780  177.7500  148.8490 O   0  0  0  0  0  0  0  0  0  0  0  0
  187.2180  177.9970  146.6250 C   0  0  0  0  0  0  0  0  0  0  0  0
  191.2260  176.5800  144.8260 C   0  0  0  0  0  3  0  0  0  0  0  0
  185.9670  178.2270  146.8690 N   0  0  0  0  0  0  0  0  0  0  0  0
  187.3200  178.4690  143.0320 N   0  0  0  0  0  2  0  0  0  0  0  0
  186.1610  178.9330  142.2880 C   0  0  0  0  0  2  0  0  0  0  0  0
  186.3020  178.5620  140.8240 C   0  0  0  0  0  2  0  0  0  0  0  0
  187.7690  178.4140  140.4620 C   0  0  0  0  0  2  0  0  0  0  0  0
  187.9230  178.0470  138.9940 C   0  0  1  0  0  3  0  0  0  0  0  0
  186.6390  177.9070  137.1950 C   0  0  0  0  0  1  0  0  0  0  0  0
  187.0080  178.7710  138.2270 O   0  0  0  0  0  0  0  0  0  0  0  0
  189.3370  178.3710  138.5310 C   0  0  0  0  0  2  0  0  0  0  0  0
  190.5370  176.1490  138.7290 C   0  0  0  0  0  0  0  0  0  0  0  0
  189.9660  177.1960  137.9420 N   0  0  0  0  0  2  0  0  0  0  0  0
  191.1560  175.0430  138.0860 N   0  0  0  0  0  1  0  0  0  0  0  0
  190.4950  176.1970  139.9870 O   0  0  0  0  0  0  0  0  0  0  0  0
  1 13  2  0  0  0  0
  1  5  1  0  0  0  0
  3  2  1  0  0  0  0
  3  9  1  0  0  0  0
  4 14  1  0  0  0  0
  5  3  2  0  0  0  0
  6 15  1  6  0  0  0
  6  8  1  0  0  0  0
  6 10  1  0  0  0  0
  7  2  2  0  0  0  0
  8  4  2  0  0  0  0
  9 11  2  0  0  0  0
 10  5  1  0  0  0  0
 10 12  1  0  0  0  0
 12 14  2  0  0  0  0
 12  9  1  0  0  0  0
 13  7  1  0  0  0  0
 16 15  1  0  0  0  0
 17 16  1  0  0  0  0
 18 17  1  0  0  0  0
 19 22  1  6  0  0  0
 19 18  1  0  0  0  0
 20 21  1  0  0  0  0
 21 19  1  0  0  0  0
 23 26  2  0  0  0  0
 24 22  1  0  0  0  0
 24 23  1  0  0  0  0
 25 23  1  0  0  0  0
M  END
>  <MODEL>
9

>  <REMARK>
 VINA RESULT:      -7.6      2.062      4.376
  Name = 
  8 active torsions:
  status: ('A' for Active; 'I' for Inactive)
    1  A    between atoms: C_2  and  C_12
    2  A    between atoms: C_2  and  O_20
    3  A    between atoms: C_2  and  C_26
    4  A    between atoms: N_7  and  C_11
    5  A    between atoms: N_7  and  C_15
    6  A    between atoms: N_9  and  C_12
    7  A    between atoms: C_15  and  C_16
    8  A    between atoms: C_16  and  C_26
                            x       y       z     vdW  Elec       q    Type
                         _______ _______ _______ _____ _____    ______ ____

>  <TORSDO>
F 8

$$$$
