=
 OpenBabel10232407563D

 26 29  0  0  1  0  0  0  0  0999 V2000
  190.2030  178.0460  142.5710 C   0  0  1  0  0  3  0  0  0  0  0  0
  189.8510  176.7880  140.4210 N   0  0  0  0  0  0  0  0  0  0  0  0
  191.9300  177.6630  140.8030 N   0  0  0  0  0  2  0  0  0  0  0  0
  190.3660  175.7860  138.2430 C   0  0  0  0  0  3  0  0  0  0  0  0
  190.6590  177.4970  141.2540 C   0  0  0  0  0  0  0  0  0  0  0  0
  192.6820  176.1550  137.5370 C   0  0  0  0  0  3  0  0  0  0  0  0
  190.6680  176.5030  139.3990 C   0  0  0  0  0  0  0  0  0  0  0  0
  191.9050  177.0240  139.6250 C   0  0  0  0  0  0  0  0  0  0  0  0
  191.3980  175.6140  137.3010 C   0  0  0  0  0  3  0  0  0  0  0  0
  192.9500  176.8740  138.7170 C   0  0  0  0  0  3  0  0  0  0  0  0
  188.0640  178.4830  141.2930 C   0  0  0  0  0  3  0  0  0  0  0  0
  188.0260  177.1430  143.3830 C   0  0  0  0  0  3  0  0  0  0  0  0
  186.7370  177.1490  143.7180 C   0  0  0  0  0  3  0  0  0  0  0  0
  184.3830  178.4140  144.4050 Cl  0  0  0  0  0  0  0  0  0  0  0  0
  185.7590  178.1930  143.3480 C   0  0  0  0  0  0  0  0  0  0  0  0
  186.7780  178.7880  141.1210 C   0  0  0  0  0  3  0  0  0  0  0  0
  188.6840  178.2600  142.6390 C   0  0  1  0  0  3  0  0  0  0  0  0
  185.7660  178.8690  142.1920 C   0  0  0  0  0  3  0  0  0  0  0  0
  191.8900  176.0380  145.9930 C   0  0  0  0  0  0  0  0  0  0  0  0
  191.4340  176.0850  143.6120 C   0  0  0  0  0  3  0  0  0  0  0  0
  190.8040  177.3310  143.7510 C   0  0  0  0  0  0  0  0  0  0  0  0
  190.7190  177.9220  145.0160 C   0  0  0  0  0  3  0  0  0  0  0  0
  191.9750  175.4420  144.7270 C   0  0  0  0  0  3  0  0  0  0  0  0
  191.2610  177.2800  146.1320 C   0  0  0  0  0  3  0  0  0  0  0  0
  192.7320  176.1100  148.2210 O   0  0  0  0  0  1  0  0  0  0  0  0
  192.4240  175.4130  147.1190 O   0  0  0  0  0  0  0  0  0  0  0  0
  1  5  1  6  0  0  0
  1 21  1  0  0  0  0
  2  5  2  0  0  0  0
  3  5  1  0  0  0  0
  4  7  1  0  0  0  0
  6 10  2  0  0  0  0
  7  8  2  0  0  0  0
  7  2  1  0  0  0  0
  8  3  1  0  0  0  0
  9  6  1  0  0  0  0
  9  4  2  0  0  0  0
 10  8  1  0  0  0  0
 11 17  1  0  0  0  0
 12 13  2  0  0  0  0
 15 13  1  0  0  0  0
 15 14  1  0  0  0  0
 16 11  2  0  0  0  0
 16 18  1  0  0  0  0
 17  1  1  6  0  0  0
 17 12  1  0  0  0  0
 18 15  2  0  0  0  0
 19 24  1  0  0  0  0
 19 26  1  0  0  0  0
 20 21  2  0  0  0  0
 20 23  1  0  0  0  0
 21 22  1  0  0  0  0
 22 24  2  0  0  0  0
 23 19  2  0  0  0  0
 26 25  1  0  0  0  0
M  END
>  <MODEL>
1

>  <REMARK>
 VINA RESULT:      -8.4      0.000      0.000
  Name = 
  4 active torsions:
  status: ('A' for Active; 'I' for Inactive)
    1  A    between atoms: C_2  and  O_11
    2  A    between atoms: C_7  and  C_24
    3  A    between atoms: C_10  and  C_24
    4  A    between atoms: C_22  and  C_24
                            x       y       z     vdW  Elec       q    Type
                         _______ _______ _______ _____ _____    ______ ____

>  <TORSDO>
F 4

$$$$
=
 OpenBabel10232407563D

 26 29  0  0  1  0  0  0  0  0999 V2000
  188.5920  178.6300  141.5350 C   0  0  1  0  0  3  0  0  0  0  0  0
  188.8270  176.8610  139.7620 N   0  0  0  0  0  0  0  0  0  0  0  0
  188.8260  179.0450  139.0800 N   0  0  0  0  0  2  0  0  0  0  0  0
  189.0910  175.8740  137.5330 C   0  0  0  0  0  3  0  0  0  0  0  0
  188.7460  178.1710  140.1170 C   0  0  0  0  0  0  0  0  0  0  0  0
  189.2200  177.5460  135.7480 C   0  0  0  0  0  3  0  0  0  0  0  0
  188.9630  176.9310  138.4310 C   0  0  0  0  0  0  0  0  0  0  0  0
  188.9620  178.2300  138.0250 C   0  0  0  0  0  0  0  0  0  0  0  0
  189.2220  176.1970  136.1690 C   0  0  0  0  0  3  0  0  0  0  0  0
  189.0890  178.5880  136.6850 C   0  0  0  0  0  3  0  0  0  0  0  0
  186.1610  178.6090  140.8360 C   0  0  0  0  0  3  0  0  0  0  0  0
  186.8300  177.7700  143.0750 C   0  0  0  0  0  3  0  0  0  0  0  0
  185.6790  177.7540  143.7440 C   0  0  0  0  0  3  0  0  0  0  0  0
  183.4290  178.9580  144.7920 Cl  0  0  0  0  0  0  0  0  0  0  0  0
  184.5100  178.6110  143.4610 C   0  0  0  0  0  0  0  0  0  0  0  0
  184.8450  178.7700  140.9680 C   0  0  0  0  0  3  0  0  0  0  0  0
  187.1250  178.7390  141.9760 C   0  0  1  0  0  3  0  0  0  0  0  0
  184.1350  179.0120  142.2400 C   0  0  0  0  0  3  0  0  0  0  0  0
  191.1890  176.6090  144.3220 C   0  0  0  0  0  0  0  0  0  0  0  0
  189.6550  176.5120  142.4450 C   0  0  0  0  0  3  0  0  0  0  0  0
  189.4980  177.9060  142.4940 C   0  0  0  0  0  0  0  0  0  0  0  0
  190.1880  178.6430  143.4620 C   0  0  0  0  0  3  0  0  0  0  0  0
  190.4970  175.8670  143.3540 C   0  0  0  0  0  3  0  0  0  0  0  0
  191.0310  177.9980  144.3710 C   0  0  0  0  0  3  0  0  0  0  0  0
  192.1270  176.4150  146.5030 O   0  0  0  0  0  1  0  0  0  0  0  0
  192.0330  175.9830  145.2370 O   0  0  0  0  0  0  0  0  0  0  0  0
  1  5  1  6  0  0  0
  1 21  1  0  0  0  0
  2  5  2  0  0  0  0
  3  5  1  0  0  0  0
  4  7  1  0  0  0  0
  6  9  1  0  0  0  0
  6 10  2  0  0  0  0
  7  2  1  0  0  0  0
  8  7  2  0  0  0  0
  8  3  1  0  0  0  0
  9  4  2  0  0  0  0
 10  8  1  0  0  0  0
 11 16  2  0  0  0  0
 11 17  1  0  0  0  0
 12 13  2  0  0  0  0
 15 13  1  0  0  0  0
 15 14  1  0  0  0  0
 16 18  1  0  0  0  0
 17  1  1  6  0  0  0
 17 12  1  0  0  0  0
 18 15  2  0  0  0  0
 19 24  1  0  0  0  0
 19 26  1  0  0  0  0
 20 21  2  0  0  0  0
 20 23  1  0  0  0  0
 21 22  1  0  0  0  0
 22 24  2  0  0  0  0
 23 19  2  0  0  0  0
 26 25  1  0  0  0  0
M  END
>  <MODEL>
2

>  <REMARK>
 VINA RESULT:      -8.4      1.877      2.321
  Name = 
  4 active torsions:
  status: ('A' for Active; 'I' for Inactive)
    1  A    between atoms: C_2  and  O_11
    2  A    between atoms: C_7  and  C_24
    3  A    between atoms: C_10  and  C_24
    4  A    between atoms: C_22  and  C_24
                            x       y       z     vdW  Elec       q    Type
                         _______ _______ _______ _____ _____    ______ ____

>  <TORSDO>
F 4

$$$$
=
 OpenBabel10232407563D

 26 29  0  0  1  0  0  0  0  0999 V2000
  186.2860  179.1230  141.6260 C   0  0  1  0  0  3  0  0  0  0  0  0
  184.2680  177.7380  141.0420 N   0  0  0  0  0  0  0  0  0  0  0  0
  184.5560  179.7110  139.9180 N   0  0  0  0  0  2  0  0  0  0  0  0
  182.1950  177.0750  139.9130 C   0  0  0  0  0  3  0  0  0  0  0  0
  185.0260  178.8530  140.8620 C   0  0  0  0  0  0  0  0  0  0  0  0
  181.4480  178.6990  138.2390 C   0  0  0  0  0  3  0  0  0  0  0  0
  183.2750  177.9190  140.1620 C   0  0  0  0  0  0  0  0  0  0  0  0
  183.4450  179.0920  139.4930 C   0  0  0  0  0  0  0  0  0  0  0  0
  181.2700  177.4810  138.9320 C   0  0  0  0  0  3  0  0  0  0  0  0
  182.5520  179.5260  138.5160 C   0  0  0  0  0  3  0  0  0  0  0  0
  184.7200  179.1820  143.6130 C   0  0  0  0  0  3  0  0  0  0  0  0
  186.6280  177.5940  143.5650 C   0  0  0  0  0  3  0  0  0  0  0  0
  186.7430  177.2270  144.8400 C   0  0  0  0  0  3  0  0  0  0  0  0
  187.1520  177.7450  147.5190 Cl  0  0  0  0  0  0  0  0  0  0  0  0
  186.3220  178.0310  146.0060 C   0  0  0  0  0  0  0  0  0  0  0  0
  184.3680  179.1730  144.8980 C   0  0  0  0  0  3  0  0  0  0  0  0
  186.1210  178.9350  143.1420 C   0  0  1  0  0  3  0  0  0  0  0  0
  185.2580  178.8430  146.0280 C   0  0  0  0  0  3  0  0  0  0  0  0
  189.7320  177.2420  139.8440 C   0  0  0  0  0  0  0  0  0  0  0  0
  188.6560  178.2290  141.7810 C   0  0  0  0  0  3  0  0  0  0  0  0
  187.4970  178.4630  141.0250 C   0  0  0  0  0  0  0  0  0  0  0  0
  187.4650  178.0850  139.6790 C   0  0  0  0  0  3  0  0  0  0  0  0
  189.7680  177.6220  141.1930 C   0  0  0  0  0  3  0  0  0  0  0  0
  188.5760  177.4760  139.0910 C   0  0  0  0  0  3  0  0  0  0  0  0
  190.7340  175.4190  138.6820 O   0  0  0  0  0  1  0  0  0  0  0  0
  190.8300  176.6350  139.2390 O   0  0  0  0  0  0  0  0  0  0  0  0
  1  5  1  6  0  0  0
  3  5  1  0  0  0  0
  4  7  1  0  0  0  0
  5  2  2  0  0  0  0
  6 10  2  0  0  0  0
  6  9  1  0  0  0  0
  7  2  1  0  0  0  0
  8  3  1  0  0  0  0
  8  7  2  0  0  0  0
  9  4  2  0  0  0  0
 10  8  1  0  0  0  0
 11 16  2  0  0  0  0
 12 13  2  0  0  0  0
 13 15  1  0  0  0  0
 15 18  2  0  0  0  0
 15 14  1  0  0  0  0
 16 18  1  0  0  0  0
 17  1  1  6  0  0  0
 17 12  1  0  0  0  0
 17 11  1  0  0  0  0
 19 23  1  0  0  0  0
 21  1  1  0  0  0  0
 21 20  1  0  0  0  0
 22 21  2  0  0  0  0
 23 20  2  0  0  0  0
 24 22  1  0  0  0  0
 24 19  2  0  0  0  0
 25 26  1  0  0  0  0
 26 19  1  0  0  0  0
M  END
>  <MODEL>
3

>  <REMARK>
 VINA RESULT:      -8.2      4.046      6.655
  Name = 
  4 active torsions:
  status: ('A' for Active; 'I' for Inactive)
    1  A    between atoms: C_2  and  O_11
    2  A    between atoms: C_7  and  C_24
    3  A    between atoms: C_10  and  C_24
    4  A    between atoms: C_22  and  C_24
                            x       y       z     vdW  Elec       q    Type
                         _______ _______ _______ _____ _____    ______ ____

>  <TORSDO>
F 4

$$$$
=
 OpenBabel10232407563D

 26 29  0  0  1  0  0  0  0  0999 V2000
  189.4250  177.9560  142.0780 C   0  0  1  0  0  3  0  0  0  0  0  0
  191.2020  177.3700  140.3960 N   0  0  0  0  0  0  0  0  0  0  0  0
  189.0280  176.9330  139.8310 N   0  0  0  0  0  2  0  0  0  0  0  0
  192.2020  176.5490  138.3130 C   0  0  0  0  0  3  0  0  0  0  0  0
  189.8930  177.4140  140.7620 C   0  0  0  0  0  0  0  0  0  0  0  0
  190.5470  175.7080  136.7160 C   0  0  0  0  0  3  0  0  0  0  0  0
  191.1420  176.8310  139.1720 C   0  0  0  0  0  0  0  0  0  0  0  0
  189.8490  176.5700  138.8340 C   0  0  0  0  0  0  0  0  0  0  0  0
  191.8890  175.9770  137.0650 C   0  0  0  0  0  3  0  0  0  0  0  0
  189.5010  176.0060  137.6090 C   0  0  0  0  0  3  0  0  0  0  0  0
  187.4500  178.0100  143.6580 C   0  0  0  0  0  3  0  0  0  0  0  0
  187.2610  178.9800  141.3810 C   0  0  0  0  0  3  0  0  0  0  0  0
  185.9450  179.0820  141.2080 C   0  0  0  0  0  3  0  0  0  0  0  0
  183.4000  178.0300  141.0440 Cl  0  0  0  0  0  0  0  0  0  0  0  0
  184.9250  178.2460  141.8740 C   0  0  0  0  0  0  0  0  0  0  0  0
  186.1760  177.9020  144.0340 C   0  0  0  0  0  3  0  0  0  0  0  0
  187.8970  177.9270  142.2300 C   0  0  1  0  0  3  0  0  0  0  0  0
  185.0220  177.7740  143.1230 C   0  0  0  0  0  3  0  0  0  0  0  0
  191.6550  176.3510  145.4010 C   0  0  0  0  0  0  0  0  0  0  0  0
  190.5190  178.2210  144.3530 C   0  0  0  0  0  3  0  0  0  0  0  0
  190.1970  177.4140  143.2500 C   0  0  0  0  0  0  0  0  0  0  0  0
  190.6100  176.0780  143.2300 C   0  0  0  0  0  3  0  0  0  0  0  0
  191.2450  177.6920  145.4230 C   0  0  0  0  0  3  0  0  0  0  0  0
  191.3350  175.5480  144.3010 C   0  0  0  0  0  3  0  0  0  0  0  0
  192.3120  176.3270  147.6910 O   0  0  0  0  0  1  0  0  0  0  0  0
  192.3790  175.8050  146.4580 O   0  0  0  0  0  0  0  0  0  0  0  0
  1  5  1  6  0  0  0
  1 21  1  0  0  0  0
  2  5  2  0  0  0  0
  3  5  1  0  0  0  0
  4  7  1  0  0  0  0
  6  9  1  0  0  0  0
  6 10  2  0  0  0  0
  7  2  1  0  0  0  0
  8  7  2  0  0  0  0
  8  3  1  0  0  0  0
  9  4  2  0  0  0  0
 10  8  1  0  0  0  0
 11 16  2  0  0  0  0
 12 17  1  0  0  0  0
 13 12  2  0  0  0  0
 13 15  1  0  0  0  0
 14 15  1  0  0  0  0
 15 18  2  0  0  0  0
 17  1  1  1  0  0  0
 17 11  1  0  0  0  0
 18 16  1  0  0  0  0
 19 23  1  0  0  0  0
 19 26  1  0  0  0  0
 20 23  2  0  0  0  0
 21 20  1  0  0  0  0
 22 21  2  0  0  0  0
 22 24  1  0  0  0  0
 24 19  2  0  0  0  0
 26 25  1  0  0  0  0
M  END
>  <MODEL>
4

>  <REMARK>
 VINA RESULT:      -8.1      1.100      2.178
  Name = 
  4 active torsions:
  status: ('A' for Active; 'I' for Inactive)
    1  A    between atoms: C_2  and  O_11
    2  A    between atoms: C_7  and  C_24
    3  A    between atoms: C_10  and  C_24
    4  A    between atoms: C_22  and  C_24
                            x       y       z     vdW  Elec       q    Type
                         _______ _______ _______ _____ _____    ______ ____

>  <TORSDO>
F 4

$$$$
=
 OpenBabel10232407563D

 26 29  0  0  1  0  0  0  0  0999 V2000
  187.8670  178.6140  141.8130 C   0  0  1  0  0  3  0  0  0  0  0  0
  189.2280  176.9600  140.4930 N   0  0  0  0  0  0  0  0  0  0  0  0
  188.4100  178.7840  139.3780 N   0  0  0  0  0  2  0  0  0  0  0  0
  190.3670  175.9480  138.5720 C   0  0  0  0  0  3  0  0  0  0  0  0
  188.5050  178.1110  140.5540 C   0  0  0  0  0  0  0  0  0  0  0  0
  190.1230  177.2500  136.5120 C   0  0  0  0  0  3  0  0  0  0  0  0
  189.5990  176.9210  139.2060 C   0  0  0  0  0  0  0  0  0  0  0  0
  189.1130  178.0060  138.5420 C   0  0  0  0  0  0  0  0  0  0  0  0
  190.6290  176.1240  137.2000 C   0  0  0  0  0  3  0  0  0  0  0  0
  189.3510  178.2130  137.1860 C   0  0  0  0  0  3  0  0  0  0  0  0
  185.6750  179.2170  142.9240 C   0  0  0  0  0  3  0  0  0  0  0  0
  185.7690  178.7940  140.4790 C   0  0  0  0  0  3  0  0  0  0  0  0
  184.4900  178.6000  140.1610 C   0  0  0  0  0  3  0  0  0  0  0  0
  182.0800  177.2730  140.3680 Cl  0  0  0  0  0  0  0  0  0  0  0  0
  183.4420  178.1100  141.0790 C   0  0  0  0  0  0  0  0  0  0  0  0
  184.3700  179.1460  143.1810 C   0  0  0  0  0  3  0  0  0  0  0  0
  186.3390  178.4540  141.8180 C   0  0  1  0  0  3  0  0  0  0  0  0
  183.3800  178.3920  142.3870 C   0  0  0  0  0  3  0  0  0  0  0  0
  189.9150  177.3130  145.3770 C   0  0  0  0  0  0  0  0  0  0  0  0
  187.9180  177.3280  144.0010 C   0  0  0  0  0  3  0  0  0  0  0  0
  188.5660  178.1430  143.0600 C   0  0  0  0  0  0  0  0  0  0  0  0
  189.8870  178.5410  143.2880 C   0  0  0  0  0  3  0  0  0  0  0  0
  188.5890  176.9140  145.1540 C   0  0  0  0  0  3  0  0  0  0  0  0
  190.5600  178.1270  144.4400 C   0  0  0  0  0  3  0  0  0  0  0  0
  191.9420  176.8840  146.5540 O   0  0  0  0  0  1  0  0  0  0  0  0
  190.6020  176.9100  146.5210 O   0  0  0  0  0  0  0  0  0  0  0  0
  1  5  1  6  0  0  0
  1 21  1  0  0  0  0
  2  5  2  0  0  0  0
  3  5  1  0  0  0  0
  4  7  1  0  0  0  0
  6 10  2  0  0  0  0
  6  9  1  0  0  0  0
  7  2  1  0  0  0  0
  8  7  2  0  0  0  0
  8  3  1  0  0  0  0
  9  4  2  0  0  0  0
 10  8  1  0  0  0  0
 11 16  2  0  0  0  0
 12 17  1  0  0  0  0
 13 12  2  0  0  0  0
 13 15  1  0  0  0  0
 14 15  1  0  0  0  0
 15 18  2  0  0  0  0
 17  1  1  6  0  0  0
 17 11  1  0  0  0  0
 18 16  1  0  0  0  0
 19 26  1  0  0  0  0
 20 23  2  0  0  0  0
 21 22  2  0  0  0  0
 21 20  1  0  0  0  0
 22 24  1  0  0  0  0
 23 19  1  0  0  0  0
 24 19  2  0  0  0  0
 26 25  1  0  0  0  0
M  END
>  <MODEL>
5

>  <REMARK>
 VINA RESULT:      -8.0      1.883      2.941
  Name = 
  4 active torsions:
  status: ('A' for Active; 'I' for Inactive)
    1  A    between atoms: C_2  and  O_11
    2  A    between atoms: C_7  and  C_24
    3  A    between atoms: C_10  and  C_24
    4  A    between atoms: C_22  and  C_24
                            x       y       z     vdW  Elec       q    Type
                         _______ _______ _______ _____ _____    ______ ____

>  <TORSDO>
F 4

$$$$
=
 OpenBabel10232407563D

 26 29  0  0  1  0  0  0  0  0999 V2000
  188.1800  176.8480  143.0710 C   0  0  1  0  0  3  0  0  0  0  0  0
  188.0930  178.1490  140.9190 N   0  0  0  0  0  0  0  0  0  0  0  0
  189.4790  176.3300  140.9980 N   0  0  0  0  0  2  0  0  0  0  0  0
  188.5920  178.7800  138.6030 C   0  0  0  0  0  3  0  0  0  0  0  0
  188.5870  177.1160  141.6540 C   0  0  0  0  0  0  0  0  0  0  0  0
  190.2130  177.2920  137.5270 C   0  0  0  0  0  3  0  0  0  0  0  0
  188.7180  177.9920  139.7450 C   0  0  0  0  0  0  0  0  0  0  0  0
  189.5430  176.9100  139.7900 C   0  0  0  0  0  0  0  0  0  0  0  0
  189.3570  178.4150  137.4790 C   0  0  0  0  0  3  0  0  0  0  0  0
  190.3140  176.5190  138.6990 C   0  0  0  0  0  3  0  0  0  0  0  0
  190.2170  178.1600  143.8010 C   0  0  0  0  0  3  0  0  0  0  0  0
  188.8450  176.9390  145.4720 C   0  0  0  0  0  3  0  0  0  0  0  0
  189.6490  176.8780  146.5310 C   0  0  0  0  0  3  0  0  0  0  0  0
  191.9820  176.1400  147.8050 Cl  0  0  0  0  0  0  0  0  0  0  0  0
  191.1260  176.9130  146.4900 C   0  0  0  0  0  0  0  0  0  0  0  0
  191.3400  178.4080  144.4730 C   0  0  0  0  0  3  0  0  0  0  0  0
  189.3460  176.9690  144.0640 C   0  0  1  0  0  3  0  0  0  0  0  0
  191.8480  177.6190  145.6120 C   0  0  0  0  0  3  0  0  0  0  0  0
  184.5420  178.8910  144.1560 C   0  0  0  0  0  0  0  0  0  0  0  0
  186.5790  177.7530  144.8190 C   0  0  0  0  0  3  0  0  0  0  0  0
  186.9180  177.5630  143.4710 C   0  0  0  0  0  0  0  0  0  0  0  0
  186.0630  178.0390  142.4720 C   0  0  0  0  0  3  0  0  0  0  0  0
  185.3970  178.4140  145.1610 C   0  0  0  0  0  3  0  0  0  0  0  0
  184.8800  178.7010  142.8130 C   0  0  0  0  0  3  0  0  0  0  0  0
  182.1840  179.1660  143.9590 O   0  0  0  0  0  1  0  0  0  0  0  0
  183.3580  179.5530  144.4760 O   0  0  0  0  0  0  0  0  0  0  0  0
  1  5  1  6  0  0  0
  1 21  1  0  0  0  0
  2  5  2  0  0  0  0
  3  5  1  0  0  0  0
  4  7  1  0  0  0  0
  6 10  2  0  0  0  0
  7  8  2  0  0  0  0
  7  2  1  0  0  0  0
  8  3  1  0  0  0  0
  9  6  1  0  0  0  0
  9  4  2  0  0  0  0
 10  8  1  0  0  0  0
 11 17  1  0  0  0  0
 11 16  2  0  0  0  0
 12 13  2  0  0  0  0
 15 13  1  0  0  0  0
 15 14  1  0  0  0  0
 16 18  1  0  0  0  0
 17  1  1  6  0  0  0
 17 12  1  0  0  0  0
 18 15  2  0  0  0  0
 19 26  1  0  0  0  0
 19 23  1  0  0  0  0
 20 23  2  0  0  0  0
 21 20  1  0  0  0  0
 22 24  1  0  0  0  0
 22 21  2  0  0  0  0
 24 19  2  0  0  0  0
 25 26  1  0  0  0  0
M  END
>  <MODEL>
6

>  <REMARK>
 VINA RESULT:      -7.9      3.747      5.532
  Name = 
  4 active torsions:
  status: ('A' for Active; 'I' for Inactive)
    1  A    between atoms: C_2  and  O_11
    2  A    between atoms: C_7  and  C_24
    3  A    between atoms: C_10  and  C_24
    4  A    between atoms: C_22  and  C_24
                            x       y       z     vdW  Elec       q    Type
                         _______ _______ _______ _____ _____    ______ ____

>  <TORSDO>
F 4

$$$$
=
 OpenBabel10232407563D

 26 29  0  0  1  0  0  0  0  0999 V2000
  188.4560  176.5560  143.3790 C   0  0  1  0  0  3  0  0  0  0  0  0
  186.6910  177.5460  144.8740 N   0  0  0  0  0  0  0  0  0  0  0  0
  186.2930  177.5540  142.6200 N   0  0  0  0  0  2  0  0  0  0  0  0
  184.5890  178.6220  145.5320 C   0  0  0  0  0  3  0  0  0  0  0  0
  187.1400  177.2260  143.6300 C   0  0  0  0  0  0  0  0  0  0  0  0
  183.1480  179.1670  143.6280 C   0  0  0  0  0  3  0  0  0  0  0  0
  185.5010  178.1030  144.6160 C   0  0  0  0  0  0  0  0  0  0  0  0
  185.2630  178.1090  143.2760 C   0  0  0  0  0  0  0  0  0  0  0  0
  183.3930  179.1610  145.0200 C   0  0  0  0  0  3  0  0  0  0  0  0
  184.0920  178.6330  142.7320 C   0  0  0  0  0  3  0  0  0  0  0  0
  188.3420  178.0250  141.3220 C   0  0  0  0  0  3  0  0  0  0  0  0
  190.5210  177.1250  142.1020 C   0  0  0  0  0  3  0  0  0  0  0  0
  191.3080  177.2870  141.0400 C   0  0  0  0  0  3  0  0  0  0  0  0
  191.9960  176.8560  138.4030 Cl  0  0  0  0  0  0  0  0  0  0  0  0
  190.8530  177.3430  139.6360 C   0  0  0  0  0  0  0  0  0  0  0  0
  188.6200  178.4220  140.0810 C   0  0  0  0  0  3  0  0  0  0  0  0
  189.0480  176.8910  142.0010 C   0  0  1  0  0  3  0  0  0  0  0  0
  189.6960  177.8790  139.2290 C   0  0  0  0  0  3  0  0  0  0  0  0
  191.1460  176.9150  146.7300 C   0  0  0  0  0  0  0  0  0  0  0  0
  190.7220  176.1780  144.4580 C   0  0  0  0  0  3  0  0  0  0  0  0
  189.4130  176.6770  144.5340 C   0  0  0  0  0  0  0  0  0  0  0  0
  188.9770  177.2910  145.7130 C   0  0  0  0  0  3  0  0  0  0  0  0
  191.5850  176.2970  145.5500 C   0  0  0  0  0  3  0  0  0  0  0  0
  189.8400  177.4100  146.8060 C   0  0  0  0  0  3  0  0  0  0  0  0
  192.7760  176.0310  148.2260 O   0  0  0  0  0  1  0  0  0  0  0  0
  191.9910  177.0430  147.8300 O   0  0  0  0  0  0  0  0  0  0  0  0
  1  5  1  1  0  0  0
  1 21  1  0  0  0  0
  3  8  1  0  0  0  0
  3  5  1  0  0  0  0
  5  2  2  0  0  0  0
  6  9  2  0  0  0  0
  7  2  1  0  0  0  0
  7  4  2  0  0  0  0
  8  7  1  0  0  0  0
  9  4  1  0  0  0  0
 10  8  2  0  0  0  0
 10  6  1  0  0  0  0
 11 17  1  0  0  0  0
 13 12  2  0  0  0  0
 14 15  1  0  0  0  0
 15 13  1  0  0  0  0
 16 11  2  0  0  0  0
 17 12  1  0  0  0  0
 17  1  1  1  0  0  0
 18 15  2  0  0  0  0
 18 16  1  0  0  0  0
 19 24  1  0  0  0  0
 19 26  1  0  0  0  0
 20 21  2  0  0  0  0
 20 23  1  0  0  0  0
 21 22  1  0  0  0  0
 22 24  2  0  0  0  0
 23 19  2  0  0  0  0
 26 25  1  0  0  0  0
M  END
>  <MODEL>
7

>  <REMARK>
 VINA RESULT:      -7.8      2.774      5.860
  Name = 
  4 active torsions:
  status: ('A' for Active; 'I' for Inactive)
    1  A    between atoms: C_2  and  O_11
    2  A    between atoms: C_7  and  C_24
    3  A    between atoms: C_10  and  C_24
    4  A    between atoms: C_22  and  C_24
                            x       y       z     vdW  Elec       q    Type
                         _______ _______ _______ _____ _____    ______ ____

>  <TORSDO>
F 4

$$$$
=
 OpenBabel10232407563D

 26 29  0  0  1  0  0  0  0  0999 V2000
  188.6860  178.1830  142.0090 C   0  0  1  0  0  3  0  0  0  0  0  0
  189.0670  178.0760  144.4940 N   0  0  0  0  0  0  0  0  0  0  0  0
  190.4480  176.8320  143.1600 N   0  0  0  0  0  2  0  0  0  0  0  0
  190.0840  177.4280  146.6290 C   0  0  0  0  0  3  0  0  0  0  0  0
  189.4000  177.6940  143.2320 C   0  0  0  0  0  0  0  0  0  0  0  0
  191.9580  175.8730  146.3700 C   0  0  0  0  0  3  0  0  0  0  0  0
  189.9580  177.4120  145.2420 C   0  0  0  0  0  0  0  0  0  0  0  0
  190.7800  176.6710  144.4490 C   0  0  0  0  0  0  0  0  0  0  0  0
  191.1060  176.6420  147.1940 C   0  0  0  0  0  3  0  0  0  0  0  0
  191.8010  175.8810  144.9720 C   0  0  0  0  0  3  0  0  0  0  0  0
  188.2750  177.8110  139.5410 C   0  0  0  0  0  3  0  0  0  0  0  0
  190.5700  177.6320  140.4720 C   0  0  0  0  0  3  0  0  0  0  0  0
  191.2300  176.9820  139.5150 C   0  0  0  0  0  3  0  0  0  0  0  0
  191.6590  174.8150  137.8620 Cl  0  0  0  0  0  0  0  0  0  0  0  0
  190.6270  176.0610  138.5300 C   0  0  0  0  0  0  0  0  0  0  0  0
  188.3980  177.2220  138.3520 C   0  0  0  0  0  3  0  0  0  0  0  0
  189.1100  177.4450  140.7310 C   0  0  1  0  0  3  0  0  0  0  0  0
  189.4060  176.2030  138.0000 C   0  0  0  0  0  3  0  0  0  0  0  0
  184.4390  178.5720  142.6390 C   0  0  0  0  0  0  0  0  0  0  0  0
  186.3930  178.9730  141.2600 C   0  0  0  0  0  3  0  0  0  0  0  0
  187.2010  178.3240  142.2070 C   0  0  0  0  0  0  0  0  0  0  0  0
  186.6200  177.8050  143.3680 C   0  0  0  0  0  3  0  0  0  0  0  0
  185.0190  179.0960  141.4750 C   0  0  0  0  0  3  0  0  0  0  0  0
  185.2450  177.9270  143.5830 C   0  0  0  0  0  3  0  0  0  0  0  0
  182.5770  178.7280  144.1180 O   0  0  0  0  0  1  0  0  0  0  0  0
  183.0690  178.6850  142.8720 O   0  0  0  0  0  0  0  0  0  0  0  0
  1 21  1  1  0  0  0
  1  5  1  0  0  0  0
  2  7  1  0  0  0  0
  3  5  1  0  0  0  0
  3  8  1  0  0  0  0
  4  9  1  0  0  0  0
  5  2  2  0  0  0  0
  6  9  2  0  0  0  0
  7  4  2  0  0  0  0
  8 10  2  0  0  0  0
  8  7  1  0  0  0  0
 10  6  1  0  0  0  0
 11 17  1  0  0  0  0
 12 17  1  0  0  0  0
 13 12  2  0  0  0  0
 14 15  1  0  0  0  0
 15 13  1  0  0  0  0
 16 11  2  0  0  0  0
 17  1  1  1  0  0  0
 18 16  1  0  0  0  0
 18 15  2  0  0  0  0
 19 26  1  0  0  0  0
 19 24  1  0  0  0  0
 20 23  1  0  0  0  0
 20 21  2  0  0  0  0
 21 22  1  0  0  0  0
 22 24  2  0  0  0  0
 23 19  2  0  0  0  0
 26 25  1  0  0  0  0
M  END
>  <MODEL>
8

>  <REMARK>
 VINA RESULT:      -7.7      3.903      6.698
  Name = 
  4 active torsions:
  status: ('A' for Active; 'I' for Inactive)
    1  A    between atoms: C_2  and  O_11
    2  A    between atoms: C_7  and  C_24
    3  A    between atoms: C_10  and  C_24
    4  A    between atoms: C_22  and  C_24
                            x       y       z     vdW  Elec       q    Type
                         _______ _______ _______ _____ _____    ______ ____

>  <TORSDO>
F 4

$$$$
=
 OpenBabel10232407563D

 26 29  0  0  1  0  0  0  0  0999 V2000
  188.6540  178.5130  141.0490 C   0  0  1  0  0  3  0  0  0  0  0  0
  186.7520  178.3650  142.6900 N   0  0  0  0  0  0  0  0  0  0  0  0
  186.2290  178.7730  140.5000 N   0  0  0  0  0  2  0  0  0  0  0  0
  184.4500  178.3720  143.5330 C   0  0  0  0  0  3  0  0  0  0  0  0
  187.2030  178.5530  141.4200 C   0  0  0  0  0  0  0  0  0  0  0  0
  182.7850  178.7790  141.7830 C   0  0  0  0  0  3  0  0  0  0  0  0
  185.4260  178.4760  142.5440 C   0  0  0  0  0  0  0  0  0  0  0  0
  185.1130  178.7190  141.2420 C   0  0  0  0  0  0  0  0  0  0  0  0
  183.1080  178.5270  143.1350 C   0  0  0  0  0  3  0  0  0  0  0  0
  183.7980  178.8770  140.8120 C   0  0  0  0  0  3  0  0  0  0  0  0
  190.8310  177.3430  141.5900 C   0  0  0  0  0  3  0  0  0  0  0  0
  189.7350  178.7970  143.2780 C   0  0  0  0  0  3  0  0  0  0  0  0
  190.3310  178.4390  144.4130 C   0  0  0  0  0  3  0  0  0  0  0  0
  191.0250  176.6000  146.3490 Cl  0  0  0  0  0  0  0  0  0  0  0  0
  190.9440  177.1220  144.6810 C   0  0  0  0  0  0  0  0  0  0  0  0
  191.7040  176.6550  142.3240 C   0  0  0  0  0  3  0  0  0  0  0  0
  189.5330  177.8640  142.1280 C   0  0  1  0  0  3  0  0  0  0  0  0
  191.5770  176.3750  143.7680 C   0  0  0  0  0  3  0  0  0  0  0  0
  189.3630  177.1730  137.0130 C   0  0  0  0  0  0  0  0  0  0  0  0
  188.9420  176.6540  139.3450 C   0  0  0  0  0  3  0  0  0  0  0  0
  188.8940  178.0240  139.6460 C   0  0  0  0  0  0  0  0  0  0  0  0
  189.0830  178.9610  138.6250 C   0  0  0  0  0  3  0  0  0  0  0  0
  189.1750  176.2310  138.0340 C   0  0  0  0  0  3  0  0  0  0  0  0
  189.3160  178.5380  137.3140 C   0  0  0  0  0  3  0  0  0  0  0  0
  190.7780  176.2600  135.3280 O   0  0  0  0  0  1  0  0  0  0  0  0
  189.5960  176.7700  135.6990 O   0  0  0  0  0  0  0  0  0  0  0  0
  1 21  1  6  0  0  0
  1  5  1  0  0  0  0
  3  8  1  0  0  0  0
  3  5  1  0  0  0  0
  5  2  2  0  0  0  0
  6  9  2  0  0  0  0
  7  2  1  0  0  0  0
  7  4  2  0  0  0  0
  8  7  1  0  0  0  0
  9  4  1  0  0  0  0
 10  8  2  0  0  0  0
 10  6  1  0  0  0  0
 11 17  1  0  0  0  0
 11 16  2  0  0  0  0
 12 13  2  0  0  0  0
 13 15  1  0  0  0  0
 15 14  1  0  0  0  0
 16 18  1  0  0  0  0
 17  1  1  6  0  0  0
 17 12  1  0  0  0  0
 18 15  2  0  0  0  0
 19 24  2  0  0  0  0
 19 23  1  0  0  0  0
 20 21  1  0  0  0  0
 22 21  2  0  0  0  0
 23 20  2  0  0  0  0
 24 22  1  0  0  0  0
 25 26  1  0  0  0  0
 26 19  1  0  0  0  0
M  END
>  <MODEL>
9

>  <REMARK>
 VINA RESULT:      -7.7      4.253      7.253
  Name = 
  4 active torsions:
  status: ('A' for Active; 'I' for Inactive)
    1  A    between atoms: C_2  and  O_11
    2  A    between atoms: C_7  and  C_24
    3  A    between atoms: C_10  and  C_24
    4  A    between atoms: C_22  and  C_24
                            x       y       z     vdW  Elec       q    Type
                         _______ _______ _______ _____ _____    ______ ____

>  <TORSDO>
F 4

$$$$
