=
 OpenBabel10232410033D

 28 32  0  0  1  0  0  0  0  0999 V2000
  190.2160  176.4630  143.8580 C   0  0  0  0  0  0  0  0  0  0  0  0
  185.3670  177.8830  143.2770 C   0  0  0  0  0  3  0  0  0  0  0  0
  188.9180  178.0680  148.3410 N   0  0  0  0  0  1  0  0  0  0  0  0
  184.6190  178.2850  145.6950 C   0  0  2  0  0  3  0  0  0  0  0  0
  186.9700  177.7580  145.1320 C   0  0  0  0  0  0  0  0  0  0  0  0
  183.2750  179.0710  143.7710 C   0  0  0  0  0  0  0  0  0  0  0  0
  185.7270  177.9990  144.7010 C   0  0  1  0  0  3  0  0  0  0  0  0
  186.3150  178.7220  147.3790 C   0  0  0  0  0  3  0  0  0  0  0  0
  183.4970  179.0840  145.0920 C   0  0  0  0  0  3  0  0  0  0  0  0
  189.5740  177.2110  146.0730 C   0  0  0  0  0  0  0  0  0  0  0  0
  187.9550  177.2760  144.2630 O   0  0  0  0  0  0  0  0  0  0  0  0
  185.0970  178.8790  146.9490 N   0  0  0  0  0  0  0  0  0  0  0  0
  191.7820  176.4170  145.6960 C   0  0  0  0  0  3  0  0  0  0  0  0
  188.5590  177.7760  146.9900 C   0  0  0  0  0  0  0  0  0  0  0  0
  190.8280  176.9270  146.5210 N   0  0  0  0  0  0  0  0  0  0  0  0
  182.2120  179.7470  143.2670 F   0  0  0  0  0  0  0  0  0  0  0  0
  184.2030  178.3810  142.8460 C   0  0  0  0  0  3  0  0  0  0  0  0
  187.3180  178.0350  146.5450 C   0  0  0  0  0  0  0  0  0  0  0  0
  191.4920  176.1760  144.3520 C   0  0  0  0  0  3  0  0  0  0  0  0
  189.2430  176.9820  144.7250 C   0  0  1  0  0  3  0  0  0  0  0  0
  189.9040  176.2060  142.4050 C   0  0  0  0  0  2  0  0  0  0  0  0
  190.1520  177.3550  141.5170 N   0  0  0  0  0  0  0  0  0  0  0  0
  190.1540  177.4160  139.0990 C   0  0  1  0  0  3  0  0  0  0  0  0
  188.8890  177.9320  141.0650 C   0  0  0  0  0  2  0  0  0  0  0  0
  192.2850  177.5710  140.3630 C   0  0  0  0  0  1  0  0  0  0  0  0
  190.9050  176.9450  140.3300 C   0  0  1  0  0  3  0  0  0  0  0  0
  189.5630  176.2700  138.4290 N   0  0  0  0  0  1  0  0  0  0  0  0
  189.0610  178.3170  139.6160 C   0  0  0  0  0  2  0  0  0  0  0  0
  1 19  2  0  0  0  0
  4  9  1  6  0  0  0
  4 12  1  0  0  0  0
  5 18  2  0  0  0  0
  6  9  2  0  0  0  0
  7  2  1  1  0  0  0
  7  5  1  0  0  0  0
  7  4  1  0  0  0  0
 10 15  1  0  0  0  0
 10 14  2  0  0  0  0
 11 20  1  0  0  0  0
 11  5  1  0  0  0  0
 12  8  2  0  0  0  0
 13 15  2  0  0  0  0
 14  3  1  0  0  0  0
 16  6  1  0  0  0  0
 17  2  2  0  0  0  0
 17  6  1  0  0  0  0
 18 14  1  0  0  0  0
 18  8  1  0  0  0  0
 19 13  1  0  0  0  0
 20  1  1  6  0  0  0
 20 10  1  0  0  0  0
 21  1  1  0  0  0  0
 22 21  1  0  0  0  0
 23 27  1  1  0  0  0
 23 28  1  0  0  0  0
 23 26  1  0  0  0  0
 24 22  1  0  0  0  0
 26 25  1  1  0  0  0
 26 22  1  0  0  0  0
 28 24  1  0  0  0  0
M  END
>  <MODEL>
1

>  <REMARK>
 VINA RESULT:     -11.1      0.000      0.000
  Name = 
  2 active torsions:
  status: ('A' for Active; 'I' for Inactive)
    1  A    between atoms: C_1  and  C_2
    2  A    between atoms: C_2  and  N_3
                            x       y       z     vdW  Elec       q    Type
                         _______ _______ _______ _____ _____    ______ ____

>  <TORSDO>
F 2

$$$$
=
 OpenBabel10232410033D

 28 32  0  0  1  0  0  0  0  0999 V2000
  189.9690  177.4910  140.6400 C   0  0  0  0  0  0  0  0  0  0  0  0
  185.6500  178.1020  143.2540 C   0  0  0  0  0  3  0  0  0  0  0  0
  191.4210  177.3470  145.3550 N   0  0  0  0  0  1  0  0  0  0  0  0
  186.3830  177.5840  145.6550 C   0  0  2  0  0  3  0  0  0  0  0  0
  188.0110  177.7010  143.7950 C   0  0  0  0  0  0  0  0  0  0  0  0
  184.2130  178.6700  145.1650 C   0  0  0  0  0  0  0  0  0  0  0  0
  186.7440  177.8320  144.2040 C   0  0  1  0  0  3  0  0  0  0  0  0
  188.7380  177.7780  146.2190 C   0  0  0  0  0  3  0  0  0  0  0  0
  185.1330  178.3100  146.0690 C   0  0  0  0  0  3  0  0  0  0  0  0
  190.6850  177.3780  142.9530 C   0  0  0  0  0  0  0  0  0  0  0  0
  188.3350  177.7060  142.4340 O   0  0  0  0  0  0  0  0  0  0  0  0
  187.4910  177.8330  146.5850 N   0  0  0  0  0  0  0  0  0  0  0  0
  192.2910  177.1630  141.2160 C   0  0  0  0  0  3  0  0  0  0  0  0
  190.3650  177.4300  144.3980 C   0  0  0  0  0  0  0  0  0  0  0  0
  191.9690  177.2040  142.5360 N   0  0  0  0  0  0  0  0  0  0  0  0
  183.0650  179.2610  145.5790 F   0  0  0  0  0  0  0  0  0  0  0  0
  184.4540  178.4860  143.7150 C   0  0  0  0  0  3  0  0  0  0  0  0
  189.0920  177.5820  144.8000 C   0  0  0  0  0  0  0  0  0  0  0  0
  191.2970  177.3050  140.2460 C   0  0  0  0  0  3  0  0  0  0  0  0
  189.6540  177.5240  142.0070 C   0  0  1  0  0  3  0  0  0  0  0  0
  188.8960  177.6490  139.5920 C   0  0  0  0  0  2  0  0  0  0  0  0
  189.3610  177.4460  138.2090 N   0  0  0  0  0  0  0  0  0  0  0  0
  188.1140  176.6230  136.3070 C   0  0  1  0  0  3  0  0  0  0  0  0
  188.9850  178.5820  137.3730 C   0  0  0  0  0  2  0  0  0  0  0  0
  189.8340  175.2000  137.3950 C   0  0  0  0  0  1  0  0  0  0  0  0
  188.7600  176.2450  137.6270 C   0  0  1  0  0  3  0  0  0  0  0  0
  186.6690  176.5930  136.4530 N   0  0  0  0  0  1  0  0  0  0  0  0
  188.5640  178.0350  136.0300 C   0  0  0  0  0  2  0  0  0  0  0  0
  2 17  2  0  0  0  0
  4  9  1  1  0  0  0
  4 12  1  0  0  0  0
  5  7  1  0  0  0  0
  5 18  2  0  0  0  0
  6 16  1  0  0  0  0
  6  9  2  0  0  0  0
  7  2  1  6  0  0  0
  7  4  1  0  0  0  0
  8 12  2  0  0  0  0
 10 14  2  0  0  0  0
 11  5  1  0  0  0  0
 13 15  2  0  0  0  0
 14 18  1  0  0  0  0
 14  3  1  0  0  0  0
 15 10  1  0  0  0  0
 17  6  1  0  0  0  0
 18  8  1  0  0  0  0
 19  1  2  0  0  0  0
 19 13  1  0  0  0  0
 20  1  1  1  0  0  0
 20 11  1  0  0  0  0
 20 10  1  0  0  0  0
 21  1  1  0  0  0  0
 22 21  1  0  0  0  0
 23 27  1  1  0  0  0
 23 26  1  0  0  0  0
 24 22  1  0  0  0  0
 26 25  1  6  0  0  0
 26 22  1  0  0  0  0
 28 23  1  0  0  0  0
 28 24  1  0  0  0  0
M  END
>  <MODEL>
2

>  <REMARK>
 VINA RESULT:      -9.7      1.830      3.091
  Name = 
  2 active torsions:
  status: ('A' for Active; 'I' for Inactive)
    1  A    between atoms: C_1  and  C_2
    2  A    between atoms: C_2  and  N_3
                            x       y       z     vdW  Elec       q    Type
                         _______ _______ _______ _____ _____    ______ ____

>  <TORSDO>
F 2

$$$$
=
 OpenBabel10232410033D

 28 32  0  0  1  0  0  0  0  0999 V2000
  184.2540  178.4040  142.6710 C   0  0  0  0  0  0  0  0  0  0  0  0
  189.1080  176.8980  142.8660 C   0  0  0  0  0  3  0  0  0  0  0  0
  185.4120  178.7930  147.4530 N   0  0  0  0  0  1  0  0  0  0  0  0
  189.7830  177.5310  145.2570 C   0  0  2  0  0  3  0  0  0  0  0  0
  187.4530  177.7670  144.4590 C   0  0  0  0  0  0  0  0  0  0  0  0
  191.1770  176.0300  143.8660 C   0  0  0  0  0  0  0  0  0  0  0  0
  188.7070  177.3760  144.2010 C   0  0  1  0  0  3  0  0  0  0  0  0
  188.0370  177.8160  146.9210 C   0  0  0  0  0  3  0  0  0  0  0  0
  190.9160  176.5610  145.0680 C   0  0  0  0  0  3  0  0  0  0  0  0
  184.8270  178.6380  145.0150 C   0  0  0  0  0  0  0  0  0  0  0  0
  186.4970  177.8420  143.4400 O   0  0  0  0  0  0  0  0  0  0  0  0
  189.2660  177.5030  146.6300 N   0  0  0  0  0  0  0  0  0  0  0  0
  182.6370  179.1930  144.2810 C   0  0  0  0  0  3  0  0  0  0  0  0
  185.8120  178.5060  146.1130 C   0  0  0  0  0  0  0  0  0  0  0  0
  183.5630  179.0740  145.2700 N   0  0  0  0  0  0  0  0  0  0  0  0
  192.2490  175.2130  143.7160 F   0  0  0  0  0  0  0  0  0  0  0  0
  190.2810  176.2740  142.7130 C   0  0  0  0  0  3  0  0  0  0  0  0
  187.0630  178.0940  145.8490 C   0  0  0  0  0  0  0  0  0  0  0  0
  182.9670  178.8620  142.9660 C   0  0  0  0  0  3  0  0  0  0  0  0
  185.1990  178.2930  143.7020 C   0  0  1  0  0  3  0  0  0  0  0  0
  184.6090  178.0420  141.2500 C   0  0  0  0  0  2  0  0  0  0  0  0
  183.4880  178.1320  140.3000 N   0  0  0  0  0  0  0  0  0  0  0  0
  183.5320  177.9100  137.8930 C   0  0  1  0  0  3  0  0  0  0  0  0
  183.0090  176.7990  139.9480 C   0  0  0  0  0  2  0  0  0  0  0  0
  183.1920  180.1330  138.9440 C   0  0  0  0  0  1  0  0  0  0  0  0
  183.9020  178.7980  139.0650 C   0  0  1  0  0  3  0  0  0  0  0  0
  184.7390  177.3360  137.3250 N   0  0  0  0  0  1  0  0  0  0  0  0
  182.6770  176.8120  138.4750 C   0  0  0  0  0  2  0  0  0  0  0  0
  1 19  2  0  0  0  0
  4  9  1  1  0  0  0
  4 12  1  0  0  0  0
  5 18  2  0  0  0  0
  6  9  2  0  0  0  0
  7  2  1  6  0  0  0
  7  5  1  0  0  0  0
  7  4  1  0  0  0  0
 10 15  1  0  0  0  0
 10 14  2  0  0  0  0
 11 20  1  0  0  0  0
 11  5  1  0  0  0  0
 12  8  2  0  0  0  0
 13 15  2  0  0  0  0
 14  3  1  0  0  0  0
 16  6  1  0  0  0  0
 17  2  2  0  0  0  0
 17  6  1  0  0  0  0
 18 14  1  0  0  0  0
 18  8  1  0  0  0  0
 19 13  1  0  0  0  0
 20  1  1  1  0  0  0
 20 10  1  0  0  0  0
 21  1  1  0  0  0  0
 22 21  1  0  0  0  0
 23 27  1  1  0  0  0
 23 28  1  0  0  0  0
 23 26  1  0  0  0  0
 24 22  1  0  0  0  0
 26 25  1  6  0  0  0
 26 22  1  0  0  0  0
 28 24  1  0  0  0  0
M  END
>  <MODEL>
3

>  <REMARK>
 VINA RESULT:      -9.7      3.331      6.254
  Name = 
  2 active torsions:
  status: ('A' for Active; 'I' for Inactive)
    1  A    between atoms: C_1  and  C_2
    2  A    between atoms: C_2  and  N_3
                            x       y       z     vdW  Elec       q    Type
                         _______ _______ _______ _____ _____    ______ ____

>  <TORSDO>
F 2

$$$$
=
 OpenBabel10232410033D

 28 32  0  0  1  0  0  0  0  0999 V2000
  188.4390  177.0250  143.7780 C   0  0  0  0  0  0  0  0  0  0  0  0
  184.2990  177.8820  140.9500 C   0  0  0  0  0  3  0  0  0  0  0  0
  185.2920  179.1620  146.9220 N   0  0  0  0  0  1  0  0  0  0  0  0
  182.5670  178.5740  142.7080 C   0  0  2  0  0  3  0  0  0  0  0  0
  184.9390  178.1890  143.3010 C   0  0  0  0  0  0  0  0  0  0  0  0
  182.1790  178.9310  140.2890 C   0  0  0  0  0  0  0  0  0  0  0  0
  184.0020  178.2450  142.3470 C   0  0  1  0  0  3  0  0  0  0  0  0
  183.3540  179.4180  144.8460 C   0  0  0  0  0  3  0  0  0  0  0  0
  181.8050  179.1640  141.5540 C   0  0  0  0  0  3  0  0  0  0  0  0
  186.8840  178.0360  145.3390 C   0  0  0  0  0  0  0  0  0  0  0  0
  186.2120  177.6750  143.0330 O   0  0  0  0  0  0  0  0  0  0  0  0
  182.4410  179.3930  143.9190 N   0  0  0  0  0  0  0  0  0  0  0  0
  189.0510  177.4040  146.0830 C   0  0  0  0  0  3  0  0  0  0  0  0
  185.5610  178.6360  145.6220 C   0  0  0  0  0  0  0  0  0  0  0  0
  187.8240  177.9410  146.3200 N   0  0  0  0  0  0  0  0  0  0  0  0
  181.4290  179.4200  139.2710 F   0  0  0  0  0  0  0  0  0  0  0  0
  183.4290  178.1980  139.9850 C   0  0  0  0  0  3  0  0  0  0  0  0
  184.6330  178.7080  144.6530 C   0  0  0  0  0  0  0  0  0  0  0  0
  189.3780  176.9360  144.8090 C   0  0  0  0  0  3  0  0  0  0  0  0
  187.1760  177.5760  144.0420 C   0  0  1  0  0  3  0  0  0  0  0  0
  188.7950  176.5230  142.4000 C   0  0  0  0  0  2  0  0  0  0  0  0
  189.4850  177.5090  141.5530 N   0  0  0  0  0  0  0  0  0  0  0  0
  190.6940  177.1390  139.4910 C   0  0  1  0  0  3  0  0  0  0  0  0
  188.6330  177.9080  140.4360 C   0  0  0  0  0  2  0  0  0  0  0  0
  191.9150  177.6630  141.5870 C   0  0  0  0  0  1  0  0  0  0  0  0
  190.7170  176.9480  140.9950 C   0  0  1  0  0  3  0  0  0  0  0  0
  190.4820  175.8540  138.8460 N   0  0  0  0  0  1  0  0  0  0  0  0
  189.5150  178.0390  139.2180 C   0  0  0  0  0  2  0  0  0  0  0  0
  1 20  1  0  0  0  0
  1 19  2  0  0  0  0
  4  9  1  6  0  0  0
  4 12  1  0  0  0  0
  5 18  2  0  0  0  0
  6  9  2  0  0  0  0
  7  2  1  1  0  0  0
  7  4  1  0  0  0  0
  7  5  1  0  0  0  0
 10 14  2  0  0  0  0
 10 15  1  0  0  0  0
 11  5  1  0  0  0  0
 12  8  2  0  0  0  0
 13 15  2  0  0  0  0
 14  3  1  0  0  0  0
 16  6  1  0  0  0  0
 17  6  1  0  0  0  0
 17  2  2  0  0  0  0
 18  8  1  0  0  0  0
 18 14  1  0  0  0  0
 19 13  1  0  0  0  0
 20 11  1  6  0  0  0
 20 10  1  0  0  0  0
 21  1  1  0  0  0  0
 22 21  1  0  0  0  0
 23 27  1  6  0  0  0
 23 26  1  0  0  0  0
 24 22  1  0  0  0  0
 26 22  1  0  0  0  0
 26 25  1  1  0  0  0
 28 23  1  0  0  0  0
 28 24  1  0  0  0  0
M  END
>  <MODEL>
4

>  <REMARK>
 VINA RESULT:      -9.4      1.780      2.763
  Name = 
  2 active torsions:
  status: ('A' for Active; 'I' for Inactive)
    1  A    between atoms: C_1  and  C_2
    2  A    between atoms: C_2  and  N_3
                            x       y       z     vdW  Elec       q    Type
                         _______ _______ _______ _____ _____    ______ ____

>  <TORSDO>
F 2

$$$$
=
 OpenBabel10232410033D

 28 32  0  0  1  0  0  0  0  0999 V2000
  187.1930  178.4110  141.1000 C   0  0  0  0  0  0  0  0  0  0  0  0
  190.6140  177.1460  144.6450 C   0  0  0  0  0  3  0  0  0  0  0  0
  184.6020  178.4570  145.3000 N   0  0  0  0  0  1  0  0  0  0  0  0
  189.3450  177.6100  146.8230 C   0  0  2  0  0  3  0  0  0  0  0  0
  188.2450  177.7920  144.6130 C   0  0  0  0  0  0  0  0  0  0  0  0
  191.4480  176.3050  146.7970 C   0  0  0  0  0  0  0  0  0  0  0  0
  189.3460  177.4890  145.3110 C   0  0  1  0  0  3  0  0  0  0  0  0
  186.9170  177.6640  146.7640 C   0  0  0  0  0  3  0  0  0  0  0  0
  190.3670  176.7190  147.4710 C   0  0  0  0  0  3  0  0  0  0  0  0
  185.9230  178.4760  143.1630 C   0  0  0  0  0  0  0  0  0  0  0  0
  188.2830  177.9030  143.2190 O   0  0  0  0  0  0  0  0  0  0  0  0
  188.0160  177.4410  147.4230 N   0  0  0  0  0  0  0  0  0  0  0  0
  184.8460  178.9780  141.1060 C   0  0  0  0  0  3  0  0  0  0  0  0
  185.8550  178.3040  144.6320 C   0  0  0  0  0  0  0  0  0  0  0  0
  184.8120  178.8240  142.4570 N   0  0  0  0  0  2  0  0  0  0  0  0
  192.3860  175.5600  147.4320 F   0  0  0  0  0  0  0  0  0  0  0  0
  191.6070  176.5980  145.3540 C   0  0  0  0  0  3  0  0  0  0  0  0
  186.9600  177.9800  145.3240 C   0  0  0  0  0  0  0  0  0  0  0  0
  186.0360  178.7750  140.4050 C   0  0  0  0  0  3  0  0  0  0  0  0
  187.1420  178.2630  142.4940 C   0  0  0  0  0  0  0  0  0  0  0  0
  188.4780  178.1870  140.3420 C   0  0  0  0  0  2  0  0  0  0  0  0
  188.2980  177.9020  138.9080 N   0  0  0  0  0  0  0  0  0  0  0  0
  189.9660  177.2600  137.2790 C   0  0  1  0  0  3  0  0  0  0  0  0
  188.1980  176.4630  138.6830 C   0  0  0  0  0  2  0  0  0  0  0  0
  188.9820  179.5380  137.2400 C   0  0  0  0  0  1  0  0  0  0  0  0
  189.4340  178.3970  138.1300 C   0  0  1  0  0  3  0  0  0  0  0  0
  191.2440  176.8190  137.8110 N   0  0  0  0  0  1  0  0  0  0  0  0
  188.9540  176.1500  137.4150 C   0  0  0  0  0  2  0  0  0  0  0  0
  1 20  2  0  0  0  0
  2 17  2  0  0  0  0
  4 12  1  0  0  0  0
  4  9  1  1  0  0  0
  5  7  1  0  0  0  0
  5 18  2  0  0  0  0
  6 16  1  0  0  0  0
  6  9  2  0  0  0  0
  7  2  1  6  0  0  0
  7  4  1  0  0  0  0
  8 12  2  0  0  0  0
 10 14  2  0  0  0  0
 11  5  1  0  0  0  0
 13 15  1  0  0  0  0
 14  3  1  0  0  0  0
 14 18  1  0  0  0  0
 15 10  1  0  0  0  0
 17  6  1  0  0  0  0
 18  8  1  0  0  0  0
 19  1  1  0  0  0  0
 19 13  2  0  0  0  0
 20 10  1  0  0  0  0
 20 11  1  0  0  0  0
 21  1  1  0  0  0  0
 22 21  1  0  0  0  0
 23 28  1  0  0  0  0
 23 27  1  1  0  0  0
 23 26  1  0  0  0  0
 24 22  1  0  0  0  0
 26 25  1  6  0  0  0
 26 22  1  0  0  0  0
 28 24  1  0  0  0  0
M  END
>  <MODEL>
5

>  <REMARK>
 VINA RESULT:      -9.3      2.852      5.311
  Name = 
  2 active torsions:
  status: ('A' for Active; 'I' for Inactive)
    1  A    between atoms: C_1  and  C_2
    2  A    between atoms: C_2  and  N_3
                            x       y       z     vdW  Elec       q    Type
                         _______ _______ _______ _____ _____    ______ ____

>  <TORSDO>
F 2

$$$$
=
 OpenBabel10232410033D

 28 32  0  0  1  0  0  0  0  0999 V2000
  184.7760  178.8220  144.2320 C   0  0  0  0  0  0  0  0  0  0  0  0
  187.9170  178.1360  140.2920 C   0  0  0  0  0  3  0  0  0  0  0  0
  188.8010  176.8240  146.2740 N   0  0  0  0  0  1  0  0  0  0  0  0
  190.1210  177.5200  141.4470 C   0  0  2  0  0  3  0  0  0  0  0  0
  188.0200  177.8060  142.7230 C   0  0  0  0  0  0  0  0  0  0  0  0
  189.7860  177.1770  139.0190 C   0  0  0  0  0  0  0  0  0  0  0  0
  188.6310  177.7880  141.5330 C   0  0  1  0  0  3  0  0  0  0  0  0
  190.0410  176.6480  143.7130 C   0  0  0  0  0  3  0  0  0  0  0  0
  190.5280  176.9610  140.1120 C   0  0  0  0  0  3  0  0  0  0  0  0
  186.7650  177.8800  145.2490 C   0  0  0  0  0  0  0  0  0  0  0  0
  186.7040  178.2650  142.8510 O   0  0  0  0  0  0  0  0  0  0  0  0
  190.6350  176.7090  142.5570 N   0  0  0  0  0  0  0  0  0  0  0  0
  184.8940  178.4210  146.6110 C   0  0  0  0  0  3  0  0  0  0  0  0
  188.1360  177.3360  145.1190 C   0  0  0  0  0  0  0  0  0  0  0  0
  186.1570  177.9360  146.4660 N   0  0  0  0  0  0  0  0  0  0  0  0
  190.2180  176.7180  137.8180 F   0  0  0  0  0  0  0  0  0  0  0  0
  188.4730  177.8560  139.1080 C   0  0  0  0  0  3  0  0  0  0  0  0
  188.7350  177.3020  143.9170 C   0  0  0  0  0  0  0  0  0  0  0  0
  184.1830  178.8730  145.4970 C   0  0  0  0  0  3  0  0  0  0  0  0
  186.0810  178.3260  144.1030 C   0  0  1  0  0  3  0  0  0  0  0  0
  184.0060  179.3070  143.0290 C   0  0  0  0  0  2  0  0  0  0  0  0
  182.8920  178.4320  142.6270 N   0  0  0  0  0  0  0  0  0  0  0  0
  180.8500  179.0270  141.4750 C   0  0  1  0  0  3  0  0  0  0  0  0
  183.0220  178.0520  141.2230 C   0  0  0  0  0  2  0  0  0  0  0  0
  180.8090  178.4460  143.8880 C   0  0  0  0  0  1  0  0  0  0  0  0
  181.6070  179.1150  142.7860 C   0  0  1  0  0  3  0  0  0  0  0  0
  180.8290  180.3360  140.8430 N   0  0  0  0  0  1  0  0  0  0  0  0
  181.6390  178.0670  140.6200 C   0  0  0  0  0  2  0  0  0  0  0  0
  1 19  2  0  0  0  0
  4  9  1  6  0  0  0
  4  7  1  0  0  0  0
  4 12  1  0  0  0  0
  5 11  1  0  0  0  0
  5 18  2  0  0  0  0
  6 17  1  0  0  0  0
  6  9  2  0  0  0  0
  7  2  1  1  0  0  0
  7  5  1  0  0  0  0
  8 18  1  0  0  0  0
 10 15  1  0  0  0  0
 12  8  2  0  0  0  0
 14 10  2  0  0  0  0
 14  3  1  0  0  0  0
 15 13  2  0  0  0  0
 16  6  1  0  0  0  0
 17  2  2  0  0  0  0
 18 14  1  0  0  0  0
 19 13  1  0  0  0  0
 20 11  1  6  0  0  0
 20  1  1  0  0  0  0
 20 10  1  0  0  0  0
 21  1  1  0  0  0  0
 22 26  1  0  0  0  0
 22 21  1  0  0  0  0
 23 27  1  6  0  0  0
 23 26  1  0  0  0  0
 24 22  1  0  0  0  0
 26 25  1  1  0  0  0
 28 24  1  0  0  0  0
 28 23  1  0  0  0  0
M  END
>  <MODEL>
6

>  <REMARK>
 VINA RESULT:      -9.1      2.989      6.820
  Name = 
  2 active torsions:
  status: ('A' for Active; 'I' for Inactive)
    1  A    between atoms: C_1  and  C_2
    2  A    between atoms: C_2  and  N_3
                            x       y       z     vdW  Elec       q    Type
                         _______ _______ _______ _____ _____    ______ ____

>  <TORSDO>
F 2

$$$$
=
 OpenBabel10232410033D

 28 32  0  0  1  0  0  0  0  0999 V2000
  186.3160  177.7630  142.7260 C   0  0  0  0  0  0  0  0  0  0  0  0
  190.5720  176.6830  145.2900 C   0  0  0  0  0  3  0  0  0  0  0  0
  185.2570  179.0770  147.3630 N   0  0  0  0  0  1  0  0  0  0  0  0
  190.1340  177.7770  147.5670 C   0  0  2  0  0  3  0  0  0  0  0  0
  188.3950  177.6930  145.8090 C   0  0  0  0  0  0  0  0  0  0  0  0
  191.9820  176.1630  147.2340 C   0  0  0  0  0  0  0  0  0  0  0  0
  189.6300  177.3580  146.2000 C   0  0  1  0  0  3  0  0  0  0  0  0
  187.8370  178.2200  148.2200 C   0  0  0  0  0  3  0  0  0  0  0  0
  191.2250  176.8770  148.0780 C   0  0  0  0  0  3  0  0  0  0  0  0
  185.8020  178.4500  144.9930 C   0  0  0  0  0  0  0  0  0  0  0  0
  187.9850  177.5160  144.4820 O   0  0  0  0  0  0  0  0  0  0  0  0
  189.0660  177.9540  148.5560 N   0  0  0  0  0  0  0  0  0  0  0  0
  184.1630  178.7010  143.2910 C   0  0  0  0  0  3  0  0  0  0  0  0
  186.2020  178.5880  146.4120 C   0  0  0  0  0  0  0  0  0  0  0  0
  184.5590  178.8280  144.5860 N   0  0  0  0  0  0  0  0  0  0  0  0
  193.0020  175.4150  147.7230 F   0  0  0  0  0  0  0  0  0  0  0  0
  191.6860  176.1310  145.7830 C   0  0  0  0  0  3  0  0  0  0  0  0
  187.4370  178.2310  146.8010 C   0  0  0  0  0  0  0  0  0  0  0  0
  185.0350  178.1680  142.3390 C   0  0  0  0  0  3  0  0  0  0  0  0
  186.7090  177.9080  144.0640 C   0  0  1  0  0  3  0  0  0  0  0  0
  187.2550  177.1830  141.6980 C   0  0  0  0  0  2  0  0  0  0  0  0
  188.2540  178.1340  141.1800 N   0  0  0  0  0  0  0  0  0  0  0  0
  190.2810  177.6650  139.9480 C   0  0  1  0  0  3  0  0  0  0  0  0
  188.0120  178.4070  139.7670 C   0  0  0  0  0  2  0  0  0  0  0  0
  190.3900  178.4020  142.3160 C   0  0  0  0  0  1  0  0  0  0  0  0
  189.6060  177.5900  141.3040 C   0  0  1  0  0  3  0  0  0  0  0  0
  190.3990  176.3270  139.3940 N   0  0  0  0  0  1  0  0  0  0  0  0
  189.3570  178.4880  139.0850 C   0  0  0  0  0  2  0  0  0  0  0  0
  2 17  2  0  0  0  0
  4  9  1  1  0  0  0
  4 12  1  0  0  0  0
  5  7  1  0  0  0  0
  5 18  2  0  0  0  0
  6 16  1  0  0  0  0
  6  9  2  0  0  0  0
  7  2  1  6  0  0  0
  7  4  1  0  0  0  0
  8 12  2  0  0  0  0
 10 14  2  0  0  0  0
 11  5  1  0  0  0  0
 13 15  2  0  0  0  0
 14 18  1  0  0  0  0
 14  3  1  0  0  0  0
 15 10  1  0  0  0  0
 17  6  1  0  0  0  0
 18  8  1  0  0  0  0
 19  1  2  0  0  0  0
 19 13  1  0  0  0  0
 20  1  1  1  0  0  0
 20 11  1  0  0  0  0
 20 10  1  0  0  0  0
 21  1  1  0  0  0  0
 22 26  1  0  0  0  0
 22 21  1  0  0  0  0
 23 27  1  6  0  0  0
 23 26  1  0  0  0  0
 24 22  1  0  0  0  0
 26 25  1  1  0  0  0
 28 24  1  0  0  0  0
 28 23  1  0  0  0  0
M  END
>  <MODEL>
7

>  <REMARK>
 VINA RESULT:      -9.0      2.673      5.223
  Name = 
  2 active torsions:
  status: ('A' for Active; 'I' for Inactive)
    1  A    between atoms: C_1  and  C_2
    2  A    between atoms: C_2  and  N_3
                            x       y       z     vdW  Elec       q    Type
                         _______ _______ _______ _____ _____    ______ ____

>  <TORSDO>
F 2

$$$$
=
 OpenBabel10232410033D

 28 32  0  0  1  0  0  0  0  0999 V2000
  186.6340  178.4030  140.2920 C   0  0  0  0  0  0  0  0  0  0  0  0
  186.7340  178.0370  145.3640 C   0  0  0  0  0  3  0  0  0  0  0  0
  191.3070  177.1690  141.2880 N   0  0  0  0  0  1  0  0  0  0  0  0
  189.0290  176.9790  145.7930 C   0  0  2  0  0  3  0  0  0  0  0  0
  188.3210  177.6740  143.5260 C   0  0  0  0  0  0  0  0  0  0  0  0
  187.7080  178.0030  147.6190 C   0  0  0  0  0  0  0  0  0  0  0  0
  188.0400  177.6100  144.8320 C   0  0  1  0  0  3  0  0  0  0  0  0
  190.7410  177.1840  144.0820 C   0  0  0  0  0  3  0  0  0  0  0  0
  188.8710  177.4900  147.1980 C   0  0  0  0  0  3  0  0  0  0  0  0
  188.9210  177.7570  140.7700 C   0  0  0  0  0  0  0  0  0  0  0  0
  187.3440  178.0450  142.5950 O   0  0  0  0  0  0  0  0  0  0  0  0
  190.4210  177.0590  145.3370 N   0  0  0  0  0  0  0  0  0  0  0  0
  188.2430  178.0990  138.5180 C   0  0  0  0  0  3  0  0  0  0  0  0
  189.9790  177.4200  141.7480 C   0  0  0  0  0  0  0  0  0  0  0  0
  189.1950  177.7820  139.4360 N   0  0  0  0  0  2  0  0  0  0  0  0
  187.5780  178.3900  148.9120 F   0  0  0  0  0  0  0  0  0  0  0  0
  186.5800  178.2090  146.6810 C   0  0  0  0  0  3  0  0  0  0  0  0
  189.6950  177.3780  143.0610 C   0  0  0  0  0  0  0  0  0  0  0  0
  186.9470  178.4130  138.9300 C   0  0  0  0  0  3  0  0  0  0  0  0
  187.6260  178.0680  141.2250 C   0  0  0  0  0  0  0  0  0  0  0  0
  185.2340  178.7480  140.7370 C   0  0  0  0  0  2  0  0  0  0  0  0
  184.2010  178.5460  139.7070 N   0  0  0  0  0  0  0  0  0  0  0  0
  181.7960  178.5930  139.9580 C   0  0  1  0  0  3  0  0  0  0  0  0
  183.7080  179.8320  139.2220 C   0  0  0  0  0  2  0  0  0  0  0  0
  182.9810  176.4420  139.5940 C   0  0  0  0  0  1  0  0  0  0  0  0
  183.0600  177.8070  140.2490 C   0  0  1  0  0  3  0  0  0  0  0  0
  181.2920  179.1680  141.1930 N   0  0  0  0  0  1  0  0  0  0  0  0
  182.2170  179.6980  139.0230 C   0  0  0  0  0  2  0  0  0  0  0  0
  1 21  1  0  0  0  0
  1 20  2  0  0  0  0
  2 17  2  0  0  0  0
  3 14  1  0  0  0  0
  4  9  1  1  0  0  0
  5  7  1  0  0  0  0
  6 16  1  0  0  0  0
  7  2  1  6  0  0  0
  7  4  1  0  0  0  0
  8 12  2  0  0  0  0
  9  6  2  0  0  0  0
 10 20  1  0  0  0  0
 10 14  2  0  0  0  0
 11  5  1  0  0  0  0
 12  4  1  0  0  0  0
 13 19  2  0  0  0  0
 13 15  1  0  0  0  0
 14 18  1  0  0  0  0
 15 10  1  0  0  0  0
 17  6  1  0  0  0  0
 18  5  2  0  0  0  0
 18  8  1  0  0  0  0
 19  1  1  0  0  0  0
 20 11  1  0  0  0  0
 22 26  1  0  0  0  0
 22 21  1  0  0  0  0
 23 26  1  0  0  0  0
 23 27  1  1  0  0  0
 24 22  1  0  0  0  0
 26 25  1  6  0  0  0
 28 24  1  0  0  0  0
 28 23  1  0  0  0  0
M  END
>  <MODEL>
8

>  <REMARK>
 VINA RESULT:      -8.8      3.056      6.204
  Name = 
  2 active torsions:
  status: ('A' for Active; 'I' for Inactive)
    1  A    between atoms: C_1  and  C_2
    2  A    between atoms: C_2  and  N_3
                            x       y       z     vdW  Elec       q    Type
                         _______ _______ _______ _____ _____    ______ ____

>  <TORSDO>
F 2

$$$$
=
 OpenBabel10232410033D

 28 32  0  0  1  0  0  0  0  0999 V2000
  187.0950  178.4160  140.0610 C   0  0  0  0  0  0  0  0  0  0  0  0
  190.5290  177.4080  143.6730 C   0  0  0  0  0  3  0  0  0  0  0  0
  184.4390  178.3570  144.2200 N   0  0  0  0  0  1  0  0  0  0  0  0
  189.2000  177.8220  145.8260 C   0  0  2  0  0  3  0  0  0  0  0  0
  188.1260  177.9070  143.5980 C   0  0  0  0  0  0  0  0  0  0  0  0
  191.3790  176.6480  145.8490 C   0  0  0  0  0  0  0  0  0  0  0  0
  189.2320  177.6820  144.3160 C   0  0  1  0  0  3  0  0  0  0  0  0
  186.7740  177.7260  145.7300 C   0  0  0  0  0  3  0  0  0  0  0  0
  190.2650  177.0030  146.5010 C   0  0  0  0  0  3  0  0  0  0  0  0
  185.7900  178.4290  142.1040 C   0  0  0  0  0  0  0  0  0  0  0  0
  188.1790  178.0030  142.2030 O   0  0  0  0  0  0  0  0  0  0  0  0
  187.8750  177.5790  146.4080 N   0  0  0  0  0  0  0  0  0  0  0  0
  184.7170  178.8380  140.0230 C   0  0  0  0  0  3  0  0  0  0  0  0
  185.7090  178.2720  143.5740 C   0  0  0  0  0  0  0  0  0  0  0  0
  184.6720  178.7000  141.3760 N   0  0  0  0  0  2  0  0  0  0  0  0
  192.3510  175.9700  146.5090 F   0  0  0  0  0  0  0  0  0  0  0  0
  191.5430  176.9310  144.4050 C   0  0  0  0  0  3  0  0  0  0  0  0
  186.8210  178.0260  144.2870 C   0  0  0  0  0  0  0  0  0  0  0  0
  185.9290  178.7000  139.3440 C   0  0  0  0  0  3  0  0  0  0  0  0
  187.0300  178.2830  141.4560 C   0  0  0  0  0  0  0  0  0  0  0  0
  188.4030  178.2620  139.3250 C   0  0  0  0  0  2  0  0  0  0  0  0
  188.7590  176.8700  139.0010 N   0  0  0  0  0  0  0  0  0  0  0  0
  189.8560  176.0190  137.0210 C   0  0  1  0  0  3  0  0  0  0  0  0
  190.1610  176.6150  139.3200 C   0  0  0  0  0  2  0  0  0  0  0  0
  187.4350  175.6120  137.3910 C   0  0  0  0  0  1  0  0  0  0  0  0
  188.5700  176.6010  137.5760 C   0  0  1  0  0  3  0  0  0  0  0  0
  190.5040  177.0050  136.1740 N   0  0  0  0  0  1  0  0  0  0  0  0
  190.7220  175.7410  138.2250 C   0  0  0  0  0  2  0  0  0  0  0  0
  1 20  2  0  0  0  0
  2 17  2  0  0  0  0
  4 12  1  0  0  0  0
  4  9  1  1  0  0  0
  5 18  2  0  0  0  0
  5  7  1  0  0  0  0
  6  9  2  0  0  0  0
  6 16  1  0  0  0  0
  7  2  1  6  0  0  0
  7  4  1  0  0  0  0
  8 12  2  0  0  0  0
 10 14  2  0  0  0  0
 11  5  1  0  0  0  0
 13 15  1  0  0  0  0
 14  3  1  0  0  0  0
 14 18  1  0  0  0  0
 15 10  1  0  0  0  0
 17  6  1  0  0  0  0
 18  8  1  0  0  0  0
 19 13  2  0  0  0  0
 19  1  1  0  0  0  0
 20 10  1  0  0  0  0
 20 11  1  0  0  0  0
 21  1  1  0  0  0  0
 22 24  1  0  0  0  0
 22 21  1  0  0  0  0
 23 27  1  6  0  0  0
 23 26  1  0  0  0  0
 23 28  1  0  0  0  0
 26 25  1  1  0  0  0
 26 22  1  0  0  0  0
 28 24  1  0  0  0  0
M  END
>  <MODEL>
9

>  <REMARK>
 VINA RESULT:      -8.8      3.000      5.537
  Name = 
  2 active torsions:
  status: ('A' for Active; 'I' for Inactive)
    1  A    between atoms: C_1  and  C_2
    2  A    between atoms: C_2  and  N_3
                            x       y       z     vdW  Elec       q    Type
                         _______ _______ _______ _____ _____    ______ ____

>  <TORSDO>
F 2

$$$$
