=
 OpenBabel10222421593D

 40 46  0  0  1  0  0  0  0  0999 V2000
  191.7650  174.5400  137.3030 C   0  0  0  0  0  3  0  0  0  0  0  0
  189.4530  178.1390  142.8750 N   0  0  0  0  0  0  0  0  0  0  0  0
  191.8120  175.7000  144.0860 O   0  0  0  0  0  1  0  0  0  0  0  0
  193.0780  174.9990  137.4380 C   0  0  0  0  0  0  0  0  0  0  0  0
  189.0570  178.3630  141.4930 C   0  0  1  0  0  3  0  0  0  0  0  0
  189.9010  177.1110  139.2940 N   0  0  0  0  0  0  0  0  0  0  0  0
  194.0910  174.3440  136.8220 F   0  0  0  0  0  0  0  0  0  0  0  0
  190.7130  175.2110  137.9420 C   0  0  0  0  0  0  0  0  0  0  0  0
  189.3940  174.7470  137.8480 O   0  0  0  0  0  0  0  0  0  0  0  0
  187.0290  178.5300  139.9850 C   0  0  0  0  0  2  0  0  0  0  0  0
  188.0220  176.7850  136.2200 C   0  0  0  0  0  2  0  0  0  0  0  0
  189.8700  177.3150  140.7410 C   0  0  0  0  0  0  0  0  0  0  0  0
  192.3000  176.8100  138.8410 C   0  0  0  0  0  3  0  0  0  0  0  0
  190.9800  176.3610  138.7050 C   0  0  0  0  0  0  0  0  0  0  0  0
  188.7680  175.5860  135.6480 C   0  0  0  0  0  2  0  0  0  0  0  0
  190.9090  176.7100  144.1260 N   0  0  0  0  0  0  0  0  0  0  0  0
  190.6170  176.6300  141.5970 C   0  0  0  0  0  3  0  0  0  0  0  0
  190.3160  177.1780  142.9100 C   0  0  0  0  0  0  0  0  0  0  0  0
  188.8310  177.5990  138.4450 C   0  0  1  0  0  3  0  0  0  0  0  0
  187.7970  178.1010  139.0400 C   0  0  0  0  0  2  0  0  0  0  0  0
  193.3460  176.1300  138.2130 C   0  0  0  0  0  3  0  0  0  0  0  0
  188.9770  177.7160  136.9560 C   0  0  0  0  0  2  0  0  0  0  0  0
  187.5230  178.1860  141.3610 C   0  0  0  0  0  2  0  0  0  0  0  0
  188.7510  174.4070  136.6200 C   0  0  1  0  0  3  0  0  0  0  0  0
  191.4340  176.7680  146.5100 C   0  0  0  0  0  1  0  0  0  0  0  0
  190.5460  177.3090  145.4060 C   0  0  0  0  0  3  0  0  0  0  0  0
  189.0910  177.0230  145.7260 C   0  0  0  0  0  1  0  0  0  0  0  0
  189.3560  173.1530  135.9990 C   0  0  0  0  0  2  0  0  0  0  0  0
  187.6500  169.8940  134.8410 C   0  0  0  0  0  3  0  0  0  0  0  0
  187.0410  172.4660  135.8190 N   0  0  0  0  0  0  0  0  0  0  0  0
  186.0540  171.5120  135.5120 N   0  0  0  0  0  0  0  0  0  0  0  0
  188.6640  170.8440  135.2030 N   0  0  0  0  0  2  0  0  0  0  0  0
  186.3820  170.2500  135.0040 C   0  0  0  0  0  0  0  0  0  0  0  0
  184.6770  171.7670  135.5260 N   0  0  0  0  0  0  0  0  0  0  0  0
  185.1780  169.4990  134.6590 C   0  0  0  0  0  3  0  0  0  0  0  0
  188.2980  172.1500  135.6910 C   0  0  0  0  0  0  0  0  0  0  0  0
  184.0730  170.5230  134.9990 C   0  0  0  0  0  3  0  0  0  0  0  0
  184.2650  171.8860  136.9200 C   0  0  0  0  0  3  0  0  0  0  0  0
  184.5430  173.2930  137.4150 C   0  0  0  0  0  2  0  0  0  0  0  0
  183.1360  172.8930  137.0340 C   0  0  0  0  0  2  0  0  0  0  0  0
  1  4  2  0  0  0  0
  1  8  1  0  0  0  0
  2 18  2  0  0  0  0
  3 16  1  0  0  0  0
  4 21  1  0  0  0  0
  5 23  1  1  0  0  0
  5  2  1  0  0  0  0
  6 12  1  0  0  0  0
  7  4  1  0  0  0  0
  8 14  2  0  0  0  0
  9  8  1  0  0  0  0
 10 23  1  0  0  0  0
 11 22  1  0  0  0  0
 12  5  1  0  0  0  0
 12 17  2  0  0  0  0
 14 13  1  0  0  0  0
 14  6  1  0  0  0  0
 15 11  1  0  0  0  0
 15 24  1  0  0  0  0
 16 26  1  0  0  0  0
 17 18  1  0  0  0  0
 18 16  1  0  0  0  0
 19 22  1  6  0  0  0
 19 20  1  0  0  0  0
 19  6  1  0  0  0  0
 20 10  1  0  0  0  0
 21 13  2  0  0  0  0
 24 28  1  6  0  0  0
 24  9  1  0  0  0  0
 26 27  1  0  0  0  0
 26 25  1  0  0  0  0
 29 33  2  0  0  0  0
 29 32  1  0  0  0  0
 31 34  1  0  0  0  0
 31 30  1  0  0  0  0
 32 36  1  0  0  0  0
 33 31  1  0  0  0  0
 34 38  1  0  0  0  0
 35 37  2  0  0  0  0
 35 33  1  0  0  0  0
 36 30  2  0  0  0  0
 36 28  1  0  0  0  0
 37 34  1  0  0  0  0
 38 40  1  0  0  0  0
 38 39  1  0  0  0  0
 40 39  1  0  0  0  0
M  END
>  <MODEL>
1

>  <REMARK>
 VINA RESULT:      -8.4      0.000      0.000
  Name = 
  4 active torsions:
  status: ('A' for Active; 'I' for Inactive)
    1  A    between atoms: C_6  and  N_26
    2  A    between atoms: C_15  and  N_28
    3  A    between atoms: C_31  and  C_37
    4  A    between atoms: C_37  and  C_40
                            x       y       z     vdW  Elec       q    Type
                         _______ _______ _______ _____ _____    ______ ____

>  <TORSDO>
F 4

$$$$
=
 OpenBabel10222421593D

 40 46  0  0  1  0  0  0  0  0999 V2000
  185.6060  177.3820  137.8270 C   0  0  0  0  0  3  0  0  0  0  0  0
  185.9570  171.1540  134.5980 N   0  0  0  0  0  0  0  0  0  0  0  0
  183.1460  171.0310  136.8480 O   0  0  0  0  0  1  0  0  0  0  0  0
  184.3740  177.7100  137.2570 C   0  0  0  0  0  0  0  0  0  0  0  0
  186.8500  172.2800  134.3730 C   0  0  1  0  0  3  0  0  0  0  0  0
  186.7870  174.7040  135.4860 N   0  0  0  0  0  0  0  0  0  0  0  0
  183.6140  178.6900  137.8030 F   0  0  0  0  0  0  0  0  0  0  0  0
  186.3940  176.3650  137.2710 C   0  0  0  0  0  0  0  0  0  0  0  0
  187.6170  175.9980  137.8470 O   0  0  0  0  0  0  0  0  0  0  0  0
  189.2970  172.9310  134.3470 C   0  0  0  0  0  2  0  0  0  0  0  0
  189.6380  176.8930  135.8970 C   0  0  0  0  0  2  0  0  0  0  0  0
  186.2960  173.3370  135.3250 C   0  0  0  0  0  0  0  0  0  0  0  0
  184.7090  176.0190  135.5600 C   0  0  0  0  0  3  0  0  0  0  0  0
  185.9490  175.6890  136.1220 C   0  0  0  0  0  0  0  0  0  0  0  0
  189.0710  177.7650  137.0090 C   0  0  0  0  0  2  0  0  0  0  0  0
  184.0410  170.6050  135.9240 N   0  0  0  0  0  0  0  0  0  0  0  0
  185.2390  172.8540  135.9630 C   0  0  0  0  0  3  0  0  0  0  0  0
  185.0740  171.4920  135.4790 C   0  0  0  0  0  0  0  0  0  0  0  0
  188.1270  175.0740  135.0730 C   0  0  1  0  0  3  0  0  0  0  0  0
  188.9020  174.1150  134.6820 C   0  0  0  0  0  2  0  0  0  0  0  0
  183.9220  177.0230  136.1280 C   0  0  0  0  0  3  0  0  0  0  0  0
  188.5490  176.5040  134.9040 C   0  0  0  0  0  2  0  0  0  0  0  0
  188.3060  171.8530  134.6830 C   0  0  0  0  0  2  0  0  0  0  0  0
  188.6420  176.9230  138.2100 C   0  0  1  0  0  3  0  0  0  0  0  0
  182.5770  169.0120  134.7950 C   0  0  0  0  0  1  0  0  0  0  0  0
  183.9490  169.2500  135.3940 C   0  0  0  0  0  3  0  0  0  0  0  0
  184.2160  168.2370  136.4920 C   0  0  0  0  0  1  0  0  0  0  0  0
  188.2180  177.7930  139.3880 C   0  0  0  0  0  2  0  0  0  0  0  0
  191.4420  177.3570  141.4600 C   0  0  0  0  0  3  0  0  0  0  0  0
  188.6360  177.3490  141.7320 N   0  0  0  0  0  0  0  0  0  0  0  0
  189.5090  177.1480  142.8160 N   0  0  0  0  0  0  0  0  0  0  0  0
  190.5570  177.6170  140.3600 N   0  0  0  0  0  0  0  0  0  0  0  0
  190.8990  177.1330  142.6510 C   0  0  0  0  0  0  0  0  0  0  0  0
  189.0980  176.7930  144.1070 N   0  0  1  0  0  0  0  0  0  0  0  0
  191.5680  176.7880  143.9020 C   0  0  0  0  0  3  0  0  0  0  0  0
  189.1290  177.5910  140.5510 C   0  0  0  0  0  0  0  0  0  0  0  0
  190.3630  176.5570  144.8390 C   0  0  0  0  0  2  0  0  0  0  0  0
  188.4680  177.9630  144.7060 C   0  0  0  0  0  3  0  0  0  0  0  0
  186.9830  177.7050  144.8880 C   0  0  0  0  0  2  0  0  0  0  0  0
  187.9160  177.6010  146.0730 C   0  0  0  0  0  2  0  0  0  0  0  0
  2 18  2  0  0  0  0
  4  7  1  0  0  0  0
  4  1  2  0  0  0  0
  5  2  1  0  0  0  0
  5 23  1  1  0  0  0
  5 12  1  0  0  0  0
  6 14  1  0  0  0  0
  8  1  1  0  0  0  0
  8  9  1  0  0  0  0
  9 24  1  0  0  0  0
 10 20  1  0  0  0  0
 10 23  1  0  0  0  0
 11 15  1  0  0  0  0
 12  6  1  0  0  0  0
 12 17  2  0  0  0  0
 13 14  1  0  0  0  0
 13 21  2  0  0  0  0
 14  8  2  0  0  0  0
 15 24  1  0  0  0  0
 16  3  1  0  0  0  0
 18 16  1  0  0  0  0
 18 17  1  0  0  0  0
 19 20  1  6  0  0  0
 19  6  1  0  0  0  0
 21  4  1  0  0  0  0
 22 19  1  0  0  0  0
 22 11  1  0  0  0  0
 24 28  1  1  0  0  0
 25 26  1  0  0  0  0
 26 16  1  0  0  0  0
 26 27  1  0  0  0  0
 28 36  1  0  0  0  0
 29 33  1  0  0  0  0
 30 31  1  0  0  0  0
 31 34  1  0  0  0  0
 32 36  1  0  0  0  0
 32 29  2  0  0  0  0
 33 31  1  0  0  0  0
 33 35  2  0  0  0  0
 34 38  1  1  0  0  0
 34 37  1  0  0  0  0
 35 37  1  0  0  0  0
 36 30  2  0  0  0  0
 38 39  1  0  0  0  0
 38 40  1  0  0  0  0
 39 40  1  0  0  0  0
M  END
>  <MODEL>
2

>  <REMARK>
 VINA RESULT:      -8.0      2.869      9.408
  Name = 
  4 active torsions:
  status: ('A' for Active; 'I' for Inactive)
    1  A    between atoms: C_6  and  N_26
    2  A    between atoms: C_15  and  N_28
    3  A    between atoms: C_31  and  C_37
    4  A    between atoms: C_37  and  C_40
                            x       y       z     vdW  Elec       q    Type
                         _______ _______ _______ _____ _____    ______ ____

>  <TORSDO>
F 4

$$$$
=
 OpenBabel10222421593D

 40 46  0  0  1  0  0  0  0  0999 V2000
  185.3530  177.5570  137.9190 C   0  0  0  0  0  3  0  0  0  0  0  0
  188.1540  172.0940  134.5070 N   0  0  0  0  0  0  0  0  0  0  0  0
  184.9910  171.0050  135.8450 O   0  0  0  0  0  1  0  0  0  0  0  0
  184.2690  177.6630  137.0440 C   0  0  0  0  0  0  0  0  0  0  0  0
  188.7450  173.4170  134.6240 C   0  0  1  0  0  3  0  0  0  0  0  0
  187.7610  175.5810  135.8360 N   0  0  0  0  0  0  0  0  0  0  0  0
  183.1640  178.3530  137.4160 F   0  0  0  0  0  0  0  0  0  0  0  0
  186.4970  176.8400  137.5430 C   0  0  0  0  0  0  0  0  0  0  0  0
  187.5810  176.6920  138.4180 O   0  0  0  0  0  0  0  0  0  0  0  0
  190.8550  174.6200  135.3430 C   0  0  0  0  0  2  0  0  0  0  0  0
  189.7280  178.2960  137.1930 C   0  0  0  0  0  2  0  0  0  0  0  0
  187.7070  174.1720  135.4470 C   0  0  0  0  0  0  0  0  0  0  0  0
  185.4650  176.3490  135.4030 C   0  0  0  0  0  3  0  0  0  0  0  0
  186.5590  176.2440  136.2710 C   0  0  0  0  0  0  0  0  0  0  0  0
  188.6830  178.8490  138.1530 C   0  0  0  0  0  2  0  0  0  0  0  0
  186.1750  170.9330  135.1890 N   0  0  0  0  0  0  0  0  0  0  0  0
  186.6860  173.3720  135.7220 C   0  0  0  0  0  3  0  0  0  0  0  0
  187.0160  172.0900  135.1190 C   0  0  0  0  0  0  0  0  0  0  0  0
  189.0170  176.3070  135.8490 C   0  0  1  0  0  3  0  0  0  0  0  0
  190.0900  175.6200  135.6310 C   0  0  0  0  0  2  0  0  0  0  0  0
  184.3220  177.0530  135.7890 C   0  0  0  0  0  3  0  0  0  0  0  0
  189.0760  177.8060  135.9060 C   0  0  0  0  0  2  0  0  0  0  0  0
  190.1310  173.3030  135.3060 C   0  0  0  0  0  2  0  0  0  0  0  0
  188.1950  177.7720  139.1210 C   0  0  1  0  0  3  0  0  0  0  0  0
  185.3800  168.7840  134.3480 C   0  0  0  0  0  1  0  0  0  0  0  0
  186.5830  169.6810  134.5630 C   0  0  0  0  0  3  0  0  0  0  0  0
  187.6080  168.9720  135.4280 C   0  0  0  0  0  1  0  0  0  0  0  0
  187.2680  178.3460  140.1860 C   0  0  0  0  0  2  0  0  0  0  0  0
  189.7990  177.7560  143.0350 C   0  0  0  0  0  3  0  0  0  0  0  0
  187.0280  177.9840  142.5680 N   0  0  0  0  0  0  0  0  0  0  0  0
  187.5720  177.7670  143.8470 N   0  0  0  0  0  0  0  0  0  0  0  0
  189.2530  178.0310  141.7360 N   0  0  0  0  0  0  0  0  0  0  0  0
  188.9510  177.6330  144.0490 C   0  0  0  0  0  0  0  0  0  0  0  0
  186.8130  177.5090  144.9950 N   0  0  1  0  0  0  0  0  0  0  0  0
  189.2420  177.2970  145.4400 C   0  0  0  0  0  3  0  0  0  0  0  0
  187.8270  178.1290  141.5500 C   0  0  0  0  0  0  0  0  0  0  0  0
  187.8210  177.2090  146.0370 C   0  0  0  0  0  2  0  0  0  0  0  0
  186.1580  178.7540  145.3790 C   0  0  0  0  0  3  0  0  0  0  0  0
  184.7190  178.7420  144.8950 C   0  0  0  0  0  2  0  0  0  0  0  0
  185.0270  178.4560  146.3480 C   0  0  0  0  0  2  0  0  0  0  0  0
  2  5  1  0  0  0  0
  2 18  2  0  0  0  0
  4  7  1  0  0  0  0
  4  1  2  0  0  0  0
  5 23  1  1  0  0  0
  5 12  1  0  0  0  0
  6 19  1  0  0  0  0
  6 14  1  0  0  0  0
  8  1  1  0  0  0  0
  8  9  1  0  0  0  0
  9 24  1  0  0  0  0
 10 20  1  0  0  0  0
 11 15  1  0  0  0  0
 12 17  2  0  0  0  0
 12  6  1  0  0  0  0
 13 21  2  0  0  0  0
 13 14  1  0  0  0  0
 14  8  2  0  0  0  0
 15 24  1  0  0  0  0
 16  3  1  0  0  0  0
 18 16  1  0  0  0  0
 18 17  1  0  0  0  0
 19 20  1  6  0  0  0
 19 22  1  0  0  0  0
 21  4  1  0  0  0  0
 22 11  1  0  0  0  0
 23 10  1  0  0  0  0
 24 28  1  1  0  0  0
 25 26  1  0  0  0  0
 26 16  1  0  0  0  0
 26 27  1  0  0  0  0
 28 36  1  0  0  0  0
 29 33  1  0  0  0  0
 30 31  1  0  0  0  0
 31 33  1  0  0  0  0
 31 34  1  0  0  0  0
 32 29  2  0  0  0  0
 33 35  2  0  0  0  0
 34 38  1  1  0  0  0
 34 37  1  0  0  0  0
 35 37  1  0  0  0  0
 36 32  1  0  0  0  0
 36 30  2  0  0  0  0
 38 40  1  0  0  0  0
 39 38  1  0  0  0  0
 39 40  1  0  0  0  0
M  END
>  <MODEL>
3

>  <REMARK>
 VINA RESULT:      -7.9      2.963      9.296
  Name = 
  4 active torsions:
  status: ('A' for Active; 'I' for Inactive)
    1  A    between atoms: C_6  and  N_26
    2  A    between atoms: C_15  and  N_28
    3  A    between atoms: C_31  and  C_37
    4  A    between atoms: C_37  and  C_40
                            x       y       z     vdW  Elec       q    Type
                         _______ _______ _______ _____ _____    ______ ____

>  <TORSDO>
F 4

$$$$
=
 OpenBabel10222421593D

 40 46  0  0  1  0  0  0  0  0999 V2000
  190.5580  175.2670  137.5030 C   0  0  0  0  0  3  0  0  0  0  0  0
  187.0230  178.6240  142.5590 N   0  0  0  0  0  0  0  0  0  0  0  0
  189.3720  176.4260  144.1810 O   0  0  0  0  0  1  0  0  0  0  0  0
  191.7800  175.8520  137.8450 C   0  0  0  0  0  0  0  0  0  0  0  0
  186.8410  178.8090  141.1280 C   0  0  1  0  0  3  0  0  0  0  0  0
  188.1530  177.6450  139.1180 N   0  0  0  0  0  0  0  0  0  0  0  0
  192.9400  175.2980  137.4140 F   0  0  0  0  0  0  0  0  0  0  0  0
  189.3560  175.8320  137.9490 C   0  0  0  0  0  0  0  0  0  0  0  0
  188.1210  175.2420  137.6460 O   0  0  0  0  0  0  0  0  0  0  0  0
  185.0840  178.7780  139.3040 C   0  0  0  0  0  2  0  0  0  0  0  0
  186.8490  177.1380  135.7830 C   0  0  0  0  0  2  0  0  0  0  0  0
  187.8640  177.8450  140.5370 C   0  0  0  0  0  0  0  0  0  0  0  0
  190.6120  177.5790  139.0710 C   0  0  0  0  0  3  0  0  0  0  0  0
  189.3820  177.0030  138.7270 C   0  0  0  0  0  0  0  0  0  0  0  0
  187.7900  176.0170  135.3600 C   0  0  0  0  0  2  0  0  0  0  0  0
  188.3820  177.3440  144.0570 N   0  0  0  0  0  0  0  0  0  0  0  0
  188.5220  177.2350  141.5150 C   0  0  0  0  0  3  0  0  0  0  0  0
  187.9560  177.7520  142.7520 C   0  0  0  0  0  0  0  0  0  0  0  0
  187.1960  178.0270  138.0970 C   0  0  1  0  0  3  0  0  0  0  0  0
  186.0360  178.4250  138.5060 C   0  0  0  0  0  2  0  0  0  0  0  0
  191.8070  177.0030  138.6350 C   0  0  0  0  0  3  0  0  0  0  0  0
  187.5750  178.1570  136.6510 C   0  0  0  0  0  2  0  0  0  0  0  0
  185.3750  178.4840  140.7490 C   0  0  0  0  0  2  0  0  0  0  0  0
  187.7250  174.8420  136.3350 C   0  0  1  0  0  3  0  0  0  0  0  0
  188.6300  177.6600  146.4640 C   0  0  0  0  0  1  0  0  0  0  0  0
  187.7580  177.9050  145.2490 C   0  0  0  0  0  3  0  0  0  0  0  0
  186.3880  177.2880  145.4640 C   0  0  0  0  0  1  0  0  0  0  0  0
  188.5420  173.6530  135.8430 C   0  0  0  0  0  2  0  0  0  0  0  0
  187.4200  170.0630  134.9890 C   0  0  0  0  0  3  0  0  0  0  0  0
  186.3740  172.5830  135.6960 N   0  0  0  0  0  0  0  0  0  0  0  0
  185.5640  171.4560  135.4700 N   0  0  0  0  0  0  0  0  0  0  0  0
  188.2560  171.1960  135.2710 N   0  0  0  0  0  2  0  0  0  0  0  0
  186.1070  170.2210  135.0960 C   0  0  0  0  0  0  0  0  0  0  0  0
  184.1640  171.4830  135.4370 N   0  0  0  0  0  0  0  0  0  0  0  0
  185.0500  169.2550  134.8080 C   0  0  0  0  0  3  0  0  0  0  0  0
  187.6690  172.4650  135.6190 C   0  0  0  0  0  0  0  0  0  0  0  0
  183.7850  170.1120  135.0270 C   0  0  0  0  0  3  0  0  0  0  0  0
  183.6950  171.6660  136.8060 C   0  0  0  0  0  3  0  0  0  0  0  0
  183.2110  173.0920  136.9910 C   0  0  0  0  0  2  0  0  0  0  0  0
  182.2090  171.9770  136.7970 C   0  0  0  0  0  2  0  0  0  0  0  0
  1  4  2  0  0  0  0
  1  8  1  0  0  0  0
  2 18  2  0  0  0  0
  4 21  1  0  0  0  0
  5 23  1  6  0  0  0
  5  2  1  0  0  0  0
  6 12  1  0  0  0  0
  7  4  1  0  0  0  0
  8 14  2  0  0  0  0
  9  8  1  0  0  0  0
 10 23  1  0  0  0  0
 11 22  1  0  0  0  0
 12  5  1  0  0  0  0
 12 17  2  0  0  0  0
 14 13  1  0  0  0  0
 14  6  1  0  0  0  0
 15 11  1  0  0  0  0
 15 24  1  0  0  0  0
 16  3  1  0  0  0  0
 16 26  1  0  0  0  0
 17 18  1  0  0  0  0
 18 16  1  0  0  0  0
 19 22  1  1  0  0  0
 19 20  1  0  0  0  0
 19  6  1  0  0  0  0
 20 10  1  0  0  0  0
 21 13  2  0  0  0  0
 24 28  1  6  0  0  0
 24  9  1  0  0  0  0
 26 27  1  0  0  0  0
 26 25  1  0  0  0  0
 29 33  2  0  0  0  0
 29 32  1  0  0  0  0
 31 30  1  0  0  0  0
 32 36  1  0  0  0  0
 33 31  1  0  0  0  0
 34 31  1  0  0  0  0
 34 38  1  0  0  0  0
 35 37  2  0  0  0  0
 35 33  1  0  0  0  0
 36 30  2  0  0  0  0
 36 28  1  0  0  0  0
 37 34  1  0  0  0  0
 38 39  1  0  0  0  0
 40 38  1  0  0  0  0
 40 39  1  0  0  0  0
M  END
>  <MODEL>
4

>  <REMARK>
 VINA RESULT:      -7.8      1.397      1.720
  Name = 
  4 active torsions:
  status: ('A' for Active; 'I' for Inactive)
    1  A    between atoms: C_6  and  N_26
    2  A    between atoms: C_15  and  N_28
    3  A    between atoms: C_31  and  C_37
    4  A    between atoms: C_37  and  C_40
                            x       y       z     vdW  Elec       q    Type
                         _______ _______ _______ _____ _____    ______ ____

>  <TORSDO>
F 4

$$$$
=
 OpenBabel10222421593D

 40 46  0  0  1  0  0  0  0  0999 V2000
  189.2480  178.5170  138.1350 C   0  0  0  0  0  3  0  0  0  0  0  0
  184.4160  173.6510  136.6160 N   0  0  0  0  0  0  0  0  0  0  0  0
  182.6900  176.4330  138.1200 O   0  0  0  0  0  1  0  0  0  0  0  0
  188.7240  179.4480  137.2340 C   0  0  0  0  0  0  0  0  0  0  0  0
  185.8410  173.5460  136.3480 C   0  0  1  0  0  3  0  0  0  0  0  0
  187.7620  175.3380  136.8200 N   0  0  0  0  0  0  0  0  0  0  0  0
  189.0540  180.7570  137.3460 F   0  0  0  0  0  0  0  0  0  0  0  0
  188.9070  177.1620  138.0280 C   0  0  0  0  0  0  0  0  0  0  0  0
  189.3950  176.2170  138.9410 O   0  0  0  0  0  0  0  0  0  0  0  0
  187.8570  172.0630  136.7370 C   0  0  0  0  0  2  0  0  0  0  0  0
  191.2550  174.5690  137.3570 C   0  0  0  0  0  2  0  0  0  0  0  0
  186.3750  174.8750  136.8720 C   0  0  0  0  0  0  0  0  0  0  0  0
  187.5230  177.6790  136.1030 C   0  0  0  0  0  3  0  0  0  0  0  0
  188.0510  176.7380  136.9970 C   0  0  0  0  0  0  0  0  0  0  0  0
  191.6430  175.8560  138.0730 C   0  0  0  0  0  2  0  0  0  0  0  0
  182.8640  175.2140  137.5530 N   0  0  0  0  0  0  0  0  0  0  0  0
  185.3730  175.6060  137.3430 C   0  0  0  0  0  3  0  0  0  0  0  0
  184.1780  174.7960  137.1650 C   0  0  0  0  0  0  0  0  0  0  0  0
  188.8580  174.4030  136.6530 C   0  0  1  0  0  3  0  0  0  0  0  0
  188.5610  173.1440  136.6860 C   0  0  0  0  0  2  0  0  0  0  0  0
  187.8560  179.0300  136.2240 C   0  0  0  0  0  3  0  0  0  0  0  0
  190.2360  174.8450  136.2580 C   0  0  0  0  0  2  0  0  0  0  0  0
  186.4130  172.3050  137.0760 C   0  0  0  0  0  2  0  0  0  0  0  0
  190.7690  176.0900  139.3050 C   0  0  1  0  0  3  0  0  0  0  0  0
  181.0600  174.6380  136.0130 C   0  0  0  0  0  1  0  0  0  0  0  0
  181.7170  174.3390  137.3470 C   0  0  0  0  0  3  0  0  0  0  0  0
  180.7120  174.5170  138.4690 C   0  0  0  0  0  1  0  0  0  0  0  0
  191.2450  177.2890  140.1170 C   0  0  0  0  0  2  0  0  0  0  0  0
  190.7070  177.2360  143.9360 C   0  0  0  0  0  3  0  0  0  0  0  0
  189.2700  177.3890  141.5150 N   0  0  0  0  0  0  0  0  0  0  0  0
  188.6470  177.4160  142.7760 N   0  0  0  0  0  0  0  0  0  0  0  0
  191.3520  177.2620  142.6530 N   0  0  0  0  0  0  0  0  0  0  0  0
  189.3820  177.3150  143.9630 C   0  0  0  0  0  0  0  0  0  0  0  0
  187.2610  177.3870  142.9730 N   0  0  1  0  0  0  0  0  0  0  0  0
  188.4930  177.2480  145.1200 C   0  0  0  0  0  3  0  0  0  0  0  0
  190.5700  177.3320  141.4450 C   0  0  0  0  0  0  0  0  0  0  0  0
  187.1060  177.2850  144.4420 C   0  0  0  0  0  2  0  0  0  0  0  0
  186.7320  178.6860  142.5760 C   0  0  0  0  0  3  0  0  0  0  0  0
  186.3900  178.6660  141.0980 C   0  0  0  0  0  2  0  0  0  0  0  0
  185.2910  178.5330  142.1260 C   0  0  0  0  0  2  0  0  0  0  0  0
  2 18  2  0  0  0  0
  4  7  1  0  0  0  0
  4  1  2  0  0  0  0
  5  2  1  0  0  0  0
  5 12  1  0  0  0  0
  5 23  1  1  0  0  0
  6 12  1  0  0  0  0
  6 14  1  0  0  0  0
  8  1  1  0  0  0  0
  8  9  1  0  0  0  0
  9 24  1  0  0  0  0
 10 23  1  0  0  0  0
 11 15  1  0  0  0  0
 12 17  2  0  0  0  0
 13 21  2  0  0  0  0
 13 14  1  0  0  0  0
 14  8  2  0  0  0  0
 15 24  1  0  0  0  0
 16  3  1  0  0  0  0
 18 17  1  0  0  0  0
 18 16  1  0  0  0  0
 19 22  1  6  0  0  0
 19 20  1  0  0  0  0
 19  6  1  0  0  0  0
 20 10  1  0  0  0  0
 21  4  1  0  0  0  0
 22 11  1  0  0  0  0
 24 28  1  6  0  0  0
 25 26  1  0  0  0  0
 26 16  1  0  0  0  0
 26 27  1  0  0  0  0
 28 36  1  0  0  0  0
 29 33  1  0  0  0  0
 30 31  1  0  0  0  0
 31 34  1  0  0  0  0
 31 33  1  0  0  0  0
 32 29  2  0  0  0  0
 33 35  2  0  0  0  0
 34 38  1  1  0  0  0
 34 37  1  0  0  0  0
 36 30  2  0  0  0  0
 36 32  1  0  0  0  0
 37 35  1  0  0  0  0
 39 40  1  0  0  0  0
 39 38  1  0  0  0  0
 40 38  1  0  0  0  0
M  END
>  <MODEL>
5

>  <REMARK>
 VINA RESULT:      -7.8      2.521      8.272
  Name = 
  4 active torsions:
  status: ('A' for Active; 'I' for Inactive)
    1  A    between atoms: C_6  and  N_26
    2  A    between atoms: C_15  and  N_28
    3  A    between atoms: C_31  and  C_37
    4  A    between atoms: C_37  and  C_40
                            x       y       z     vdW  Elec       q    Type
                         _______ _______ _______ _____ _____    ______ ____

>  <TORSDO>
F 4

$$$$
=
 OpenBabel10222421593D

 40 46  0  0  1  0  0  0  0  0999 V2000
  182.0060  178.6620  141.3940 C   0  0  0  0  0  3  0  0  0  0  0  0
  183.0770  174.1650  136.1060 N   0  0  0  0  0  0  0  0  0  0  0  0
  179.9840  173.2240  137.6950 O   0  0  0  0  0  1  0  0  0  0  0  0
  180.8540  179.2040  140.8200 C   0  0  0  0  0  0  0  0  0  0  0  0
  183.9430  175.2770  136.4660 C   0  0  1  0  0  3  0  0  0  0  0  0
  183.6200  177.0820  138.4040 N   0  0  0  0  0  0  0  0  0  0  0  0
  179.9830  179.9080  141.5830 F   0  0  0  0  0  0  0  0  0  0  0  0
  182.9080  177.9290  140.6110 C   0  0  0  0  0  0  0  0  0  0  0  0
  184.0520  177.3480  141.1750 O   0  0  0  0  0  0  0  0  0  0  0  0
  186.3390  175.8500  137.0520 C   0  0  0  0  0  2  0  0  0  0  0  0
  186.2870  178.8970  140.0390 C   0  0  0  0  0  2  0  0  0  0  0  0
  183.2160  175.8910  137.6580 C   0  0  0  0  0  0  0  0  0  0  0  0
  181.4980  178.2970  138.6720 C   0  0  0  0  0  3  0  0  0  0  0  0
  182.6590  177.7560  139.2390 C   0  0  0  0  0  0  0  0  0  0  0  0
  185.5320  179.2790  141.3050 C   0  0  0  0  0  2  0  0  0  0  0  0
  181.0180  173.1750  136.8210 N   0  0  0  0  0  0  0  0  0  0  0  0
  182.1000  175.2150  137.8980 C   0  0  0  0  0  3  0  0  0  0  0  0
  182.0640  174.1490  136.9090 C   0  0  0  0  0  0  0  0  0  0  0  0
  184.9880  177.5620  138.3660 C   0  0  1  0  0  3  0  0  0  0  0  0
  185.8510  176.8170  137.7540 C   0  0  0  0  0  2  0  0  0  0  0  0
  180.5960  179.0150  139.4600 C   0  0  0  0  0  3  0  0  0  0  0  0
  185.3680  178.9390  138.8250 C   0  0  0  0  0  2  0  0  0  0  0  0
  185.3580  174.7410  136.7970 C   0  0  0  0  0  2  0  0  0  0  0  0
  184.9740  178.0450  142.0120 C   0  0  1  0  0  3  0  0  0  0  0  0
  180.2760  172.5610  134.5780 C   0  0  0  0  0  1  0  0  0  0  0  0
  181.0600  172.1320  135.8030 C   0  0  0  0  0  3  0  0  0  0  0  0
  180.4910  170.8380  136.3530 C   0  0  0  0  0  1  0  0  0  0  0  0
  184.3510  178.3980  143.3580 C   0  0  0  0  0  2  0  0  0  0  0  0
  185.8520  178.1660  146.9040 C   0  0  0  0  0  3  0  0  0  0  0  0
  186.6030  178.0730  144.1890 N   0  0  0  0  0  0  0  0  0  0  0  0
  187.5230  177.9220  145.2420 N   0  0  0  0  0  0  0  0  0  0  0  0
  184.9000  178.2670  145.8340 N   0  0  0  0  0  0  0  0  0  0  0  0
  187.1280  177.9960  146.5820 C   0  0  0  0  0  0  0  0  0  0  0  0
  188.9110  177.8440  145.0730 N   0  0  1  0  0  0  0  0  0  0  0  0
  188.2860  177.9270  147.4700 C   0  0  0  0  0  3  0  0  0  0  0  0
  185.3380  178.2220  144.4620 C   0  0  0  0  0  0  0  0  0  0  0  0
  189.4450  177.8400  146.4540 C   0  0  0  0  0  2  0  0  0  0  0  0
  189.2120  176.5400  144.4940 C   0  0  0  0  0  3  0  0  0  0  0  0
  188.9230  176.5650  143.0040 C   0  0  0  0  0  2  0  0  0  0  0  0
  190.3480  176.6760  143.4960 C   0  0  0  0  0  2  0  0  0  0  0  0
  2  5  1  0  0  0  0
  2 18  2  0  0  0  0
  4  1  1  0  0  0  0
  4  7  1  0  0  0  0
  5 23  1  1  0  0  0
  5 12  1  0  0  0  0
  6 14  1  0  0  0  0
  8  9  1  0  0  0  0
  8  1  2  0  0  0  0
  9 24  1  0  0  0  0
 10 20  1  0  0  0  0
 11 15  1  0  0  0  0
 12 17  2  0  0  0  0
 12  6  1  0  0  0  0
 13 14  2  0  0  0  0
 13 21  1  0  0  0  0
 14  8  1  0  0  0  0
 15 24  1  0  0  0  0
 16 18  1  0  0  0  0
 16  3  1  0  0  0  0
 18 17  1  0  0  0  0
 19 20  1  6  0  0  0
 19  6  1  0  0  0  0
 19 22  1  0  0  0  0
 21  4  2  0  0  0  0
 22 11  1  0  0  0  0
 23 10  1  0  0  0  0
 24 28  1  1  0  0  0
 25 26  1  0  0  0  0
 26 27  1  0  0  0  0
 26 16  1  0  0  0  0
 28 36  1  0  0  0  0
 30 36  2  0  0  0  0
 30 31  1  0  0  0  0
 31 33  1  0  0  0  0
 32 29  2  0  0  0  0
 33 29  1  0  0  0  0
 33 35  2  0  0  0  0
 34 38  1  1  0  0  0
 34 31  1  0  0  0  0
 34 37  1  0  0  0  0
 36 32  1  0  0  0  0
 37 35  1  0  0  0  0
 39 40  1  0  0  0  0
 39 38  1  0  0  0  0
 40 38  1  0  0  0  0
M  END
>  <MODEL>
6

>  <REMARK>
 VINA RESULT:      -7.7      4.757     10.861
  Name = 
  4 active torsions:
  status: ('A' for Active; 'I' for Inactive)
    1  A    between atoms: C_6  and  N_26
    2  A    between atoms: C_15  and  N_28
    3  A    between atoms: C_31  and  C_37
    4  A    between atoms: C_37  and  C_40
                            x       y       z     vdW  Elec       q    Type
                         _______ _______ _______ _____ _____    ______ ____

>  <TORSDO>
F 4

$$$$
=
 OpenBabel10222421593D

 40 46  0  0  1  0  0  0  0  0999 V2000
  181.9420  178.3740  138.2700 C   0  0  0  0  0  3  0  0  0  0  0  0
  184.5690  172.5910  135.2710 N   0  0  0  0  0  0  0  0  0  0  0  0
  181.0620  171.9970  135.8380 O   0  0  0  0  0  1  0  0  0  0  0  0
  181.1080  178.6650  137.1880 C   0  0  0  0  0  0  0  0  0  0  0  0
  185.3140  173.8020  135.5800 C   0  0  1  0  0  3  0  0  0  0  0  0
  184.4250  176.0750  136.6580 N   0  0  0  0  0  0  0  0  0  0  0  0
  180.0650  179.5150  137.3470 F   0  0  0  0  0  0  0  0  0  0  0  0
  183.0190  177.4910  138.1130 C   0  0  0  0  0  0  0  0  0  0  0  0
  183.8480  177.1590  139.1940 O   0  0  0  0  0  0  0  0  0  0  0  0
  187.3690  174.6430  136.7970 C   0  0  0  0  0  2  0  0  0  0  0  0
  186.4300  178.4210  138.5430 C   0  0  0  0  0  2  0  0  0  0  0  0
  184.2450  174.6990  136.1970 C   0  0  0  0  0  0  0  0  0  0  0  0
  182.4240  177.2040  135.7790 C   0  0  0  0  0  3  0  0  0  0  0  0
  183.2700  176.9130  136.8570 C   0  0  0  0  0  0  0  0  0  0  0  0
  185.2950  179.1170  139.2820 C   0  0  0  0  0  2  0  0  0  0  0  0
  182.3360  171.7490  135.4500 N   0  0  0  0  0  0  0  0  0  0  0  0
  183.0800  174.0660  136.2040 C   0  0  0  0  0  3  0  0  0  0  0  0
  183.3370  172.7580  135.6220 C   0  0  0  0  0  0  0  0  0  0  0  0
  185.7410  176.5920  136.9790 C   0  0  1  0  0  3  0  0  0  0  0  0
  186.7200  175.7470  136.9630 C   0  0  0  0  0  2  0  0  0  0  0  0
  181.3440  178.0740  135.9440 C   0  0  0  0  0  3  0  0  0  0  0  0
  186.0120  178.0610  137.1230 C   0  0  0  0  0  2  0  0  0  0  0  0
  186.4810  173.4590  136.5390 C   0  0  0  0  0  2  0  0  0  0  0  0
  184.4480  178.1160  140.0660 C   0  0  1  0  0  3  0  0  0  0  0  0
  181.4320  169.7680  134.3470 C   0  0  0  0  0  1  0  0  0  0  0  0
  182.6790  170.4580  134.8650 C   0  0  0  0  0  3  0  0  0  0  0  0
  183.3650  169.5800  135.8950 C   0  0  0  0  0  1  0  0  0  0  0  0
  183.4050  178.8130  140.9330 C   0  0  0  0  0  2  0  0  0  0  0  0
  183.0670  178.8100  144.7750 C   0  0  0  0  0  3  0  0  0  0  0  0
  184.9900  178.5030  142.7380 N   0  0  0  0  0  0  0  0  0  0  0  0
  185.3050  178.4100  144.1050 N   0  0  0  0  0  0  0  0  0  0  0  0
  182.7300  178.8520  143.3800 N   0  0  0  0  0  0  0  0  0  0  0  0
  184.3350  178.5900  145.0990 C   0  0  0  0  0  0  0  0  0  0  0  0
  186.6060  178.2900  144.6110 N   0  0  1  0  0  0  0  0  0  0  0  0
  184.9400  178.5610  146.4270 C   0  0  0  0  0  3  0  0  0  0  0  0
  183.7540  178.6980  142.3780 C   0  0  0  0  0  0  0  0  0  0  0  0
  186.4330  178.3760  146.0780 C   0  0  0  0  0  2  0  0  0  0  0  0
  187.0730  176.9410  144.3120 C   0  0  0  0  0  3  0  0  0  0  0  0
  187.8460  176.9480  143.0070 C   0  0  0  0  0  2  0  0  0  0  0  0
  188.5900  176.9140  144.3220 C   0  0  0  0  0  2  0  0  0  0  0  0
  2  5  1  0  0  0  0
  2 18  2  0  0  0  0
  4  7  1  0  0  0  0
  4  1  2  0  0  0  0
  5 12  1  0  0  0  0
  5 23  1  1  0  0  0
  6 14  1  0  0  0  0
  6 19  1  0  0  0  0
  8  1  1  0  0  0  0
  8  9  1  0  0  0  0
  9 24  1  0  0  0  0
 10 20  1  0  0  0  0
 11 15  1  0  0  0  0
 12 17  2  0  0  0  0
 12  6  1  0  0  0  0
 13 21  2  0  0  0  0
 13 14  1  0  0  0  0
 14  8  2  0  0  0  0
 15 24  1  0  0  0  0
 16 18  1  0  0  0  0
 16  3  1  0  0  0  0
 18 17  1  0  0  0  0
 19 20  1  6  0  0  0
 19 22  1  0  0  0  0
 21  4  1  0  0  0  0
 22 11  1  0  0  0  0
 23 10  1  0  0  0  0
 24 28  1  6  0  0  0
 25 26  1  0  0  0  0
 26 16  1  0  0  0  0
 26 27  1  0  0  0  0
 28 36  1  0  0  0  0
 29 33  1  0  0  0  0
 30 31  1  0  0  0  0
 31 34  1  0  0  0  0
 31 33  1  0  0  0  0
 32 29  2  0  0  0  0
 33 35  2  0  0  0  0
 34 38  1  1  0  0  0
 34 37  1  0  0  0  0
 36 30  2  0  0  0  0
 36 32  1  0  0  0  0
 37 35  1  0  0  0  0
 38 40  1  0  0  0  0
 39 38  1  0  0  0  0
 39 40  1  0  0  0  0
M  END
>  <MODEL>
7

>  <REMARK>
 VINA RESULT:      -7.5      4.488     10.506
  Name = 
  4 active torsions:
  status: ('A' for Active; 'I' for Inactive)
    1  A    between atoms: C_6  and  N_26
    2  A    between atoms: C_15  and  N_28
    3  A    between atoms: C_31  and  C_37
    4  A    between atoms: C_37  and  C_40
                            x       y       z     vdW  Elec       q    Type
                         _______ _______ _______ _____ _____    ______ ____

>  <TORSDO>
F 4

$$$$
=
 OpenBabel10222421593D

 40 46  0  0  1  0  0  0  0  0999 V2000
  183.4120  177.9810  137.5980 C   0  0  0  0  0  3  0  0  0  0  0  0
  184.8030  171.8320  134.5010 N   0  0  0  0  0  0  0  0  0  0  0  0
  181.8100  171.3870  136.4560 O   0  0  0  0  0  1  0  0  0  0  0  0
  182.2150  178.1640  136.9010 C   0  0  0  0  0  0  0  0  0  0  0  0
  185.5790  173.0530  134.3540 C   0  0  1  0  0  3  0  0  0  0  0  0
  185.1250  175.4550  135.4230 N   0  0  0  0  0  0  0  0  0  0  0  0
  181.2960  179.0500  137.3550 F   0  0  0  0  0  0  0  0  0  0  0  0
  184.3640  177.0610  137.1370 C   0  0  0  0  0  0  0  0  0  0  0  0
  185.5560  176.8390  137.8400 O   0  0  0  0  0  0  0  0  0  0  0  0
  187.9260  173.9830  134.5670 C   0  0  0  0  0  2  0  0  0  0  0  0
  187.6490  177.9580  136.0930 C   0  0  0  0  0  2  0  0  0  0  0  0
  184.8140  174.0400  135.2300 C   0  0  0  0  0  0  0  0  0  0  0  0
  182.9130  176.5200  135.2690 C   0  0  0  0  0  3  0  0  0  0  0  0
  184.1200  176.3370  135.9580 C   0  0  0  0  0  0  0  0  0  0  0  0
  186.8750  178.7610  137.1300 C   0  0  0  0  0  2  0  0  0  0  0  0
  182.8380  171.0670  135.6330 N   0  0  0  0  0  0  0  0  0  0  0  0
  183.7590  173.4390  135.7640 C   0  0  0  0  0  3  0  0  0  0  0  0
  183.8020  172.0660  135.2830 C   0  0  0  0  0  0  0  0  0  0  0  0
  186.4500  175.9760  135.1430 C   0  0  1  0  0  3  0  0  0  0  0  0
  187.3650  175.1130  134.8450 C   0  0  0  0  0  2  0  0  0  0  0  0
  181.9620  177.4280  135.7410 C   0  0  0  0  0  3  0  0  0  0  0  0
  186.7200  177.4460  135.0000 C   0  0  0  0  0  2  0  0  0  0  0  0
  187.0360  172.7970  134.8140 C   0  0  0  0  0  2  0  0  0  0  0  0
  186.4250  177.8760  138.2930 C   0  0  1  0  0  3  0  0  0  0  0  0
  181.5840  169.0900  134.9400 C   0  0  0  0  0  1  0  0  0  0  0  0
  182.9570  169.7090  135.1130 C   0  0  0  0  0  3  0  0  0  0  0  0
  183.7920  168.8590  136.0530 C   0  0  0  0  0  1  0  0  0  0  0  0
  185.7860  178.6930  139.4100 C   0  0  0  0  0  2  0  0  0  0  0  0
  188.6450  178.1290  141.9370 C   0  0  0  0  0  3  0  0  0  0  0  0
  185.8370  178.3350  141.8050 N   0  0  0  0  0  0  0  0  0  0  0  0
  186.5310  178.1250  143.0100 N   0  0  0  0  0  0  0  0  0  0  0  0
  187.9450  178.3970  140.7120 N   0  0  0  0  0  0  0  0  0  0  0  0
  187.9250  178.0030  143.0460 C   0  0  0  0  0  0  0  0  0  0  0  0
  185.9170  177.8650  144.2410 N   0  0  1  0  0  0  0  0  0  0  0  0
  188.3840  177.6730  144.3920 C   0  0  0  0  0  3  0  0  0  0  0  0
  186.5070  178.4830  140.6980 C   0  0  0  0  0  0  0  0  0  0  0  0
  187.0450  177.5750  145.1550 C   0  0  0  0  0  2  0  0  0  0  0  0
  185.3020  179.1060  144.6990 C   0  0  0  0  0  3  0  0  0  0  0  0
  183.8440  179.1350  144.2810 C   0  0  0  0  0  2  0  0  0  0  0  0
  184.2120  178.7920  145.7070 C   0  0  0  0  0  2  0  0  0  0  0  0
  2 18  2  0  0  0  0
  4  7  1  0  0  0  0
  4  1  2  0  0  0  0
  5  2  1  0  0  0  0
  5 23  1  1  0  0  0
  5 12  1  0  0  0  0
  6 14  1  0  0  0  0
  8  1  1  0  0  0  0
  8  9  1  0  0  0  0
  9 24  1  0  0  0  0
 10 23  1  0  0  0  0
 10 20  1  0  0  0  0
 11 15  1  0  0  0  0
 12  6  1  0  0  0  0
 12 17  2  0  0  0  0
 13 21  2  0  0  0  0
 13 14  1  0  0  0  0
 14  8  2  0  0  0  0
 15 24  1  0  0  0  0
 16  3  1  0  0  0  0
 18 16  1  0  0  0  0
 18 17  1  0  0  0  0
 19 20  1  6  0  0  0
 19  6  1  0  0  0  0
 21  4  1  0  0  0  0
 22 19  1  0  0  0  0
 22 11  1  0  0  0  0
 24 28  1  1  0  0  0
 25 26  1  0  0  0  0
 26 16  1  0  0  0  0
 26 27  1  0  0  0  0
 28 36  1  0  0  0  0
 29 33  1  0  0  0  0
 30 31  1  0  0  0  0
 31 33  1  0  0  0  0
 31 34  1  0  0  0  0
 32 29  2  0  0  0  0
 33 35  2  0  0  0  0
 34 38  1  1  0  0  0
 34 37  1  0  0  0  0
 35 37  1  0  0  0  0
 36 32  1  0  0  0  0
 36 30  2  0  0  0  0
 38 40  1  0  0  0  0
 39 38  1  0  0  0  0
 39 40  1  0  0  0  0
M  END
>  <MODEL>
8

>  <REMARK>
 VINA RESULT:      -7.5      3.906      9.932
  Name = 
  4 active torsions:
  status: ('A' for Active; 'I' for Inactive)
    1  A    between atoms: C_6  and  N_26
    2  A    between atoms: C_15  and  N_28
    3  A    between atoms: C_31  and  C_37
    4  A    between atoms: C_37  and  C_40
                            x       y       z     vdW  Elec       q    Type
                         _______ _______ _______ _____ _____    ______ ____

>  <TORSDO>
F 4

$$$$
=
 OpenBabel10222421593D

 40 46  0  0  1  0  0  0  0  0999 V2000
  189.3920  176.6420  137.4830 C   0  0  0  0  0  3  0  0  0  0  0  0
  194.0940  171.6580  135.9420 N   0  0  0  0  0  0  0  0  0  0  0  0
  190.8990  170.5190  134.7300 O   0  0  0  0  0  1  0  0  0  0  0  0
  189.1260  176.9330  136.1430 C   0  0  0  0  0  0  0  0  0  0  0  0
  194.3790  172.9180  136.6090 C   0  0  1  0  0  3  0  0  0  0  0  0
  192.7020  174.9090  137.1970 N   0  0  0  0  0  0  0  0  0  0  0  0
  188.0000  177.6060  135.8060 F   0  0  0  0  0  0  0  0  0  0  0  0
  190.5530  175.9420  137.8380 C   0  0  0  0  0  0  0  0  0  0  0  0
  190.8200  175.6100  139.1730 O   0  0  0  0  0  0  0  0  0  0  0  0
  195.4370  173.8970  138.6920 C   0  0  0  0  0  2  0  0  0  0  0  0
  193.1370  177.2860  139.8870 C   0  0  0  0  0  2  0  0  0  0  0  0
  193.0070  173.5820  136.6630 C   0  0  0  0  0  0  0  0  0  0  0  0
  191.1850  175.8390  135.4980 C   0  0  0  0  0  3  0  0  0  0  0  0
  191.4620  175.5500  136.8410 C   0  0  0  0  0  0  0  0  0  0  0  0
  191.6840  177.7290  140.0090 C   0  0  0  0  0  2  0  0  0  0  0  0
  192.2270  170.4970  134.9960 N   0  0  0  0  0  0  0  0  0  0  0  0
  192.1070  172.7960  136.0870 C   0  0  0  0  0  3  0  0  0  0  0  0
  192.8340  171.6100  135.6610 C   0  0  0  0  0  0  0  0  0  0  0  0
  193.5990  175.5660  138.1280 C   0  0  1  0  0  3  0  0  0  0  0  0
  194.6020  174.8730  138.5600 C   0  0  0  0  0  2  0  0  0  0  0  0
  190.0190  176.5250  135.1500 C   0  0  0  0  0  3  0  0  0  0  0  0
  193.5060  177.0330  138.4310 C   0  0  0  0  0  2  0  0  0  0  0  0
  194.9990  172.6360  138.0010 C   0  0  0  0  0  2  0  0  0  0  0  0
  190.7600  176.5370  140.2560 C   0  0  1  0  0  3  0  0  0  0  0  0
  192.1300  168.1450  134.3480 C   0  0  0  0  0  1  0  0  0  0  0  0
  193.0270  169.3400  134.6080 C   0  0  0  0  0  3  0  0  0  0  0  0
  194.0300  169.0060  135.6960 C   0  0  0  0  0  1  0  0  0  0  0  0
  189.3280  176.9800  140.5350 C   0  0  0  0  0  2  0  0  0  0  0  0
  190.0660  177.5040  144.2840 C   0  0  0  0  0  3  0  0  0  0  0  0
  187.9140  177.2650  142.4800 N   0  0  0  0  0  0  0  0  0  0  0  0
  187.7340  177.4760  143.8590 N   0  0  0  0  0  0  0  0  0  0  0  0
  190.2560  177.3430  142.8700 N   0  0  0  0  0  0  0  0  0  0  0  0
  188.8200  177.5670  144.7370 C   0  0  0  0  0  0  0  0  0  0  0  0
  186.4930  177.4580  144.5060 N   0  0  1  0  0  0  0  0  0  0  0  0
  188.3630  177.6660  146.1210 C   0  0  0  0  0  3  0  0  0  0  0  0
  189.1200  177.2170  141.9920 C   0  0  0  0  0  0  0  0  0  0  0  0
  186.8310  177.5790  145.9420 C   0  0  0  0  0  2  0  0  0  0  0  0
  185.7820  178.6740  144.1300 C   0  0  0  0  0  3  0  0  0  0  0  0
  184.9200  178.4030  142.9100 C   0  0  0  0  0  2  0  0  0  0  0  0
  184.2870  178.4570  144.2820 C   0  0  0  0  0  2  0  0  0  0  0  0
  1  8  1  0  0  0  0
  2  5  1  0  0  0  0
  3 16  1  0  0  0  0
  4  1  2  0  0  0  0
  5 12  1  0  0  0  0
  5 23  1  1  0  0  0
  6 19  1  0  0  0  0
  7  4  1  0  0  0  0
  8  9  1  0  0  0  0
  9 24  1  0  0  0  0
 11 15  1  0  0  0  0
 12  6  1  0  0  0  0
 13 14  1  0  0  0  0
 14  6  1  0  0  0  0
 14  8  2  0  0  0  0
 15 24  1  0  0  0  0
 16 18  1  0  0  0  0
 17 12  2  0  0  0  0
 18  2  2  0  0  0  0
 18 17  1  0  0  0  0
 19 22  1  6  0  0  0
 19 20  1  0  0  0  0
 20 10  1  0  0  0  0
 21 13  2  0  0  0  0
 21  4  1  0  0  0  0
 22 11  1  0  0  0  0
 23 10  1  0  0  0  0
 24 28  1  6  0  0  0
 25 26  1  0  0  0  0
 26 16  1  0  0  0  0
 26 27  1  0  0  0  0
 28 36  1  0  0  0  0
 29 33  1  0  0  0  0
 30 31  1  0  0  0  0
 31 34  1  0  0  0  0
 31 33  1  0  0  0  0
 32 29  2  0  0  0  0
 33 35  2  0  0  0  0
 34 38  1  6  0  0  0
 34 37  1  0  0  0  0
 36 30  2  0  0  0  0
 36 32  1  0  0  0  0
 37 35  1  0  0  0  0
 38 40  1  0  0  0  0
 39 38  1  0  0  0  0
 39 40  1  0  0  0  0
M  END
>  <MODEL>
9

>  <REMARK>
 VINA RESULT:      -7.4      3.968      8.906
  Name = 
  4 active torsions:
  status: ('A' for Active; 'I' for Inactive)
    1  A    between atoms: C_6  and  N_26
    2  A    between atoms: C_15  and  N_28
    3  A    between atoms: C_31  and  C_37
    4  A    between atoms: C_37  and  C_40
                            x       y       z     vdW  Elec       q    Type
                         _______ _______ _______ _____ _____    ______ ____

>  <TORSDO>
F 4

$$$$
