=
 OpenBabel10222421533D

 54 60  0  0  1  0  0  0  0  0999 V2000
  191.9000  174.8440  135.5860 C   0  0  2  0  0  0  0  0  0  0  0  0
  190.4860  175.2750  135.8890 C   0  0  1  0  0  0  0  0  0  0  0  0
  189.3380  174.6600  135.4350 O   0  0  0  0  0  0  0  0  0  0  0  0
  192.0420  173.8630  134.6010 O   0  0  0  0  0  1  0  0  0  0  0  0
  191.2350  174.3580  136.8520 C   0  0  0  0  0  2  0  0  0  0  0  0
  189.9370  177.6510  135.9970 O   0  0  0  0  0  1  0  0  0  0  0  0
  188.5660  175.7350  135.9670 C   0  0  2  0  0  0  0  0  0  0  0  0
  188.6470  176.0940  137.4810 C   0  0  1  0  0  0  0  0  0  0  0  0
  187.6490  175.0700  136.9680 C   0  0  1  0  0  3  0  0  0  0  0  0
  189.8270  176.3900  136.5870 C   0  0  1  0  0  0  0  0  0  0  0  0
  193.0100  175.8250  135.7830 C   0  0  0  0  0  3  0  0  0  0  0  0
  194.8310  175.3610  137.5010 O   0  0  0  0  0  0  0  0  0  0  0  0
  193.9470  175.5940  136.6630 C   0  0  0  0  0  0  0  0  0  0  0  0
  187.9870  177.3280  137.7750 O   0  0  0  0  0  0  0  0  0  0  0  0
  188.7830  179.1830  138.8640 O   0  0  0  0  0  0  0  0  0  0  0  0
  188.2270  178.0530  138.9460 C   0  0  0  0  0  0  0  0  0  0  0  0
  187.8580  177.5120  140.2960 C   0  0  0  0  0  2  0  0  0  0  0  0
  187.8980  178.6040  141.3720 C   0  0  2  0  0  3  0  0  0  0  0  0
  189.0430  178.4290  142.1630 O   0  0  0  0  0  0  0  0  0  0  0  0
  189.0610  177.0640  142.4980 C   0  0  1  0  0  3  0  0  0  0  0  0
  190.3160  176.4660  142.3560 C   0  0  2  0  0  3  0  0  0  0  0  0
  189.8820  176.8760  143.7350 N   0  0  0  0  0  0  0  0  0  0  0  0
  190.0910  177.0050  145.1420 C   0  0  0  0  0  0  0  0  0  0  0  0
  191.5820  176.6620  145.7560 S   0  0  0  0  0  0  0  0  0  0  0  0
  185.3200  178.4170  145.7010 C   0  0  0  0  0  1  0  0  0  0  0  0
  186.8710  178.3470  147.6550 C   0  0  0  0  0  3  0  0  0  0  0  0
  188.1290  178.0980  148.2100 C   0  0  0  0  0  3  0  0  0  0  0  0
  189.1790  177.6530  147.3960 C   0  0  0  0  0  3  0  0  0  0  0  0
  188.9840  177.4590  146.0180 C   0  0  0  0  0  0  0  0  0  0  0  0
  186.6610  178.1530  146.2890 C   0  0  0  0  0  0  0  0  0  0  0  0
  187.7130  177.7150  145.4750 C   0  0  0  0  0  3  0  0  0  0  0  0
  191.4570  177.3830  141.8990 C   0  0  0  0  0  2  0  0  0  0  0  0
  192.9960  177.2400  139.9250 C   0  0  0  0  0  1  0  0  0  0  0  0
  191.5540  177.4090  140.3750 C   0  0  0  0  0  2  0  0  0  0  0  0
  186.6370  178.5770  142.2520 C   0  0  0  0  0  2  0  0  0  0  0  0
  185.3970  179.0290  141.4850 C   0  0  0  0  0  2  0  0  0  0  0  0
  184.2990  177.9770  141.5880 C   0  0  0  0  0  2  0  0  0  0  0  0
  183.0390  178.5280  141.1000 N   0  0  0  0  0  2  0  0  0  0  0  0
  182.0030  178.9910  141.9740 C   0  0  0  0  0  3  0  0  0  0  0  0
  182.1420  178.9430  143.2610 N   0  0  0  0  0  2  0  0  0  0  0  0
  186.2240  175.5940  136.8120 C   0  0  0  0  0  2  0  0  0  0  0  0
  185.9090  175.9060  135.3540 C   0  0  1  0  0  3  0  0  0  0  0  0
  185.7260  174.7250  134.6530 F   0  0  0  0  0  0  0  0  0  0  0  0
  184.6780  176.8010  135.2090 C   0  0  0  0  0  2  0  0  0  0  0  0
  183.3870  176.0030  135.0800 C   0  0  0  0  0  2  0  0  0  0  0  0
  182.8220  175.7880  136.3410 O   0  0  0  0  0  0  0  0  0  0  0  0
  183.0070  172.2980  135.0130 C   0  0  0  0  0  2  0  0  0  0  0  0
  182.9890  171.6140  136.3810 C   0  0  1  0  0  3  0  0  0  0  0  0
  181.4080  174.0800  137.1540 C   0  0  0  0  0  2  0  0  0  0  0  0
  181.6520  171.6490  136.9630 N   0  0  0  0  0  0  0  0  0  0  0  0
  182.6710  173.7930  135.0420 C   0  0  0  0  0  2  0  0  0  0  0  0
  183.4240  170.1700  136.2240 C   0  0  0  0  0  1  0  0  0  0  0  0
  182.6870  174.4020  136.4410 C   0  0  1  0  0  3  0  0  0  0  0  0
  180.9620  172.8390  137.3760 C   0  0  0  0  0  3  0  0  0  0  0  0
  1  4  1  6  0  0  0
  1 11  1  0  0  0  0
  1  2  1  0  0  0  0
  1  5  1  0  0  0  0
  2 10  1  0  0  0  0
  2  5  1  1  0  0  0
  3  2  1  0  0  0  0
  7  3  1  1  0  0  0
  7 10  1  0  0  0  0
  7  9  1  0  0  0  0
  7  8  1  0  0  0  0
  8 14  1  1  0  0  0
  9 41  1  6  0  0  0
  9  8  1  0  0  0  0
 10  6  1  6  0  0  0
 10  8  1  0  0  0  0
 11 13  2  0  0  0  0
 13 12  2  0  0  0  0
 14 16  1  0  0  0  0
 15 16  2  0  0  0  0
 16 17  1  0  0  0  0
 18 17  1  6  0  0  0
 18 19  1  0  0  0  0
 18 35  1  0  0  0  0
 20 19  1  6  0  0  0
 20 22  1  0  0  0  0
 21 32  1  6  0  0  0
 21 20  1  0  0  0  0
 21 22  1  0  0  0  0
 22 23  1  0  0  0  0
 23 24  2  0  0  0  0
 23 29  1  0  0  0  0
 25 30  1  0  0  0  0
 26 27  1  0  0  0  0
 28 27  2  0  0  0  0
 29 28  1  0  0  0  0
 30 26  2  0  0  0  0
 31 29  2  0  0  0  0
 31 30  1  0  0  0  0
 33 34  1  0  0  0  0
 34 32  1  0  0  0  0
 36 37  1  0  0  0  0
 36 35  1  0  0  0  0
 38 37  1  0  0  0  0
 38 39  1  0  0  0  0
 39 40  2  0  0  0  0
 42 43  1  6  0  0  0
 42 41  1  0  0  0  0
 44 42  1  0  0  0  0
 45 44  1  0  0  0  0
 45 46  1  0  0  0  0
 47 51  1  0  0  0  0
 47 48  1  0  0  0  0
 48 52  1  6  0  0  0
 48 50  1  0  0  0  0
 49 54  1  0  0  0  0
 50 54  2  0  0  0  0
 51 53  1  0  0  0  0
 53 46  1  6  0  0  0
 53 49  1  0  0  0  0
M  END
>  <MODEL>
1

>  <REMARK>
 VINA RESULT:      -7.3      0.000      0.000
  Name = 
  21 active torsions:
  status: ('A' for Active; 'I' for Inactive)
    1  A    between atoms: C_2  and  N_42
    2  A    between atoms: C_2  and  C_44
    3  A    between atoms: C_3  and  C_8
    4  A    between atoms: C_6  and  O_34
    5  A    between atoms: C_6  and  C_52
    6  A    between atoms: C_7  and  C_28
    7  A    between atoms: C_7  and  N_30
    8  A    between atoms: C_10  and  C_27
    9  A    between atoms: C_10  and  C_52
   10  A    between atoms: C_11  and  C_38
   11  A    between atoms: C_11  and  C_46
   12  A    between atoms: C_13  and  C_28
   13  A    between atoms: C_13  and  C_46
   14  A    between atoms: C_14  and  C_45
   15  A    between atoms: O_17  and  C_35
   16  A    between atoms: O_17  and  C_46
   17  A    between atoms: C_27  and  C_33
   18  A    between atoms: C_32  and  O_36
   19  A    between atoms: O_34  and  C_50
   20  A    between atoms: O_36  and  C_38
   21  A    between atoms: C_37  and  C_45
                            x       y       z     vdW  Elec       q    Type
                         _______ _______ _______ _____ _____    ______ ____

>  <TORSDO>
F 21

$$$$
=
 OpenBabel10222421533D

 54 60  0  0  1  0  0  0  0  0999 V2000
  190.4350  177.5850  145.2870 C   0  0  2  0  0  0  0  0  0  0  0  0
  189.9050  177.3510  143.8940 C   0  0  1  0  0  0  0  0  0  0  0  0
  188.6100  177.5680  143.4730 O   0  0  0  0  0  0  0  0  0  0  0  0
  189.4750  177.8510  146.2680 O   0  0  0  0  0  1  0  0  0  0  0  0
  190.5770  178.6740  144.2500 C   0  0  0  0  0  2  0  0  0  0  0  0
  190.6780  175.4260  142.6080 O   0  0  0  0  0  1  0  0  0  0  0  0
  188.9230  176.9500  142.2260 C   0  0  2  0  0  0  0  0  0  0  0  0
  190.0770  177.5030  141.3370 C   0  0  1  0  0  0  0  0  0  0  0  0
  188.6590  178.0310  141.2020 C   0  0  1  0  0  3  0  0  0  0  0  0
  190.4130  176.7960  142.6280 C   0  0  1  0  0  0  0  0  0  0  0  0
  191.7080  176.9200  145.6950 C   0  0  0  0  0  3  0  0  0  0  0  0
  191.7730  175.4660  147.7840 O   0  0  0  0  0  0  0  0  0  0  0  0
  191.7490  176.1730  146.7660 C   0  0  0  0  0  0  0  0  0  0  0  0
  190.3860  176.6240  140.2520 O   0  0  0  0  0  0  0  0  0  0  0  0
  192.5400  177.0410  139.5820 O   0  0  0  0  0  0  0  0  0  0  0  0
  191.3230  176.9420  139.2650 C   0  0  0  0  0  0  0  0  0  0  0  0
  190.9130  177.1860  137.8420 C   0  0  0  0  0  2  0  0  0  0  0  0
  190.9460  175.8950  137.0150 C   0  0  2  0  0  3  0  0  0  0  0  0
  189.6370  175.4190  136.8500 O   0  0  0  0  0  0  0  0  0  0  0  0
  189.2680  175.7840  135.5440 C   0  0  1  0  0  3  0  0  0  0  0  0
  188.9460  174.6980  134.7250 C   0  0  2  0  0  3  0  0  0  0  0  0
  187.8180  175.4760  135.3410 N   0  0  0  0  0  0  0  0  0  0  0  0
  186.4310  175.7270  135.5740 C   0  0  0  0  0  0  0  0  0  0  0  0
  185.8110  177.1950  135.1500 S   0  0  0  0  0  0  0  0  0  0  0  0
  182.0570  173.2980  135.7510 C   0  0  0  0  0  1  0  0  0  0  0  0
  183.9190  172.6940  137.3000 C   0  0  0  0  0  3  0  0  0  0  0  0
  185.2200  172.8760  137.7780 C   0  0  0  0  0  3  0  0  0  0  0  0
  186.0450  173.8580  137.2120 C   0  0  0  0  0  3  0  0  0  0  0  0
  185.5750  174.6730  136.1690 C   0  0  0  0  0  0  0  0  0  0  0  0
  183.4420  173.4940  136.2600 C   0  0  0  0  0  0  0  0  0  0  0  0
  184.2640  174.4800  135.7000 C   0  0  0  0  0  3  0  0  0  0  0  0
  189.0110  173.3120  135.3800 C   0  0  0  0  0  2  0  0  0  0  0  0
  191.0280  171.9500  134.7750 C   0  0  0  0  0  1  0  0  0  0  0  0
  189.5900  172.2830  134.4100 C   0  0  0  0  0  2  0  0  0  0  0  0
  191.8200  174.8200  137.6800 C   0  0  0  0  0  2  0  0  0  0  0  0
  193.0060  174.4250  136.8030 C   0  0  0  0  0  2  0  0  0  0  0  0
  194.2110  175.3030  137.1170 C   0  0  0  0  0  2  0  0  0  0  0  0
  194.3840  176.2990  136.0640 N   0  0  0  0  0  2  0  0  0  0  0  0
  195.6520  176.5780  135.4580 C   0  0  0  0  0  3  0  0  0  0  0  0
  196.7210  175.9440  135.8230 N   0  0  0  0  0  2  0  0  0  0  0  0
  187.8790  177.4620  140.0210 C   0  0  0  0  0  2  0  0  0  0  0  0
  187.0770  178.5490  139.3150 C   0  0  1  0  0  3  0  0  0  0  0  0
  187.4950  178.6570  137.9990 F   0  0  0  0  0  0  0  0  0  0  0  0
  185.5730  178.2850  139.3720 C   0  0  0  0  0  2  0  0  0  0  0  0
  185.0270  178.3220  140.7930 C   0  0  0  0  0  2  0  0  0  0  0  0
  185.3300  179.5450  141.3980 O   0  0  0  0  0  0  0  0  0  0  0  0
  185.8240  177.8530  144.6940 C   0  0  0  0  0  2  0  0  0  0  0  0
  185.1750  178.9570  145.5310 C   0  0  1  0  0  3  0  0  0  0  0  0
  183.5910  179.4090  142.9880 C   0  0  0  0  0  3  0  0  0  0  0  0
  183.7250  178.9340  145.3890 N   0  0  0  0  0  2  0  0  0  0  0  0
  185.6120  177.9880  143.1820 C   0  0  0  0  0  2  0  0  0  0  0  0
  185.5360  178.7560  146.9890 C   0  0  0  0  0  1  0  0  0  0  0  0
  185.0700  179.3500  142.7550 C   0  0  1  0  0  3  0  0  0  0  0  0
  183.0080  179.2170  144.1770 C   0  0  0  0  0  3  0  0  0  0  0  0
  1 11  1  0  0  0  0
  1  4  1  1  0  0  0
  2  5  1  6  0  0  0
  2  1  1  0  0  0  0
  3  2  1  0  0  0  0
  5  1  1  0  0  0  0
  7 10  1  0  0  0  0
  7  3  1  1  0  0  0
  8 14  1  6  0  0  0
  8  7  1  0  0  0  0
  8 10  1  0  0  0  0
  9 41  1  6  0  0  0
  9  8  1  0  0  0  0
  9  7  1  0  0  0  0
 10  6  1  6  0  0  0
 10  2  1  0  0  0  0
 11 13  2  0  0  0  0
 13 12  2  0  0  0  0
 16 15  2  0  0  0  0
 16 14  1  0  0  0  0
 17 16  1  0  0  0  0
 18 35  1  1  0  0  0
 18 17  1  0  0  0  0
 19 18  1  0  0  0  0
 20 19  1  1  0  0  0
 21 22  1  0  0  0  0
 21 32  1  1  0  0  0
 21 20  1  0  0  0  0
 22 20  1  0  0  0  0
 22 23  1  0  0  0  0
 23 29  1  0  0  0  0
 24 23  2  0  0  0  0
 25 30  1  0  0  0  0
 26 27  1  0  0  0  0
 28 27  2  0  0  0  0
 29 28  1  0  0  0  0
 30 26  2  0  0  0  0
 31 29  2  0  0  0  0
 31 30  1  0  0  0  0
 34 33  1  0  0  0  0
 34 32  1  0  0  0  0
 36 37  1  0  0  0  0
 36 35  1  0  0  0  0
 38 37  1  0  0  0  0
 39 40  2  0  0  0  0
 39 38  1  0  0  0  0
 42 43  1  6  0  0  0
 42 44  1  0  0  0  0
 42 41  1  0  0  0  0
 44 45  1  0  0  0  0
 45 46  1  0  0  0  0
 47 48  1  0  0  0  0
 48 52  1  1  0  0  0
 49 54  2  0  0  0  0
 50 48  1  0  0  0  0
 51 47  1  0  0  0  0
 53 46  1  6  0  0  0
 53 49  1  0  0  0  0
 53 51  1  0  0  0  0
 54 50  1  0  0  0  0
M  END
>  <MODEL>
2

>  <REMARK>
 VINA RESULT:      -7.1      3.497      9.345
  Name = 
  21 active torsions:
  status: ('A' for Active; 'I' for Inactive)
    1  A    between atoms: C_2  and  N_42
    2  A    between atoms: C_2  and  C_44
    3  A    between atoms: C_3  and  C_8
    4  A    between atoms: C_6  and  O_34
    5  A    between atoms: C_6  and  C_52
    6  A    between atoms: C_7  and  C_28
    7  A    between atoms: C_7  and  N_30
    8  A    between atoms: C_10  and  C_27
    9  A    between atoms: C_10  and  C_52
   10  A    between atoms: C_11  and  C_38
   11  A    between atoms: C_11  and  C_46
   12  A    between atoms: C_13  and  C_28
   13  A    between atoms: C_13  and  C_46
   14  A    between atoms: C_14  and  C_45
   15  A    between atoms: O_17  and  C_35
   16  A    between atoms: O_17  and  C_46
   17  A    between atoms: C_27  and  C_33
   18  A    between atoms: C_32  and  O_36
   19  A    between atoms: O_34  and  C_50
   20  A    between atoms: O_36  and  C_38
   21  A    between atoms: C_37  and  C_45
                            x       y       z     vdW  Elec       q    Type
                         _______ _______ _______ _____ _____    ______ ____

>  <TORSDO>
F 21

$$$$
=
 OpenBabel10222421533D

 54 60  0  0  1  0  0  0  0  0999 V2000
  192.3690  174.6590  135.9760 C   0  0  2  0  0  0  0  0  0  0  0  0
  190.8820  174.8560  136.1420 C   0  0  1  0  0  0  0  0  0  0  0  0
  189.9000  173.9650  135.7640 O   0  0  0  0  0  0  0  0  0  0  0  0
  192.7560  173.5700  135.1890 O   0  0  0  0  0  1  0  0  0  0  0  0
  191.7150  174.2760  137.2820 C   0  0  0  0  0  2  0  0  0  0  0  0
  189.9040  177.0660  135.8000 O   0  0  0  0  0  1  0  0  0  0  0  0
  188.9100  174.9470  136.0630 C   0  0  2  0  0  0  0  0  0  0  0  0
  188.8170  175.5660  137.4910 C   0  0  1  0  0  0  0  0  0  0  0  0
  188.0600  174.2980  137.1330 C   0  0  1  0  0  3  0  0  0  0  0  0
  189.9830  175.9270  136.6040 C   0  0  1  0  0  0  0  0  0  0  0  0
  193.2650  175.8530  136.0340 C   0  0  0  0  0  3  0  0  0  0  0  0
  195.7290  175.5690  136.6100 O   0  0  0  0  0  0  0  0  0  0  0  0
  194.5300  175.7150  136.3300 C   0  0  0  0  0  0  0  0  0  0  0  0
  187.9240  176.6820  137.5330 O   0  0  0  0  0  0  0  0  0  0  0  0
  187.4830  178.7820  138.3430 O   0  0  0  0  0  0  0  0  0  0  0  0
  187.9470  177.6290  138.5610 C   0  0  0  0  0  0  0  0  0  0  0  0
  188.5260  177.3130  139.9080 C   0  0  0  0  0  2  0  0  0  0  0  0
  188.0890  178.3350  140.9650 C   0  0  2  0  0  3  0  0  0  0  0  0
  189.0090  178.3250  142.0240 O   0  0  0  0  0  0  0  0  0  0  0  0
  189.1270  176.9770  142.4040 C   0  0  1  0  0  3  0  0  0  0  0  0
  190.4320  176.4830  142.3290 C   0  0  2  0  0  3  0  0  0  0  0  0
  189.9110  176.8950  143.6760 N   0  0  0  0  0  0  0  0  0  0  0  0
  190.0510  177.0830  145.0860 C   0  0  0  0  0  0  0  0  0  0  0  0
  191.5280  176.8330  145.7740 S   0  0  0  0  0  0  0  0  0  0  0  0
  185.2620  178.5220  145.3540 C   0  0  0  0  0  1  0  0  0  0  0  0
  186.6670  178.3600  147.4100 C   0  0  0  0  0  3  0  0  0  0  0  0
  187.8800  178.0770  148.0440 C   0  0  0  0  0  3  0  0  0  0  0  0
  188.9830  177.6520  147.2910 C   0  0  0  0  0  3  0  0  0  0  0  0
  188.8870  177.5140  145.8960 C   0  0  0  0  0  0  0  0  0  0  0  0
  186.5560  178.2220  146.0260 C   0  0  0  0  0  0  0  0  0  0  0  0
  187.6600  177.8040  145.2730 C   0  0  0  0  0  3  0  0  0  0  0  0
  191.5110  177.4800  141.8860 C   0  0  0  0  0  2  0  0  0  0  0  0
  193.3210  177.3320  140.1580 C   0  0  0  0  0  1  0  0  0  0  0  0
  191.8210  177.3170  140.3990 C   0  0  0  0  0  2  0  0  0  0  0  0
  186.6750  178.0360  141.4900 C   0  0  0  0  0  2  0  0  0  0  0  0
  185.9230  179.3110  141.8610 C   0  0  0  0  0  2  0  0  0  0  0  0
  184.4640  178.9940  142.1690 C   0  0  0  0  0  2  0  0  0  0  0  0
  183.8060  178.4810  140.9710 N   0  0  0  0  0  2  0  0  0  0  0  0
  182.3860  178.3230  140.8710 C   0  0  0  0  0  3  0  0  0  0  0  0
  181.6070  178.6380  141.8570 N   0  0  0  0  0  2  0  0  0  0  0  0
  186.5790  174.5050  136.8310 C   0  0  0  0  0  2  0  0  0  0  0  0
  185.8230  173.1820  136.8440 C   0  0  1  0  0  3  0  0  0  0  0  0
  185.2870  172.9630  138.1020 F   0  0  0  0  0  0  0  0  0  0  0  0
  184.7210  173.1370  135.7860 C   0  0  0  0  0  2  0  0  0  0  0  0
  183.6730  172.0720  136.0800 C   0  0  0  0  0  2  0  0  0  0  0  0
  182.3970  172.6430  136.1170 O   0  0  0  0  0  0  0  0  0  0  0  0
  182.8130  175.7880  138.0950 C   0  0  0  0  0  2  0  0  0  0  0  0
  183.4850  176.5840  136.9750 C   0  0  1  0  0  3  0  0  0  0  0  0
  181.8330  174.7520  135.2170 C   0  0  0  0  0  3  0  0  0  0  0  0
  182.5130  176.9840  135.9650 N   0  0  0  0  0  2  0  0  0  0  0  0
  182.1930  174.4580  137.6510 C   0  0  0  0  0  2  0  0  0  0  0  0
  184.1320  177.8230  137.5620 C   0  0  0  0  0  1  0  0  0  0  0  0
  182.6230  174.0140  136.2550 C   0  0  1  0  0  3  0  0  0  0  0  0
  181.7960  176.0840  135.1060 C   0  0  0  0  0  3  0  0  0  0  0  0
  1  4  1  6  0  0  0
  1 11  1  0  0  0  0
  1  2  1  0  0  0  0
  1  5  1  0  0  0  0
  2 10  1  0  0  0  0
  2  5  1  1  0  0  0
  3  2  1  0  0  0  0
  7  3  1  1  0  0  0
  7 10  1  0  0  0  0
  7  9  1  0  0  0  0
  7  8  1  0  0  0  0
  8 14  1  6  0  0  0
  9 41  1  6  0  0  0
  9  8  1  0  0  0  0
 10  6  1  6  0  0  0
 10  8  1  0  0  0  0
 11 13  2  0  0  0  0
 13 12  2  0  0  0  0
 14 16  1  0  0  0  0
 15 16  2  0  0  0  0
 16 17  1  0  0  0  0
 18 17  1  6  0  0  0
 18 35  1  0  0  0  0
 18 19  1  0  0  0  0
 20 19  1  6  0  0  0
 20 22  1  0  0  0  0
 21 32  1  6  0  0  0
 21 20  1  0  0  0  0
 21 22  1  0  0  0  0
 22 23  1  0  0  0  0
 23 24  2  0  0  0  0
 23 29  1  0  0  0  0
 25 30  1  0  0  0  0
 26 27  1  0  0  0  0
 28 27  2  0  0  0  0
 29 28  1  0  0  0  0
 30 26  2  0  0  0  0
 31 29  2  0  0  0  0
 31 30  1  0  0  0  0
 33 34  1  0  0  0  0
 34 32  1  0  0  0  0
 35 36  1  0  0  0  0
 36 37  1  0  0  0  0
 38 37  1  0  0  0  0
 39 38  1  0  0  0  0
 39 40  2  0  0  0  0
 41 42  1  0  0  0  0
 42 43  1  1  0  0  0
 44 45  1  0  0  0  0
 44 42  1  0  0  0  0
 45 46  1  0  0  0  0
 48 52  1  1  0  0  0
 48 47  1  0  0  0  0
 49 53  1  0  0  0  0
 50 48  1  0  0  0  0
 51 47  1  0  0  0  0
 53 46  1  1  0  0  0
 53 51  1  0  0  0  0
 54 49  2  0  0  0  0
 54 50  1  0  0  0  0
M  END
>  <MODEL>
3

>  <REMARK>
 VINA RESULT:      -6.9      1.412      2.166
  Name = 
  21 active torsions:
  status: ('A' for Active; 'I' for Inactive)
    1  A    between atoms: C_2  and  N_42
    2  A    between atoms: C_2  and  C_44
    3  A    between atoms: C_3  and  C_8
    4  A    between atoms: C_6  and  O_34
    5  A    between atoms: C_6  and  C_52
    6  A    between atoms: C_7  and  C_28
    7  A    between atoms: C_7  and  N_30
    8  A    between atoms: C_10  and  C_27
    9  A    between atoms: C_10  and  C_52
   10  A    between atoms: C_11  and  C_38
   11  A    between atoms: C_11  and  C_46
   12  A    between atoms: C_13  and  C_28
   13  A    between atoms: C_13  and  C_46
   14  A    between atoms: C_14  and  C_45
   15  A    between atoms: O_17  and  C_35
   16  A    between atoms: O_17  and  C_46
   17  A    between atoms: C_27  and  C_33
   18  A    between atoms: C_32  and  O_36
   19  A    between atoms: O_34  and  C_50
   20  A    between atoms: O_36  and  C_38
   21  A    between atoms: C_37  and  C_45
                            x       y       z     vdW  Elec       q    Type
                         _______ _______ _______ _____ _____    ______ ____

>  <TORSDO>
F 21

$$$$
=
 OpenBabel10222421533D

 54 60  0  0  1  0  0  0  0  0999 V2000
  190.3250  177.8810  144.9300 C   0  0  2  0  0  0  0  0  0  0  0  0
  189.8630  177.5450  143.5330 C   0  0  1  0  0  0  0  0  0  0  0  0
  188.5910  177.7290  143.0350 O   0  0  0  0  0  0  0  0  0  0  0  0
  189.3200  178.2170  145.8410 O   0  0  0  0  0  1  0  0  0  0  0  0
  190.5200  178.8910  143.8240 C   0  0  0  0  0  2  0  0  0  0  0  0
  190.6920  175.5310  142.4310 O   0  0  0  0  0  1  0  0  0  0  0  0
  188.9620  177.0210  141.8540 C   0  0  2  0  0  0  0  0  0  0  0  0
  190.1600  177.5090  140.9840 C   0  0  1  0  0  0  0  0  0  0  0  0
  188.7520  178.0240  140.7420 C   0  0  1  0  0  3  0  0  0  0  0  0
  190.4300  176.8990  142.3380 C   0  0  1  0  0  0  0  0  0  0  0  0
  191.5750  177.2470  145.4470 C   0  0  0  0  0  3  0  0  0  0  0  0
  191.5030  175.8220  147.5560 O   0  0  0  0  0  0  0  0  0  0  0  0
  191.5460  176.5150  146.5290 C   0  0  0  0  0  0  0  0  0  0  0  0
  190.5180  176.5530  139.9820 O   0  0  0  0  0  0  0  0  0  0  0  0
  192.7210  177.0370  139.5620 O   0  0  0  0  0  0  0  0  0  0  0  0
  191.5840  176.7470  139.0990 C   0  0  0  0  0  0  0  0  0  0  0  0
  191.4020  176.6380  137.6130 C   0  0  0  0  0  2  0  0  0  0  0  0
  190.6870  175.3370  137.2260 C   0  0  2  0  0  3  0  0  0  0  0  0
  191.4380  174.6730  136.2450 O   0  0  0  0  0  0  0  0  0  0  0  0
  192.3440  173.8640  136.9520 C   0  0  1  0  0  3  0  0  0  0  0  0
  192.7460  172.7230  136.2520 C   0  0  2  0  0  3  0  0  0  0  0  0
  193.6730  173.9050  136.2660 N   0  0  0  0  0  0  0  0  0  0  0  0
  194.8830  174.5710  135.8980 C   0  0  0  0  0  0  0  0  0  0  0  0
  194.7850  175.9520  135.0030 S   0  0  0  0  0  0  0  0  0  0  0  0
  197.7500  170.6520  137.1200 C   0  0  0  0  0  1  0  0  0  0  0  0
  198.6590  172.9750  137.1940 C   0  0  0  0  0  3  0  0  0  0  0  0
  198.5090  174.3540  137.0220 C   0  0  0  0  0  3  0  0  0  0  0  0
  197.2810  174.8770  136.5920 C   0  0  0  0  0  3  0  0  0  0  0  0
  196.1910  174.0290  136.3360 C   0  0  0  0  0  0  0  0  0  0  0  0
  197.5860  172.1200  136.9380 C   0  0  0  0  0  0  0  0  0  0  0  0
  196.3580  172.6440  136.5160 C   0  0  0  0  0  3  0  0  0  0  0  0
  192.1720  172.5560  134.8390 C   0  0  0  0  0  2  0  0  0  0  0  0
  192.6650  170.0990  134.8840 C   0  0  0  0  0  1  0  0  0  0  0  0
  191.5970  171.1540  134.6500 C   0  0  0  0  0  2  0  0  0  0  0  0
  189.2640  175.6070  136.7110 C   0  0  0  0  0  2  0  0  0  0  0  0
  188.6190  174.3500  136.1330 C   0  0  0  0  0  2  0  0  0  0  0  0
  187.2730  174.6870  135.5040 C   0  0  0  0  0  2  0  0  0  0  0  0
  186.2690  174.8600  136.5500 N   0  0  0  0  0  2  0  0  0  0  0  0
  185.7990  173.7790  137.3630 C   0  0  0  0  0  3  0  0  0  0  0  0
  186.2540  172.5770  137.2060 N   0  0  0  0  0  2  0  0  0  0  0  0
  188.0280  177.3700  139.5680 C   0  0  0  0  0  2  0  0  0  0  0  0
  187.4210  178.4170  138.6420 C   0  0  1  0  0  3  0  0  0  0  0  0
  188.3100  178.7070  137.6210 F   0  0  0  0  0  0  0  0  0  0  0  0
  186.0800  177.9660  138.0630 C   0  0  0  0  0  2  0  0  0  0  0  0
  184.8930  178.5900  138.7860 C   0  0  0  0  0  2  0  0  0  0  0  0
  185.3350  179.5320  139.7200 O   0  0  0  0  0  0  0  0  0  0  0  0
  184.7740  178.1870  143.1620 C   0  0  0  0  0  2  0  0  0  0  0  0
  183.5320  179.0300  143.4540 C   0  0  1  0  0  3  0  0  0  0  0  0
  183.1920  178.8590  140.4480 C   0  0  0  0  0  3  0  0  0  0  0  0
  182.3730  178.5170  142.7330 N   0  0  0  0  0  2  0  0  0  0  0  0
  185.2300  178.2050  141.6980 C   0  0  0  0  0  2  0  0  0  0  0  0
  183.2450  178.9980  144.9420 C   0  0  0  0  0  1  0  0  0  0  0  0
  184.5660  179.2950  140.8600 C   0  0  1  0  0  3  0  0  0  0  0  0
  182.2250  178.5130  141.3040 C   0  0  0  0  0  3  0  0  0  0  0  0
  1 11  1  0  0  0  0
  1  4  1  1  0  0  0
  2  5  1  6  0  0  0
  2  1  1  0  0  0  0
  3  2  1  0  0  0  0
  5  1  1  0  0  0  0
  7 10  1  0  0  0  0
  7  3  1  1  0  0  0
  8 14  1  6  0  0  0
  8  7  1  0  0  0  0
  8 10  1  0  0  0  0
  9 41  1  6  0  0  0
  9  8  1  0  0  0  0
  9  7  1  0  0  0  0
 10  6  1  1  0  0  0
 10  2  1  0  0  0  0
 11 13  2  0  0  0  0
 13 12  2  0  0  0  0
 16 15  2  0  0  0  0
 16 14  1  0  0  0  0
 17 16  1  0  0  0  0
 18 35  1  6  0  0  0
 18 17  1  0  0  0  0
 19 18  1  0  0  0  0
 20 19  1  6  0  0  0
 21 32  1  6  0  0  0
 21 22  1  0  0  0  0
 21 20  1  0  0  0  0
 22 20  1  0  0  0  0
 23 22  1  0  0  0  0
 23 29  1  0  0  0  0
 24 23  2  0  0  0  0
 27 26  1  0  0  0  0
 28 27  2  0  0  0  0
 29 31  2  0  0  0  0
 29 28  1  0  0  0  0
 30 25  1  0  0  0  0
 30 26  2  0  0  0  0
 31 30  1  0  0  0  0
 34 32  1  0  0  0  0
 34 33  1  0  0  0  0
 36 35  1  0  0  0  0
 37 36  1  0  0  0  0
 37 38  1  0  0  0  0
 38 39  1  0  0  0  0
 40 39  2  0  0  0  0
 42 43  1  6  0  0  0
 42 41  1  0  0  0  0
 44 42  1  0  0  0  0
 44 45  1  0  0  0  0
 45 46  1  0  0  0  0
 47 48  1  0  0  0  0
 48 52  1  1  0  0  0
 49 53  1  0  0  0  0
 49 54  2  0  0  0  0
 50 48  1  0  0  0  0
 51 47  1  0  0  0  0
 53 46  1  6  0  0  0
 53 51  1  0  0  0  0
 54 50  1  0  0  0  0
M  END
>  <MODEL>
4

>  <REMARK>
 VINA RESULT:      -6.7      3.521      9.088
  Name = 
  21 active torsions:
  status: ('A' for Active; 'I' for Inactive)
    1  A    between atoms: C_2  and  N_42
    2  A    between atoms: C_2  and  C_44
    3  A    between atoms: C_3  and  C_8
    4  A    between atoms: C_6  and  O_34
    5  A    between atoms: C_6  and  C_52
    6  A    between atoms: C_7  and  C_28
    7  A    between atoms: C_7  and  N_30
    8  A    between atoms: C_10  and  C_27
    9  A    between atoms: C_10  and  C_52
   10  A    between atoms: C_11  and  C_38
   11  A    between atoms: C_11  and  C_46
   12  A    between atoms: C_13  and  C_28
   13  A    between atoms: C_13  and  C_46
   14  A    between atoms: C_14  and  C_45
   15  A    between atoms: O_17  and  C_35
   16  A    between atoms: O_17  and  C_46
   17  A    between atoms: C_27  and  C_33
   18  A    between atoms: C_32  and  O_36
   19  A    between atoms: O_34  and  C_50
   20  A    between atoms: O_36  and  C_38
   21  A    between atoms: C_37  and  C_45
                            x       y       z     vdW  Elec       q    Type
                         _______ _______ _______ _____ _____    ______ ____

>  <TORSDO>
F 21

$$$$
=
 OpenBabel10222421533D

 54 60  0  0  1  0  0  0  0  0999 V2000
  191.4570  174.3110  136.5960 C   0  0  2  0  0  0  0  0  0  0  0  0
  190.2560  175.2000  136.3920 C   0  0  1  0  0  0  0  0  0  0  0  0
  189.3670  175.1310  135.3400 O   0  0  0  0  0  0  0  0  0  0  0  0
  191.7970  173.4880  135.5180 O   0  0  0  0  0  1  0  0  0  0  0  0
  190.1490  173.9500  137.2600 C   0  0  0  0  0  2  0  0  0  0  0  0
  190.3900  177.5710  136.9570 O   0  0  0  0  0  1  0  0  0  0  0  0
  188.7560  176.3380  135.7910 C   0  0  2  0  0  0  0  0  0  0  0  0
  188.1690  176.4370  137.2320 C   0  0  1  0  0  0  0  0  0  0  0  0
  187.3230  175.9430  136.0710 C   0  0  1  0  0  3  0  0  0  0  0  0
  189.6660  176.3800  137.0460 C   0  0  1  0  0  0  0  0  0  0  0  0
  192.5410  174.7640  137.5190 C   0  0  0  0  0  3  0  0  0  0  0  0
  194.1400  176.6090  136.7960 O   0  0  0  0  0  0  0  0  0  0  0  0
  193.3650  175.7100  137.1550 C   0  0  0  0  0  0  0  0  0  0  0  0
  187.8110  177.7790  137.5730 O   0  0  0  0  0  0  0  0  0  0  0  0
  188.5250  179.0850  139.3180 O   0  0  0  0  0  0  0  0  0  0  0  0
  187.7090  178.2210  138.8960 C   0  0  0  0  0  0  0  0  0  0  0  0
  186.6660  177.6770  139.8270 C   0  0  0  0  0  2  0  0  0  0  0  0
  185.6730  178.7640  140.2590 C   0  0  2  0  0  3  0  0  0  0  0  0
  185.1380  178.4280  141.5110 O   0  0  0  0  0  0  0  0  0  0  0  0
  185.7440  179.3070  142.4250 C   0  0  1  0  0  3  0  0  0  0  0  0
  185.1380  179.3150  143.6850 C   0  0  2  0  0  3  0  0  0  0  0  0
  186.3950  178.5100  143.5110 N   0  0  0  0  0  0  0  0  0  0  0  0
  187.4190  177.6390  143.9960 C   0  0  0  0  0  0  0  0  0  0  0  0
  188.1500  176.6110  142.9340 S   0  0  0  0  0  0  0  0  0  0  0  0
  190.8560  176.8540  147.5510 C   0  0  0  0  0  1  0  0  0  0  0  0
  188.5940  177.7350  148.1310 C   0  0  0  0  0  3  0  0  0  0  0  0
  187.3120  178.1520  147.7610 C   0  0  0  0  0  3  0  0  0  0  0  0
  186.9270  178.1300  146.4130 C   0  0  0  0  0  3  0  0  0  0  0  0
  187.8180  177.6840  145.4230 C   0  0  0  0  0  0  0  0  0  0  0  0
  189.4910  177.2950  147.1550 C   0  0  0  0  0  0  0  0  0  0  0  0
  189.1040  177.2670  145.8100 C   0  0  0  0  0  3  0  0  0  0  0  0
  183.9550  178.3570  143.8760 C   0  0  0  0  0  2  0  0  0  0  0  0
  181.6460  179.1100  143.2530 C   0  0  0  0  0  1  0  0  0  0  0  0
  182.7130  179.1180  144.3360 C   0  0  0  0  0  2  0  0  0  0  0  0
  184.5450  178.9400  139.2300 C   0  0  0  0  0  2  0  0  0  0  0  0
  183.1690  178.6900  139.8440 C   0  0  0  0  0  2  0  0  0  0  0  0
  182.6910  177.2820  139.5140 C   0  0  0  0  0  2  0  0  0  0  0  0
  181.4820  177.3490  138.6980 N   0  0  0  0  0  2  0  0  0  0  0  0
  180.1640  177.3190  139.2580 C   0  0  0  0  0  3  0  0  0  0  0  0
  179.9820  177.2310  140.5370 N   0  0  0  0  0  2  0  0  0  0  0  0
  186.3650  176.9830  135.4950 C   0  0  0  0  0  2  0  0  0  0  0  0
  185.1450  176.3200  134.8670 C   0  0  1  0  0  3  0  0  0  0  0  0
  185.3680  174.9590  134.7400 F   0  0  0  0  0  0  0  0  0  0  0  0
  183.8720  176.5740  135.6740 C   0  0  0  0  0  2  0  0  0  0  0  0
  182.6080  176.3590  134.8510 C   0  0  0  0  0  2  0  0  0  0  0  0
  181.5380  176.0200  135.6850 O   0  0  0  0  0  0  0  0  0  0  0  0
  182.4870  172.4750  134.9740 C   0  0  0  0  0  2  0  0  0  0  0  0
  182.7630  172.0970  136.4300 C   0  0  1  0  0  3  0  0  0  0  0  0
  180.6820  174.2320  136.9680 C   0  0  0  0  0  3  0  0  0  0  0  0
  181.5190  171.9370  137.1720 N   0  0  0  0  0  2  0  0  0  0  0  0
  181.7850  173.8250  134.7860 C   0  0  0  0  0  2  0  0  0  0  0  0
  183.5360  170.7940  136.4690 C   0  0  0  0  0  1  0  0  0  0  0  0
  181.7690  174.6910  136.0430 C   0  0  1  0  0  3  0  0  0  0  0  0
  180.5880  172.9930  137.4610 C   0  0  0  0  0  3  0  0  0  0  0  0
  1  4  1  6  0  0  0
  1  5  1  0  0  0  0
  1 11  1  0  0  0  0
  2  1  1  0  0  0  0
  2 10  1  0  0  0  0
  2  5  1  1  0  0  0
  3  2  1  0  0  0  0
  7  3  1  1  0  0  0
  7  9  1  0  0  0  0
  7 10  1  0  0  0  0
  7  8  1  0  0  0  0
  8 14  1  1  0  0  0
  9 41  1  6  0  0  0
  9  8  1  0  0  0  0
 10  6  1  1  0  0  0
 10  8  1  0  0  0  0
 12 13  2  0  0  0  0
 13 11  2  0  0  0  0
 14 16  1  0  0  0  0
 16 15  2  0  0  0  0
 16 17  1  0  0  0  0
 17 18  1  0  0  0  0
 18 35  1  6  0  0  0
 18 19  1  0  0  0  0
 20 19  1  6  0  0  0
 20 22  1  0  0  0  0
 20 21  1  0  0  0  0
 21 32  1  6  0  0  0
 22 21  1  0  0  0  0
 22 23  1  0  0  0  0
 23 29  1  0  0  0  0
 24 23  2  0  0  0  0
 27 26  1  0  0  0  0
 28 27  2  0  0  0  0
 29 31  2  0  0  0  0
 29 28  1  0  0  0  0
 30 25  1  0  0  0  0
 30 26  2  0  0  0  0
 31 30  1  0  0  0  0
 32 34  1  0  0  0  0
 33 34  1  0  0  0  0
 35 36  1  0  0  0  0
 37 36  1  0  0  0  0
 38 39  1  0  0  0  0
 38 37  1  0  0  0  0
 39 40  2  0  0  0  0
 42 43  1  1  0  0  0
 42 41  1  0  0  0  0
 42 44  1  0  0  0  0
 45 44  1  0  0  0  0
 45 46  1  0  0  0  0
 47 48  1  0  0  0  0
 48 52  1  6  0  0  0
 48 50  1  0  0  0  0
 49 54  2  0  0  0  0
 50 54  1  0  0  0  0
 51 47  1  0  0  0  0
 51 53  1  0  0  0  0
 53 46  1  6  0  0  0
 53 49  1  0  0  0  0
M  END
>  <MODEL>
5

>  <REMARK>
 VINA RESULT:      -6.4      1.808      3.272
  Name = 
  21 active torsions:
  status: ('A' for Active; 'I' for Inactive)
    1  A    between atoms: C_2  and  N_42
    2  A    between atoms: C_2  and  C_44
    3  A    between atoms: C_3  and  C_8
    4  A    between atoms: C_6  and  O_34
    5  A    between atoms: C_6  and  C_52
    6  A    between atoms: C_7  and  C_28
    7  A    between atoms: C_7  and  N_30
    8  A    between atoms: C_10  and  C_27
    9  A    between atoms: C_10  and  C_52
   10  A    between atoms: C_11  and  C_38
   11  A    between atoms: C_11  and  C_46
   12  A    between atoms: C_13  and  C_28
   13  A    between atoms: C_13  and  C_46
   14  A    between atoms: C_14  and  C_45
   15  A    between atoms: O_17  and  C_35
   16  A    between atoms: O_17  and  C_46
   17  A    between atoms: C_27  and  C_33
   18  A    between atoms: C_32  and  O_36
   19  A    between atoms: O_34  and  C_50
   20  A    between atoms: O_36  and  C_38
   21  A    between atoms: C_37  and  C_45
                            x       y       z     vdW  Elec       q    Type
                         _______ _______ _______ _____ _____    ______ ____

>  <TORSDO>
F 21

$$$$
=
 OpenBabel10222421533D

 54 60  0  0  1  0  0  0  0  0999 V2000
  192.9820  175.1740  136.8680 C   0  0  2  0  0  0  0  0  0  0  0  0
  191.8410  176.0250  137.3680 C   0  0  1  0  0  0  0  0  0  0  0  0
  190.9030  176.6610  136.5840 O   0  0  0  0  0  0  0  0  0  0  0  0
  193.2120  175.2080  135.4890 O   0  0  0  0  0  1  0  0  0  0  0  0
  191.6840  174.5110  137.2620 C   0  0  0  0  0  2  0  0  0  0  0  0
  192.1750  177.4990  139.2850 O   0  0  0  0  0  1  0  0  0  0  0  0
  190.4030  177.3270  137.7420 C   0  0  2  0  0  0  0  0  0  0  0  0
  189.8920  176.5090  138.9650 C   0  0  1  0  0  0  0  0  0  0  0  0
  188.9600  176.8850  137.8270 C   0  0  1  0  0  3  0  0  0  0  0  0
  191.3710  176.5410  138.6630 C   0  0  1  0  0  0  0  0  0  0  0  0
  194.1370  174.9100  137.7780 C   0  0  0  0  0  3  0  0  0  0  0  0
  196.5180  175.0390  136.8840 O   0  0  0  0  0  0  0  0  0  0  0  0
  195.3620  174.9740  137.3260 C   0  0  0  0  0  0  0  0  0  0  0  0
  189.6490  177.3420  140.1030 O   0  0  0  0  0  0  0  0  0  0  0  0
  190.7140  176.5150  141.9590 O   0  0  0  0  0  0  0  0  0  0  0  0
  189.6270  176.8480  141.4100 C   0  0  0  0  0  0  0  0  0  0  0  0
  188.3420  176.6870  142.1680 C   0  0  0  0  0  2  0  0  0  0  0  0
  187.7750  178.0410  142.6120 C   0  0  2  0  0  3  0  0  0  0  0  0
  186.8410  177.8350  143.6380 O   0  0  0  0  0  0  0  0  0  0  0  0
  187.0080  178.9170  144.5190 C   0  0  1  0  0  3  0  0  0  0  0  0
  185.9770  179.0480  145.4530 C   0  0  2  0  0  3  0  0  0  0  0  0
  187.2530  178.3910  145.8980 N   0  0  0  0  0  0  0  0  0  0  0  0
  188.0710  177.7450  146.8750 C   0  0  0  0  0  0  0  0  0  0  0  0
  187.4790  177.5550  148.4020 S   0  0  0  0  0  0  0  0  0  0  0  0
  192.3660  175.5180  148.1650 C   0  0  0  0  0  1  0  0  0  0  0  0
  191.9860  176.3080  145.8290 C   0  0  0  0  0  3  0  0  0  0  0  0
  191.1840  176.9140  144.8570 C   0  0  0  0  0  3  0  0  0  0  0  0
  189.9040  177.3770  145.1920 C   0  0  0  0  0  3  0  0  0  0  0  0
  189.4160  177.2440  146.5030 C   0  0  0  0  0  0  0  0  0  0  0  0
  191.5110  176.1650  147.1340 C   0  0  0  0  0  0  0  0  0  0  0  0
  190.2350  176.6340  147.4690 C   0  0  0  0  0  3  0  0  0  0  0  0
  184.8670  177.9910  145.3920 C   0  0  0  0  0  2  0  0  0  0  0  0
  182.9150  179.0980  144.2730 C   0  0  0  0  0  1  0  0  0  0  0  0
  183.4960  178.6320  145.5980 C   0  0  0  0  0  2  0  0  0  0  0  0
  187.1200  178.7910  141.4420 C   0  0  0  0  0  2  0  0  0  0  0  0
  185.7830  178.1710  141.0440 C   0  0  0  0  0  2  0  0  0  0  0  0
  184.6310  179.0580  141.5020 C   0  0  0  0  0  2  0  0  0  0  0  0
  183.5060  178.9220  140.5820 N   0  0  0  0  0  2  0  0  0  0  0  0
  183.4790  179.5410  139.2910 C   0  0  0  0  0  3  0  0  0  0  0  0
  184.4710  180.2620  138.8730 N   0  0  0  0  0  2  0  0  0  0  0  0
  188.0550  178.0810  138.1140 C   0  0  0  0  0  2  0  0  0  0  0  0
  186.9310  178.1790  137.0900 C   0  0  1  0  0  3  0  0  0  0  0  0
  187.4500  178.0460  135.8130 F   0  0  0  0  0  0  0  0  0  0  0  0
  185.8410  177.1340  137.3290 C   0  0  0  0  0  2  0  0  0  0  0  0
  184.5890  177.3980  136.5010 C   0  0  0  0  0  2  0  0  0  0  0  0
  184.0180  176.1900  136.0880 O   0  0  0  0  0  0  0  0  0  0  0  0
  186.8720  173.8750  135.4030 C   0  0  0  0  0  2  0  0  0  0  0  0
  187.2300  173.6360  136.8700 C   0  0  1  0  0  3  0  0  0  0  0  0
  184.2720  174.1610  137.2670 C   0  0  0  0  0  3  0  0  0  0  0  0
  186.2610  172.7490  137.5040 N   0  0  0  0  0  2  0  0  0  0  0  0
  185.5340  174.5900  135.1780 C   0  0  0  0  0  2  0  0  0  0  0  0
  188.6070  173.0080  136.9530 C   0  0  0  0  0  1  0  0  0  0  0  0
  184.9490  175.2130  136.4430 C   0  0  1  0  0  3  0  0  0  0  0  0
  184.8780  173.0620  137.7310 C   0  0  0  0  0  3  0  0  0  0  0  0
  1  4  1  6  0  0  0
  1  5  1  0  0  0  0
  1  2  1  0  0  0  0
  1 11  1  0  0  0  0
  2  5  1  1  0  0  0
  2 10  1  0  0  0  0
  3  2  1  0  0  0  0
  7  3  1  6  0  0  0
  7  9  1  0  0  0  0
  7 10  1  0  0  0  0
  7  8  1  0  0  0  0
  8 14  1  1  0  0  0
  9 41  1  1  0  0  0
  9  8  1  0  0  0  0
 10  8  1  0  0  0  0
 10  6  1  1  0  0  0
 12 13  2  0  0  0  0
 13 11  2  0  0  0  0
 14 16  1  0  0  0  0
 16 15  2  0  0  0  0
 16 17  1  0  0  0  0
 17 18  1  0  0  0  0
 18 35  1  6  0  0  0
 18 19  1  0  0  0  0
 20 19  1  6  0  0  0
 20 21  1  0  0  0  0
 20 22  1  0  0  0  0
 21 32  1  6  0  0  0
 21 22  1  0  0  0  0
 22 23  1  0  0  0  0
 23 24  2  0  0  0  0
 26 30  1  0  0  0  0
 27 28  1  0  0  0  0
 27 26  2  0  0  0  0
 28 29  2  0  0  0  0
 29 23  1  0  0  0  0
 29 31  1  0  0  0  0
 30 31  2  0  0  0  0
 30 25  1  0  0  0  0
 32 34  1  0  0  0  0
 33 34  1  0  0  0  0
 36 35  1  0  0  0  0
 36 37  1  0  0  0  0
 38 37  1  0  0  0  0
 39 38  1  0  0  0  0
 40 39  2  0  0  0  0
 42 43  1  6  0  0  0
 42 44  1  0  0  0  0
 42 41  1  0  0  0  0
 45 44  1  0  0  0  0
 46 45  1  0  0  0  0
 47 48  1  0  0  0  0
 48 52  1  6  0  0  0
 48 50  1  0  0  0  0
 49 54  2  0  0  0  0
 50 54  1  0  0  0  0
 51 47  1  0  0  0  0
 51 53  1  0  0  0  0
 53 46  1  6  0  0  0
 53 49  1  0  0  0  0
M  END
>  <MODEL>
6

>  <REMARK>
 VINA RESULT:      -6.4      2.183      4.042
  Name = 
  21 active torsions:
  status: ('A' for Active; 'I' for Inactive)
    1  A    between atoms: C_2  and  N_42
    2  A    between atoms: C_2  and  C_44
    3  A    between atoms: C_3  and  C_8
    4  A    between atoms: C_6  and  O_34
    5  A    between atoms: C_6  and  C_52
    6  A    between atoms: C_7  and  C_28
    7  A    between atoms: C_7  and  N_30
    8  A    between atoms: C_10  and  C_27
    9  A    between atoms: C_10  and  C_52
   10  A    between atoms: C_11  and  C_38
   11  A    between atoms: C_11  and  C_46
   12  A    between atoms: C_13  and  C_28
   13  A    between atoms: C_13  and  C_46
   14  A    between atoms: C_14  and  C_45
   15  A    between atoms: O_17  and  C_35
   16  A    between atoms: O_17  and  C_46
   17  A    between atoms: C_27  and  C_33
   18  A    between atoms: C_32  and  O_36
   19  A    between atoms: O_34  and  C_50
   20  A    between atoms: O_36  and  C_38
   21  A    between atoms: C_37  and  C_45
                            x       y       z     vdW  Elec       q    Type
                         _______ _______ _______ _____ _____    ______ ____

>  <TORSDO>
F 21

$$$$
=
 OpenBabel10222421533D

 54 60  0  0  1  0  0  0  0  0999 V2000
  181.5450  177.6780  138.9570 C   0  0  2  0  0  0  0  0  0  0  0  0
  182.5920  178.2380  139.8870 C   0  0  1  0  0  0  0  0  0  0  0  0
  182.4070  178.5580  141.2150 O   0  0  0  0  0  0  0  0  0  0  0  0
  180.2330  177.6790  139.4420 O   0  0  0  0  0  1  0  0  0  0  0  0
  182.4710  176.7310  139.6820 C   0  0  0  0  0  2  0  0  0  0  0  0
  184.2050  179.8720  139.0570 O   0  0  0  0  0  1  0  0  0  0  0  0
  183.7040  179.1490  141.2420 C   0  0  2  0  0  0  0  0  0  0  0  0
  184.9630  178.3100  140.8670 C   0  0  1  0  0  0  0  0  0  0  0  0
  184.4470  178.3570  142.2950 C   0  0  1  0  0  3  0  0  0  0  0  0
  183.9860  178.7010  139.7850 C   0  0  1  0  0  0  0  0  0  0  0  0
  181.7610  177.7810  137.4820 C   0  0  0  0  0  3  0  0  0  0  0  0
  181.2190  179.9510  136.2640 O   0  0  0  0  0  0  0  0  0  0  0  0
  181.4840  178.8910  136.8510 C   0  0  0  0  0  0  0  0  0  0  0  0
  186.1300  179.1250  140.7330 O   0  0  0  0  0  0  0  0  0  0  0  0
  187.8610  177.8390  141.5140 O   0  0  0  0  0  0  0  0  0  0  0  0
  187.4150  178.5910  140.6040 C   0  0  0  0  0  0  0  0  0  0  0  0
  188.2810  178.9040  139.4190 C   0  0  0  0  0  2  0  0  0  0  0  0
  188.8810  177.6330  138.8060 C   0  0  2  0  0  3  0  0  0  0  0  0
  187.8670  176.9100  138.1600 O   0  0  0  0  0  0  0  0  0  0  0  0
  187.4700  177.7110  137.0760 C   0  0  1  0  0  3  0  0  0  0  0  0
  188.0590  177.3490  135.8620 C   0  0  2  0  0  3  0  0  0  0  0  0
  186.6560  176.8850  136.1300 N   0  0  0  0  0  0  0  0  0  0  0  0
  185.4630  176.1840  135.7740 C   0  0  0  0  0  0  0  0  0  0  0  0
  184.3210  176.9690  134.8800 S   0  0  0  0  0  0  0  0  0  0  0  0
  187.0450  171.4340  135.7770 C   0  0  0  0  0  1  0  0  0  0  0  0
  184.9380  172.0810  136.9470 C   0  0  0  0  0  3  0  0  0  0  0  0
  183.9990  173.0410  137.3350 C   0  0  0  0  0  3  0  0  0  0  0  0
  184.1710  174.3820  136.9610 C   0  0  0  0  0  3  0  0  0  0  0  0
  185.2780  174.7740  136.1910 C   0  0  0  0  0  0  0  0  0  0  0  0
  186.0460  172.4580  136.1860 C   0  0  0  0  0  0  0  0  0  0  0  0
  186.2130  173.7950  135.8080 C   0  0  0  0  0  3  0  0  0  0  0  0
  189.0000  176.1380  135.8980 C   0  0  0  0  0  2  0  0  0  0  0  0
  189.7420  174.1560  134.5540 C   0  0  0  0  0  1  0  0  0  0  0  0
  189.2220  175.5830  134.4920 C   0  0  0  0  0  2  0  0  0  0  0  0
  189.5590  176.7570  139.8720 C   0  0  0  0  0  2  0  0  0  0  0  0
  191.0810  176.8470  139.8020 C   0  0  0  0  0  2  0  0  0  0  0  0
  191.5600  176.6130  138.3750 C   0  0  0  0  0  2  0  0  0  0  0  0
  193.0180  176.5480  138.3470 N   0  0  0  0  0  2  0  0  0  0  0  0
  193.7360  175.4700  137.7350 C   0  0  0  0  0  3  0  0  0  0  0  0
  193.1120  174.4880  137.1670 N   0  0  0  0  0  2  0  0  0  0  0  0
  185.2180  179.2970  143.2190 C   0  0  0  0  0  2  0  0  0  0  0  0
  184.5240  179.4350  144.5680 C   0  0  1  0  0  3  0  0  0  0  0  0
  183.6220  178.3980  144.7370 F   0  0  0  0  0  0  0  0  0  0  0  0
  185.5190  179.4640  145.7280 C   0  0  0  0  0  2  0  0  0  0  0  0
  185.8560  178.0700  146.2420 C   0  0  0  0  0  2  0  0  0  0  0  0
  186.3560  177.2790  145.2030 O   0  0  0  0  0  0  0  0  0  0  0  0
  189.8100  176.9910  143.8030 C   0  0  0  0  0  2  0  0  0  0  0  0
  190.4170  178.0980  144.6660 C   0  0  1  0  0  3  0  0  0  0  0  0
  188.2560  177.2290  146.6040 C   0  0  0  0  0  2  0  0  0  0  0  0
  190.6040  177.6440  146.0390 N   0  0  0  0  0  0  0  0  0  0  0  0
  188.4040  176.5470  144.2260 C   0  0  0  0  0  2  0  0  0  0  0  0
  191.7580  178.5030  144.0890 C   0  0  0  0  0  1  0  0  0  0  0  0
  187.7350  177.4900  145.2230 C   0  0  1  0  0  3  0  0  0  0  0  0
  189.5460  177.3020  146.9480 C   0  0  0  0  0  3  0  0  0  0  0  0
  1  4  1  1  0  0  0
  1  5  1  0  0  0  0
  1  2  1  0  0  0  0
  2  5  1  1  0  0  0
  2  3  1  0  0  0  0
  7  3  1  6  0  0  0
  7  9  1  0  0  0  0
  8 14  1  6  0  0  0
  8  7  1  0  0  0  0
  8  9  1  0  0  0  0
  9 41  1  1  0  0  0
 10  6  1  6  0  0  0
 10  2  1  0  0  0  0
 10  8  1  0  0  0  0
 10  7  1  0  0  0  0
 11  1  1  0  0  0  0
 12 13  2  0  0  0  0
 13 11  2  0  0  0  0
 16 14  1  0  0  0  0
 16 15  2  0  0  0  0
 17 16  1  0  0  0  0
 18 17  1  1  0  0  0
 18 35  1  0  0  0  0
 19 18  1  0  0  0  0
 20 19  1  1  0  0  0
 21 32  1  1  0  0  0
 21 22  1  0  0  0  0
 21 20  1  0  0  0  0
 22 20  1  0  0  0  0
 23 22  1  0  0  0  0
 23 29  1  0  0  0  0
 24 23  2  0  0  0  0
 25 30  1  0  0  0  0
 26 27  1  0  0  0  0
 28 27  2  0  0  0  0
 29 28  1  0  0  0  0
 30 26  2  0  0  0  0
 31 30  1  0  0  0  0
 31 29  2  0  0  0  0
 34 33  1  0  0  0  0
 34 32  1  0  0  0  0
 36 35  1  0  0  0  0
 37 36  1  0  0  0  0
 38 37  1  0  0  0  0
 39 38  1  0  0  0  0
 40 39  2  0  0  0  0
 41 42  1  0  0  0  0
 42 43  1  1  0  0  0
 42 44  1  0  0  0  0
 44 45  1  0  0  0  0
 46 45  1  0  0  0  0
 47 51  1  0  0  0  0
 47 48  1  0  0  0  0
 48 52  1  6  0  0  0
 48 50  1  0  0  0  0
 49 54  1  0  0  0  0
 50 54  2  0  0  0  0
 51 53  1  0  0  0  0
 53 46  1  1  0  0  0
 53 49  1  0  0  0  0
M  END
>  <MODEL>
7

>  <REMARK>
 VINA RESULT:      -6.3      3.674     10.006
  Name = 
  21 active torsions:
  status: ('A' for Active; 'I' for Inactive)
    1  A    between atoms: C_2  and  N_42
    2  A    between atoms: C_2  and  C_44
    3  A    between atoms: C_3  and  C_8
    4  A    between atoms: C_6  and  O_34
    5  A    between atoms: C_6  and  C_52
    6  A    between atoms: C_7  and  C_28
    7  A    between atoms: C_7  and  N_30
    8  A    between atoms: C_10  and  C_27
    9  A    between atoms: C_10  and  C_52
   10  A    between atoms: C_11  and  C_38
   11  A    between atoms: C_11  and  C_46
   12  A    between atoms: C_13  and  C_28
   13  A    between atoms: C_13  and  C_46
   14  A    between atoms: C_14  and  C_45
   15  A    between atoms: O_17  and  C_35
   16  A    between atoms: O_17  and  C_46
   17  A    between atoms: C_27  and  C_33
   18  A    between atoms: C_32  and  O_36
   19  A    between atoms: O_34  and  C_50
   20  A    between atoms: O_36  and  C_38
   21  A    between atoms: C_37  and  C_45
                            x       y       z     vdW  Elec       q    Type
                         _______ _______ _______ _____ _____    ______ ____

>  <TORSDO>
F 21

$$$$
=
 OpenBabel10222421533D

 54 60  0  0  1  0  0  0  0  0999 V2000
  191.8520  176.6660  138.4590 C   0  0  2  0  0  0  0  0  0  0  0  0
  190.4650  177.0130  137.9780 C   0  0  1  0  0  0  0  0  0  0  0  0
  189.9320  176.6940  136.7470 O   0  0  0  0  0  0  0  0  0  0  0  0
  192.7240  176.1560  137.4920 O   0  0  0  0  0  1  0  0  0  0  0  0
  190.7010  175.7480  138.7980 C   0  0  0  0  0  2  0  0  0  0  0  0
  189.4840  179.1710  138.5570 O   0  0  0  0  0  1  0  0  0  0  0  0
  188.7960  177.5040  137.0410 C   0  0  2  0  0  0  0  0  0  0  0  0
  187.9280  177.2200  138.3030 C   0  0  1  0  0  0  0  0  0  0  0  0
  187.6310  176.5430  136.9770 C   0  0  1  0  0  3  0  0  0  0  0  0
  189.3160  177.7880  138.4740 C   0  0  1  0  0  0  0  0  0  0  0  0
  192.4270  177.4250  139.6100 C   0  0  0  0  0  3  0  0  0  0  0  0
  191.3270  177.2870  141.9030 O   0  0  0  0  0  0  0  0  0  0  0  0
  191.8670  177.3590  140.7890 C   0  0  0  0  0  0  0  0  0  0  0  0
  186.9840  178.2660  138.5500 O   0  0  0  0  0  0  0  0  0  0  0  0
  187.0480  178.9750  140.7310 O   0  0  0  0  0  0  0  0  0  0  0  0
  186.3770  178.4590  139.7950 C   0  0  0  0  0  0  0  0  0  0  0  0
  184.9560  178.0490  140.0490 C   0  0  0  0  0  2  0  0  0  0  0  0
  184.2490  179.0240  140.9980 C   0  0  2  0  0  3  0  0  0  0  0  0
  184.2620  178.4930  142.2970 O   0  0  0  0  0  0  0  0  0  0  0  0
  184.3470  179.6040  143.1540 C   0  0  1  0  0  3  0  0  0  0  0  0
  183.3740  179.6170  144.1570 C   0  0  2  0  0  3  0  0  0  0  0  0
  184.7520  179.1390  144.5170 N   0  0  0  0  0  0  0  0  0  0  0  0
  185.7140  178.6230  145.4400 C   0  0  0  0  0  0  0  0  0  0  0  0
  185.4810  178.8800  147.0510 S   0  0  0  0  0  0  0  0  0  0  0  0
  190.3710  176.9160  146.1210 C   0  0  0  0  0  1  0  0  0  0  0  0
  189.1250  176.4280  144.0140 C   0  0  0  0  0  3  0  0  0  0  0  0
  187.9820  176.5320  143.2170 C   0  0  0  0  0  3  0  0  0  0  0  0
  186.8640  177.2400  143.6810 C   0  0  0  0  0  3  0  0  0  0  0  0
  186.8810  177.8560  144.9440 C   0  0  0  0  0  0  0  0  0  0  0  0
  189.1530  177.0310  145.2730 C   0  0  0  0  0  0  0  0  0  0  0  0
  188.0400  177.7440  145.7330 C   0  0  0  0  0  3  0  0  0  0  0  0
  182.4100  178.4230  144.1840 C   0  0  0  0  0  2  0  0  0  0  0  0
  179.9830  177.8080  144.0720 C   0  0  0  0  0  1  0  0  0  0  0  0
  181.0320  178.8290  143.6660 C   0  0  0  0  0  2  0  0  0  0  0  0
  182.8030  179.2980  140.5540 C   0  0  0  0  0  2  0  0  0  0  0  0
  182.6090  179.0470  139.0610 C   0  0  0  0  0  2  0  0  0  0  0  0
  181.2040  178.5200  138.7920 C   0  0  0  0  0  2  0  0  0  0  0  0
  180.7910  178.8830  137.4390 N   0  0  0  0  0  2  0  0  0  0  0  0
  180.6380  177.9210  136.3890 C   0  0  0  0  0  3  0  0  0  0  0  0
  180.8630  176.6620  136.5960 N   0  0  0  0  0  2  0  0  0  0  0  0
  186.4770  177.1600  136.1910 C   0  0  0  0  0  2  0  0  0  0  0  0
  185.1740  176.4150  136.4500 C   0  0  1  0  0  3  0  0  0  0  0  0
  184.1850  177.3160  136.8130 F   0  0  0  0  0  0  0  0  0  0  0  0
  184.7250  175.6000  135.2370 C   0  0  0  0  0  2  0  0  0  0  0  0
  185.2590  174.1730  135.2640 C   0  0  0  0  0  2  0  0  0  0  0  0
  184.6750  173.4570  136.3130 O   0  0  0  0  0  0  0  0  0  0  0  0
  183.0520  170.0890  136.2660 C   0  0  0  0  0  2  0  0  0  0  0  0
  183.4370  169.7550  134.8240 C   0  0  1  0  0  3  0  0  0  0  0  0
  185.7870  171.5620  135.4490 C   0  0  0  0  0  2  0  0  0  0  0  0
  184.8510  169.4140  134.7290 N   0  0  0  0  0  0  0  0  0  0  0  0
  183.7550  171.3220  136.8470 C   0  0  0  0  0  2  0  0  0  0  0  0
  182.6090  168.5790  134.3460 C   0  0  0  0  0  1  0  0  0  0  0  0
  184.4660  172.1760  135.8000 C   0  0  1  0  0  3  0  0  0  0  0  0
  185.9380  170.3210  134.9720 C   0  0  0  0  0  3  0  0  0  0  0  0
  1  4  1  6  0  0  0
  1  5  1  0  0  0  0
  1 11  1  0  0  0  0
  2  1  1  0  0  0  0
  2 10  1  0  0  0  0
  2  5  1  1  0  0  0
  3  2  1  0  0  0  0
  7  3  1  1  0  0  0
  7  8  1  0  0  0  0
  7 10  1  0  0  0  0
  8 10  1  0  0  0  0
  8 14  1  1  0  0  0
  9 41  1  6  0  0  0
  9  7  1  0  0  0  0
  9  8  1  0  0  0  0
 10  6  1  1  0  0  0
 11 13  2  0  0  0  0
 13 12  2  0  0  0  0
 14 16  1  0  0  0  0
 16 17  1  0  0  0  0
 16 15  2  0  0  0  0
 18 17  1  6  0  0  0
 18 19  1  0  0  0  0
 20 19  1  6  0  0  0
 20 21  1  0  0  0  0
 20 22  1  0  0  0  0
 21 32  1  6  0  0  0
 21 22  1  0  0  0  0
 22 23  1  0  0  0  0
 23 24  2  0  0  0  0
 26 30  1  0  0  0  0
 27 28  1  0  0  0  0
 27 26  2  0  0  0  0
 28 29  2  0  0  0  0
 29 23  1  0  0  0  0
 29 31  1  0  0  0  0
 30 31  2  0  0  0  0
 30 25  1  0  0  0  0
 34 33  1  0  0  0  0
 34 32  1  0  0  0  0
 35 18  1  0  0  0  0
 36 35  1  0  0  0  0
 37 36  1  0  0  0  0
 38 37  1  0  0  0  0
 39 40  2  0  0  0  0
 39 38  1  0  0  0  0
 41 42  1  0  0  0  0
 42 43  1  6  0  0  0
 44 45  1  0  0  0  0
 44 42  1  0  0  0  0
 45 46  1  0  0  0  0
 47 51  1  0  0  0  0
 48 52  1  1  0  0  0
 48 47  1  0  0  0  0
 49 53  1  0  0  0  0
 50 48  1  0  0  0  0
 50 54  2  0  0  0  0
 53 46  1  1  0  0  0
 53 51  1  0  0  0  0
 54 49  1  0  0  0  0
M  END
>  <MODEL>
8

>  <REMARK>
 VINA RESULT:      -6.3      2.464      4.746
  Name = 
  21 active torsions:
  status: ('A' for Active; 'I' for Inactive)
    1  A    between atoms: C_2  and  N_42
    2  A    between atoms: C_2  and  C_44
    3  A    between atoms: C_3  and  C_8
    4  A    between atoms: C_6  and  O_34
    5  A    between atoms: C_6  and  C_52
    6  A    between atoms: C_7  and  C_28
    7  A    between atoms: C_7  and  N_30
    8  A    between atoms: C_10  and  C_27
    9  A    between atoms: C_10  and  C_52
   10  A    between atoms: C_11  and  C_38
   11  A    between atoms: C_11  and  C_46
   12  A    between atoms: C_13  and  C_28
   13  A    between atoms: C_13  and  C_46
   14  A    between atoms: C_14  and  C_45
   15  A    between atoms: O_17  and  C_35
   16  A    between atoms: O_17  and  C_46
   17  A    between atoms: C_27  and  C_33
   18  A    between atoms: C_32  and  O_36
   19  A    between atoms: O_34  and  C_50
   20  A    between atoms: O_36  and  C_38
   21  A    between atoms: C_37  and  C_45
                            x       y       z     vdW  Elec       q    Type
                         _______ _______ _______ _____ _____    ______ ____

>  <TORSDO>
F 21

$$$$
=
 OpenBabel10222421533D

 54 60  0  0  1  0  0  0  0  0999 V2000
  189.7390  177.0220  146.5120 C   0  0  2  0  0  0  0  0  0  0  0  0
  188.6850  177.1790  145.4440 C   0  0  1  0  0  0  0  0  0  0  0  0
  187.3430  177.4080  145.6590 O   0  0  0  0  0  0  0  0  0  0  0  0
  189.2670  176.9000  147.8220 O   0  0  0  0  0  1  0  0  0  0  0  0
  189.5080  178.3820  145.8960 C   0  0  0  0  0  2  0  0  0  0  0  0
  188.7820  175.8020  143.4300 O   0  0  0  0  0  1  0  0  0  0  0  0
  187.0990  177.2230  144.2660 C   0  0  2  0  0  0  0  0  0  0  0  0
  187.8260  178.1110  143.2120 C   0  0  1  0  0  0  0  0  0  0  0  0
  186.5010  178.5390  143.8200 C   0  0  1  0  0  3  0  0  0  0  0  0
  188.6150  177.0760  143.9770 C   0  0  1  0  0  0  0  0  0  0  0  0
  191.0350  176.3690  146.1550 C   0  0  0  0  0  3  0  0  0  0  0  0
  192.7430  175.8510  147.9710 O   0  0  0  0  0  0  0  0  0  0  0  0
  191.9160  176.1010  147.0810 C   0  0  0  0  0  0  0  0  0  0  0  0
  187.6300  177.6300  141.8800 O   0  0  0  0  0  0  0  0  0  0  0  0
  189.7500  177.7800  141.0170 O   0  0  0  0  0  0  0  0  0  0  0  0
  188.5100  177.9220  140.8330 C   0  0  0  0  0  0  0  0  0  0  0  0
  188.0160  178.4170  139.5060 C   0  0  0  0  0  2  0  0  0  0  0  0
  188.1430  177.3430  138.4190 C   0  0  2  0  0  3  0  0  0  0  0  0
  189.4540  177.3480  137.9180 O   0  0  0  0  0  0  0  0  0  0  0  0
  189.9020  176.0200  138.0310 C   0  0  1  0  0  3  0  0  0  0  0  0
  190.3810  175.4840  136.8320 C   0  0  2  0  0  3  0  0  0  0  0  0
  191.3840  175.9860  137.8320 N   0  0  0  0  0  0  0  0  0  0  0  0
  192.7210  176.2490  138.2630 C   0  0  0  0  0  0  0  0  0  0  0  0
  192.9490  177.1380  139.6330 S   0  0  0  0  0  0  0  0  0  0  0  0
  196.7590  173.2990  138.0180 C   0  0  0  0  0  1  0  0  0  0  0  0
  196.0730  174.6940  136.0650 C   0  0  0  0  0  3  0  0  0  0  0  0
  195.2100  175.6120  135.4610 C   0  0  0  0  0  3  0  0  0  0  0  0
  194.1110  176.1160  136.1710 C   0  0  0  0  0  3  0  0  0  0  0  0
  193.8680  175.7120  137.4950 C   0  0  0  0  0  0  0  0  0  0  0  0
  195.8400  174.2800  137.3780 C   0  0  0  0  0  0  0  0  0  0  0  0
  194.7470  174.7880  138.0890 C   0  0  0  0  0  3  0  0  0  0  0  0
  190.3750  176.4220  135.6180 C   0  0  0  0  0  2  0  0  0  0  0  0
  190.6200  174.2160  134.4530 C   0  0  0  0  0  1  0  0  0  0  0  0
  190.9080  175.7060  134.3790 C   0  0  0  0  0  2  0  0  0  0  0  0
  187.1390  177.5710  137.2780 C   0  0  0  0  0  2  0  0  0  0  0  0
  186.2960  176.3280  137.0030 C   0  0  0  0  0  2  0  0  0  0  0  0
  186.6910  175.7070  135.6680 C   0  0  0  0  0  2  0  0  0  0  0  0
  185.5410  175.6960  134.7690 N   0  0  0  0  0  2  0  0  0  0  0  0
  184.5410  174.6700  134.7970 C   0  0  0  0  0  3  0  0  0  0  0  0
  184.6130  173.6900  135.6390 N   0  0  0  0  0  2  0  0  0  0  0  0
  185.2850  178.2930  142.9300 C   0  0  0  0  0  2  0  0  0  0  0  0
  183.9900  178.4090  143.7240 C   0  0  1  0  0  3  0  0  0  0  0  0
  184.2140  179.1410  144.8780 F   0  0  0  0  0  0  0  0  0  0  0  0
  182.8670  179.0440  142.9050 C   0  0  0  0  0  2  0  0  0  0  0  0
  182.8370  178.5410  141.4670 C   0  0  0  0  0  2  0  0  0  0  0  0
  181.5360  178.1770  141.1080 O   0  0  0  0  0  0  0  0  0  0  0  0
  182.8400  177.2600  137.7260 C   0  0  0  0  0  2  0  0  0  0  0  0
  181.5730  177.6500  136.9640 C   0  0  1  0  0  3  0  0  0  0  0  0
  181.2730  179.6130  139.2520 C   0  0  0  0  0  2  0  0  0  0  0  0
  181.4510  179.0990  136.8620 N   0  0  0  0  0  0  0  0  0  0  0  0
  182.8750  177.7240  139.1870 C   0  0  0  0  0  2  0  0  0  0  0  0
  181.6260  177.0560  135.5700 C   0  0  0  0  0  1  0  0  0  0  0  0
  181.5270  178.2100  139.7120 C   0  0  1  0  0  3  0  0  0  0  0  0
  181.2450  179.9910  137.9690 C   0  0  0  0  0  3  0  0  0  0  0  0
  1  4  1  1  0  0  0
  2  3  1  0  0  0  0
  2  5  1  6  0  0  0
  2  1  1  0  0  0  0
  5  1  1  0  0  0  0
  7  3  1  1  0  0  0
  8 14  1  6  0  0  0
  8  9  1  0  0  0  0
  8 10  1  0  0  0  0
  8  7  1  0  0  0  0
  9 41  1  6  0  0  0
  9  7  1  0  0  0  0
 10  6  1  6  0  0  0
 10  7  1  0  0  0  0
 10  2  1  0  0  0  0
 11  1  1  0  0  0  0
 11 13  2  0  0  0  0
 13 12  2  0  0  0  0
 16 15  2  0  0  0  0
 16 14  1  0  0  0  0
 17 16  1  0  0  0  0
 18 35  1  6  0  0  0
 18 17  1  0  0  0  0
 19 18  1  0  0  0  0
 20 19  1  6  0  0  0
 21 32  1  6  0  0  0
 21 22  1  0  0  0  0
 21 20  1  0  0  0  0
 22 20  1  0  0  0  0
 22 23  1  0  0  0  0
 23 24  2  0  0  0  0
 26 30  1  0  0  0  0
 27 26  2  0  0  0  0
 27 28  1  0  0  0  0
 28 29  2  0  0  0  0
 29 31  1  0  0  0  0
 29 23  1  0  0  0  0
 30 25  1  0  0  0  0
 30 31  2  0  0  0  0
 34 33  1  0  0  0  0
 34 32  1  0  0  0  0
 36 35  1  0  0  0  0
 37 36  1  0  0  0  0
 38 39  1  0  0  0  0
 38 37  1  0  0  0  0
 39 40  2  0  0  0  0
 41 42  1  0  0  0  0
 42 43  1  1  0  0  0
 44 42  1  0  0  0  0
 45 44  1  0  0  0  0
 46 45  1  0  0  0  0
 47 51  1  0  0  0  0
 48 52  1  6  0  0  0
 48 47  1  0  0  0  0
 49 53  1  0  0  0  0
 50 48  1  0  0  0  0
 50 54  2  0  0  0  0
 51 53  1  0  0  0  0
 53 46  1  1  0  0  0
 54 49  1  0  0  0  0
M  END
>  <MODEL>
9

>  <REMARK>
 VINA RESULT:      -6.3      3.301      8.484
  Name = 
  21 active torsions:
  status: ('A' for Active; 'I' for Inactive)
    1  A    between atoms: C_2  and  N_42
    2  A    between atoms: C_2  and  C_44
    3  A    between atoms: C_3  and  C_8
    4  A    between atoms: C_6  and  O_34
    5  A    between atoms: C_6  and  C_52
    6  A    between atoms: C_7  and  C_28
    7  A    between atoms: C_7  and  N_30
    8  A    between atoms: C_10  and  C_27
    9  A    between atoms: C_10  and  C_52
   10  A    between atoms: C_11  and  C_38
   11  A    between atoms: C_11  and  C_46
   12  A    between atoms: C_13  and  C_28
   13  A    between atoms: C_13  and  C_46
   14  A    between atoms: C_14  and  C_45
   15  A    between atoms: O_17  and  C_35
   16  A    between atoms: O_17  and  C_46
   17  A    between atoms: C_27  and  C_33
   18  A    between atoms: C_32  and  O_36
   19  A    between atoms: O_34  and  C_50
   20  A    between atoms: O_36  and  C_38
   21  A    between atoms: C_37  and  C_45
                            x       y       z     vdW  Elec       q    Type
                         _______ _______ _______ _____ _____    ______ ____

>  <TORSDO>
F 21

$$$$
