=
 OpenBabel10232409193D

 30 35  0  0  1  0  0  0  0  0999 V2000
  190.2750  176.6980  144.2540 C   0  0  1  0  0  3  0  0  0  0  0  0
  187.5710  178.2510  146.5770 C   0  0  1  0  0  3  0  0  0  0  0  0
  183.5370  179.2970  143.7410 C   0  0  0  0  0  3  0  0  0  0  0  0
  184.1880  179.3490  144.9730 C   0  0  0  0  0  3  0  0  0  0  0  0
  185.3110  177.9620  142.8740 N   0  0  0  0  0  0  0  0  0  0  0  0
  184.1270  178.6030  142.6750 C   0  0  0  0  0  0  0  0  0  0  0  0
  186.1220  178.7060  146.4700 C   0  0  1  0  0  0  0  0  0  0  0  0
  190.6370  177.7180  145.2490 N   0  0  0  0  0  0  0  0  0  0  0  0
  188.6190  176.6420  142.3230 C   0  0  0  0  0  2  0  0  0  0  0  0
  187.2160  177.3220  144.2380 N   0  0  0  0  0  0  0  0  0  0  0  0
  189.4060  176.9300  145.4340 C   0  0  1  0  0  3  0  0  0  0  0  0
  186.4350  177.3300  147.0260 C   0  0  0  0  0  2  0  0  0  0  0  0
  185.7110  179.6110  147.4490 O   0  0  0  0  0  1  0  0  0  0  0  0
  187.5540  176.2220  143.3350 C   0  0  0  0  0  2  0  0  0  0  0  0
  189.8030  177.3790  142.9650 C   0  0  2  0  0  3  0  0  0  0  0  0
  185.9720  178.0100  144.0640 C   0  0  0  0  0  0  0  0  0  0  0  0
  191.6500  177.1240  146.1030 C   0  0  0  0  0  1  0  0  0  0  0  0
  188.1890  177.8470  145.2180 C   0  0  2  0  0  3  0  0  0  0  0  0
  185.4200  178.7090  145.1410 C   0  0  0  0  0  0  0  0  0  0  0  0
  185.9250  178.7100  140.0550 Cl  0  0  0  0  0  0  0  0  0  0  0  0
  182.0530  178.4610  141.3160 C   0  0  0  0  0  3  0  0  0  0  0  0
  181.3750  178.3720  140.1000 C   0  0  0  0  0  3  0  0  0  0  0  0
  183.4830  178.4490  138.9220 C   0  0  0  0  0  3  0  0  0  0  0  0
  184.1750  178.5360  140.1360 C   0  0  0  0  0  0  0  0  0  0  0  0
  183.4550  178.5360  141.3570 C   0  0  0  0  0  0  0  0  0  0  0  0
  182.0910  178.3630  138.9030 C   0  0  0  0  0  3  0  0  0  0  0  0
  190.9560  177.4760  141.9790 C   0  0  0  0  0  2  0  0  0  0  0  0
  189.7220  178.2230  139.9480 O   0  0  0  0  0  0  0  0  0  0  0  0
  190.7270  176.1630  139.9980 O   0  0  0  0  0  1  0  0  0  0  0  0
  190.4760  177.2480  140.5850 C   0  0  0  0  0  0  0  0  0  0  0  0
  1  8  1  1  0  0  0
  1 11  1  0  0  0  0
  2 12  1  1  0  0  0
  3  4  1  0  0  0  0
  4 19  2  0  0  0  0
  5 16  2  0  0  0  0
  6  5  1  0  0  0  0
  6  3  2  0  0  0  0
  7  2  1  0  0  0  0
  7 12  1  0  0  0  0
  7 13  1  1  0  0  0
  8 17  1  0  0  0  0
  9 15  1  0  0  0  0
  9 14  1  0  0  0  0
 11  8  1  1  0  0  0
 14 10  1  0  0  0  0
 15 27  1  6  0  0  0
 15  1  1  0  0  0  0
 16 10  1  0  0  0  0
 16 19  1  0  0  0  0
 18 10  1  6  0  0  0
 18 11  1  0  0  0  0
 18  2  1  0  0  0  0
 19  7  1  0  0  0  0
 20 24  1  0  0  0  0
 21 25  1  0  0  0  0
 22 21  2  0  0  0  0
 23 24  1  0  0  0  0
 24 25  2  0  0  0  0
 25  6  1  0  0  0  0
 26 23  2  0  0  0  0
 26 22  1  0  0  0  0
 28 30  2  0  0  0  0
 29 30  1  0  0  0  0
 30 27  1  0  0  0  0
M  END
>  <MODEL>
1

>  <REMARK>
 VINA RESULT:      -9.3      0.000      0.000
  Name = 
  3 active torsions:
  status: ('A' for Active; 'I' for Inactive)
    1  A    between atoms: C_10  and  C_25
    2  A    between atoms: C_10  and  C_26
    3  A    between atoms: C_11  and  C_22
                            x       y       z     vdW  Elec       q    Type
                         _______ _______ _______ _____ _____    ______ ____

>  <TORSDO>
F 3

$$$$
=
 OpenBabel10232409193D

 30 35  0  0  1  0  0  0  0  0999 V2000
  189.1820  177.1000  146.3630 C   0  0  1  0  0  3  0  0  0  0  0  0
  185.7620  178.6930  145.4220 C   0  0  1  0  0  3  0  0  0  0  0  0
  185.6090  179.1290  140.4020 C   0  0  0  0  0  3  0  0  0  0  0  0
  185.0280  179.3610  141.6490 C   0  0  0  0  0  3  0  0  0  0  0  0
  187.3180  177.8410  141.4530 N   0  0  0  0  0  0  0  0  0  0  0  0
  186.7840  178.3690  140.3160 C   0  0  0  0  0  0  0  0  0  0  0  0
  184.9870  179.0260  144.1550 C   0  0  1  0  0  0  0  0  0  0  0  0
  188.6550  178.2450  147.1200 N   0  0  0  0  0  0  0  0  0  0  0  0
  189.7080  176.7160  143.9030 C   0  0  0  0  0  2  0  0  0  0  0  0
  187.3640  177.4930  143.8550 N   0  0  0  0  0  0  0  0  0  0  0  0
  187.7280  177.3940  146.3530 C   0  0  1  0  0  3  0  0  0  0  0  0
  184.6780  177.7450  144.9050 C   0  0  0  0  0  2  0  0  0  0  0  0
  183.9970  179.9990  144.3040 O   0  0  0  0  0  1  0  0  0  0  0  0
  188.2400  176.3300  143.7180 C   0  0  0  0  0  2  0  0  0  0  0  0
  189.9470  177.6030  145.1340 C   0  0  2  0  0  3  0  0  0  0  0  0
  186.7770  178.0660  142.6820 C   0  0  0  0  0  0  0  0  0  0  0  0
  188.5670  177.8230  148.5060 C   0  0  0  0  0  1  0  0  0  0  0  0
  187.1990  178.1910  145.1470 C   0  0  2  0  0  3  0  0  0  0  0  0
  185.6160  178.8350  142.8030 C   0  0  0  0  0  0  0  0  0  0  0  0
  184.9440  177.4220  137.9020 Cl  0  0  0  0  0  0  0  0  0  0  0  0
  188.8120  178.2660  138.8870 C   0  0  0  0  0  3  0  0  0  0  0  0
  189.4550  178.0590  137.6660 C   0  0  0  0  0  3  0  0  0  0  0  0
  187.3340  177.5200  136.6420 C   0  0  0  0  0  3  0  0  0  0  0  0
  186.6770  177.7270  137.8610 C   0  0  0  0  0  0  0  0  0  0  0  0
  187.4200  178.1120  139.0040 C   0  0  0  0  0  0  0  0  0  0  0  0
  188.7160  177.6890  136.5430 C   0  0  0  0  0  3  0  0  0  0  0  0
  191.4340  177.6760  145.4440 C   0  0  0  0  0  2  0  0  0  0  0  0
  191.9350  176.8960  147.7560 O   0  0  0  0  0  1  0  0  0  0  0  0
  192.0840  175.4450  145.9870 O   0  0  0  0  0  0  0  0  0  0  0  0
  191.8250  176.6040  146.4030 C   0  0  0  0  0  0  0  0  0  0  0  0
  1  8  1  1  0  0  0
  2 12  1  6  0  0  0
  3  4  1  0  0  0  0
  4 19  2  0  0  0  0
  5 16  2  0  0  0  0
  6  3  2  0  0  0  0
  6  5  1  0  0  0  0
  7 13  1  1  0  0  0
  7 12  1  0  0  0  0
  7  2  1  0  0  0  0
  8 17  1  0  0  0  0
  9 15  1  0  0  0  0
 11  1  1  0  0  0  0
 11  8  1  1  0  0  0
 14 10  1  0  0  0  0
 14  9  1  0  0  0  0
 15 27  1  1  0  0  0
 15  1  1  0  0  0  0
 16 19  1  0  0  0  0
 16 10  1  0  0  0  0
 18 10  1  6  0  0  0
 18  2  1  0  0  0  0
 18 11  1  0  0  0  0
 19  7  1  0  0  0  0
 21 25  1  0  0  0  0
 22 21  2  0  0  0  0
 23 24  1  0  0  0  0
 24 20  1  0  0  0  0
 24 25  2  0  0  0  0
 25  6  1  0  0  0  0
 26 23  2  0  0  0  0
 26 22  1  0  0  0  0
 27 30  1  0  0  0  0
 29 30  2  0  0  0  0
 30 28  1  0  0  0  0
M  END
>  <MODEL>
2

>  <REMARK>
 VINA RESULT:      -8.9      2.771      4.158
  Name = 
  3 active torsions:
  status: ('A' for Active; 'I' for Inactive)
    1  A    between atoms: C_10  and  C_25
    2  A    between atoms: C_10  and  C_26
    3  A    between atoms: C_11  and  C_22
                            x       y       z     vdW  Elec       q    Type
                         _______ _______ _______ _____ _____    ______ ____

>  <TORSDO>
F 3

$$$$
=
 OpenBabel10232409193D

 30 35  0  0  1  0  0  0  0  0999 V2000
  187.3120  177.4570  145.8870 C   0  0  1  0  0  3  0  0  0  0  0  0
  185.5030  178.8540  142.7420 C   0  0  1  0  0  3  0  0  0  0  0  0
  188.5640  178.1820  138.7930 C   0  0  0  0  0  3  0  0  0  0  0  0
  187.3780  178.6890  139.3250 C   0  0  0  0  0  3  0  0  0  0  0  0
  189.0340  177.1310  140.8810 N   0  0  0  0  0  0  0  0  0  0  0  0
  189.4070  177.4040  139.6000 C   0  0  0  0  0  0  0  0  0  0  0  0
  185.7420  178.9130  141.2390 C   0  0  1  0  0  0  0  0  0  0  0  0
  186.6090  178.7480  145.9380 N   0  0  0  0  0  0  0  0  0  0  0  0
  189.1850  176.5360  144.4320 C   0  0  0  0  0  2  0  0  0  0  0  0
  187.5270  177.3170  142.7760 N   0  0  0  0  0  0  0  0  0  0  0  0
  186.2430  177.7630  144.9050 C   0  0  1  0  0  3  0  0  0  0  0  0
  184.8460  177.8320  141.8120 C   0  0  0  0  0  2  0  0  0  0  0  0
  185.0350  179.9090  140.5650 O   0  0  0  0  0  1  0  0  0  0  0  0
  188.1120  176.1400  143.4170 C   0  0  0  0  0  2  0  0  0  0  0  0
  188.7390  177.6670  145.3700 C   0  0  2  0  0  3  0  0  0  0  0  0
  187.8890  177.6280  141.4250 C   0  0  0  0  0  0  0  0  0  0  0  0
  185.6190  178.6410  146.9930 C   0  0  0  0  0  1  0  0  0  0  0  0
  186.7040  178.2840  143.5320 C   0  0  2  0  0  3  0  0  0  0  0  0
  187.0360  178.4210  140.6530 C   0  0  0  0  0  0  0  0  0  0  0  0
  189.2460  175.2250  137.2910 Cl  0  0  0  0  0  0  0  0  0  0  0  0
  191.8880  177.2980  139.6080 C   0  0  0  0  0  3  0  0  0  0  0  0
  193.1080  176.8310  139.1160 C   0  0  0  0  0  3  0  0  0  0  0  0
  191.9310  175.4500  137.5190 C   0  0  0  0  0  3  0  0  0  0  0  0
  190.7020  175.9130  138.0020 C   0  0  0  0  0  0  0  0  0  0  0  0
  190.6720  176.8570  139.0590 C   0  0  0  0  0  0  0  0  0  0  0  0
  193.1290  175.9090  138.0690 C   0  0  0  0  0  3  0  0  0  0  0  0
  189.7030  177.7860  146.5400 C   0  0  0  0  0  2  0  0  0  0  0  0
  191.6290  176.2410  146.8680 O   0  0  0  0  0  1  0  0  0  0  0  0
  191.6900  177.8340  145.2190 O   0  0  0  0  0  0  0  0  0  0  0  0
  191.0560  177.2880  146.1590 C   0  0  0  0  0  0  0  0  0  0  0  0
  1  8  1  1  0  0  0
  2 12  1  6  0  0  0
  2 18  1  0  0  0  0
  3  4  2  0  0  0  0
  3  6  1  0  0  0  0
  4 19  1  0  0  0  0
  5 16  1  0  0  0  0
  6  5  2  0  0  0  0
  7 13  1  6  0  0  0
  7 12  1  0  0  0  0
  7  2  1  0  0  0  0
  8 17  1  0  0  0  0
  9 15  1  0  0  0  0
 10 14  1  0  0  0  0
 11  1  1  0  0  0  0
 11  8  1  1  0  0  0
 14  9  1  0  0  0  0
 15  1  1  0  0  0  0
 15 27  1  1  0  0  0
 16 10  1  0  0  0  0
 18 10  1  6  0  0  0
 18 11  1  0  0  0  0
 19  7  1  0  0  0  0
 19 16  2  0  0  0  0
 20 24  1  0  0  0  0
 22 21  1  0  0  0  0
 23 24  2  0  0  0  0
 23 26  1  0  0  0  0
 24 25  1  0  0  0  0
 25  6  1  0  0  0  0
 25 21  2  0  0  0  0
 26 22  2  0  0  0  0
 29 30  2  0  0  0  0
 30 27  1  0  0  0  0
 30 28  1  0  0  0  0
M  END
>  <MODEL>
3

>  <REMARK>
 VINA RESULT:      -8.4      2.921      6.184
  Name = 
  3 active torsions:
  status: ('A' for Active; 'I' for Inactive)
    1  A    between atoms: C_10  and  C_25
    2  A    between atoms: C_10  and  C_26
    3  A    between atoms: C_11  and  C_22
                            x       y       z     vdW  Elec       q    Type
                         _______ _______ _______ _____ _____    ______ ____

>  <TORSDO>
F 3

$$$$
=
 OpenBabel10232409193D

 30 35  0  0  1  0  0  0  0  0999 V2000
  188.1650  177.5730  137.2670 C   0  0  1  0  0  3  0  0  0  0  0  0
  184.6240  178.4950  138.5830 C   0  0  1  0  0  3  0  0  0  0  0  0
  184.7470  178.2300  143.6150 C   0  0  0  0  0  3  0  0  0  0  0  0
  184.0260  178.4230  142.4370 C   0  0  0  0  0  3  0  0  0  0  0  0
  186.7660  178.1520  142.3500 N   0  0  0  0  0  0  0  0  0  0  0  0
  186.1400  178.0750  143.5570 C   0  0  0  0  0  0  0  0  0  0  0  0
  183.9470  178.7210  139.9280 C   0  0  1  0  0  0  0  0  0  0  0  0
  186.9600  177.0220  136.6270 N   0  0  0  0  0  0  0  0  0  0  0  0
  189.0640  177.5260  139.6460 C   0  0  0  0  0  2  0  0  0  0  0  0
  186.7740  178.4040  139.9350 N   0  0  0  0  0  0  0  0  0  0  0  0
  186.8600  178.2640  137.4140 C   0  0  1  0  0  3  0  0  0  0  0  0
  184.4380  179.9120  139.1280 C   0  0  0  0  0  2  0  0  0  0  0  0
  182.5570  178.5930  139.9210 O   0  0  0  0  0  1  0  0  0  0  0  0
  188.1950  178.7520  139.9280 C   0  0  0  0  0  2  0  0  0  0  0  0
  188.5640  176.6940  138.4560 C   0  0  2  0  0  3  0  0  0  0  0  0
  186.0820  178.3260  141.1860 C   0  0  0  0  0  0  0  0  0  0  0  0
  187.0160  177.4120  135.2300 C   0  0  0  0  0  1  0  0  0  0  0  0
  186.0750  177.9750  138.7060 C   0  0  2  0  0  3  0  0  0  0  0  0
  184.6910  178.4650  141.2080 C   0  0  0  0  0  0  0  0  0  0  0  0
  188.9190  176.5470  143.3410 Cl  0  0  0  0  0  0  0  0  0  0  0  0
  186.3990  178.3210  146.0140 C   0  0  0  0  0  3  0  0  0  0  0  0
  187.1130  178.1700  147.2040 C   0  0  0  0  0  3  0  0  0  0  0  0
  188.8990  177.0830  145.9910 C   0  0  0  0  0  3  0  0  0  0  0  0
  188.1940  177.2320  144.7900 C   0  0  0  0  0  0  0  0  0  0  0  0
  186.9260  177.8660  144.7930 C   0  0  0  0  0  0  0  0  0  0  0  0
  188.3640  177.5530  147.1910 C   0  0  0  0  0  3  0  0  0  0  0  0
  189.6320  175.6980  138.0290 C   0  0  0  0  0  2  0  0  0  0  0  0
  190.5510  176.4170  135.8290 O   0  0  0  0  0  0  0  0  0  0  0  0
  191.6950  176.8690  137.7640 O   0  0  0  0  0  1  0  0  0  0  0  0
  190.6800  176.3710  137.2100 C   0  0  0  0  0  0  0  0  0  0  0  0
  1  8  1  6  0  0  0
  1 11  1  0  0  0  0
  1 15  1  0  0  0  0
  2 18  1  0  0  0  0
  2 12  1  1  0  0  0
  2  7  1  0  0  0  0
  4  3  2  0  0  0  0
  5  6  2  0  0  0  0
  6  3  1  0  0  0  0
  6 25  1  0  0  0  0
  7 13  1  1  0  0  0
  7 19  1  0  0  0  0
  9 14  1  0  0  0  0
 10 16  1  0  0  0  0
 11  8  1  6  0  0  0
 11 18  1  0  0  0  0
 12  7  1  0  0  0  0
 14 10  1  0  0  0  0
 15 27  1  6  0  0  0
 15  9  1  0  0  0  0
 16 19  2  0  0  0  0
 16  5  1  0  0  0  0
 17  8  1  0  0  0  0
 18 10  1  1  0  0  0
 19  4  1  0  0  0  0
 20 24  1  0  0  0  0
 21 22  1  0  0  0  0
 23 26  1  0  0  0  0
 24 25  1  0  0  0  0
 24 23  2  0  0  0  0
 25 21  2  0  0  0  0
 26 22  2  0  0  0  0
 28 30  2  0  0  0  0
 30 29  1  0  0  0  0
 30 27  1  0  0  0  0
M  END
>  <MODEL>
4

>  <REMARK>
 VINA RESULT:      -8.3      3.044      6.418
  Name = 
  3 active torsions:
  status: ('A' for Active; 'I' for Inactive)
    1  A    between atoms: C_10  and  C_25
    2  A    between atoms: C_10  and  C_26
    3  A    between atoms: C_11  and  C_22
                            x       y       z     vdW  Elec       q    Type
                         _______ _______ _______ _____ _____    ______ ____

>  <TORSDO>
F 3

$$$$
=
 OpenBabel10232409193D

 30 35  0  0  1  0  0  0  0  0999 V2000
  188.1450  177.5580  137.2360 C   0  0  1  0  0  3  0  0  0  0  0  0
  184.6500  178.4830  138.6670 C   0  0  1  0  0  3  0  0  0  0  0  0
  184.9310  178.1960  143.6920 C   0  0  0  0  0  3  0  0  0  0  0  0
  184.1730  178.3960  142.5380 C   0  0  0  0  0  3  0  0  0  0  0  0
  186.9090  178.1190  142.3630 N   0  0  0  0  0  0  0  0  0  0  0  0
  186.3210  178.0390  143.5890 C   0  0  0  0  0  0  0  0  0  0  0  0
  184.0160  178.7040  140.0340 C   0  0  1  0  0  0  0  0  0  0  0  0
  186.9190  177.0130  136.6330 N   0  0  0  0  0  0  0  0  0  0  0  0
  189.1190  177.4990  139.5850 C   0  0  0  0  0  2  0  0  0  0  0  0
  186.8410  178.3820  139.9500 N   0  0  0  0  0  0  0  0  0  0  0  0
  186.8470  178.2510  137.4280 C   0  0  1  0  0  3  0  0  0  0  0  0
  184.4840  179.8980  139.2240 C   0  0  0  0  0  2  0  0  0  0  0  0
  182.6260  178.5790  140.0700 O   0  0  0  0  0  1  0  0  0  0  0  0
  188.2620  178.7260  139.9000 C   0  0  0  0  0  2  0  0  0  0  0  0
  188.5800  176.6730  138.4080 C   0  0  2  0  0  3  0  0  0  0  0  0
  186.1890  178.2990  141.2220 C   0  0  0  0  0  0  0  0  0  0  0  0
  186.9310  177.4080  135.2360 C   0  0  0  0  0  1  0  0  0  0  0  0
  186.1030  177.9580  138.7430 C   0  0  2  0  0  3  0  0  0  0  0  0
  184.7990  178.4410  141.2890 C   0  0  0  0  0  0  0  0  0  0  0  0
  184.9850  178.5170  146.4350 Cl  0  0  0  0  0  0  0  0  0  0  0  0
  188.4910  177.4480  144.6420 C   0  0  0  0  0  3  0  0  0  0  0  0
  189.3030  177.2080  145.7510 C   0  0  0  0  0  3  0  0  0  0  0  0
  187.4520  177.7310  147.2150 C   0  0  0  0  0  3  0  0  0  0  0  0
  186.6270  177.9710  146.1100 C   0  0  0  0  0  0  0  0  0  0  0  0
  187.1460  177.8230  144.7990 C   0  0  0  0  0  0  0  0  0  0  0  0
  188.7820  177.3470  147.0380 C   0  0  0  0  0  3  0  0  0  0  0  0
  189.6310  175.6770  137.9440 C   0  0  0  0  0  2  0  0  0  0  0  0
  190.5270  176.4340  135.7470 O   0  0  0  0  0  0  0  0  0  0  0  0
  191.7000  176.8360  137.6750 O   0  0  0  0  0  1  0  0  0  0  0  0
  190.6740  176.3580  137.1250 C   0  0  0  0  0  0  0  0  0  0  0  0
  1  8  1  6  0  0  0
  1 11  1  0  0  0  0
  1 15  1  0  0  0  0
  2 18  1  0  0  0  0
  2 12  1  1  0  0  0
  2  7  1  0  0  0  0
  4  3  2  0  0  0  0
  5  6  2  0  0  0  0
  6  3  1  0  0  0  0
  6 25  1  0  0  0  0
  7 13  1  1  0  0  0
  7 19  1  0  0  0  0
  9 14  1  0  0  0  0
 10 16  1  0  0  0  0
 11  8  1  6  0  0  0
 11 18  1  0  0  0  0
 12  7  1  0  0  0  0
 14 10  1  0  0  0  0
 15 27  1  6  0  0  0
 15  9  1  0  0  0  0
 16 19  2  0  0  0  0
 16  5  1  0  0  0  0
 17  8  1  0  0  0  0
 18 10  1  1  0  0  0
 19  4  1  0  0  0  0
 21 25  2  0  0  0  0
 21 22  1  0  0  0  0
 22 26  2  0  0  0  0
 24 20  1  0  0  0  0
 24 23  2  0  0  0  0
 25 24  1  0  0  0  0
 26 23  1  0  0  0  0
 28 30  2  0  0  0  0
 30 29  1  0  0  0  0
 30 27  1  0  0  0  0
M  END
>  <MODEL>
5

>  <REMARK>
 VINA RESULT:      -8.2      3.149      6.547
  Name = 
  3 active torsions:
  status: ('A' for Active; 'I' for Inactive)
    1  A    between atoms: C_10  and  C_25
    2  A    between atoms: C_10  and  C_26
    3  A    between atoms: C_11  and  C_22
                            x       y       z     vdW  Elec       q    Type
                         _______ _______ _______ _____ _____    ______ ____

>  <TORSDO>
F 3

$$$$
=
 OpenBabel10232409193D

 30 35  0  0  1  0  0  0  0  0999 V2000
  182.2130  178.5880  139.7700 C   0  0  1  0  0  3  0  0  0  0  0  0
  183.1180  178.6410  143.5510 C   0  0  1  0  0  3  0  0  0  0  0  0
  188.0630  177.7460  143.9520 C   0  0  0  0  0  3  0  0  0  0  0  0
  186.8230  177.9520  144.5580 C   0  0  0  0  0  3  0  0  0  0  0  0
  187.0880  178.2200  141.8290 N   0  0  0  0  0  0  0  0  0  0  0  0
  188.1810  177.8690  142.5600 C   0  0  0  0  0  0  0  0  0  0  0  0
  184.3730  178.5560  144.4090 C   0  0  1  0  0  0  0  0  0  0  0  0
  181.3590  177.9080  140.7550 N   0  0  0  0  0  0  0  0  0  0  0  0
  184.6750  178.4020  139.1570 C   0  0  0  0  0  2  0  0  0  0  0  0
  184.7370  178.7840  141.5970 N   0  0  0  0  0  0  0  0  0  0  0  0
  182.2520  178.9940  141.1970 C   0  0  1  0  0  3  0  0  0  0  0  0
  183.7800  179.9130  144.0850 C   0  0  0  0  0  2  0  0  0  0  0  0
  184.1610  178.1680  145.7330 O   0  0  0  0  0  1  0  0  0  0  0  0
  184.9630  179.3930  140.2860 C   0  0  0  0  0  2  0  0  0  0  0  0
  183.3470  177.6530  139.3370 C   0  0  2  0  0  3  0  0  0  0  0  0
  185.8650  178.4120  142.3970 C   0  0  0  0  0  0  0  0  0  0  0  0
  180.0320  178.4800  140.6210 C   0  0  0  0  0  1  0  0  0  0  0  0
  183.3850  178.3940  142.0480 C   0  0  2  0  0  3  0  0  0  0  0  0
  185.7100  178.2800  143.7800 C   0  0  0  0  0  0  0  0  0  0  0  0
  188.2300  177.5580  139.3960 Cl  0  0  0  0  0  0  0  0  0  0  0  0
  190.6420  177.5610  142.6870 C   0  0  0  0  0  3  0  0  0  0  0  0
  191.8980  177.3820  142.1050 C   0  0  0  0  0  3  0  0  0  0  0  0
  190.8770  177.3610  139.9150 C   0  0  0  0  0  3  0  0  0  0  0  0
  189.6120  177.5440  140.4860 C   0  0  0  0  0  0  0  0  0  0  0  0
  189.4850  177.6520  141.8940 C   0  0  0  0  0  0  0  0  0  0  0  0
  192.0150  177.2850  140.7180 C   0  0  0  0  0  3  0  0  0  0  0  0
  182.9690  176.9430  138.0460 C   0  0  0  0  0  2  0  0  0  0  0  0
  181.5320  175.0400  138.7660 O   0  0  0  0  0  1  0  0  0  0  0  0
  183.6920  174.6690  138.0930 O   0  0  0  0  0  0  0  0  0  0  0  0
  182.7570  175.4880  138.2900 C   0  0  0  0  0  0  0  0  0  0  0  0
  1  8  1  1  0  0  0
  1 11  1  0  0  0  0
  2 12  1  6  0  0  0
  2  7  1  0  0  0  0
  3  4  1  0  0  0  0
  5 16  2  0  0  0  0
  5  6  1  0  0  0  0
  6  3  2  0  0  0  0
  7 13  1  1  0  0  0
  9 15  1  0  0  0  0
  9 14  1  0  0  0  0
 10 16  1  0  0  0  0
 11  8  1  1  0  0  0
 11 18  1  0  0  0  0
 12  7  1  0  0  0  0
 14 10  1  0  0  0  0
 15 27  1  6  0  0  0
 15  1  1  0  0  0  0
 16 19  1  0  0  0  0
 17  8  1  0  0  0  0
 18 10  1  6  0  0  0
 18  2  1  0  0  0  0
 19  7  1  0  0  0  0
 19  4  2  0  0  0  0
 20 24  1  0  0  0  0
 22 21  1  0  0  0  0
 23 24  2  0  0  0  0
 23 26  1  0  0  0  0
 24 25  1  0  0  0  0
 25  6  1  0  0  0  0
 25 21  2  0  0  0  0
 26 22  2  0  0  0  0
 27 30  1  0  0  0  0
 29 30  2  0  0  0  0
 30 28  1  0  0  0  0
M  END
>  <MODEL>
6

>  <REMARK>
 VINA RESULT:      -8.1      2.648      6.897
  Name = 
  3 active torsions:
  status: ('A' for Active; 'I' for Inactive)
    1  A    between atoms: C_10  and  C_25
    2  A    between atoms: C_10  and  C_26
    3  A    between atoms: C_11  and  C_22
                            x       y       z     vdW  Elec       q    Type
                         _______ _______ _______ _____ _____    ______ ____

>  <TORSDO>
F 3

$$$$
=
 OpenBabel10232409193D

 30 35  0  0  1  0  0  0  0  0999 V2000
  190.7510  177.2880  140.5120 C   0  0  1  0  0  3  0  0  0  0  0  0
  188.2960  177.6090  137.5130 C   0  0  1  0  0  3  0  0  0  0  0  0
  183.6630  178.2480  139.3930 C   0  0  0  0  0  3  0  0  0  0  0  0
  184.5020  178.0700  138.2930 C   0  0  0  0  0  3  0  0  0  0  0  0
  185.5750  178.4070  140.8080 N   0  0  0  0  0  0  0  0  0  0  0  0
  184.2200  178.4010  140.6700 C   0  0  0  0  0  0  0  0  0  0  0  0
  186.8190  177.9050  137.2950 C   0  0  1  0  0  0  0  0  0  0  0  0
  190.8530  176.3810  139.3590 N   0  0  0  0  0  0  0  0  0  0  0  0
  188.8780  177.8550  142.1380 C   0  0  0  0  0  2  0  0  0  0  0  0
  187.8330  178.2350  139.9330 N   0  0  0  0  0  0  0  0  0  0  0  0
  190.1860  177.6850  139.1980 C   0  0  1  0  0  3  0  0  0  0  0  0
  187.8350  179.0200  137.1460 C   0  0  0  0  0  2  0  0  0  0  0  0
  186.3010  177.4700  136.0740 O   0  0  0  0  0  1  0  0  0  0  0  0
  188.3930  178.8850  141.1170 C   0  0  0  0  0  2  0  0  0  0  0  0
  189.7280  176.7390  141.5110 C   0  0  2  0  0  3  0  0  0  0  0  0
  186.4130  178.2200  139.7510 C   0  0  0  0  0  0  0  0  0  0  0  0
  192.1980  176.5260  138.8330 C   0  0  0  0  0  1  0  0  0  0  0  0
  188.6770  177.4550  139.0040 C   0  0  2  0  0  3  0  0  0  0  0  0
  185.8880  178.0460  138.4670 C   0  0  0  0  0  0  0  0  0  0  0  0
  185.5420  178.2640  143.5590 Cl  0  0  0  0  0  0  0  0  0  0  0  0
  181.9730  178.7890  141.6540 C   0  0  0  0  0  3  0  0  0  0  0  0
  181.1150  178.9950  142.7350 C   0  0  0  0  0  3  0  0  0  0  0  0
  182.9830  178.7910  144.2540 C   0  0  0  0  0  3  0  0  0  0  0  0
  183.8540  178.5860  143.1780 C   0  0  0  0  0  0  0  0  0  0  0  0
  183.3490  178.5890  141.8530 C   0  0  0  0  0  0  0  0  0  0  0  0
  181.6200  178.9990  144.0350 C   0  0  0  0  0  3  0  0  0  0  0  0
  190.4380  175.9500  142.5990 C   0  0  0  0  0  2  0  0  0  0  0  0
  191.9820  177.6630  143.5390 O   0  0  0  0  0  0  0  0  0  0  0  0
  190.2460  176.8540  144.8000 O   0  0  0  0  0  1  0  0  0  0  0  0
  190.8690  176.8510  143.7060 C   0  0  0  0  0  0  0  0  0  0  0  0
  1  8  1  6  0  0  0
  1 15  1  0  0  0  0
  2 12  1  1  0  0  0
  2 18  1  0  0  0  0
  3  6  1  0  0  0  0
  4 19  1  0  0  0  0
  4  3  2  0  0  0  0
  6  5  2  0  0  0  0
  6 25  1  0  0  0  0
  7 13  1  6  0  0  0
  7  2  1  0  0  0  0
  7 19  1  0  0  0  0
 10 14  1  0  0  0  0
 11  8  1  6  0  0  0
 11  1  1  0  0  0  0
 12  7  1  0  0  0  0
 14  9  1  0  0  0  0
 15  9  1  0  0  0  0
 15 27  1  1  0  0  0
 16 10  1  0  0  0  0
 16  5  1  0  0  0  0
 17  8  1  0  0  0  0
 18 11  1  0  0  0  0
 18 10  1  1  0  0  0
 19 16  2  0  0  0  0
 21 25  2  0  0  0  0
 21 22  1  0  0  0  0
 22 26  2  0  0  0  0
 24 20  1  0  0  0  0
 24 23  2  0  0  0  0
 25 24  1  0  0  0  0
 26 23  1  0  0  0  0
 27 30  1  0  0  0  0
 28 30  2  0  0  0  0
 30 29  1  0  0  0  0
M  END
>  <MODEL>
7

>  <REMARK>
 VINA RESULT:      -8.1      2.901      5.493
  Name = 
  3 active torsions:
  status: ('A' for Active; 'I' for Inactive)
    1  A    between atoms: C_10  and  C_25
    2  A    between atoms: C_10  and  C_26
    3  A    between atoms: C_11  and  C_22
                            x       y       z     vdW  Elec       q    Type
                         _______ _______ _______ _____ _____    ______ ____

>  <TORSDO>
F 3

$$$$
=
 OpenBabel10232409193D

 30 35  0  0  1  0  0  0  0  0999 V2000
  182.4530  179.0110  142.4340 C   0  0  1  0  0  3  0  0  0  0  0  0
  184.6530  178.3610  145.5730 C   0  0  1  0  0  3  0  0  0  0  0  0
  189.2700  177.1220  143.9750 C   0  0  0  0  0  3  0  0  0  0  0  0
  188.3640  177.2930  145.0210 C   0  0  0  0  0  3  0  0  0  0  0  0
  187.6620  178.0100  142.4550 N   0  0  0  0  0  0  0  0  0  0  0  0
  188.8950  177.4750  142.6700 C   0  0  0  0  0  0  0  0  0  0  0  0
  186.1120  178.0560  145.8810 C   0  0  1  0  0  0  0  0  0  0  0  0
  181.9350  178.2230  143.5620 N   0  0  0  0  0  0  0  0  0  0  0  0
  184.4920  178.7890  140.9280 C   0  0  0  0  0  2  0  0  0  0  0  0
  185.4680  178.7420  143.1960 N   0  0  0  0  0  0  0  0  0  0  0  0
  183.0480  179.1620  143.7850 C   0  0  1  0  0  3  0  0  0  0  0  0
  185.6070  179.4810  145.9930 C   0  0  0  0  0  2  0  0  0  0  0  0
  186.3450  177.4590  147.1220 O   0  0  0  0  0  1  0  0  0  0  0  0
  185.2790  179.5520  141.9940 C   0  0  0  0  0  2  0  0  0  0  0  0
  183.2370  178.0990  141.4850 C   0  0  2  0  0  3  0  0  0  0  0  0
  186.7560  178.1730  143.4590 C   0  0  0  0  0  0  0  0  0  0  0  0
  180.7260  178.8870  144.0130 C   0  0  0  0  0  1  0  0  0  0  0  0
  184.3320  178.3600  144.0600 C   0  0  2  0  0  3  0  0  0  0  0  0
  187.0920  177.8140  144.7670 C   0  0  0  0  0  0  0  0  0  0  0  0
  191.9820  178.0450  143.1780 Cl  0  0  0  0  0  0  0  0  0  0  0  0
  189.3300  176.9210  140.2890 C   0  0  0  0  0  3  0  0  0  0  0  0
  190.1810  176.7190  139.2010 C   0  0  0  0  0  3  0  0  0  0  0  0
  192.0790  177.2880  140.5840 C   0  0  0  0  0  3  0  0  0  0  0  0
  191.2360  177.4900  141.6830 C   0  0  0  0  0  0  0  0  0  0  0  0
  189.8390  177.3000  141.5430 C   0  0  0  0  0  0  0  0  0  0  0  0
  191.5560  176.9010  139.3500 C   0  0  0  0  0  3  0  0  0  0  0  0
  182.3410  177.6450  140.3440 C   0  0  0  0  0  2  0  0  0  0  0  0
  180.0510  178.6210  140.4330 O   0  0  0  0  0  1  0  0  0  0  0  0
  181.7140  179.6770  139.2600 O   0  0  0  0  0  0  0  0  0  0  0  0
  181.3620  178.7120  139.9870 C   0  0  0  0  0  0  0  0  0  0  0  0
  1  8  1  1  0  0  0
  1 11  1  0  0  0  0
  2  7  1  0  0  0  0
  2 12  1  6  0  0  0
  3  4  1  0  0  0  0
  5  6  1  0  0  0  0
  5 16  2  0  0  0  0
  6  3  2  0  0  0  0
  7 12  1  0  0  0  0
  7 13  1  1  0  0  0
  8 17  1  0  0  0  0
  9 15  1  0  0  0  0
  9 14  1  0  0  0  0
 10 16  1  0  0  0  0
 11  8  1  1  0  0  0
 11 18  1  0  0  0  0
 14 10  1  0  0  0  0
 15 27  1  6  0  0  0
 15  1  1  0  0  0  0
 16 19  1  0  0  0  0
 18 10  1  6  0  0  0
 18  2  1  0  0  0  0
 19  4  2  0  0  0  0
 19  7  1  0  0  0  0
 21 25  1  0  0  0  0
 22 26  1  0  0  0  0
 22 21  2  0  0  0  0
 23 24  1  0  0  0  0
 24 20  1  0  0  0  0
 25 24  2  0  0  0  0
 25  6  1  0  0  0  0
 26 23  2  0  0  0  0
 29 30  2  0  0  0  0
 30 27  1  0  0  0  0
 30 28  1  0  0  0  0
M  END
>  <MODEL>
8

>  <REMARK>
 VINA RESULT:      -8.1      2.904      6.708
  Name = 
  3 active torsions:
  status: ('A' for Active; 'I' for Inactive)
    1  A    between atoms: C_10  and  C_25
    2  A    between atoms: C_10  and  C_26
    3  A    between atoms: C_11  and  C_22
                            x       y       z     vdW  Elec       q    Type
                         _______ _______ _______ _____ _____    ______ ____

>  <TORSDO>
F 3

$$$$
=
 OpenBabel10232409193D

 30 35  0  0  1  0  0  0  0  0999 V2000
  182.3600  179.0110  141.6070 C   0  0  1  0  0  3  0  0  0  0  0  0
  184.3120  178.3710  144.9080 C   0  0  1  0  0  3  0  0  0  0  0  0
  189.0410  177.1340  143.6730 C   0  0  0  0  0  3  0  0  0  0  0  0
  188.0560  177.3060  144.6470 C   0  0  0  0  0  3  0  0  0  0  0  0
  187.5530  178.0160  142.0320 N   0  0  0  0  0  0  0  0  0  0  0  0
  188.7670  177.4830  142.3430 C   0  0  0  0  0  0  0  0  0  0  0  0
  185.7440  178.0690  145.3290 C   0  0  1  0  0  0  0  0  0  0  0  0
  181.7580  178.2250  142.6940 N   0  0  0  0  0  0  0  0  0  0  0  0
  184.5090  178.7870  140.2640 C   0  0  0  0  0  2  0  0  0  0  0  0
  185.3080  178.7470  142.6000 N   0  0  0  0  0  0  0  0  0  0  0  0
  182.8490  179.1660  142.9990 C   0  0  1  0  0  3  0  0  0  0  0  0
  185.2300  179.4930  145.3970 C   0  0  0  0  0  2  0  0  0  0  0  0
  185.8810  177.4750  146.5850 O   0  0  0  0  0  1  0  0  0  0  0  0
  185.2120  179.5540  141.3840 C   0  0  0  0  0  2  0  0  0  0  0  0
  183.2170  178.0980  140.7240 C   0  0  2  0  0  3  0  0  0  0  0  0
  186.5720  178.1800  142.9620 C   0  0  0  0  0  0  0  0  0  0  0  0
  180.5160  178.8880  143.0490 C   0  0  0  0  0  1  0  0  0  0  0  0
  184.1090  178.3660  143.3750 C   0  0  2  0  0  3  0  0  0  0  0  0
  186.8070  177.8250  144.2940 C   0  0  0  0  0  0  0  0  0  0  0  0
  191.8060  178.0420  143.0910 Cl  0  0  0  0  0  0  0  0  0  0  0  0
  189.3840  176.9310  140.0020 C   0  0  0  0  0  3  0  0  0  0  0  0
  190.3160  176.7280  138.9830 C   0  0  0  0  0  3  0  0  0  0  0  0
  192.1020  177.2890  140.5110 C   0  0  0  0  0  3  0  0  0  0  0  0
  191.1780  177.4920  141.5410 C   0  0  0  0  0  0  0  0  0  0  0  0
  189.7950  177.3060  141.2920 C   0  0  0  0  0  0  0  0  0  0  0  0
  191.6760  176.9040  139.2390 C   0  0  0  0  0  3  0  0  0  0  0  0
  182.4110  177.6390  139.5180 C   0  0  0  0  0  2  0  0  0  0  0  0
  183.3420  175.4300  138.8430 O   0  0  0  0  0  0  0  0  0  0  0  0
  181.3500  175.5500  139.9710 O   0  0  0  0  0  1  0  0  0  0  0  0
  182.3360  176.1510  139.4710 C   0  0  0  0  0  0  0  0  0  0  0  0
  1  8  1  1  0  0  0
  1 11  1  0  0  0  0
  2  7  1  0  0  0  0
  2 12  1  6  0  0  0
  3  4  1  0  0  0  0
  5  6  1  0  0  0  0
  5 16  2  0  0  0  0
  6  3  2  0  0  0  0
  7 12  1  0  0  0  0
  7 13  1  1  0  0  0
  8 17  1  0  0  0  0
  9 15  1  0  0  0  0
  9 14  1  0  0  0  0
 10 16  1  0  0  0  0
 11  8  1  1  0  0  0
 11 18  1  0  0  0  0
 14 10  1  0  0  0  0
 15 27  1  6  0  0  0
 15  1  1  0  0  0  0
 16 19  1  0  0  0  0
 18 10  1  6  0  0  0
 18  2  1  0  0  0  0
 19  4  2  0  0  0  0
 19  7  1  0  0  0  0
 21 25  1  0  0  0  0
 22 26  1  0  0  0  0
 22 21  2  0  0  0  0
 23 24  1  0  0  0  0
 24 20  1  0  0  0  0
 25 24  2  0  0  0  0
 25  6  1  0  0  0  0
 26 23  2  0  0  0  0
 28 30  2  0  0  0  0
 30 27  1  0  0  0  0
 30 29  1  0  0  0  0
M  END
>  <MODEL>
9

>  <REMARK>
 VINA RESULT:      -8.1      2.785      6.658
  Name = 
  3 active torsions:
  status: ('A' for Active; 'I' for Inactive)
    1  A    between atoms: C_10  and  C_25
    2  A    between atoms: C_10  and  C_26
    3  A    between atoms: C_11  and  C_22
                            x       y       z     vdW  Elec       q    Type
                         _______ _______ _______ _____ _____    ______ ____

>  <TORSDO>
F 3

$$$$
