=
 OpenBabel10232408093D

 38 39  0  0  1  0  0  0  0  0999 V2000
  192.4020  177.7950  141.4130 O   0  0  0  0  0  0  0  0  0  0  0  0
  190.1170  176.7170  141.7410 C   0  0  0  0  0  0  0  0  0  0  0  0
  191.2920  177.2710  141.5720 C   0  0  0  0  0  0  0  0  0  0  0  0
  188.8530  179.3380  141.9000 C   0  0  0  0  0  1  0  0  0  0  0  0
  188.3140  178.3010  140.9240 C   0  0  2  0  0  0  0  0  0  0  0  0
  189.2110  178.0160  139.7200 C   0  0  1  0  0  3  0  0  0  0  0  0
  186.9360  178.3010  140.6940 O   0  0  0  0  0  1  0  0  0  0  0  0
  188.9640  176.9320  140.7850 C   0  0  1  0  0  3  0  0  0  0  0  0
  188.4180  177.7230  138.4350 C   0  0  1  0  0  3  0  0  0  0  0  0
  187.4030  179.2480  136.9200 O   0  0  0  0  0  0  0  0  0  0  0  0
  188.3800  178.9740  137.6000 C   0  0  0  0  0  3  0  0  0  0  0  0
  188.9680  176.5160  137.6200 C   0  0  1  0  0  3  0  0  0  0  0  0
  188.1560  174.2170  136.9150 C   0  0  0  0  0  1  0  0  0  0  0  0
  187.8840  175.7070  136.8840 C   0  0  1  0  0  3  0  0  0  0  0  0
  186.6020  175.9970  137.3520 O   0  0  0  0  0  1  0  0  0  0  0  0
  190.0690  176.9590  136.6250 C   0  0  2  0  0  3  0  0  0  0  0  0
  189.6190  176.9490  135.2990 O   0  0  0  0  0  1  0  0  0  0  0  0
  191.3300  176.1060  136.7330 C   0  0  0  0  0  2  0  0  0  0  0  0
  191.9580  176.1960  138.1160 C   0  0  0  0  0  2  0  0  0  0  0  0
  193.4350  176.3140  137.9930 C   0  0  0  0  0  0  0  0  0  0  0  0
  194.1640  176.1810  139.0110 O   0  0  0  0  0  0  0  0  0  0  0  0
  194.0280  176.5430  136.7210 N   0  0  0  0  0  1  0  0  0  0  0  0
  189.9310  175.7740  142.8830 C   0  0  0  0  0  2  0  0  0  0  0  0
  186.9870  176.1000  143.5440 C   0  0  0  0  0  1  0  0  0  0  0  0
  189.6020  177.3420  147.3740 C   0  0  0  0  0  1  0  0  0  0  0  0
  188.1080  176.6690  144.3450 C   0  0  0  0  0  0  0  0  0  0  0  0
  189.3910  176.4990  144.0790 C   0  0  0  0  0  0  0  0  0  0  0  0
  190.1990  177.1860  145.0160 N   0  0  0  0  0  0  0  0  0  0  0  0
  191.6430  177.3400  144.9300 C   0  0  0  0  0  1  0  0  0  0  0  0
  189.3550  177.8790  145.9760 C   0  0  1  0  0  3  0  0  0  0  0  0
  187.9190  177.5430  145.5450 C   0  0  1  0  0  3  0  0  0  0  0  0
  187.2620  178.7180  145.1700 O   0  0  0  0  0  0  0  0  0  0  0  0
  186.1670  178.8080  146.0320 C   0  0  0  0  0  2  0  0  0  0  0  0
  182.6800  179.0490  143.3710 O   0  0  0  0  0  0  0  0  0  0  0  0
  184.9130  178.9110  145.2380 C   0  0  0  0  0  0  0  0  0  0  0  0
  183.8080  179.0150  145.8340 O   0  0  0  0  0  0  0  0  0  0  0  0
  183.8540  178.9210  142.9290 C   0  0  0  0  0  3  0  0  0  0  0  0
  184.9800  178.8490  143.8100 N   0  0  0  0  0  2  0  0  0  0  0  0
  1  3  2  0  0  0  0
  2 23  1  0  0  0  0
  3  2  2  0  0  0  0
  5  4  1  1  0  0  0
  6  9  1  6  0  0  0
  6  8  1  0  0  0  0
  6  5  1  0  0  0  0
  7  5  1  0  0  0  0
  8  5  1  0  0  0  0
  8  2  1  1  0  0  0
  9 11  1  6  0  0  0
 10 11  2  0  0  0  0
 12 16  1  6  0  0  0
 12  9  1  0  0  0  0
 14 13  1  1  0  0  0
 14 15  1  0  0  0  0
 14 12  1  0  0  0  0
 16 17  1  6  0  0  0
 16 18  1  0  0  0  0
 18 19  1  0  0  0  0
 20 19  1  0  0  0  0
 20 21  2  0  0  0  0
 22 20  1  0  0  0  0
 23 27  1  0  0  0  0
 24 26  1  0  0  0  0
 26 31  1  0  0  0  0
 27 26  2  0  0  0  0
 27 28  1  0  0  0  0
 28 30  1  0  0  0  0
 29 28  1  0  0  0  0
 30 25  1  1  0  0  0
 31 32  1  6  0  0  0
 31 30  1  0  0  0  0
 32 33  1  0  0  0  0
 35 36  2  0  0  0  0
 35 33  1  0  0  0  0
 37 34  2  0  0  0  0
 37 38  1  0  0  0  0
 38 35  1  0  0  0  0
M  END
>  <MODEL>
1

>  <REMARK>
 VINA RESULT:      -6.1      0.000      0.000
  Name = 
  14 active torsions:
  status: ('A' for Active; 'I' for Inactive)
    1  A    between atoms: C_2  and  C_16
    2  A    between atoms: C_2  and  O_33
    3  A    between atoms: C_7  and  C_10
    4  A    between atoms: C_8  and  C_28
    5  A    between atoms: C_8  and  C_35
    6  A    between atoms: C_8  and  C_37
    7  A    between atoms: C_10  and  C_13
    8  A    between atoms: C_12  and  C_31
    9  A    between atoms: C_12  and  C_34
   10  A    between atoms: C_13  and  C_24
   11  A    between atoms: C_14  and  C_31
   12  A    between atoms: C_18  and  C_35
   13  A    between atoms: C_24  and  C_35
   14  A    between atoms: O_33  and  C_36
                            x       y       z     vdW  Elec       q    Type
                         _______ _______ _______ _____ _____    ______ ____

>  <TORSDO>
F 14

$$$$
=
 OpenBabel10232408093D

 38 39  0  0  1  0  0  0  0  0999 V2000
  190.9610  175.2380  138.6620 O   0  0  0  0  0  0  0  0  0  0  0  0
  189.2960  177.1350  139.0030 C   0  0  0  0  0  0  0  0  0  0  0  0
  190.1510  176.1590  138.8280 C   0  0  0  0  0  0  0  0  0  0  0  0
  188.9490  179.3260  137.1130 C   0  0  0  0  0  1  0  0  0  0  0  0
  187.8010  178.3560  137.3590 C   0  0  2  0  0  0  0  0  0  0  0  0
  188.0050  176.9520  136.7910 C   0  0  1  0  0  3  0  0  0  0  0  0
  186.5060  178.8770  137.2970 O   0  0  0  0  0  1  0  0  0  0  0  0
  187.9500  177.1790  138.3130 C   0  0  1  0  0  3  0  0  0  0  0  0
  186.7020  176.3160  136.2770 C   0  0  1  0  0  3  0  0  0  0  0  0
  185.2020  177.2510  134.6880 O   0  0  0  0  0  0  0  0  0  0  0  0
  186.3530  176.9430  134.9540 C   0  0  0  0  0  3  0  0  0  0  0  0
  186.7630  174.7650  136.1690 C   0  0  1  0  0  3  0  0  0  0  0  0
  185.8910  172.9380  137.7010 C   0  0  0  0  0  1  0  0  0  0  0  0
  185.5240  174.0460  136.7350 C   0  0  1  0  0  3  0  0  0  0  0  0
  184.6140  174.9350  137.3070 O   0  0  0  0  0  1  0  0  0  0  0  0
  187.0230  174.3080  134.7110 C   0  0  2  0  0  3  0  0  0  0  0  0
  186.2520  173.1940  134.3600 O   0  0  0  0  0  1  0  0  0  0  0  0
  188.4960  174.0000  134.4520 C   0  0  0  0  0  2  0  0  0  0  0  0
  189.1970  173.4940  135.7040 C   0  0  0  0  0  2  0  0  0  0  0  0
  190.6680  173.6560  135.5580 C   0  0  0  0  0  0  0  0  0  0  0  0
  191.4240  172.6530  135.6420 O   0  0  0  0  0  0  0  0  0  0  0  0
  191.2200  174.9390  135.2890 N   0  0  0  0  0  1  0  0  0  0  0  0
  189.6300  178.2100  139.9840 C   0  0  0  0  0  2  0  0  0  0  0  0
  187.3800  177.8090  141.9800 C   0  0  0  0  0  1  0  0  0  0  0  0
  191.2620  175.4180  143.4880 C   0  0  0  0  0  1  0  0  0  0  0  0
  188.8150  177.4950  142.2380 C   0  0  0  0  0  0  0  0  0  0  0  0
  189.7900  177.6350  141.3590 C   0  0  0  0  0  0  0  0  0  0  0  0
  191.0370  177.2720  141.9220 N   0  0  0  0  0  0  0  0  0  0  0  0
  192.3320  177.4530  141.2850 C   0  0  0  0  0  1  0  0  0  0  0  0
  190.8510  176.8680  143.3060 C   0  0  1  0  0  3  0  0  0  0  0  0
  189.3410  177.0080  143.5520 C   0  0  1  0  0  3  0  0  0  0  0  0
  189.1200  177.9770  144.5340 O   0  0  0  0  0  0  0  0  0  0  0  0
  188.7520  177.2570  145.6730 C   0  0  0  0  0  2  0  0  0  0  0  0
  184.9300  178.9310  147.0470 O   0  0  0  0  0  0  0  0  0  0  0  0
  187.5140  177.8430  146.2550 C   0  0  0  0  0  0  0  0  0  0  0  0
  187.4780  178.1180  147.4840 O   0  0  0  0  0  0  0  0  0  0  0  0
  185.1180  178.5840  145.8500 C   0  0  0  0  0  3  0  0  0  0  0  0
  186.3720  178.0450  145.4170 N   0  0  0  0  0  2  0  0  0  0  0  0
  1  3  2  0  0  0  0
  2 23  1  0  0  0  0
  3  2  2  0  0  0  0
  5  4  1  6  0  0  0
  5  8  1  0  0  0  0
  6  9  1  6  0  0  0
  6  5  1  0  0  0  0
  6  8  1  0  0  0  0
  7  5  1  0  0  0  0
  8  2  1  1  0  0  0
  9 11  1  6  0  0  0
 10 11  2  0  0  0  0
 12 16  1  6  0  0  0
 12  9  1  0  0  0  0
 12 14  1  0  0  0  0
 14 15  1  0  0  0  0
 14 13  1  1  0  0  0
 16 17  1  1  0  0  0
 18 16  1  0  0  0  0
 18 19  1  0  0  0  0
 20 21  2  0  0  0  0
 20 19  1  0  0  0  0
 22 20  1  0  0  0  0
 23 27  1  0  0  0  0
 24 26  1  0  0  0  0
 26 31  1  0  0  0  0
 27 28  1  0  0  0  0
 27 26  2  0  0  0  0
 28 30  1  0  0  0  0
 29 28  1  0  0  0  0
 30 25  1  6  0  0  0
 30 31  1  0  0  0  0
 31 32  1  1  0  0  0
 32 33  1  0  0  0  0
 33 35  1  0  0  0  0
 35 36  2  0  0  0  0
 37 34  2  0  0  0  0
 38 37  1  0  0  0  0
 38 35  1  0  0  0  0
M  END
>  <MODEL>
2

>  <REMARK>
 VINA RESULT:      -5.8      2.231      3.590
  Name = 
  14 active torsions:
  status: ('A' for Active; 'I' for Inactive)
    1  A    between atoms: C_2  and  C_16
    2  A    between atoms: C_2  and  O_33
    3  A    between atoms: C_7  and  C_10
    4  A    between atoms: C_8  and  C_28
    5  A    between atoms: C_8  and  C_35
    6  A    between atoms: C_8  and  C_37
    7  A    between atoms: C_10  and  C_13
    8  A    between atoms: C_12  and  C_31
    9  A    between atoms: C_12  and  C_34
   10  A    between atoms: C_13  and  C_24
   11  A    between atoms: C_14  and  C_31
   12  A    between atoms: C_18  and  C_35
   13  A    between atoms: C_24  and  C_35
   14  A    between atoms: O_33  and  C_36
                            x       y       z     vdW  Elec       q    Type
                         _______ _______ _______ _____ _____    ______ ____

>  <TORSDO>
F 14

$$$$
=
 OpenBabel10232408093D

 38 39  0  0  1  0  0  0  0  0999 V2000
  192.3540  178.0260  141.9930 O   0  0  0  0  0  0  0  0  0  0  0  0
  190.1620  176.7470  141.7760 C   0  0  0  0  0  0  0  0  0  0  0  0
  191.2890  177.4040  141.8870 C   0  0  0  0  0  0  0  0  0  0  0  0
  188.7160  179.2770  141.7500 C   0  0  0  0  0  1  0  0  0  0  0  0
  188.4590  178.2530  140.6540 C   0  0  2  0  0  0  0  0  0  0  0  0
  189.5990  178.0750  139.6520 C   0  0  1  0  0  3  0  0  0  0  0  0
  187.1600  178.1800  140.1450 O   0  0  0  0  0  1  0  0  0  0  0  0
  189.2160  176.9330  140.6100 C   0  0  1  0  0  3  0  0  0  0  0  0
  189.1060  177.7910  138.2230 C   0  0  1  0  0  3  0  0  0  0  0  0
  187.8500  179.3920  136.9950 O   0  0  0  0  0  0  0  0  0  0  0  0
  188.9180  179.1040  137.5120 C   0  0  0  0  0  3  0  0  0  0  0  0
  190.0380  176.8390  137.4160 C   0  0  1  0  0  3  0  0  0  0  0  0
  191.4700  174.8070  137.9270 C   0  0  0  0  0  1  0  0  0  0  0  0
  191.2120  176.2680  138.2320 C   0  0  1  0  0  3  0  0  0  0  0  0
  192.3730  177.0280  138.0870 O   0  0  0  0  0  1  0  0  0  0  0  0
  189.2380  175.6880  136.7570 C   0  0  2  0  0  3  0  0  0  0  0  0
  189.1700  175.8190  135.3650 O   0  0  0  0  0  1  0  0  0  0  0  0
  187.8230  175.5660  137.3190 C   0  0  0  0  0  2  0  0  0  0  0  0
  186.7830  175.4520  136.2130 C   0  0  0  0  0  2  0  0  0  0  0  0
  185.9380  176.6750  136.1880 C   0  0  0  0  0  0  0  0  0  0  0  0
  185.3600  177.0630  137.2370 O   0  0  0  0  0  0  0  0  0  0  0  0
  185.8100  177.4280  134.9880 N   0  0  0  0  0  1  0  0  0  0  0  0
  189.8340  175.7150  142.8040 C   0  0  0  0  0  2  0  0  0  0  0  0
  186.9350  176.3900  143.3970 C   0  0  0  0  0  1  0  0  0  0  0  0
  189.4960  176.7750  147.4400 C   0  0  0  0  0  1  0  0  0  0  0  0
  188.0820  176.6900  144.3010 C   0  0  0  0  0  0  0  0  0  0  0  0
  189.3400  176.3650  144.0610 C   0  0  0  0  0  0  0  0  0  0  0  0
  190.1870  176.8120  145.1030 N   0  0  0  0  0  0  0  0  0  0  0  0
  191.6400  176.7610  145.0870 C   0  0  0  0  0  1  0  0  0  0  0  0
  189.4000  177.5040  146.1110 C   0  0  1  0  0  3  0  0  0  0  0  0
  187.9560  177.4350  145.5920 C   0  0  1  0  0  3  0  0  0  0  0  0
  187.4920  178.7290  145.3440 O   0  0  0  0  0  0  0  0  0  0  0  0
  186.5600  178.9780  146.3540 C   0  0  0  0  0  2  0  0  0  0  0  0
  182.6510  178.8110  144.3580 O   0  0  0  0  0  0  0  0  0  0  0  0
  185.1840  178.8940  145.7950 C   0  0  0  0  0  0  0  0  0  0  0  0
  184.2360  178.5210  146.5360 O   0  0  0  0  0  0  0  0  0  0  0  0
  183.7020  179.1440  143.7470 C   0  0  0  0  0  3  0  0  0  0  0  0
  184.9680  179.1990  144.4130 N   0  0  0  0  0  2  0  0  0  0  0  0
  2  3  2  0  0  0  0
  2 23  1  0  0  0  0
  3  1  2  0  0  0  0
  5  4  1  1  0  0  0
  6  9  1  6  0  0  0
  6  8  1  0  0  0  0
  6  5  1  0  0  0  0
  7  5  1  0  0  0  0
  8  5  1  0  0  0  0
  8  2  1  1  0  0  0
  9 11  1  6  0  0  0
 10 11  2  0  0  0  0
 12 16  1  1  0  0  0
 12  9  1  0  0  0  0
 12 14  1  0  0  0  0
 14 13  1  6  0  0  0
 15 14  1  0  0  0  0
 16 17  1  6  0  0  0
 16 18  1  0  0  0  0
 19 18  1  0  0  0  0
 20 19  1  0  0  0  0
 20 21  2  0  0  0  0
 22 20  1  0  0  0  0
 23 27  1  0  0  0  0
 24 26  1  0  0  0  0
 26 31  1  0  0  0  0
 27 26  2  0  0  0  0
 27 28  1  0  0  0  0
 28 30  1  0  0  0  0
 29 28  1  0  0  0  0
 30 25  1  1  0  0  0
 31 32  1  6  0  0  0
 31 30  1  0  0  0  0
 32 33  1  0  0  0  0
 35 33  1  0  0  0  0
 35 36  2  0  0  0  0
 37 34  2  0  0  0  0
 37 38  1  0  0  0  0
 38 35  1  0  0  0  0
M  END
>  <MODEL>
3

>  <REMARK>
 VINA RESULT:      -5.7      1.621      2.944
  Name = 
  14 active torsions:
  status: ('A' for Active; 'I' for Inactive)
    1  A    between atoms: C_2  and  C_16
    2  A    between atoms: C_2  and  O_33
    3  A    between atoms: C_7  and  C_10
    4  A    between atoms: C_8  and  C_28
    5  A    between atoms: C_8  and  C_35
    6  A    between atoms: C_8  and  C_37
    7  A    between atoms: C_10  and  C_13
    8  A    between atoms: C_12  and  C_31
    9  A    between atoms: C_12  and  C_34
   10  A    between atoms: C_13  and  C_24
   11  A    between atoms: C_14  and  C_31
   12  A    between atoms: C_18  and  C_35
   13  A    between atoms: C_24  and  C_35
   14  A    between atoms: O_33  and  C_36
                            x       y       z     vdW  Elec       q    Type
                         _______ _______ _______ _____ _____    ______ ____

>  <TORSDO>
F 14

$$$$
=
 OpenBabel10232408093D

 38 39  0  0  1  0  0  0  0  0999 V2000
  189.8300  175.1870  138.1370 O   0  0  0  0  0  0  0  0  0  0  0  0
  188.6140  177.4230  138.2420 C   0  0  0  0  0  0  0  0  0  0  0  0
  189.2390  176.2730  138.1890 C   0  0  0  0  0  0  0  0  0  0  0  0
  188.9910  177.3370  135.3540 C   0  0  0  0  0  1  0  0  0  0  0  0
  187.6270  177.6990  135.9230 C   0  0  2  0  0  0  0  0  0  0  0  0
  186.8700  176.5430  136.5770 C   0  0  1  0  0  3  0  0  0  0  0  0
  186.8630  178.6220  135.2050 O   0  0  0  0  0  1  0  0  0  0  0  0
  187.3760  177.7230  137.4240 C   0  0  1  0  0  3  0  0  0  0  0  0
  185.3480  176.6240  136.3650 C   0  0  1  0  0  3  0  0  0  0  0  0
  184.0960  176.5090  134.3470 O   0  0  0  0  0  0  0  0  0  0  0  0
  185.0230  176.0640  135.0070 C   0  0  0  0  0  3  0  0  0  0  0  0
  184.5220  175.9190  137.4800 C   0  0  1  0  0  3  0  0  0  0  0  0
  183.2340  176.8280  139.4700 C   0  0  0  0  0  1  0  0  0  0  0  0
  183.2990  176.7210  137.9600 C   0  0  1  0  0  3  0  0  0  0  0  0
  183.2260  177.9800  137.3610 O   0  0  0  0  0  1  0  0  0  0  0  0
  184.0880  174.4950  137.0490 C   0  0  2  0  0  3  0  0  0  0  0  0
  182.7490  174.2320  137.3620 O   0  0  0  0  0  1  0  0  0  0  0  0
  184.9680  173.4080  137.6600 C   0  0  0  0  0  2  0  0  0  0  0  0
  185.3160  172.3260  136.6470 C   0  0  0  0  0  2  0  0  0  0  0  0
  186.7900  172.2680  136.4580 C   0  0  0  0  0  0  0  0  0  0  0  0
  187.5290  173.1270  137.0050 O   0  0  0  0  0  0  0  0  0  0  0  0
  187.3690  171.2210  135.6880 N   0  0  0  0  0  1  0  0  0  0  0  0
  189.0990  178.4540  139.2070 C   0  0  0  0  0  2  0  0  0  0  0  0
  186.7210  178.3500  141.0910 C   0  0  0  0  0  1  0  0  0  0  0  0
  190.2350  175.5850  142.8420 C   0  0  0  0  0  1  0  0  0  0  0  0
  188.0980  177.8870  141.4290 C   0  0  0  0  0  0  0  0  0  0  0  0
  189.1250  177.8980  140.5990 C   0  0  0  0  0  0  0  0  0  0  0  0
  190.2950  177.4140  141.2330 N   0  0  0  0  0  0  0  0  0  0  0  0
  191.6320  177.4370  140.6620 C   0  0  0  0  0  1  0  0  0  0  0  0
  189.9960  177.0670  142.6130 C   0  0  1  0  0  3  0  0  0  0  0  0
  188.5010  177.3770  142.7770 C   0  0  1  0  0  3  0  0  0  0  0  0
  188.3390  178.3870  143.7280 O   0  0  0  0  0  0  0  0  0  0  0  0
  188.1500  177.7160  144.9380 C   0  0  0  0  0  2  0  0  0  0  0  0
  184.1320  178.8680  146.2860 O   0  0  0  0  0  0  0  0  0  0  0  0
  186.8330  178.0930  145.5180 C   0  0  0  0  0  0  0  0  0  0  0  0
  186.6600  178.0200  146.7630 O   0  0  0  0  0  0  0  0  0  0  0  0
  184.4550  178.8670  145.0680 C   0  0  0  0  0  3  0  0  0  0  0  0
  185.7710  178.4940  144.6460 N   0  0  0  0  0  2  0  0  0  0  0  0
  1  3  2  0  0  0  0
  2 23  1  0  0  0  0
  3  2  2  0  0  0  0
  5  4  1  6  0  0  0
  5  6  1  0  0  0  0
  5  8  1  0  0  0  0
  6  9  1  6  0  0  0
  6  8  1  0  0  0  0
  7  5  1  0  0  0  0
  8  2  1  1  0  0  0
  9 11  1  6  0  0  0
 10 11  2  0  0  0  0
 12  9  1  6  0  0  0
 12 14  1  0  0  0  0
 14 13  1  1  0  0  0
 15 14  1  0  0  0  0
 16 17  1  1  0  0  0
 16 12  1  0  0  0  0
 16 18  1  0  0  0  0
 19 18  1  0  0  0  0
 20 19  1  0  0  0  0
 20 21  2  0  0  0  0
 22 20  1  0  0  0  0
 23 27  1  0  0  0  0
 24 26  1  0  0  0  0
 26 31  1  0  0  0  0
 27 28  1  0  0  0  0
 27 26  2  0  0  0  0
 28 30  1  0  0  0  0
 29 28  1  0  0  0  0
 30 31  1  0  0  0  0
 30 25  1  6  0  0  0
 31 32  1  1  0  0  0
 32 33  1  0  0  0  0
 33 35  1  0  0  0  0
 35 36  2  0  0  0  0
 37 34  2  0  0  0  0
 38 37  1  0  0  0  0
 38 35  1  0  0  0  0
M  END
>  <MODEL>
4

>  <REMARK>
 VINA RESULT:      -5.5      2.852      4.955
  Name = 
  14 active torsions:
  status: ('A' for Active; 'I' for Inactive)
    1  A    between atoms: C_2  and  C_16
    2  A    between atoms: C_2  and  O_33
    3  A    between atoms: C_7  and  C_10
    4  A    between atoms: C_8  and  C_28
    5  A    between atoms: C_8  and  C_35
    6  A    between atoms: C_8  and  C_37
    7  A    between atoms: C_10  and  C_13
    8  A    between atoms: C_12  and  C_31
    9  A    between atoms: C_12  and  C_34
   10  A    between atoms: C_13  and  C_24
   11  A    between atoms: C_14  and  C_31
   12  A    between atoms: C_18  and  C_35
   13  A    between atoms: C_24  and  C_35
   14  A    between atoms: O_33  and  C_36
                            x       y       z     vdW  Elec       q    Type
                         _______ _______ _______ _____ _____    ______ ____

>  <TORSDO>
F 14

$$$$
=
 OpenBabel10232408093D

 38 39  0  0  1  0  0  0  0  0999 V2000
  191.1680  175.2430  138.4860 O   0  0  0  0  0  0  0  0  0  0  0  0
  189.4110  177.0690  138.7450 C   0  0  0  0  0  0  0  0  0  0  0  0
  190.3140  176.1300  138.6120 C   0  0  0  0  0  0  0  0  0  0  0  0
  188.8050  179.4550  137.1850 C   0  0  0  0  0  1  0  0  0  0  0  0
  187.7940  178.3180  137.2440 C   0  0  2  0  0  0  0  0  0  0  0  0
  188.1960  177.0540  136.4840 C   0  0  1  0  0  3  0  0  0  0  0  0
  186.4420  178.6670  137.2100 O   0  0  0  0  0  1  0  0  0  0  0  0
  188.0840  177.0410  138.0190 C   0  0  1  0  0  3  0  0  0  0  0  0
  187.0000  176.3370  135.8340 C   0  0  1  0  0  3  0  0  0  0  0  0
  185.4580  177.3680  134.3470 O   0  0  0  0  0  0  0  0  0  0  0  0
  186.6220  177.0790  134.5800 C   0  0  0  0  0  3  0  0  0  0  0  0
  187.2550  174.8290  135.5430 C   0  0  1  0  0  3  0  0  0  0  0  0
  188.5800  172.8730  136.4720 C   0  0  0  0  0  1  0  0  0  0  0  0
  188.6260  174.3200  136.0230 C   0  0  1  0  0  3  0  0  0  0  0  0
  189.6270  174.5220  135.0720 O   0  0  0  0  0  1  0  0  0  0  0  0
  186.1250  173.9410  136.1210 C   0  0  2  0  0  3  0  0  0  0  0  0
  185.1170  173.6910  135.1840 O   0  0  0  0  0  1  0  0  0  0  0  0
  185.5020  174.5390  137.3800 C   0  0  0  0  0  2  0  0  0  0  0  0
  183.9810  174.5510  137.3080 C   0  0  0  0  0  2  0  0  0  0  0  0
  183.4860  175.9540  137.3340 C   0  0  0  0  0  0  0  0  0  0  0  0
  183.6780  176.6700  138.3510 O   0  0  0  0  0  0  0  0  0  0  0  0
  182.8280  176.4980  136.1970 N   0  0  0  0  0  1  0  0  0  0  0  0
  189.6720  178.1760  139.7120 C   0  0  0  0  0  2  0  0  0  0  0  0
  187.2720  177.9770  141.5600 C   0  0  0  0  0  1  0  0  0  0  0  0
  190.9040  175.4470  143.4230 C   0  0  0  0  0  1  0  0  0  0  0  0
  188.6670  177.5980  141.9290 C   0  0  0  0  0  0  0  0  0  0  0  0
  189.7060  177.6500  141.1160 C   0  0  0  0  0  0  0  0  0  0  0  0
  190.8900  177.2450  141.7780 N   0  0  0  0  0  0  0  0  0  0  0  0
  192.2330  177.3310  141.2270 C   0  0  0  0  0  1  0  0  0  0  0  0
  190.5870  176.9090  143.1590 C   0  0  1  0  0  3  0  0  0  0  0  0
  189.0750  177.1380  143.2930 C   0  0  1  0  0  3  0  0  0  0  0  0
  188.8410  178.1560  144.2210 O   0  0  0  0  0  0  0  0  0  0  0  0
  188.5680  177.4950  145.4200 C   0  0  0  0  0  2  0  0  0  0  0  0
  184.5660  178.8300  146.6440 O   0  0  0  0  0  0  0  0  0  0  0  0
  187.2590  177.9550  145.9570 C   0  0  0  0  0  0  0  0  0  0  0  0
  187.1110  178.0850  147.2010 O   0  0  0  0  0  0  0  0  0  0  0  0
  184.8670  178.6320  145.4360 C   0  0  0  0  0  3  0  0  0  0  0  0
  186.1770  178.2020  145.0530 N   0  0  0  0  0  2  0  0  0  0  0  0
  1  3  2  0  0  0  0
  2 23  1  0  0  0  0
  3  2  2  0  0  0  0
  5  4  1  1  0  0  0
  5  8  1  0  0  0  0
  6  9  1  6  0  0  0
  6  5  1  0  0  0  0
  6  8  1  0  0  0  0
  7  5  1  0  0  0  0
  8  2  1  1  0  0  0
  9 11  1  6  0  0  0
 10 11  2  0  0  0  0
 12  9  1  1  0  0  0
 12 14  1  0  0  0  0
 12 16  1  0  0  0  0
 14 13  1  6  0  0  0
 15 14  1  0  0  0  0
 16 17  1  6  0  0  0
 16 18  1  0  0  0  0
 19 20  1  0  0  0  0
 19 18  1  0  0  0  0
 20 21  2  0  0  0  0
 22 20  1  0  0  0  0
 23 27  1  0  0  0  0
 24 26  1  0  0  0  0
 26 31  1  0  0  0  0
 27 28  1  0  0  0  0
 27 26  2  0  0  0  0
 28 30  1  0  0  0  0
 29 28  1  0  0  0  0
 30 31  1  0  0  0  0
 30 25  1  6  0  0  0
 31 32  1  1  0  0  0
 32 33  1  0  0  0  0
 33 35  1  0  0  0  0
 35 36  2  0  0  0  0
 37 34  2  0  0  0  0
 38 37  1  0  0  0  0
 38 35  1  0  0  0  0
M  END
>  <MODEL>
5

>  <REMARK>
 VINA RESULT:      -5.5      2.458      4.689
  Name = 
  14 active torsions:
  status: ('A' for Active; 'I' for Inactive)
    1  A    between atoms: C_2  and  C_16
    2  A    between atoms: C_2  and  O_33
    3  A    between atoms: C_7  and  C_10
    4  A    between atoms: C_8  and  C_28
    5  A    between atoms: C_8  and  C_35
    6  A    between atoms: C_8  and  C_37
    7  A    between atoms: C_10  and  C_13
    8  A    between atoms: C_12  and  C_31
    9  A    between atoms: C_12  and  C_34
   10  A    between atoms: C_13  and  C_24
   11  A    between atoms: C_14  and  C_31
   12  A    between atoms: C_18  and  C_35
   13  A    between atoms: C_24  and  C_35
   14  A    between atoms: O_33  and  C_36
                            x       y       z     vdW  Elec       q    Type
                         _______ _______ _______ _____ _____    ______ ____

>  <TORSDO>
F 14

$$$$
=
 OpenBabel10232408093D

 38 39  0  0  1  0  0  0  0  0999 V2000
  189.2720  176.9600  147.5680 O   0  0  0  0  0  0  0  0  0  0  0  0
  187.9300  177.8420  145.5910 C   0  0  0  0  0  0  0  0  0  0  0  0
  188.6200  177.3890  146.6080 C   0  0  0  0  0  0  0  0  0  0  0  0
  186.3270  179.6140  147.2590 C   0  0  0  0  0  1  0  0  0  0  0  0
  185.6370  178.5810  146.3800 C   0  0  2  0  0  0  0  0  0  0  0  0
  185.6870  178.8690  144.8800 C   0  0  1  0  0  3  0  0  0  0  0  0
  184.4570  178.0150  146.8710 O   0  0  0  0  0  1  0  0  0  0  0  0
  186.4320  177.6580  145.4680 C   0  0  1  0  0  3  0  0  0  0  0  0
  184.4120  178.4290  144.1400 C   0  0  1  0  0  3  0  0  0  0  0  0
  183.6080  180.6660  144.0890 O   0  0  0  0  0  0  0  0  0  0  0  0
  183.3620  179.4920  144.3230 C   0  0  0  0  0  3  0  0  0  0  0  0
  184.6390  178.1130  142.6320 C   0  0  1  0  0  3  0  0  0  0  0  0
  183.4510  177.5970  140.4490 C   0  0  0  0  0  1  0  0  0  0  0  0
  183.4150  178.3890  141.7400 C   0  0  1  0  0  3  0  0  0  0  0  0
  182.2120  178.1920  142.4200 O   0  0  0  0  0  1  0  0  0  0  0  0
  185.8800  178.8580  142.0780 C   0  0  2  0  0  3  0  0  0  0  0  0
  185.5280  179.9160  141.2320 O   0  0  0  0  0  1  0  0  0  0  0  0
  186.8380  177.9240  141.3420 C   0  0  0  0  0  2  0  0  0  0  0  0
  188.0920  178.6510  140.8790 C   0  0  0  0  0  2  0  0  0  0  0  0
  188.3000  178.4210  139.4240 C   0  0  0  0  0  0  0  0  0  0  0  0
  189.3570  178.8200  138.8690 O   0  0  0  0  0  0  0  0  0  0  0  0
  187.3230  177.7180  138.6670 N   0  0  0  0  0  1  0  0  0  0  0  0
  188.6380  178.6400  144.5470 C   0  0  0  0  0  2  0  0  0  0  0  0
  191.4540  179.7450  144.2990 C   0  0  0  0  0  1  0  0  0  0  0  0
  191.5800  174.9800  143.7180 C   0  0  0  0  0  1  0  0  0  0  0  0
  191.0350  178.3770  143.8790 C   0  0  0  0  0  0  0  0  0  0  0  0
  189.8190  177.8820  144.0180 C   0  0  0  0  0  0  0  0  0  0  0  0
  189.7430  176.5670  143.4990 N   0  0  0  0  0  0  0  0  0  0  0  0
  188.5230  175.7900  143.3490 C   0  0  0  0  0  1  0  0  0  0  0  0
  191.0360  176.1790  142.9600 C   0  0  1  0  0  3  0  0  0  0  0  0
  191.9420  177.3940  143.2070 C   0  0  1  0  0  3  0  0  0  0  0  0
  192.3670  177.9110  141.9800 O   0  0  0  0  0  0  0  0  0  0  0  0
  191.6780  177.1690  141.0190 C   0  0  0  0  0  2  0  0  0  0  0  0
  193.8750  176.5900  137.2590 O   0  0  0  0  0  0  0  0  0  0  0  0
  192.5310  177.0010  139.8120 C   0  0  0  0  0  0  0  0  0  0  0  0
  193.7570  177.2860  139.8750 O   0  0  0  0  0  0  0  0  0  0  0  0
  192.6370  176.3690  137.3530 C   0  0  0  0  0  3  0  0  0  0  0  0
  191.9370  176.5580  138.5880 N   0  0  0  0  0  2  0  0  0  0  0  0
  2  3  2  0  0  0  0
  3  1  2  0  0  0  0
  5  7  1  0  0  0  0
  5  4  1  1  0  0  0
  6  9  1  6  0  0  0
  6  8  1  0  0  0  0
  6  5  1  0  0  0  0
  8  2  1  1  0  0  0
  8  5  1  0  0  0  0
  9 11  1  6  0  0  0
 10 11  2  0  0  0  0
 12 14  1  6  0  0  0
 12  9  1  0  0  0  0
 14 13  1  6  0  0  0
 14 15  1  0  0  0  0
 16 17  1  6  0  0  0
 16 12  1  0  0  0  0
 18 16  1  0  0  0  0
 19 18  1  0  0  0  0
 20 19  1  0  0  0  0
 21 20  2  0  0  0  0
 22 20  1  0  0  0  0
 23  2  1  0  0  0  0
 26 27  2  0  0  0  0
 26 24  1  0  0  0  0
 27 23  1  0  0  0  0
 28 27  1  0  0  0  0
 29 28  1  0  0  0  0
 30 31  1  0  0  0  0
 30 28  1  0  0  0  0
 30 25  1  1  0  0  0
 31 32  1  6  0  0  0
 31 26  1  0  0  0  0
 33 32  1  0  0  0  0
 34 37  2  0  0  0  0
 35 36  2  0  0  0  0
 35 33  1  0  0  0  0
 37 38  1  0  0  0  0
 38 35  1  0  0  0  0
M  END
>  <MODEL>
6

>  <REMARK>
 VINA RESULT:      -5.4      2.245      6.865
  Name = 
  14 active torsions:
  status: ('A' for Active; 'I' for Inactive)
    1  A    between atoms: C_2  and  C_16
    2  A    between atoms: C_2  and  O_33
    3  A    between atoms: C_7  and  C_10
    4  A    between atoms: C_8  and  C_28
    5  A    between atoms: C_8  and  C_35
    6  A    between atoms: C_8  and  C_37
    7  A    between atoms: C_10  and  C_13
    8  A    between atoms: C_12  and  C_31
    9  A    between atoms: C_12  and  C_34
   10  A    between atoms: C_13  and  C_24
   11  A    between atoms: C_14  and  C_31
   12  A    between atoms: C_18  and  C_35
   13  A    between atoms: C_24  and  C_35
   14  A    between atoms: O_33  and  C_36
                            x       y       z     vdW  Elec       q    Type
                         _______ _______ _______ _____ _____    ______ ____

>  <TORSDO>
F 14

$$$$
=
 OpenBabel10232408093D

 38 39  0  0  1  0  0  0  0  0999 V2000
  189.4370  173.8940  137.6830 O   0  0  0  0  0  0  0  0  0  0  0  0
  190.4340  176.2220  137.4020 C   0  0  0  0  0  0  0  0  0  0  0  0
  189.9220  175.0250  137.5470 C   0  0  0  0  0  0  0  0  0  0  0  0
  188.1170  177.7930  136.5930 C   0  0  0  0  0  1  0  0  0  0  0  0
  188.8950  178.1890  137.8400 C   0  0  2  0  0  0  0  0  0  0  0  0
  188.7330  177.2450  139.0310 C   0  0  1  0  0  3  0  0  0  0  0  0
  188.9840  179.5530  138.1280 O   0  0  0  0  0  1  0  0  0  0  0  0
  190.0910  177.3770  138.3180 C   0  0  1  0  0  3  0  0  0  0  0  0
  188.7440  177.9760  140.3840 C   0  0  1  0  0  3  0  0  0  0  0  0
  186.4330  178.3670  139.9840 O   0  0  0  0  0  0  0  0  0  0  0  0
  187.4620  178.7530  140.5180 C   0  0  0  0  0  3  0  0  0  0  0  0
  188.9640  177.0350  141.6040 C   0  0  1  0  0  3  0  0  0  0  0  0
  191.4580  177.4870  141.7370 C   0  0  0  0  0  1  0  0  0  0  0  0
  190.3760  176.4280  141.6840 C   0  0  1  0  0  3  0  0  0  0  0  0
  190.5030  175.5230  142.7390 O   0  0  0  0  0  1  0  0  0  0  0  0
  188.6130  177.7420  142.9370 C   0  0  2  0  0  3  0  0  0  0  0  0
  189.7550  178.1630  143.6300 O   0  0  0  0  0  1  0  0  0  0  0  0
  187.7640  176.8670  143.8550 C   0  0  0  0  0  2  0  0  0  0  0  0
  186.6110  177.6460  144.4730 C   0  0  0  0  0  2  0  0  0  0  0  0
  186.7520  177.6650  145.9530 C   0  0  0  0  0  0  0  0  0  0  0  0
  185.7820  178.0200  146.6730 O   0  0  0  0  0  0  0  0  0  0  0  0
  187.9690  177.2480  146.5590 N   0  0  0  0  0  1  0  0  0  0  0  0
  191.4560  176.4350  136.3360 C   0  0  0  0  0  2  0  0  0  0  0  0
  193.3970  176.6010  138.6630 C   0  0  0  0  0  1  0  0  0  0  0  0
  194.0500  172.4340  136.3670 C   0  0  0  0  0  1  0  0  0  0  0  0
  193.4940  175.6250  137.5400 C   0  0  0  0  0  0  0  0  0  0  0  0
  192.6310  175.5270  136.5450 C   0  0  0  0  0  0  0  0  0  0  0  0
  193.0190  174.5170  135.6330 N   0  0  0  0  0  0  0  0  0  0  0  0
  192.3850  174.2510  134.3510 C   0  0  0  0  0  1  0  0  0  0  0  0
  194.2630  173.9090  136.0760 C   0  0  1  0  0  3  0  0  0  0  0  0
  194.6120  174.6430  137.3790 C   0  0  1  0  0  3  0  0  0  0  0  0
  195.8180  175.3300  137.2140 O   0  0  0  0  0  0  0  0  0  0  0  0
  196.8080  174.3520  137.3300 C   0  0  0  0  0  2  0  0  0  0  0  0
  198.8130  175.1360  141.1590 O   0  0  0  0  0  0  0  0  0  0  0  0
  197.6000  174.5870  138.5670 C   0  0  0  0  0  0  0  0  0  0  0  0
  198.8300  174.3140  138.5770 O   0  0  0  0  0  0  0  0  0  0  0  0
  197.5800  175.3370  140.9950 C   0  0  0  0  0  3  0  0  0  0  0  0
  196.9430  175.0820  139.7390 N   0  0  0  0  0  2  0  0  0  0  0  0
  2  3  2  0  0  0  0
  3  1  2  0  0  0  0
  5  4  1  6  0  0  0
  5  7  1  0  0  0  0
  5  8  1  0  0  0  0
  5  6  1  0  0  0  0
  6  9  1  1  0  0  0
  8  2  1  6  0  0  0
  8  6  1  0  0  0  0
  9 11  1  1  0  0  0
 10 11  2  0  0  0  0
 12  9  1  6  0  0  0
 12 14  1  0  0  0  0
 12 16  1  0  0  0  0
 14 13  1  1  0  0  0
 14 15  1  0  0  0  0
 16 17  1  1  0  0  0
 16 18  1  0  0  0  0
 18 19  1  0  0  0  0
 19 20  1  0  0  0  0
 20 22  1  0  0  0  0
 20 21  2  0  0  0  0
 23 27  1  0  0  0  0
 23  2  1  0  0  0  0
 26 24  1  0  0  0  0
 27 26  2  0  0  0  0
 28 30  1  0  0  0  0
 28 27  1  0  0  0  0
 29 28  1  0  0  0  0
 30 25  1  1  0  0  0
 30 31  1  0  0  0  0
 31 32  1  6  0  0  0
 31 26  1  0  0  0  0
 32 33  1  0  0  0  0
 33 35  1  0  0  0  0
 35 36  2  0  0  0  0
 35 38  1  0  0  0  0
 37 34  2  0  0  0  0
 38 37  1  0  0  0  0
M  END
>  <MODEL>
7

>  <REMARK>
 VINA RESULT:      -5.4      2.647      9.418
  Name = 
  14 active torsions:
  status: ('A' for Active; 'I' for Inactive)
    1  A    between atoms: C_2  and  C_16
    2  A    between atoms: C_2  and  O_33
    3  A    between atoms: C_7  and  C_10
    4  A    between atoms: C_8  and  C_28
    5  A    between atoms: C_8  and  C_35
    6  A    between atoms: C_8  and  C_37
    7  A    between atoms: C_10  and  C_13
    8  A    between atoms: C_12  and  C_31
    9  A    between atoms: C_12  and  C_34
   10  A    between atoms: C_13  and  C_24
   11  A    between atoms: C_14  and  C_31
   12  A    between atoms: C_18  and  C_35
   13  A    between atoms: C_24  and  C_35
   14  A    between atoms: O_33  and  C_36
                            x       y       z     vdW  Elec       q    Type
                         _______ _______ _______ _____ _____    ______ ____

>  <TORSDO>
F 14

$$$$
=
 OpenBabel10232408093D

 38 39  0  0  1  0  0  0  0  0999 V2000
  187.4570  179.2330  137.1170 O   0  0  0  0  0  0  0  0  0  0  0  0
  188.1850  176.7920  137.0620 C   0  0  0  0  0  0  0  0  0  0  0  0
  187.8100  178.0470  137.0910 C   0  0  0  0  0  0  0  0  0  0  0  0
  190.9840  176.4310  136.3370 C   0  0  0  0  0  1  0  0  0  0  0  0
  190.4960  175.9710  137.7030 C   0  0  2  0  0  0  0  0  0  0  0  0
  190.1540  177.0940  138.6810 C   0  0  1  0  0  3  0  0  0  0  0  0
  191.0990  174.8310  138.2420 O   0  0  0  0  0  1  0  0  0  0  0  0
  189.0510  176.1700  138.1360 C   0  0  1  0  0  3  0  0  0  0  0  0
  190.4990  176.7470  140.1400 C   0  0  1  0  0  3  0  0  0  0  0  0
  192.8120  177.2890  140.2070 O   0  0  0  0  0  0  0  0  0  0  0  0
  191.6800  177.5780  140.5630 C   0  0  0  0  0  3  0  0  0  0  0  0
  189.3040  176.9200  141.1240 C   0  0  1  0  0  3  0  0  0  0  0  0
  188.3450  176.1610  143.3480 C   0  0  0  0  0  1  0  0  0  0  0  0
  189.6050  176.4660  142.5640 C   0  0  1  0  0  3  0  0  0  0  0  0
  190.4960  175.3920  142.6030 O   0  0  0  0  0  1  0  0  0  0  0  0
  188.7780  178.3770  141.1250 C   0  0  2  0  0  3  0  0  0  0  0  0
  188.9330  178.9950  142.3720 O   0  0  0  0  0  1  0  0  0  0  0  0
  187.3140  178.4680  140.6990 C   0  0  0  0  0  2  0  0  0  0  0  0
  186.4250  178.9610  141.8320 C   0  0  0  0  0  2  0  0  0  0  0  0
  185.0040  178.9590  141.3940 C   0  0  0  0  0  0  0  0  0  0  0  0
  184.6930  179.4160  140.2630 O   0  0  0  0  0  0  0  0  0  0  0  0
  183.9990  178.4090  142.2370 N   0  0  0  0  0  1  0  0  0  0  0  0
  187.6740  175.9200  135.9640 C   0  0  0  0  0  2  0  0  0  0  0  0
  184.8570  177.0440  135.8410 C   0  0  0  0  0  1  0  0  0  0  0  0
  184.6280  172.3200  136.6690 C   0  0  0  0  0  1  0  0  0  0  0  0
  185.2170  175.7010  136.3800 C   0  0  0  0  0  0  0  0  0  0  0  0
  186.4360  175.1960  136.4020 C   0  0  0  0  0  0  0  0  0  0  0  0
  186.4440  173.9120  136.9980 N   0  0  0  0  0  0  0  0  0  0  0  0
  187.6340  173.1410  137.3220 C   0  0  0  0  0  1  0  0  0  0  0  0
  185.0970  173.5570  137.4140 C   0  0  1  0  0  3  0  0  0  0  0  0
  184.2340  174.7600  137.0030 C   0  0  1  0  0  3  0  0  0  0  0  0
  183.6830  175.3450  138.1450 O   0  0  0  0  0  0  0  0  0  0  0  0
  182.3080  175.1280  138.0340 C   0  0  0  0  0  2  0  0  0  0  0  0
  180.5540  179.1540  137.9340 O   0  0  0  0  0  0  0  0  0  0  0  0
  181.6000  176.4350  137.9690 C   0  0  0  0  0  0  0  0  0  0  0  0
  180.4060  176.4740  137.5660 O   0  0  0  0  0  0  0  0  0  0  0  0
  181.7450  178.9510  138.2930 C   0  0  0  0  0  3  0  0  0  0  0  0
  182.3000  177.6310  138.3250 N   0  0  0  0  0  2  0  0  0  0  0  0
  2  3  2  0  0  0  0
  3  1  2  0  0  0  0
  5  4  1  6  0  0  0
  5  8  1  0  0  0  0
  5  7  1  0  0  0  0
  5  6  1  0  0  0  0
  6  9  1  1  0  0  0
  8  2  1  6  0  0  0
  8  6  1  0  0  0  0
  9 11  1  1  0  0  0
 10 11  2  0  0  0  0
 12  9  1  6  0  0  0
 12 16  1  0  0  0  0
 12 14  1  0  0  0  0
 14 15  1  0  0  0  0
 14 13  1  6  0  0  0
 16 17  1  1  0  0  0
 18 16  1  0  0  0  0
 18 19  1  0  0  0  0
 20 19  1  0  0  0  0
 20 22  1  0  0  0  0
 21 20  2  0  0  0  0
 23 27  1  0  0  0  0
 23  2  1  0  0  0  0
 24 26  1  0  0  0  0
 26 27  2  0  0  0  0
 26 31  1  0  0  0  0
 27 28  1  0  0  0  0
 28 29  1  0  0  0  0
 28 30  1  0  0  0  0
 30 25  1  6  0  0  0
 31 30  1  0  0  0  0
 31 32  1  1  0  0  0
 33 32  1  0  0  0  0
 34 37  2  0  0  0  0
 35 33  1  0  0  0  0
 35 38  1  0  0  0  0
 36 35  2  0  0  0  0
 37 38  1  0  0  0  0
M  END
>  <MODEL>
8

>  <REMARK>
 VINA RESULT:      -5.4      3.288      7.519
  Name = 
  14 active torsions:
  status: ('A' for Active; 'I' for Inactive)
    1  A    between atoms: C_2  and  C_16
    2  A    between atoms: C_2  and  O_33
    3  A    between atoms: C_7  and  C_10
    4  A    between atoms: C_8  and  C_28
    5  A    between atoms: C_8  and  C_35
    6  A    between atoms: C_8  and  C_37
    7  A    between atoms: C_10  and  C_13
    8  A    between atoms: C_12  and  C_31
    9  A    between atoms: C_12  and  C_34
   10  A    between atoms: C_13  and  C_24
   11  A    between atoms: C_14  and  C_31
   12  A    between atoms: C_18  and  C_35
   13  A    between atoms: C_24  and  C_35
   14  A    between atoms: O_33  and  C_36
                            x       y       z     vdW  Elec       q    Type
                         _______ _______ _______ _____ _____    ______ ____

>  <TORSDO>
F 14

$$$$
=
 OpenBabel10232408093D

 38 39  0  0  1  0  0  0  0  0999 V2000
  189.9580  175.7080  138.9800 O   0  0  0  0  0  0  0  0  0  0  0  0
  188.5550  177.8160  139.2590 C   0  0  0  0  0  0  0  0  0  0  0  0
  189.2760  176.7310  139.1160 C   0  0  0  0  0  0  0  0  0  0  0  0
  189.2380  178.8820  136.6340 C   0  0  0  0  0  1  0  0  0  0  0  0
  187.7750  178.7220  137.0230 C   0  0  2  0  0  0  0  0  0  0  0  0
  187.2780  177.2780  137.0980 C   0  0  1  0  0  3  0  0  0  0  0  0
  186.8770  179.6690  136.5250 O   0  0  0  0  0  1  0  0  0  0  0  0
  187.3730  178.1380  138.3700 C   0  0  1  0  0  3  0  0  0  0  0  0
  185.8170  177.1200  136.6420 C   0  0  1  0  0  3  0  0  0  0  0  0
  186.7940  176.7330  134.5100 O   0  0  0  0  0  0  0  0  0  0  0  0
  185.8100  176.6150  135.2240 C   0  0  0  0  0  3  0  0  0  0  0  0
  184.9660  176.2070  137.5720 C   0  0  1  0  0  3  0  0  0  0  0  0
  183.5330  177.2210  139.4060 C   0  0  0  0  0  1  0  0  0  0  0  0
  183.5960  176.7990  137.9520 C   0  0  1  0  0  3  0  0  0  0  0  0
  183.2200  177.8430  137.1060 O   0  0  0  0  0  1  0  0  0  0  0  0
  184.7850  174.7930  136.9660 C   0  0  2  0  0  3  0  0  0  0  0  0
  183.5630  174.2140  137.3290 O   0  0  0  0  0  1  0  0  0  0  0  0
  185.9200  173.8470  137.3460 C   0  0  0  0  0  2  0  0  0  0  0  0
  186.4550  173.0900  136.1380 C   0  0  0  0  0  2  0  0  0  0  0  0
  187.7340  172.4170  136.4910 C   0  0  0  0  0  0  0  0  0  0  0  0
  187.8650  171.1790  136.3060 O   0  0  0  0  0  0  0  0  0  0  0  0
  188.8210  173.1760  137.0040 N   0  0  0  0  0  1  0  0  0  0  0  0
  188.8660  178.7340  140.3950 C   0  0  0  0  0  2  0  0  0  0  0  0
  186.7120  178.1010  142.4370 C   0  0  0  0  0  1  0  0  0  0  0  0
  190.5780  175.4000  143.3430 C   0  0  0  0  0  1  0  0  0  0  0  0
  188.1460  177.7110  142.5610 C   0  0  0  0  0  0  0  0  0  0  0  0
  189.0780  177.9540  141.6570 C   0  0  0  0  0  0  0  0  0  0  0  0
  190.3390  177.4750  142.0860 N   0  0  0  0  0  0  0  0  0  0  0  0
  191.6040  177.7120  141.4090 C   0  0  0  0  0  1  0  0  0  0  0  0
  190.2120  176.8730  143.4030 C   0  0  1  0  0  3  0  0  0  0  0  0
  188.7230  177.0170  143.7550 C   0  0  1  0  0  3  0  0  0  0  0  0
  188.5910  177.8330  144.8810 O   0  0  0  0  0  0  0  0  0  0  0  0
  188.4710  176.9470  145.9550 C   0  0  0  0  0  2  0  0  0  0  0  0
  192.0170  177.2740  148.5250 O   0  0  0  0  0  0  0  0  0  0  0  0
  189.6060  177.1470  146.8950 C   0  0  0  0  0  0  0  0  0  0  0  0
  189.5340  178.0510  147.7710 O   0  0  0  0  0  0  0  0  0  0  0  0
  191.9430  176.4340  147.5890 C   0  0  0  0  0  3  0  0  0  0  0  0
  190.7780  176.3360  146.7640 N   0  0  0  0  0  2  0  0  0  0  0  0
  1  3  2  0  0  0  0
  2 23  1  0  0  0  0
  3  2  2  0  0  0  0
  5  4  1  6  0  0  0
  5  6  1  0  0  0  0
  5  8  1  0  0  0  0
  6  9  1  6  0  0  0
  6  8  1  0  0  0  0
  7  5  1  0  0  0  0
  8  2  1  1  0  0  0
  9 11  1  6  0  0  0
 10 11  2  0  0  0  0
 12  9  1  6  0  0  0
 12 14  1  0  0  0  0
 14 13  1  1  0  0  0
 15 14  1  0  0  0  0
 16 17  1  1  0  0  0
 16 18  1  0  0  0  0
 16 12  1  0  0  0  0
 19 20  1  0  0  0  0
 19 18  1  0  0  0  0
 20 22  1  0  0  0  0
 21 20  2  0  0  0  0
 23 27  1  0  0  0  0
 24 26  1  0  0  0  0
 26 31  1  0  0  0  0
 27 28  1  0  0  0  0
 27 26  2  0  0  0  0
 28 30  1  0  0  0  0
 29 28  1  0  0  0  0
 30 25  1  6  0  0  0
 30 31  1  0  0  0  0
 31 32  1  1  0  0  0
 32 33  1  0  0  0  0
 33 35  1  0  0  0  0
 35 36  2  0  0  0  0
 37 34  2  0  0  0  0
 38 35  1  0  0  0  0
 38 37  1  0  0  0  0
M  END
>  <MODEL>
9

>  <REMARK>
 VINA RESULT:      -5.1      2.881      5.113
  Name = 
  14 active torsions:
  status: ('A' for Active; 'I' for Inactive)
    1  A    between atoms: C_2  and  C_16
    2  A    between atoms: C_2  and  O_33
    3  A    between atoms: C_7  and  C_10
    4  A    between atoms: C_8  and  C_28
    5  A    between atoms: C_8  and  C_35
    6  A    between atoms: C_8  and  C_37
    7  A    between atoms: C_10  and  C_13
    8  A    between atoms: C_12  and  C_31
    9  A    between atoms: C_12  and  C_34
   10  A    between atoms: C_13  and  C_24
   11  A    between atoms: C_14  and  C_31
   12  A    between atoms: C_18  and  C_35
   13  A    between atoms: C_24  and  C_35
   14  A    between atoms: O_33  and  C_36
                            x       y       z     vdW  Elec       q    Type
                         _______ _______ _______ _____ _____    ______ ____

>  <TORSDO>
F 14

$$$$
