=
 OpenBabel10232407523D

 61 66  0  0  1  0  0  0  0  0999 V2000
  190.6850  175.3270  137.7050 C   0  0  0  0  0  2  0  0  0  0  0  0
  187.9400  175.8760  134.4490 C   0  0  1  0  0  3  0  0  0  0  0  0
  189.3690  178.2990  139.6340 C   0  0  1  0  0  3  0  0  0  0  0  0
  187.3680  176.9980  138.7980 C   0  0  0  0  0  2  0  0  0  0  0  0
  190.6540  176.7900  138.1050 C   0  0  0  0  0  2  0  0  0  0  0  0
  190.3720  175.3500  134.6530 C   0  0  0  0  0  2  0  0  0  0  0  0
  186.7720  176.4470  135.2600 C   0  0  1  0  0  0  0  0  0  0  0  0
  189.2950  176.3790  134.9290 C   0  0  0  0  0  2  0  0  0  0  0  0
  188.0020  178.3490  139.1450 C   0  0  1  0  0  3  0  0  0  0  0  0
  191.6510  175.7540  135.3760 C   0  0  0  0  0  2  0  0  0  0  0  0
  186.3650  177.1010  137.6520 C   0  0  1  0  0  3  0  0  0  0  0  0
  191.8260  175.0530  136.7280 C   0  0  2  0  0  3  0  0  0  0  0  0
  186.4630  179.0590  141.0920 N   0  0  0  0  0  2  0  0  0  0  0  0
  187.2880  175.0460  135.5450 C   0  0  0  0  0  2  0  0  0  0  0  0
  188.9730  178.5810  140.9980 N   0  0  0  0  0  2  0  0  0  0  0  0
  185.3200  178.0640  137.9520 N   0  0  0  0  0  1  0  0  0  0  0  0
  187.0690  177.4700  136.3530 C   0  0  0  0  0  2  0  0  0  0  0  0
  187.5810  178.7300  140.5320 C   0  0  0  0  0  0  0  0  0  0  0  0
  190.0890  176.9440  139.5110 C   0  0  1  0  0  3  0  0  0  0  0  0
  191.2000  176.8190  140.5130 C   0  0  0  0  0  0  0  0  0  0  0  0
  192.3430  177.4670  140.3100 C   0  0  0  0  0  2  0  0  0  0  0  0
  191.0460  176.0180  141.6430 O   0  0  0  0  0  0  0  0  0  0  0  0
  190.0190  177.5710  145.5460 C   0  0  0  0  0  0  0  0  0  0  0  0
  191.5970  176.3680  143.9770 C   0  0  0  0  0  2  0  0  0  0  0  0
  188.6060  177.0990  145.3230 C   0  0  2  0  0  3  0  0  0  0  0  0
  191.0940  176.5390  145.4170 C   0  0  0  0  0  2  0  0  0  0  0  0
  190.3410  178.8620  145.4520 C   0  0  0  0  0  2  0  0  0  0  0  0
  188.2900  176.9420  143.8330 C   0  0  0  0  0  2  0  0  0  0  0  0
  189.2060  175.9160  143.1730 C   0  0  0  0  0  2  0  0  0  0  0  0
  190.5530  176.5540  142.8610 C   0  0  2  0  0  3  0  0  0  0  0  0
  187.5540  177.9110  146.0960 C   0  0  1  0  0  3  0  0  0  0  0  0
  185.6060  178.5380  145.4360 O   0  0  0  0  0  1  0  0  0  0  0  0
  186.2570  177.4590  145.8280 O   0  0  0  0  0  0  0  0  0  0  0  0
  188.3640  176.6890  148.0100 O   0  0  0  0  0  1  0  0  0  0  0  0
  187.8350  177.9160  147.5980 C   0  0  0  0  0  2  0  0  0  0  0  0
  185.0210  177.8730  134.3480 O   0  0  0  0  0  1  0  0  0  0  0  0
  185.4190  176.5490  134.5440 C   0  0  2  0  0  3  0  0  0  0  0  0
  184.3330  175.7660  135.2700 C   0  0  0  0  0  2  0  0  0  0  0  0
  183.0290  176.0430  134.6850 N   0  0  0  0  0  2  0  0  0  0  0  0
  182.1880  177.1920  136.7210 N   0  0  0  0  0  2  0  0  0  0  0  0
  182.0020  176.7680  135.3650 C   0  0  0  0  0  0  0  0  0  0  0  0
  180.9340  177.0340  134.7560 O   0  0  0  0  0  0  0  0  0  0  0  0
  181.1170  178.1220  140.9840 C   0  0  0  0  0  1  0  0  0  0  0  0
  181.7940  179.5770  137.8200 S   0  0  0  0  0  0  0  0  0  0  0  0
  180.9490  177.2910  138.8020 C   0  0  2  0  0  3  0  0  0  0  0  0
  180.6640  179.6230  139.2390 C   0  0  0  0  0  2  0  0  0  0  0  0
  180.3970  178.2730  139.7320 N   0  0  0  0  0  0  0  0  0  0  0  0
  181.1740  177.9350  137.4510 C   0  0  2  0  0  3  0  0  0  0  0  0
  179.9960  176.1110  138.6590 C   0  0  0  0  0  2  0  0  0  0  0  0
  180.0980  173.8710  139.3900 O   0  0  0  0  0  0  0  0  0  0  0  0
  180.2980  175.0470  139.6600 C   0  0  0  0  0  3  0  0  0  0  0  0
  192.0410  173.5540  136.5350 C   0  0  0  0  0  2  0  0  0  0  0  0
  193.4610  173.1300  136.8910 C   0  0  0  0  0  2  0  0  0  0  0  0
  194.1790  172.5150  135.6970 C   0  0  2  0  0  3  0  0  0  0  0  0
  193.2490  171.9280  134.8340 O   0  0  0  0  0  1  0  0  0  0  0  0
  196.1860  171.8930  137.2150 C   0  0  2  0  0  3  0  0  0  0  0  0
  195.0140  170.9920  137.5920 C   0  0  0  0  0  2  0  0  0  0  0  0
  195.5390  170.4400  135.2830 O   0  0  0  0  0  1  0  0  0  0  0  0
  195.1720  171.4610  136.1660 C   0  0  1  0  0  0  0  0  0  0  0  0
  197.4220  171.1020  137.1680 C   0  0  0  0  0  0  0  0  0  0  0  0
  198.3950  170.4780  137.1180 N   0  0  0  0  0  0  0  0  0  0  0  0
  1  5  1  0  0  0  0
  2  8  1  1  0  0  0
  2  7  1  0  0  0  0
  2 14  1  0  0  0  0
  3 15  1  1  0  0  0
  5 19  1  0  0  0  0
  6  8  1  0  0  0  0
  6 10  1  0  0  0  0
  7 37  1  6  0  0  0
  7 14  1  0  0  0  0
  7 17  1  0  0  0  0
  9  4  1  1  0  0  0
  9  3  1  0  0  0  0
  9 18  1  0  0  0  0
 10 12  1  0  0  0  0
 11 16  1  1  0  0  0
 11  4  1  0  0  0  0
 12 52  1  6  0  0  0
 12  1  1  0  0  0  0
 17 11  1  0  0  0  0
 18 15  1  0  0  0  0
 18 13  2  0  0  0  0
 19  3  1  0  0  0  0
 19 20  1  1  0  0  0
 20 22  1  0  0  0  0
 21 20  2  0  0  0  0
 24 26  1  0  0  0  0
 25 23  1  0  0  0  0
 25 31  1  6  0  0  0
 26 23  1  0  0  0  0
 27 23  2  0  0  0  0
 28 25  1  0  0  0  0
 29 28  1  0  0  0  0
 30 22  1  6  0  0  0
 30 29  1  0  0  0  0
 30 24  1  0  0  0  0
 31 35  1  1  0  0  0
 32 33  1  0  0  0  0
 33 31  1  0  0  0  0
 35 34  1  0  0  0  0
 37 36  1  1  0  0  0
 37 38  1  0  0  0  0
 39 38  1  0  0  0  0
 39 41  1  0  0  0  0
 41 40  1  0  0  0  0
 42 41  2  0  0  0  0
 44 46  1  0  0  0  0
 45 49  1  6  0  0  0
 45 47  1  0  0  0  0
 46 47  1  0  0  0  0
 47 43  1  0  0  0  0
 48 40  1  6  0  0  0
 48 44  1  0  0  0  0
 48 45  1  0  0  0  0
 49 51  1  0  0  0  0
 50 51  2  0  0  0  0
 52 53  1  0  0  0  0
 54 55  1  6  0  0  0
 54 59  1  0  0  0  0
 54 53  1  0  0  0  0
 56 60  1  6  0  0  0
 56 57  1  0  0  0  0
 59 58  1  6  0  0  0
 59 56  1  0  0  0  0
 59 57  1  0  0  0  0
 61 60  3  0  0  0  0
M  END
>  <MODEL>
1

>  <REMARK>
 VINA RESULT:      -6.5      0.000      0.000
  Name = 
  17 active torsions:
  status: ('A' for Active; 'I' for Inactive)
    1  A    between atoms: N_4  and  C_53
    2  A    between atoms: C_6  and  C_8
    3  A    between atoms: C_9  and  C_14
    4  A    between atoms: C_9  and  C_39
    5  A    between atoms: C_11  and  O_48
    6  A    between atoms: C_11  and  C_54
    7  A    between atoms: C_14  and  C_50
    8  A    between atoms: C_20  and  C_55
    9  A    between atoms: C_22  and  C_24
   10  A    between atoms: C_22  and  O_45
   11  A    between atoms: C_22  and  C_59
   12  A    between atoms: C_29  and  C_39
   13  A    between atoms: C_35  and  C_42
   14  A    between atoms: C_35  and  C_52
   15  A    between atoms: N_40  and  C_61
   16  A    between atoms: O_48  and  C_60
   17  A    between atoms: C_53  and  C_55
                            x       y       z     vdW  Elec       q    Type
                         _______ _______ _______ _____ _____    ______ ____

>  <TORSDO>
F 17

$$$$
=
 OpenBabel10232407523D

 61 66  0  0  1  0  0  0  0  0999 V2000
  187.1910  177.3010  138.4500 C   0  0  0  0  0  2  0  0  0  0  0  0
  189.5210  174.8570  135.7980 C   0  0  1  0  0  3  0  0  0  0  0  0
  183.9010  176.2700  136.9020 C   0  0  1  0  0  3  0  0  0  0  0  0
  185.2780  174.1700  137.2160 C   0  0  0  0  0  2  0  0  0  0  0  0
  186.0410  177.4380  137.4710 C   0  0  0  0  0  2  0  0  0  0  0  0
  189.7010  177.1830  136.6890 C   0  0  0  0  0  2  0  0  0  0  0  0
  188.5040  173.7260  135.6140 C   0  0  1  0  0  0  0  0  0  0  0  0
  188.8720  176.2340  135.8460 C   0  0  0  0  0  2  0  0  0  0  0  0
  184.2480  174.9530  136.3940 C   0  0  1  0  0  3  0  0  0  0  0  0
  188.9050  178.4570  136.9430 C   0  0  0  0  0  2  0  0  0  0  0  0
  186.1470  173.2620  136.3510 C   0  0  1  0  0  3  0  0  0  0  0  0
  188.1800  178.4540  138.2940 C   0  0  2  0  0  3  0  0  0  0  0  0
  182.2040  173.4040  136.6760 N   0  0  0  0  0  2  0  0  0  0  0  0
  189.0630  174.0360  136.9930 C   0  0  0  0  0  2  0  0  0  0  0  0
  182.6040  175.8310  137.3730 N   0  0  0  0  0  2  0  0  0  0  0  0
  185.3360  172.3360  135.5800 N   0  0  0  0  0  1  0  0  0  0  0  0
  187.0330  174.0870  135.4270 C   0  0  0  0  0  2  0  0  0  0  0  0
  182.8760  174.5020  136.7930 C   0  0  0  0  0  0  0  0  0  0  0  0
  184.7770  176.8120  138.0460 C   0  0  1  0  0  3  0  0  0  0  0  0
  184.0420  177.8340  138.8640 C   0  0  0  0  0  0  0  0  0  0  0  0
  184.2160  179.1270  138.6110 C   0  0  0  0  0  2  0  0  0  0  0  0
  183.1920  177.4350  139.8940 O   0  0  0  0  0  0  0  0  0  0  0  0
  183.2790  179.0720  143.8950 C   0  0  0  0  0  0  0  0  0  0  0  0
  182.2400  178.8720  141.5970 C   0  0  0  0  0  2  0  0  0  0  0  0
  184.7770  179.1840  143.7790 C   0  0  2  0  0  3  0  0  0  0  0  0
  182.4760  179.7530  142.8320 C   0  0  0  0  0  2  0  0  0  0  0  0
  182.7100  178.1130  144.6260 C   0  0  0  0  0  2  0  0  0  0  0  0
  185.3360  178.2210  142.7280 C   0  0  0  0  0  2  0  0  0  0  0  0
  184.7640  178.5140  141.3430 C   0  0  0  0  0  2  0  0  0  0  0  0
  183.3750  177.9030  141.2210 C   0  0  2  0  0  3  0  0  0  0  0  0
  185.5080  179.1170  145.1300 C   0  0  1  0  0  3  0  0  0  0  0  0
  185.0420  178.5000  147.1360 O   0  0  0  0  0  1  0  0  0  0  0  0
  184.6320  179.3340  146.2000 O   0  0  0  0  0  0  0  0  0  0  0  0
  187.4950  178.0110  145.9320 O   0  0  0  0  0  1  0  0  0  0  0  0
  186.2670  177.8000  145.2980 C   0  0  0  0  0  2  0  0  0  0  0  0
  188.9840  171.3470  135.8020 O   0  0  0  0  0  1  0  0  0  0  0  0
  189.0100  172.4450  134.9390 C   0  0  2  0  0  3  0  0  0  0  0  0
  190.4010  172.6270  134.3460 C   0  0  0  0  0  2  0  0  0  0  0  0
  191.4020  171.9990  135.1950 N   0  0  0  0  0  2  0  0  0  0  0  0
  192.7700  174.0660  135.3740 N   0  0  0  0  0  2  0  0  0  0  0  0
  192.5280  172.6980  135.7300 C   0  0  0  0  0  0  0  0  0  0  0  0
  193.3010  172.1010  136.5220 O   0  0  0  0  0  0  0  0  0  0  0  0
  195.5420  173.9560  138.9080 C   0  0  0  0  0  1  0  0  0  0  0  0
  195.4250  174.0450  135.3640 S   0  0  0  0  0  0  0  0  0  0  0  0
  193.9170  174.7210  137.4070 C   0  0  2  0  0  3  0  0  0  0  0  0
  196.2330  174.7680  136.8190 C   0  0  0  0  0  2  0  0  0  0  0  0
  195.2700  174.9660  137.9010 N   0  0  0  0  0  0  0  0  0  0  0  0
  193.8980  174.8190  135.8960 C   0  0  2  0  0  3  0  0  0  0  0  0
  192.9500  175.7360  138.0020 C   0  0  0  0  0  2  0  0  0  0  0  0
  193.4810  177.1320  139.8270 O   0  0  0  0  0  0  0  0  0  0  0  0
  193.6810  176.8640  138.6510 C   0  0  0  0  0  3  0  0  0  0  0  0
  189.1830  178.4830  139.4450 C   0  0  0  0  0  2  0  0  0  0  0  0
  189.0200  177.2860  140.3740 C   0  0  0  0  0  2  0  0  0  0  0  0
  188.7140  177.7200  141.8000 C   0  0  2  0  0  3  0  0  0  0  0  0
  188.2800  179.0490  141.8100 O   0  0  0  0  0  1  0  0  0  0  0  0
  190.0310  176.3660  143.5750 C   0  0  2  0  0  3  0  0  0  0  0  0
  190.8900  176.4530  142.3180 C   0  0  0  0  0  2  0  0  0  0  0  0
  190.6210  178.7460  143.0800 O   0  0  0  0  0  1  0  0  0  0  0  0
  189.9560  177.5850  142.6700 C   0  0  1  0  0  0  0  0  0  0  0  0
  190.8670  176.5900  144.7620 C   0  0  0  0  0  0  0  0  0  0  0  0
  191.5270  176.7790  145.6930 N   0  0  0  0  0  0  0  0  0  0  0  0
  2  8  1  1  0  0  0
  2 14  1  0  0  0  0
  3 15  1  1  0  0  0
  3 19  1  0  0  0  0
  5 19  1  0  0  0  0
  5  1  1  0  0  0  0
  6 10  1  0  0  0  0
  7 37  1  6  0  0  0
  7  2  1  0  0  0  0
  7 14  1  0  0  0  0
  8  6  1  0  0  0  0
  9 18  1  0  0  0  0
  9  3  1  0  0  0  0
  9  4  1  1  0  0  0
 10 12  1  0  0  0  0
 11 16  1  6  0  0  0
 11  4  1  0  0  0  0
 12  1  1  0  0  0  0
 12 52  1  1  0  0  0
 13 18  2  0  0  0  0
 17  7  1  0  0  0  0
 17 11  1  0  0  0  0
 18 15  1  0  0  0  0
 19 20  1  6  0  0  0
 20 22  1  0  0  0  0
 21 20  2  0  0  0  0
 23 27  2  0  0  0  0
 24 26  1  0  0  0  0
 25 23  1  0  0  0  0
 25 31  1  1  0  0  0
 26 23  1  0  0  0  0
 28 25  1  0  0  0  0
 29 28  1  0  0  0  0
 30 22  1  6  0  0  0
 30 29  1  0  0  0  0
 30 24  1  0  0  0  0
 31 35  1  1  0  0  0
 31 33  1  0  0  0  0
 33 32  1  0  0  0  0
 35 34  1  0  0  0  0
 37 36  1  1  0  0  0
 38 37  1  0  0  0  0
 38 39  1  0  0  0  0
 39 41  1  0  0  0  0
 40 41  1  0  0  0  0
 41 42  2  0  0  0  0
 44 48  1  0  0  0  0
 44 46  1  0  0  0  0
 45 47  1  0  0  0  0
 45 49  1  1  0  0  0
 46 47  1  0  0  0  0
 47 43  1  0  0  0  0
 48 40  1  6  0  0  0
 48 45  1  0  0  0  0
 49 51  1  0  0  0  0
 51 50  2  0  0  0  0
 52 53  1  0  0  0  0
 53 54  1  0  0  0  0
 54 55  1  6  0  0  0
 54 59  1  0  0  0  0
 56 60  1  1  0  0  0
 57 59  1  0  0  0  0
 57 56  1  0  0  0  0
 59 58  1  1  0  0  0
 59 56  1  0  0  0  0
 60 61  3  0  0  0  0
M  END
>  <MODEL>
2

>  <REMARK>
 VINA RESULT:      -6.3      3.440      8.746
  Name = 
  17 active torsions:
  status: ('A' for Active; 'I' for Inactive)
    1  A    between atoms: N_4  and  C_53
    2  A    between atoms: C_6  and  C_8
    3  A    between atoms: C_9  and  C_14
    4  A    between atoms: C_9  and  C_39
    5  A    between atoms: C_11  and  O_48
    6  A    between atoms: C_11  and  C_54
    7  A    between atoms: C_14  and  C_50
    8  A    between atoms: C_20  and  C_55
    9  A    between atoms: C_22  and  C_24
   10  A    between atoms: C_22  and  O_45
   11  A    between atoms: C_22  and  C_59
   12  A    between atoms: C_29  and  C_39
   13  A    between atoms: C_35  and  C_42
   14  A    between atoms: C_35  and  C_52
   15  A    between atoms: N_40  and  C_61
   16  A    between atoms: O_48  and  C_60
   17  A    between atoms: C_53  and  C_55
                            x       y       z     vdW  Elec       q    Type
                         _______ _______ _______ _____ _____    ______ ____

>  <TORSDO>
F 17

$$$$
=
 OpenBabel10232407523D

 61 66  0  0  1  0  0  0  0  0999 V2000
  187.0680  176.2230  137.6660 C   0  0  0  0  0  2  0  0  0  0  0  0
  191.0490  177.0580  136.2900 C   0  0  1  0  0  3  0  0  0  0  0  0
  186.6810  173.1830  135.4540 C   0  0  1  0  0  3  0  0  0  0  0  0
  188.9670  173.0460  136.5290 C   0  0  0  0  0  2  0  0  0  0  0  0
  186.6730  175.5050  136.3890 C   0  0  0  0  0  2  0  0  0  0  0  0
  189.0070  178.4190  136.7530 C   0  0  0  0  0  2  0  0  0  0  0  0
  191.4840  175.6120  136.0320 C   0  0  1  0  0  0  0  0  0  0  0  0
  189.6010  177.3190  135.8970 C   0  0  0  0  0  2  0  0  0  0  0  0
  188.0690  172.7760  135.3170 C   0  0  1  0  0  3  0  0  0  0  0  0
  187.5010  178.4740  136.5300 C   0  0  0  0  0  2  0  0  0  0  0  0
  190.4100  173.3430  136.1320 C   0  0  1  0  0  3  0  0  0  0  0  0
  186.7070  177.7050  137.5920 C   0  0  2  0  0  3  0  0  0  0  0  0
  188.1630  170.1970  135.2780 N   0  0  0  0  0  2  0  0  0  0  0  0
  191.0940  176.0550  137.4320 C   0  0  0  0  0  2  0  0  0  0  0  0
  186.2150  171.8210  135.6040 N   0  0  0  0  0  2  0  0  0  0  0  0
  190.9730  172.2610  135.3450 N   0  0  0  0  0  1  0  0  0  0  0  0
  190.4970  174.6570  135.3680 C   0  0  0  0  0  2  0  0  0  0  0  0
  187.5970  171.3550  135.3810 C   0  0  0  0  0  0  0  0  0  0  0  0
  186.3410  174.0480  136.6820 C   0  0  1  0  0  3  0  0  0  0  0  0
  184.8910  173.9310  137.0520 C   0  0  0  0  0  0  0  0  0  0  0  0
  184.4850  172.9100  137.8000 C   0  0  0  0  0  2  0  0  0  0  0  0
  183.9690  174.8740  136.6040 O   0  0  0  0  0  0  0  0  0  0  0  0
  180.7180  176.3650  139.0330 C   0  0  0  0  0  0  0  0  0  0  0  0
  181.5930  175.1270  137.0080 C   0  0  0  0  0  2  0  0  0  0  0  0
  181.5050  177.6320  139.2470 C   0  0  2  0  0  3  0  0  0  0  0  0
  180.4620  175.9720  137.6130 C   0  0  0  0  0  2  0  0  0  0  0  0
  180.6110  175.4460  139.9930 C   0  0  0  0  0  2  0  0  0  0  0  0
  183.0040  177.4100  139.0300 C   0  0  0  0  0  2  0  0  0  0  0  0
  183.2980  176.9440  137.6070 C   0  0  0  0  0  2  0  0  0  0  0  0
  183.0200  175.4520  137.4870 C   0  0  2  0  0  3  0  0  0  0  0  0
  181.1710  178.3520  140.5640 C   0  0  1  0  0  3  0  0  0  0  0  0
  181.8650  179.0080  142.4900 O   0  0  0  0  0  1  0  0  0  0  0  0
  182.3210  178.5960  141.3230 O   0  0  0  0  0  0  0  0  0  0  0  0
  181.0520  180.4620  139.4020 O   0  0  0  0  0  1  0  0  0  0  0  0
  180.3880  179.6430  140.3200 C   0  0  0  0  0  2  0  0  0  0  0  0
  193.2240  174.8570  134.5050 O   0  0  0  0  0  1  0  0  0  0  0  0
  192.9790  175.3760  135.7780 C   0  0  2  0  0  3  0  0  0  0  0  0
  193.6020  174.4880  136.8470 C   0  0  0  0  0  2  0  0  0  0  0  0
  194.4790  173.4980  136.2380 N   0  0  0  0  0  2  0  0  0  0  0  0
  196.5060  174.9120  136.4890 N   0  0  0  0  0  2  0  0  0  0  0  0
  195.8900  173.6780  136.0990 C   0  0  0  0  0  0  0  0  0  0  0  0
  196.5860  172.7390  135.6360 O   0  0  0  0  0  0  0  0  0  0  0  0
  200.2320  172.5450  135.6550 C   0  0  0  0  0  1  0  0  0  0  0  0
  198.3590  175.3820  134.6460 S   0  0  0  0  0  0  0  0  0  0  0  0
  198.6840  173.8900  136.7840 C   0  0  2  0  0  3  0  0  0  0  0  0
  200.0320  174.7960  135.0310 C   0  0  0  0  0  2  0  0  0  0  0  0
  200.0110  173.8830  136.1720 N   0  0  0  0  0  0  0  0  0  0  0  0
  197.9370  175.1400  136.3710 C   0  0  2  0  0  3  0  0  0  0  0  0
  198.8060  173.8390  138.3020 C   0  0  0  0  0  2  0  0  0  0  0  0
  197.8810  175.4660  139.7350 O   0  0  0  0  0  0  0  0  0  0  0  0
  198.7310  175.2060  138.8960 C   0  0  0  0  0  3  0  0  0  0  0  0
  186.8410  178.3760  138.9570 C   0  0  0  0  0  2  0  0  0  0  0  0
  188.1260  177.9720  139.6680 C   0  0  0  0  0  2  0  0  0  0  0  0
  187.8910  177.7170  141.1510 C   0  0  2  0  0  3  0  0  0  0  0  0
  187.2540  178.8200  141.7280 O   0  0  0  0  0  1  0  0  0  0  0  0
  189.3110  177.9100  143.3110 C   0  0  2  0  0  3  0  0  0  0  0  0
  189.1950  176.4310  142.9550 C   0  0  0  0  0  2  0  0  0  0  0  0
  190.3920  177.4510  141.1020 O   0  0  0  0  0  1  0  0  0  0  0  0
  189.2160  177.4680  141.8590 C   0  0  1  0  0  0  0  0  0  0  0  0
  190.6880  178.2120  143.7230 C   0  0  0  0  0  0  0  0  0  0  0  0
  191.7700  178.4450  144.0590 N   0  0  0  0  0  0  0  0  0  0  0  0
  2  8  1  6  0  0  0
  2 14  1  0  0  0  0
  3 15  1  1  0  0  0
  3 19  1  0  0  0  0
  5 19  1  0  0  0  0
  5  1  1  0  0  0  0
  7 37  1  6  0  0  0
  7  2  1  0  0  0  0
  7 14  1  0  0  0  0
  8  6  1  0  0  0  0
  9 18  1  0  0  0  0
  9  3  1  0  0  0  0
  9  4  1  1  0  0  0
 10  6  1  0  0  0  0
 10 12  1  0  0  0  0
 11 16  1  6  0  0  0
 11  4  1  0  0  0  0
 12  1  1  0  0  0  0
 12 52  1  1  0  0  0
 13 18  2  0  0  0  0
 17  7  1  0  0  0  0
 17 11  1  0  0  0  0
 18 15  1  0  0  0  0
 19 20  1  6  0  0  0
 20 21  2  0  0  0  0
 22 20  1  0  0  0  0
 23 25  1  0  0  0  0
 23 27  2  0  0  0  0
 24 30  1  0  0  0  0
 24 26  1  0  0  0  0
 25 31  1  1  0  0  0
 26 23  1  0  0  0  0
 28 25  1  0  0  0  0
 29 28  1  0  0  0  0
 30 22  1  6  0  0  0
 30 29  1  0  0  0  0
 31 35  1  6  0  0  0
 31 33  1  0  0  0  0
 33 32  1  0  0  0  0
 34 35  1  0  0  0  0
 37 36  1  6  0  0  0
 37 38  1  0  0  0  0
 39 38  1  0  0  0  0
 41 39  1  0  0  0  0
 41 40  1  0  0  0  0
 42 41  2  0  0  0  0
 43 47  1  0  0  0  0
 44 46  1  0  0  0  0
 44 48  1  0  0  0  0
 45 49  1  1  0  0  0
 46 47  1  0  0  0  0
 47 45  1  0  0  0  0
 48 40  1  6  0  0  0
 48 45  1  0  0  0  0
 49 51  1  0  0  0  0
 51 50  2  0  0  0  0
 52 53  1  0  0  0  0
 53 54  1  0  0  0  0
 54 55  1  1  0  0  0
 54 59  1  0  0  0  0
 56 60  1  6  0  0  0
 57 56  1  0  0  0  0
 59 58  1  6  0  0  0
 59 57  1  0  0  0  0
 59 56  1  0  0  0  0
 60 61  3  0  0  0  0
M  END
>  <MODEL>
3

>  <REMARK>
 VINA RESULT:      -6.0      3.912     11.106
  Name = 
  17 active torsions:
  status: ('A' for Active; 'I' for Inactive)
    1  A    between atoms: N_4  and  C_53
    2  A    between atoms: C_6  and  C_8
    3  A    between atoms: C_9  and  C_14
    4  A    between atoms: C_9  and  C_39
    5  A    between atoms: C_11  and  O_48
    6  A    between atoms: C_11  and  C_54
    7  A    between atoms: C_14  and  C_50
    8  A    between atoms: C_20  and  C_55
    9  A    between atoms: C_22  and  C_24
   10  A    between atoms: C_22  and  O_45
   11  A    between atoms: C_22  and  C_59
   12  A    between atoms: C_29  and  C_39
   13  A    between atoms: C_35  and  C_42
   14  A    between atoms: C_35  and  C_52
   15  A    between atoms: N_40  and  C_61
   16  A    between atoms: O_48  and  C_60
   17  A    between atoms: C_53  and  C_55
                            x       y       z     vdW  Elec       q    Type
                         _______ _______ _______ _____ _____    ______ ____

>  <TORSDO>
F 17

$$$$
=
 OpenBabel10232407523D

 61 66  0  0  1  0  0  0  0  0999 V2000
  187.7030  177.0490  137.8720 C   0  0  0  0  0  2  0  0  0  0  0  0
  185.0490  176.8630  134.5010 C   0  0  1  0  0  3  0  0  0  0  0  0
  185.2460  178.9680  140.0080 C   0  0  1  0  0  3  0  0  0  0  0  0
  183.9680  177.0930  138.8910 C   0  0  0  0  0  2  0  0  0  0  0  0
  187.0700  178.3120  138.4240 C   0  0  0  0  0  2  0  0  0  0  0  0
  187.4800  177.3360  134.8260 C   0  0  0  0  0  2  0  0  0  0  0  0
  183.7310  176.8080  135.2800 C   0  0  1  0  0  0  0  0  0  0  0  0
  186.0700  177.8010  135.1310 C   0  0  0  0  0  2  0  0  0  0  0  0
  183.9890  178.5280  139.4280 C   0  0  1  0  0  3  0  0  0  0  0  0
  188.4660  178.1230  135.6800 C   0  0  0  0  0  2  0  0  0  0  0  0
  183.0380  176.9310  137.6920 C   0  0  1  0  0  3  0  0  0  0  0  0
  188.8790  177.3840  136.9570 C   0  0  2  0  0  3  0  0  0  0  0  0
  182.2490  178.3040  141.3210 N   0  0  0  0  0  2  0  0  0  0  0  0
  184.7660  175.7080  135.4500 C   0  0  0  0  0  2  0  0  0  0  0  0
  184.7370  178.8910  141.3610 N   0  0  0  0  0  2  0  0  0  0  0  0
  181.6840  177.3470  138.0160 N   0  0  0  0  0  1  0  0  0  0  0  0
  183.5610  177.7150  136.4960 C   0  0  0  0  0  2  0  0  0  0  0  0
  183.4170  178.5270  140.8130 C   0  0  0  0  0  0  0  0  0  0  0  0
  186.4580  178.0440  139.7930 C   0  0  1  0  0  3  0  0  0  0  0  0
  187.5000  178.2490  140.8540 C   0  0  0  0  0  0  0  0  0  0  0  0
  187.5760  179.4170  141.4830 C   0  0  0  0  0  2  0  0  0  0  0  0
  188.3940  177.2280  141.1720 O   0  0  0  0  0  0  0  0  0  0  0  0
  191.3390  177.4790  144.3290 C   0  0  0  0  0  0  0  0  0  0  0  0
  190.7000  177.1110  141.9090 C   0  0  0  0  0  2  0  0  0  0  0  0
  190.3770  176.7550  145.2350 C   0  0  2  0  0  3  0  0  0  0  0  0
  191.6850  176.7960  143.0430 C   0  0  0  0  0  2  0  0  0  0  0  0
  191.5460  178.7910  144.4450 C   0  0  0  0  0  2  0  0  0  0  0  0
  188.9300  176.9010  144.7570 C   0  0  0  0  0  2  0  0  0  0  0  0
  188.7430  176.3170  143.3600 C   0  0  0  0  0  2  0  0  0  0  0  0
  189.2290  177.3130  142.3160 C   0  0  2  0  0  3  0  0  0  0  0  0
  190.5720  177.0760  146.7260 C   0  0  1  0  0  3  0  0  0  0  0  0
  189.4830  178.0760  148.2860 O   0  0  0  0  0  1  0  0  0  0  0  0
  189.3520  177.0990  147.4100 O   0  0  0  0  0  0  0  0  0  0  0  0
  192.4460  176.8050  148.2180 O   0  0  0  0  0  1  0  0  0  0  0  0
  191.5580  176.1140  147.3880 C   0  0  0  0  0  2  0  0  0  0  0  0
  181.3210  177.0310  135.0190 O   0  0  0  0  0  1  0  0  0  0  0  0
  182.4720  176.4490  134.4820 C   0  0  2  0  0  3  0  0  0  0  0  0
  182.2960  174.9430  134.3460 C   0  0  0  0  0  2  0  0  0  0  0  0
  182.0470  174.3400  135.6470 N   0  0  0  0  0  2  0  0  0  0  0  0
  184.0390  172.8610  135.5150 N   0  0  0  0  0  2  0  0  0  0  0  0
  182.9080  173.3630  136.2370 C   0  0  0  0  0  0  0  0  0  0  0  0
  182.6630  172.9540  137.4010 O   0  0  0  0  0  0  0  0  0  0  0  0
  187.7990  170.6980  134.3460 C   0  0  0  0  0  1  0  0  0  0  0  0
  186.3190  172.7070  136.8670 S   0  0  0  0  0  0  0  0  0  0  0  0
  185.5700  171.0660  134.9570 C   0  0  2  0  0  3  0  0  0  0  0  0
  187.3160  171.2170  136.5820 C   0  0  0  0  0  2  0  0  0  0  0  0
  186.8330  170.4890  135.4100 N   0  0  0  0  0  0  0  0  0  0  0  0
  184.9450  171.8710  136.0760 C   0  0  2  0  0  3  0  0  0  0  0  0
  184.6150  169.9610  134.5210 C   0  0  0  0  0  2  0  0  0  0  0  0
  183.7270  167.9830  135.4470 O   0  0  0  0  0  0  0  0  0  0  0  0
  184.2930  169.0460  135.6550 C   0  0  0  0  0  3  0  0  0  0  0  0
  189.6910  176.1350  136.6200 C   0  0  0  0  0  2  0  0  0  0  0  0
  191.1190  176.2240  137.1440 C   0  0  0  0  0  2  0  0  0  0  0  0
  192.1070  175.5620  136.1930 C   0  0  2  0  0  3  0  0  0  0  0  0
  191.8880  174.1820  136.1640 O   0  0  0  0  0  1  0  0  0  0  0  0
  194.5740  174.7780  136.3180 C   0  0  2  0  0  3  0  0  0  0  0  0
  194.5370  176.0910  135.5420 C   0  0  0  0  0  2  0  0  0  0  0  0
  193.7440  176.6350  137.7740 O   0  0  0  0  0  1  0  0  0  0  0  0
  193.5350  175.8400  136.6420 C   0  0  1  0  0  0  0  0  0  0  0  0
  195.7070  174.7890  137.2530 C   0  0  0  0  0  0  0  0  0  0  0  0
  196.5920  174.7910  137.9980 N   0  0  0  0  0  0  0  0  0  0  0  0
  1  5  1  0  0  0  0
  2  8  1  1  0  0  0
  2  7  1  0  0  0  0
  2 14  1  0  0  0  0
  3 15  1  1  0  0  0
  5 19  1  0  0  0  0
  6  8  1  0  0  0  0
  6 10  1  0  0  0  0
  7 37  1  6  0  0  0
  7 14  1  0  0  0  0
  7 17  1  0  0  0  0
  9  4  1  1  0  0  0
  9  3  1  0  0  0  0
  9 18  1  0  0  0  0
 10 12  1  0  0  0  0
 11 16  1  1  0  0  0
 11  4  1  0  0  0  0
 12 52  1  6  0  0  0
 12  1  1  0  0  0  0
 17 11  1  0  0  0  0
 18 13  2  0  0  0  0
 18 15  1  0  0  0  0
 19  3  1  0  0  0  0
 19 20  1  1  0  0  0
 20 22  1  0  0  0  0
 20 21  2  0  0  0  0
 23 27  2  0  0  0  0
 23 25  1  0  0  0  0
 24 30  1  0  0  0  0
 24 26  1  0  0  0  0
 25 31  1  1  0  0  0
 26 23  1  0  0  0  0
 28 25  1  0  0  0  0
 29 28  1  0  0  0  0
 30 22  1  6  0  0  0
 30 29  1  0  0  0  0
 31 35  1  1  0  0  0
 31 33  1  0  0  0  0
 33 32  1  0  0  0  0
 35 34  1  0  0  0  0
 37 36  1  1  0  0  0
 38 37  1  0  0  0  0
 38 39  1  0  0  0  0
 39 41  1  0  0  0  0
 40 41  1  0  0  0  0
 41 42  2  0  0  0  0
 43 47  1  0  0  0  0
 45 49  1  1  0  0  0
 45 47  1  0  0  0  0
 45 48  1  0  0  0  0
 46 44  1  0  0  0  0
 47 46  1  0  0  0  0
 48 40  1  6  0  0  0
 48 44  1  0  0  0  0
 49 51  1  0  0  0  0
 50 51  2  0  0  0  0
 52 53  1  0  0  0  0
 54 55  1  1  0  0  0
 54 59  1  0  0  0  0
 54 53  1  0  0  0  0
 56 59  1  0  0  0  0
 56 60  1  1  0  0  0
 57 56  1  0  0  0  0
 57 59  1  0  0  0  0
 59 58  1  1  0  0  0
 60 61  3  0  0  0  0
M  END
>  <MODEL>
4

>  <REMARK>
 VINA RESULT:      -5.9      3.053      4.967
  Name = 
  17 active torsions:
  status: ('A' for Active; 'I' for Inactive)
    1  A    between atoms: N_4  and  C_53
    2  A    between atoms: C_6  and  C_8
    3  A    between atoms: C_9  and  C_14
    4  A    between atoms: C_9  and  C_39
    5  A    between atoms: C_11  and  O_48
    6  A    between atoms: C_11  and  C_54
    7  A    between atoms: C_14  and  C_50
    8  A    between atoms: C_20  and  C_55
    9  A    between atoms: C_22  and  C_24
   10  A    between atoms: C_22  and  O_45
   11  A    between atoms: C_22  and  C_59
   12  A    between atoms: C_29  and  C_39
   13  A    between atoms: C_35  and  C_42
   14  A    between atoms: C_35  and  C_52
   15  A    between atoms: N_40  and  C_61
   16  A    between atoms: O_48  and  C_60
   17  A    between atoms: C_53  and  C_55
                            x       y       z     vdW  Elec       q    Type
                         _______ _______ _______ _____ _____    ______ ____

>  <TORSDO>
F 17

$$$$
=
 OpenBabel10232407523D

 61 66  0  0  1  0  0  0  0  0999 V2000
  190.0980  176.9890  140.1640 C   0  0  0  0  0  2  0  0  0  0  0  0
  192.6080  175.2020  137.1730 C   0  0  1  0  0  3  0  0  0  0  0  0
  187.4930  178.0980  137.6620 C   0  0  1  0  0  3  0  0  0  0  0  0
  188.1110  175.7110  137.0970 C   0  0  0  0  0  2  0  0  0  0  0  0
  189.4700  177.9680  139.1900 C   0  0  0  0  0  2  0  0  0  0  0  0
  192.9820  176.6510  139.1720 C   0  0  0  0  0  2  0  0  0  0  0  0
  191.4990  174.7580  136.2140 C   0  0  1  0  0  0  0  0  0  0  0  0
  192.3340  176.5600  137.8050 C   0  0  0  0  0  2  0  0  0  0  0  0
  187.6840  177.1030  136.6200 C   0  0  1  0  0  3  0  0  0  0  0  0
  192.4740  177.8960  139.8890 C   0  0  0  0  0  2  0  0  0  0  0  0
  189.0010  174.9950  136.0860 C   0  0  1  0  0  3  0  0  0  0  0  0
  191.3150  177.6070  140.8490 C   0  0  2  0  0  3  0  0  0  0  0  0
  185.3810  176.5250  135.6090 N   0  0  0  0  0  2  0  0  0  0  0  0
  191.5530  174.2060  137.6290 C   0  0  0  0  0  2  0  0  0  0  0  0
  186.0500  178.0520  137.5480 N   0  0  0  0  0  2  0  0  0  0  0  0
  188.3470  174.8840  134.7940 N   0  0  0  0  0  1  0  0  0  0  0  0
  190.3380  175.7100  135.9450 C   0  0  0  0  0  2  0  0  0  0  0  0
  186.1980  177.1060  136.4250 C   0  0  0  0  0  0  0  0  0  0  0  0
  187.9740  177.7120  139.0720 C   0  0  1  0  0  3  0  0  0  0  0  0
  187.2480  178.4880  140.1320 C   0  0  0  0  0  0  0  0  0  0  0  0
  187.8990  178.8780  141.2220 C   0  0  0  0  0  2  0  0  0  0  0  0
  185.8940  178.7880  139.9860 O   0  0  0  0  0  0  0  0  0  0  0  0
  183.7070  179.0210  143.7080 C   0  0  0  0  0  0  0  0  0  0  0  0
  185.7160  178.2980  142.3520 C   0  0  0  0  0  2  0  0  0  0  0  0
  182.4390  178.7540  142.9390 C   0  0  2  0  0  3  0  0  0  0  0  0
  184.8030  178.0150  143.5540 C   0  0  0  0  0  2  0  0  0  0  0  0
  184.0010  180.2410  144.1560 C   0  0  0  0  0  2  0  0  0  0  0  0
  182.5850  179.1260  141.4610 C   0  0  0  0  0  2  0  0  0  0  0  0
  183.6870  178.3150  140.7880 C   0  0  0  0  0  2  0  0  0  0  0  0
  185.0450  178.9210  141.1150 C   0  0  2  0  0  3  0  0  0  0  0  0
  181.1800  179.3350  143.6030 C   0  0  1  0  0  3  0  0  0  0  0  0
  180.2150  180.1060  141.8430 O   0  0  0  0  0  1  0  0  0  0  0  0
  180.7640  180.5130  142.9710 O   0  0  0  0  0  0  0  0  0  0  0  0
  180.5040  177.0910  144.1670 O   0  0  0  0  0  1  0  0  0  0  0  0
  180.0470  178.3110  143.6610 C   0  0  0  0  0  2  0  0  0  0  0  0
  191.2980  172.5470  135.2130 O   0  0  0  0  0  1  0  0  0  0  0  0
  191.9050  173.7990  135.0870 C   0  0  2  0  0  3  0  0  0  0  0  0
  193.4170  173.6530  134.9830 C   0  0  0  0  0  2  0  0  0  0  0  0
  193.8360  172.3440  135.4620 N   0  0  0  0  0  2  0  0  0  0  0  0
  195.9940  173.1920  136.3560 N   0  0  0  0  0  2  0  0  0  0  0  0
  195.0610  172.1210  136.1640 C   0  0  0  0  0  0  0  0  0  0  0  0
  195.3080  170.9740  136.6160 O   0  0  0  0  0  0  0  0  0  0  0  0
  200.2320  174.6640  136.1170 C   0  0  0  0  0  1  0  0  0  0  0  0
  197.4380  174.3240  138.2750 S   0  0  0  0  0  0  0  0  0  0  0  0
  198.4050  173.2000  136.1060 C   0  0  2  0  0  3  0  0  0  0  0  0
  199.2340  174.0950  138.1620 C   0  0  0  0  0  2  0  0  0  0  0  0
  199.6070  173.5750  136.8470 N   0  0  0  0  0  0  0  0  0  0  0  0
  197.2500  173.0140  137.0660 C   0  0  2  0  0  3  0  0  0  0  0  0
  198.6470  171.9100  135.3330 C   0  0  0  0  0  2  0  0  0  0  0  0
  199.7280  170.1820  136.5190 O   0  0  0  0  0  0  0  0  0  0  0  0
  198.6700  170.7290  136.2460 C   0  0  0  0  0  3  0  0  0  0  0  0
  191.7860  176.7480  142.0210 C   0  0  0  0  0  2  0  0  0  0  0  0
  191.9490  177.5630  143.2980 C   0  0  0  0  0  2  0  0  0  0  0  0
  190.6770  178.3220  143.6450 C   0  0  2  0  0  3  0  0  0  0  0  0
  190.9990  179.5880  144.1430 O   0  0  0  0  0  1  0  0  0  0  0  0
  188.5160  178.1270  145.0630 C   0  0  2  0  0  3  0  0  0  0  0  0
  188.6200  176.8800  144.1910 C   0  0  0  0  0  2  0  0  0  0  0  0
  190.5610  176.8110  145.6530 O   0  0  0  0  0  1  0  0  0  0  0  0
  189.8740  177.5560  144.6880 C   0  0  1  0  0  0  0  0  0  0  0  0
  188.0970  177.7480  146.4190 C   0  0  0  0  0  0  0  0  0  0  0  0
  187.7720  177.4600  147.4910 N   0  0  0  0  0  0  0  0  0  0  0  0
  1 12  1  0  0  0  0
  2 14  1  1  0  0  0
  2  8  1  0  0  0  0
  3 15  1  1  0  0  0
  3 19  1  0  0  0  0
  5  1  1  0  0  0  0
  6 10  1  0  0  0  0
  7 37  1  6  0  0  0
  7  2  1  0  0  0  0
  7 14  1  0  0  0  0
  8  6  1  0  0  0  0
  9  4  1  1  0  0  0
  9  3  1  0  0  0  0
 10 12  1  0  0  0  0
 11 16  1  6  0  0  0
 11  4  1  0  0  0  0
 12 52  1  1  0  0  0
 13 18  2  0  0  0  0
 17 11  1  0  0  0  0
 17  7  1  0  0  0  0
 18  9  1  0  0  0  0
 18 15  1  0  0  0  0
 19  5  1  0  0  0  0
 19 20  1  1  0  0  0
 20 21  2  0  0  0  0
 22 20  1  0  0  0  0
 23 27  2  0  0  0  0
 24 26  1  0  0  0  0
 25 31  1  1  0  0  0
 25 23  1  0  0  0  0
 26 23  1  0  0  0  0
 28 25  1  0  0  0  0
 29 30  1  0  0  0  0
 29 28  1  0  0  0  0
 30 22  1  6  0  0  0
 30 24  1  0  0  0  0
 31 35  1  6  0  0  0
 32 33  1  0  0  0  0
 33 31  1  0  0  0  0
 35 34  1  0  0  0  0
 37 36  1  1  0  0  0
 38 37  1  0  0  0  0
 38 39  1  0  0  0  0
 39 41  1  0  0  0  0
 41 40  1  0  0  0  0
 41 42  2  0  0  0  0
 43 47  1  0  0  0  0
 45 49  1  1  0  0  0
 45 47  1  0  0  0  0
 45 48  1  0  0  0  0
 46 44  1  0  0  0  0
 47 46  1  0  0  0  0
 48 40  1  6  0  0  0
 48 44  1  0  0  0  0
 49 51  1  0  0  0  0
 51 50  2  0  0  0  0
 52 53  1  0  0  0  0
 53 54  1  0  0  0  0
 54 55  1  1  0  0  0
 54 59  1  0  0  0  0
 56 60  1  1  0  0  0
 57 59  1  0  0  0  0
 57 56  1  0  0  0  0
 59 56  1  0  0  0  0
 59 58  1  1  0  0  0
 60 61  3  0  0  0  0
M  END
>  <MODEL>
5

>  <REMARK>
 VINA RESULT:      -5.7      3.590     10.482
  Name = 
  17 active torsions:
  status: ('A' for Active; 'I' for Inactive)
    1  A    between atoms: N_4  and  C_53
    2  A    between atoms: C_6  and  C_8
    3  A    between atoms: C_9  and  C_14
    4  A    between atoms: C_9  and  C_39
    5  A    between atoms: C_11  and  O_48
    6  A    between atoms: C_11  and  C_54
    7  A    between atoms: C_14  and  C_50
    8  A    between atoms: C_20  and  C_55
    9  A    between atoms: C_22  and  C_24
   10  A    between atoms: C_22  and  O_45
   11  A    between atoms: C_22  and  C_59
   12  A    between atoms: C_29  and  C_39
   13  A    between atoms: C_35  and  C_42
   14  A    between atoms: C_35  and  C_52
   15  A    between atoms: N_40  and  C_61
   16  A    between atoms: O_48  and  C_60
   17  A    between atoms: C_53  and  C_55
                            x       y       z     vdW  Elec       q    Type
                         _______ _______ _______ _____ _____    ______ ____

>  <TORSDO>
F 17

$$$$
=
 OpenBabel10232407523D

 61 66  0  0  1  0  0  0  0  0999 V2000
  190.8590  177.3440  141.5290 C   0  0  0  0  0  2  0  0  0  0  0  0
  186.6600  177.9410  142.2010 C   0  0  1  0  0  3  0  0  0  0  0  0
  190.3850  176.3390  137.9180 C   0  0  1  0  0  3  0  0  0  0  0  0
  188.9540  178.3840  138.3240 C   0  0  0  0  0  2  0  0  0  0  0  0
  190.6370  176.3470  140.4080 C   0  0  0  0  0  2  0  0  0  0  0  0
  188.5270  176.8670  143.4650 C   0  0  0  0  0  2  0  0  0  0  0  0
  186.2920  178.4110  140.7910 C   0  0  1  0  0  0  0  0  0  0  0  0
  187.6930  176.8220  142.2010 C   0  0  0  0  0  2  0  0  0  0  0  0
  189.1560  177.0470  137.6040 C   0  0  1  0  0  3  0  0  0  0  0  0
  189.7130  175.9220  143.3210 C   0  0  0  0  0  2  0  0  0  0  0  0
  187.4820  178.6850  138.5950 C   0  0  1  0  0  3  0  0  0  0  0  0
  190.9960  176.6310  142.8730 C   0  0  2  0  0  3  0  0  0  0  0  0
  189.2960  177.8870  135.1680 N   0  0  0  0  0  2  0  0  0  0  0  0
  187.2800  179.2060  141.6280 C   0  0  0  0  0  2  0  0  0  0  0  0
  190.9890  176.6650  136.6430 N   0  0  0  0  0  2  0  0  0  0  0  0
  186.7080  178.6740  137.3670 N   0  0  0  0  0  1  0  0  0  0  0  0
  186.9060  177.6900  139.5940 C   0  0  0  0  0  2  0  0  0  0  0  0
  189.7280  177.3190  136.2450 C   0  0  0  0  0  0  0  0  0  0  0  0
  191.2050  176.8850  139.1010 C   0  0  1  0  0  3  0  0  0  0  0  0
  192.6520  176.5020  138.9900 C   0  0  0  0  0  0  0  0  0  0  0  0
  193.5900  177.3600  139.3770 C   0  0  0  0  0  2  0  0  0  0  0  0
  193.0160  175.2610  138.4710 O   0  0  0  0  0  0  0  0  0  0  0  0
  196.4670  174.6760  135.9310 C   0  0  0  0  0  0  0  0  0  0  0  0
  193.9680  174.6570  136.3250 C   0  0  0  0  0  2  0  0  0  0  0  0
  197.1820  174.0590  137.1040 C   0  0  2  0  0  3  0  0  0  0  0  0
  195.1550  174.0640  135.5530 C   0  0  0  0  0  2  0  0  0  0  0  0
  196.7510  175.9120  135.5190 C   0  0  0  0  0  2  0  0  0  0  0  0
  196.5780  174.5100  138.4370 C   0  0  0  0  0  2  0  0  0  0  0  0
  195.1110  174.1020  138.5510 C   0  0  0  0  0  2  0  0  0  0  0  0
  194.2420  175.0850  137.7780 C   0  0  2  0  0  3  0  0  0  0  0  0
  198.7110  174.2000  137.0400 C   0  0  1  0  0  3  0  0  0  0  0  0
  200.2320  173.9750  138.5430 O   0  0  0  0  0  1  0  0  0  0  0  0
  199.2260  174.7620  138.2140 O   0  0  0  0  0  0  0  0  0  0  0  0
  198.4500  171.8350  136.6510 O   0  0  0  0  0  1  0  0  0  0  0  0
  199.3900  172.8670  136.7250 C   0  0  0  0  0  2  0  0  0  0  0  0
  184.3960  179.5620  141.7970 O   0  0  0  0  0  1  0  0  0  0  0  0
  184.8970  179.0230  140.6090 C   0  0  2  0  0  3  0  0  0  0  0  0
  183.9110  178.0240  140.0180 C   0  0  0  0  0  2  0  0  0  0  0  0
  183.5710  178.3930  138.6520 N   0  0  0  0  0  2  0  0  0  0  0  0
  183.7950  176.0670  137.8050 N   0  0  0  0  0  2  0  0  0  0  0  0
  183.4720  177.4460  137.5850 C   0  0  0  0  0  0  0  0  0  0  0  0
  183.0920  177.8370  136.4520 O   0  0  0  0  0  0  0  0  0  0  0  0
  182.5160  171.7870  137.3310 C   0  0  0  0  0  1  0  0  0  0  0  0
  182.0460  175.0700  136.0740 S   0  0  0  0  0  0  0  0  0  0  0  0
  183.8810  173.6880  137.3480 C   0  0  2  0  0  3  0  0  0  0  0  0
  182.3040  173.3410  135.5870 C   0  0  0  0  0  2  0  0  0  0  0  0
  183.2650  172.6910  136.4760 N   0  0  0  0  0  0  0  0  0  0  0  0
  183.7050  175.0680  136.7520 C   0  0  2  0  0  3  0  0  0  0  0  0
  185.3650  173.3870  137.5230 C   0  0  0  0  0  2  0  0  0  0  0  0
  186.7850  173.3110  135.6420 O   0  0  0  0  0  0  0  0  0  0  0  0
  185.9320  172.7380  136.3040 C   0  0  0  0  0  3  0  0  0  0  0  0
  191.4930  177.5850  143.9570 C   0  0  0  0  0  2  0  0  0  0  0  0
  190.3570  178.0800  144.8450 C   0  0  0  0  0  2  0  0  0  0  0  0
  190.6090  177.7560  146.3110 C   0  0  2  0  0  3  0  0  0  0  0  0
  191.0920  176.4490  146.4330 O   0  0  0  0  0  1  0  0  0  0  0  0
  188.0190  177.6730  146.3570 C   0  0  2  0  0  3  0  0  0  0  0  0
  188.5400  176.6260  147.3360 C   0  0  0  0  0  2  0  0  0  0  0  0
  189.3010  178.7630  148.2090 O   0  0  0  0  0  1  0  0  0  0  0  0
  189.3210  177.8970  147.1100 C   0  0  1  0  0  0  0  0  0  0  0  0
  186.8860  178.3890  146.9570 C   0  0  0  0  0  0  0  0  0  0  0  0
  185.9990  178.9650  147.4270 N   0  0  0  0  0  0  0  0  0  0  0  0
  1 12  1  0  0  0  0
  2 14  1  1  0  0  0
  2  8  1  0  0  0  0
  3 15  1  6  0  0  0
  3 19  1  0  0  0  0
  4 11  1  0  0  0  0
  5  1  1  0  0  0  0
  7 37  1  6  0  0  0
  7 14  1  0  0  0  0
  7  2  1  0  0  0  0
  8  6  1  0  0  0  0
  9  3  1  0  0  0  0
  9  4  1  1  0  0  0
 10  6  1  0  0  0  0
 11 16  1  6  0  0  0
 11 17  1  0  0  0  0
 12 10  1  0  0  0  0
 12 52  1  1  0  0  0
 13 18  2  0  0  0  0
 17  7  1  0  0  0  0
 18 15  1  0  0  0  0
 18  9  1  0  0  0  0
 19 20  1  6  0  0  0
 19  5  1  0  0  0  0
 20 21  2  0  0  0  0
 22 20  1  0  0  0  0
 23 25  1  0  0  0  0
 24 30  1  0  0  0  0
 25 31  1  1  0  0  0
 25 28  1  0  0  0  0
 26 23  1  0  0  0  0
 26 24  1  0  0  0  0
 27 23  2  0  0  0  0
 28 29  1  0  0  0  0
 30 22  1  1  0  0  0
 30 29  1  0  0  0  0
 31 35  1  1  0  0  0
 31 33  1  0  0  0  0
 33 32  1  0  0  0  0
 34 35  1  0  0  0  0
 37 36  1  1  0  0  0
 38 37  1  0  0  0  0
 39 38  1  0  0  0  0
 41 40  1  0  0  0  0
 41 39  1  0  0  0  0
 42 41  2  0  0  0  0
 44 48  1  0  0  0  0
 45 49  1  6  0  0  0
 46 44  1  0  0  0  0
 46 47  1  0  0  0  0
 47 43  1  0  0  0  0
 47 45  1  0  0  0  0
 48 45  1  0  0  0  0
 48 40  1  1  0  0  0
 50 51  2  0  0  0  0
 51 49  1  0  0  0  0
 52 53  1  0  0  0  0
 53 54  1  0  0  0  0
 54 55  1  6  0  0  0
 54 59  1  0  0  0  0
 56 60  1  1  0  0  0
 56 59  1  0  0  0  0
 56 57  1  0  0  0  0
 59 57  1  0  0  0  0
 59 58  1  1  0  0  0
 60 61  3  0  0  0  0
M  END
>  <MODEL>
6

>  <REMARK>
 VINA RESULT:      -5.7      2.949      9.160
  Name = 
  17 active torsions:
  status: ('A' for Active; 'I' for Inactive)
    1  A    between atoms: N_4  and  C_53
    2  A    between atoms: C_6  and  C_8
    3  A    between atoms: C_9  and  C_14
    4  A    between atoms: C_9  and  C_39
    5  A    between atoms: C_11  and  O_48
    6  A    between atoms: C_11  and  C_54
    7  A    between atoms: C_14  and  C_50
    8  A    between atoms: C_20  and  C_55
    9  A    between atoms: C_22  and  C_24
   10  A    between atoms: C_22  and  O_45
   11  A    between atoms: C_22  and  C_59
   12  A    between atoms: C_29  and  C_39
   13  A    between atoms: C_35  and  C_42
   14  A    between atoms: C_35  and  C_52
   15  A    between atoms: N_40  and  C_61
   16  A    between atoms: O_48  and  C_60
   17  A    between atoms: C_53  and  C_55
                            x       y       z     vdW  Elec       q    Type
                         _______ _______ _______ _____ _____    ______ ____

>  <TORSDO>
F 17

$$$$
=
 OpenBabel10232407523D

 61 66  0  0  1  0  0  0  0  0999 V2000
  190.3240  176.7720  139.7480 C   0  0  0  0  0  2  0  0  0  0  0  0
  193.1360  174.9130  137.0890 C   0  0  1  0  0  3  0  0  0  0  0  0
  187.8690  177.5660  136.9860 C   0  0  1  0  0  3  0  0  0  0  0  0
  188.6390  175.1800  136.6470 C   0  0  0  0  0  2  0  0  0  0  0  0
  189.7270  177.6460  138.6610 C   0  0  0  0  0  2  0  0  0  0  0  0
  193.2880  176.5160  138.9970 C   0  0  0  0  0  2  0  0  0  0  0  0
  192.1260  174.3450  136.0860 C   0  0  1  0  0  0  0  0  0  0  0  0
  192.7520  176.2960  137.5970 C   0  0  0  0  0  2  0  0  0  0  0  0
  188.1860  176.5110  136.0380 C   0  0  1  0  0  3  0  0  0  0  0  0
  192.6690  177.7800  139.5810 C   0  0  0  0  0  2  0  0  0  0  0  0
  189.6370  174.4420  135.7590 C   0  0  1  0  0  3  0  0  0  0  0  0
  191.4550  177.4990  140.4730 C   0  0  2  0  0  3  0  0  0  0  0  0
  185.9960  175.7440  134.9070 N   0  0  0  0  0  2  0  0  0  0  0  0
  192.0970  173.8980  137.5380 C   0  0  0  0  0  2  0  0  0  0  0  0
  186.4430  177.4360  136.7720 N   0  0  0  0  0  2  0  0  0  0  0  0
  189.0900  174.2070  134.4340 N   0  0  0  0  0  1  0  0  0  0  0  0
  190.9460  175.2140  135.6640 C   0  0  0  0  0  2  0  0  0  0  0  0
  186.7200  176.4230  135.7360 C   0  0  0  0  0  0  0  0  0  0  0  0
  188.2580  177.3050  138.4530 C   0  0  1  0  0  3  0  0  0  0  0  0
  187.4170  178.1150  139.3970 C   0  0  0  0  0  0  0  0  0  0  0  0
  187.7520  178.1820  140.6810 C   0  0  0  0  0  2  0  0  0  0  0  0
  186.2830  178.7820  138.9370 O   0  0  0  0  0  0  0  0  0  0  0  0
  182.3090  178.6890  140.6370 C   0  0  0  0  0  0  0  0  0  0  0  0
  183.9070  179.2140  138.7480 C   0  0  0  0  0  2  0  0  0  0  0  0
  182.8990  179.1270  141.9520 C   0  0  2  0  0  3  0  0  0  0  0  0
  182.5910  179.5640  139.4570 C   0  0  0  0  0  2  0  0  0  0  0  0
  181.9230  177.4290  140.4360 C   0  0  0  0  0  2  0  0  0  0  0  0
  184.3890  178.7870  142.0450 C   0  0  0  0  0  2  0  0  0  0  0  0
  185.1890  179.4850  140.9490 C   0  0  0  0  0  2  0  0  0  0  0  0
  185.0540  178.7140  139.6430 C   0  0  2  0  0  3  0  0  0  0  0  0
  182.0840  178.6760  143.1760 C   0  0  1  0  0  3  0  0  0  0  0  0
  183.5230  178.3920  144.7480 O   0  0  0  0  0  1  0  0  0  0  0  0
  182.5840  179.2330  144.3590 O   0  0  0  0  0  0  0  0  0  0  0  0
  180.3740  180.3610  142.9590 O   0  0  0  0  0  1  0  0  0  0  0  0
  180.5960  178.9820  143.0080 C   0  0  0  0  0  2  0  0  0  0  0  0
  192.8670  172.0710  135.6290 O   0  0  0  0  0  1  0  0  0  0  0  0
  192.6610  173.3320  135.0660 C   0  0  2  0  0  3  0  0  0  0  0  0
  193.9300  173.8270  134.3850 C   0  0  0  0  0  2  0  0  0  0  0  0
  195.0190  172.8840  134.5910 N   0  0  0  0  0  2  0  0  0  0  0  0
  196.5130  174.5920  135.6030 N   0  0  0  0  0  2  0  0  0  0  0  0
  196.2550  173.2360  135.2170 C   0  0  0  0  0  0  0  0  0  0  0  0
  197.1120  172.3400  135.4290 O   0  0  0  0  0  0  0  0  0  0  0  0
  199.9830  172.6810  137.7220 C   0  0  0  0  0  1  0  0  0  0  0  0
  199.1000  174.8670  135.0710 S   0  0  0  0  0  0  0  0  0  0  0  0
  198.0970  174.0150  137.3450 C   0  0  2  0  0  3  0  0  0  0  0  0
  200.2290  174.6530  136.4750 C   0  0  0  0  0  2  0  0  0  0  0  0
  199.5320  174.0570  137.6140 N   0  0  0  0  0  0  0  0  0  0  0  0
  197.7520  174.9970  136.2460 C   0  0  2  0  0  3  0  0  0  0  0  0
  197.3160  174.3590  138.6080 C   0  0  0  0  0  2  0  0  0  0  0  0
  197.5800  175.8120  140.4460 O   0  0  0  0  0  0  0  0  0  0  0  0
  198.1210  175.2210  139.5220 C   0  0  0  0  0  3  0  0  0  0  0  0
  191.8740  176.7500  141.7350 C   0  0  0  0  0  2  0  0  0  0  0  0
  191.9240  177.6650  142.9520 C   0  0  0  0  0  2  0  0  0  0  0  0
  191.5930  176.9140  144.2340 C   0  0  2  0  0  3  0  0  0  0  0  0
  191.4560  175.5490  143.9630 O   0  0  0  0  0  1  0  0  0  0  0  0
  189.0550  176.5870  144.6500 C   0  0  2  0  0  3  0  0  0  0  0  0
  189.7470  176.6690  146.0070 C   0  0  0  0  0  2  0  0  0  0  0  0
  190.1270  178.8270  144.9550 O   0  0  0  0  0  1  0  0  0  0  0  0
  190.2980  177.4440  144.8350 C   0  0  1  0  0  0  0  0  0  0  0  0
  187.8150  177.3740  144.6800 C   0  0  0  0  0  0  0  0  0  0  0  0
  186.8380  177.9930  144.6910 N   0  0  0  0  0  0  0  0  0  0  0  0
  1 12  1  0  0  0  0
  2 14  1  1  0  0  0
  2  8  1  0  0  0  0
  3 15  1  1  0  0  0
  3 19  1  0  0  0  0
  5  1  1  0  0  0  0
  6 10  1  0  0  0  0
  7 37  1  6  0  0  0
  7  2  1  0  0  0  0
  7 14  1  0  0  0  0
  8  6  1  0  0  0  0
  9  4  1  1  0  0  0
  9  3  1  0  0  0  0
 10 12  1  0  0  0  0
 11 16  1  6  0  0  0
 11  4  1  0  0  0  0
 12 52  1  1  0  0  0
 13 18  2  0  0  0  0
 17 11  1  0  0  0  0
 17  7  1  0  0  0  0
 18  9  1  0  0  0  0
 18 15  1  0  0  0  0
 19  5  1  0  0  0  0
 19 20  1  1  0  0  0
 20 21  2  0  0  0  0
 22 20  1  0  0  0  0
 23 25  1  0  0  0  0
 24 26  1  0  0  0  0
 24 30  1  0  0  0  0
 25 28  1  0  0  0  0
 25 31  1  1  0  0  0
 26 23  1  0  0  0  0
 27 23  2  0  0  0  0
 29 28  1  0  0  0  0
 30 22  1  6  0  0  0
 30 29  1  0  0  0  0
 31 35  1  6  0  0  0
 31 33  1  0  0  0  0
 33 32  1  0  0  0  0
 34 35  1  0  0  0  0
 37 36  1  1  0  0  0
 38 39  1  0  0  0  0
 38 37  1  0  0  0  0
 39 41  1  0  0  0  0
 41 42  2  0  0  0  0
 41 40  1  0  0  0  0
 44 48  1  0  0  0  0
 44 46  1  0  0  0  0
 45 47  1  0  0  0  0
 45 49  1  1  0  0  0
 46 47  1  0  0  0  0
 47 43  1  0  0  0  0
 48 40  1  6  0  0  0
 48 45  1  0  0  0  0
 49 51  1  0  0  0  0
 51 50  2  0  0  0  0
 52 53  1  0  0  0  0
 53 54  1  0  0  0  0
 54 55  1  6  0  0  0
 54 59  1  0  0  0  0
 56 60  1  1  0  0  0
 56 59  1  0  0  0  0
 56 57  1  0  0  0  0
 59 58  1  1  0  0  0
 59 57  1  0  0  0  0
 60 61  3  0  0  0  0
M  END
>  <MODEL>
7

>  <REMARK>
 VINA RESULT:      -5.6      3.604     10.538
  Name = 
  17 active torsions:
  status: ('A' for Active; 'I' for Inactive)
    1  A    between atoms: N_4  and  C_53
    2  A    between atoms: C_6  and  C_8
    3  A    between atoms: C_9  and  C_14
    4  A    between atoms: C_9  and  C_39
    5  A    between atoms: C_11  and  O_48
    6  A    between atoms: C_11  and  C_54
    7  A    between atoms: C_14  and  C_50
    8  A    between atoms: C_20  and  C_55
    9  A    between atoms: C_22  and  C_24
   10  A    between atoms: C_22  and  O_45
   11  A    between atoms: C_22  and  C_59
   12  A    between atoms: C_29  and  C_39
   13  A    between atoms: C_35  and  C_42
   14  A    between atoms: C_35  and  C_52
   15  A    between atoms: N_40  and  C_61
   16  A    between atoms: O_48  and  C_60
   17  A    between atoms: C_53  and  C_55
                            x       y       z     vdW  Elec       q    Type
                         _______ _______ _______ _____ _____    ______ ____

>  <TORSDO>
F 17

$$$$
=
 OpenBabel10232407523D

 61 66  0  0  1  0  0  0  0  0999 V2000
  187.2330  176.5410  137.9840 C   0  0  0  0  0  2  0  0  0  0  0  0
  191.0950  175.8790  136.2280 C   0  0  1  0  0  3  0  0  0  0  0  0
  185.4950  174.1120  135.6690 C   0  0  1  0  0  3  0  0  0  0  0  0
  187.6150  172.9950  136.4790 C   0  0  0  0  0  2  0  0  0  0  0  0
  186.4860  176.1560  136.7220 C   0  0  0  0  0  2  0  0  0  0  0  0
  189.8070  177.8790  136.9830 C   0  0  0  0  0  2  0  0  0  0  0  0
  190.8980  174.4080  135.8470 C   0  0  1  0  0  0  0  0  0  0  0  0
  189.8440  176.7190  136.0100 C   0  0  0  0  0  2  0  0  0  0  0  0
  186.5910  173.2090  135.3590 C   0  0  1  0  0  3  0  0  0  0  0  0
  188.4340  178.5380  136.9290 C   0  0  0  0  0  2  0  0  0  0  0  0
  189.0210  172.7400  135.9430 C   0  0  1  0  0  3  0  0  0  0  0  0
  187.4870  178.0470  138.0290 C   0  0  2  0  0  3  0  0  0  0  0  0
  185.6490  170.8140  135.1720 N   0  0  0  0  0  2  0  0  0  0  0  0
  190.8280  174.8370  137.3030 C   0  0  0  0  0  2  0  0  0  0  0  0
  184.5390  173.0320  135.7950 N   0  0  0  0  0  2  0  0  0  0  0  0
  189.0430  171.6010  135.0420 N   0  0  0  0  0  1  0  0  0  0  0  0
  189.5630  173.9800  135.2450 C   0  0  0  0  0  2  0  0  0  0  0  0
  185.6000  172.0860  135.3980 C   0  0  0  0  0  0  0  0  0  0  0  0
  185.6260  174.9240  136.9700 C   0  0  1  0  0  3  0  0  0  0  0  0
  184.2830  175.3480  137.4900 C   0  0  0  0  0  0  0  0  0  0  0  0
  183.4080  174.4260  137.8790 C   0  0  0  0  0  2  0  0  0  0  0  0
  183.9440  176.6990  137.5520 O   0  0  0  0  0  0  0  0  0  0  0  0
  181.2710  178.4240  140.4800 C   0  0  0  0  0  0  0  0  0  0  0  0
  182.0000  178.0430  138.0880 C   0  0  0  0  0  2  0  0  0  0  0  0
  182.4680  178.7210  141.3460 C   0  0  2  0  0  3  0  0  0  0  0  0
  181.3030  178.9750  139.0890 C   0  0  0  0  0  2  0  0  0  0  0  0
  180.4430  177.4190  140.7630 C   0  0  0  0  0  2  0  0  0  0  0  0
  183.6520  177.8120  141.0040 C   0  0  0  0  0  2  0  0  0  0  0  0
  184.0990  177.9990  139.5570 C   0  0  0  0  0  2  0  0  0  0  0  0
  183.1800  177.2160  138.6300 C   0  0  2  0  0  3  0  0  0  0  0  0
  182.1450  178.7770  142.8480 C   0  0  1  0  0  3  0  0  0  0  0  0
  182.9280  178.7840  144.8500 O   0  0  0  0  0  1  0  0  0  0  0  0
  183.2500  178.4130  143.6250 O   0  0  0  0  0  0  0  0  0  0  0  0
  180.2340  180.2370  143.0210 O   0  0  0  0  0  1  0  0  0  0  0  0
  181.6080  180.1480  143.2600 C   0  0  0  0  0  2  0  0  0  0  0  0
  192.0370  172.2630  135.6750 O   0  0  0  0  0  1  0  0  0  0  0  0
  192.1500  173.6310  135.4190 C   0  0  2  0  0  3  0  0  0  0  0  0
  193.4120  174.1930  136.0590 C   0  0  0  0  0  2  0  0  0  0  0  0
  193.7750  173.4170  137.2360 N   0  0  0  0  0  2  0  0  0  0  0  0
  196.1800  173.3170  136.6190 N   0  0  0  0  0  2  0  0  0  0  0  0
  195.1160  173.0260  137.5350 C   0  0  0  0  0  0  0  0  0  0  0  0
  195.3540  172.4270  138.6160 O   0  0  0  0  0  0  0  0  0  0  0  0
  200.2320  173.8880  134.7650 C   0  0  0  0  0  1  0  0  0  0  0  0
  198.3770  174.2740  137.7640 S   0  0  0  0  0  0  0  0  0  0  0  0
  198.3100  172.8240  135.5740 C   0  0  2  0  0  3  0  0  0  0  0  0
  199.9520  173.6810  137.0850 C   0  0  0  0  0  2  0  0  0  0  0  0
  199.7410  173.0030  135.8070 N   0  0  0  0  0  0  0  0  0  0  0  0
  197.5600  172.9430  136.8830 C   0  0  2  0  0  3  0  0  0  0  0  0
  198.0480  171.4580  134.9510 C   0  0  0  0  0  2  0  0  0  0  0  0
  197.9820  169.2720  135.8330 O   0  0  0  0  0  0  0  0  0  0  0  0
  198.5420  170.3590  135.8310 C   0  0  0  0  0  3  0  0  0  0  0  0
  187.9840  178.4830  139.4050 C   0  0  0  0  0  2  0  0  0  0  0  0
  188.2720  177.2930  140.3120 C   0  0  0  0  0  2  0  0  0  0  0  0
  188.0370  177.6340  141.7770 C   0  0  2  0  0  3  0  0  0  0  0  0
  187.8010  179.0050  141.9140 O   0  0  0  0  0  1  0  0  0  0  0  0
  189.0100  176.9670  144.0850 C   0  0  2  0  0  3  0  0  0  0  0  0
  189.2750  175.8210  143.1140 C   0  0  0  0  0  2  0  0  0  0  0  0
  190.5100  177.7180  142.2300 O   0  0  0  0  0  1  0  0  0  0  0  0
  189.2510  177.2420  142.6090 C   0  0  1  0  0  0  0  0  0  0  0  0
  190.2030  177.2030  144.9080 C   0  0  0  0  0  0  0  0  0  0  0  0
  191.1500  177.3880  145.5460 N   0  0  0  0  0  0  0  0  0  0  0  0
  1 12  1  0  0  0  0
  2  8  1  6  0  0  0
  2 14  1  0  0  0  0
  3 15  1  1  0  0  0
  3 19  1  0  0  0  0
  5 19  1  0  0  0  0
  5  1  1  0  0  0  0
  7 37  1  6  0  0  0
  7  2  1  0  0  0  0
  7 14  1  0  0  0  0
  8  6  1  0  0  0  0
  9 18  1  0  0  0  0
  9  3  1  0  0  0  0
  9  4  1  1  0  0  0
 10  6  1  0  0  0  0
 10 12  1  0  0  0  0
 11 16  1  6  0  0  0
 11  4  1  0  0  0  0
 12 52  1  1  0  0  0
 13 18  2  0  0  0  0
 17  7  1  0  0  0  0
 17 11  1  0  0  0  0
 18 15  1  0  0  0  0
 19 20  1  6  0  0  0
 20 22  1  0  0  0  0
 20 21  2  0  0  0  0
 23 27  2  0  0  0  0
 23 25  1  0  0  0  0
 24 30  1  0  0  0  0
 24 26  1  0  0  0  0
 25 31  1  1  0  0  0
 26 23  1  0  0  0  0
 28 25  1  0  0  0  0
 29 28  1  0  0  0  0
 30 22  1  6  0  0  0
 30 29  1  0  0  0  0
 31 35  1  1  0  0  0
 31 33  1  0  0  0  0
 33 32  1  0  0  0  0
 34 35  1  0  0  0  0
 37 36  1  1  0  0  0
 37 38  1  0  0  0  0
 38 39  1  0  0  0  0
 39 41  1  0  0  0  0
 40 41  1  0  0  0  0
 41 42  2  0  0  0  0
 43 47  1  0  0  0  0
 45 49  1  1  0  0  0
 45 47  1  0  0  0  0
 45 48  1  0  0  0  0
 46 44  1  0  0  0  0
 47 46  1  0  0  0  0
 48 40  1  6  0  0  0
 48 44  1  0  0  0  0
 49 51  1  0  0  0  0
 51 50  2  0  0  0  0
 52 53  1  0  0  0  0
 53 54  1  0  0  0  0
 54 55  1  6  0  0  0
 54 59  1  0  0  0  0
 56 60  1  1  0  0  0
 57 56  1  0  0  0  0
 59 58  1  6  0  0  0
 59 57  1  0  0  0  0
 59 56  1  0  0  0  0
 60 61  3  0  0  0  0
M  END
>  <MODEL>
8

>  <REMARK>
 VINA RESULT:      -5.3      3.600     10.844
  Name = 
  17 active torsions:
  status: ('A' for Active; 'I' for Inactive)
    1  A    between atoms: N_4  and  C_53
    2  A    between atoms: C_6  and  C_8
    3  A    between atoms: C_9  and  C_14
    4  A    between atoms: C_9  and  C_39
    5  A    between atoms: C_11  and  O_48
    6  A    between atoms: C_11  and  C_54
    7  A    between atoms: C_14  and  C_50
    8  A    between atoms: C_20  and  C_55
    9  A    between atoms: C_22  and  C_24
   10  A    between atoms: C_22  and  O_45
   11  A    between atoms: C_22  and  C_59
   12  A    between atoms: C_29  and  C_39
   13  A    between atoms: C_35  and  C_42
   14  A    between atoms: C_35  and  C_52
   15  A    between atoms: N_40  and  C_61
   16  A    between atoms: O_48  and  C_60
   17  A    between atoms: C_53  and  C_55
                            x       y       z     vdW  Elec       q    Type
                         _______ _______ _______ _____ _____    ______ ____

>  <TORSDO>
F 17

$$$$
=
 OpenBabel10232407523D

 61 66  0  0  1  0  0  0  0  0999 V2000
  187.3570  177.6460  139.1210 C   0  0  0  0  0  2  0  0  0  0  0  0
  190.0410  175.6790  136.4070 C   0  0  1  0  0  3  0  0  0  0  0  0
  184.3450  177.1310  136.8970 C   0  0  1  0  0  3  0  0  0  0  0  0
  185.6110  174.9420  136.9690 C   0  0  0  0  0  2  0  0  0  0  0  0
  186.3850  178.0420  138.0250 C   0  0  0  0  0  2  0  0  0  0  0  0
  190.1180  177.7590  137.7870 C   0  0  0  0  0  2  0  0  0  0  0  0
  189.0460  174.6660  135.8320 C   0  0  1  0  0  0  0  0  0  0  0  0
  189.4200  177.0490  136.6440 C   0  0  0  0  0  2  0  0  0  0  0  0
  184.7450  175.9310  136.1820 C   0  0  1  0  0  3  0  0  0  0  0  0
  189.3160  178.9930  138.1780 C   0  0  0  0  0  2  0  0  0  0  0  0
  186.5920  174.1860  136.0780 C   0  0  1  0  0  3  0  0  0  0  0  0
  188.3800  178.7520  139.3680 C   0  0  2  0  0  3  0  0  0  0  0  0
  182.6520  174.4680  135.8070 N   0  0  0  0  0  2  0  0  0  0  0  0
  189.3780  174.6550  137.3150 C   0  0  0  0  0  2  0  0  0  0  0  0
  182.9800  176.6740  137.0560 N   0  0  0  0  0  2  0  0  0  0  0  0
  185.9010  173.4820  135.0120 N   0  0  0  0  0  1  0  0  0  0  0  0
  187.6330  175.1350  135.4990 C   0  0  0  0  0  2  0  0  0  0  0  0
  183.3170  175.4800  136.2580 C   0  0  0  0  0  0  0  0  0  0  0  0
  185.0330  177.3790  138.2520 C   0  0  1  0  0  3  0  0  0  0  0  0
  184.1930  178.2480  139.1420 C   0  0  0  0  0  0  0  0  0  0  0  0
  184.1720  179.5630  138.9470 C   0  0  0  0  0  2  0  0  0  0  0  0
  183.4500  177.6880  140.1800 O   0  0  0  0  0  0  0  0  0  0  0  0
  183.5760  179.0810  144.2710 C   0  0  0  0  0  0  0  0  0  0  0  0
  182.4660  178.9450  142.0020 C   0  0  0  0  0  2  0  0  0  0  0  0
  185.0570  179.3080  144.1110 C   0  0  2  0  0  3  0  0  0  0  0  0
  182.6870  179.7650  143.2810 C   0  0  0  0  0  2  0  0  0  0  0  0
  183.1050  178.0400  144.9590 C   0  0  0  0  0  2  0  0  0  0  0  0
  185.6420  178.4540  142.9820 C   0  0  0  0  0  2  0  0  0  0  0  0
  184.9980  178.7880  141.6400 C   0  0  0  0  0  2  0  0  0  0  0  0
  183.6510  178.0860  141.5260 C   0  0  2  0  0  3  0  0  0  0  0  0
  185.8420  179.2120  145.4290 C   0  0  1  0  0  3  0  0  0  0  0  0
  185.6140  179.7470  147.4990 O   0  0  0  0  0  1  0  0  0  0  0  0
  184.9860  179.1070  146.5310 O   0  0  0  0  0  0  0  0  0  0  0  0
  186.4480  177.0290  146.2530 O   0  0  0  0  0  1  0  0  0  0  0  0
  186.8510  178.0640  145.4050 C   0  0  0  0  0  2  0  0  0  0  0  0
  189.2480  172.2680  135.4600 O   0  0  0  0  0  1  0  0  0  0  0  0
  189.6310  173.5260  134.9890 C   0  0  2  0  0  3  0  0  0  0  0  0
  191.1470  173.6190  134.8820 C   0  0  0  0  0  2  0  0  0  0  0  0
  191.7440  173.7380  136.2040 N   0  0  0  0  0  2  0  0  0  0  0  0
  193.8690  172.6510  135.5120 N   0  0  0  0  0  2  0  0  0  0  0  0
  193.0740  173.3110  136.5060 C   0  0  0  0  0  0  0  0  0  0  0  0
  193.5410  173.5250  137.6540 O   0  0  0  0  0  0  0  0  0  0  0  0
  196.4630  169.0920  134.6290 C   0  0  0  0  0  1  0  0  0  0  0  0
  196.2670  172.6240  134.3730 S   0  0  0  0  0  0  0  0  0  0  0  0
  195.2570  170.6920  135.8390 C   0  0  2  0  0  3  0  0  0  0  0  0
  197.3560  171.2500  134.8410 C   0  0  0  0  0  2  0  0  0  0  0  0
  196.6050  170.2110  135.5430 N   0  0  0  0  0  0  0  0  0  0  0  0
  195.2270  172.2030  135.7710 C   0  0  2  0  0  3  0  0  0  0  0  0
  194.8280  170.2290  137.2260 C   0  0  0  0  0  2  0  0  0  0  0  0
  194.7030  167.9610  137.8590 O   0  0  0  0  0  0  0  0  0  0  0  0
  194.2320  168.8610  137.1800 C   0  0  0  0  0  3  0  0  0  0  0  0
  189.1820  178.4890  140.6410 C   0  0  0  0  0  2  0  0  0  0  0  0
  188.3380  177.8250  141.7210 C   0  0  0  0  0  2  0  0  0  0  0  0
  189.1100  176.7300  142.4430 C   0  0  2  0  0  3  0  0  0  0  0  0
  188.2230  175.7750  142.9480 O   0  0  0  0  0  1  0  0  0  0  0  0
  190.9570  176.4200  144.2350 C   0  0  2  0  0  3  0  0  0  0  0  0
  191.3860  177.5550  143.3100 C   0  0  0  0  0  2  0  0  0  0  0  0
  189.3410  178.3250  144.3740 O   0  0  0  0  0  1  0  0  0  0  0  0
  189.9200  177.3250  143.5870 C   0  0  1  0  0  0  0  0  0  0  0  0
  191.2380  176.7880  145.6290 C   0  0  0  0  0  0  0  0  0  0  0  0
  191.4710  177.0720  146.7260 N   0  0  0  0  0  0  0  0  0  0  0  0
  1 12  1  0  0  0  0
  2  8  1  1  0  0  0
  2 14  1  0  0  0  0
  3 15  1  1  0  0  0
  3 19  1  0  0  0  0
  5 19  1  0  0  0  0
  5  1  1  0  0  0  0
  6 10  1  0  0  0  0
  7 37  1  6  0  0  0
  7  2  1  0  0  0  0
  7 14  1  0  0  0  0
  8  6  1  0  0  0  0
  9 18  1  0  0  0  0
  9  3  1  0  0  0  0
  9  4  1  1  0  0  0
 10 12  1  0  0  0  0
 11 16  1  6  0  0  0
 11  4  1  0  0  0  0
 12 52  1  1  0  0  0
 13 18  2  0  0  0  0
 17  7  1  0  0  0  0
 17 11  1  0  0  0  0
 18 15  1  0  0  0  0
 19 20  1  1  0  0  0
 20 22  1  0  0  0  0
 21 20  2  0  0  0  0
 23 27  2  0  0  0  0
 24 26  1  0  0  0  0
 25 23  1  0  0  0  0
 25 31  1  1  0  0  0
 26 23  1  0  0  0  0
 28 25  1  0  0  0  0
 29 28  1  0  0  0  0
 30 22  1  6  0  0  0
 30 29  1  0  0  0  0
 30 24  1  0  0  0  0
 31 35  1  6  0  0  0
 31 33  1  0  0  0  0
 33 32  1  0  0  0  0
 35 34  1  0  0  0  0
 37 36  1  1  0  0  0
 38 37  1  0  0  0  0
 38 39  1  0  0  0  0
 39 41  1  0  0  0  0
 40 41  1  0  0  0  0
 41 42  2  0  0  0  0
 43 47  1  0  0  0  0
 44 46  1  0  0  0  0
 44 48  1  0  0  0  0
 45 49  1  1  0  0  0
 46 47  1  0  0  0  0
 47 45  1  0  0  0  0
 48 40  1  6  0  0  0
 48 45  1  0  0  0  0
 51 49  1  0  0  0  0
 51 50  2  0  0  0  0
 52 53  1  0  0  0  0
 53 54  1  0  0  0  0
 54 55  1  1  0  0  0
 54 59  1  0  0  0  0
 56 60  1  1  0  0  0
 57 59  1  0  0  0  0
 57 56  1  0  0  0  0
 59 56  1  0  0  0  0
 59 58  1  1  0  0  0
 60 61  3  0  0  0  0
M  END
>  <MODEL>
9

>  <REMARK>
 VINA RESULT:      -4.9      3.396      9.447
  Name = 
  17 active torsions:
  status: ('A' for Active; 'I' for Inactive)
    1  A    between atoms: N_4  and  C_53
    2  A    between atoms: C_6  and  C_8
    3  A    between atoms: C_9  and  C_14
    4  A    between atoms: C_9  and  C_39
    5  A    between atoms: C_11  and  O_48
    6  A    between atoms: C_11  and  C_54
    7  A    between atoms: C_14  and  C_50
    8  A    between atoms: C_20  and  C_55
    9  A    between atoms: C_22  and  C_24
   10  A    between atoms: C_22  and  O_45
   11  A    between atoms: C_22  and  C_59
   12  A    between atoms: C_29  and  C_39
   13  A    between atoms: C_35  and  C_42
   14  A    between atoms: C_35  and  C_52
   15  A    between atoms: N_40  and  C_61
   16  A    between atoms: O_48  and  C_60
   17  A    between atoms: C_53  and  C_55
                            x       y       z     vdW  Elec       q    Type
                         _______ _______ _______ _____ _____    ______ ____

>  <TORSDO>
F 17

$$$$
