=
 OpenBabel10232407533D

 26 26  0  0  1  0  0  0  0  0999 V2000
  188.9830  176.6480  142.8720 N   0  0  0  0  0  0  0  0  0  0  0  0
  188.3720  177.5220  142.1360 C   0  0  0  0  0  3  0  0  0  0  0  0
  184.5650  179.1220  143.2350 C   0  0  0  0  0  3  0  0  0  0  0  0
  186.5600  178.5260  140.1470 N   0  0  0  0  0  1  0  0  0  0  0  0
  184.0960  179.5690  140.9470 F   0  0  0  0  0  0  0  0  0  0  0  0
  187.0600  178.0670  142.5110 C   0  0  0  0  0  0  0  0  0  0  0  0
  186.1870  178.5570  141.5230 C   0  0  0  0  0  0  0  0  0  0  0  0
  186.6690  178.1110  143.8580 C   0  0  0  0  0  3  0  0  0  0  0  0
  184.9420  179.0850  141.8910 C   0  0  0  0  0  0  0  0  0  0  0  0
  185.4170  178.6210  144.2260 C   0  0  0  0  0  0  0  0  0  0  0  0
  185.7570  179.7000  146.3090 F   0  0  0  0  0  0  0  0  0  0  0  0
  183.6710  179.0040  145.7730 O   0  0  0  0  0  1  0  0  0  0  0  0
  185.0300  178.7070  145.6740 C   0  0  0  0  0  0  0  0  0  0  0  0
  185.2800  177.5040  146.3120 F   0  0  0  0  0  0  0  0  0  0  0  0
  190.2650  176.0970  142.5370 C   0  0  0  0  0  3  0  0  0  0  0  0
  191.4050  176.6360  142.8710 N   0  0  0  0  0  0  0  0  0  0  0  0
  191.6500  177.5490  145.1620 N   0  0  0  0  0  2  0  0  0  0  0  0
  191.5530  178.9600  143.2930 N   0  0  0  0  0  2  0  0  0  0  0  0
  191.6180  177.7520  143.7480 C   0  0  0  0  0  0  0  0  0  0  0  0
  191.6880  176.2240  145.7640 C   0  0  0  0  0  2  0  0  0  0  0  0
  190.9860  176.2280  147.1210 C   0  0  1  0  0  3  0  0  0  0  0  0
  191.8350  176.8330  148.2410 C   0  0  0  0  0  2  0  0  0  0  0  0
  193.0550  176.0710  148.4550 N   0  0  0  0  0  1  0  0  0  0  0  0
  189.5770  176.8180  147.0500 C   0  0  0  0  0  2  0  0  0  0  0  0
  187.8640  177.9220  148.4600 C   0  0  0  0  0  1  0  0  0  0  0  0
  189.3330  177.8960  148.0940 C   0  0  0  0  0  2  0  0  0  0  0  0
  2  6  1  0  0  0  0
  2  1  2  0  0  0  0
  3 10  1  0  0  0  0
  4  7  1  0  0  0  0
  5  9  1  0  0  0  0
  6  8  1  0  0  0  0
  7  9  1  0  0  0  0
  7  6  2  0  0  0  0
  8 10  2  0  0  0  0
  9  3  2  0  0  0  0
 10 13  1  0  0  0  0
 13 12  1  0  0  0  0
 13 11  1  0  0  0  0
 13 14  1  0  0  0  0
 15 16  2  0  0  0  0
 15  1  1  0  0  0  0
 16 19  1  0  0  0  0
 17 20  1  0  0  0  0
 18 19  2  0  0  0  0
 19 17  1  0  0  0  0
 21 20  1  6  0  0  0
 21 22  1  0  0  0  0
 22 23  1  0  0  0  0
 24 21  1  0  0  0  0
 24 26  1  0  0  0  0
 26 25  1  0  0  0  0
M  END
>  <MODEL>
1

>  <REMARK>
 VINA RESULT:      -7.8      0.000      0.000
  Name = 
  9 active torsions:
  status: ('A' for Active; 'I' for Inactive)
    1  A    between atoms: C_3  and  C_24
    2  A    between atoms: N_5  and  C_17
    3  A    between atoms: C_6  and  C_18
    4  A    between atoms: C_6  and  C_24
    5  A    between atoms: C_7  and  N_10
    6  A    between atoms: C_13  and  C_21
    7  A    between atoms: C_17  and  C_24
    8  A    between atoms: C_19  and  C_22
    9  A    between atoms: C_23  and  N_26
                            x       y       z     vdW  Elec       q    Type
                         _______ _______ _______ _____ _____    ______ ____

>  <TORSDO>
F 9

$$$$
=
 OpenBabel10232407533D

 26 26  0  0  1  0  0  0  0  0999 V2000
  190.2800  178.4150  143.9680 N   0  0  0  0  0  0  0  0  0  0  0  0
  189.9940  177.6810  144.9970 C   0  0  0  0  0  3  0  0  0  0  0  0
  186.3980  178.2390  147.2360 C   0  0  0  0  0  3  0  0  0  0  0  0
  189.9650  177.3630  147.8510 N   0  0  0  0  0  1  0  0  0  0  0  0
  187.5710  177.7310  149.2400 F   0  0  0  0  0  0  0  0  0  0  0  0
  188.7600  177.8780  145.7690 C   0  0  0  0  0  0  0  0  0  0  0  0
  188.7640  177.7150  147.1660 C   0  0  0  0  0  0  0  0  0  0  0  0
  187.5650  178.2240  145.1200 C   0  0  0  0  0  3  0  0  0  0  0  0
  187.5800  177.8950  147.8940 C   0  0  0  0  0  0  0  0  0  0  0  0
  186.3850  178.4220  145.8480 C   0  0  0  0  0  0  0  0  0  0  0  0
  184.8270  177.7820  144.1790 F   0  0  0  0  0  0  0  0  0  0  0  0
  184.0570  178.7770  146.0610 O   0  0  0  0  0  1  0  0  0  0  0  0
  185.1020  178.7440  145.1370 C   0  0  0  0  0  0  0  0  0  0  0  0
  185.1940  179.9740  144.5100 F   0  0  0  0  0  0  0  0  0  0  0  0
  191.4740  178.2480  143.1900 C   0  0  0  0  0  3  0  0  0  0  0  0
  191.6750  177.2680  142.3530 N   0  0  0  0  0  0  0  0  0  0  0  0
  190.0480  176.4450  140.6740 N   0  0  0  0  0  2  0  0  0  0  0  0
  190.3060  175.3770  142.7450 N   0  0  0  0  0  2  0  0  0  0  0  0
  190.7240  176.2820  141.9220 C   0  0  0  0  0  0  0  0  0  0  0  0
  190.4280  177.4610  139.7020 C   0  0  0  0  0  2  0  0  0  0  0  0
  189.2370  178.3590  139.3700 C   0  0  1  0  0  3  0  0  0  0  0  0
  189.0300  178.5590  137.8670 C   0  0  0  0  0  2  0  0  0  0  0  0
  189.8290  177.6240  137.0900 N   0  0  0  0  0  1  0  0  0  0  0  0
  187.9620  177.9370  140.1000 C   0  0  0  0  0  2  0  0  0  0  0  0
  186.2220  178.9920  141.5150 C   0  0  0  0  0  1  0  0  0  0  0  0
  187.7080  178.7460  141.3630 C   0  0  0  0  0  2  0  0  0  0  0  0
  1  2  2  0  0  0  0
  2  6  1  0  0  0  0
  3  9  1  0  0  0  0
  6  7  1  0  0  0  0
  7  4  1  0  0  0  0
  7  9  2  0  0  0  0
  8  6  2  0  0  0  0
  8 10  1  0  0  0  0
  9  5  1  0  0  0  0
 10  3  2  0  0  0  0
 11 13  1  0  0  0  0
 13 10  1  0  0  0  0
 13 12  1  0  0  0  0
 14 13  1  0  0  0  0
 15  1  1  0  0  0  0
 16 15  2  0  0  0  0
 17 19  1  0  0  0  0
 19 16  1  0  0  0  0
 19 18  2  0  0  0  0
 20 17  1  0  0  0  0
 21 22  1  6  0  0  0
 21 20  1  0  0  0  0
 21 24  1  0  0  0  0
 23 22  1  0  0  0  0
 24 26  1  0  0  0  0
 26 25  1  0  0  0  0
M  END
>  <MODEL>
2

>  <REMARK>
 VINA RESULT:      -7.5      2.236      5.847
  Name = 
  9 active torsions:
  status: ('A' for Active; 'I' for Inactive)
    1  A    between atoms: C_3  and  C_24
    2  A    between atoms: N_5  and  C_17
    3  A    between atoms: C_6  and  C_18
    4  A    between atoms: C_6  and  C_24
    5  A    between atoms: C_7  and  N_10
    6  A    between atoms: C_13  and  C_21
    7  A    between atoms: C_17  and  C_24
    8  A    between atoms: C_19  and  C_22
    9  A    between atoms: C_23  and  N_26
                            x       y       z     vdW  Elec       q    Type
                         _______ _______ _______ _____ _____    ______ ____

>  <TORSDO>
F 9

$$$$
=
 OpenBabel10232407533D

 26 26  0  0  1  0  0  0  0  0999 V2000
  190.2790  178.3930  143.9950 N   0  0  0  0  0  0  0  0  0  0  0  0
  189.9770  177.6800  145.0330 C   0  0  0  0  0  3  0  0  0  0  0  0
  186.3570  178.2990  147.2170 C   0  0  0  0  0  3  0  0  0  0  0  0
  189.9160  177.4360  147.8940 N   0  0  0  0  0  1  0  0  0  0  0  0
  187.5080  177.8420  149.2470 F   0  0  0  0  0  0  0  0  0  0  0  0
  188.7340  177.8980  145.7870 C   0  0  0  0  0  0  0  0  0  0  0  0
  188.7230  177.7710  147.1870 C   0  0  0  0  0  0  0  0  0  0  0  0
  187.5470  178.2270  145.1160 C   0  0  0  0  0  3  0  0  0  0  0  0
  187.5320  177.9710  147.8970 C   0  0  0  0  0  0  0  0  0  0  0  0
  186.3590  178.4450  145.8250 C   0  0  0  0  0  0  0  0  0  0  0  0
  184.8510  177.7970  144.1150 F   0  0  0  0  0  0  0  0  0  0  0  0
  184.0200  178.7460  145.9950 O   0  0  0  0  0  1  0  0  0  0  0  0
  185.0840  178.7490  145.0930 C   0  0  0  0  0  0  0  0  0  0  0  0
  185.1610  179.9910  144.4860 F   0  0  0  0  0  0  0  0  0  0  0  0
  191.4810  178.2060  143.2340 C   0  0  0  0  0  3  0  0  0  0  0  0
  191.6700  177.2330  142.3860 N   0  0  0  0  0  0  0  0  0  0  0  0
  190.0940  176.4470  140.6420 N   0  0  0  0  0  2  0  0  0  0  0  0
  190.2050  175.4080  142.7400 N   0  0  0  0  0  2  0  0  0  0  0  0
  190.7000  176.2800  141.9250 C   0  0  0  0  0  0  0  0  0  0  0  0
  190.5630  177.4290  139.6740 C   0  0  0  0  0  2  0  0  0  0  0  0
  190.1900  177.0060  138.2540 C   0  0  1  0  0  3  0  0  0  0  0  0
  189.3860  178.0650  137.4970 C   0  0  0  0  0  2  0  0  0  0  0  0
  188.9730  179.1490  138.3750 N   0  0  0  0  0  1  0  0  0  0  0  0
  191.3900  176.4840  137.4630 C   0  0  0  0  0  2  0  0  0  0  0  0
  193.6030  175.4300  137.8340 C   0  0  0  0  0  1  0  0  0  0  0  0
  192.6940  176.5720  138.2410 C   0  0  0  0  0  2  0  0  0  0  0  0
  1  2  2  0  0  0  0
  2  6  1  0  0  0  0
  3  9  1  0  0  0  0
  6  7  1  0  0  0  0
  7  4  1  0  0  0  0
  7  9  2  0  0  0  0
  8  6  2  0  0  0  0
  8 10  1  0  0  0  0
  9  5  1  0  0  0  0
 10  3  2  0  0  0  0
 11 13  1  0  0  0  0
 13 10  1  0  0  0  0
 13 12  1  0  0  0  0
 14 13  1  0  0  0  0
 15  1  1  0  0  0  0
 16 15  2  0  0  0  0
 17 19  1  0  0  0  0
 19 16  1  0  0  0  0
 19 18  2  0  0  0  0
 20 17  1  0  0  0  0
 21 24  1  6  0  0  0
 21 20  1  0  0  0  0
 22 21  1  0  0  0  0
 22 23  1  0  0  0  0
 24 26  1  0  0  0  0
 25 26  1  0  0  0  0
M  END
>  <MODEL>
3

>  <REMARK>
 VINA RESULT:      -7.1      2.849      6.489
  Name = 
  9 active torsions:
  status: ('A' for Active; 'I' for Inactive)
    1  A    between atoms: C_3  and  C_24
    2  A    between atoms: N_5  and  C_17
    3  A    between atoms: C_6  and  C_18
    4  A    between atoms: C_6  and  C_24
    5  A    between atoms: C_7  and  N_10
    6  A    between atoms: C_13  and  C_21
    7  A    between atoms: C_17  and  C_24
    8  A    between atoms: C_19  and  C_22
    9  A    between atoms: C_23  and  N_26
                            x       y       z     vdW  Elec       q    Type
                         _______ _______ _______ _____ _____    ______ ____

>  <TORSDO>
F 9

$$$$
=
 OpenBabel10232407533D

 26 26  0  0  1  0  0  0  0  0999 V2000
  189.0890  177.7490  142.1240 N   0  0  0  0  0  0  0  0  0  0  0  0
  188.1630  177.2130  142.8560 C   0  0  0  0  0  3  0  0  0  0  0  0
  184.1990  178.8000  143.0030 C   0  0  0  0  0  3  0  0  0  0  0  0
  186.8530  177.6870  145.3670 N   0  0  0  0  0  1  0  0  0  0  0  0
  184.2560  178.7130  145.3790 F   0  0  0  0  0  0  0  0  0  0  0  0
  186.8020  177.7640  142.9090 C   0  0  0  0  0  0  0  0  0  0  0  0
  186.1750  177.9870  144.1480 C   0  0  0  0  0  0  0  0  0  0  0  0
  186.1130  178.0660  141.7250 C   0  0  0  0  0  3  0  0  0  0  0  0
  184.8740  178.5030  144.1890 C   0  0  0  0  0  0  0  0  0  0  0  0
  184.8180  178.5990  141.7640 C   0  0  0  0  0  0  0  0  0  0  0  0
  182.7870  179.3050  140.7670 F   0  0  0  0  0  0  0  0  0  0  0  0
  184.7400  179.8620  139.7670 O   0  0  0  0  0  1  0  0  0  0  0  0
  184.0730  178.8730  140.4900 C   0  0  0  0  0  0  0  0  0  0  0  0
  183.9940  177.7240  139.7220 F   0  0  0  0  0  0  0  0  0  0  0  0
  190.4260  177.2350  142.0460 C   0  0  0  0  0  3  0  0  0  0  0  0
  191.4080  177.6230  142.8120 N   0  0  0  0  0  0  0  0  0  0  0  0
  191.3270  177.9200  145.2710 N   0  0  0  0  0  2  0  0  0  0  0  0
  191.0350  179.7340  143.8160 N   0  0  0  0  0  2  0  0  0  0  0  0
  191.3300  178.4840  143.9580 C   0  0  0  0  0  0  0  0  0  0  0  0
  191.6120  176.5150  145.5230 C   0  0  0  0  0  2  0  0  0  0  0  0
  191.1620  176.1170  146.9280 C   0  0  1  0  0  3  0  0  0  0  0  0
  192.2810  175.5050  147.7730 C   0  0  0  0  0  2  0  0  0  0  0  0
  192.9730  176.5170  148.5550 N   0  0  0  0  0  1  0  0  0  0  0  0
  190.4160  177.2430  147.6450 C   0  0  0  0  0  2  0  0  0  0  0  0
  188.3180  178.0010  148.7250 C   0  0  0  0  0  1  0  0  0  0  0  0
  188.9350  176.9500  147.8260 C   0  0  0  0  0  2  0  0  0  0  0  0
  1  2  2  0  0  0  0
  2  6  1  0  0  0  0
  3  9  1  0  0  0  0
  6  7  1  0  0  0  0
  7  9  2  0  0  0  0
  7  4  1  0  0  0  0
  8 10  1  0  0  0  0
  8  6  2  0  0  0  0
  9  5  1  0  0  0  0
 10  3  2  0  0  0  0
 12 13  1  0  0  0  0
 13 11  1  0  0  0  0
 13 10  1  0  0  0  0
 14 13  1  0  0  0  0
 15  1  1  0  0  0  0
 15 16  2  0  0  0  0
 16 19  1  0  0  0  0
 17 20  1  0  0  0  0
 18 19  2  0  0  0  0
 19 17  1  0  0  0  0
 21 20  1  6  0  0  0
 21 24  1  0  0  0  0
 21 22  1  0  0  0  0
 22 23  1  0  0  0  0
 24 26  1  0  0  0  0
 26 25  1  0  0  0  0
M  END
>  <MODEL>
4

>  <REMARK>
 VINA RESULT:      -7.0      1.718      3.013
  Name = 
  9 active torsions:
  status: ('A' for Active; 'I' for Inactive)
    1  A    between atoms: C_3  and  C_24
    2  A    between atoms: N_5  and  C_17
    3  A    between atoms: C_6  and  C_18
    4  A    between atoms: C_6  and  C_24
    5  A    between atoms: C_7  and  N_10
    6  A    between atoms: C_13  and  C_21
    7  A    between atoms: C_17  and  C_24
    8  A    between atoms: C_19  and  C_22
    9  A    between atoms: C_23  and  N_26
                            x       y       z     vdW  Elec       q    Type
                         _______ _______ _______ _____ _____    ______ ____

>  <TORSDO>
F 9

$$$$
=
 OpenBabel10232407533D

 26 26  0  0  1  0  0  0  0  0999 V2000
  188.8030  176.1470  143.3430 N   0  0  0  0  0  0  0  0  0  0  0  0
  188.4960  176.8300  144.4010 C   0  0  0  0  0  3  0  0  0  0  0  0
  184.6680  178.6780  144.8370 C   0  0  0  0  0  3  0  0  0  0  0  0
  187.4600  177.4900  146.9970 N   0  0  0  0  0  1  0  0  0  0  0  0
  184.9440  178.6830  147.1990 F   0  0  0  0  0  0  0  0  0  0  0  0
  187.1820  177.4710  144.5520 C   0  0  0  0  0  0  0  0  0  0  0  0
  186.6900  177.7840  145.8330 C   0  0  0  0  0  0  0  0  0  0  0  0
  186.4040  177.7700  143.4240 C   0  0  0  0  0  3  0  0  0  0  0  0
  185.4320  178.3860  145.9690 C   0  0  0  0  0  0  0  0  0  0  0  0
  185.1540  178.3880  143.5570 C   0  0  0  0  0  0  0  0  0  0  0  0
  183.1000  179.2190  142.7160 F   0  0  0  0  0  0  0  0  0  0  0  0
  184.9820  179.5420  141.5010 O   0  0  0  0  0  1  0  0  0  0  0  0
  184.3100  178.6580  142.3450 C   0  0  0  0  0  0  0  0  0  0  0  0
  184.0570  177.4810  141.6620 F   0  0  0  0  0  0  0  0  0  0  0  0
  190.0740  175.5060  143.1630 C   0  0  0  0  0  3  0  0  0  0  0  0
  191.0750  176.0280  142.5110 N   0  0  0  0  0  0  0  0  0  0  0  0
  191.0660  177.6000  140.5950 N   0  0  0  0  0  2  0  0  0  0  0  0
  191.5930  178.3240  142.7600 N   0  0  0  0  0  2  0  0  0  0  0  0
  191.1780  177.3660  142.0000 C   0  0  0  0  0  0  0  0  0  0  0  0
  190.6400  176.5690  139.6580 C   0  0  0  0  0  2  0  0  0  0  0  0
  189.5950  177.1210  138.6890 C   0  0  1  0  0  3  0  0  0  0  0  0
  189.0250  178.4750  139.1180 C   0  0  0  0  0  2  0  0  0  0  0  0
  187.5720  178.4440  139.1840 N   0  0  0  0  0  1  0  0  0  0  0  0
  190.0740  177.1040  137.2370 C   0  0  0  0  0  2  0  0  0  0  0  0
  191.4860  175.9020  135.5930 C   0  0  0  0  0  1  0  0  0  0  0  0
  191.3550  176.3060  137.0470 C   0  0  0  0  0  2  0  0  0  0  0  0
  1  2  2  0  0  0  0
  2  6  1  0  0  0  0
  3  9  1  0  0  0  0
  6  7  1  0  0  0  0
  7  9  2  0  0  0  0
  7  4  1  0  0  0  0
  8 10  1  0  0  0  0
  8  6  2  0  0  0  0
  9  5  1  0  0  0  0
 10  3  2  0  0  0  0
 12 13  1  0  0  0  0
 13 11  1  0  0  0  0
 13 10  1  0  0  0  0
 14 13  1  0  0  0  0
 15  1  1  0  0  0  0
 16 15  2  0  0  0  0
 17 19  1  0  0  0  0
 19 16  1  0  0  0  0
 19 18  2  0  0  0  0
 20 17  1  0  0  0  0
 21 24  1  6  0  0  0
 21 22  1  0  0  0  0
 21 20  1  0  0  0  0
 22 23  1  0  0  0  0
 25 26  1  0  0  0  0
 26 24  1  0  0  0  0
M  END
>  <MODEL>
5

>  <REMARK>
 VINA RESULT:      -6.9      2.902      6.134
  Name = 
  9 active torsions:
  status: ('A' for Active; 'I' for Inactive)
    1  A    between atoms: C_3  and  C_24
    2  A    between atoms: N_5  and  C_17
    3  A    between atoms: C_6  and  C_18
    4  A    between atoms: C_6  and  C_24
    5  A    between atoms: C_7  and  N_10
    6  A    between atoms: C_13  and  C_21
    7  A    between atoms: C_17  and  C_24
    8  A    between atoms: C_19  and  C_22
    9  A    between atoms: C_23  and  N_26
                            x       y       z     vdW  Elec       q    Type
                         _______ _______ _______ _____ _____    ______ ____

>  <TORSDO>
F 9

$$$$
=
 OpenBabel10232407533D

 26 26  0  0  1  0  0  0  0  0999 V2000
  189.7990  176.5530  142.3480 N   0  0  0  0  0  0  0  0  0  0  0  0
  189.9650  177.1700  141.2210 C   0  0  0  0  0  3  0  0  0  0  0  0
  186.6540  178.4110  138.8220 C   0  0  0  0  0  3  0  0  0  0  0  0
  190.0760  177.0170  138.3550 N   0  0  0  0  0  1  0  0  0  0  0  0
  187.8760  177.8610  136.8570 F   0  0  0  0  0  0  0  0  0  0  0  0
  188.8250  177.5910  140.3940 C   0  0  0  0  0  0  0  0  0  0  0  0
  188.8990  177.5110  138.9920 C   0  0  0  0  0  0  0  0  0  0  0  0
  187.6560  178.0820  140.9950 C   0  0  0  0  0  3  0  0  0  0  0  0
  187.8110  177.9240  138.2110 C   0  0  0  0  0  0  0  0  0  0  0  0
  186.5610  178.4780  140.2170 C   0  0  0  0  0  0  0  0  0  0  0  0
  185.6790  179.7530  142.0100 F   0  0  0  0  0  0  0  0  0  0  0  0
  184.6930  179.9080  139.9780 O   0  0  0  0  0  1  0  0  0  0  0  0
  185.3350  179.0480  140.8690 C   0  0  0  0  0  0  0  0  0  0  0  0
  184.4640  178.0330  141.2270 F   0  0  0  0  0  0  0  0  0  0  0  0
  190.8880  176.1310  143.1810 C   0  0  0  0  0  3  0  0  0  0  0  0
  191.4500  176.8780  144.0900 N   0  0  0  0  0  0  0  0  0  0  0  0
  189.8230  178.2750  145.3310 N   0  0  0  0  0  2  0  0  0  0  0  0
  191.5520  179.2430  144.0800 N   0  0  0  0  0  2  0  0  0  0  0  0
  191.0140  178.1660  144.5500 C   0  0  0  0  0  0  0  0  0  0  0  0
  189.1290  177.1140  145.8720 C   0  0  0  0  0  2  0  0  0  0  0  0
  187.8200  177.5320  146.5410 C   0  0  1  0  0  3  0  0  0  0  0  0
  188.0250  178.4200  147.7700 C   0  0  0  0  0  2  0  0  0  0  0  0
  187.8550  177.6690  149.0040 N   0  0  0  0  0  1  0  0  0  0  0  0
  186.8100  178.1060  145.5470 C   0  0  0  0  0  2  0  0  0  0  0  0
  184.4860  178.8400  145.0980 C   0  0  0  0  0  1  0  0  0  0  0  0
  185.4360  178.3240  146.1590 C   0  0  0  0  0  2  0  0  0  0  0  0
  1 15  1  0  0  0  0
  2  1  2  0  0  0  0
  3 10  1  0  0  0  0
  4  7  1  0  0  0  0
  5  9  1  0  0  0  0
  6  8  1  0  0  0  0
  6  2  1  0  0  0  0
  7  6  2  0  0  0  0
  9  3  2  0  0  0  0
  9  7  1  0  0  0  0
 10 13  1  0  0  0  0
 10  8  2  0  0  0  0
 12 13  1  0  0  0  0
 13 14  1  0  0  0  0
 13 11  1  0  0  0  0
 15 16  2  0  0  0  0
 16 19  1  0  0  0  0
 17 20  1  0  0  0  0
 18 19  2  0  0  0  0
 19 17  1  0  0  0  0
 20 21  1  0  0  0  0
 21 24  1  6  0  0  0
 21 22  1  0  0  0  0
 22 23  1  0  0  0  0
 24 26  1  0  0  0  0
 25 26  1  0  0  0  0
M  END
>  <MODEL>
6

>  <REMARK>
 VINA RESULT:      -6.9      2.669      3.853
  Name = 
  9 active torsions:
  status: ('A' for Active; 'I' for Inactive)
    1  A    between atoms: C_3  and  C_24
    2  A    between atoms: N_5  and  C_17
    3  A    between atoms: C_6  and  C_18
    4  A    between atoms: C_6  and  C_24
    5  A    between atoms: C_7  and  N_10
    6  A    between atoms: C_13  and  C_21
    7  A    between atoms: C_17  and  C_24
    8  A    between atoms: C_19  and  C_22
    9  A    between atoms: C_23  and  N_26
                            x       y       z     vdW  Elec       q    Type
                         _______ _______ _______ _____ _____    ______ ____

>  <TORSDO>
F 9

$$$$
=
 OpenBabel10232407533D

 26 26  0  0  1  0  0  0  0  0999 V2000
  190.3930  178.3910  144.0840 N   0  0  0  0  0  0  0  0  0  0  0  0
  189.9520  177.5470  144.9640 C   0  0  0  0  0  3  0  0  0  0  0  0
  186.4600  178.3340  147.2960 C   0  0  0  0  0  3  0  0  0  0  0  0
  190.0240  177.3930  147.8310 N   0  0  0  0  0  1  0  0  0  0  0  0
  187.6950  177.9070  149.2830 F   0  0  0  0  0  0  0  0  0  0  0  0
  188.7540  177.8230  145.7680 C   0  0  0  0  0  0  0  0  0  0  0  0
  188.8070  177.7400  147.1710 C   0  0  0  0  0  0  0  0  0  0  0  0
  187.5440  178.1640  145.1440 C   0  0  0  0  0  3  0  0  0  0  0  0
  187.6570  177.9940  147.9300 C   0  0  0  0  0  0  0  0  0  0  0  0
  186.3980  178.4370  145.9020 C   0  0  0  0  0  0  0  0  0  0  0  0
  184.8500  177.8430  144.2090 F   0  0  0  0  0  0  0  0  0  0  0  0
  184.0610  178.6930  146.1520 O   0  0  0  0  0  1  0  0  0  0  0  0
  185.0980  178.7530  145.2210 C   0  0  0  0  0  0  0  0  0  0  0  0
  185.1390  180.0230  144.6700 F   0  0  0  0  0  0  0  0  0  0  0  0
  191.5570  178.1530  143.2800 C   0  0  0  0  0  3  0  0  0  0  0  0
  191.6570  177.1980  142.3970 N   0  0  0  0  0  0  0  0  0  0  0  0
  189.8860  176.6500  140.7520 N   0  0  0  0  0  2  0  0  0  0  0  0
  190.1780  175.3760  142.6970 N   0  0  0  0  0  2  0  0  0  0  0  0
  190.6150  176.3250  141.9370 C   0  0  0  0  0  0  0  0  0  0  0  0
  190.2850  177.7260  139.8560 C   0  0  0  0  0  2  0  0  0  0  0  0
  190.3090  177.2390  138.4080 C   0  0  1  0  0  3  0  0  0  0  0  0
  191.3550  176.1520  138.1510 C   0  0  0  0  0  2  0  0  0  0  0  0
  192.6870  176.5920  138.5400 N   0  0  0  0  0  1  0  0  0  0  0  0
  188.9190  176.8690  137.8900 C   0  0  0  0  0  2  0  0  0  0  0  0
  186.7380  178.0160  138.1520 C   0  0  0  0  0  1  0  0  0  0  0  0
  188.0960  178.0810  137.4840 C   0  0  0  0  0  2  0  0  0  0  0  0
  1  2  2  0  0  0  0
  2  6  1  0  0  0  0
  3  9  1  0  0  0  0
  6  7  1  0  0  0  0
  7  4  1  0  0  0  0
  7  9  2  0  0  0  0
  8  6  2  0  0  0  0
  8 10  1  0  0  0  0
  9  5  1  0  0  0  0
 10  3  2  0  0  0  0
 11 13  1  0  0  0  0
 13 10  1  0  0  0  0
 13 12  1  0  0  0  0
 14 13  1  0  0  0  0
 15  1  1  0  0  0  0
 16 15  2  0  0  0  0
 17 19  1  0  0  0  0
 19 16  1  0  0  0  0
 19 18  2  0  0  0  0
 20 17  1  0  0  0  0
 21 24  1  1  0  0  0
 21 20  1  0  0  0  0
 22 21  1  0  0  0  0
 22 23  1  0  0  0  0
 26 24  1  0  0  0  0
 26 25  1  0  0  0  0
M  END
>  <MODEL>
7

>  <REMARK>
 VINA RESULT:      -6.9      2.636      6.181
  Name = 
  9 active torsions:
  status: ('A' for Active; 'I' for Inactive)
    1  A    between atoms: C_3  and  C_24
    2  A    between atoms: N_5  and  C_17
    3  A    between atoms: C_6  and  C_18
    4  A    between atoms: C_6  and  C_24
    5  A    between atoms: C_7  and  N_10
    6  A    between atoms: C_13  and  C_21
    7  A    between atoms: C_17  and  C_24
    8  A    between atoms: C_19  and  C_22
    9  A    between atoms: C_23  and  N_26
                            x       y       z     vdW  Elec       q    Type
                         _______ _______ _______ _____ _____    ______ ____

>  <TORSDO>
F 9

$$$$
=
 OpenBabel10232407533D

 26 26  0  0  1  0  0  0  0  0999 V2000
  184.8200  179.2150  140.6630 N   0  0  0  0  0  0  0  0  0  0  0  0
  184.2330  178.8160  141.7470 C   0  0  0  0  0  3  0  0  0  0  0  0
  186.4570  177.8320  145.2610 C   0  0  0  0  0  3  0  0  0  0  0  0
  183.0890  179.1430  144.3610 N   0  0  0  0  0  1  0  0  0  0  0  0
  184.6130  178.4920  146.6080 F   0  0  0  0  0  0  0  0  0  0  0  0
  184.9940  178.4720  142.9560 C   0  0  0  0  0  0  0  0  0  0  0  0
  184.4190  178.6420  144.2280 C   0  0  0  0  0  0  0  0  0  0  0  0
  186.3040  177.9790  142.8540 C   0  0  0  0  0  3  0  0  0  0  0  0
  185.1550  178.3230  145.3760 C   0  0  0  0  0  0  0  0  0  0  0  0
  187.0350  177.6410  144.0000 C   0  0  0  0  0  0  0  0  0  0  0  0
  189.2340  178.1160  143.2530 F   0  0  0  0  0  0  0  0  0  0  0  0
  188.9670  176.9140  145.1530 O   0  0  0  0  0  1  0  0  0  0  0  0
  188.4520  177.1610  143.8800 C   0  0  0  0  0  0  0  0  0  0  0  0
  188.5040  175.9940  143.1360 F   0  0  0  0  0  0  0  0  0  0  0  0
  184.1080  179.5620  139.4660 C   0  0  0  0  0  3  0  0  0  0  0  0
  183.9950  178.7820  138.4260 N   0  0  0  0  0  0  0  0  0  0  0  0
  185.6440  177.0740  137.7140 N   0  0  0  0  0  2  0  0  0  0  0  0
  183.5470  176.4620  138.5610 N   0  0  0  0  0  2  0  0  0  0  0  0
  184.3950  177.4070  138.3220 C   0  0  0  0  0  0  0  0  0  0  0  0
  186.6450  178.0770  137.3760 C   0  0  0  0  0  2  0  0  0  0  0  0
  188.0030  177.7030  137.9680 C   0  0  1  0  0  3  0  0  0  0  0  0
  189.1740  178.4370  137.3110 C   0  0  0  0  0  2  0  0  0  0  0  0
  188.9870  179.8790  137.3500 N   0  0  0  0  0  1  0  0  0  0  0  0
  188.0210  177.7900  139.4950 C   0  0  0  0  0  2  0  0  0  0  0  0
  190.0630  176.6700  140.3420 C   0  0  0  0  0  1  0  0  0  0  0  0
  189.4160  178.0100  140.0580 C   0  0  0  0  0  2  0  0  0  0  0  0
  1  2  2  0  0  0  0
  2  6  1  0  0  0  0
  3  9  1  0  0  0  0
  6  7  1  0  0  0  0
  7  4  1  0  0  0  0
  7  9  2  0  0  0  0
  8  6  2  0  0  0  0
  8 10  1  0  0  0  0
  9  5  1  0  0  0  0
 10  3  2  0  0  0  0
 11 13  1  0  0  0  0
 13 10  1  0  0  0  0
 13 12  1  0  0  0  0
 14 13  1  0  0  0  0
 15  1  1  0  0  0  0
 16 15  2  0  0  0  0
 17 19  1  0  0  0  0
 19 16  1  0  0  0  0
 19 18  2  0  0  0  0
 20 17  1  0  0  0  0
 20 21  1  0  0  0  0
 21 22  1  6  0  0  0
 21 24  1  0  0  0  0
 22 23  1  0  0  0  0
 24 26  1  0  0  0  0
 26 25  1  0  0  0  0
M  END
>  <MODEL>
8

>  <REMARK>
 VINA RESULT:      -6.8      4.454      7.152
  Name = 
  9 active torsions:
  status: ('A' for Active; 'I' for Inactive)
    1  A    between atoms: C_3  and  C_24
    2  A    between atoms: N_5  and  C_17
    3  A    between atoms: C_6  and  C_18
    4  A    between atoms: C_6  and  C_24
    5  A    between atoms: C_7  and  N_10
    6  A    between atoms: C_13  and  C_21
    7  A    between atoms: C_17  and  C_24
    8  A    between atoms: C_19  and  C_22
    9  A    between atoms: C_23  and  N_26
                            x       y       z     vdW  Elec       q    Type
                         _______ _______ _______ _____ _____    ______ ____

>  <TORSDO>
F 9

$$$$
=
 OpenBabel10232407533D

 26 26  0  0  1  0  0  0  0  0999 V2000
  189.2310  177.3350  142.4920 N   0  0  0  0  0  0  0  0  0  0  0  0
  189.0010  176.7800  143.6400 C   0  0  0  0  0  3  0  0  0  0  0  0
  186.2350  178.4480  146.4370 C   0  0  0  0  0  3  0  0  0  0  0  0
  189.6270  176.9100  146.4400 N   0  0  0  0  0  1  0  0  0  0  0  0
  187.7590  178.0010  148.2060 F   0  0  0  0  0  0  0  0  0  0  0  0
  188.0530  177.3590  144.6030 C   0  0  0  0  0  0  0  0  0  0  0  0
  188.3760  177.4110  145.9710 C   0  0  0  0  0  0  0  0  0  0  0  0
  186.8160  177.8570  144.1680 C   0  0  0  0  0  3  0  0  0  0  0  0
  187.4620  177.9550  146.8830 C   0  0  0  0  0  0  0  0  0  0  0  0
  185.9090  178.4180  145.0760 C   0  0  0  0  0  0  0  0  0  0  0  0
  184.0460  178.0360  143.6620 F   0  0  0  0  0  0  0  0  0  0  0  0
  183.6950  178.9760  145.6910 O   0  0  0  0  0  1  0  0  0  0  0  0
  184.5690  178.9040  144.6050 C   0  0  0  0  0  0  0  0  0  0  0  0
  184.6850  180.1580  144.0320 F   0  0  0  0  0  0  0  0  0  0  0  0
  190.1470  176.7960  141.5270 C   0  0  0  0  0  3  0  0  0  0  0  0
  189.9610  176.8340  140.2370 N   0  0  0  0  0  0  0  0  0  0  0  0
  188.4340  177.0160  138.2940 N   0  0  0  0  0  2  0  0  0  0  0  0
  188.6170  178.7460  139.8640 N   0  0  0  0  0  2  0  0  0  0  0  0
  188.9330  177.5400  139.5260 C   0  0  0  0  0  0  0  0  0  0  0  0
  188.7660  175.6810  137.8160 C   0  0  0  0  0  2  0  0  0  0  0  0
  189.4250  175.7510  136.4390 C   0  0  1  0  0  3  0  0  0  0  0  0
  188.5740  176.4750  135.3950 C   0  0  0  0  0  2  0  0  0  0  0  0
  189.2320  177.6810  134.9150 N   0  0  0  0  0  1  0  0  0  0  0  0
  190.8640  176.2650  136.5030 C   0  0  0  0  0  2  0  0  0  0  0  0
  192.8280  176.4230  138.0060 C   0  0  0  0  0  1  0  0  0  0  0  0
  191.7140  175.5190  137.5190 C   0  0  0  0  0  2  0  0  0  0  0  0
  1  2  2  0  0  0  0
  2  6  1  0  0  0  0
  3  9  1  0  0  0  0
  6  7  1  0  0  0  0
  7  4  1  0  0  0  0
  7  9  2  0  0  0  0
  8  6  2  0  0  0  0
  8 10  1  0  0  0  0
  9  5  1  0  0  0  0
 10  3  2  0  0  0  0
 11 13  1  0  0  0  0
 13 10  1  0  0  0  0
 13 12  1  0  0  0  0
 14 13  1  0  0  0  0
 15  1  1  0  0  0  0
 16 15  2  0  0  0  0
 17 19  1  0  0  0  0
 19 18  2  0  0  0  0
 19 16  1  0  0  0  0
 20 17  1  0  0  0  0
 21 22  1  6  0  0  0
 21 24  1  0  0  0  0
 21 20  1  0  0  0  0
 23 22  1  0  0  0  0
 24 26  1  0  0  0  0
 26 25  1  0  0  0  0
M  END
>  <MODEL>
9

>  <REMARK>
 VINA RESULT:      -6.6      3.457      7.020
  Name = 
  9 active torsions:
  status: ('A' for Active; 'I' for Inactive)
    1  A    between atoms: C_3  and  C_24
    2  A    between atoms: N_5  and  C_17
    3  A    between atoms: C_6  and  C_18
    4  A    between atoms: C_6  and  C_24
    5  A    between atoms: C_7  and  N_10
    6  A    between atoms: C_13  and  C_21
    7  A    between atoms: C_17  and  C_24
    8  A    between atoms: C_19  and  C_22
    9  A    between atoms: C_23  and  N_26
                            x       y       z     vdW  Elec       q    Type
                         _______ _______ _______ _____ _____    ______ ____

>  <TORSDO>
F 9

$$$$
