=
 OpenBabel10232410243D

 42 44  0  0  1  0  0  0  0  0999 V2000
  187.1560  178.0720  137.1840 C   0  0  1  0  0  3  0  0  0  0  0  0
  188.4430  178.4310  137.9440 C   0  0  1  0  0  3  0  0  0  0  0  0
  188.9810  179.6180  137.4430 O   0  0  0  0  0  1  0  0  0  0  0  0
  190.2250  177.7380  140.0520 O   0  0  0  0  0  0  0  0  0  0  0  0
  188.1670  178.5920  139.3650 N   0  0  0  0  0  2  0  0  0  0  0  0
  188.7750  178.4620  141.7500 N   0  0  0  0  0  2  0  0  0  0  0  0
  189.1120  178.2390  140.3750 C   0  0  0  0  0  0  0  0  0  0  0  0
  191.6150  178.5450  144.3130 C   0  0  0  0  0  2  0  0  0  0  0  0
  189.1740  175.7170  143.1090 C   0  0  0  0  0  1  0  0  0  0  0  0
  189.1010  177.0580  143.8210 C   0  0  1  0  0  3  0  0  0  0  0  0
  189.8570  176.9780  145.1540 C   0  0  1  0  0  3  0  0  0  0  0  0
  191.3570  177.1780  144.9360 C   0  0  0  0  0  2  0  0  0  0  0  0
  190.7540  178.7780  143.1050 C   0  0  0  0  0  3  0  0  0  0  0  0
  189.5790  178.1610  142.9030 C   0  0  0  0  0  0  0  0  0  0  0  0
  188.2220  177.3620  146.5950 C   0  0  0  0  0  1  0  0  0  0  0  0
  189.3650  177.9380  146.0430 O   0  0  0  0  0  0  0  0  0  0  0  0
  186.9580  177.4730  134.7150 C   0  0  0  0  0  1  0  0  0  0  0  0
  187.4120  177.0210  136.0940 C   0  0  1  0  0  3  0  0  0  0  0  0
  189.1620  176.5330  136.0510 S   0  0  0  0  0  0  0  0  0  0  0  0
  188.7470  174.7790  136.2680 C   0  0  1  0  0  3  0  0  0  0  0  0
  190.3890  173.1330  135.7540 O   0  0  0  0  0  0  0  0  0  0  0  0
  190.6890  174.2310  137.7440 O   0  0  0  0  0  1  0  0  0  0  0  0
  189.9810  173.9990  136.5700 C   0  0  0  0  0  0  0  0  0  0  0  0
  187.8290  174.6380  137.3110 O   0  0  0  0  0  0  0  0  0  0  0  0
  186.9140  173.2610  136.9290 P   0  0  0  0  0  0  0  0  0  0  0  0
  186.6760  173.1670  135.2570 O   0  0  0  0  0  0  0  0  0  0  0  0
  185.4140  173.3280  137.7090 O   0  0  0  0  0  1  0  0  0  0  0  0
  187.6570  172.0300  137.3930 O   0  0  0  0  0  1  0  0  0  0  0  0
  185.9740  177.6840  138.0900 C   0  0  2  0  0  3  0  0  0  0  0  0
  185.0270  176.7330  137.3820 C   0  0  0  0  0  1  0  0  0  0  0  0
  185.2500  178.8560  138.5730 N   0  0  0  0  0  2  0  0  0  0  0  0
  184.6280  178.8360  143.4580 N   0  0  0  0  0  0  0  0  0  0  0  0
  183.3430  178.8820  145.5360 N   0  0  0  0  0  1  0  0  0  0  0  0
  182.2680  178.8990  140.8450 C   0  0  0  0  0  3  0  0  0  0  0  0
  182.3610  178.8880  143.2990 N   0  0  0  0  0  0  0  0  0  0  0  0
  183.4470  178.8670  144.1170 C   0  0  0  0  0  0  0  0  0  0  0  0
  184.2830  178.8340  142.1640 C   0  0  0  0  0  0  0  0  0  0  0  0
  185.9670  178.8230  144.0270 C   0  0  0  0  0  1  0  0  0  0  0  0
  184.4770  178.8480  139.7750 C   0  0  0  0  0  0  0  0  0  0  0  0
  182.9210  178.8700  142.0730 C   0  0  0  0  0  0  0  0  0  0  0  0
  185.1050  178.8210  141.0400 C   0  0  0  0  0  3  0  0  0  0  0  0
  183.0670  178.8890  139.6850 C   0  0  0  0  0  3  0  0  0  0  0  0
  1 18  1  6  0  0  0
  1  2  1  0  0  0  0
  1 29  1  0  0  0  0
  2  3  1  6  0  0  0
  2  5  1  0  0  0  0
  4  7  2  0  0  0  0
  5  7  1  0  0  0  0
  6 14  1  0  0  0  0
  7  6  1  0  0  0  0
  8 12  1  0  0  0  0
 10  9  1  6  0  0  0
 10 11  1  0  0  0  0
 11 16  1  1  0  0  0
 12 11  1  0  0  0  0
 13  8  1  0  0  0  0
 14 13  2  0  0  0  0
 14 10  1  0  0  0  0
 16 15  1  0  0  0  0
 18 17  1  6  0  0  0
 19 18  1  0  0  0  0
 20 19  1  1  0  0  0
 20 23  1  0  0  0  0
 20 24  1  0  0  0  0
 21 23  2  0  0  0  0
 23 22  1  0  0  0  0
 25 24  1  0  0  0  0
 25 28  1  0  0  0  0
 25 27  1  0  0  0  0
 26 25  2  0  0  0  0
 29 30  1  6  0  0  0
 29 31  1  0  0  0  0
 31 39  1  0  0  0  0
 32 38  1  0  0  0  0
 32 36  1  0  0  0  0
 34 40  1  0  0  0  0
 35 36  2  0  0  0  0
 36 33  1  0  0  0  0
 37 32  1  0  0  0  0
 39 41  2  0  0  0  0
 40 37  2  0  0  0  0
 40 35  1  0  0  0  0
 41 37  1  0  0  0  0
 42 39  1  0  0  0  0
 42 34  2  0  0  0  0
M  END
>  <MODEL>
1

>  <REMARK>
 VINA RESULT:      -7.7      0.000      0.000
  Name = 
  13 active torsions:
  status: ('A' for Active; 'I' for Inactive)
    1  A    between atoms: N_3  and  C_19
    2  A    between atoms: N_3  and  C_29
    3  A    between atoms: P_7  and  O_42
    4  A    between atoms: C_12  and  N_15
    5  A    between atoms: C_12  and  C_36
    6  A    between atoms: C_16  and  S_27
    7  A    between atoms: C_16  and  C_41
    8  A    between atoms: C_16  and  O_42
    9  A    between atoms: N_22  and  C_33
   10  A    between atoms: C_25  and  O_30
   11  A    between atoms: S_27  and  C_38
   12  A    between atoms: C_29  and  C_36
   13  A    between atoms: C_36  and  C_38
                            x       y       z     vdW  Elec       q    Type
                         _______ _______ _______ _____ _____    ______ ____

>  <TORSDO>
F 13

$$$$
=
 OpenBabel10232410243D

 42 44  0  0  1  0  0  0  0  0999 V2000
  189.3180  175.5330  137.6790 C   0  0  1  0  0  3  0  0  0  0  0  0
  190.2680  176.4470  138.4700 C   0  0  1  0  0  3  0  0  0  0  0  0
  190.8650  177.3740  137.6130 O   0  0  0  0  0  1  0  0  0  0  0  0
  190.6500  176.0960  141.2670 O   0  0  0  0  0  0  0  0  0  0  0  0
  189.5400  177.1570  139.5130 N   0  0  0  0  0  2  0  0  0  0  0  0
  189.0550  177.7110  141.8650 N   0  0  0  0  0  2  0  0  0  0  0  0
  189.7910  176.9460  140.9020 C   0  0  0  0  0  0  0  0  0  0  0  0
  188.1140  177.2390  145.5440 C   0  0  0  0  0  2  0  0  0  0  0  0
  190.8330  179.4130  143.7300 C   0  0  0  0  0  1  0  0  0  0  0  0
  190.4930  177.9450  143.9250 C   0  0  1  0  0  3  0  0  0  0  0  0
  190.5880  177.5840  145.4140 C   0  0  1  0  0  3  0  0  0  0  0  0
  189.3050  177.9770  146.1460 C   0  0  0  0  0  2  0  0  0  0  0  0
  188.0690  177.3820  144.0490 C   0  0  0  0  0  3  0  0  0  0  0  0
  189.1520  177.6340  143.2960 C   0  0  0  0  0  0  0  0  0  0  0  0
  191.9420  176.1390  146.3990 C   0  0  0  0  0  1  0  0  0  0  0  0
  190.8300  176.2170  145.5610 O   0  0  0  0  0  0  0  0  0  0  0  0
  188.8110  176.0310  135.2310 C   0  0  0  0  0  1  0  0  0  0  0  0
  188.4610  176.3260  136.6810 C   0  0  1  0  0  3  0  0  0  0  0  0
  186.6890  176.0440  136.9690 S   0  0  0  0  0  0  0  0  0  0  0  0
  186.4530  177.7320  137.5950 C   0  0  1  0  0  3  0  0  0  0  0  0
  187.9910  179.4880  137.1310 O   0  0  0  0  0  1  0  0  0  0  0  0
  186.7690  178.7540  135.3360 O   0  0  0  0  0  0  0  0  0  0  0  0
  187.1120  178.7080  136.6820 C   0  0  0  0  0  0  0  0  0  0  0  0
  185.0870  178.0130  137.6850 O   0  0  0  0  0  0  0  0  0  0  0  0
  184.8680  178.7140  139.2150 P   0  0  0  0  0  0  0  0  0  0  0  0
  186.3220  178.6880  140.0790 O   0  0  0  0  0  1  0  0  0  0  0  0
  183.6850  177.8650  140.0760 O   0  0  0  0  0  1  0  0  0  0  0  0
  184.4200  180.1470  139.0430 O   0  0  0  0  0  0  0  0  0  0  0  0
  190.0070  174.3280  137.0130 C   0  0  2  0  0  3  0  0  0  0  0  0
  189.1100  173.1050  137.0270 C   0  0  0  0  0  1  0  0  0  0  0  0
  191.2920  174.0230  137.6340 N   0  0  0  0  0  2  0  0  0  0  0  0
  196.1870  174.5330  137.5110 N   0  0  0  0  0  0  0  0  0  0  0  0
  198.3530  174.9640  136.4620 N   0  0  0  0  0  1  0  0  0  0  0  0
  193.7760  174.9150  134.9720 C   0  0  0  0  0  3  0  0  0  0  0  0
  196.2060  175.0660  135.3010 N   0  0  0  0  0  0  0  0  0  0  0  0
  196.9340  174.8560  136.4300 C   0  0  0  0  0  0  0  0  0  0  0  0
  194.9290  174.5380  137.0550 C   0  0  0  0  0  0  0  0  0  0  0  0
  196.6500  174.2330  138.8570 C   0  0  0  0  0  1  0  0  0  0  0  0
  192.5430  174.3140  137.0080 C   0  0  0  0  0  0  0  0  0  0  0  0
  194.9450  174.8540  135.7270 C   0  0  0  0  0  0  0  0  0  0  0  0
  193.7490  174.2600  137.7410 C   0  0  0  0  0  3  0  0  0  0  0  0
  192.5640  174.6370  135.6320 C   0  0  0  0  0  3  0  0  0  0  0  0
  1 18  1  6  0  0  0
  1  2  1  0  0  0  0
  2  3  1  6  0  0  0
  2  5  1  0  0  0  0
  5  7  1  0  0  0  0
  6 14  1  0  0  0  0
  7  4  2  0  0  0  0
  7  6  1  0  0  0  0
  8 12  1  0  0  0  0
 10  9  1  1  0  0  0
 10 11  1  0  0  0  0
 11 16  1  6  0  0  0
 11 12  1  0  0  0  0
 13  8  1  0  0  0  0
 14 10  1  0  0  0  0
 14 13  2  0  0  0  0
 16 15  1  0  0  0  0
 18 17  1  6  0  0  0
 18 19  1  0  0  0  0
 19 20  1  0  0  0  0
 20 23  1  6  0  0  0
 20 24  1  0  0  0  0
 22 23  2  0  0  0  0
 23 21  1  0  0  0  0
 24 25  1  0  0  0  0
 25 27  1  0  0  0  0
 25 26  1  0  0  0  0
 28 25  2  0  0  0  0
 29 30  1  1  0  0  0
 29 31  1  0  0  0  0
 29  1  1  0  0  0  0
 32 38  1  0  0  0  0
 34 42  2  0  0  0  0
 34 40  1  0  0  0  0
 35 40  1  0  0  0  0
 35 36  2  0  0  0  0
 36 33  1  0  0  0  0
 36 32  1  0  0  0  0
 37 32  1  0  0  0  0
 37 41  1  0  0  0  0
 39 31  1  0  0  0  0
 39 41  2  0  0  0  0
 40 37  2  0  0  0  0
 42 39  1  0  0  0  0
M  END
>  <MODEL>
2

>  <REMARK>
 VINA RESULT:      -7.4      4.172      7.971
  Name = 
  13 active torsions:
  status: ('A' for Active; 'I' for Inactive)
    1  A    between atoms: N_3  and  C_19
    2  A    between atoms: N_3  and  C_29
    3  A    between atoms: P_7  and  O_42
    4  A    between atoms: C_12  and  N_15
    5  A    between atoms: C_12  and  C_36
    6  A    between atoms: C_16  and  S_27
    7  A    between atoms: C_16  and  C_41
    8  A    between atoms: C_16  and  O_42
    9  A    between atoms: N_22  and  C_33
   10  A    between atoms: C_25  and  O_30
   11  A    between atoms: S_27  and  C_38
   12  A    between atoms: C_29  and  C_36
   13  A    between atoms: C_36  and  C_38
                            x       y       z     vdW  Elec       q    Type
                         _______ _______ _______ _____ _____    ______ ____

>  <TORSDO>
F 13

$$$$
=
 OpenBabel10232410243D

 42 44  0  0  1  0  0  0  0  0999 V2000
  187.9460  177.7900  137.2870 C   0  0  1  0  0  3  0  0  0  0  0  0
  188.9380  178.4720  138.2420 C   0  0  1  0  0  3  0  0  0  0  0  0
  189.2590  179.7470  137.7710 O   0  0  0  0  0  1  0  0  0  0  0  0
  190.1810  177.5860  140.6440 O   0  0  0  0  0  0  0  0  0  0  0  0
  188.3640  178.5840  139.5760 N   0  0  0  0  0  2  0  0  0  0  0  0
  188.4280  178.3120  142.0260 N   0  0  0  0  0  2  0  0  0  0  0  0
  189.0480  178.1330  140.7450 C   0  0  0  0  0  0  0  0  0  0  0  0
  188.6140  176.9600  145.6000 C   0  0  0  0  0  2  0  0  0  0  0  0
  190.7040  179.6400  143.6350 C   0  0  0  0  0  1  0  0  0  0  0  0
  190.4150  178.1490  143.5700 C   0  0  1  0  0  3  0  0  0  0  0  0
  190.9430  177.4630  144.8380 C   0  0  1  0  0  3  0  0  0  0  0  0
  189.9410  177.6060  145.9850 C   0  0  0  0  0  2  0  0  0  0  0  0
  188.1300  177.4380  144.2610 C   0  0  0  0  0  3  0  0  0  0  0  0
  188.9440  177.9150  143.3060 C   0  0  0  0  0  0  0  0  0  0  0  0
  191.9720  175.6860  145.6610 C   0  0  0  0  0  1  0  0  0  0  0  0
  191.1980  176.1140  144.5830 O   0  0  0  0  0  0  0  0  0  0  0  0
  189.2020  176.9220  135.2460 C   0  0  0  0  0  1  0  0  0  0  0  0
  188.5710  176.5760  136.5860 C   0  0  1  0  0  3  0  0  0  0  0  0
  189.7880  175.7540  137.6580 S   0  0  0  0  0  0  0  0  0  0  0  0
  189.7930  174.2620  136.6230 C   0  0  1  0  0  3  0  0  0  0  0  0
  191.4700  172.8020  135.7750 O   0  0  0  0  0  0  0  0  0  0  0  0
  192.1570  174.9490  136.1910 O   0  0  0  0  0  1  0  0  0  0  0  0
  191.1820  173.9590  136.1760 C   0  0  0  0  0  0  0  0  0  0  0  0
  189.2810  173.1840  137.3500 O   0  0  0  0  0  0  0  0  0  0  0  0
  187.8650  172.7210  136.5400 P   0  0  0  0  0  0  0  0  0  0  0  0
  187.9530  171.0890  136.1020 O   0  0  0  0  0  1  0  0  0  0  0  0
  187.6550  173.6670  135.1520 O   0  0  0  0  0  0  0  0  0  0  0  0
  186.6810  172.9230  137.4570 O   0  0  0  0  0  1  0  0  0  0  0  0
  186.5860  177.4480  137.9230 C   0  0  2  0  0  3  0  0  0  0  0  0
  185.8610  176.3780  137.1300 C   0  0  0  0  0  1  0  0  0  0  0  0
  185.7430  178.6290  138.0750 N   0  0  0  0  0  2  0  0  0  0  0  0
  183.5990  178.6870  142.5070 N   0  0  0  0  0  0  0  0  0  0  0  0
  181.7240  178.8260  144.0690 N   0  0  0  0  0  1  0  0  0  0  0  0
  182.2000  178.8630  139.2800 C   0  0  0  0  0  3  0  0  0  0  0  0
  181.5080  178.8680  141.6360 N   0  0  0  0  0  0  0  0  0  0  0  0
  182.2740  178.7920  142.7570 C   0  0  0  0  0  0  0  0  0  0  0  0
  183.6840  178.6940  141.1710 C   0  0  0  0  0  0  0  0  0  0  0  0
  184.6840  178.6020  143.4720 C   0  0  0  0  0  1  0  0  0  0  0  0
  184.6290  178.6760  138.9680 C   0  0  0  0  0  0  0  0  0  0  0  0
  182.4260  178.8070  140.6520 C   0  0  0  0  0  0  0  0  0  0  0  0
  184.8180  178.6240  140.3670 C   0  0  0  0  0  3  0  0  0  0  0  0
  183.3250  178.7980  138.4350 C   0  0  0  0  0  3  0  0  0  0  0  0
  1 18  1  1  0  0  0
  1 29  1  0  0  0  0
  1  2  1  0  0  0  0
  2  3  1  6  0  0  0
  2  5  1  0  0  0  0
  4  7  2  0  0  0  0
  5  7  1  0  0  0  0
  6 14  1  0  0  0  0
  7  6  1  0  0  0  0
  8 12  1  0  0  0  0
 10  9  1  1  0  0  0
 10 11  1  0  0  0  0
 11 16  1  6  0  0  0
 11 12  1  0  0  0  0
 13  8  1  0  0  0  0
 14 10  1  0  0  0  0
 14 13  2  0  0  0  0
 16 15  1  0  0  0  0
 18 17  1  6  0  0  0
 18 19  1  0  0  0  0
 20 23  1  1  0  0  0
 20 24  1  0  0  0  0
 20 19  1  0  0  0  0
 21 23  2  0  0  0  0
 23 22  1  0  0  0  0
 25 24  1  0  0  0  0
 25 28  1  0  0  0  0
 26 25  1  0  0  0  0
 27 25  2  0  0  0  0
 29 30  1  6  0  0  0
 29 31  1  0  0  0  0
 31 39  1  0  0  0  0
 32 36  1  0  0  0  0
 32 38  1  0  0  0  0
 34 40  1  0  0  0  0
 35 36  2  0  0  0  0
 36 33  1  0  0  0  0
 37 32  1  0  0  0  0
 39 41  2  0  0  0  0
 40 37  2  0  0  0  0
 40 35  1  0  0  0  0
 41 37  1  0  0  0  0
 42 39  1  0  0  0  0
 42 34  2  0  0  0  0
M  END
>  <MODEL>
3

>  <REMARK>
 VINA RESULT:      -7.0      1.275      1.894
  Name = 
  13 active torsions:
  status: ('A' for Active; 'I' for Inactive)
    1  A    between atoms: N_3  and  C_19
    2  A    between atoms: N_3  and  C_29
    3  A    between atoms: P_7  and  O_42
    4  A    between atoms: C_12  and  N_15
    5  A    between atoms: C_12  and  C_36
    6  A    between atoms: C_16  and  S_27
    7  A    between atoms: C_16  and  C_41
    8  A    between atoms: C_16  and  O_42
    9  A    between atoms: N_22  and  C_33
   10  A    between atoms: C_25  and  O_30
   11  A    between atoms: S_27  and  C_38
   12  A    between atoms: C_29  and  C_36
   13  A    between atoms: C_36  and  C_38
                            x       y       z     vdW  Elec       q    Type
                         _______ _______ _______ _____ _____    ______ ____

>  <TORSDO>
F 13

$$$$
=
 OpenBabel10232410243D

 42 44  0  0  1  0  0  0  0  0999 V2000
  182.5730  179.0060  139.6740 C   0  0  1  0  0  3  0  0  0  0  0  0
  183.6810  179.6970  138.8630 C   0  0  1  0  0  3  0  0  0  0  0  0
  183.4560  181.0750  138.8210 O   0  0  0  0  0  1  0  0  0  0  0  0
  185.7670  178.1760  137.6670 O   0  0  0  0  0  0  0  0  0  0  0  0
  184.9840  179.4420  139.4620 N   0  0  0  0  0  2  0  0  0  0  0  0
  187.2650  178.5070  139.4440 N   0  0  0  0  0  2  0  0  0  0  0  0
  185.9960  178.6820  138.8000 C   0  0  0  0  0  0  0  0  0  0  0  0
  190.4470  176.3840  139.3480 C   0  0  0  0  0  2  0  0  0  0  0  0
  188.9770  179.1200  136.9480 C   0  0  0  0  0  1  0  0  0  0  0  0
  188.6120  177.7350  137.4550 C   0  0  1  0  0  3  0  0  0  0  0  0
  189.6670  176.7200  136.9960 C   0  0  1  0  0  3  0  0  0  0  0  0
  190.8780  176.7410  137.9300 C   0  0  0  0  0  2  0  0  0  0  0  0
  189.2750  177.2090  139.7980 C   0  0  0  0  0  3  0  0  0  0  0  0
  188.3960  177.7690  138.9520 C   0  0  0  0  0  0  0  0  0  0  0  0
  189.3910  174.9740  135.6660 C   0  0  0  0  0  1  0  0  0  0  0  0
  189.1130  175.4380  136.9510 O   0  0  0  0  0  0  0  0  0  0  0  0
  180.1420  178.9320  138.9130 C   0  0  0  0  0  1  0  0  0  0  0  0
  181.5330  178.3360  138.7640 C   0  0  1  0  0  3  0  0  0  0  0  0
  182.0550  178.3880  137.0240 S   0  0  0  0  0  0  0  0  0  0  0  0
  182.3580  176.5980  136.9920 C   0  0  1  0  0  3  0  0  0  0  0  0
  180.9440  174.8650  137.8080 O   0  0  0  0  0  1  0  0  0  0  0  0
  179.9820  176.2790  136.2820 O   0  0  0  0  0  0  0  0  0  0  0  0
  181.0630  175.8620  137.0510 C   0  0  0  0  0  0  0  0  0  0  0  0
  183.0440  176.2570  135.8230 O   0  0  0  0  0  0  0  0  0  0  0  0
  184.1880  175.0950  136.2900 P   0  0  0  0  0  0  0  0  0  0  0  0
  185.6780  175.4200  135.5580 O   0  0  0  0  0  0  0  0  0  0  0  0
  183.6630  173.5510  135.8400 O   0  0  0  0  0  1  0  0  0  0  0  0
  184.3550  175.1400  137.7920 O   0  0  0  0  0  1  0  0  0  0  0  0
  183.0900  178.0440  140.7600 C   0  0  2  0  0  3  0  0  0  0  0  0
  182.5650  176.6370  140.5440 C   0  0  0  0  0  1  0  0  0  0  0  0
  182.7580  178.5100  142.1020 N   0  0  0  0  0  2  0  0  0  0  0  0
  187.1730  177.7620  144.1490 N   0  0  0  0  0  0  0  0  0  0  0  0
  188.8080  177.7440  145.9660 N   0  0  0  0  0  1  0  0  0  0  0  0
  184.1450  178.8660  145.5670 C   0  0  0  0  0  3  0  0  0  0  0  0
  186.4660  178.3910  146.2150 N   0  0  0  0  0  0  0  0  0  0  0  0
  187.5010  177.9600  145.4470 C   0  0  0  0  0  0  0  0  0  0  0  0
  185.8740  178.0770  144.0860 C   0  0  0  0  0  0  0  0  0  0  0  0
  188.0410  177.3230  143.0670 C   0  0  0  0  0  1  0  0  0  0  0  0
  183.6880  178.4730  143.1870 C   0  0  0  0  0  0  0  0  0  0  0  0
  185.4540  178.4580  145.3280 C   0  0  0  0  0  0  0  0  0  0  0  0
  185.0250  178.0680  142.9820 C   0  0  0  0  0  3  0  0  0  0  0  0
  183.2580  178.8720  144.4740 C   0  0  0  0  0  3  0  0  0  0  0  0
  1 18  1  6  0  0  0
  1 29  1  0  0  0  0
  2  3  1  1  0  0  0
  2  5  1  0  0  0  0
  2  1  1  0  0  0  0
  4  7  2  0  0  0  0
  7  6  1  0  0  0  0
  7  5  1  0  0  0  0
  8 13  1  0  0  0  0
 10  9  1  1  0  0  0
 10 14  1  0  0  0  0
 11 16  1  1  0  0  0
 11 10  1  0  0  0  0
 11 12  1  0  0  0  0
 12  8  1  0  0  0  0
 14  6  1  0  0  0  0
 14 13  2  0  0  0  0
 15 16  1  0  0  0  0
 18 17  1  6  0  0  0
 19 18  1  0  0  0  0
 20 24  1  6  0  0  0
 20 19  1  0  0  0  0
 20 23  1  0  0  0  0
 22 23  2  0  0  0  0
 23 21  1  0  0  0  0
 24 25  1  0  0  0  0
 25 28  1  0  0  0  0
 26 25  2  0  0  0  0
 27 25  1  0  0  0  0
 29 30  1  6  0  0  0
 29 31  1  0  0  0  0
 31 39  1  0  0  0  0
 32 36  1  0  0  0  0
 36 33  1  0  0  0  0
 36 35  2  0  0  0  0
 37 32  1  0  0  0  0
 37 40  2  0  0  0  0
 38 32  1  0  0  0  0
 39 42  1  0  0  0  0
 40 34  1  0  0  0  0
 40 35  1  0  0  0  0
 41 39  2  0  0  0  0
 41 37  1  0  0  0  0
 42 34  2  0  0  0  0
M  END
>  <MODEL>
4

>  <REMARK>
 VINA RESULT:      -6.9      2.864      5.863
  Name = 
  13 active torsions:
  status: ('A' for Active; 'I' for Inactive)
    1  A    between atoms: N_3  and  C_19
    2  A    between atoms: N_3  and  C_29
    3  A    between atoms: P_7  and  O_42
    4  A    between atoms: C_12  and  N_15
    5  A    between atoms: C_12  and  C_36
    6  A    between atoms: C_16  and  S_27
    7  A    between atoms: C_16  and  C_41
    8  A    between atoms: C_16  and  O_42
    9  A    between atoms: N_22  and  C_33
   10  A    between atoms: C_25  and  O_30
   11  A    between atoms: S_27  and  C_38
   12  A    between atoms: C_29  and  C_36
   13  A    between atoms: C_36  and  C_38
                            x       y       z     vdW  Elec       q    Type
                         _______ _______ _______ _____ _____    ______ ____

>  <TORSDO>
F 13

$$$$
=
 OpenBabel10232410243D

 42 44  0  0  1  0  0  0  0  0999 V2000
  187.1410  176.9970  137.3190 C   0  0  1  0  0  3  0  0  0  0  0  0
  187.9280  178.2190  137.8180 C   0  0  1  0  0  3  0  0  0  0  0  0
  187.5450  179.3590  137.1100 O   0  0  0  0  0  1  0  0  0  0  0  0
  189.7810  177.6520  139.9020 O   0  0  0  0  0  0  0  0  0  0  0  0
  187.6870  178.4340  139.2390 N   0  0  0  0  0  2  0  0  0  0  0  0
  188.3630  178.4160  141.6090 N   0  0  0  0  0  2  0  0  0  0  0  0
  188.6670  178.1430  140.2350 C   0  0  0  0  0  0  0  0  0  0  0  0
  191.2630  178.6740  144.0920 C   0  0  0  0  0  2  0  0  0  0  0  0
  188.8750  175.7360  143.0560 C   0  0  0  0  0  1  0  0  0  0  0  0
  188.7810  177.0990  143.7200 C   0  0  1  0  0  3  0  0  0  0  0  0
  189.5730  177.0900  145.0350 C   0  0  1  0  0  3  0  0  0  0  0  0
  191.0610  177.3240  144.7700 C   0  0  0  0  0  2  0  0  0  0  0  0
  190.3660  178.8380  142.8980 C   0  0  0  0  0  3  0  0  0  0  0  0
  189.2040  178.1810  142.7500 C   0  0  0  0  0  0  0  0  0  0  0  0
  188.8190  177.3920  147.0930 C   0  0  0  0  0  1  0  0  0  0  0  0
  189.0760  178.0680  145.9010 O   0  0  0  0  0  0  0  0  0  0  0  0
  185.7000  177.4610  135.2690 C   0  0  0  0  0  1  0  0  0  0  0  0
  185.7550  177.3900  136.7860 C   0  0  1  0  0  3  0  0  0  0  0  0
  184.4700  176.2640  137.4090 S   0  0  0  0  0  0  0  0  0  0  0  0
  183.6050  177.6150  138.2600 C   0  0  1  0  0  3  0  0  0  0  0  0
  182.2920  177.9940  136.3110 O   0  0  0  0  0  0  0  0  0  0  0  0
  181.1510  178.0880  138.2970 O   0  0  0  0  0  1  0  0  0  0  0  0
  182.3200  177.9120  137.5660 C   0  0  0  0  0  0  0  0  0  0  0  0
  183.3560  177.2520  139.5860 O   0  0  0  0  0  0  0  0  0  0  0  0
  183.8150  178.5930  140.5180 P   0  0  0  0  0  0  0  0  0  0  0  0
  184.5480  179.7590  139.5370 O   0  0  0  0  0  0  0  0  0  0  0  0
  184.8970  178.1140  141.7280 O   0  0  0  0  0  1  0  0  0  0  0  0
  182.5870  179.1910  141.1640 O   0  0  0  0  0  1  0  0  0  0  0  0
  187.9100  176.1130  136.3200 C   0  0  2  0  0  3  0  0  0  0  0  0
  188.1720  174.7340  136.8950 C   0  0  0  0  0  1  0  0  0  0  0  0
  189.1610  176.7330  135.8950 N   0  0  0  0  0  2  0  0  0  0  0  0
  193.3860  175.9940  138.3140 N   0  0  0  0  0  0  0  0  0  0  0  0
  195.5470  174.9370  138.7430 N   0  0  0  0  0  1  0  0  0  0  0  0
  192.1250  174.4950  135.3870 C   0  0  0  0  0  3  0  0  0  0  0  0
  194.0940  174.4050  136.8530 N   0  0  0  0  0  0  0  0  0  0  0  0
  194.3570  175.1140  137.9820 C   0  0  0  0  0  0  0  0  0  0  0  0
  192.4630  175.8430  137.3560 C   0  0  0  0  0  0  0  0  0  0  0  0
  193.3460  176.8890  139.4610 C   0  0  0  0  0  1  0  0  0  0  0  0
  190.4370  176.1260  136.1070 C   0  0  0  0  0  0  0  0  0  0  0  0
  192.8910  174.8850  136.4820 C   0  0  0  0  0  0  0  0  0  0  0  0
  191.2410  176.4940  137.2080 C   0  0  0  0  0  3  0  0  0  0  0  0
  190.8810  175.1290  135.2070 C   0  0  0  0  0  3  0  0  0  0  0  0
  1 29  1  6  0  0  0
  1  2  1  0  0  0  0
  2  3  1  6  0  0  0
  2  5  1  0  0  0  0
  4  7  2  0  0  0  0
  5  7  1  0  0  0  0
  6 14  1  0  0  0  0
  7  6  1  0  0  0  0
  8 12  1  0  0  0  0
 10  9  1  6  0  0  0
 10 11  1  0  0  0  0
 11 16  1  1  0  0  0
 12 11  1  0  0  0  0
 13  8  1  0  0  0  0
 14 13  2  0  0  0  0
 14 10  1  0  0  0  0
 16 15  1  0  0  0  0
 18 17  1  6  0  0  0
 18  1  1  0  0  0  0
 18 19  1  0  0  0  0
 20 19  1  6  0  0  0
 20 24  1  0  0  0  0
 21 23  2  0  0  0  0
 23 20  1  0  0  0  0
 23 22  1  0  0  0  0
 24 25  1  0  0  0  0
 25 28  1  0  0  0  0
 25 27  1  0  0  0  0
 26 25  2  0  0  0  0
 29 30  1  1  0  0  0
 31 39  1  0  0  0  0
 31 29  1  0  0  0  0
 32 38  1  0  0  0  0
 34 40  1  0  0  0  0
 35 36  2  0  0  0  0
 36 32  1  0  0  0  0
 36 33  1  0  0  0  0
 37 32  1  0  0  0  0
 39 41  2  0  0  0  0
 40 35  1  0  0  0  0
 40 37  2  0  0  0  0
 41 37  1  0  0  0  0
 42 34  2  0  0  0  0
 42 39  1  0  0  0  0
M  END
>  <MODEL>
5

>  <REMARK>
 VINA RESULT:      -6.9      3.673      6.981
  Name = 
  13 active torsions:
  status: ('A' for Active; 'I' for Inactive)
    1  A    between atoms: N_3  and  C_19
    2  A    between atoms: N_3  and  C_29
    3  A    between atoms: P_7  and  O_42
    4  A    between atoms: C_12  and  N_15
    5  A    between atoms: C_12  and  C_36
    6  A    between atoms: C_16  and  S_27
    7  A    between atoms: C_16  and  C_41
    8  A    between atoms: C_16  and  O_42
    9  A    between atoms: N_22  and  C_33
   10  A    between atoms: C_25  and  O_30
   11  A    between atoms: S_27  and  C_38
   12  A    between atoms: C_29  and  C_36
   13  A    between atoms: C_36  and  C_38
                            x       y       z     vdW  Elec       q    Type
                         _______ _______ _______ _____ _____    ______ ____

>  <TORSDO>
F 13

$$$$
=
 OpenBabel10232410243D

 42 44  0  0  1  0  0  0  0  0999 V2000
  188.0150  176.9360  138.0210 C   0  0  1  0  0  3  0  0  0  0  0  0
  188.8540  177.9940  138.7540 C   0  0  1  0  0  3  0  0  0  0  0  0
  188.8170  179.2030  138.0570 O   0  0  0  0  0  1  0  0  0  0  0  0
  190.1900  177.2390  141.1500 O   0  0  0  0  0  0  0  0  0  0  0  0
  188.3430  178.2020  140.1030 N   0  0  0  0  0  2  0  0  0  0  0  0
  188.5150  178.0860  142.5590 N   0  0  0  0  0  2  0  0  0  0  0  0
  189.0730  177.8140  141.2670 C   0  0  0  0  0  0  0  0  0  0  0  0
  188.8460  176.9370  146.1940 C   0  0  0  0  0  2  0  0  0  0  0  0
  190.8520  179.5010  143.9990 C   0  0  0  0  0  1  0  0  0  0  0  0
  190.5630  178.0090  144.0300 C   0  0  1  0  0  3  0  0  0  0  0  0
  191.1410  177.3960  145.3120 C   0  0  1  0  0  3  0  0  0  0  0  0
  190.1860  177.6030  146.4880 C   0  0  0  0  0  2  0  0  0  0  0  0
  188.3080  177.3400  144.8500 C   0  0  0  0  0  3  0  0  0  0  0  0
  189.0830  177.7620  143.8380 C   0  0  0  0  0  0  0  0  0  0  0  0
  192.0190  175.6190  146.2960 C   0  0  0  0  0  1  0  0  0  0  0  0
  191.3880  176.0340  145.1240 O   0  0  0  0  0  0  0  0  0  0  0  0
  187.6040  177.7980  135.6580 C   0  0  0  0  0  1  0  0  0  0  0  0
  187.0180  177.5740  137.0430 C   0  0  1  0  0  3  0  0  0  0  0  0
  185.4920  176.5930  136.9280 S   0  0  0  0  0  0  0  0  0  0  0  0
  184.5670  177.7910  137.9310 C   0  0  1  0  0  3  0  0  0  0  0  0
  182.6030  176.4700  138.1870 O   0  0  0  0  0  1  0  0  0  0  0  0
  182.2860  178.5220  137.2160 O   0  0  0  0  0  0  0  0  0  0  0  0
  183.1030  177.5520  137.7850 C   0  0  0  0  0  0  0  0  0  0  0  0
  184.9370  177.6660  139.2730 O   0  0  0  0  0  0  0  0  0  0  0  0
  184.5040  179.1350  140.0030 P   0  0  0  0  0  0  0  0  0  0  0  0
  182.9950  178.9890  140.7530 O   0  0  0  0  0  1  0  0  0  0  0  0
  184.4400  180.3620  138.8390 O   0  0  0  0  0  0  0  0  0  0  0  0
  185.5410  179.4950  141.0420 O   0  0  0  0  0  1  0  0  0  0  0  0
  188.8430  175.8240  137.3510 C   0  0  2  0  0  3  0  0  0  0  0  0
  187.9710  174.6460  136.9610 C   0  0  0  0  0  1  0  0  0  0  0  0
  189.9470  175.3810  138.1970 N   0  0  0  0  0  2  0  0  0  0  0  0
  193.9110  173.4600  135.9960 N   0  0  0  0  0  0  0  0  0  0  0  0
  196.2140  173.4480  135.1800 N   0  0  0  0  0  1  0  0  0  0  0  0
  193.4450  176.5760  137.5710 C   0  0  0  0  0  3  0  0  0  0  0  0
  195.1850  175.2980  136.3990 N   0  0  0  0  0  0  0  0  0  0  0  0
  195.1160  174.0560  135.8500 C   0  0  0  0  0  0  0  0  0  0  0  0
  193.1790  174.3570  136.6690 C   0  0  0  0  0  0  0  0  0  0  0  0
  193.5000  172.1490  135.5170 C   0  0  0  0  0  1  0  0  0  0  0  0
  191.3070  175.3830  137.7600 C   0  0  0  0  0  0  0  0  0  0  0  0
  193.9470  175.4610  136.9050 C   0  0  0  0  0  0  0  0  0  0  0  0
  191.8510  174.2710  137.0790 C   0  0  0  0  0  3  0  0  0  0  0  0
  192.1040  176.5260  137.9980 C   0  0  0  0  0  3  0  0  0  0  0  0
  1 18  1  6  0  0  0
  1  2  1  0  0  0  0
  2  3  1  6  0  0  0
  2  5  1  0  0  0  0
  4  7  2  0  0  0  0
  5  7  1  0  0  0  0
  6 14  1  0  0  0  0
  7  6  1  0  0  0  0
  8 12  1  0  0  0  0
 10  9  1  1  0  0  0
 10 11  1  0  0  0  0
 11 16  1  6  0  0  0
 11 12  1  0  0  0  0
 13  8  1  0  0  0  0
 14 10  1  0  0  0  0
 14 13  2  0  0  0  0
 16 15  1  0  0  0  0
 18 17  1  6  0  0  0
 19 18  1  0  0  0  0
 20 19  1  6  0  0  0
 20 24  1  0  0  0  0
 22 23  2  0  0  0  0
 23 20  1  0  0  0  0
 23 21  1  0  0  0  0
 24 25  1  0  0  0  0
 25 26  1  0  0  0  0
 25 28  1  0  0  0  0
 27 25  2  0  0  0  0
 29 30  1  1  0  0  0
 29  1  1  0  0  0  0
 29 31  1  0  0  0  0
 32 37  1  0  0  0  0
 33 36  1  0  0  0  0
 34 42  1  0  0  0  0
 35 40  1  0  0  0  0
 36 32  1  0  0  0  0
 36 35  2  0  0  0  0
 37 40  1  0  0  0  0
 37 41  2  0  0  0  0
 38 32  1  0  0  0  0
 39 42  2  0  0  0  0
 39 31  1  0  0  0  0
 40 34  2  0  0  0  0
 41 39  1  0  0  0  0
M  END
>  <MODEL>
6

>  <REMARK>
 VINA RESULT:      -6.6      3.942      7.654
  Name = 
  13 active torsions:
  status: ('A' for Active; 'I' for Inactive)
    1  A    between atoms: N_3  and  C_19
    2  A    between atoms: N_3  and  C_29
    3  A    between atoms: P_7  and  O_42
    4  A    between atoms: C_12  and  N_15
    5  A    between atoms: C_12  and  C_36
    6  A    between atoms: C_16  and  S_27
    7  A    between atoms: C_16  and  C_41
    8  A    between atoms: C_16  and  O_42
    9  A    between atoms: N_22  and  C_33
   10  A    between atoms: C_25  and  O_30
   11  A    between atoms: S_27  and  C_38
   12  A    between atoms: C_29  and  C_36
   13  A    between atoms: C_36  and  C_38
                            x       y       z     vdW  Elec       q    Type
                         _______ _______ _______ _____ _____    ______ ____

>  <TORSDO>
F 13

$$$$
=
 OpenBabel10232410243D

 42 44  0  0  1  0  0  0  0  0999 V2000
  187.9750  177.9030  137.1210 C   0  0  1  0  0  3  0  0  0  0  0  0
  189.0080  178.6470  137.9820 C   0  0  1  0  0  3  0  0  0  0  0  0
  189.2490  179.9160  137.4530 O   0  0  0  0  0  1  0  0  0  0  0  0
  190.3910  177.7520  140.3030 O   0  0  0  0  0  0  0  0  0  0  0  0
  188.5270  178.7810  139.3510 N   0  0  0  0  0  2  0  0  0  0  0  0
  188.7500  178.5260  141.7920 N   0  0  0  0  0  2  0  0  0  0  0  0
  189.2790  178.3240  140.4750 C   0  0  0  0  0  0  0  0  0  0  0  0
  191.2240  178.2090  144.6940 C   0  0  0  0  0  2  0  0  0  0  0  0
  188.5130  175.7910  143.2060 C   0  0  0  0  0  1  0  0  0  0  0  0
  188.5770  177.1440  143.8960 C   0  0  1  0  0  3  0  0  0  0  0  0
  189.1380  176.9770  145.3140 C   0  0  1  0  0  3  0  0  0  0  0  0
  190.6660  176.9200  145.2870 C   0  0  0  0  0  2  0  0  0  0  0  0
  190.5710  178.5480  143.3840 C   0  0  0  0  0  3  0  0  0  0  0  0
  189.3430  178.1280  143.0390 C   0  0  0  0  0  0  0  0  0  0  0  0
  189.0670  177.6490  147.4210 C   0  0  0  0  0  1  0  0  0  0  0  0
  188.7070  178.0270  146.1280 O   0  0  0  0  0  0  0  0  0  0  0  0
  189.3830  177.0380  135.1800 C   0  0  0  0  0  1  0  0  0  0  0  0
  188.5880  176.6780  136.4250 C   0  0  1  0  0  3  0  0  0  0  0  0
  189.6200  175.7200  137.5740 S   0  0  0  0  0  0  0  0  0  0  0  0
  189.4990  174.2290  136.5440 C   0  0  1  0  0  3  0  0  0  0  0  0
  187.5740  174.0930  135.1510 O   0  0  0  0  0  0  0  0  0  0  0  0
  187.2770  173.3760  137.3080 O   0  0  0  0  0  1  0  0  0  0  0  0
  188.0670  173.9010  136.2920 C   0  0  0  0  0  0  0  0  0  0  0  0
  190.1590  174.4400  135.3310 O   0  0  0  0  0  0  0  0  0  0  0  0
  191.5580  173.4840  135.4020 P   0  0  0  0  0  0  0  0  0  0  0  0
  192.7320  174.0940  134.3480 O   0  0  0  0  0  0  0  0  0  0  0  0
  191.1910  171.8880  134.9750 O   0  0  0  0  0  1  0  0  0  0  0  0
  192.1000  173.5050  136.8120 O   0  0  0  0  0  1  0  0  0  0  0  0
  186.6710  177.5500  137.8590 C   0  0  2  0  0  3  0  0  0  0  0  0
  185.8460  176.5490  137.0720 C   0  0  0  0  0  1  0  0  0  0  0  0
  185.8780  178.7370  138.1620 N   0  0  0  0  0  2  0  0  0  0  0  0
  184.0790  178.7110  142.7450 N   0  0  0  0  0  0  0  0  0  0  0  0
  182.3260  178.7820  144.4470 N   0  0  0  0  0  1  0  0  0  0  0  0
  182.4330  178.8480  139.6350 C   0  0  0  0  0  3  0  0  0  0  0  0
  181.9230  178.8230  142.0380 N   0  0  0  0  0  0  0  0  0  0  0  0
  182.7740  178.7700  143.0960 C   0  0  0  0  0  0  0  0  0  0  0  0
  184.0620  178.7240  141.4070 C   0  0  0  0  0  0  0  0  0  0  0  0
  185.2380  178.6610  143.6240 C   0  0  0  0  0  1  0  0  0  0  0  0
  184.8350  178.7440  139.1380 C   0  0  0  0  0  0  0  0  0  0  0  0
  182.7650  178.7960  140.9860 C   0  0  0  0  0  0  0  0  0  0  0  0
  185.1330  178.6950  140.5180 C   0  0  0  0  0  3  0  0  0  0  0  0
  183.4910  178.8230  138.7070 C   0  0  0  0  0  3  0  0  0  0  0  0
  1 18  1  1  0  0  0
  1 29  1  0  0  0  0
  1  2  1  0  0  0  0
  2  3  1  6  0  0  0
  2  5  1  0  0  0  0
  4  7  2  0  0  0  0
  5  7  1  0  0  0  0
  6 14  1  0  0  0  0
  7  6  1  0  0  0  0
  8 12  1  0  0  0  0
 10  9  1  6  0  0  0
 10 11  1  0  0  0  0
 11 16  1  1  0  0  0
 12 11  1  0  0  0  0
 13  8  1  0  0  0  0
 14 13  2  0  0  0  0
 14 10  1  0  0  0  0
 16 15  1  0  0  0  0
 18 17  1  6  0  0  0
 18 19  1  0  0  0  0
 20 24  1  6  0  0  0
 20 19  1  0  0  0  0
 21 23  2  0  0  0  0
 23 20  1  0  0  0  0
 23 22  1  0  0  0  0
 24 25  1  0  0  0  0
 25 28  1  0  0  0  0
 26 25  2  0  0  0  0
 27 25  1  0  0  0  0
 29 30  1  6  0  0  0
 29 31  1  0  0  0  0
 31 39  1  0  0  0  0
 32 36  1  0  0  0  0
 32 38  1  0  0  0  0
 34 40  1  0  0  0  0
 35 36  2  0  0  0  0
 36 33  1  0  0  0  0
 37 32  1  0  0  0  0
 39 41  2  0  0  0  0
 40 37  2  0  0  0  0
 40 35  1  0  0  0  0
 41 37  1  0  0  0  0
 42 39  1  0  0  0  0
 42 34  2  0  0  0  0
M  END
>  <MODEL>
7

>  <REMARK>
 VINA RESULT:      -6.5      1.310      2.154
  Name = 
  13 active torsions:
  status: ('A' for Active; 'I' for Inactive)
    1  A    between atoms: N_3  and  C_19
    2  A    between atoms: N_3  and  C_29
    3  A    between atoms: P_7  and  O_42
    4  A    between atoms: C_12  and  N_15
    5  A    between atoms: C_12  and  C_36
    6  A    between atoms: C_16  and  S_27
    7  A    between atoms: C_16  and  C_41
    8  A    between atoms: C_16  and  O_42
    9  A    between atoms: N_22  and  C_33
   10  A    between atoms: C_25  and  O_30
   11  A    between atoms: S_27  and  C_38
   12  A    between atoms: C_29  and  C_36
   13  A    between atoms: C_36  and  C_38
                            x       y       z     vdW  Elec       q    Type
                         _______ _______ _______ _____ _____    ______ ____

>  <TORSDO>
F 13

$$$$
=
 OpenBabel10232410243D

 42 44  0  0  1  0  0  0  0  0999 V2000
  188.5530  177.1930  139.2780 C   0  0  1  0  0  3  0  0  0  0  0  0
  187.5540  177.6690  138.2110 C   0  0  1  0  0  3  0  0  0  0  0  0
  186.8290  176.5850  137.7140 O   0  0  0  0  0  1  0  0  0  0  0  0
  184.7220  177.4030  138.2780 O   0  0  0  0  0  0  0  0  0  0  0  0
  186.6320  178.6450  138.7770 N   0  0  0  0  0  2  0  0  0  0  0  0
  184.3820  179.4360  139.4010 N   0  0  0  0  0  2  0  0  0  0  0  0
  185.2180  178.4430  138.7930 C   0  0  0  0  0  0  0  0  0  0  0  0
  180.7000  180.3320  138.8690 C   0  0  0  0  0  2  0  0  0  0  0  0
  182.6740  178.7870  141.8910 C   0  0  0  0  0  1  0  0  0  0  0  0
  182.3240  178.4280  140.4560 C   0  0  1  0  0  3  0  0  0  0  0  0
  180.8020  178.2920  140.3130 C   0  0  1  0  0  3  0  0  0  0  0  0
  180.1530  179.6640  140.1260 C   0  0  0  0  0  2  0  0  0  0  0  0
  182.2020  180.3240  138.8440 C   0  0  0  0  0  3  0  0  0  0  0  0
  182.9490  179.4240  139.5040 C   0  0  0  0  0  0  0  0  0  0  0  0
  180.9640  176.2010  139.6070 C   0  0  0  0  0  1  0  0  0  0  0  0
  180.4950  177.4600  139.2330 O   0  0  0  0  0  0  0  0  0  0  0  0
  190.8900  176.1770  139.3090 C   0  0  0  0  0  1  0  0  0  0  0  0
  190.0040  177.2980  138.7880 C   0  0  1  0  0  3  0  0  0  0  0  0
  190.0810  177.3660  136.9730 S   0  0  0  0  0  0  0  0  0  0  0  0
  191.0510  175.8330  136.8890 C   0  0  1  0  0  3  0  0  0  0  0  0
  189.4760  174.7400  135.4780 O   0  0  0  0  0  0  0  0  0  0  0  0
  190.1020  173.5660  137.3450 O   0  0  0  0  0  1  0  0  0  0  0  0
  190.1640  174.6900  136.5300 C   0  0  0  0  0  0  0  0  0  0  0  0
  192.0620  175.9680  135.9350 O   0  0  0  0  0  0  0  0  0  0  0  0
  193.5140  175.7050  136.7720 P   0  0  0  0  0  0  0  0  0  0  0  0
  194.7930  175.5350  135.6770 O   0  0  0  0  0  0  0  0  0  0  0  0
  193.3920  174.3070  137.7170 O   0  0  0  0  0  1  0  0  0  0  0  0
  193.7880  176.8870  137.6730 O   0  0  0  0  0  1  0  0  0  0  0  0
  188.3650  177.8480  140.6580 C   0  0  2  0  0  3  0  0  0  0  0  0
  189.4550  178.8650  140.9380 C   0  0  0  0  0  1  0  0  0  0  0  0
  188.3070  176.8570  141.7280 N   0  0  0  0  0  2  0  0  0  0  0  0
  188.9050  177.3310  146.5930 N   0  0  0  0  0  0  0  0  0  0  0  0
  188.2360  177.9180  148.8690 N   0  0  0  0  0  1  0  0  0  0  0  0
  186.1190  178.0090  144.5470 C   0  0  0  0  0  3  0  0  0  0  0  0
  186.7940  178.1130  146.9060 N   0  0  0  0  0  0  0  0  0  0  0  0
  187.9860  177.7860  147.4740 C   0  0  0  0  0  0  0  0  0  0  0  0
  188.2750  177.3660  145.4120 C   0  0  0  0  0  0  0  0  0  0  0  0
  190.2720  176.9140  146.8650 C   0  0  0  0  0  1  0  0  0  0  0  0
  187.8820  177.1740  143.0550 C   0  0  0  0  0  0  0  0  0  0  0  0
  187.0090  177.8400  145.6040 C   0  0  0  0  0  0  0  0  0  0  0  0
  188.7570  177.0180  144.1530 C   0  0  0  0  0  3  0  0  0  0  0  0
  186.5740  177.6700  143.2580 C   0  0  0  0  0  3  0  0  0  0  0  0
  1  2  1  6  0  0  0
  1 29  1  0  0  0  0
  2  3  1  1  0  0  0
  2  5  1  0  0  0  0
  4  7  2  0  0  0  0
  5  7  1  0  0  0  0
  6 14  1  0  0  0  0
  7  6  1  0  0  0  0
  8 12  1  0  0  0  0
 10  9  1  1  0  0  0
 11 16  1  6  0  0  0
 11 10  1  0  0  0  0
 12 11  1  0  0  0  0
 13  8  1  0  0  0  0
 13 14  2  0  0  0  0
 14 10  1  0  0  0  0
 16 15  1  0  0  0  0
 18  1  1  0  0  0  0
 18 17  1  6  0  0  0
 19 18  1  0  0  0  0
 20 24  1  6  0  0  0
 20 19  1  0  0  0  0
 21 23  2  0  0  0  0
 23 20  1  0  0  0  0
 23 22  1  0  0  0  0
 24 25  1  0  0  0  0
 25 28  1  0  0  0  0
 25 27  1  0  0  0  0
 26 25  2  0  0  0  0
 29 30  1  1  0  0  0
 29 31  1  0  0  0  0
 31 39  1  0  0  0  0
 32 38  1  0  0  0  0
 32 36  1  0  0  0  0
 34 40  1  0  0  0  0
 35 36  2  0  0  0  0
 36 33  1  0  0  0  0
 37 40  2  0  0  0  0
 37 32  1  0  0  0  0
 39 42  1  0  0  0  0
 39 41  2  0  0  0  0
 40 35  1  0  0  0  0
 41 37  1  0  0  0  0
 42 34  2  0  0  0  0
M  END
>  <MODEL>
8

>  <REMARK>
 VINA RESULT:      -6.3      2.841      6.444
  Name = 
  13 active torsions:
  status: ('A' for Active; 'I' for Inactive)
    1  A    between atoms: N_3  and  C_19
    2  A    between atoms: N_3  and  C_29
    3  A    between atoms: P_7  and  O_42
    4  A    between atoms: C_12  and  N_15
    5  A    between atoms: C_12  and  C_36
    6  A    between atoms: C_16  and  S_27
    7  A    between atoms: C_16  and  C_41
    8  A    between atoms: C_16  and  O_42
    9  A    between atoms: N_22  and  C_33
   10  A    between atoms: C_25  and  O_30
   11  A    between atoms: S_27  and  C_38
   12  A    between atoms: C_29  and  C_36
   13  A    between atoms: C_36  and  C_38
                            x       y       z     vdW  Elec       q    Type
                         _______ _______ _______ _____ _____    ______ ____

>  <TORSDO>
F 13

$$$$
=
 OpenBabel10232410243D

 42 44  0  0  1  0  0  0  0  0999 V2000
  187.8160  177.4150  138.4240 C   0  0  1  0  0  3  0  0  0  0  0  0
  186.6000  178.3100  138.1320 C   0  0  1  0  0  3  0  0  0  0  0  0
  186.4370  178.4630  136.7540 O   0  0  0  0  0  1  0  0  0  0  0  0
  184.8910  179.5810  140.0190 O   0  0  0  0  0  0  0  0  0  0  0  0
  185.3910  177.7260  138.6970 N   0  0  0  0  0  2  0  0  0  0  0  0
  183.3730  177.7920  140.1120 N   0  0  0  0  0  2  0  0  0  0  0  0
  184.5670  178.4250  139.6300 C   0  0  0  0  0  0  0  0  0  0  0  0
  181.8650  179.1730  143.3450 C   0  0  0  0  0  2  0  0  0  0  0  0
  180.3690  177.1200  140.3520 C   0  0  0  0  0  1  0  0  0  0  0  0
  180.9960  178.4830  140.5980 C   0  0  1  0  0  3  0  0  0  0  0  0
  180.1170  179.2920  141.5610 C   0  0  1  0  0  3  0  0  0  0  0  0
  180.4030  178.9010  143.0110 C   0  0  0  0  0  2  0  0  0  0  0  0
  182.7900  178.5740  142.3250 C   0  0  0  0  0  3  0  0  0  0  0  0
  182.4290  178.3200  141.0570 C   0  0  0  0  0  0  0  0  0  0  0  0
  180.1680  180.8670  140.0080 C   0  0  0  0  0  1  0  0  0  0  0  0
  180.3360  180.6590  141.3760 O   0  0  0  0  0  0  0  0  0  0  0  0
  189.7340  177.8800  136.8110 C   0  0  0  0  0  1  0  0  0  0  0  0
  188.5390  176.9970  137.1360 C   0  0  1  0  0  3  0  0  0  0  0  0
  189.0480  175.2530  137.2070 S   0  0  0  0  0  0  0  0  0  0  0  0
  188.6770  175.0040  135.4470 C   0  0  1  0  0  3  0  0  0  0  0  0
  190.2130  173.5320  134.3780 O   0  0  0  0  0  1  0  0  0  0  0  0
  190.7940  175.7500  134.3460 O   0  0  0  0  0  0  0  0  0  0  0  0
  189.9340  174.7160  134.6990 C   0  0  0  0  0  0  0  0  0  0  0  0
  187.7830  173.9400  135.3010 O   0  0  0  0  0  0  0  0  0  0  0  0
  186.2460  174.6490  135.1900 P   0  0  0  0  0  0  0  0  0  0  0  0
  186.3420  176.1120  134.3460 O   0  0  0  0  0  0  0  0  0  0  0  0
  185.6250  174.9300  136.7380 O   0  0  0  0  0  1  0  0  0  0  0  0
  185.3210  173.7110  134.4500 O   0  0  0  0  0  1  0  0  0  0  0  0
  188.7900  177.9910  139.4680 C   0  0  2  0  0  3  0  0  0  0  0  0
  189.6420  176.8990  140.0870 C   0  0  0  0  0  1  0  0  0  0  0  0
  188.0930  178.7430  140.5070 N   0  0  0  0  0  2  0  0  0  0  0  0
  190.0840  177.6110  144.8660 N   0  0  0  0  0  0  0  0  0  0  0  0
  190.0570  176.9560  147.2210 N   0  0  0  0  0  1  0  0  0  0  0  0
  186.7200  177.6720  143.8270 C   0  0  0  0  0  3  0  0  0  0  0  0
  188.0670  177.1920  145.8240 N   0  0  0  0  0  0  0  0  0  0  0  0
  189.4160  177.2480  145.9840 C   0  0  0  0  0  0  0  0  0  0  0  0
  189.1240  177.7920  143.9510 C   0  0  0  0  0  0  0  0  0  0  0  0
  191.5200  177.7810  144.7010 C   0  0  0  0  0  1  0  0  0  0  0  0
  188.0560  178.3250  141.8730 C   0  0  0  0  0  0  0  0  0  0  0  0
  187.9130  177.5430  144.5320 C   0  0  0  0  0  0  0  0  0  0  0  0
  189.2450  178.1850  142.6210 C   0  0  0  0  0  3  0  0  0  0  0  0
  186.8040  178.0710  142.4790 C   0  0  0  0  0  3  0  0  0  0  0  0
  1 18  1  6  0  0  0
  1 29  1  0  0  0  0
  2  3  1  6  0  0  0
  2  1  1  0  0  0  0
  2  5  1  0  0  0  0
  5  7  1  0  0  0  0
  6 14  1  0  0  0  0
  7  4  2  0  0  0  0
  7  6  1  0  0  0  0
 10  9  1  1  0  0  0
 10 14  1  0  0  0  0
 10 11  1  0  0  0  0
 11 16  1  1  0  0  0
 11 12  1  0  0  0  0
 12  8  1  0  0  0  0
 13  8  1  0  0  0  0
 14 13  2  0  0  0  0
 15 16  1  0  0  0  0
 18 17  1  1  0  0  0
 18 19  1  0  0  0  0
 20 23  1  6  0  0  0
 20 19  1  0  0  0  0
 21 23  1  0  0  0  0
 22 23  2  0  0  0  0
 24 20  1  0  0  0  0
 25 24  1  0  0  0  0
 25 27  1  0  0  0  0
 26 25  2  0  0  0  0
 28 25  1  0  0  0  0
 29 30  1  1  0  0  0
 29 31  1  0  0  0  0
 31 39  1  0  0  0  0
 32 36  1  0  0  0  0
 34 40  1  0  0  0  0
 35 36  2  0  0  0  0
 36 33  1  0  0  0  0
 37 40  2  0  0  0  0
 37 32  1  0  0  0  0
 38 32  1  0  0  0  0
 39 42  1  0  0  0  0
 39 41  2  0  0  0  0
 40 35  1  0  0  0  0
 41 37  1  0  0  0  0
 42 34  2  0  0  0  0
M  END
>  <MODEL>
9

>  <REMARK>
 VINA RESULT:      -6.3      2.662      5.855
  Name = 
  13 active torsions:
  status: ('A' for Active; 'I' for Inactive)
    1  A    between atoms: N_3  and  C_19
    2  A    between atoms: N_3  and  C_29
    3  A    between atoms: P_7  and  O_42
    4  A    between atoms: C_12  and  N_15
    5  A    between atoms: C_12  and  C_36
    6  A    between atoms: C_16  and  S_27
    7  A    between atoms: C_16  and  C_41
    8  A    between atoms: C_16  and  O_42
    9  A    between atoms: N_22  and  C_33
   10  A    between atoms: C_25  and  O_30
   11  A    between atoms: S_27  and  C_38
   12  A    between atoms: C_29  and  C_36
   13  A    between atoms: C_36  and  C_38
                            x       y       z     vdW  Elec       q    Type
                         _______ _______ _______ _____ _____    ______ ____

>  <TORSDO>
F 13

$$$$
