=
 OpenBabel10232408423D

 40 45  0  0  1  0  0  0  0  0999 V2000
  191.2920  178.4630  143.9590 C   0  0  0  0  0  2  0  0  0  0  0  0
  191.9560  176.4220  147.4220 O   0  0  0  0  0  1  0  0  0  0  0  0
  189.2310  177.4570  146.9250 N   0  0  0  0  0  2  0  0  0  0  0  0
  191.4140  175.8770  143.7530 C   0  0  0  0  0  2  0  0  0  0  0  0
  190.2050  178.2620  144.9180 N   0  0  0  0  0  0  0  0  0  0  0  0
  191.9790  175.8630  145.1410 C   0  0  0  0  0  3  0  0  0  0  0  0
  190.2630  177.4390  145.9300 C   0  0  0  0  0  0  0  0  0  0  0  0
  191.5390  177.2440  143.0610 C   0  0  1  0  0  3  0  0  0  0  0  0
  191.4320  176.5580  146.1420 C   0  0  0  0  0  0  0  0  0  0  0  0
  189.9250  178.6340  141.7480 C   0  0  0  0  0  2  0  0  0  0  0  0
  188.5540  178.4690  141.0880 C   0  0  0  0  0  2  0  0  0  0  0  0
  189.7580  177.8660  138.9140 C   0  0  0  0  0  2  0  0  0  0  0  0
  190.8440  176.8590  139.2740 C   0  0  0  0  0  2  0  0  0  0  0  0
  190.7300  177.3410  141.7660 C   0  0  1  0  0  3  0  0  0  0  0  0
  188.5420  177.6340  139.8010 C   0  0  2  0  0  3  0  0  0  0  0  0
  191.6210  177.2680  140.5230 C   0  0  0  0  0  2  0  0  0  0  0  0
  186.4140  178.6750  139.4880 O   0  0  0  0  0  0  0  0  0  0  0  0
  187.0710  177.1880  137.8040 N   0  0  0  0  0  2  0  0  0  0  0  0
  187.2800  177.8740  139.0430 C   0  0  0  0  0  0  0  0  0  0  0  0
  186.1280  176.8280  135.5430 C   0  0  0  0  0  2  0  0  0  0  0  0
  183.9840  175.4710  135.5180 C   0  0  2  0  0  3  0  0  0  0  0  0
  183.5470  176.4080  136.6540 C   0  0  0  0  0  2  0  0  0  0  0  0
  185.8690  177.3040  136.9820 C   0  0  1  0  0  3  0  0  0  0  0  0
  185.5000  175.4620  135.2680 C   0  0  0  0  0  2  0  0  0  0  0  0
  184.6690  176.6320  137.6610 C   0  0  0  0  0  2  0  0  0  0  0  0
  183.3140  175.8210  134.3470 O   0  0  0  0  0  1  0  0  0  0  0  0
  185.9710  178.6040  145.4380 N   0  0  0  0  0  2  0  0  0  0  0  0
  187.9920  178.1010  146.7570 N   0  0  0  0  0  2  0  0  0  0  0  0
  187.0170  177.6990  145.7910 C   0  0  0  0  0  0  0  0  0  0  0  0
  187.0630  176.5490  145.2780 O   0  0  0  0  0  0  0  0  0  0  0  0
  181.3320  178.5640  141.9020 N   0  0  0  0  0  0  0  0  0  0  0  0
  184.8810  178.2300  144.5500 C   0  0  1  0  0  3  0  0  0  0  0  0
  182.5990  179.2140  144.0400 C   0  0  0  0  0  2  0  0  0  0  0  0
  184.1340  179.4780  144.1020 C   0  0  2  0  0  3  0  0  0  0  0  0
  181.8430  178.3840  140.6500 C   0  0  0  0  0  3  0  0  0  0  0  0
  183.2230  178.6100  140.6470 C   0  0  0  0  0  3  0  0  0  0  0  0
  182.4210  178.8930  142.6130 C   0  0  0  0  0  0  0  0  0  0  0  0
  185.4240  178.0370  143.1420 C   0  0  0  0  0  2  0  0  0  0  0  0
  184.6940  179.2850  142.6720 C   0  0  1  0  0  3  0  0  0  0  0  0
  183.5220  178.9260  141.9120 N   0  0  0  0  0  0  0  0  0  0  0  0
  1  5  1  0  0  0  0
  4  6  1  0  0  0  0
  5  7  2  0  0  0  0
  6  9  2  0  0  0  0
  7  9  1  0  0  0  0
  7  3  1  0  0  0  0
  8  4  1  1  0  0  0
  8  1  1  0  0  0  0
  9  2  1  0  0  0  0
 10 14  1  0  0  0  0
 11 10  1  0  0  0  0
 12 13  1  0  0  0  0
 12 15  1  0  0  0  0
 13 16  1  0  0  0  0
 14 16  1  6  0  0  0
 14  8  1  0  0  0  0
 15 19  1  6  0  0  0
 15 11  1  0  0  0  0
 18 19  1  0  0  0  0
 19 17  2  0  0  0  0
 20 23  1  0  0  0  0
 21 26  1  6  0  0  0
 21 22  1  0  0  0  0
 22 25  1  0  0  0  0
 23 25  1  0  0  0  0
 23 18  1  1  0  0  0
 24 21  1  0  0  0  0
 24 20  1  0  0  0  0
 27 29  1  0  0  0  0
 28  3  1  0  0  0  0
 29 28  1  0  0  0  0
 30 29  2  0  0  0  0
 31 37  2  0  0  0  0
 32 27  1  1  0  0  0
 34 33  1  6  0  0  0
 34 32  1  0  0  0  0
 35 31  1  0  0  0  0
 36 35  2  0  0  0  0
 36 40  1  0  0  0  0
 37 33  1  0  0  0  0
 38 32  1  0  0  0  0
 39 38  1  1  0  0  0
 39 34  1  0  0  0  0
 40 37  1  0  0  0  0
 40 39  1  0  0  0  0
M  END
>  <MODEL>
1

>  <REMARK>
 VINA RESULT:      -9.7      0.000      0.000
  Name = 
  5 active torsions:
  status: ('A' for Active; 'I' for Inactive)
    1  A    between atoms: N_3  and  C_8
    2  A    between atoms: N_7  and  N_10
    3  A    between atoms: C_24  and  N_31
    4  A    between atoms: C_27  and  C_34
    5  A    between atoms: C_28  and  C_33
                            x       y       z     vdW  Elec       q    Type
                         _______ _______ _______ _____ _____    ______ ____

>  <TORSDO>
F 5

$$$$
=
 OpenBabel10232408423D

 40 45  0  0  1  0  0  0  0  0999 V2000
  188.3430  176.4100  147.0470 C   0  0  0  0  0  2  0  0  0  0  0  0
  191.9280  177.3820  148.7190 O   0  0  0  0  0  1  0  0  0  0  0  0
  191.8450  176.8990  145.8030 N   0  0  0  0  0  2  0  0  0  0  0  0
  188.6910  178.9200  147.6170 C   0  0  0  0  0  2  0  0  0  0  0  0
  189.5430  176.5080  146.2150 N   0  0  0  0  0  0  0  0  0  0  0  0
  189.8830  178.4980  148.4230 C   0  0  0  0  0  3  0  0  0  0  0  0
  190.6720  177.0270  146.6150 C   0  0  0  0  0  0  0  0  0  0  0  0
  187.7040  177.7720  147.3500 C   0  0  1  0  0  3  0  0  0  0  0  0
  190.8040  177.6540  147.9490 C   0  0  0  0  0  0  0  0  0  0  0  0
  186.6600  177.1090  145.1750 C   0  0  0  0  0  2  0  0  0  0  0  0
  186.3700  177.7400  143.8110 C   0  0  0  0  0  2  0  0  0  0  0  0
  184.0590  178.3920  144.6890 C   0  0  0  0  0  2  0  0  0  0  0  0
  184.2650  179.0010  146.0700 C   0  0  0  0  0  2  0  0  0  0  0  0
  186.6380  178.1240  146.3110 C   0  0  1  0  0  3  0  0  0  0  0  0
  185.2320  178.7670  143.7920 C   0  0  2  0  0  3  0  0  0  0  0  0
  185.2360  178.1860  146.9220 C   0  0  0  0  0  2  0  0  0  0  0  0
  185.4830  179.6780  141.5970 O   0  0  0  0  0  0  0  0  0  0  0  0
  183.5240  178.4480  141.9650 N   0  0  0  0  0  2  0  0  0  0  0  0
  184.7740  179.0030  142.3920 C   0  0  0  0  0  0  0  0  0  0  0  0
  183.3190  177.4720  139.6990 C   0  0  0  0  0  2  0  0  0  0  0  0
  180.9290  177.2550  138.8770 C   0  0  2  0  0  3  0  0  0  0  0  0
  180.7800  178.7030  139.3670 C   0  0  0  0  0  2  0  0  0  0  0  0
  182.9440  178.6320  140.6370 C   0  0  1  0  0  3  0  0  0  0  0  0
  182.1450  176.5230  139.4620 C   0  0  0  0  0  2  0  0  0  0  0  0
  181.4380  178.9070  140.7270 C   0  0  0  0  0  2  0  0  0  0  0  0
  180.9940  177.2430  137.4840 O   0  0  0  0  0  1  0  0  0  0  0  0
  190.9990  176.7120  142.1410 N   0  0  0  0  0  2  0  0  0  0  0  0
  191.8240  176.4990  144.4540 N   0  0  0  0  0  2  0  0  0  0  0  0
  191.3190  177.3160  143.3950 C   0  0  0  0  0  0  0  0  0  0  0  0
  191.1840  178.5580  143.5560 O   0  0  0  0  0  0  0  0  0  0  0  0
  189.3820  178.5040  136.8310 N   0  0  0  0  0  0  0  0  0  0  0  0
  190.5860  177.4900  140.9830 C   0  0  1  0  0  3  0  0  0  0  0  0
  190.8790  177.2200  138.4780 C   0  0  0  0  0  2  0  0  0  0  0  0
  190.3680  176.5630  139.7960 C   0  0  2  0  0  3  0  0  0  0  0  0
  188.0430  178.7410  136.9300 C   0  0  0  0  0  3  0  0  0  0  0  0
  187.5290  178.1700  138.0980 C   0  0  0  0  0  3  0  0  0  0  0  0
  189.6330  177.7970  137.9440 C   0  0  0  0  0  0  0  0  0  0  0  0
  189.0900  177.7560  141.0640 C   0  0  0  0  0  2  0  0  0  0  0  0
  188.8450  176.8290  139.8840 C   0  0  1  0  0  3  0  0  0  0  0  0
  188.5810  177.5930  138.6890 N   0  0  0  0  0  0  0  0  0  0  0  0
  3  7  1  0  0  0  0
  4  6  1  0  0  0  0
  5  7  2  0  0  0  0
  5  1  1  0  0  0  0
  7  9  1  0  0  0  0
  8  1  1  6  0  0  0
  8  4  1  0  0  0  0
  9  6  2  0  0  0  0
  9  2  1  0  0  0  0
 11 10  1  0  0  0  0
 12 13  1  0  0  0  0
 13 16  1  0  0  0  0
 14 10  1  6  0  0  0
 14 16  1  0  0  0  0
 14  8  1  0  0  0  0
 15 19  1  6  0  0  0
 15 11  1  0  0  0  0
 15 12  1  0  0  0  0
 17 19  2  0  0  0  0
 18 19  1  0  0  0  0
 20 23  1  0  0  0  0
 21 26  1  6  0  0  0
 21 22  1  0  0  0  0
 21 24  1  0  0  0  0
 22 25  1  0  0  0  0
 23 25  1  0  0  0  0
 23 18  1  1  0  0  0
 24 20  1  0  0  0  0
 27 29  1  0  0  0  0
 28  3  1  0  0  0  0
 29 30  2  0  0  0  0
 29 28  1  0  0  0  0
 31 35  1  0  0  0  0
 31 37  2  0  0  0  0
 32 38  1  0  0  0  0
 32 27  1  1  0  0  0
 34 33  1  6  0  0  0
 34 39  1  0  0  0  0
 34 32  1  0  0  0  0
 35 36  2  0  0  0  0
 36 40  1  0  0  0  0
 37 33  1  0  0  0  0
 37 40  1  0  0  0  0
 39 38  1  1  0  0  0
 40 39  1  0  0  0  0
M  END
>  <MODEL>
2

>  <REMARK>
 VINA RESULT:      -9.6      2.176      5.821
  Name = 
  5 active torsions:
  status: ('A' for Active; 'I' for Inactive)
    1  A    between atoms: N_3  and  C_8
    2  A    between atoms: N_7  and  N_10
    3  A    between atoms: C_24  and  N_31
    4  A    between atoms: C_27  and  C_34
    5  A    between atoms: C_28  and  C_33
                            x       y       z     vdW  Elec       q    Type
                         _______ _______ _______ _____ _____    ______ ____

>  <TORSDO>
F 5

$$$$
=
 OpenBabel10232408423D

 40 45  0  0  1  0  0  0  0  0999 V2000
  183.9730  179.4130  139.8010 C   0  0  0  0  0  2  0  0  0  0  0  0
  182.7020  177.3820  136.5070 O   0  0  0  0  0  1  0  0  0  0  0  0
  185.6050  177.4380  137.0650 N   0  0  0  0  0  2  0  0  0  0  0  0
  182.9340  177.0720  140.2360 C   0  0  0  0  0  2  0  0  0  0  0  0
  184.9380  178.7410  138.9300 N   0  0  0  0  0  0  0  0  0  0  0  0
  182.4310  177.1120  138.8240 C   0  0  0  0  0  3  0  0  0  0  0  0
  184.6130  177.8900  137.9960 C   0  0  0  0  0  0  0  0  0  0  0  0
  183.2880  178.4610  140.7920 C   0  0  1  0  0  3  0  0  0  0  0  0
  183.2120  177.4580  137.7970 C   0  0  0  0  0  0  0  0  0  0  0  0
  185.3660  179.1620  141.9960 C   0  0  0  0  0  2  0  0  0  0  0  0
  186.5020  178.5060  142.7850 C   0  0  0  0  0  2  0  0  0  0  0  0
  185.1590  178.9230  144.9200 C   0  0  0  0  0  2  0  0  0  0  0  0
  183.7280  178.4820  144.6360 C   0  0  0  0  0  2  0  0  0  0  0  0
  184.0500  178.4040  142.1170 C   0  0  1  0  0  3  0  0  0  0  0  0
  186.1250  178.0030  144.1840 C   0  0  2  0  0  3  0  0  0  0  0  0
  183.2300  178.9720  143.2780 C   0  0  0  0  0  2  0  0  0  0  0  0
  187.2740  177.2030  146.1200 O   0  0  0  0  0  0  0  0  0  0  0  0
  188.6220  178.1830  144.4750 N   0  0  0  0  0  2  0  0  0  0  0  0
  187.3540  177.7670  144.9950 C   0  0  0  0  0  0  0  0  0  0  0  0
  189.7020  178.1230  146.7020 C   0  0  0  0  0  2  0  0  0  0  0  0
  191.1890  176.1020  147.0780 C   0  0  2  0  0  3  0  0  0  0  0  0
  191.7580  176.4420  145.6930 C   0  0  0  0  0  2  0  0  0  0  0  0
  189.8940  178.0440  145.1780 C   0  0  1  0  0  3  0  0  0  0  0  0
  189.8290  176.7540  147.3690 C   0  0  0  0  0  2  0  0  0  0  0  0
  190.6530  176.7980  144.7030 C   0  0  0  0  0  2  0  0  0  0  0  0
  192.1100  176.4720  148.0580 O   0  0  0  0  0  1  0  0  0  0  0  0
  189.2050  176.8150  137.9640 N   0  0  0  0  0  2  0  0  0  0  0  0
  186.9880  177.6190  137.2450 N   0  0  0  0  0  2  0  0  0  0  0  0
  187.9090  176.5400  137.4320 C   0  0  0  0  0  0  0  0  0  0  0  0
  187.5900  175.3650  137.1060 O   0  0  0  0  0  0  0  0  0  0  0  0
  193.6150  173.1140  137.0250 N   0  0  0  0  0  0  0  0  0  0  0  0
  190.2330  175.7920  138.0800 C   0  0  1  0  0  3  0  0  0  0  0  0
  191.3950  174.2590  136.4250 C   0  0  0  0  0  2  0  0  0  0  0  0
  191.0430  175.7330  136.7920 C   0  0  2  0  0  3  0  0  0  0  0  0
  194.6740  173.6460  137.7000 C   0  0  0  0  0  3  0  0  0  0  0  0
  194.4120  174.9740  138.0540 C   0  0  0  0  0  3  0  0  0  0  0  0
  192.7490  174.1390  136.9930 C   0  0  0  0  0  0  0  0  0  0  0  0
  191.4330  176.3680  138.8180 C   0  0  0  0  0  2  0  0  0  0  0  0
  192.2600  176.3250  137.5430 C   0  0  1  0  0  3  0  0  0  0  0  0
  193.1860  175.2190  137.5800 N   0  0  0  0  0  0  0  0  0  0  0  0
  2  9  1  0  0  0  0
  3 28  1  0  0  0  0
  3  7  1  0  0  0  0
  4  8  1  0  0  0  0
  5  1  1  0  0  0  0
  6  4  1  0  0  0  0
  7  5  2  0  0  0  0
  8  1  1  6  0  0  0
  8 14  1  0  0  0  0
  9  7  1  0  0  0  0
  9  6  2  0  0  0  0
 10 11  1  0  0  0  0
 11 15  1  0  0  0  0
 13 12  1  0  0  0  0
 14 10  1  6  0  0  0
 14 16  1  0  0  0  0
 15 12  1  0  0  0  0
 15 19  1  1  0  0  0
 16 13  1  0  0  0  0
 18 19  1  0  0  0  0
 19 17  2  0  0  0  0
 20 24  1  0  0  0  0
 21 24  1  0  0  0  0
 21 26  1  1  0  0  0
 22 21  1  0  0  0  0
 23 18  1  6  0  0  0
 23 20  1  0  0  0  0
 25 23  1  0  0  0  0
 25 22  1  0  0  0  0
 28 29  1  0  0  0  0
 29 27  1  0  0  0  0
 30 29  2  0  0  0  0
 31 35  1  0  0  0  0
 32 27  1  6  0  0  0
 32 38  1  0  0  0  0
 33 37  1  0  0  0  0
 34 33  1  1  0  0  0
 34 39  1  0  0  0  0
 34 32  1  0  0  0  0
 35 36  2  0  0  0  0
 37 31  2  0  0  0  0
 37 40  1  0  0  0  0
 39 40  1  0  0  0  0
 39 38  1  1  0  0  0
 40 36  1  0  0  0  0
M  END
>  <MODEL>
3

>  <REMARK>
 VINA RESULT:      -9.4      2.634     10.173
  Name = 
  5 active torsions:
  status: ('A' for Active; 'I' for Inactive)
    1  A    between atoms: N_3  and  C_8
    2  A    between atoms: N_7  and  N_10
    3  A    between atoms: C_24  and  N_31
    4  A    between atoms: C_27  and  C_34
    5  A    between atoms: C_28  and  C_33
                            x       y       z     vdW  Elec       q    Type
                         _______ _______ _______ _____ _____    ______ ____

>  <TORSDO>
F 5

$$$$
=
 OpenBabel10232408423D

 40 45  0  0  1  0  0  0  0  0999 V2000
  181.5320  179.1650  139.2690 C   0  0  0  0  0  2  0  0  0  0  0  0
  180.0390  176.7290  136.3650 O   0  0  0  0  0  1  0  0  0  0  0  0
  182.9560  177.2120  136.4030 N   0  0  0  0  0  2  0  0  0  0  0  0
  180.9260  176.7490  140.0070 C   0  0  0  0  0  2  0  0  0  0  0  0
  182.4260  178.5600  138.2810 N   0  0  0  0  0  0  0  0  0  0  0  0
  180.1970  176.6100  138.7050 C   0  0  0  0  0  3  0  0  0  0  0  0
  182.0770  177.6020  137.4670 C   0  0  0  0  0  0  0  0  0  0  0  0
  181.1640  178.2120  140.4150 C   0  0  1  0  0  3  0  0  0  0  0  0
  180.7390  176.9750  137.5400 C   0  0  0  0  0  0  0  0  0  0  0  0
  183.3720  179.1330  141.1480 C   0  0  0  0  0  2  0  0  0  0  0  0
  184.6540  178.6250  141.8120 C   0  0  0  0  0  2  0  0  0  0  0  0
  183.6580  179.2940  144.0700 C   0  0  0  0  0  2  0  0  0  0  0  0
  182.2250  178.7760  144.0930 C   0  0  0  0  0  2  0  0  0  0  0  0
  182.1350  178.3610  141.5880 C   0  0  1  0  0  3  0  0  0  0  0  0
  184.5370  178.3100  143.3090 C   0  0  2  0  0  3  0  0  0  0  0  0
  181.4870  179.0590  142.7860 C   0  0  0  0  0  2  0  0  0  0  0  0
  186.0410  178.3970  145.1640 O   0  0  0  0  0  0  0  0  0  0  0  0
  187.0200  177.9360  143.0880 N   0  0  0  0  0  2  0  0  0  0  0  0
  185.8930  178.2240  143.9240 C   0  0  0  0  0  0  0  0  0  0  0  0
  188.7430  176.4450  144.0560 C   0  0  0  0  0  2  0  0  0  0  0  0
  190.9370  176.4330  142.7810 C   0  0  2  0  0  3  0  0  0  0  0  0
  190.7980  177.9620  142.8110 C   0  0  0  0  0  2  0  0  0  0  0  0
  188.4020  177.8580  143.5540 C   0  0  1  0  0  3  0  0  0  0  0  0
  189.6280  175.6830  143.0690 C   0  0  0  0  0  2  0  0  0  0  0  0
  189.3720  178.4030  142.4970 C   0  0  0  0  0  2  0  0  0  0  0  0
  191.9170  176.0410  143.6930 O   0  0  0  0  0  1  0  0  0  0  0  0
  186.6420  177.4610  137.1180 N   0  0  0  0  0  2  0  0  0  0  0  0
  184.3100  177.5880  136.3290 N   0  0  0  0  0  2  0  0  0  0  0  0
  185.3720  176.8380  136.9250 C   0  0  0  0  0  0  0  0  0  0  0  0
  185.1980  175.6330  137.2500 O   0  0  0  0  0  0  0  0  0  0  0  0
  191.4630  174.2240  137.6640 N   0  0  0  0  0  0  0  0  0  0  0  0
  187.8000  176.7340  137.6130 C   0  0  1  0  0  3  0  0  0  0  0  0
  189.0880  174.7020  136.8080 C   0  0  0  0  0  2  0  0  0  0  0  0
  188.5590  176.1220  136.4440 C   0  0  2  0  0  3  0  0  0  0  0  0
  192.4670  175.1190  137.8860 C   0  0  0  0  0  3  0  0  0  0  0  0
  192.0460  176.4150  137.5730 C   0  0  0  0  0  3  0  0  0  0  0  0
  190.4680  175.0090  137.2240 C   0  0  0  0  0  0  0  0  0  0  0  0
  188.9410  177.7120  137.8550 C   0  0  0  0  0  2  0  0  0  0  0  0
  189.7150  177.1220  136.6860 C   0  0  1  0  0  3  0  0  0  0  0  0
  190.7800  176.2750  137.1640 N   0  0  0  0  0  0  0  0  0  0  0  0
  2  9  1  0  0  0  0
  3  7  1  0  0  0  0
  4  8  1  0  0  0  0
  5  1  1  0  0  0  0
  6  4  1  0  0  0  0
  7  9  1  0  0  0  0
  7  5  2  0  0  0  0
  8  1  1  6  0  0  0
  8 14  1  0  0  0  0
  9  6  2  0  0  0  0
 10 11  1  0  0  0  0
 11 15  1  0  0  0  0
 12 13  1  0  0  0  0
 14 10  1  6  0  0  0
 14 16  1  0  0  0  0
 15 19  1  1  0  0  0
 15 12  1  0  0  0  0
 16 13  1  0  0  0  0
 18 19  1  0  0  0  0
 19 17  2  0  0  0  0
 21 22  1  0  0  0  0
 21 24  1  0  0  0  0
 21 26  1  1  0  0  0
 23 18  1  6  0  0  0
 23 20  1  0  0  0  0
 24 20  1  0  0  0  0
 25 22  1  0  0  0  0
 25 23  1  0  0  0  0
 28  3  1  0  0  0  0
 28 29  1  0  0  0  0
 29 27  1  0  0  0  0
 29 30  2  0  0  0  0
 31 35  1  0  0  0  0
 32 27  1  6  0  0  0
 32 38  1  0  0  0  0
 33 37  1  0  0  0  0
 34 39  1  0  0  0  0
 34 33  1  1  0  0  0
 34 32  1  0  0  0  0
 36 35  2  0  0  0  0
 37 31  2  0  0  0  0
 39 40  1  0  0  0  0
 39 38  1  1  0  0  0
 40 37  1  0  0  0  0
 40 36  1  0  0  0  0
M  END
>  <MODEL>
4

>  <REMARK>
 VINA RESULT:      -8.8      2.492      9.738
  Name = 
  5 active torsions:
  status: ('A' for Active; 'I' for Inactive)
    1  A    between atoms: N_3  and  C_8
    2  A    between atoms: N_7  and  N_10
    3  A    between atoms: C_24  and  N_31
    4  A    between atoms: C_27  and  C_34
    5  A    between atoms: C_28  and  C_33
                            x       y       z     vdW  Elec       q    Type
                         _______ _______ _______ _____ _____    ______ ____

>  <TORSDO>
F 5

$$$$
=
 OpenBabel10232408423D

 40 45  0  0  1  0  0  0  0  0999 V2000
  181.9620  176.7210  139.0870 C   0  0  0  0  0  2  0  0  0  0  0  0
  180.1570  180.1750  140.2720 O   0  0  0  0  0  1  0  0  0  0  0  0
  182.3180  179.0870  141.9720 N   0  0  0  0  0  2  0  0  0  0  0  0
  182.6900  178.8760  137.8320 C   0  0  0  0  0  2  0  0  0  0  0  0
  182.3800  177.3870  140.3210 N   0  0  0  0  0  0  0  0  0  0  0  0
  181.5030  179.5520  138.4520 C   0  0  0  0  0  3  0  0  0  0  0  0
  182.0250  178.5960  140.6580 C   0  0  0  0  0  0  0  0  0  0  0  0
  182.5780  177.3430  137.8260 C   0  0  1  0  0  3  0  0  0  0  0  0
  181.2190  179.4450  139.7520 C   0  0  0  0  0  0  0  0  0  0  0  0
  185.0610  177.3330  138.1330 C   0  0  0  0  0  2  0  0  0  0  0  0
  186.3170  177.3660  137.2590 C   0  0  0  0  0  2  0  0  0  0  0  0
  186.3300  174.8100  137.3120 C   0  0  0  0  0  2  0  0  0  0  0  0
  184.9030  174.3540  137.0290 C   0  0  0  0  0  2  0  0  0  0  0  0
  183.8860  176.6440  137.4510 C   0  0  1  0  0  3  0  0  0  0  0  0
  186.6260  176.0670  136.5050 C   0  0  2  0  0  3  0  0  0  0  0  0
  183.8720  175.1580  137.8180 C   0  0  0  0  0  2  0  0  0  0  0  0
  188.3530  176.6730  134.9670 O   0  0  0  0  0  0  0  0  0  0  0  0
  189.0350  175.3880  136.8020 N   0  0  0  0  0  2  0  0  0  0  0  0
  188.0400  176.0710  136.0300 C   0  0  0  0  0  0  0  0  0  0  0  0
  191.2260  176.5390  136.8600 C   0  0  0  0  0  2  0  0  0  0  0  0
  193.1070  175.1390  137.8310 C   0  0  2  0  0  3  0  0  0  0  0  0
  192.5730  174.0380  136.9040 C   0  0  0  0  0  2  0  0  0  0  0  0
  190.4450  175.2850  136.4340 C   0  0  1  0  0  3  0  0  0  0  0  0
  192.1090  176.2800  138.0810 C   0  0  0  0  0  2  0  0  0  0  0  0
  191.0500  173.9660  136.9340 C   0  0  0  0  0  2  0  0  0  0  0  0
  194.2900  175.6540  137.3020 O   0  0  0  0  0  1  0  0  0  0  0  0
  185.4980  177.7620  143.4850 N   0  0  0  0  0  2  0  0  0  0  0  0
  183.2220  178.4690  142.8550 N   0  0  0  0  0  2  0  0  0  0  0  0
  184.6350  178.6830  142.8170 C   0  0  0  0  0  0  0  0  0  0  0  0
  185.1130  179.6880  142.2250 O   0  0  0  0  0  0  0  0  0  0  0  0
  191.1570  177.4840  144.8690 N   0  0  0  0  0  0  0  0  0  0  0  0
  186.9340  177.9700  143.5860 C   0  0  1  0  0  3  0  0  0  0  0  0
  188.6500  177.5950  145.4170 C   0  0  0  0  0  2  0  0  0  0  0  0
  187.5330  176.9490  144.5420 C   0  0  2  0  0  3  0  0  0  0  0  0
  191.7540  176.8790  143.8030 C   0  0  0  0  0  3  0  0  0  0  0  0
  190.7940  176.2790  142.9810 C   0  0  0  0  0  3  0  0  0  0  0  0
  189.8570  177.2290  144.6570 C   0  0  0  0  0  0  0  0  0  0  0  0
  187.6240  177.2910  142.4120 C   0  0  0  0  0  2  0  0  0  0  0  0
  188.2280  176.2540  143.3460 C   0  0  1  0  0  3  0  0  0  0  0  0
  189.6240  176.5370  143.5750 N   0  0  0  0  0  0  0  0  0  0  0  0
  1  5  1  0  0  0  0
  3 28  1  0  0  0  0
  4  6  1  0  0  0  0
  5  7  2  0  0  0  0
  6  9  2  0  0  0  0
  7  3  1  0  0  0  0
  8  4  1  1  0  0  0
  8  1  1  0  0  0  0
  9  2  1  0  0  0  0
  9  7  1  0  0  0  0
 11 10  1  0  0  0  0
 13 12  1  0  0  0  0
 13 16  1  0  0  0  0
 14 16  1  1  0  0  0
 14  8  1  0  0  0  0
 14 10  1  0  0  0  0
 15 19  1  1  0  0  0
 15 11  1  0  0  0  0
 15 12  1  0  0  0  0
 17 19  2  0  0  0  0
 19 18  1  0  0  0  0
 20 24  1  0  0  0  0
 21 26  1  6  0  0  0
 21 24  1  0  0  0  0
 22 25  1  0  0  0  0
 22 21  1  0  0  0  0
 23 18  1  1  0  0  0
 23 20  1  0  0  0  0
 23 25  1  0  0  0  0
 29 28  1  0  0  0  0
 29 27  1  0  0  0  0
 30 29  2  0  0  0  0
 32 27  1  6  0  0  0
 32 34  1  0  0  0  0
 34 33  1  1  0  0  0
 35 31  1  0  0  0  0
 36 40  1  0  0  0  0
 36 35  2  0  0  0  0
 37 31  2  0  0  0  0
 37 33  1  0  0  0  0
 38 32  1  0  0  0  0
 39 38  1  6  0  0  0
 39 40  1  0  0  0  0
 39 34  1  0  0  0  0
 40 37  1  0  0  0  0
M  END
>  <MODEL>
5

>  <REMARK>
 VINA RESULT:      -8.6      2.799      7.877
  Name = 
  5 active torsions:
  status: ('A' for Active; 'I' for Inactive)
    1  A    between atoms: N_3  and  C_8
    2  A    between atoms: N_7  and  N_10
    3  A    between atoms: C_24  and  N_31
    4  A    between atoms: C_27  and  C_34
    5  A    between atoms: C_28  and  C_33
                            x       y       z     vdW  Elec       q    Type
                         _______ _______ _______ _____ _____    ______ ____

>  <TORSDO>
F 5

$$$$
=
 OpenBabel10232408423D

 40 45  0  0  1  0  0  0  0  0999 V2000
  191.1160  178.5900  143.6610 C   0  0  0  0  0  2  0  0  0  0  0  0
  191.1220  176.9590  147.3930 O   0  0  0  0  0  1  0  0  0  0  0  0
  188.5130  177.6650  146.1940 N   0  0  0  0  0  2  0  0  0  0  0  0
  191.4790  176.0210  143.7810 C   0  0  0  0  0  2  0  0  0  0  0  0
  189.8560  178.3720  144.3730 N   0  0  0  0  0  0  0  0  0  0  0  0
  191.7100  176.1950  145.2530 C   0  0  0  0  0  3  0  0  0  0  0  0
  189.7430  177.6580  145.4590 C   0  0  0  0  0  0  0  0  0  0  0  0
  191.6550  177.3230  142.9840 C   0  0  1  0  0  3  0  0  0  0  0  0
  190.8960  176.9210  146.0230 C   0  0  0  0  0  0  0  0  0  0  0  0
  189.9790  178.1540  141.3220 C   0  0  0  0  0  2  0  0  0  0  0  0
  188.9260  177.5710  140.3760 C   0  0  0  0  0  2  0  0  0  0  0  0
  190.7000  177.5550  138.5350 C   0  0  0  0  0  2  0  0  0  0  0  0
  191.9650  176.9610  139.1430 C   0  0  0  0  0  2  0  0  0  0  0  0
  191.1600  177.2180  141.5400 C   0  0  1  0  0  3  0  0  0  0  0  0
  189.4810  176.8650  139.1330 C   0  0  2  0  0  3  0  0  0  0  0  0
  192.2640  177.5320  140.5280 C   0  0  0  0  0  2  0  0  0  0  0  0
  187.9510  177.7110  137.5050 O   0  0  0  0  0  0  0  0  0  0  0  0
  187.9110  175.3910  137.8230 N   0  0  0  0  0  2  0  0  0  0  0  0
  188.4080  176.7040  138.1100 C   0  0  0  0  0  0  0  0  0  0  0  0
  186.8300  173.6090  136.4880 C   0  0  0  0  0  2  0  0  0  0  0  0
  184.3150  173.4630  136.7970 C   0  0  2  0  0  3  0  0  0  0  0  0
  184.3470  174.9860  136.6050 C   0  0  0  0  0  2  0  0  0  0  0  0
  186.8410  175.0980  136.8730 C   0  0  1  0  0  3  0  0  0  0  0  0
  185.6790  172.8520  137.1510 C   0  0  0  0  0  2  0  0  0  0  0  0
  185.4930  175.6270  137.3800 C   0  0  0  0  0  2  0  0  0  0  0  0
  183.8140  172.8620  135.6430 O   0  0  0  0  0  1  0  0  0  0  0  0
  185.6770  178.4640  143.8540 N   0  0  0  0  0  2  0  0  0  0  0  0
  187.3000  178.1630  145.6850 N   0  0  0  0  0  2  0  0  0  0  0  0
  186.6860  177.6780  144.4880 C   0  0  0  0  0  0  0  0  0  0  0  0
  187.0120  176.5570  144.0130 O   0  0  0  0  0  0  0  0  0  0  0  0
  181.9440  177.8430  139.4150 N   0  0  0  0  0  0  0  0  0  0  0  0
  184.9290  177.9910  142.6990 C   0  0  1  0  0  3  0  0  0  0  0  0
  182.5640  178.3530  141.8560 C   0  0  0  0  0  2  0  0  0  0  0  0
  183.8950  179.0330  142.2970 C   0  0  2  0  0  3  0  0  0  0  0  0
  182.6800  178.0970  138.2960 C   0  0  0  0  0  3  0  0  0  0  0  0
  183.8900  178.7110  138.6340 C   0  0  0  0  0  3  0  0  0  0  0  0
  182.7340  178.3120  140.3930 C   0  0  0  0  0  0  0  0  0  0  0  0
  185.7250  178.2770  141.4340 C   0  0  0  0  0  2  0  0  0  0  0  0
  184.7100  179.3280  141.0140 C   0  0  1  0  0  3  0  0  0  0  0  0
  183.8600  178.8170  139.9670 N   0  0  0  0  0  0  0  0  0  0  0  0
  1  5  1  0  0  0  0
  4  6  1  0  0  0  0
  5  7  2  0  0  0  0
  6  9  2  0  0  0  0
  7  9  1  0  0  0  0
  7  3  1  0  0  0  0
  8  1  1  1  0  0  0
  8  4  1  0  0  0  0
  9  2  1  0  0  0  0
 10 14  1  0  0  0  0
 11 10  1  0  0  0  0
 12 15  1  0  0  0  0
 12 13  1  0  0  0  0
 13 16  1  0  0  0  0
 14 16  1  6  0  0  0
 14  8  1  0  0  0  0
 15 19  1  6  0  0  0
 15 11  1  0  0  0  0
 17 19  2  0  0  0  0
 18 19  1  0  0  0  0
 20 23  1  0  0  0  0
 20 24  1  0  0  0  0
 21 26  1  6  0  0  0
 21 24  1  0  0  0  0
 22 21  1  0  0  0  0
 22 25  1  0  0  0  0
 23 25  1  0  0  0  0
 23 18  1  1  0  0  0
 27 29  1  0  0  0  0
 28  3  1  0  0  0  0
 29 28  1  0  0  0  0
 30 29  2  0  0  0  0
 31 37  2  0  0  0  0
 32 27  1  1  0  0  0
 34 33  1  6  0  0  0
 34 32  1  0  0  0  0
 35 36  2  0  0  0  0
 35 31  1  0  0  0  0
 36 40  1  0  0  0  0
 37 33  1  0  0  0  0
 38 32  1  0  0  0  0
 39 38  1  1  0  0  0
 39 34  1  0  0  0  0
 40 37  1  0  0  0  0
 40 39  1  0  0  0  0
M  END
>  <MODEL>
6

>  <REMARK>
 VINA RESULT:      -8.4      1.599      1.785
  Name = 
  5 active torsions:
  status: ('A' for Active; 'I' for Inactive)
    1  A    between atoms: N_3  and  C_8
    2  A    between atoms: N_7  and  N_10
    3  A    between atoms: C_24  and  N_31
    4  A    between atoms: C_27  and  C_34
    5  A    between atoms: C_28  and  C_33
                            x       y       z     vdW  Elec       q    Type
                         _______ _______ _______ _____ _____    ______ ____

>  <TORSDO>
F 5

$$$$
=
 OpenBabel10232408423D

 40 45  0  0  1  0  0  0  0  0999 V2000
  186.6000  178.9010  137.2690 C   0  0  0  0  0  2  0  0  0  0  0  0
  188.9140  176.5340  134.8950 O   0  0  0  0  0  1  0  0  0  0  0  0
  189.9270  177.2040  137.5910 N   0  0  0  0  0  2  0  0  0  0  0  0
  185.8720  176.4150  137.0830 C   0  0  0  0  0  2  0  0  0  0  0  0
  187.8920  178.4100  137.7510 N   0  0  0  0  0  0  0  0  0  0  0  0
  186.8160  176.2990  135.9240 C   0  0  0  0  0  3  0  0  0  0  0  0
  188.5870  177.4770  137.1610 C   0  0  0  0  0  0  0  0  0  0  0  0
  185.4740  177.8660  137.3970 C   0  0  1  0  0  3  0  0  0  0  0  0
  188.0690  176.7610  135.9750 C   0  0  0  0  0  0  0  0  0  0  0  0
  185.3650  179.1340  139.5510 C   0  0  0  0  0  2  0  0  0  0  0  0
  185.3760  178.8340  141.0530 C   0  0  0  0  0  2  0  0  0  0  0  0
  182.8200  178.7880  140.9840 C   0  0  0  0  0  2  0  0  0  0  0  0
  182.4240  177.9440  139.7780 C   0  0  0  0  0  2  0  0  0  0  0  0
  184.7380  178.0150  138.7300 C   0  0  1  0  0  3  0  0  0  0  0  0
  184.0870  178.2150  141.6060 C   0  0  2  0  0  3  0  0  0  0  0  0
  183.2450  178.2880  138.5370 C   0  0  0  0  0  2  0  0  0  0  0  0
  183.0200  178.7800  143.6690 O   0  0  0  0  0  0  0  0  0  0  0  0
  185.2030  177.9530  143.8510 N   0  0  0  0  0  2  0  0  0  0  0  0
  184.0520  178.3420  143.0920 C   0  0  0  0  0  0  0  0  0  0  0  0
  186.3030  177.0230  145.8650 C   0  0  0  0  0  2  0  0  0  0  0  0
  187.4230  178.7640  147.3310 C   0  0  2  0  0  3  0  0  0  0  0  0
  186.1070  179.5390  147.1700 C   0  0  0  0  0  2  0  0  0  0  0  0
  185.3140  178.0590  145.3040 C   0  0  1  0  0  3  0  0  0  0  0  0
  187.6280  177.6600  146.2830 C   0  0  0  0  0  2  0  0  0  0  0  0
  185.6060  179.5030  145.7310 C   0  0  0  0  0  2  0  0  0  0  0  0
  187.4840  178.2170  148.6120 O   0  0  0  0  0  1  0  0  0  0  0  0
  190.5200  177.7620  141.2650 N   0  0  0  0  0  2  0  0  0  0  0  0
  190.4710  177.6710  138.8020 N   0  0  0  0  0  2  0  0  0  0  0  0
  190.2470  177.0380  140.0650 C   0  0  0  0  0  0  0  0  0  0  0  0
  189.8410  175.8460  140.1190 O   0  0  0  0  0  0  0  0  0  0  0  0
  191.6140  175.4720  146.5170 N   0  0  0  0  0  0  0  0  0  0  0  0
  190.4240  177.1530  142.5820 C   0  0  1  0  0  3  0  0  0  0  0  0
  191.9820  175.7250  143.9860 C   0  0  0  0  0  2  0  0  0  0  0  0
  191.8100  177.0640  143.2070 C   0  0  2  0  0  3  0  0  0  0  0  0
  191.2430  176.4350  147.4070 C   0  0  0  0  0  3  0  0  0  0  0  0
  191.0750  177.6630  146.7590 C   0  0  0  0  0  3  0  0  0  0  0  0
  191.6590  176.1500  145.3590 C   0  0  0  0  0  0  0  0  0  0  0  0
  190.0240  178.2130  143.5980 C   0  0  0  0  0  2  0  0  0  0  0  0
  191.4030  178.1480  144.2350 C   0  0  1  0  0  3  0  0  0  0  0  0
  191.3510  177.4130  145.4750 N   0  0  0  0  0  0  0  0  0  0  0  0
  1  8  1  0  0  0  0
  1  5  1  0  0  0  0
  2  9  1  0  0  0  0
  3 28  1  0  0  0  0
  6  9  2  0  0  0  0
  6  4  1  0  0  0  0
  7  3  1  0  0  0  0
  7  5  2  0  0  0  0
  8  4  1  1  0  0  0
  8 14  1  0  0  0  0
  9  7  1  0  0  0  0
 10 11  1  0  0  0  0
 11 15  1  0  0  0  0
 12 15  1  0  0  0  0
 13 12  1  0  0  0  0
 14 16  1  6  0  0  0
 14 10  1  0  0  0  0
 15 19  1  1  0  0  0
 16 13  1  0  0  0  0
 19 17  2  0  0  0  0
 19 18  1  0  0  0  0
 20 24  1  0  0  0  0
 21 26  1  1  0  0  0
 22 21  1  0  0  0  0
 23 18  1  6  0  0  0
 23 25  1  0  0  0  0
 23 20  1  0  0  0  0
 24 21  1  0  0  0  0
 25 22  1  0  0  0  0
 28 29  1  0  0  0  0
 29 30  2  0  0  0  0
 29 27  1  0  0  0  0
 31 35  1  0  0  0  0
 32 27  1  6  0  0  0
 32 34  1  0  0  0  0
 32 38  1  0  0  0  0
 33 37  1  0  0  0  0
 34 33  1  1  0  0  0
 34 39  1  0  0  0  0
 36 35  2  0  0  0  0
 37 40  1  0  0  0  0
 37 31  2  0  0  0  0
 39 38  1  6  0  0  0
 39 40  1  0  0  0  0
 40 36  1  0  0  0  0
M  END
>  <MODEL>
7

>  <REMARK>
 VINA RESULT:      -8.3      2.271      8.857
  Name = 
  5 active torsions:
  status: ('A' for Active; 'I' for Inactive)
    1  A    between atoms: N_3  and  C_8
    2  A    between atoms: N_7  and  N_10
    3  A    between atoms: C_24  and  N_31
    4  A    between atoms: C_27  and  C_34
    5  A    between atoms: C_28  and  C_33
                            x       y       z     vdW  Elec       q    Type
                         _______ _______ _______ _____ _____    ______ ____

>  <TORSDO>
F 5

$$$$
=
 OpenBabel10232408423D

 40 45  0  0  1  0  0  0  0  0999 V2000
  181.1080  174.8070  135.7990 C   0  0  0  0  0  2  0  0  0  0  0  0
  180.1390  170.8700  136.1930 O   0  0  0  0  0  1  0  0  0  0  0  0
  182.9980  171.5720  135.9140 N   0  0  0  0  0  2  0  0  0  0  0  0
  180.5210  174.0120  138.2010 C   0  0  0  0  0  2  0  0  0  0  0  0
  182.1550  173.7840  135.7960 N   0  0  0  0  0  0  0  0  0  0  0  0
  179.9820  172.7590  137.5780 C   0  0  0  0  0  3  0  0  0  0  0  0
  181.9650  172.5400  136.1390 C   0  0  0  0  0  0  0  0  0  0  0  0
  180.6320  175.1810  137.2090 C   0  0  1  0  0  3  0  0  0  0  0  0
  180.6610  172.0710  136.6550 C   0  0  0  0  0  0  0  0  0  0  0  0
  182.8280  175.9190  138.1550 C   0  0  0  0  0  2  0  0  0  0  0  0
  183.3480  176.6320  139.4060 C   0  0  0  0  0  2  0  0  0  0  0  0
  183.1940  178.8370  138.1210 C   0  0  0  0  0  2  0  0  0  0  0  0
  181.8360  178.8520  137.4290 C   0  0  0  0  0  2  0  0  0  0  0  0
  181.4260  176.3670  137.7610 C   0  0  1  0  0  3  0  0  0  0  0  0
  183.0650  178.1380  139.4680 C   0  0  2  0  0  3  0  0  0  0  0  0
  181.5140  177.5190  136.7580 C   0  0  0  0  0  2  0  0  0  0  0  0
  184.6540  179.7770  140.1750 O   0  0  0  0  0  0  0  0  0  0  0  0
  183.9560  178.2660  141.8220 N   0  0  0  0  0  2  0  0  0  0  0  0
  183.9410  178.7850  140.4870 C   0  0  0  0  0  0  0  0  0  0  0  0
  183.9600  179.5910  143.9140 C   0  0  0  0  0  2  0  0  0  0  0  0
  185.0550  178.4200  145.8800 C   0  0  2  0  0  3  0  0  0  0  0  0
  186.1820  178.1090  144.8840 C   0  0  0  0  0  2  0  0  0  0  0  0
  184.7910  178.7810  142.9040 C   0  0  1  0  0  3  0  0  0  0  0  0
  183.7310  178.8240  145.2160 C   0  0  0  0  0  2  0  0  0  0  0  0
  185.6300  177.6620  143.5340 C   0  0  0  0  0  2  0  0  0  0  0  0
  185.4740  179.4250  146.7500 O   0  0  0  0  0  1  0  0  0  0  0  0
  186.4010  173.1720  136.0310 N   0  0  0  0  0  2  0  0  0  0  0  0
  184.3300  171.9040  135.6080 N   0  0  0  0  0  2  0  0  0  0  0  0
  185.2140  172.5520  136.5260 C   0  0  0  0  0  0  0  0  0  0  0  0
  184.9640  172.5520  137.7610 O   0  0  0  0  0  0  0  0  0  0  0  0
  191.2450  175.4750  138.3240 N   0  0  0  0  0  0  0  0  0  0  0  0
  187.4030  173.7540  136.9110 C   0  0  1  0  0  3  0  0  0  0  0  0
  189.9390  173.7360  136.9550 C   0  0  0  0  0  2  0  0  0  0  0  0
  188.6660  174.0590  136.1170 C   0  0  2  0  0  3  0  0  0  0  0  0
  190.9740  176.8040  138.4620 C   0  0  0  0  0  3  0  0  0  0  0  0
  189.8360  177.1510  137.7270 C   0  0  0  0  0  3  0  0  0  0  0  0
  190.2610  175.0630  137.5100 C   0  0  0  0  0  0  0  0  0  0  0  0
  187.1300  175.2420  137.0690 C   0  0  0  0  0  2  0  0  0  0  0  0
  188.3820  175.5730  136.2720 C   0  0  1  0  0  3  0  0  0  0  0  0
  189.4380  176.0110  137.1530 N   0  0  0  0  0  0  0  0  0  0  0  0
  2  9  1  0  0  0  0
  3  7  1  0  0  0  0
  5  1  1  0  0  0  0
  5  7  2  0  0  0  0
  6  4  1  0  0  0  0
  7  9  1  0  0  0  0
  8  1  1  6  0  0  0
  8 14  1  0  0  0  0
  8  4  1  0  0  0  0
  9  6  2  0  0  0  0
 10 11  1  0  0  0  0
 11 15  1  0  0  0  0
 12 15  1  0  0  0  0
 13 12  1  0  0  0  0
 14 16  1  6  0  0  0
 14 10  1  0  0  0  0
 15 19  1  1  0  0  0
 16 13  1  0  0  0  0
 17 19  2  0  0  0  0
 19 18  1  0  0  0  0
 20 24  1  0  0  0  0
 21 26  1  1  0  0  0
 22 21  1  0  0  0  0
 23 18  1  6  0  0  0
 23 25  1  0  0  0  0
 23 20  1  0  0  0  0
 24 21  1  0  0  0  0
 25 22  1  0  0  0  0
 27 29  1  0  0  0  0
 28  3  1  0  0  0  0
 28 29  1  0  0  0  0
 29 30  2  0  0  0  0
 31 35  1  0  0  0  0
 32 27  1  6  0  0  0
 32 38  1  0  0  0  0
 33 37  1  0  0  0  0
 34 39  1  0  0  0  0
 34 32  1  0  0  0  0
 34 33  1  1  0  0  0
 36 35  2  0  0  0  0
 37 31  2  0  0  0  0
 39 38  1  1  0  0  0
 39 40  1  0  0  0  0
 40 37  1  0  0  0  0
 40 36  1  0  0  0  0
M  END
>  <MODEL>
8

>  <REMARK>
 VINA RESULT:      -8.2      3.701     10.391
  Name = 
  5 active torsions:
  status: ('A' for Active; 'I' for Inactive)
    1  A    between atoms: N_3  and  C_8
    2  A    between atoms: N_7  and  N_10
    3  A    between atoms: C_24  and  N_31
    4  A    between atoms: C_27  and  C_34
    5  A    between atoms: C_28  and  C_33
                            x       y       z     vdW  Elec       q    Type
                         _______ _______ _______ _____ _____    ______ ____

>  <TORSDO>
F 5

$$$$
=
 OpenBabel10232408423D

 40 45  0  0  1  0  0  0  0  0999 V2000
  188.8290  174.8860  136.5200 C   0  0  0  0  0  2  0  0  0  0  0  0
  187.1460  178.5800  136.1800 O   0  0  0  0  0  1  0  0  0  0  0  0
  188.5720  177.9330  138.6890 N   0  0  0  0  0  2  0  0  0  0  0  0
  190.1290  176.6020  135.0660 C   0  0  0  0  0  2  0  0  0  0  0  0
  188.9330  175.8490  137.6180 N   0  0  0  0  0  0  0  0  0  0  0  0
  188.8950  177.4520  135.0920 C   0  0  0  0  0  3  0  0  0  0  0  0
  188.6290  177.1140  137.5140 C   0  0  0  0  0  0  0  0  0  0  0  0
  189.8560  175.1270  135.4060 C   0  0  1  0  0  3  0  0  0  0  0  0
  188.2270  177.7080  136.2210 C   0  0  0  0  0  0  0  0  0  0  0  0
  191.3740  173.3650  134.4840 C   0  0  0  0  0  2  0  0  0  0  0  0
  191.9670  172.0260  134.9290 C   0  0  0  0  0  2  0  0  0  0  0  0
  194.0130  173.3020  135.7800 C   0  0  0  0  0  2  0  0  0  0  0  0
  193.4930  174.4980  136.5670 C   0  0  0  0  0  2  0  0  0  0  0  0
  191.1320  174.3180  135.6470 C   0  0  1  0  0  3  0  0  0  0  0  0
  193.0770  172.1180  135.9840 C   0  0  2  0  0  3  0  0  0  0  0  0
  192.3550  175.2160  135.8450 C   0  0  0  0  0  2  0  0  0  0  0  0
  193.2900  169.7530  135.7160 O   0  0  0  0  0  0  0  0  0  0  0  0
  195.2130  170.8660  136.4580 N   0  0  0  0  0  2  0  0  0  0  0  0
  193.8430  170.8390  136.0390 C   0  0  0  0  0  0  0  0  0  0  0  0
  197.4910  169.9700  136.0930 C   0  0  0  0  0  2  0  0  0  0  0  0
  198.5100  168.8670  138.1380 C   0  0  2  0  0  3  0  0  0  0  0  0
  197.1550  168.1540  138.2520 C   0  0  0  0  0  2  0  0  0  0  0  0
  196.0640  169.6870  136.5900 C   0  0  1  0  0  3  0  0  0  0  0  0
  198.4830  170.1180  137.2480 C   0  0  0  0  0  2  0  0  0  0  0  0
  195.9930  169.1120  138.0100 C   0  0  0  0  0  2  0  0  0  0  0  0
  199.4650  167.9690  137.6630 O   0  0  0  0  0  1  0  0  0  0  0  0
  189.4290  177.9110  142.3530 N   0  0  0  0  0  2  0  0  0  0  0  0
  189.0990  177.5520  139.9360 N   0  0  0  0  0  2  0  0  0  0  0  0
  188.6210  178.0580  141.1850 C   0  0  0  0  0  0  0  0  0  0  0  0
  187.4870  178.6040  141.2600 O   0  0  0  0  0  0  0  0  0  0  0  0
  187.1160  178.0540  147.7050 N   0  0  0  0  0  0  0  0  0  0  0  0
  188.9660  178.2990  143.6760 C   0  0  1  0  0  3  0  0  0  0  0  0
  187.0930  177.5110  145.1940 C   0  0  0  0  0  2  0  0  0  0  0  0
  188.3530  177.0950  144.3770 C   0  0  2  0  0  3  0  0  0  0  0  0
  188.1840  178.0400  148.5530 C   0  0  0  0  0  3  0  0  0  0  0  0
  189.3460  177.6700  147.8700 C   0  0  0  0  0  3  0  0  0  0  0  0
  187.6690  177.6910  146.5380 C   0  0  0  0  0  0  0  0  0  0  0  0
  190.1400  178.2770  144.6450 C   0  0  0  0  0  2  0  0  0  0  0  0
  189.5510  177.0690  145.3570 C   0  0  1  0  0  3  0  0  0  0  0  0
  188.9530  177.4650  146.6080 N   0  0  0  0  0  0  0  0  0  0  0  0
  1  5  1  0  0  0  0
  2  9  1  0  0  0  0
  3 28  1  0  0  0  0
  4  6  1  0  0  0  0
  6  9  2  0  0  0  0
  7  5  2  0  0  0  0
  7  3  1  0  0  0  0
  8  4  1  1  0  0  0
  8 14  1  0  0  0  0
  8  1  1  0  0  0  0
  9  7  1  0  0  0  0
 10 11  1  0  0  0  0
 11 15  1  0  0  0  0
 12 15  1  0  0  0  0
 12 13  1  0  0  0  0
 14 10  1  6  0  0  0
 14 16  1  0  0  0  0
 15 19  1  6  0  0  0
 16 13  1  0  0  0  0
 17 19  2  0  0  0  0
 19 18  1  0  0  0  0
 20 23  1  0  0  0  0
 20 24  1  0  0  0  0
 21 26  1  6  0  0  0
 21 22  1  0  0  0  0
 23 18  1  1  0  0  0
 23 25  1  0  0  0  0
 24 21  1  0  0  0  0
 25 22  1  0  0  0  0
 28 29  1  0  0  0  0
 29 30  2  0  0  0  0
 29 27  1  0  0  0  0
 31 35  1  0  0  0  0
 32 27  1  6  0  0  0
 32 34  1  0  0  0  0
 32 38  1  0  0  0  0
 33 37  1  0  0  0  0
 34 33  1  1  0  0  0
 34 39  1  0  0  0  0
 36 35  2  0  0  0  0
 37 40  1  0  0  0  0
 37 31  2  0  0  0  0
 39 38  1  6  0  0  0
 39 40  1  0  0  0  0
 40 36  1  0  0  0  0
M  END
>  <MODEL>
9

>  <REMARK>
 VINA RESULT:      -8.2      6.103      9.623
  Name = 
  5 active torsions:
  status: ('A' for Active; 'I' for Inactive)
    1  A    between atoms: N_3  and  C_8
    2  A    between atoms: N_7  and  N_10
    3  A    between atoms: C_24  and  N_31
    4  A    between atoms: C_27  and  C_34
    5  A    between atoms: C_28  and  C_33
                            x       y       z     vdW  Elec       q    Type
                         _______ _______ _______ _____ _____    ______ ____

>  <TORSDO>
F 5

$$$$
