=
 OpenBabel10232412013D

 41 45  0  0  1  0  0  0  0  0999 V2000
  191.5860  176.3190  144.1830 N   0  0  0  0  0  1  0  0  0  0  0  0
  187.7940  177.5840  145.4550 C   0  0  0  0  0  3  0  0  0  0  0  0
  190.2860  176.7400  144.5910 C   0  0  0  0  0  0  0  0  0  0  0  0
  189.9030  178.0860  148.5680 C   0  0  0  0  0  1  0  0  0  0  0  0
  190.1020  177.1720  145.8660 N   0  0  0  0  0  0  0  0  0  0  0  0
  187.9320  177.1360  144.1410 C   0  0  0  0  0  0  0  0  0  0  0  0
  187.4730  178.5010  148.2020 C   0  0  0  0  0  1  0  0  0  0  0  0
  188.7540  178.0560  147.6760 N   0  0  0  0  0  0  0  0  0  0  0  0
  188.8930  177.5980  146.3210 C   0  0  0  0  0  0  0  0  0  0  0  0
  189.2080  176.7180  143.6860 C   0  0  0  0  0  0  0  0  0  0  0  0
  186.7570  177.1490  143.3170 N   0  0  0  0  0  2  0  0  0  0  0  0
  186.2120  178.3070  142.6240 C   0  0  0  0  0  2  0  0  0  0  0  0
  184.7910  178.5090  143.0280 C   0  0  0  0  0  0  0  0  0  0  0  0
  181.6720  178.3970  140.1180 C   0  0  0  0  0  2  0  0  0  0  0  0
  182.1390  178.9650  143.8250 C   0  0  0  0  0  3  0  0  0  0  0  0
  182.4440  178.8060  142.4720 C   0  0  0  0  0  0  0  0  0  0  0  0
  183.0560  178.8660  139.6700 C   0  0  0  0  0  2  0  0  0  0  0  0
  184.4790  178.6670  144.3840 C   0  0  0  0  0  3  0  0  0  0  0  0
  184.0580  178.4950  140.6650 N   0  0  0  0  0  2  0  0  0  0  0  0
  183.7720  178.6010  142.0650 C   0  0  0  0  0  0  0  0  0  0  0  0
  183.1580  178.8970  144.7810 C   0  0  0  0  0  3  0  0  0  0  0  0
  181.4090  178.8450  141.4840 N   0  0  0  0  0  2  0  0  0  0  0  0
  189.4650  176.3220  142.2610 C   0  0  0  0  0  2  0  0  0  0  0  0
  190.3400  177.3590  139.0080 C   0  0  1  0  0  3  0  0  0  0  0  0
  188.3980  178.7510  138.6290 O   0  0  0  0  0  0  0  0  0  0  0  0
  189.1690  178.1590  139.4280 C   0  0  0  0  0  0  0  0  0  0  0  0
  188.9980  178.2240  140.8270 N   0  0  0  0  0  2  0  0  0  0  0  0
  190.9740  176.9570  140.3380 C   0  0  1  0  0  3  0  0  0  0  0  0
  192.3410  177.6000  140.4650 C   0  0  0  0  0  1  0  0  0  0  0  0
  190.0630  177.4760  141.4640 C   0  0  2  0  0  3  0  0  0  0  0  0
  189.8960  176.1030  138.2730 C   0  0  0  0  0  2  0  0  0  0  0  0
  190.6570  175.9550  136.9690 C   0  0  0  0  0  2  0  0  0  0  0  0
  191.7530  175.1140  137.1680 O   0  0  0  0  0  0  0  0  0  0  0  0
  194.0980  172.5280  136.6110 C   0  0  0  0  0  2  0  0  0  0  0  0
  192.5490  175.2820  136.0270 C   0  0  1  0  0  3  0  0  0  0  0  0
  195.0240  174.8250  136.7430 C   0  0  0  0  0  2  0  0  0  0  0  0
  193.8430  176.8200  137.3730 O   0  0  0  0  0  1  0  0  0  0  0  0
  193.9400  175.8430  136.3800 C   0  0  2  0  0  3  0  0  0  0  0  0
  192.6990  172.7420  136.0460 C   0  0  0  0  0  2  0  0  0  0  0  0
  192.5980  174.0020  135.1850 C   0  0  0  0  0  2  0  0  0  0  0  0
  194.5100  173.6460  137.5560 C   0  0  0  0  0  2  0  0  0  0  0  0
  1  3  1  0  0  0  0
  2  9  1  0  0  0  0
  3  5  1  0  0  0  0
  5  9  2  0  0  0  0
  6  2  2  0  0  0  0
  8  7  1  0  0  0  0
  8  4  1  0  0  0  0
  9  8  1  0  0  0  0
 10  6  1  0  0  0  0
 10  3  2  0  0  0  0
 11  6  1  0  0  0  0
 12 13  1  0  0  0  0
 12 11  1  0  0  0  0
 13 18  1  0  0  0  0
 14 22  1  0  0  0  0
 15 21  1  0  0  0  0
 16 15  2  0  0  0  0
 17 14  1  0  0  0  0
 17 19  1  0  0  0  0
 18 21  2  0  0  0  0
 19 20  1  0  0  0  0
 20 16  1  0  0  0  0
 20 13  2  0  0  0  0
 22 16  1  0  0  0  0
 23 10  1  0  0  0  0
 24 31  1  1  0  0  0
 24 26  1  0  0  0  0
 24 28  1  0  0  0  0
 25 26  2  0  0  0  0
 26 27  1  0  0  0  0
 27 30  1  0  0  0  0
 28 29  1  1  0  0  0
 28 30  1  0  0  0  0
 30 23  1  6  0  0  0
 32 33  1  0  0  0  0
 32 31  1  0  0  0  0
 34 41  1  0  0  0  0
 35 38  1  0  0  0  0
 35 33  1  1  0  0  0
 36 41  1  0  0  0  0
 38 36  1  0  0  0  0
 38 37  1  1  0  0  0
 39 34  1  0  0  0  0
 40 35  1  0  0  0  0
 40 39  1  0  0  0  0
M  END
>  <MODEL>
1

>  <REMARK>
 VINA RESULT:      -9.3      0.000      0.000
  Name = 
  9 active torsions:
  status: ('A' for Active; 'I' for Inactive)
    1  A    between atoms: C_1  and  C_34
    2  A    between atoms: C_4  and  C_11
    3  A    between atoms: C_9  and  O_25
    4  A    between atoms: C_9  and  C_34
    5  A    between atoms: C_10  and  O_25
    6  A    between atoms: C_11  and  N_23
    7  A    between atoms: N_23  and  C_24
    8  A    between atoms: C_31  and  C_38
    9  A    between atoms: C_31  and  C_41
                            x       y       z     vdW  Elec       q    Type
                         _______ _______ _______ _____ _____    ______ ____

>  <TORSDO>
F 9

$$$$
=
 OpenBabel10232412013D

 41 45  0  0  1  0  0  0  0  0999 V2000
  191.5780  176.2660  144.2240 N   0  0  0  0  0  1  0  0  0  0  0  0
  187.7820  177.5680  145.4440 C   0  0  0  0  0  3  0  0  0  0  0  0
  190.2780  176.6990  144.6140 C   0  0  0  0  0  0  0  0  0  0  0  0
  189.8550  178.0590  148.5830 C   0  0  0  0  0  1  0  0  0  0  0  0
  190.0810  177.1360  145.8850 N   0  0  0  0  0  0  0  0  0  0  0  0
  187.9330  177.1150  144.1330 C   0  0  0  0  0  0  0  0  0  0  0  0
  187.4340  178.4940  148.1850 C   0  0  0  0  0  1  0  0  0  0  0  0
  188.7180  178.0370  147.6760 N   0  0  0  0  0  0  0  0  0  0  0  0
  188.8700  177.5740  146.3240 C   0  0  0  0  0  0  0  0  0  0  0  0
  189.2100  176.6850  143.6960 C   0  0  0  0  0  0  0  0  0  0  0  0
  186.7680  177.1370  143.2940 N   0  0  0  0  0  2  0  0  0  0  0  0
  186.2190  178.3060  142.6260 C   0  0  0  0  0  2  0  0  0  0  0  0
  184.8040  178.5090  143.0540 C   0  0  0  0  0  0  0  0  0  0  0  0
  181.6260  178.3050  140.2140 C   0  0  0  0  0  2  0  0  0  0  0  0
  182.1670  178.9680  143.8960 C   0  0  0  0  0  3  0  0  0  0  0  0
  182.4440  178.7780  142.5410 C   0  0  0  0  0  0  0  0  0  0  0  0
  182.9980  178.7730  139.7260 C   0  0  0  0  0  2  0  0  0  0  0  0
  184.5190  178.6990  144.4120 C   0  0  0  0  0  3  0  0  0  0  0  0
  184.0230  178.4320  140.7080 N   0  0  0  0  0  2  0  0  0  0  0  0
  183.7650  178.5710  142.1110 C   0  0  0  0  0  0  0  0  0  0  0  0
  183.2060  178.9290  144.8310 C   0  0  0  0  0  3  0  0  0  0  0  0
  181.3890  178.7860  141.5740 N   0  0  0  0  0  2  0  0  0  0  0  0
  189.4820  176.2820  142.2750 C   0  0  0  0  0  2  0  0  0  0  0  0
  190.3060  177.3390  139.0140 C   0  0  1  0  0  3  0  0  0  0  0  0
  188.3750  178.7590  138.6860 O   0  0  0  0  0  0  0  0  0  0  0  0
  189.1540  178.1490  139.4650 C   0  0  0  0  0  0  0  0  0  0  0  0
  189.0110  178.2040  140.8670 N   0  0  0  0  0  2  0  0  0  0  0  0
  190.9610  176.9160  140.3280 C   0  0  1  0  0  3  0  0  0  0  0  0
  192.3380  177.5400  140.4340 C   0  0  0  0  0  1  0  0  0  0  0  0
  190.0790  177.4360  141.4770 C   0  0  2  0  0  3  0  0  0  0  0  0
  189.8310  176.0950  138.2770 C   0  0  0  0  0  2  0  0  0  0  0  0
  189.1190  176.4790  136.9940 C   0  0  0  0  0  2  0  0  0  0  0  0
  187.8130  175.9870  137.0260 O   0  0  0  0  0  0  0  0  0  0  0  0
  184.3130  176.4780  137.0680 C   0  0  0  0  0  2  0  0  0  0  0  0
  187.2600  176.3520  135.7920 C   0  0  1  0  0  3  0  0  0  0  0  0
  185.1600  174.8350  135.4150 C   0  0  0  0  0  2  0  0  0  0  0  0
  187.4070  174.0020  135.2330 O   0  0  0  0  0  1  0  0  0  0  0  0
  186.6210  175.1460  135.0760 C   0  0  2  0  0  3  0  0  0  0  0  0
  185.4600  177.4740  137.1970 C   0  0  0  0  0  2  0  0  0  0  0  0
  186.3170  177.5520  135.9340 C   0  0  0  0  0  2  0  0  0  0  0  0
  184.8110  175.0540  136.8790 C   0  0  0  0  0  2  0  0  0  0  0  0
  1  3  1  0  0  0  0
  2  9  1  0  0  0  0
  3  5  1  0  0  0  0
  5  9  2  0  0  0  0
  6  2  2  0  0  0  0
  8  7  1  0  0  0  0
  8  4  1  0  0  0  0
  9  8  1  0  0  0  0
 10  6  1  0  0  0  0
 10  3  2  0  0  0  0
 11  6  1  0  0  0  0
 12 13  1  0  0  0  0
 12 11  1  0  0  0  0
 13 18  1  0  0  0  0
 14 22  1  0  0  0  0
 15 21  1  0  0  0  0
 16 15  2  0  0  0  0
 17 14  1  0  0  0  0
 17 19  1  0  0  0  0
 18 21  2  0  0  0  0
 19 20  1  0  0  0  0
 20 16  1  0  0  0  0
 20 13  2  0  0  0  0
 22 16  1  0  0  0  0
 23 10  1  0  0  0  0
 24 31  1  1  0  0  0
 24 26  1  0  0  0  0
 24 28  1  0  0  0  0
 25 26  2  0  0  0  0
 26 27  1  0  0  0  0
 27 30  1  0  0  0  0
 28 29  1  1  0  0  0
 28 30  1  0  0  0  0
 30 23  1  6  0  0  0
 32 33  1  0  0  0  0
 32 31  1  0  0  0  0
 34 39  1  0  0  0  0
 35 40  1  0  0  0  0
 35 33  1  1  0  0  0
 36 41  1  0  0  0  0
 38 37  1  1  0  0  0
 38 36  1  0  0  0  0
 38 35  1  0  0  0  0
 40 39  1  0  0  0  0
 41 34  1  0  0  0  0
M  END
>  <MODEL>
2

>  <REMARK>
 VINA RESULT:      -9.0      2.337      3.806
  Name = 
  9 active torsions:
  status: ('A' for Active; 'I' for Inactive)
    1  A    between atoms: C_1  and  C_34
    2  A    between atoms: C_4  and  C_11
    3  A    between atoms: C_9  and  O_25
    4  A    between atoms: C_9  and  C_34
    5  A    between atoms: C_10  and  O_25
    6  A    between atoms: C_11  and  N_23
    7  A    between atoms: N_23  and  C_24
    8  A    between atoms: C_31  and  C_38
    9  A    between atoms: C_31  and  C_41
                            x       y       z     vdW  Elec       q    Type
                         _______ _______ _______ _____ _____    ______ ____

>  <TORSDO>
F 9

$$$$
=
 OpenBabel10232412013D

 41 45  0  0  1  0  0  0  0  0999 V2000
  191.3540  176.3760  143.8520 N   0  0  0  0  0  1  0  0  0  0  0  0
  187.8530  177.6400  145.7850 C   0  0  0  0  0  3  0  0  0  0  0  0
  190.1500  176.7970  144.4860 C   0  0  0  0  0  0  0  0  0  0  0  0
  190.4550  177.9660  148.5260 C   0  0  0  0  0  1  0  0  0  0  0  0
  190.1870  177.1740  145.7910 N   0  0  0  0  0  0  0  0  0  0  0  0
  187.7630  177.2500  144.4480 C   0  0  0  0  0  0  0  0  0  0  0  0
  188.0080  178.4350  148.5840 C   0  0  0  0  0  1  0  0  0  0  0  0
  189.1750  177.9950  147.8350 N   0  0  0  0  0  0  0  0  0  0  0  0
  189.0790  177.5970  146.4570 C   0  0  0  0  0  0  0  0  0  0  0  0
  188.9370  176.8340  143.7720 C   0  0  0  0  0  0  0  0  0  0  0  0
  186.4690  177.3190  143.8310 N   0  0  0  0  0  2  0  0  0  0  0  0
  185.4950  178.3860  144.0060 C   0  0  0  0  0  2  0  0  0  0  0  0
  184.7140  178.5620  142.7470 C   0  0  0  0  0  0  0  0  0  0  0  0
  180.5430  179.4490  142.8880 C   0  0  0  0  0  2  0  0  0  0  0  0
  183.2730  178.8130  140.3530 C   0  0  0  0  0  3  0  0  0  0  0  0
  182.6070  178.8750  141.5780 C   0  0  0  0  0  0  0  0  0  0  0  0
  181.1430  178.6340  144.0340 C   0  0  0  0  0  2  0  0  0  0  0  0
  185.3770  178.5020  141.5150 C   0  0  0  0  0  3  0  0  0  0  0  0
  182.5990  178.7430  144.0180 N   0  0  0  0  0  2  0  0  0  0  0  0
  183.3200  178.7270  142.7790 C   0  0  0  0  0  0  0  0  0  0  0  0
  184.6580  178.6250  140.3220 C   0  0  0  0  0  3  0  0  0  0  0  0
  181.1930  179.0960  141.6280 N   0  0  0  0  0  2  0  0  0  0  0  0
  188.9480  176.4990  142.3080 C   0  0  0  0  0  2  0  0  0  0  0  0
  189.9390  177.3990  139.0470 C   0  0  1  0  0  3  0  0  0  0  0  0
  188.0780  178.8760  138.5890 O   0  0  0  0  0  0  0  0  0  0  0  0
  188.8010  178.2680  139.4210 C   0  0  0  0  0  0  0  0  0  0  0  0
  188.6060  178.3810  140.8130 N   0  0  0  0  0  2  0  0  0  0  0  0
  190.5240  177.0020  140.4010 C   0  0  1  0  0  3  0  0  0  0  0  0
  191.9190  177.5790  140.5390 C   0  0  0  0  0  1  0  0  0  0  0  0
  189.6190  177.5980  141.4930 C   0  0  2  0  0  3  0  0  0  0  0  0
  189.4450  176.1460  138.3370 C   0  0  0  0  0  2  0  0  0  0  0  0
  189.5100  176.3290  136.8330 C   0  0  0  0  0  2  0  0  0  0  0  0
  190.8440  176.3250  136.4240 O   0  0  0  0  0  0  0  0  0  0  0  0
  194.3420  175.8820  136.1850 C   0  0  0  0  0  2  0  0  0  0  0  0
  191.2820  175.0110  136.6300 C   0  0  1  0  0  3  0  0  0  0  0  0
  192.9620  174.4500  134.7040 C   0  0  0  0  0  2  0  0  0  0  0  0
  190.5910  174.6110  134.3460 O   0  0  0  0  0  1  0  0  0  0  0  0
  191.5610  174.2880  135.2980 C   0  0  2  0  0  3  0  0  0  0  0  0
  193.4470  176.1030  137.3980 C   0  0  0  0  0  2  0  0  0  0  0  0
  192.4560  174.9600  137.6140 C   0  0  0  0  0  2  0  0  0  0  0  0
  193.5490  175.8410  134.8890 C   0  0  0  0  0  2  0  0  0  0  0  0
  1  3  1  0  0  0  0
  2  9  1  0  0  0  0
  3  5  1  0  0  0  0
  5  9  2  0  0  0  0
  6  2  2  0  0  0  0
  8  4  1  0  0  0  0
  8  7  1  0  0  0  0
  9  8  1  0  0  0  0
 10  6  1  0  0  0  0
 10  3  2  0  0  0  0
 11 12  1  0  0  0  0
 11  6  1  0  0  0  0
 13 20  1  0  0  0  0
 13 12  1  0  0  0  0
 14 17  1  0  0  0  0
 15 16  1  0  0  0  0
 16 22  1  0  0  0  0
 16 20  2  0  0  0  0
 18 13  2  0  0  0  0
 19 17  1  0  0  0  0
 20 19  1  0  0  0  0
 21 15  2  0  0  0  0
 21 18  1  0  0  0  0
 22 14  1  0  0  0  0
 23 10  1  0  0  0  0
 24 31  1  1  0  0  0
 24 26  1  0  0  0  0
 24 28  1  0  0  0  0
 25 26  2  0  0  0  0
 26 27  1  0  0  0  0
 27 30  1  0  0  0  0
 28 29  1  1  0  0  0
 28 30  1  0  0  0  0
 30 23  1  6  0  0  0
 32 31  1  0  0  0  0
 33 32  1  0  0  0  0
 34 39  1  0  0  0  0
 35 33  1  6  0  0  0
 35 40  1  0  0  0  0
 36 41  1  0  0  0  0
 36 38  1  0  0  0  0
 38 37  1  6  0  0  0
 38 35  1  0  0  0  0
 39 40  1  0  0  0  0
 41 34  1  0  0  0  0
M  END
>  <MODEL>
3

>  <REMARK>
 VINA RESULT:      -8.6      1.255      2.166
  Name = 
  9 active torsions:
  status: ('A' for Active; 'I' for Inactive)
    1  A    between atoms: C_1  and  C_34
    2  A    between atoms: C_4  and  C_11
    3  A    between atoms: C_9  and  O_25
    4  A    between atoms: C_9  and  C_34
    5  A    between atoms: C_10  and  O_25
    6  A    between atoms: C_11  and  N_23
    7  A    between atoms: N_23  and  C_24
    8  A    between atoms: C_31  and  C_38
    9  A    between atoms: C_31  and  C_41
                            x       y       z     vdW  Elec       q    Type
                         _______ _______ _______ _____ _____    ______ ____

>  <TORSDO>
F 9

$$$$
=
 OpenBabel10232412013D

 41 45  0  0  1  0  0  0  0  0999 V2000
  190.5200  176.8790  137.6730 N   0  0  0  0  0  1  0  0  0  0  0  0
  186.3730  177.5080  137.6040 C   0  0  0  0  0  3  0  0  0  0  0  0
  189.1140  177.1090  137.6720 C   0  0  0  0  0  0  0  0  0  0  0  0
  186.9610  175.6200  134.3670 C   0  0  0  0  0  1  0  0  0  0  0  0
  188.3720  176.6620  136.6260 N   0  0  0  0  0  0  0  0  0  0  0  0
  187.0960  177.9970  138.6930 C   0  0  0  0  0  0  0  0  0  0  0  0
  184.8450  176.5190  135.3300 C   0  0  0  0  0  1  0  0  0  0  0  0
  186.2840  176.3340  135.4380 N   0  0  0  0  0  0  0  0  0  0  0  0
  187.0240  176.8370  136.5630 C   0  0  0  0  0  0  0  0  0  0  0  0
  188.4960  177.7830  138.7430 C   0  0  0  0  0  0  0  0  0  0  0  0
  186.3560  178.6790  139.7180 N   0  0  0  0  0  2  0  0  0  0  0  0
  184.9070  178.7480  139.8210 C   0  0  0  0  0  2  0  0  0  0  0  0
  184.5060  178.7130  141.2570 C   0  0  0  0  0  0  0  0  0  0  0  0
  180.3840  178.6450  142.3580 C   0  0  0  0  0  2  0  0  0  0  0  0
  183.8000  178.7190  143.9730 C   0  0  0  0  0  3  0  0  0  0  0  0
  182.8080  178.7980  142.9940 C   0  0  0  0  0  0  0  0  0  0  0  0
  180.7670  179.3410  141.0520 C   0  0  0  0  0  2  0  0  0  0  0  0
  185.4960  178.6330  142.2440 C   0  0  0  0  0  3  0  0  0  0  0  0
  182.1180  178.9540  140.6550 N   0  0  0  0  0  2  0  0  0  0  0  0
  183.1570  178.8190  141.6340 C   0  0  0  0  0  0  0  0  0  0  0  0
  185.1440  178.6380  143.5980 C   0  0  0  0  0  3  0  0  0  0  0  0
  181.4260  178.8540  143.3620 N   0  0  0  0  0  2  0  0  0  0  0  0
  189.3310  178.1830  139.9260 C   0  0  0  0  0  2  0  0  0  0  0  0
  191.7190  177.1820  142.3170 C   0  0  1  0  0  3  0  0  0  0  0  0
  190.4260  175.3660  143.2580 O   0  0  0  0  0  0  0  0  0  0  0  0
  190.6460  176.1640  142.3090 C   0  0  0  0  0  0  0  0  0  0  0  0
  189.8910  176.1440  141.1180 N   0  0  0  0  0  2  0  0  0  0  0  0
  191.6180  177.7950  140.9210 C   0  0  1  0  0  3  0  0  0  0  0  0
  192.8800  177.4860  140.1390 C   0  0  0  0  0  1  0  0  0  0  0  0
  190.4130  177.1500  140.2150 C   0  0  2  0  0  3  0  0  0  0  0  0
  191.4280  178.2590  143.3510 C   0  0  0  0  0  2  0  0  0  0  0  0
  189.9400  178.3320  143.6360 C   0  0  0  0  0  2  0  0  0  0  0  0
  189.7370  178.4300  145.0130 O   0  0  0  0  0  0  0  0  0  0  0  0
  187.4340  178.2830  147.6910 C   0  0  0  0  0  2  0  0  0  0  0  0
  189.3970  177.1330  145.4210 C   0  0  1  0  0  3  0  0  0  0  0  0
  189.5750  177.0800  148.0320 C   0  0  0  0  0  2  0  0  0  0  0  0
  191.5070  177.1450  146.6040 O   0  0  0  0  0  1  0  0  0  0  0  0
  190.1830  176.7080  146.6770 C   0  0  2  0  0  3  0  0  0  0  0  0
  187.2160  178.1990  146.1850 C   0  0  0  0  0  2  0  0  0  0  0  0
  187.8790  176.9700  145.5620 C   0  0  0  0  0  2  0  0  0  0  0  0
  188.9030  178.4440  148.0480 C   0  0  0  0  0  2  0  0  0  0  0  0
  2  6  1  0  0  0  0
  3  1  1  0  0  0  0
  3 10  1  0  0  0  0
  4  8  1  0  0  0  0
  5  3  2  0  0  0  0
  6 10  2  0  0  0  0
  6 11  1  0  0  0  0
  7  8  1  0  0  0  0
  8  9  1  0  0  0  0
  9  5  1  0  0  0  0
  9  2  2  0  0  0  0
 10 23  1  0  0  0  0
 11 12  1  0  0  0  0
 12 13  1  0  0  0  0
 13 20  2  0  0  0  0
 13 18  1  0  0  0  0
 14 22  1  0  0  0  0
 16 22  1  0  0  0  0
 16 15  2  0  0  0  0
 17 14  1  0  0  0  0
 18 21  2  0  0  0  0
 19 17  1  0  0  0  0
 19 20  1  0  0  0  0
 20 16  1  0  0  0  0
 21 15  1  0  0  0  0
 24 31  1  1  0  0  0
 26 24  1  0  0  0  0
 26 25  2  0  0  0  0
 27 26  1  0  0  0  0
 28 29  1  6  0  0  0
 28 24  1  0  0  0  0
 30 23  1  1  0  0  0
 30 28  1  0  0  0  0
 30 27  1  0  0  0  0
 31 32  1  0  0  0  0
 32 33  1  0  0  0  0
 34 41  1  0  0  0  0
 35 33  1  1  0  0  0
 35 40  1  0  0  0  0
 35 38  1  0  0  0  0
 36 41  1  0  0  0  0
 38 37  1  6  0  0  0
 38 36  1  0  0  0  0
 39 34  1  0  0  0  0
 40 39  1  0  0  0  0
M  END
>  <MODEL>
4

>  <REMARK>
 VINA RESULT:      -8.6      3.319      7.655
  Name = 
  9 active torsions:
  status: ('A' for Active; 'I' for Inactive)
    1  A    between atoms: C_1  and  C_34
    2  A    between atoms: C_4  and  C_11
    3  A    between atoms: C_9  and  O_25
    4  A    between atoms: C_9  and  C_34
    5  A    between atoms: C_10  and  O_25
    6  A    between atoms: C_11  and  N_23
    7  A    between atoms: N_23  and  C_24
    8  A    between atoms: C_31  and  C_38
    9  A    between atoms: C_31  and  C_41
                            x       y       z     vdW  Elec       q    Type
                         _______ _______ _______ _____ _____    ______ ____

>  <TORSDO>
F 9

$$$$
=
 OpenBabel10232412013D

 41 45  0  0  1  0  0  0  0  0999 V2000
  187.6930  178.4380  136.2850 N   0  0  0  0  0  1  0  0  0  0  0  0
  186.3440  178.4060  140.2570 C   0  0  0  0  0  3  0  0  0  0  0  0
  187.2610  178.4310  137.6430 C   0  0  0  0  0  0  0  0  0  0  0  0
  183.0960  178.4300  138.2970 C   0  0  0  0  0  1  0  0  0  0  0  0
  185.9300  178.4420  137.9130 N   0  0  0  0  0  0  0  0  0  0  0  0
  187.7200  178.4070  140.0290 C   0  0  0  0  0  0  0  0  0  0  0  0
  183.4740  178.4290  140.7600 C   0  0  0  0  0  1  0  0  0  0  0  0
  184.0260  178.4280  139.4140 N   0  0  0  0  0  0  0  0  0  0  0  0
  185.4450  178.4260  139.1840 C   0  0  0  0  0  0  0  0  0  0  0  0
  188.1970  178.4020  138.6940 C   0  0  0  0  0  0  0  0  0  0  0  0
  188.5750  178.3900  141.1820 N   0  0  0  0  0  2  0  0  0  0  0  0
  188.9570  177.2120  141.9450 C   0  0  0  0  0  2  0  0  0  0  0  0
  188.4990  177.3600  143.3560 C   0  0  0  0  0  0  0  0  0  0  0  0
  191.2940  177.1800  146.5750 C   0  0  0  0  0  2  0  0  0  0  0  0
  187.5790  177.5720  145.9990 C   0  0  0  0  0  3  0  0  0  0  0  0
  188.9260  177.3060  145.7480 C   0  0  0  0  0  0  0  0  0  0  0  0
  191.6090  176.3890  145.3050 C   0  0  0  0  0  2  0  0  0  0  0  0
  187.1490  177.6280  143.6150 C   0  0  0  0  0  3  0  0  0  0  0  0
  190.7660  176.8490  144.2050 N   0  0  0  0  0  2  0  0  0  0  0  0
  189.3880  177.1760  144.4280 C   0  0  0  0  0  0  0  0  0  0  0  0
  186.6900  177.7320  144.9310 C   0  0  0  0  0  3  0  0  0  0  0  0
  189.8550  177.1670  146.8290 N   0  0  0  0  0  2  0  0  0  0  0  0
  189.6580  178.2980  138.3610 C   0  0  0  0  0  2  0  0  0  0  0  0
  192.0900  175.9090  137.4650 C   0  0  1  0  0  3  0  0  0  0  0  0
  193.6700  176.4510  139.2160 O   0  0  0  0  0  0  0  0  0  0  0  0
  192.4950  176.4890  138.7650 C   0  0  0  0  0  0  0  0  0  0  0  0
  191.4320  177.0760  139.4810 N   0  0  0  0  0  2  0  0  0  0  0  0
  190.5790  176.1310  137.4490 C   0  0  1  0  0  3  0  0  0  0  0  0
  189.8690  174.7920  137.4720 C   0  0  0  0  0  1  0  0  0  0  0  0
  190.2100  176.9220  138.7160 C   0  0  2  0  0  3  0  0  0  0  0  0
  192.7150  176.6840  136.3150 C   0  0  0  0  0  2  0  0  0  0  0  0
  193.7450  175.8320  135.5990 C   0  0  0  0  0  2  0  0  0  0  0  0
  194.9190  175.7940  136.3530 O   0  0  0  0  0  0  0  0  0  0  0  0
  195.5290  173.0960  138.5530 C   0  0  0  0  0  2  0  0  0  0  0  0
  195.6700  174.7490  135.8010 C   0  0  1  0  0  3  0  0  0  0  0  0
  197.5340  174.1440  137.5370 C   0  0  0  0  0  2  0  0  0  0  0  0
  197.5970  176.1520  136.2170 O   0  0  0  0  0  1  0  0  0  0  0  0
  197.1510  174.8290  136.2210 C   0  0  2  0  0  3  0  0  0  0  0  0
  194.4510  173.2930  137.4940 C   0  0  0  0  0  2  0  0  0  0  0  0
  195.0250  173.3870  136.0800 C   0  0  0  0  0  2  0  0  0  0  0  0
  196.4820  174.2790  138.6260 C   0  0  0  0  0  2  0  0  0  0  0  0
  1  3  1  0  0  0  0
  3  5  2  0  0  0  0
  3 10  1  0  0  0  0
  4  8  1  0  0  0  0
  5  9  1  0  0  0  0
  6  2  1  0  0  0  0
  6 11  1  0  0  0  0
  8  7  1  0  0  0  0
  9  8  1  0  0  0  0
  9  2  2  0  0  0  0
 10  6  2  0  0  0  0
 11 12  1  0  0  0  0
 12 13  1  0  0  0  0
 13 18  2  0  0  0  0
 13 20  1  0  0  0  0
 14 22  1  0  0  0  0
 16 15  1  0  0  0  0
 16 22  1  0  0  0  0
 17 14  1  0  0  0  0
 18 21  1  0  0  0  0
 19 20  1  0  0  0  0
 19 17  1  0  0  0  0
 20 16  2  0  0  0  0
 21 15  2  0  0  0  0
 23 10  1  0  0  0  0
 24 31  1  6  0  0  0
 24 26  1  0  0  0  0
 26 25  2  0  0  0  0
 26 27  1  0  0  0  0
 28 24  1  0  0  0  0
 28 29  1  1  0  0  0
 28 30  1  0  0  0  0
 30 23  1  6  0  0  0
 30 27  1  0  0  0  0
 32 31  1  0  0  0  0
 32 33  1  0  0  0  0
 34 41  1  0  0  0  0
 35 40  1  0  0  0  0
 35 38  1  0  0  0  0
 35 33  1  1  0  0  0
 36 41  1  0  0  0  0
 38 37  1  1  0  0  0
 38 36  1  0  0  0  0
 39 34  1  0  0  0  0
 40 39  1  0  0  0  0
M  END
>  <MODEL>
5

>  <REMARK>
 VINA RESULT:      -8.3      2.036      6.054
  Name = 
  9 active torsions:
  status: ('A' for Active; 'I' for Inactive)
    1  A    between atoms: C_1  and  C_34
    2  A    between atoms: C_4  and  C_11
    3  A    between atoms: C_9  and  O_25
    4  A    between atoms: C_9  and  C_34
    5  A    between atoms: C_10  and  O_25
    6  A    between atoms: C_11  and  N_23
    7  A    between atoms: N_23  and  C_24
    8  A    between atoms: C_31  and  C_38
    9  A    between atoms: C_31  and  C_41
                            x       y       z     vdW  Elec       q    Type
                         _______ _______ _______ _____ _____    ______ ____

>  <TORSDO>
F 9

$$$$
=
 OpenBabel10232412013D

 41 45  0  0  1  0  0  0  0  0999 V2000
  181.3010  179.2670  140.6880 N   0  0  0  0  0  1  0  0  0  0  0  0
  182.8930  177.8890  137.0600 C   0  0  0  0  0  3  0  0  0  0  0  0
  181.8590  178.7820  139.4700 C   0  0  0  0  0  0  0  0  0  0  0  0
  179.9820  180.0310  135.9070 C   0  0  0  0  0  1  0  0  0  0  0  0
  181.2870  179.1430  138.2920 N   0  0  0  0  0  0  0  0  0  0  0  0
  183.5060  177.4810  138.2450 C   0  0  0  0  0  0  0  0  0  0  0  0
  181.6160  178.7050  134.5720 C   0  0  0  0  0  1  0  0  0  0  0  0
  181.1360  179.1460  135.8720 N   0  0  0  0  0  0  0  0  0  0  0  0
  181.7720  178.7260  137.0910 C   0  0  0  0  0  0  0  0  0  0  0  0
  182.9930  177.9470  139.4820 C   0  0  0  0  0  0  0  0  0  0  0  0
  184.6480  176.6190  138.1300 N   0  0  0  0  0  2  0  0  0  0  0  0
  185.3620  176.3090  136.9010 C   0  0  0  0  0  2  0  0  0  0  0  0
  186.7410  176.8720  136.9680 C   0  0  0  0  0  0  0  0  0  0  0  0
  190.1420  174.3640  136.3780 C   0  0  0  0  0  2  0  0  0  0  0  0
  189.3170  177.9650  137.1750 C   0  0  0  0  0  3  0  0  0  0  0  0
  189.1550  176.5920  136.9840 C   0  0  0  0  0  0  0  0  0  0  0  0
  188.8810  173.7360  136.9710 C   0  0  0  0  0  2  0  0  0  0  0  0
  186.9110  178.2490  137.1590 C   0  0  0  0  0  3  0  0  0  0  0  0
  187.7350  174.6160  136.7590 N   0  0  0  0  0  2  0  0  0  0  0  0
  187.8680  176.0360  136.9030 C   0  0  0  0  0  0  0  0  0  0  0  0
  188.1940  178.7940  137.2640 C   0  0  0  0  0  3  0  0  0  0  0  0
  190.2950  175.7340  136.8620 N   0  0  0  0  0  2  0  0  0  0  0  0
  183.6540  177.6420  140.7950 C   0  0  0  0  0  2  0  0  0  0  0  0
  186.3510  178.5900  142.8580 C   0  0  1  0  0  3  0  0  0  0  0  0
  187.9490  178.9510  141.0780 O   0  0  0  0  0  0  0  0  0  0  0  0
  186.7530  178.8440  141.4570 C   0  0  0  0  0  0  0  0  0  0  0  0
  185.6660  178.9820  140.5700 N   0  0  0  0  0  2  0  0  0  0  0  0
  184.8260  178.6510  142.7910 C   0  0  1  0  0  3  0  0  0  0  0  0
  184.3300  179.8330  143.6010 C   0  0  0  0  0  1  0  0  0  0  0  0
  184.4320  178.8450  141.3170 C   0  0  2  0  0  3  0  0  0  0  0  0
  186.7700  177.1920  143.2910 C   0  0  0  0  0  2  0  0  0  0  0  0
  187.2150  177.1980  144.7410 C   0  0  0  0  0  2  0  0  0  0  0  0
  188.5010  176.6630  144.8310 O   0  0  0  0  0  0  0  0  0  0  0  0
  191.7650  176.6800  143.4740 C   0  0  0  0  0  2  0  0  0  0  0  0
  189.3060  177.7270  145.2580 C   0  0  1  0  0  3  0  0  0  0  0  0
  191.6170  176.7110  145.9490 C   0  0  0  0  0  2  0  0  0  0  0  0
  189.6340  176.4350  147.2770 O   0  0  0  0  0  1  0  0  0  0  0  0
  190.2700  177.2970  146.3810 C   0  0  2  0  0  3  0  0  0  0  0  0
  190.5000  177.4070  143.0340 C   0  0  0  0  0  2  0  0  0  0  0  0
  190.0050  178.4100  144.0770 C   0  0  0  0  0  2  0  0  0  0  0  0
  191.5340  175.8290  144.7130 C   0  0  0  0  0  2  0  0  0  0  0  0
  2  9  2  0  0  0  0
  2  6  1  0  0  0  0
  3 10  1  0  0  0  0
  3  1  1  0  0  0  0
  5  3  2  0  0  0  0
  6 10  2  0  0  0  0
  7  8  1  0  0  0  0
  8  4  1  0  0  0  0
  8  9  1  0  0  0  0
  9  5  1  0  0  0  0
 10 23  1  0  0  0  0
 11  6  1  0  0  0  0
 12 13  1  0  0  0  0
 12 11  1  0  0  0  0
 13 18  1  0  0  0  0
 14 22  1  0  0  0  0
 14 17  1  0  0  0  0
 15 21  1  0  0  0  0
 16 15  2  0  0  0  0
 18 21  2  0  0  0  0
 19 20  1  0  0  0  0
 19 17  1  0  0  0  0
 20 13  2  0  0  0  0
 20 16  1  0  0  0  0
 22 16  1  0  0  0  0
 24 31  1  6  0  0  0
 25 26  2  0  0  0  0
 26 24  1  0  0  0  0
 27 30  1  0  0  0  0
 27 26  1  0  0  0  0
 28 24  1  0  0  0  0
 28 29  1  1  0  0  0
 30 23  1  6  0  0  0
 30 28  1  0  0  0  0
 31 32  1  0  0  0  0
 32 33  1  0  0  0  0
 34 41  1  0  0  0  0
 35 33  1  6  0  0  0
 35 38  1  0  0  0  0
 36 38  1  0  0  0  0
 38 37  1  6  0  0  0
 39 34  1  0  0  0  0
 39 40  1  0  0  0  0
 40 35  1  0  0  0  0
 41 36  1  0  0  0  0
M  END
>  <MODEL>
6

>  <REMARK>
 VINA RESULT:      -8.1      3.445      9.083
  Name = 
  9 active torsions:
  status: ('A' for Active; 'I' for Inactive)
    1  A    between atoms: C_1  and  C_34
    2  A    between atoms: C_4  and  C_11
    3  A    between atoms: C_9  and  O_25
    4  A    between atoms: C_9  and  C_34
    5  A    between atoms: C_10  and  O_25
    6  A    between atoms: C_11  and  N_23
    7  A    between atoms: N_23  and  C_24
    8  A    between atoms: C_31  and  C_38
    9  A    between atoms: C_31  and  C_41
                            x       y       z     vdW  Elec       q    Type
                         _______ _______ _______ _____ _____    ______ ____

>  <TORSDO>
F 9

$$$$
=
 OpenBabel10232412013D

 41 45  0  0  1  0  0  0  0  0999 V2000
  186.3640  178.7960  141.9840 N   0  0  0  0  0  1  0  0  0  0  0  0
  186.7570  177.9580  137.8930 C   0  0  0  0  0  3  0  0  0  0  0  0
  186.5250  178.5080  140.5980 C   0  0  0  0  0  0  0  0  0  0  0  0
  182.9920  178.1080  138.3310 C   0  0  0  0  0  1  0  0  0  0  0  0
  185.4210  178.3560  139.8220 N   0  0  0  0  0  0  0  0  0  0  0  0
  187.9200  178.0920  138.6520 C   0  0  0  0  0  0  0  0  0  0  0  0
  184.3450  177.6490  136.2890 C   0  0  0  0  0  1  0  0  0  0  0  0
  184.2980  177.9510  137.7110 N   0  0  0  0  0  0  0  0  0  0  0  0
  185.4990  178.0910  138.4900 C   0  0  0  0  0  0  0  0  0  0  0  0
  187.8100  178.3900  140.0340 C   0  0  0  0  0  0  0  0  0  0  0  0
  189.1720  177.9380  137.9670 N   0  0  0  0  0  2  0  0  0  0  0  0
  189.3460  177.4520  136.6070 C   0  0  0  0  0  2  0  0  0  0  0  0
  189.7040  176.0050  136.6340 C   0  0  0  0  0  0  0  0  0  0  0  0
  193.6420  174.7620  137.7100 C   0  0  0  0  0  2  0  0  0  0  0  0
  190.3490  173.2740  136.6020 C   0  0  0  0  0  3  0  0  0  0  0  0
  191.3390  174.2220  136.8680 C   0  0  0  0  0  0  0  0  0  0  0  0
  193.4770  176.1270  137.0420 C   0  0  0  0  0  2  0  0  0  0  0  0
  188.7150  175.0490  136.3710 C   0  0  0  0  0  3  0  0  0  0  0  0
  192.0770  176.5410  137.0850 N   0  0  0  0  0  2  0  0  0  0  0  0
  191.0270  175.5910  136.8620 C   0  0  0  0  0  0  0  0  0  0  0  0
  189.0370  173.6880  136.3530 C   0  0  0  0  0  3  0  0  0  0  0  0
  192.6810  173.8120  137.1530 N   0  0  0  0  0  2  0  0  0  0  0  0
  189.0090  178.6530  140.8990 C   0  0  0  0  0  2  0  0  0  0  0  0
  191.4700  176.9250  142.7390 C   0  0  1  0  0  3  0  0  0  0  0  0
  190.0860  175.0370  143.3480 O   0  0  0  0  0  0  0  0  0  0  0  0
  190.3060  176.0230  142.5970 C   0  0  0  0  0  0  0  0  0  0  0  0
  189.4620  176.3490  141.5160 N   0  0  0  0  0  2  0  0  0  0  0  0
  191.3190  177.8650  141.5440 C   0  0  1  0  0  3  0  0  0  0  0  0
  192.4800  177.6630  140.5900 C   0  0  0  0  0  1  0  0  0  0  0  0
  190.0060  177.5030  140.8280 C   0  0  2  0  0  3  0  0  0  0  0  0
  191.3650  177.7370  144.0210 C   0  0  0  0  0  2  0  0  0  0  0  0
  189.9780  178.3360  144.1580 C   0  0  0  0  0  2  0  0  0  0  0  0
  189.6400  178.4160  145.5100 O   0  0  0  0  0  0  0  0  0  0  0  0
  186.4410  178.4350  147.0120 C   0  0  0  0  0  2  0  0  0  0  0  0
  189.1390  177.1480  145.8330 C   0  0  1  0  0  3  0  0  0  0  0  0
  188.2320  177.2840  148.2840 C   0  0  0  0  0  2  0  0  0  0  0  0
  190.5800  177.2690  147.7720 O   0  0  0  0  0  1  0  0  0  0  0  0
  189.3340  176.8230  147.3270 C   0  0  2  0  0  3  0  0  0  0  0  0
  186.8580  178.2410  145.5600 C   0  0  0  0  0  2  0  0  0  0  0  0
  187.6940  176.9780  145.3510 C   0  0  0  0  0  2  0  0  0  0  0  0
  187.6380  178.6380  147.9280 C   0  0  0  0  0  2  0  0  0  0  0  0
  2  9  2  0  0  0  0
  2  6  1  0  0  0  0
  3  1  1  0  0  0  0
  5  3  2  0  0  0  0
  6 10  2  0  0  0  0
  7  8  1  0  0  0  0
  8  4  1  0  0  0  0
  8  9  1  0  0  0  0
  9  5  1  0  0  0  0
 10  3  1  0  0  0  0
 10 23  1  0  0  0  0
 11  6  1  0  0  0  0
 12 13  1  0  0  0  0
 12 11  1  0  0  0  0
 13 20  1  0  0  0  0
 15 16  1  0  0  0  0
 16 22  1  0  0  0  0
 17 19  1  0  0  0  0
 17 14  1  0  0  0  0
 18 13  2  0  0  0  0
 20 16  2  0  0  0  0
 20 19  1  0  0  0  0
 21 18  1  0  0  0  0
 21 15  2  0  0  0  0
 22 14  1  0  0  0  0
 24 31  1  1  0  0  0
 26 24  1  0  0  0  0
 26 25  2  0  0  0  0
 27 26  1  0  0  0  0
 28 29  1  6  0  0  0
 28 24  1  0  0  0  0
 30 23  1  1  0  0  0
 30 27  1  0  0  0  0
 30 28  1  0  0  0  0
 31 32  1  0  0  0  0
 32 33  1  0  0  0  0
 34 41  1  0  0  0  0
 35 33  1  1  0  0  0
 35 38  1  0  0  0  0
 38 37  1  1  0  0  0
 38 36  1  0  0  0  0
 39 34  1  0  0  0  0
 40 39  1  0  0  0  0
 40 35  1  0  0  0  0
 41 36  1  0  0  0  0
M  END
>  <MODEL>
7

>  <REMARK>
 VINA RESULT:      -8.0      3.030      9.269
  Name = 
  9 active torsions:
  status: ('A' for Active; 'I' for Inactive)
    1  A    between atoms: C_1  and  C_34
    2  A    between atoms: C_4  and  C_11
    3  A    between atoms: C_9  and  O_25
    4  A    between atoms: C_9  and  C_34
    5  A    between atoms: C_10  and  O_25
    6  A    between atoms: C_11  and  N_23
    7  A    between atoms: N_23  and  C_24
    8  A    between atoms: C_31  and  C_38
    9  A    between atoms: C_31  and  C_41
                            x       y       z     vdW  Elec       q    Type
                         _______ _______ _______ _____ _____    ______ ____

>  <TORSDO>
F 9

$$$$
=
 OpenBabel10232412013D

 41 45  0  0  1  0  0  0  0  0999 V2000
  193.8520  177.6220  139.9360 N   0  0  0  0  0  1  0  0  0  0  0  0
  192.2600  174.5670  137.5430 C   0  0  0  0  0  3  0  0  0  0  0  0
  193.2860  176.5970  139.1250 C   0  0  0  0  0  0  0  0  0  0  0  0
  195.9830  173.8520  137.4000 C   0  0  0  0  0  1  0  0  0  0  0  0
  194.1090  175.6920  138.5340 N   0  0  0  0  0  0  0  0  0  0  0  0
  191.3770  175.4810  138.1190 C   0  0  0  0  0  0  0  0  0  0  0  0
  194.0850  172.6610  136.3090 C   0  0  0  0  0  1  0  0  0  0  0  0
  194.5520  173.7430  137.1620 N   0  0  0  0  0  0  0  0  0  0  0  0
  193.6390  174.6800  137.7550 C   0  0  0  0  0  0  0  0  0  0  0  0
  191.8930  176.5130  138.9430 C   0  0  0  0  0  0  0  0  0  0  0  0
  189.9780  175.3000  137.8490 N   0  0  0  0  0  2  0  0  0  0  0  0
  189.3120  175.5600  136.5830 C   0  0  0  0  0  2  0  0  0  0  0  0
  188.0170  176.2550  136.8320 C   0  0  0  0  0  0  0  0  0  0  0  0
  184.4710  174.0190  137.6310 C   0  0  0  0  0  2  0  0  0  0  0  0
  185.5890  177.6070  137.2240 C   0  0  0  0  0  3  0  0  0  0  0  0
  185.6130  176.2110  137.1880 C   0  0  0  0  0  0  0  0  0  0  0  0
  185.5420  173.3770  136.7490 C   0  0  0  0  0  2  0  0  0  0  0  0
  187.9860  177.6550  136.8700 C   0  0  0  0  0  3  0  0  0  0  0  0
  186.8040  174.0990  136.8850 N   0  0  0  0  0  2  0  0  0  0  0  0
  186.8210  175.5300  136.9690 C   0  0  0  0  0  0  0  0  0  0  0  0
  186.7760  178.3280  137.0640 C   0  0  0  0  0  3  0  0  0  0  0  0
  184.4110  175.4570  137.3790 N   0  0  0  0  0  2  0  0  0  0  0  0
  191.0060  177.4720  139.6830 C   0  0  0  0  0  2  0  0  0  0  0  0
  189.2400  177.5390  142.7330 C   0  0  1  0  0  3  0  0  0  0  0  0
  187.1870  178.4610  141.8450 O   0  0  0  0  0  0  0  0  0  0  0  0
  188.2790  177.8630  141.6570 C   0  0  0  0  0  0  0  0  0  0  0  0
  188.6820  177.4150  140.3810 N   0  0  0  0  0  2  0  0  0  0  0  0
  190.3180  176.7420  142.0000 C   0  0  1  0  0  3  0  0  0  0  0  0
  190.3340  175.3170  142.5170 C   0  0  0  0  0  1  0  0  0  0  0  0
  189.9550  176.7350  140.5050 C   0  0  2  0  0  3  0  0  0  0  0  0
  189.8630  178.8090  143.2950 C   0  0  0  0  0  2  0  0  0  0  0  0
  190.4870  178.5390  144.6500 C   0  0  0  0  0  2  0  0  0  0  0  0
  189.5070  178.6400  145.6390 O   0  0  0  0  0  0  0  0  0  0  0  0
  186.3800  178.3850  147.2670 C   0  0  0  0  0  2  0  0  0  0  0  0
  189.0570  177.3290  145.8380 C   0  0  1  0  0  3  0  0  0  0  0  0
  188.2590  177.1610  148.3260 C   0  0  0  0  0  2  0  0  0  0  0  0
  190.5810  177.2820  147.7170 O   0  0  0  0  0  1  0  0  0  0  0  0
  189.3290  176.8460  147.2770 C   0  0  2  0  0  3  0  0  0  0  0  0
  186.7350  178.3670  145.7860 C   0  0  0  0  0  2  0  0  0  0  0  0
  187.5970  177.1640  145.4010 C   0  0  0  0  0  2  0  0  0  0  0  0
  187.6110  178.5250  148.1490 C   0  0  0  0  0  2  0  0  0  0  0  0
  2  9  2  0  0  0  0
  2  6  1  0  0  0  0
  3  1  1  0  0  0  0
  5  3  2  0  0  0  0
  6 10  2  0  0  0  0
  7  8  1  0  0  0  0
  8  4  1  0  0  0  0
  8  9  1  0  0  0  0
  9  5  1  0  0  0  0
 10  3  1  0  0  0  0
 10 23  1  0  0  0  0
 11  6  1  0  0  0  0
 12 13  1  0  0  0  0
 12 11  1  0  0  0  0
 13 18  2  0  0  0  0
 13 20  1  0  0  0  0
 16 15  1  0  0  0  0
 16 22  1  0  0  0  0
 17 19  1  0  0  0  0
 17 14  1  0  0  0  0
 18 21  1  0  0  0  0
 19 20  1  0  0  0  0
 20 16  2  0  0  0  0
 21 15  2  0  0  0  0
 22 14  1  0  0  0  0
 24 31  1  6  0  0  0
 26 25  2  0  0  0  0
 26 24  1  0  0  0  0
 27 30  1  0  0  0  0
 27 26  1  0  0  0  0
 28 29  1  1  0  0  0
 28 24  1  0  0  0  0
 30 23  1  6  0  0  0
 30 28  1  0  0  0  0
 31 32  1  0  0  0  0
 32 33  1  0  0  0  0
 34 41  1  0  0  0  0
 35 33  1  1  0  0  0
 35 38  1  0  0  0  0
 38 37  1  1  0  0  0
 38 36  1  0  0  0  0
 39 34  1  0  0  0  0
 40 39  1  0  0  0  0
 40 35  1  0  0  0  0
 41 36  1  0  0  0  0
M  END
>  <MODEL>
8

>  <REMARK>
 VINA RESULT:      -7.9      3.589      8.654
  Name = 
  9 active torsions:
  status: ('A' for Active; 'I' for Inactive)
    1  A    between atoms: C_1  and  C_34
    2  A    between atoms: C_4  and  C_11
    3  A    between atoms: C_9  and  O_25
    4  A    between atoms: C_9  and  C_34
    5  A    between atoms: C_10  and  O_25
    6  A    between atoms: C_11  and  N_23
    7  A    between atoms: N_23  and  C_24
    8  A    between atoms: C_31  and  C_38
    9  A    between atoms: C_31  and  C_41
                            x       y       z     vdW  Elec       q    Type
                         _______ _______ _______ _____ _____    ______ ____

>  <TORSDO>
F 9

$$$$
=
 OpenBabel10232412013D

 41 45  0  0  1  0  0  0  0  0999 V2000
  189.4450  173.1230  136.2370 N   0  0  0  0  0  1  0  0  0  0  0  0
  192.6930  175.3230  137.7220 C   0  0  0  0  0  3  0  0  0  0  0  0
  190.5310  173.8860  136.7560 C   0  0  0  0  0  0  0  0  0  0  0  0
  194.4100  172.4790  135.8910 C   0  0  0  0  0  1  0  0  0  0  0  0
  191.8030  173.4720  136.5180 N   0  0  0  0  0  0  0  0  0  0  0  0
  191.4050  175.7790  138.0030 C   0  0  0  0  0  0  0  0  0  0  0  0
  195.3930  174.3780  137.1710 C   0  0  0  0  0  1  0  0  0  0  0  0
  194.2120  173.6820  136.6840 N   0  0  0  0  0  0  0  0  0  0  0  0
  192.8870  174.1570  136.9740 C   0  0  0  0  0  0  0  0  0  0  0  0
  190.2930  175.0590  137.4980 C   0  0  0  0  0  0  0  0  0  0  0  0
  191.2900  176.9810  138.7800 N   0  0  0  0  0  2  0  0  0  0  0  0
  191.6360  177.1250  140.1850 C   0  0  0  0  0  2  0  0  0  0  0  0
  190.4100  177.4480  140.9720 C   0  0  0  0  0  0  0  0  0  0  0  0
  190.5160  177.4860  145.2370 C   0  0  0  0  0  2  0  0  0  0  0  0
  188.0620  177.9920  142.4080 C   0  0  0  0  0  3  0  0  0  0  0  0
  189.2280  177.6350  143.0870 C   0  0  0  0  0  0  0  0  0  0  0  0
  191.4730  176.5460  144.5030 C   0  0  0  0  0  2  0  0  0  0  0  0
  189.2370  177.8080  140.2970 C   0  0  0  0  0  3  0  0  0  0  0  0
  191.5660  176.9240  143.0960 N   0  0  0  0  0  2  0  0  0  0  0  0
  190.4000  177.3390  142.3720 C   0  0  0  0  0  0  0  0  0  0  0  0
  188.0670  178.0780  141.0120 C   0  0  0  0  0  3  0  0  0  0  0  0
  189.2470  177.5710  144.5170 N   0  0  0  0  0  2  0  0  0  0  0  0
  188.8800  175.5370  137.6650 C   0  0  0  0  0  2  0  0  0  0  0  0
  186.3090  177.6370  136.4770 C   0  0  1  0  0  3  0  0  0  0  0  0
  187.4710  179.7280  136.8360 O   0  0  0  0  0  0  0  0  0  0  0  0
  187.5070  178.4780  136.6900 C   0  0  0  0  0  0  0  0  0  0  0  0
  188.7170  177.7550  136.6900 N   0  0  0  0  0  2  0  0  0  0  0  0
  186.9040  176.2460  136.2620 C   0  0  1  0  0  3  0  0  0  0  0  0
  186.6160  175.7850  134.8460 C   0  0  0  0  0  1  0  0  0  0  0  0
  188.4250  176.3540  136.4600 C   0  0  2  0  0  3  0  0  0  0  0  0
  185.4410  177.6140  137.7270 C   0  0  0  0  0  2  0  0  0  0  0  0
  183.9990  177.9260  137.3770 C   0  0  0  0  0  2  0  0  0  0  0  0
  183.3600  178.4690  138.4920 O   0  0  0  0  0  0  0  0  0  0  0  0
  180.7480  177.9050  140.8050 C   0  0  0  0  0  2  0  0  0  0  0  0
  183.6920  177.6150  139.5510 C   0  0  1  0  0  3  0  0  0  0  0  0
  182.8710  178.7670  141.7530 C   0  0  0  0  0  2  0  0  0  0  0  0
  184.7880  179.5380  140.5260 O   0  0  0  0  0  1  0  0  0  0  0  0
  184.0370  178.4010  140.8310 C   0  0  2  0  0  3  0  0  0  0  0  0
  181.2020  177.0930  139.5990 C   0  0  0  0  0  2  0  0  0  0  0  0
  182.6180  176.5410  139.7610 C   0  0  0  0  0  2  0  0  0  0  0  0
  181.5990  179.1480  141.0110 C   0  0  0  0  0  2  0  0  0  0  0  0
  1  3  1  0  0  0  0
  2  6  1  0  0  0  0
  3 10  1  0  0  0  0
  4  8  1  0  0  0  0
  5  3  2  0  0  0  0
  5  9  1  0  0  0  0
  6 11  1  0  0  0  0
  8  9  1  0  0  0  0
  8  7  1  0  0  0  0
  9  2  2  0  0  0  0
 10 23  1  0  0  0  0
 10  6  2  0  0  0  0
 11 12  1  0  0  0  0
 12 13  1  0  0  0  0
 13 20  1  0  0  0  0
 15 16  1  0  0  0  0
 16 22  1  0  0  0  0
 17 14  1  0  0  0  0
 18 13  2  0  0  0  0
 18 21  1  0  0  0  0
 19 17  1  0  0  0  0
 20 16  2  0  0  0  0
 20 19  1  0  0  0  0
 21 15  2  0  0  0  0
 22 14  1  0  0  0  0
 24 26  1  0  0  0  0
 24 31  1  1  0  0  0
 26 25  2  0  0  0  0
 27 26  1  0  0  0  0
 28 29  1  6  0  0  0
 28 30  1  0  0  0  0
 28 24  1  0  0  0  0
 30 27  1  0  0  0  0
 30 23  1  1  0  0  0
 32 31  1  0  0  0  0
 32 33  1  0  0  0  0
 34 41  1  0  0  0  0
 35 33  1  6  0  0  0
 35 40  1  0  0  0  0
 35 38  1  0  0  0  0
 38 37  1  6  0  0  0
 38 36  1  0  0  0  0
 39 40  1  0  0  0  0
 39 34  1  0  0  0  0
 41 36  1  0  0  0  0
M  END
>  <MODEL>
9

>  <REMARK>
 VINA RESULT:      -7.8      3.002      9.100
  Name = 
  9 active torsions:
  status: ('A' for Active; 'I' for Inactive)
    1  A    between atoms: C_1  and  C_34
    2  A    between atoms: C_4  and  C_11
    3  A    between atoms: C_9  and  O_25
    4  A    between atoms: C_9  and  C_34
    5  A    between atoms: C_10  and  O_25
    6  A    between atoms: C_11  and  N_23
    7  A    between atoms: N_23  and  C_24
    8  A    between atoms: C_31  and  C_38
    9  A    between atoms: C_31  and  C_41
                            x       y       z     vdW  Elec       q    Type
                         _______ _______ _______ _____ _____    ______ ____

>  <TORSDO>
F 9

$$$$
