=
 OpenBabel10232409543D

 34 37  0  0  1  0  0  0  0  0999 V2000
  190.3890  176.2610  138.5930 C   0  0  1  0  0  3  0  0  0  0  0  0
  185.9760  177.7480  137.0310 O   0  0  0  0  0  0  0  0  0  0  0  0
  188.4270  175.3390  137.4860 N   0  0  0  0  0  0  0  0  0  0  0  0
  187.1120  175.6390  136.9820 C   0  0  0  0  0  2  0  0  0  0  0  0
  186.9700  177.0870  137.2860 C   0  0  0  0  0  0  0  0  0  0  0  0
  188.1910  177.6190  137.9500 C   0  0  1  0  0  3  0  0  0  0  0  0
  189.0140  176.3650  137.9900 C   0  0  0  0  0  0  0  0  0  0  0  0
  188.8390  178.6950  137.1250 C   0  0  0  0  0  3  0  0  0  0  0  0
  188.9630  179.8350  137.5440 O   0  0  0  0  0  0  0  0  0  0  0  0
  191.4580  176.1370  137.5100 C   0  0  1  0  0  3  0  0  0  0  0  0
  192.6050  176.8890  137.8770 O   0  0  0  0  0  0  0  0  0  0  0  0
  193.7200  176.1120  138.0500 N   0  0  0  0  0  0  0  0  0  0  0  0
  191.9920  174.7020  137.4360 C   0  0  0  0  0  2  0  0  0  0  0  0
  193.4270  174.8830  137.8140 C   0  0  0  0  0  0  0  0  0  0  0  0
  194.6650  173.0620  136.6040 C   0  0  0  0  0  1  0  0  0  0  0  0
  194.4470  173.7890  137.9230 C   0  0  1  0  0  3  0  0  0  0  0  0
  195.7430  174.3190  138.4470 C   0  0  0  0  0  0  0  0  0  0  0  0
  196.6530  174.8950  137.5700 O   0  0  0  0  0  0  0  0  0  0  0  0
  196.0340  174.2190  139.6710 O   0  0  0  0  0  1  0  0  0  0  0  0
  190.6610  177.4270  139.4260 N   0  0  0  0  0  2  0  0  0  0  0  0
  192.0030  177.2820  141.3160 O   0  0  0  0  0  1  0  0  0  0  0  0
  190.7450  176.9760  140.8010 C   0  0  1  0  0  3  0  0  0  0  0  0
  189.6710  177.6710  141.6210 C   0  0  0  0  0  2  0  0  0  0  0  0
  188.9360  176.6690  142.4970 C   0  0  0  0  0  2  0  0  0  0  0  0
  189.7510  176.2840  143.5660 O   0  0  0  0  0  0  0  0  0  0  0  0
  187.1930  177.6070  146.6810 C   0  0  0  0  0  3  0  0  0  0  0  0
  189.9510  177.4540  144.3060 C   0  0  1  0  0  3  0  0  0  0  0  0
  189.3450  177.1660  146.7110 C   0  0  0  0  0  0  0  0  0  0  0  0
  189.0310  177.4790  145.4440 N   0  0  0  0  0  0  0  0  0  0  0  0
  191.4050  177.5110  144.7960 C   0  0  0  0  0  2  0  0  0  0  0  0
  191.6250  176.5290  145.9530 C   0  0  0  0  0  2  0  0  0  0  0  0
  188.2380  177.2500  147.5270 C   0  0  0  0  0  3  0  0  0  0  0  0
  190.7480  176.8910  147.1560 C   0  0  0  0  0  2  0  0  0  0  0  0
  187.7150  177.7360  145.3990 C   0  0  0  0  0  3  0  0  0  0  0  0
  1 20  1  6  0  0  0
  2  5  2  0  0  0  0
  3  7  2  0  0  0  0
  4  5  1  0  0  0  0
  4  3  1  0  0  0  0
  5  6  1  0  0  0  0
  6  8  1  6  0  0  0
  6  7  1  0  0  0  0
  7  1  1  0  0  0  0
  8  9  2  0  0  0  0
 10 11  1  0  0  0  0
 10  1  1  1  0  0  0
 11 12  1  0  0  0  0
 13 10  1  0  0  0  0
 13 14  1  0  0  0  0
 14 16  1  0  0  0  0
 14 12  2  0  0  0  0
 16 15  1  6  0  0  0
 16 17  1  0  0  0  0
 17 19  1  0  0  0  0
 18 17  2  0  0  0  0
 20 22  1  0  0  0  0
 22 21  1  1  0  0  0
 22 23  1  0  0  0  0
 23 24  1  0  0  0  0
 24 25  1  0  0  0  0
 26 32  1  0  0  0  0
 27 25  1  1  0  0  0
 27 30  1  0  0  0  0
 27 29  1  0  0  0  0
 28 33  1  0  0  0  0
 28 32  2  0  0  0  0
 29 28  1  0  0  0  0
 30 31  1  0  0  0  0
 31 33  1  0  0  0  0
 34 29  1  0  0  0  0
 34 26  2  0  0  0  0
M  END
>  <MODEL>
1

>  <REMARK>
 VINA RESULT:      -8.0      0.000      0.000
  Name = 
  11 active torsions:
  status: ('A' for Active; 'I' for Inactive)
    1  A    between atoms: C_2  and  C_25
    2  A    between atoms: C_3  and  O_13
    3  A    between atoms: C_5  and  C_15
    4  A    between atoms: C_5  and  C_30
    5  A    between atoms: N_8  and  C_25
    6  A    between atoms: N_8  and  C_30
    7  A    between atoms: C_9  and  C_33
    8  A    between atoms: O_13  and  C_15
    9  A    between atoms: C_19  and  C_28
   10  A    between atoms: C_25  and  C_31
   11  A    between atoms: C_27  and  C_33
                            x       y       z     vdW  Elec       q    Type
                         _______ _______ _______ _____ _____    ______ ____

>  <TORSDO>
F 11

$$$$
=
 OpenBabel10232409543D

 34 37  0  0  1  0  0  0  0  0999 V2000
  190.0060  177.4870  139.4450 C   0  0  1  0  0  3  0  0  0  0  0  0
  191.5030  175.3530  135.2830 O   0  0  0  0  0  0  0  0  0  0  0  0
  189.2040  175.8540  137.8280 N   0  0  0  0  0  0  0  0  0  0  0  0
  189.5190  175.1540  136.6100 C   0  0  0  0  0  2  0  0  0  0  0  0
  190.8670  175.6810  136.2710 C   0  0  0  0  0  0  0  0  0  0  0  0
  191.3290  176.6660  137.2860 C   0  0  1  0  0  3  0  0  0  0  0  0
  190.1440  176.6450  138.2060 C   0  0  0  0  0  0  0  0  0  0  0  0
  192.5840  176.2010  137.9680 C   0  0  0  0  0  3  0  0  0  0  0  0
  193.5350  176.9480  138.1350 O   0  0  0  0  0  0  0  0  0  0  0  0
  189.0540  178.6580  139.2140 C   0  0  1  0  0  3  0  0  0  0  0  0
  189.0630  179.0210  137.8420 O   0  0  0  0  0  0  0  0  0  0  0  0
  187.8450  178.8530  137.2380 N   0  0  0  0  0  0  0  0  0  0  0  0
  187.6020  178.2320  139.4520 C   0  0  0  0  0  2  0  0  0  0  0  0
  186.9970  178.4150  138.0980 C   0  0  0  0  0  0  0  0  0  0  0  0
  185.3280  176.6550  137.4410 C   0  0  0  0  0  1  0  0  0  0  0  0
  185.5710  178.1300  137.7300 C   0  0  1  0  0  3  0  0  0  0  0  0
  184.6380  178.6130  138.7940 C   0  0  0  0  0  0  0  0  0  0  0  0
  184.6280  179.9590  139.1370 O   0  0  0  0  0  0  0  0  0  0  0  0
  183.8850  177.8080  139.4070 O   0  0  0  0  0  1  0  0  0  0  0  0
  189.5270  176.6720  140.5560 N   0  0  0  0  0  2  0  0  0  0  0  0
  191.5190  177.5280  141.3900 O   0  0  0  0  0  1  0  0  0  0  0  0
  190.6460  176.4440  141.4500 C   0  0  1  0  0  3  0  0  0  0  0  0
  190.1250  176.2800  142.8680 C   0  0  0  0  0  2  0  0  0  0  0  0
  190.3970  177.5340  143.6850 C   0  0  0  0  0  2  0  0  0  0  0  0
  189.1880  178.1150  144.0810 O   0  0  0  0  0  0  0  0  0  0  0  0
  188.9100  177.8570  148.3060 C   0  0  0  0  0  3  0  0  0  0  0  0
  188.5090  177.1020  144.7650 C   0  0  1  0  0  3  0  0  0  0  0  0
  187.3250  177.9600  146.7890 C   0  0  0  0  0  0  0  0  0  0  0  0
  188.4090  177.4500  146.1830 N   0  0  0  0  0  0  0  0  0  0  0  0
  187.1090  176.9230  144.1610 C   0  0  0  0  0  2  0  0  0  0  0  0
  186.1860  178.0720  144.5820 C   0  0  0  0  0  2  0  0  0  0  0  0
  187.5790  178.2130  148.1190 C   0  0  0  0  0  3  0  0  0  0  0  0
  186.0010  178.1000  146.1030 C   0  0  0  0  0  2  0  0  0  0  0  0
  189.3970  177.3940  147.0900 C   0  0  0  0  0  3  0  0  0  0  0  0
  1 20  1  1  0  0  0
  2  5  2  0  0  0  0
  3  7  2  0  0  0  0
  4  3  1  0  0  0  0
  5  4  1  0  0  0  0
  5  6  1  0  0  0  0
  6  8  1  1  0  0  0
  6  7  1  0  0  0  0
  7  1  1  0  0  0  0
  8  9  2  0  0  0  0
 10  1  1  6  0  0  0
 10 13  1  0  0  0  0
 11 10  1  0  0  0  0
 12 11  1  0  0  0  0
 12 14  2  0  0  0  0
 14 13  1  0  0  0  0
 16 15  1  1  0  0  0
 16 14  1  0  0  0  0
 16 17  1  0  0  0  0
 17 18  2  0  0  0  0
 17 19  1  0  0  0  0
 20 22  1  0  0  0  0
 22 21  1  1  0  0  0
 22 23  1  0  0  0  0
 23 24  1  0  0  0  0
 24 25  1  0  0  0  0
 27 25  1  6  0  0  0
 27 29  1  0  0  0  0
 28 32  2  0  0  0  0
 29 28  1  0  0  0  0
 29 34  1  0  0  0  0
 30 31  1  0  0  0  0
 30 27  1  0  0  0  0
 31 33  1  0  0  0  0
 32 26  1  0  0  0  0
 33 28  1  0  0  0  0
 34 26  2  0  0  0  0
M  END
>  <MODEL>
2

>  <REMARK>
 VINA RESULT:      -8.0      2.113      5.646
  Name = 
  11 active torsions:
  status: ('A' for Active; 'I' for Inactive)
    1  A    between atoms: C_2  and  C_25
    2  A    between atoms: C_3  and  O_13
    3  A    between atoms: C_5  and  C_15
    4  A    between atoms: C_5  and  C_30
    5  A    between atoms: N_8  and  C_25
    6  A    between atoms: N_8  and  C_30
    7  A    between atoms: C_9  and  C_33
    8  A    between atoms: O_13  and  C_15
    9  A    between atoms: C_19  and  C_28
   10  A    between atoms: C_25  and  C_31
   11  A    between atoms: C_27  and  C_33
                            x       y       z     vdW  Elec       q    Type
                         _______ _______ _______ _____ _____    ______ ____

>  <TORSDO>
F 11

$$$$
=
 OpenBabel10232409543D

 34 37  0  0  1  0  0  0  0  0999 V2000
  186.4500  178.0160  139.1940 C   0  0  1  0  0  3  0  0  0  0  0  0
  181.8590  179.0900  140.5710 O   0  0  0  0  0  0  0  0  0  0  0  0
  184.7430  179.6920  138.7440 N   0  0  0  0  0  0  0  0  0  0  0  0
  183.4050  180.1220  139.0600 C   0  0  0  0  0  2  0  0  0  0  0  0
  182.9620  179.1050  140.0490 C   0  0  0  0  0  0  0  0  0  0  0  0
  184.0330  178.1050  140.3080 C   0  0  1  0  0  3  0  0  0  0  0  0
  185.0960  178.6420  139.3950 C   0  0  0  0  0  0  0  0  0  0  0  0
  184.4630  178.1240  141.7480 C   0  0  0  0  0  3  0  0  0  0  0  0
  184.8330  179.1530  142.2920 O   0  0  0  0  0  0  0  0  0  0  0  0
  186.8530  178.0330  137.7220 C   0  0  1  0  0  3  0  0  0  0  0  0
  188.0440  178.7880  137.5580 O   0  0  0  0  0  0  0  0  0  0  0  0
  189.0890  178.0390  137.0870 N   0  0  0  0  0  0  0  0  0  0  0  0
  187.2620  176.6320  137.2550 C   0  0  0  0  0  2  0  0  0  0  0  0
  188.7010  176.8280  136.9020 C   0  0  0  0  0  0  0  0  0  0  0  0
  190.7620  176.3400  135.5510 C   0  0  0  0  0  1  0  0  0  0  0  0
  189.6290  175.7660  136.3910 C   0  0  1  0  0  3  0  0  0  0  0  0
  190.1760  174.9480  137.5160 C   0  0  0  0  0  0  0  0  0  0  0  0
  190.0480  173.5660  137.4840 O   0  0  0  0  0  0  0  0  0  0  0  0
  190.7210  175.5020  138.5100 O   0  0  0  0  0  1  0  0  0  0  0  0
  187.4500  178.7180  139.9900 N   0  0  0  0  0  2  0  0  0  0  0  0
  189.6200  177.9800  140.3680 O   0  0  0  0  0  1  0  0  0  0  0  0
  188.2780  177.7200  140.6390 C   0  0  1  0  0  3  0  0  0  0  0  0
  188.0360  177.7680  142.1380 C   0  0  0  0  0  2  0  0  0  0  0  0
  188.6520  176.5550  142.8170 C   0  0  0  0  0  2  0  0  0  0  0  0
  188.1880  176.4610  144.1330 O   0  0  0  0  0  0  0  0  0  0  0  0
  185.2730  178.5830  146.3690 C   0  0  0  0  0  3  0  0  0  0  0  0
  188.3860  177.7340  144.6770 C   0  0  1  0  0  3  0  0  0  0  0  0
  187.3130  177.9810  146.9180 C   0  0  0  0  0  0  0  0  0  0  0  0
  187.2800  178.0600  145.5780 N   0  0  0  0  0  0  0  0  0  0  0  0
  189.7200  177.7670  145.4370 C   0  0  0  0  0  2  0  0  0  0  0  0
  189.6010  177.0210  146.7710 C   0  0  0  0  0  2  0  0  0  0  0  0
  186.0920  178.3170  147.4600 C   0  0  0  0  0  3  0  0  0  0  0  0
  188.5650  177.6860  147.6840 C   0  0  0  0  0  2  0  0  0  0  0  0
  186.0350  178.4110  145.2190 C   0  0  0  0  0  3  0  0  0  0  0  0
  1  7  1  0  0  0  0
  1 20  1  1  0  0  0
  3  4  1  0  0  0  0
  3  7  2  0  0  0  0
  4  5  1  0  0  0  0
  5  6  1  0  0  0  0
  5  2  2  0  0  0  0
  6  8  1  1  0  0  0
  7  6  1  0  0  0  0
  8  9  2  0  0  0  0
 10  1  1  1  0  0  0
 11 10  1  0  0  0  0
 12 11  1  0  0  0  0
 13 10  1  0  0  0  0
 14 12  2  0  0  0  0
 14 13  1  0  0  0  0
 16 15  1  1  0  0  0
 16 14  1  0  0  0  0
 16 17  1  0  0  0  0
 17 19  1  0  0  0  0
 18 17  2  0  0  0  0
 20 22  1  0  0  0  0
 22 21  1  1  0  0  0
 22 23  1  0  0  0  0
 23 24  1  0  0  0  0
 24 25  1  0  0  0  0
 26 32  1  0  0  0  0
 27 25  1  1  0  0  0
 27 30  1  0  0  0  0
 27 29  1  0  0  0  0
 28 32  2  0  0  0  0
 28 33  1  0  0  0  0
 29 28  1  0  0  0  0
 30 31  1  0  0  0  0
 31 33  1  0  0  0  0
 34 29  1  0  0  0  0
 34 26  2  0  0  0  0
M  END
>  <MODEL>
3

>  <REMARK>
 VINA RESULT:      -7.9      2.955      4.343
  Name = 
  11 active torsions:
  status: ('A' for Active; 'I' for Inactive)
    1  A    between atoms: C_2  and  C_25
    2  A    between atoms: C_3  and  O_13
    3  A    between atoms: C_5  and  C_15
    4  A    between atoms: C_5  and  C_30
    5  A    between atoms: N_8  and  C_25
    6  A    between atoms: N_8  and  C_30
    7  A    between atoms: C_9  and  C_33
    8  A    between atoms: O_13  and  C_15
    9  A    between atoms: C_19  and  C_28
   10  A    between atoms: C_25  and  C_31
   11  A    between atoms: C_27  and  C_33
                            x       y       z     vdW  Elec       q    Type
                         _______ _______ _______ _____ _____    ______ ____

>  <TORSDO>
F 11

$$$$
=
 OpenBabel10232409543D

 34 37  0  0  1  0  0  0  0  0999 V2000
  186.4610  177.8130  138.4950 C   0  0  1  0  0  3  0  0  0  0  0  0
  181.7070  178.9210  137.9490 O   0  0  0  0  0  0  0  0  0  0  0  0
  184.8650  179.4840  139.2630 N   0  0  0  0  0  0  0  0  0  0  0  0
  183.4950  179.9190  139.1930 C   0  0  0  0  0  2  0  0  0  0  0  0
  182.8790  178.9110  138.2910 C   0  0  0  0  0  0  0  0  0  0  0  0
  183.8790  177.9010  137.8520 C   0  0  1  0  0  3  0  0  0  0  0  0
  185.0870  178.4210  138.5740 C   0  0  0  0  0  0  0  0  0  0  0  0
  183.4990  176.5210  138.3070 C   0  0  0  0  0  3  0  0  0  0  0  0
  183.9080  175.5230  137.7330 O   0  0  0  0  0  0  0  0  0  0  0  0
  186.8940  177.6140  137.0450 C   0  0  1  0  0  3  0  0  0  0  0  0
  187.9910  178.4640  136.7500 O   0  0  0  0  0  0  0  0  0  0  0  0
  189.1290  177.7740  136.4240 N   0  0  0  0  0  0  0  0  0  0  0  0
  187.4750  176.2110  136.8400 C   0  0  0  0  0  2  0  0  0  0  0  0
  188.8890  176.5110  136.4600 C   0  0  0  0  0  0  0  0  0  0  0  0
  191.2160  176.1260  135.5950 C   0  0  0  0  0  1  0  0  0  0  0  0
  189.9470  175.4940  136.1510 C   0  0  1  0  0  3  0  0  0  0  0  0
  190.2610  174.6670  137.3560 C   0  0  0  0  0  0  0  0  0  0  0  0
  190.8240  175.2700  138.4740 O   0  0  0  0  0  1  0  0  0  0  0  0
  190.0510  173.4240  137.3580 O   0  0  0  0  0  0  0  0  0  0  0  0
  187.4250  178.6600  139.1880 N   0  0  0  0  0  2  0  0  0  0  0  0
  189.5920  178.1150  139.8250 O   0  0  0  0  0  1  0  0  0  0  0  0
  188.2480  177.8020  140.0190 C   0  0  1  0  0  3  0  0  0  0  0  0
  187.8760  178.0140  141.4770 C   0  0  0  0  0  2  0  0  0  0  0  0
  188.5220  176.9510  142.3520 C   0  0  0  0  0  2  0  0  0  0  0  0
  187.7740  176.7780  143.5210 O   0  0  0  0  0  0  0  0  0  0  0  0
  184.5700  178.6880  145.5420 C   0  0  0  0  0  3  0  0  0  0  0  0
  187.8860  177.9930  144.2050 C   0  0  1  0  0  3  0  0  0  0  0  0
  186.5250  178.0280  146.2970 C   0  0  0  0  0  0  0  0  0  0  0  0
  186.6680  178.2350  144.9790 N   0  0  0  0  0  0  0  0  0  0  0  0
  189.1080  177.9480  145.1340 C   0  0  0  0  0  2  0  0  0  0  0  0
  188.8200  177.0770  146.3640 C   0  0  0  0  0  2  0  0  0  0  0  0
  185.2390  178.3150  146.7030 C   0  0  0  0  0  3  0  0  0  0  0  0
  187.6670  177.6570  147.1900 C   0  0  0  0  0  2  0  0  0  0  0  0
  185.4790  178.6240  144.4930 C   0  0  0  0  0  3  0  0  0  0  0  0
  1  7  1  0  0  0  0
  1 20  1  6  0  0  0
  2  5  2  0  0  0  0
  4  3  1  0  0  0  0
  5  4  1  0  0  0  0
  6  5  1  0  0  0  0
  6  8  1  1  0  0  0
  6  7  1  0  0  0  0
  7  3  2  0  0  0  0
  9  8  2  0  0  0  0
 10  1  1  1  0  0  0
 11 10  1  0  0  0  0
 12 14  2  0  0  0  0
 12 11  1  0  0  0  0
 13 10  1  0  0  0  0
 14 13  1  0  0  0  0
 16 15  1  1  0  0  0
 16 14  1  0  0  0  0
 16 17  1  0  0  0  0
 17 19  2  0  0  0  0
 17 18  1  0  0  0  0
 20 22  1  0  0  0  0
 22 21  1  1  0  0  0
 22 23  1  0  0  0  0
 23 24  1  0  0  0  0
 24 25  1  0  0  0  0
 26 32  1  0  0  0  0
 27 25  1  1  0  0  0
 27 29  1  0  0  0  0
 27 30  1  0  0  0  0
 28 32  2  0  0  0  0
 28 33  1  0  0  0  0
 29 28  1  0  0  0  0
 30 31  1  0  0  0  0
 31 33  1  0  0  0  0
 34 29  1  0  0  0  0
 34 26  2  0  0  0  0
M  END
>  <MODEL>
4

>  <REMARK>
 VINA RESULT:      -7.8      2.872      4.313
  Name = 
  11 active torsions:
  status: ('A' for Active; 'I' for Inactive)
    1  A    between atoms: C_2  and  C_25
    2  A    between atoms: C_3  and  O_13
    3  A    between atoms: C_5  and  C_15
    4  A    between atoms: C_5  and  C_30
    5  A    between atoms: N_8  and  C_25
    6  A    between atoms: N_8  and  C_30
    7  A    between atoms: C_9  and  C_33
    8  A    between atoms: O_13  and  C_15
    9  A    between atoms: C_19  and  C_28
   10  A    between atoms: C_25  and  C_31
   11  A    between atoms: C_27  and  C_33
                            x       y       z     vdW  Elec       q    Type
                         _______ _______ _______ _____ _____    ______ ____

>  <TORSDO>
F 11

$$$$
=
 OpenBabel10232409543D

 34 37  0  0  1  0  0  0  0  0999 V2000
  186.3960  177.8560  138.4630 C   0  0  1  0  0  3  0  0  0  0  0  0
  181.6200  178.8910  137.9680 O   0  0  0  0  0  0  0  0  0  0  0  0
  184.7840  179.5030  139.2460 N   0  0  0  0  0  0  0  0  0  0  0  0
  183.4060  179.9180  139.1910 C   0  0  0  0  0  2  0  0  0  0  0  0
  182.7960  178.8990  138.2960 C   0  0  0  0  0  0  0  0  0  0  0  0
  183.8060  177.9040  137.8480 C   0  0  1  0  0  3  0  0  0  0  0  0
  185.0140  178.4430  138.5560 C   0  0  0  0  0  0  0  0  0  0  0  0
  183.4520  176.5180  138.3090 C   0  0  0  0  0  3  0  0  0  0  0  0
  183.1640  176.2850  139.4720 O   0  0  0  0  0  0  0  0  0  0  0  0
  186.8070  177.6390  137.0090 C   0  0  1  0  0  3  0  0  0  0  0  0
  187.9280  178.4530  136.6990 O   0  0  0  0  0  0  0  0  0  0  0  0
  189.0390  177.7270  136.3630 N   0  0  0  0  0  0  0  0  0  0  0  0
  187.3410  176.2180  136.8010 C   0  0  0  0  0  2  0  0  0  0  0  0
  188.7600  176.4730  136.4060 C   0  0  0  0  0  0  0  0  0  0  0  0
  191.0370  176.0040  135.4530 C   0  0  0  0  0  1  0  0  0  0  0  0
  189.7820  175.4220  136.0890 C   0  0  1  0  0  3  0  0  0  0  0  0
  190.1330  174.6320  137.3090 C   0  0  0  0  0  0  0  0  0  0  0  0
  190.7160  175.2720  138.3950 O   0  0  0  0  0  1  0  0  0  0  0  0
  189.9360  173.3870  137.3500 O   0  0  0  0  0  0  0  0  0  0  0  0
  187.3580  178.7290  139.1250 N   0  0  0  0  0  2  0  0  0  0  0  0
  189.4520  177.9750  139.7910 O   0  0  0  0  0  1  0  0  0  0  0  0
  188.0910  177.9290  140.0870 C   0  0  1  0  0  3  0  0  0  0  0  0
  187.8490  178.4810  141.4820 C   0  0  0  0  0  2  0  0  0  0  0  0
  188.2760  177.4710  142.5370 C   0  0  0  0  0  2  0  0  0  0  0  0
  188.3270  178.0870  143.7910 O   0  0  0  0  0  0  0  0  0  0  0  0
  189.4910  177.4780  147.8250 C   0  0  0  0  0  3  0  0  0  0  0  0
  187.7090  177.1830  144.6620 C   0  0  1  0  0  3  0  0  0  0  0  0
  187.5480  178.0720  146.9890 C   0  0  0  0  0  0  0  0  0  0  0  0
  188.1970  177.4020  146.0240 N   0  0  0  0  0  0  0  0  0  0  0  0
  186.1860  177.3730  144.6040 C   0  0  0  0  0  2  0  0  0  0  0  0
  185.7720  178.6480  145.3480 C   0  0  0  0  0  2  0  0  0  0  0  0
  188.3050  178.1310  148.1400 C   0  0  0  0  0  3  0  0  0  0  0  0
  186.1430  178.5640  146.8330 C   0  0  0  0  0  2  0  0  0  0  0  0
  189.3960  177.0430  146.5090 C   0  0  0  0  0  3  0  0  0  0  0  0
  1  7  1  0  0  0  0
  1 20  1  6  0  0  0
  2  5  2  0  0  0  0
  4  3  1  0  0  0  0
  5  4  1  0  0  0  0
  6  5  1  0  0  0  0
  6  8  1  1  0  0  0
  6  7  1  0  0  0  0
  7  3  2  0  0  0  0
  8  9  2  0  0  0  0
 10  1  1  1  0  0  0
 11 10  1  0  0  0  0
 12 14  2  0  0  0  0
 12 11  1  0  0  0  0
 13 10  1  0  0  0  0
 14 13  1  0  0  0  0
 16 15  1  1  0  0  0
 16 14  1  0  0  0  0
 16 17  1  0  0  0  0
 17 19  2  0  0  0  0
 17 18  1  0  0  0  0
 20 22  1  0  0  0  0
 22 21  1  6  0  0  0
 22 23  1  0  0  0  0
 23 24  1  0  0  0  0
 24 25  1  0  0  0  0
 26 32  1  0  0  0  0
 27 25  1  6  0  0  0
 27 29  1  0  0  0  0
 28 32  2  0  0  0  0
 29 34  1  0  0  0  0
 29 28  1  0  0  0  0
 30 27  1  0  0  0  0
 30 31  1  0  0  0  0
 31 33  1  0  0  0  0
 33 28  1  0  0  0  0
 34 26  2  0  0  0  0
M  END
>  <MODEL>
5

>  <REMARK>
 VINA RESULT:      -7.8      2.918      4.544
  Name = 
  11 active torsions:
  status: ('A' for Active; 'I' for Inactive)
    1  A    between atoms: C_2  and  C_25
    2  A    between atoms: C_3  and  O_13
    3  A    between atoms: C_5  and  C_15
    4  A    between atoms: C_5  and  C_30
    5  A    between atoms: N_8  and  C_25
    6  A    between atoms: N_8  and  C_30
    7  A    between atoms: C_9  and  C_33
    8  A    between atoms: O_13  and  C_15
    9  A    between atoms: C_19  and  C_28
   10  A    between atoms: C_25  and  C_31
   11  A    between atoms: C_27  and  C_33
                            x       y       z     vdW  Elec       q    Type
                         _______ _______ _______ _____ _____    ______ ____

>  <TORSDO>
F 11

$$$$
=
 OpenBabel10232409543D

 34 37  0  0  1  0  0  0  0  0999 V2000
  190.2360  177.5090  139.4580 C   0  0  1  0  0  3  0  0  0  0  0  0
  193.5030  175.0120  136.7710 O   0  0  0  0  0  0  0  0  0  0  0  0
  190.3820  175.4150  138.2260 N   0  0  0  0  0  0  0  0  0  0  0  0
  191.2380  174.5800  137.4230 C   0  0  0  0  0  2  0  0  0  0  0  0
  192.5020  175.3620  137.3750 C   0  0  0  0  0  0  0  0  0  0  0  0
  192.3790  176.6280  138.1480 C   0  0  1  0  0  3  0  0  0  0  0  0
  190.9640  176.4890  138.6240 C   0  0  0  0  0  0  0  0  0  0  0  0
  193.3580  176.6710  139.2870 C   0  0  0  0  0  3  0  0  0  0  0  0
  193.8190  177.7260  139.6940 O   0  0  0  0  0  0  0  0  0  0  0  0
  189.3810  178.4250  138.5870 C   0  0  1  0  0  3  0  0  0  0  0  0
  189.7310  178.2570  137.2210 O   0  0  0  0  0  0  0  0  0  0  0  0
  188.7000  177.7740  136.4610 N   0  0  0  0  0  0  0  0  0  0  0  0
  187.9110  177.9930  138.6230 C   0  0  0  0  0  2  0  0  0  0  0  0
  187.6620  177.6110  137.2000 C   0  0  0  0  0  0  0  0  0  0  0  0
  186.1720  177.4530  135.1830 C   0  0  0  0  0  1  0  0  0  0  0  0
  186.3690  177.0880  136.6480 C   0  0  1  0  0  3  0  0  0  0  0  0
  186.2670  175.6090  136.8350 C   0  0  0  0  0  0  0  0  0  0  0  0
  185.0610  175.0490  137.2350 O   0  0  0  0  0  1  0  0  0  0  0  0
  187.2740  174.8670  136.6670 O   0  0  0  0  0  0  0  0  0  0  0  0
  189.3980  176.8430  140.4480 N   0  0  0  0  0  2  0  0  0  0  0  0
  191.0730  177.6780  141.8240 O   0  0  0  0  0  1  0  0  0  0  0  0
  190.2110  176.6010  141.6240 C   0  0  1  0  0  3  0  0  0  0  0  0
  189.3040  176.4370  142.8320 C   0  0  0  0  0  2  0  0  0  0  0  0
  188.0690  177.3130  142.6960 C   0  0  0  0  0  2  0  0  0  0  0  0
  187.9240  178.1090  143.8370 O   0  0  0  0  0  0  0  0  0  0  0  0
  189.2930  177.3880  147.7870 C   0  0  0  0  0  3  0  0  0  0  0  0
  187.2640  177.2950  144.7630 C   0  0  1  0  0  3  0  0  0  0  0  0
  187.3820  178.2130  147.0820 C   0  0  0  0  0  0  0  0  0  0  0  0
  187.8720  177.4600  146.0830 N   0  0  0  0  0  0  0  0  0  0  0  0
  185.7760  177.6710  144.8110 C   0  0  0  0  0  2  0  0  0  0  0  0
  185.5770  178.9930  145.5620 C   0  0  0  0  0  2  0  0  0  0  0  0
  188.2220  178.1850  148.1740 C   0  0  0  0  0  3  0  0  0  0  0  0
  186.0410  178.8730  147.0180 C   0  0  0  0  0  2  0  0  0  0  0  0
  189.0500  176.9590  146.4870 C   0  0  0  0  0  3  0  0  0  0  0  0
  1 20  1  1  0  0  0
  2  5  2  0  0  0  0
  3  7  2  0  0  0  0
  4  3  1  0  0  0  0
  5  4  1  0  0  0  0
  5  6  1  0  0  0  0
  6  7  1  0  0  0  0
  6  8  1  1  0  0  0
  7  1  1  0  0  0  0
  8  9  2  0  0  0  0
 10 13  1  0  0  0  0
 10  1  1  1  0  0  0
 11 10  1  0  0  0  0
 12 14  2  0  0  0  0
 12 11  1  0  0  0  0
 14 13  1  0  0  0  0
 16 15  1  6  0  0  0
 16 17  1  0  0  0  0
 16 14  1  0  0  0  0
 17 18  1  0  0  0  0
 19 17  2  0  0  0  0
 20 22  1  0  0  0  0
 22 21  1  1  0  0  0
 22 23  1  0  0  0  0
 24 23  1  0  0  0  0
 24 25  1  0  0  0  0
 26 32  1  0  0  0  0
 27 25  1  6  0  0  0
 27 30  1  0  0  0  0
 27 29  1  0  0  0  0
 28 32  2  0  0  0  0
 29 34  1  0  0  0  0
 29 28  1  0  0  0  0
 30 31  1  0  0  0  0
 31 33  1  0  0  0  0
 33 28  1  0  0  0  0
 34 26  2  0  0  0  0
M  END
>  <MODEL>
6

>  <REMARK>
 VINA RESULT:      -7.6      2.036      5.305
  Name = 
  11 active torsions:
  status: ('A' for Active; 'I' for Inactive)
    1  A    between atoms: C_2  and  C_25
    2  A    between atoms: C_3  and  O_13
    3  A    between atoms: C_5  and  C_15
    4  A    between atoms: C_5  and  C_30
    5  A    between atoms: N_8  and  C_25
    6  A    between atoms: N_8  and  C_30
    7  A    between atoms: C_9  and  C_33
    8  A    between atoms: O_13  and  C_15
    9  A    between atoms: C_19  and  C_28
   10  A    between atoms: C_25  and  C_31
   11  A    between atoms: C_27  and  C_33
                            x       y       z     vdW  Elec       q    Type
                         _______ _______ _______ _____ _____    ______ ____

>  <TORSDO>
F 11

$$$$
=
 OpenBabel10232409543D

 34 37  0  0  1  0  0  0  0  0999 V2000
  190.2500  176.6660  138.0400 C   0  0  1  0  0  3  0  0  0  0  0  0
  194.9770  175.3390  137.8870 O   0  0  0  0  0  0  0  0  0  0  0  0
  191.5850  174.6670  137.6500 N   0  0  0  0  0  0  0  0  0  0  0  0
  192.9240  174.1440  137.5770 C   0  0  0  0  0  2  0  0  0  0  0  0
  193.7570  175.3410  137.8660 C   0  0  0  0  0  0  0  0  0  0  0  0
  192.9090  176.5390  138.1100 C   0  0  1  0  0  3  0  0  0  0  0  0
  191.5530  175.9190  137.9380 C   0  0  0  0  0  0  0  0  0  0  0  0
  193.1110  177.0790  139.4970 C   0  0  0  0  0  3  0  0  0  0  0  0
  194.2270  177.2090  139.9760 O   0  0  0  0  0  0  0  0  0  0  0  0
  189.2990  176.2730  136.9130 C   0  0  1  0  0  3  0  0  0  0  0  0
  188.3820  175.2940  137.3760 O   0  0  0  0  0  0  0  0  0  0  0  0
  187.0820  175.7230  137.3460 N   0  0  0  0  0  0  0  0  0  0  0  0
  188.3910  177.4470  136.5340 C   0  0  0  0  0  2  0  0  0  0  0  0
  187.0370  176.9210  136.8820 C   0  0  0  0  0  0  0  0  0  0  0  0
  184.7130  176.8840  135.9260 C   0  0  0  0  0  1  0  0  0  0  0  0
  185.7430  177.6650  136.7310 C   0  0  1  0  0  3  0  0  0  0  0  0
  185.1850  178.0420  138.0660 C   0  0  0  0  0  0  0  0  0  0  0  0
  185.9620  178.7790  138.9500 O   0  0  0  0  0  1  0  0  0  0  0  0
  184.0300  177.6700  138.4100 O   0  0  0  0  0  0  0  0  0  0  0  0
  189.6230  176.4060  139.3310 N   0  0  0  0  0  2  0  0  0  0  0  0
  189.0520  178.6470  139.5480 O   0  0  0  0  0  1  0  0  0  0  0  0
  189.7620  177.6030  140.1380 C   0  0  1  0  0  3  0  0  0  0  0  0
  189.2170  177.3320  141.5300 C   0  0  0  0  0  2  0  0  0  0  0  0
  190.1280  176.3740  142.2820 C   0  0  0  0  0  2  0  0  0  0  0  0
  189.6350  176.1640  143.5740 O   0  0  0  0  0  0  0  0  0  0  0  0
  187.2170  177.6630  146.7210 C   0  0  0  0  0  3  0  0  0  0  0  0
  189.8790  177.3620  144.2520 C   0  0  1  0  0  3  0  0  0  0  0  0
  189.3620  177.1900  146.6890 C   0  0  0  0  0  0  0  0  0  0  0  0
  189.0040  177.4510  145.4220 N   0  0  0  0  0  0  0  0  0  0  0  0
  191.3510  177.4180  144.6840 C   0  0  0  0  0  2  0  0  0  0  0  0
  191.6020  176.4840  145.8740 C   0  0  0  0  0  2  0  0  0  0  0  0
  188.2880  177.3270  147.5410 C   0  0  0  0  0  3  0  0  0  0  0  0
  190.7770  176.9140  147.0920 C   0  0  0  0  0  2  0  0  0  0  0  0
  187.6900  177.7270  145.4160 C   0  0  0  0  0  3  0  0  0  0  0  0
  1 20  1  1  0  0  0
  3  7  2  0  0  0  0
  4  3  1  0  0  0  0
  4  5  1  0  0  0  0
  5  2  2  0  0  0  0
  5  6  1  0  0  0  0
  6  8  1  1  0  0  0
  7  1  1  0  0  0  0
  7  6  1  0  0  0  0
  8  9  2  0  0  0  0
 10 11  1  0  0  0  0
 10  1  1  1  0  0  0
 12 11  1  0  0  0  0
 13 14  1  0  0  0  0
 13 10  1  0  0  0  0
 14 12  2  0  0  0  0
 16 15  1  1  0  0  0
 16 14  1  0  0  0  0
 16 17  1  0  0  0  0
 17 19  2  0  0  0  0
 17 18  1  0  0  0  0
 20 22  1  0  0  0  0
 22 21  1  6  0  0  0
 22 23  1  0  0  0  0
 23 24  1  0  0  0  0
 24 25  1  0  0  0  0
 26 32  1  0  0  0  0
 27 25  1  1  0  0  0
 27 30  1  0  0  0  0
 27 29  1  0  0  0  0
 28 33  1  0  0  0  0
 28 32  2  0  0  0  0
 29 28  1  0  0  0  0
 30 31  1  0  0  0  0
 31 33  1  0  0  0  0
 34 29  1  0  0  0  0
 34 26  2  0  0  0  0
M  END
>  <MODEL>
7

>  <REMARK>
 VINA RESULT:      -7.5      1.549      5.582
  Name = 
  11 active torsions:
  status: ('A' for Active; 'I' for Inactive)
    1  A    between atoms: C_2  and  C_25
    2  A    between atoms: C_3  and  O_13
    3  A    between atoms: C_5  and  C_15
    4  A    between atoms: C_5  and  C_30
    5  A    between atoms: N_8  and  C_25
    6  A    between atoms: N_8  and  C_30
    7  A    between atoms: C_9  and  C_33
    8  A    between atoms: O_13  and  C_15
    9  A    between atoms: C_19  and  C_28
   10  A    between atoms: C_25  and  C_31
   11  A    between atoms: C_27  and  C_33
                            x       y       z     vdW  Elec       q    Type
                         _______ _______ _______ _____ _____    ______ ____

>  <TORSDO>
F 11

$$$$
=
 OpenBabel10232409543D

 34 37  0  0  1  0  0  0  0  0999 V2000
  185.0350  178.0800  138.7160 C   0  0  1  0  0  3  0  0  0  0  0  0
  180.9110  176.5580  136.5250 O   0  0  0  0  0  0  0  0  0  0  0  0
  182.8520  178.9620  138.0960 N   0  0  0  0  0  0  0  0  0  0  0  0
  181.5910  178.6490  137.4770 C   0  0  0  0  0  2  0  0  0  0  0  0
  181.7590  177.2210  137.1000 C   0  0  0  0  0  0  0  0  0  0  0  0
  183.0980  176.7130  137.5040 C   0  0  1  0  0  3  0  0  0  0  0  0
  183.6540  177.9580  138.1290 C   0  0  0  0  0  0  0  0  0  0  0  0
  182.9810  175.5880  138.4920 C   0  0  0  0  0  3  0  0  0  0  0  0
  182.4620  175.7480  139.5860 O   0  0  0  0  0  0  0  0  0  0  0  0
  186.1070  177.9220  137.6410 C   0  0  1  0  0  3  0  0  0  0  0  0
  186.7520  179.1660  137.4170 O   0  0  0  0  0  0  0  0  0  0  0  0
  188.0860  179.1400  137.7260 N   0  0  0  0  0  0  0  0  0  0  0  0
  187.2450  177.0250  138.1370 C   0  0  0  0  0  2  0  0  0  0  0  0
  188.4080  177.9630  138.1320 C   0  0  0  0  0  0  0  0  0  0  0  0
  189.9350  177.4140  140.0500 C   0  0  0  0  0  1  0  0  0  0  0  0
  189.8090  177.6240  138.5480 C   0  0  1  0  0  3  0  0  0  0  0  0
  190.3100  176.4250  137.8090 C   0  0  0  0  0  0  0  0  0  0  0  0
  190.5120  176.5010  136.4370 O   0  0  0  0  0  0  0  0  0  0  0  0
  190.5180  175.3370  138.4110 O   0  0  0  0  0  1  0  0  0  0  0  0
  185.1860  179.3690  139.3800 N   0  0  0  0  0  2  0  0  0  0  0  0
  184.4380  178.0370  141.1300 O   0  0  0  0  0  1  0  0  0  0  0  0
  185.2470  179.1250  140.8080 C   0  0  1  0  0  3  0  0  0  0  0  0
  186.6850  178.8330  141.2040 C   0  0  0  0  0  2  0  0  0  0  0  0
  186.7300  178.0370  142.4990 C   0  0  0  0  0  2  0  0  0  0  0  0
  188.0320  178.0370  143.0110 O   0  0  0  0  0  0  0  0  0  0  0  0
  191.6070  176.5390  144.7350 C   0  0  0  0  0  3  0  0  0  0  0  0
  188.0970  176.9050  143.8290 C   0  0  1  0  0  3  0  0  0  0  0  0
  189.7360  177.1800  145.6930 C   0  0  0  0  0  0  0  0  0  0  0  0
  189.4250  176.8160  144.4380 N   0  0  0  0  0  0  0  0  0  0  0  0
  187.0170  176.9940  144.9170 C   0  0  0  0  0  2  0  0  0  0  0  0
  187.4130  178.0130  145.9910 C   0  0  0  0  0  2  0  0  0  0  0  0
  191.0820  177.0080  145.9340 C   0  0  0  0  0  3  0  0  0  0  0  0
  188.7070  177.5920  146.6980 C   0  0  0  0  0  2  0  0  0  0  0  0
  190.5580  176.4360  143.8290 C   0  0  0  0  0  3  0  0  0  0  0  0
  1 20  1  6  0  0  0
  2  5  2  0  0  0  0
  3  7  2  0  0  0  0
  4  3  1  0  0  0  0
  5  4  1  0  0  0  0
  5  6  1  0  0  0  0
  6  7  1  0  0  0  0
  6  8  1  1  0  0  0
  7  1  1  0  0  0  0
  8  9  2  0  0  0  0
 10 13  1  0  0  0  0
 10  1  1  1  0  0  0
 11 10  1  0  0  0  0
 11 12  1  0  0  0  0
 12 14  2  0  0  0  0
 14 13  1  0  0  0  0
 14 16  1  0  0  0  0
 16 15  1  1  0  0  0
 17 19  1  0  0  0  0
 17 16  1  0  0  0  0
 18 17  2  0  0  0  0
 20 22  1  0  0  0  0
 22 21  1  6  0  0  0
 22 23  1  0  0  0  0
 23 24  1  0  0  0  0
 24 25  1  0  0  0  0
 26 32  1  0  0  0  0
 27 25  1  6  0  0  0
 27 29  1  0  0  0  0
 27 30  1  0  0  0  0
 28 32  2  0  0  0  0
 28 33  1  0  0  0  0
 29 28  1  0  0  0  0
 30 31  1  0  0  0  0
 31 33  1  0  0  0  0
 34 29  1  0  0  0  0
 34 26  2  0  0  0  0
M  END
>  <MODEL>
8

>  <REMARK>
 VINA RESULT:      -7.5      3.190      5.317
  Name = 
  11 active torsions:
  status: ('A' for Active; 'I' for Inactive)
    1  A    between atoms: C_2  and  C_25
    2  A    between atoms: C_3  and  O_13
    3  A    between atoms: C_5  and  C_15
    4  A    between atoms: C_5  and  C_30
    5  A    between atoms: N_8  and  C_25
    6  A    between atoms: N_8  and  C_30
    7  A    between atoms: C_9  and  C_33
    8  A    between atoms: O_13  and  C_15
    9  A    between atoms: C_19  and  C_28
   10  A    between atoms: C_25  and  C_31
   11  A    between atoms: C_27  and  C_33
                            x       y       z     vdW  Elec       q    Type
                         _______ _______ _______ _____ _____    ______ ____

>  <TORSDO>
F 11

$$$$
=
 OpenBabel10232409543D

 34 37  0  0  1  0  0  0  0  0999 V2000
  190.4770  176.8980  141.3860 C   0  0  1  0  0  3  0  0  0  0  0  0
  191.2280  175.8920  136.6370 O   0  0  0  0  0  0  0  0  0  0  0  0
  192.2320  177.1310  139.7150 N   0  0  0  0  0  0  0  0  0  0  0  0
  192.5840  176.8940  138.3390 C   0  0  0  0  0  2  0  0  0  0  0  0
  191.3510  176.2700  137.7920 C   0  0  0  0  0  0  0  0  0  0  0  0
  190.2980  176.1540  138.8360 C   0  0  1  0  0  3  0  0  0  0  0  0
  191.0340  176.7590  139.9950 C   0  0  0  0  0  0  0  0  0  0  0  0
  189.0740  176.9450  138.4690 C   0  0  0  0  0  3  0  0  0  0  0  0
  188.2260  176.4970  137.7130 O   0  0  0  0  0  0  0  0  0  0  0  0
  191.5920  176.9210  142.4280 C   0  0  1  0  0  3  0  0  0  0  0  0
  191.8610  178.2590  142.8170 O   0  0  0  0  0  0  0  0  0  0  0  0
  191.6060  178.4920  144.1420 N   0  0  0  0  0  0  0  0  0  0  0  0
  191.1290  176.2660  143.7340 C   0  0  0  0  0  2  0  0  0  0  0  0
  191.1960  177.4070  144.6960 C   0  0  0  0  0  0  0  0  0  0  0  0
  189.3940  176.9040  146.3730 C   0  0  0  0  0  1  0  0  0  0  0  0
  190.8330  177.3480  146.1500 C   0  0  1  0  0  3  0  0  0  0  0  0
  191.7740  176.4610  146.9000 C   0  0  0  0  0  0  0  0  0  0  0  0
  192.2880  175.3280  146.2820 O   0  0  0  0  0  0  0  0  0  0  0  0
  192.0810  176.7120  148.0980 O   0  0  0  0  0  1  0  0  0  0  0  0
  189.6790  178.1140  141.4880 N   0  0  0  0  0  2  0  0  0  0  0  0
  188.0400  177.0150  142.7130 O   0  0  0  0  0  1  0  0  0  0  0  0
  188.2830  177.7240  141.5380 C   0  0  1  0  0  3  0  0  0  0  0  0
  187.4150  178.9700  141.5000 C   0  0  0  0  0  2  0  0  0  0  0  0
  186.2060  178.7510  140.6040 C   0  0  0  0  0  2  0  0  0  0  0  0
  185.0570  179.2470  141.2270 O   0  0  0  0  0  0  0  0  0  0  0  0
  184.6950  178.7830  145.4290 C   0  0  0  0  0  3  0  0  0  0  0  0
  184.4760  178.1380  141.8500 C   0  0  1  0  0  3  0  0  0  0  0  0
  183.1490  178.7730  143.8670 C   0  0  0  0  0  0  0  0  0  0  0  0
  184.3000  178.4120  143.2770 N   0  0  0  0  0  0  0  0  0  0  0  0
  183.1220  177.8300  141.1950 C   0  0  0  0  0  2  0  0  0  0  0  0
  182.0650  178.8520  141.6320 C   0  0  0  0  0  2  0  0  0  0  0  0
  183.3380  178.9970  145.2140 C   0  0  0  0  0  3  0  0  0  0  0  0
  181.8380  178.7940  143.1460 C   0  0  0  0  0  2  0  0  0  0  0  0
  185.2630  178.4280  144.2110 C   0  0  0  0  0  3  0  0  0  0  0  0
  1 20  1  6  0  0  0
  2  5  2  0  0  0  0
  3  7  2  0  0  0  0
  4  3  1  0  0  0  0
  5  4  1  0  0  0  0
  5  6  1  0  0  0  0
  6  8  1  6  0  0  0
  6  7  1  0  0  0  0
  7  1  1  0  0  0  0
  9  8  2  0  0  0  0
 10  1  1  6  0  0  0
 10 11  1  0  0  0  0
 10 13  1  0  0  0  0
 11 12  1  0  0  0  0
 12 14  2  0  0  0  0
 13 14  1  0  0  0  0
 14 16  1  0  0  0  0
 16 15  1  6  0  0  0
 16 17  1  0  0  0  0
 17 19  1  0  0  0  0
 18 17  2  0  0  0  0
 20 22  1  0  0  0  0
 22 21  1  1  0  0  0
 23 22  1  0  0  0  0
 24 25  1  0  0  0  0
 24 23  1  0  0  0  0
 27 25  1  6  0  0  0
 27 29  1  0  0  0  0
 28 32  2  0  0  0  0
 29 28  1  0  0  0  0
 29 34  1  0  0  0  0
 30 31  1  0  0  0  0
 30 27  1  0  0  0  0
 31 33  1  0  0  0  0
 32 26  1  0  0  0  0
 33 28  1  0  0  0  0
 34 26  2  0  0  0  0
M  END
>  <MODEL>
9

>  <REMARK>
 VINA RESULT:      -7.5      3.256      6.434
  Name = 
  11 active torsions:
  status: ('A' for Active; 'I' for Inactive)
    1  A    between atoms: C_2  and  C_25
    2  A    between atoms: C_3  and  O_13
    3  A    between atoms: C_5  and  C_15
    4  A    between atoms: C_5  and  C_30
    5  A    between atoms: N_8  and  C_25
    6  A    between atoms: N_8  and  C_30
    7  A    between atoms: C_9  and  C_33
    8  A    between atoms: O_13  and  C_15
    9  A    between atoms: C_19  and  C_28
   10  A    between atoms: C_25  and  C_31
   11  A    between atoms: C_27  and  C_33
                            x       y       z     vdW  Elec       q    Type
                         _______ _______ _______ _____ _____    ______ ____

>  <TORSDO>
F 11

$$$$
