=
 OpenBabel10232408103D

 38 42  0  0  1  0  0  0  0  0999 V2000
  188.2810  178.4190  137.9920 C   0  0  0  0  0  3  0  0  0  0  0  0
  185.2210  178.7330  143.4960 C   0  0  0  0  0  3  0  0  0  0  0  0
  182.7910  178.7930  143.2130 C   0  0  0  0  0  0  0  0  0  0  0  0
  185.3640  178.7230  142.0220 C   0  0  2  0  0  3  0  0  0  0  0  0
  185.4320  178.3330  139.2510 C   0  0  0  0  0  0  0  0  0  0  0  0
  186.5240  178.4350  141.3970 C   0  0  0  0  0  0  0  0  0  0  0  0
  185.2400  177.9330  137.8310 C   0  0  0  0  0  0  0  0  0  0  0  0
  184.0060  178.7790  144.0500 C   0  0  0  0  0  3  0  0  0  0  0  0
  184.2290  178.5830  139.9300 O   0  0  0  0  0  0  0  0  0  0  0  0
  187.9040  178.2000  139.3890 C   0  0  2  0  0  3  0  0  0  0  0  0
  187.5330  178.3490  136.9080 C   0  0  0  0  0  3  0  0  0  0  0  0
  187.6680  178.2150  142.1760 C   0  0  0  0  0  3  0  0  0  0  0  0
  186.1290  177.9880  136.8480 C   0  0  0  0  0  3  0  0  0  0  0  0
  181.5470  178.6350  143.8090 O   0  0  0  0  0  1  0  0  0  0  0  0
  188.9020  177.9800  141.5950 C   0  0  0  0  0  0  0  0  0  0  0  0
  186.6040  178.3470  139.9620 C   0  0  0  0  0  0  0  0  0  0  0  0
  182.8760  178.9300  141.8850 C   0  0  0  0  0  3  0  0  0  0  0  0
  189.0140  178.0140  140.2120 C   0  0  0  0  0  3  0  0  0  0  0  0
  184.1950  179.1860  141.2080 C   0  0  1  0  0  3  0  0  0  0  0  0
  183.8750  177.4830  137.4030 C   0  0  0  0  0  2  0  0  0  0  0  0
  183.4200  174.9890  137.4810 C   0  0  0  0  0  0  0  0  0  0  0  0
  183.9370  176.1460  136.8250 N   0  0  0  0  0  2  0  0  0  0  0  0
  182.9900  175.0620  138.6630 O   0  0  0  0  0  0  0  0  0  0  0  0
  183.3500  173.6830  136.7430 C   0  0  0  0  0  2  0  0  0  0  0  0
  184.0340  172.5710  137.4220 N   0  0  0  0  0  0  0  0  0  0  0  0
  183.8140  171.3240  136.7020 C   0  0  0  0  0  1  0  0  0  0  0  0
  185.4660  172.8210  137.4740 C   0  0  0  0  0  1  0  0  0  0  0  0
  190.0480  177.7890  142.4280 N   0  0  0  0  0  2  0  0  0  0  0  0
  190.9260  176.6300  142.3110 C   0  0  1  0  0  3  0  0  0  0  0  0
  191.5500  176.2100  143.6030 C   0  0  2  0  0  3  0  0  0  0  0  0
  190.4110  175.5690  143.0780 O   0  0  0  0  0  0  0  0  0  0  0  0
  191.9910  176.7490  146.2260 O   0  0  0  0  0  0  0  0  0  0  0  0
  191.0980  177.1370  145.0790 S   0  0  0  0  0  0  0  0  0  0  0  0
  191.2140  178.6150  144.8280 O   0  0  0  0  0  0  0  0  0  0  0  0
  189.4020  176.7750  145.5030 C   0  0  0  0  0  2  0  0  0  0  0  0
  189.1970  177.5820  147.8490 C   0  0  0  0  0  1  0  0  0  0  0  0
  187.3190  177.8690  146.2720 C   0  0  0  0  0  1  0  0  0  0  0  0
  188.8260  177.8530  146.4040 C   0  0  0  0  0  3  0  0  0  0  0  0
  2  8  2  0  0  0  0
  3 14  1  0  0  0  0
  3  8  1  0  0  0  0
  4  2  1  1  0  0  0
  5  9  1  0  0  0  0
  5 16  2  0  0  0  0
  6  4  1  0  0  0  0
  6 12  2  0  0  0  0
  7  5  1  0  0  0  0
  9 19  1  0  0  0  0
 10  1  1  1  0  0  0
 10 16  1  0  0  0  0
 10 18  1  0  0  0  0
 11  1  2  0  0  0  0
 13 11  1  0  0  0  0
 13  7  2  0  0  0  0
 15 12  1  0  0  0  0
 15 28  1  0  0  0  0
 16  6  1  0  0  0  0
 17  3  2  0  0  0  0
 18 15  2  0  0  0  0
 19 17  1  1  0  0  0
 19  4  1  0  0  0  0
 20  7  1  0  0  0  0
 21 23  2  0  0  0  0
 22 20  1  0  0  0  0
 22 21  1  0  0  0  0
 24 25  1  0  0  0  0
 24 21  1  0  0  0  0
 25 27  1  0  0  0  0
 26 25  1  0  0  0  0
 29 28  1  1  0  0  0
 29 31  1  0  0  0  0
 29 30  1  0  0  0  0
 30 33  1  1  0  0  0
 31 30  1  0  0  0  0
 33 35  1  0  0  0  0
 33 32  2  0  0  0  0
 34 33  2  0  0  0  0
 35 38  1  0  0  0  0
 37 38  1  0  0  0  0
 38 36  1  0  0  0  0
M  END
>  <MODEL>
1

>  <REMARK>
 VINA RESULT:      -8.4      0.000      0.000
  Name = 
  9 active torsions:
  status: ('A' for Active; 'I' for Inactive)
    1  A    between atoms: N_6  and  C_14
    2  A    between atoms: C_9  and  C_17
    3  A    between atoms: S_10  and  C_31
    4  A    between atoms: S_10  and  C_33
    5  A    between atoms: C_11  and  C_14
    6  A    between atoms: N_15  and  C_17
    7  A    between atoms: C_16  and  N_28
    8  A    between atoms: N_28  and  C_29
    9  A    between atoms: C_33  and  C_34
                            x       y       z     vdW  Elec       q    Type
                         _______ _______ _______ _____ _____    ______ ____

>  <TORSDO>
F 9

$$$$
=
 OpenBabel10232408103D

 38 42  0  0  1  0  0  0  0  0999 V2000
  188.4590  177.1770  137.9710 C   0  0  0  0  0  3  0  0  0  0  0  0
  188.8400  177.6160  144.2500 C   0  0  0  0  0  3  0  0  0  0  0  0
  191.0070  176.8700  145.1100 C   0  0  0  0  0  0  0  0  0  0  0  0
  189.2910  177.2590  142.8850 C   0  0  2  0  0  3  0  0  0  0  0  0
  190.4380  176.8830  140.3590 C   0  0  0  0  0  0  0  0  0  0  0  0
  188.6400  177.6480  141.7690 C   0  0  0  0  0  0  0  0  0  0  0  0
  191.2890  176.8170  139.1410 C   0  0  0  0  0  0  0  0  0  0  0  0
  189.6490  177.4180  145.2950 C   0  0  0  0  0  3  0  0  0  0  0  0
  191.1170  176.5310  141.5360 O   0  0  0  0  0  0  0  0  0  0  0  0
  188.3170  177.6680  139.3430 C   0  0  2  0  0  3  0  0  0  0  0  0
  189.5410  176.7580  137.3450 C   0  0  0  0  0  3  0  0  0  0  0  0
  187.4370  178.3550  141.9080 C   0  0  0  0  0  3  0  0  0  0  0  0
  190.8900  176.7230  137.8800 C   0  0  0  0  0  3  0  0  0  0  0  0
  191.8940  176.8650  146.1770 O   0  0  0  0  0  1  0  0  0  0  0  0
  186.6880  178.7250  140.8050 C   0  0  0  0  0  0  0  0  0  0  0  0
  189.1560  177.3590  140.4570 C   0  0  0  0  0  0  0  0  0  0  0  0
  191.3990  176.4020  143.9200 C   0  0  0  0  0  3  0  0  0  0  0  0
  187.1140  178.3440  139.5400 C   0  0  0  0  0  3  0  0  0  0  0  0
  190.4450  176.3120  142.7600 C   0  0  1  0  0  3  0  0  0  0  0  0
  192.7770  176.7740  139.3210 C   0  0  0  0  0  2  0  0  0  0  0  0
  194.0640  175.6140  137.4680 C   0  0  0  0  0  0  0  0  0  0  0  0
  193.4480  176.7740  138.0260 N   0  0  0  0  0  2  0  0  0  0  0  0
  194.1590  174.5530  138.1400 O   0  0  0  0  0  0  0  0  0  0  0  0
  194.5660  175.6460  136.0530 C   0  0  0  0  0  2  0  0  0  0  0  0
  195.7960  176.4330  135.8690 N   0  0  0  0  0  0  0  0  0  0  0  0
  196.9120  175.5600  135.5340 C   0  0  0  0  0  1  0  0  0  0  0  0
  195.6230  177.3880  134.7860 C   0  0  0  0  0  1  0  0  0  0  0  0
  185.4520  179.4190  140.9940 N   0  0  0  0  0  2  0  0  0  0  0  0
  184.2930  178.8080  141.6370 C   0  0  1  0  0  3  0  0  0  0  0  0
  183.1030  178.6770  140.7410 C   0  0  2  0  0  3  0  0  0  0  0  0
  183.9770  177.6000  140.9890 O   0  0  0  0  0  0  0  0  0  0  0  0
  184.0280  180.5370  138.9950 O   0  0  0  0  0  0  0  0  0  0  0  0
  183.2870  179.2280  139.0380 S   0  0  0  0  0  0  0  0  0  0  0  0
  184.0310  178.2020  138.2290 O   0  0  0  0  0  0  0  0  0  0  0  0
  181.6690  179.4430  138.3120 C   0  0  0  0  0  2  0  0  0  0  0  0
  180.4040  181.4030  139.1790 C   0  0  0  0  0  1  0  0  0  0  0  0
  180.7200  181.1100  136.7480 C   0  0  0  0  0  1  0  0  0  0  0  0
  181.3580  180.9140  138.1060 C   0  0  0  0  0  3  0  0  0  0  0  0
  2  8  2  0  0  0  0
  3  8  1  0  0  0  0
  3 14  1  0  0  0  0
  4  2  1  1  0  0  0
  5 16  2  0  0  0  0
  5  9  1  0  0  0  0
  6 12  2  0  0  0  0
  6  4  1  0  0  0  0
  7 20  1  0  0  0  0
  7  5  1  0  0  0  0
  9 19  1  0  0  0  0
 10  1  1  1  0  0  0
 10 18  1  0  0  0  0
 10 16  1  0  0  0  0
 11 13  1  0  0  0  0
 11  1  2  0  0  0  0
 13  7  2  0  0  0  0
 15 28  1  0  0  0  0
 15 12  1  0  0  0  0
 16  6  1  0  0  0  0
 17  3  2  0  0  0  0
 18 15  2  0  0  0  0
 19  4  1  0  0  0  0
 19 17  1  1  0  0  0
 21 22  1  0  0  0  0
 21 23  2  0  0  0  0
 22 20  1  0  0  0  0
 24 21  1  0  0  0  0
 25 24  1  0  0  0  0
 26 25  1  0  0  0  0
 27 25  1  0  0  0  0
 29 28  1  6  0  0  0
 30 33  1  6  0  0  0
 30 31  1  0  0  0  0
 30 29  1  0  0  0  0
 31 29  1  0  0  0  0
 32 33  2  0  0  0  0
 34 33  2  0  0  0  0
 35 33  1  0  0  0  0
 37 38  1  0  0  0  0
 38 35  1  0  0  0  0
 38 36  1  0  0  0  0
M  END
>  <MODEL>
2

>  <REMARK>
 VINA RESULT:      -8.3      4.129      8.424
  Name = 
  9 active torsions:
  status: ('A' for Active; 'I' for Inactive)
    1  A    between atoms: N_6  and  C_14
    2  A    between atoms: C_9  and  C_17
    3  A    between atoms: S_10  and  C_31
    4  A    between atoms: S_10  and  C_33
    5  A    between atoms: C_11  and  C_14
    6  A    between atoms: N_15  and  C_17
    7  A    between atoms: C_16  and  N_28
    8  A    between atoms: N_28  and  C_29
    9  A    between atoms: C_33  and  C_34
                            x       y       z     vdW  Elec       q    Type
                         _______ _______ _______ _____ _____    ______ ____

>  <TORSDO>
F 9

$$$$
=
 OpenBabel10232408103D

 38 42  0  0  1  0  0  0  0  0999 V2000
  187.3190  177.7710  138.8640 C   0  0  0  0  0  3  0  0  0  0  0  0
  184.5930  178.6100  144.4880 C   0  0  0  0  0  3  0  0  0  0  0  0
  186.1780  178.3840  146.3390 C   0  0  0  0  0  0  0  0  0  0  0  0
  185.6900  178.2840  143.5470 C   0  0  2  0  0  3  0  0  0  0  0  0
  187.9430  178.0270  141.9070 C   0  0  0  0  0  0  0  0  0  0  0  0
  185.5940  178.4680  142.2140 C   0  0  0  0  0  0  0  0  0  0  0  0
  189.2690  178.0790  141.2340 C   0  0  0  0  0  0  0  0  0  0  0  0
  184.8280  178.6420  145.8030 C   0  0  0  0  0  3  0  0  0  0  0  0
  188.0280  177.8890  143.3010 O   0  0  0  0  0  0  0  0  0  0  0  0
  186.4650  178.2920  139.9330 C   0  0  2  0  0  3  0  0  0  0  0  0
  188.6210  177.5570  138.8690 C   0  0  0  0  0  3  0  0  0  0  0  0
  184.3740  178.9110  141.6840 C   0  0  0  0  0  3  0  0  0  0  0  0
  189.5390  177.8360  139.9580 C   0  0  0  0  0  3  0  0  0  0  0  0
  186.4400  178.6230  147.6810 O   0  0  0  0  0  1  0  0  0  0  0  0
  184.1910  179.0570  140.3210 C   0  0  0  0  0  0  0  0  0  0  0  0
  186.7110  178.2260  141.3380 C   0  0  0  0  0  0  0  0  0  0  0  0
  187.1600  177.9470  145.5410 C   0  0  0  0  0  3  0  0  0  0  0  0
  185.2230  178.7090  139.4590 C   0  0  0  0  0  3  0  0  0  0  0  0
  186.9000  177.5970  144.1010 C   0  0  1  0  0  3  0  0  0  0  0  0
  190.4770  178.3600  142.0760 C   0  0  0  0  0  2  0  0  0  0  0  0
  191.4560  177.4130  144.2160 C   0  0  0  0  0  0  0  0  0  0  0  0
  190.7220  177.2600  143.0010 N   0  0  0  0  0  2  0  0  0  0  0  0
  192.0350  178.4980  144.4820 O   0  0  0  0  0  0  0  0  0  0  0  0
  191.5030  176.2820  145.2040 C   0  0  0  0  0  2  0  0  0  0  0  0
  191.6780  176.7120  146.6000 N   0  0  0  0  0  0  0  0  0  0  0  0
  190.3830  176.9320  147.2300 C   0  0  0  0  0  1  0  0  0  0  0  0
  192.3830  175.6880  147.3550 C   0  0  0  0  0  1  0  0  0  0  0  0
  182.9200  179.4830  139.8220 N   0  0  0  0  0  2  0  0  0  0  0  0
  182.1270  178.6840  138.8940 C   0  0  1  0  0  3  0  0  0  0  0  0
  181.1210  179.4760  138.1210 C   0  0  2  0  0  3  0  0  0  0  0  0
  182.3690  179.1150  137.5760 O   0  0  0  0  0  0  0  0  0  0  0  0
  180.3100  181.5540  139.6660 O   0  0  0  0  0  0  0  0  0  0  0  0
  181.0730  181.2530  138.4050 S   0  0  0  0  0  0  0  0  0  0  0  0
  182.4670  181.8060  138.5160 O   0  0  0  0  0  0  0  0  0  0  0  0
  180.2670  182.0470  137.0230 C   0  0  0  0  0  2  0  0  0  0  0  0
  180.2220  184.4860  137.5180 C   0  0  0  0  0  1  0  0  0  0  0  0
  180.7710  183.6920  135.2450 C   0  0  0  0  0  1  0  0  0  0  0  0
  180.9050  183.3900  136.7210 C   0  0  0  0  0  3  0  0  0  0  0  0
  1 11  2  0  0  0  0
  2  8  2  0  0  0  0
  3 14  1  0  0  0  0
  4 19  1  0  0  0  0
  4  2  1  6  0  0  0
  5  9  1  0  0  0  0
  6  4  1  0  0  0  0
  7  5  1  0  0  0  0
  7 20  1  0  0  0  0
  8  3  1  0  0  0  0
  9 19  1  0  0  0  0
 10  1  1  1  0  0  0
 10 16  1  0  0  0  0
 11 13  1  0  0  0  0
 12  6  2  0  0  0  0
 13  7  2  0  0  0  0
 15 12  1  0  0  0  0
 16  5  2  0  0  0  0
 16  6  1  0  0  0  0
 17  3  2  0  0  0  0
 18 10  1  0  0  0  0
 18 15  2  0  0  0  0
 19 17  1  1  0  0  0
 20 22  1  0  0  0  0
 21 23  2  0  0  0  0
 21 24  1  0  0  0  0
 22 21  1  0  0  0  0
 24 25  1  0  0  0  0
 25 26  1  0  0  0  0
 25 27  1  0  0  0  0
 28 15  1  0  0  0  0
 29 28  1  1  0  0  0
 30 33  1  1  0  0  0
 30 29  1  0  0  0  0
 31 30  1  0  0  0  0
 31 29  1  0  0  0  0
 33 34  2  0  0  0  0
 33 32  2  0  0  0  0
 35 33  1  0  0  0  0
 37 38  1  0  0  0  0
 38 35  1  0  0  0  0
 38 36  1  0  0  0  0
M  END
>  <MODEL>
3

>  <REMARK>
 VINA RESULT:      -8.0      3.780      8.911
  Name = 
  9 active torsions:
  status: ('A' for Active; 'I' for Inactive)
    1  A    between atoms: N_6  and  C_14
    2  A    between atoms: C_9  and  C_17
    3  A    between atoms: S_10  and  C_31
    4  A    between atoms: S_10  and  C_33
    5  A    between atoms: C_11  and  C_14
    6  A    between atoms: N_15  and  C_17
    7  A    between atoms: C_16  and  N_28
    8  A    between atoms: N_28  and  C_29
    9  A    between atoms: C_33  and  C_34
                            x       y       z     vdW  Elec       q    Type
                         _______ _______ _______ _____ _____    ______ ____

>  <TORSDO>
F 9

$$$$
=
 OpenBabel10232408103D

 38 42  0  0  1  0  0  0  0  0999 V2000
  190.5740  177.3430  140.1670 C   0  0  0  0  0  3  0  0  0  0  0  0
  184.6380  178.4390  141.9900 C   0  0  0  0  0  3  0  0  0  0  0  0
  184.4450  178.7540  144.4090 C   0  0  0  0  0  0  0  0  0  0  0  0
  186.0870  178.1890  142.1660 C   0  0  2  0  0  3  0  0  0  0  0  0
  188.8450  178.1180  142.6410 C   0  0  0  0  0  0  0  0  0  0  0  0
  186.9610  178.1700  141.1390 C   0  0  0  0  0  0  0  0  0  0  0  0
  190.2540  178.3130  143.0770 C   0  0  0  0  0  0  0  0  0  0  0  0
  183.8680  178.6910  143.0520 C   0  0  0  0  0  3  0  0  0  0  0  0
  187.9180  178.1890  143.6930 O   0  0  0  0  0  0  0  0  0  0  0  0
  189.1980  177.8430  140.2020 C   0  0  0  0  0  0  0  0  0  0  0  0
  191.4920  177.3680  141.1130 C   0  0  0  0  0  2  0  0  0  0  0  0
  186.4650  178.3120  139.8350 C   0  0  0  0  0  3  0  0  0  0  0  0
  191.3560  177.9520  142.4350 C   0  0  0  0  0  3  0  0  0  0  0  0
  183.6690  179.2160  145.4630 O   0  0  0  0  0  1  0  0  0  0  0  0
  187.3000  178.2350  138.7340 C   0  0  0  0  0  0  0  0  0  0  0  0
  188.3760  178.0140  141.3570 C   0  0  0  0  0  0  0  0  0  0  0  0
  185.7150  178.3950  144.6300 C   0  0  0  0  0  3  0  0  0  0  0  0
  188.6480  177.9630  138.9270 C   0  0  0  0  0  3  0  0  0  0  0  0
  186.5650  177.8120  143.5340 C   0  0  1  0  0  3  0  0  0  0  0  0
  190.4970  178.9180  144.4270 C   0  0  0  0  0  2  0  0  0  0  0  0
  190.2620  177.4190  146.4600 C   0  0  0  0  0  0  0  0  0  0  0  0
  191.0120  177.9140  145.3500 N   0  0  0  0  0  2  0  0  0  0  0  0
  189.1510  177.9300  146.7600 O   0  0  0  0  0  0  0  0  0  0  0  0
  190.7840  176.2540  147.2500 C   0  0  0  0  0  2  0  0  0  0  0  0
  192.2220  175.9980  147.0650 N   0  0  0  0  0  0  0  0  0  0  0  0
  192.8450  175.6620  148.3390 C   0  0  0  0  0  1  0  0  0  0  0  0
  192.4190  174.8830  146.1530 C   0  0  0  0  0  1  0  0  0  0  0  0
  186.7480  178.3560  137.4220 N   0  0  0  0  0  2  0  0  0  0  0  0
  187.5730  178.4330  136.2210 C   0  0  1  0  0  3  0  0  0  0  0  0
  187.4570  177.2390  135.3290 C   0  0  2  0  0  3  0  0  0  0  0  0
  186.7480  178.4310  135.0810 O   0  0  0  0  0  0  0  0  0  0  0  0
  185.0430  176.5520  136.3600 O   0  0  0  0  0  0  0  0  0  0  0  0
  186.3120  175.9430  135.8270 S   0  0  0  0  0  0  0  0  0  0  0  0
  185.9900  175.0480  134.6630 O   0  0  0  0  0  0  0  0  0  0  0  0
  187.0690  174.9490  137.1030 C   0  0  0  0  0  2  0  0  0  0  0  0
  188.2590  172.7760  136.8630 C   0  0  0  0  0  1  0  0  0  0  0  0
  189.5360  174.8480  137.2760 C   0  0  0  0  0  1  0  0  0  0  0  0
  188.3220  174.2650  136.5860 C   0  0  0  0  0  3  0  0  0  0  0  0
  1 10  2  0  0  0  0
  1 11  1  0  0  0  0
  2  8  2  0  0  0  0
  3 17  2  0  0  0  0
  3 14  1  0  0  0  0
  4  2  1  6  0  0  0
  4 19  1  0  0  0  0
  5  7  1  0  0  0  0
  5  9  1  0  0  0  0
  6 16  1  0  0  0  0
  6  4  1  0  0  0  0
  7 20  1  0  0  0  0
  8  3  1  0  0  0  0
 10 16  1  0  0  0  0
 11 13  1  0  0  0  0
 12  6  2  0  0  0  0
 13  7  2  0  0  0  0
 15 18  2  0  0  0  0
 15 12  1  0  0  0  0
 16  5  2  0  0  0  0
 18 10  1  0  0  0  0
 19  9  1  0  0  0  0
 19 17  1  1  0  0  0
 20 22  1  0  0  0  0
 21 23  2  0  0  0  0
 21 24  1  0  0  0  0
 22 21  1  0  0  0  0
 25 24  1  0  0  0  0
 25 26  1  0  0  0  0
 27 25  1  0  0  0  0
 28 15  1  0  0  0  0
 29 28  1  1  0  0  0
 30 33  1  1  0  0  0
 30 29  1  0  0  0  0
 31 30  1  0  0  0  0
 31 29  1  0  0  0  0
 33 32  2  0  0  0  0
 33 35  1  0  0  0  0
 34 33  2  0  0  0  0
 38 36  1  0  0  0  0
 38 35  1  0  0  0  0
 38 37  1  0  0  0  0
M  END
>  <MODEL>
4

>  <REMARK>
 VINA RESULT:      -7.8      3.095      8.178
  Name = 
  9 active torsions:
  status: ('A' for Active; 'I' for Inactive)
    1  A    between atoms: N_6  and  C_14
    2  A    between atoms: C_9  and  C_17
    3  A    between atoms: S_10  and  C_31
    4  A    between atoms: S_10  and  C_33
    5  A    between atoms: C_11  and  C_14
    6  A    between atoms: N_15  and  C_17
    7  A    between atoms: C_16  and  N_28
    8  A    between atoms: N_28  and  C_29
    9  A    between atoms: C_33  and  C_34
                            x       y       z     vdW  Elec       q    Type
                         _______ _______ _______ _____ _____    ______ ____

>  <TORSDO>
F 9

$$$$
=
 OpenBabel10232408103D

 38 42  0  0  1  0  0  0  0  0999 V2000
  187.2950  178.4240  139.6150 C   0  0  0  0  0  3  0  0  0  0  0  0
  191.5970  176.6390  143.8650 C   0  0  0  0  0  3  0  0  0  0  0  0
  190.8020  176.8930  146.1660 C   0  0  0  0  0  0  0  0  0  0  0  0
  190.3170  177.2090  143.3890 C   0  0  2  0  0  3  0  0  0  0  0  0
  187.7150  177.9470  142.6660 C   0  0  0  0  0  0  0  0  0  0  0  0
  189.9180  177.1510  142.1010 C   0  0  0  0  0  0  0  0  0  0  0  0
  186.2500  178.1520  142.5040 C   0  0  0  0  0  0  0  0  0  0  0  0
  191.8240  176.5050  145.1750 C   0  0  0  0  0  3  0  0  0  0  0  0
  188.1360  177.9520  144.0050 O   0  0  0  0  0  0  0  0  0  0  0  0
  188.3630  177.6810  140.2870 C   0  0  2  0  0  3  0  0  0  0  0  0
  186.1290  178.8170  140.0900 C   0  0  0  0  0  3  0  0  0  0  0  0
  190.7920  176.5980  141.1540 C   0  0  0  0  0  3  0  0  0  0  0  0
  185.6060  178.5590  141.4190 C   0  0  0  0  0  3  0  0  0  0  0  0
  190.9790  176.5570  147.5010 O   0  0  0  0  0  1  0  0  0  0  0  0
  190.4710  176.5690  139.8090 C   0  0  0  0  0  0  0  0  0  0  0  0
  188.6270  177.6370  141.6900 C   0  0  0  0  0  0  0  0  0  0  0  0
  189.6950  177.5430  145.7880 C   0  0  0  0  0  3  0  0  0  0  0  0
  189.2810  177.1450  139.3860 C   0  0  0  0  0  3  0  0  0  0  0  0
  189.5020  177.9990  144.3670 C   0  0  1  0  0  3  0  0  0  0  0  0
  185.3730  177.9580  143.7050 C   0  0  0  0  0  2  0  0  0  0  0  0
  183.1580  178.9790  144.4020 C   0  0  0  0  0  0  0  0  0  0  0  0
  184.0120  178.3940  143.4180 N   0  0  0  0  0  2  0  0  0  0  0  0
  183.5130  179.0300  145.6090 O   0  0  0  0  0  0  0  0  0  0  0  0
  181.8430  179.5740  143.9870 C   0  0  0  0  0  2  0  0  0  0  0  0
  181.0120  178.6800  143.1650 N   0  0  0  0  0  0  0  0  0  0  0  0
  179.9820  178.0520  143.9810 C   0  0  0  0  0  1  0  0  0  0  0  0
  180.3580  179.4350  142.1080 C   0  0  0  0  0  1  0  0  0  0  0  0
  191.4040  176.0220  138.8740 N   0  0  0  0  0  2  0  0  0  0  0  0
  190.9910  175.2830  137.6850 C   0  0  1  0  0  3  0  0  0  0  0  0
  192.1130  174.9730  136.7460 C   0  0  2  0  0  3  0  0  0  0  0  0
  191.6240  174.0270  137.6680 O   0  0  0  0  0  0  0  0  0  0  0  0
  193.7710  176.9660  137.5470 O   0  0  0  0  0  0  0  0  0  0  0  0
  193.7660  175.4950  137.2320 S   0  0  0  0  0  0  0  0  0  0  0  0
  194.2310  174.7210  138.4330 O   0  0  0  0  0  0  0  0  0  0  0  0
  194.9000  175.1760  135.8900 C   0  0  0  0  0  2  0  0  0  0  0  0
  197.3860  175.1290  136.0140 C   0  0  0  0  0  1  0  0  0  0  0  0
  196.1200  173.0280  135.7270 C   0  0  0  0  0  1  0  0  0  0  0  0
  196.1080  174.3950  136.3750 C   0  0  0  0  0  3  0  0  0  0  0  0
  1 11  2  0  0  0  0
  1 10  1  0  0  0  0
  2  8  2  0  0  0  0
  3 14  1  0  0  0  0
  4  2  1  6  0  0  0
  4 19  1  0  0  0  0
  5  9  1  0  0  0  0
  6  4  1  0  0  0  0
  7  5  1  0  0  0  0
  7 20  1  0  0  0  0
  8  3  1  0  0  0  0
  9 19  1  0  0  0  0
 10 18  1  6  0  0  0
 10 16  1  0  0  0  0
 11 13  1  0  0  0  0
 12  6  2  0  0  0  0
 13  7  2  0  0  0  0
 15 12  1  0  0  0  0
 16  6  1  0  0  0  0
 16  5  2  0  0  0  0
 17  3  2  0  0  0  0
 18 15  2  0  0  0  0
 19 17  1  1  0  0  0
 21 23  2  0  0  0  0
 22 20  1  0  0  0  0
 22 21  1  0  0  0  0
 24 21  1  0  0  0  0
 25 26  1  0  0  0  0
 25 24  1  0  0  0  0
 27 25  1  0  0  0  0
 28 15  1  0  0  0  0
 29 28  1  1  0  0  0
 30 33  1  1  0  0  0
 30 31  1  0  0  0  0
 30 29  1  0  0  0  0
 31 29  1  0  0  0  0
 33 32  2  0  0  0  0
 33 34  2  0  0  0  0
 35 38  1  0  0  0  0
 35 33  1  0  0  0  0
 36 38  1  0  0  0  0
 37 38  1  0  0  0  0
M  END
>  <MODEL>
5

>  <REMARK>
 VINA RESULT:      -7.7      4.282      7.658
  Name = 
  9 active torsions:
  status: ('A' for Active; 'I' for Inactive)
    1  A    between atoms: N_6  and  C_14
    2  A    between atoms: C_9  and  C_17
    3  A    between atoms: S_10  and  C_31
    4  A    between atoms: S_10  and  C_33
    5  A    between atoms: C_11  and  C_14
    6  A    between atoms: N_15  and  C_17
    7  A    between atoms: C_16  and  N_28
    8  A    between atoms: N_28  and  C_29
    9  A    between atoms: C_33  and  C_34
                            x       y       z     vdW  Elec       q    Type
                         _______ _______ _______ _____ _____    ______ ____

>  <TORSDO>
F 9

$$$$
=
 OpenBabel10232408103D

 38 42  0  0  1  0  0  0  0  0999 V2000
  185.8500  178.1570  142.8550 C   0  0  0  0  0  3  0  0  0  0  0  0
  189.5510  177.3360  137.8160 C   0  0  0  0  0  3  0  0  0  0  0  0
  188.3580  177.7000  135.7100 C   0  0  0  0  0  0  0  0  0  0  0  0
  188.2850  177.5870  138.5430 C   0  0  2  0  0  3  0  0  0  0  0  0
  185.9140  178.4520  139.7530 C   0  0  0  0  0  0  0  0  0  0  0  0
  188.2310  177.8010  139.8740 C   0  0  0  0  0  0  0  0  0  0  0  0
  184.6570  179.1230  140.1800 C   0  0  0  0  0  0  0  0  0  0  0  0
  189.5750  177.3780  136.4810 C   0  0  0  0  0  3  0  0  0  0  0  0
  186.0080  178.2710  138.3650 O   0  0  0  0  0  0  0  0  0  0  0  0
  187.0090  178.1780  141.9610 C   0  0  0  0  0  0  0  0  0  0  0  0
  184.6080  178.5330  142.6160 C   0  0  0  0  0  2  0  0  0  0  0  0
  189.4160  177.7020  140.6170 C   0  0  0  0  0  3  0  0  0  0  0  0
  184.1020  179.1100  141.3850 C   0  0  0  0  0  3  0  0  0  0  0  0
  188.4550  177.9370  134.3460 O   0  0  0  0  0  1  0  0  0  0  0  0
  189.4170  177.8450  141.9940 C   0  0  0  0  0  0  0  0  0  0  0  0
  186.9950  178.1310  140.5340 C   0  0  0  0  0  0  0  0  0  0  0  0
  187.1690  177.7910  136.3160 C   0  0  0  0  0  3  0  0  0  0  0  0
  188.2110  178.0420  142.6530 C   0  0  0  0  0  3  0  0  0  0  0  0
  187.0060  177.4610  137.7750 C   0  0  1  0  0  3  0  0  0  0  0  0
  183.8540  179.8460  139.1400 C   0  0  0  0  0  2  0  0  0  0  0  0
  182.0170  178.3700  138.2020 C   0  0  0  0  0  0  0  0  0  0  0  0
  182.4810  179.3560  139.1230 N   0  0  0  0  0  2  0  0  0  0  0  0
  182.7600  177.9640  137.2700 O   0  0  0  0  0  0  0  0  0  0  0  0
  180.6450  177.7810  138.3700 C   0  0  0  0  0  2  0  0  0  0  0  0
  180.5500  176.7760  139.4400 N   0  0  0  0  0  0  0  0  0  0  0  0
  181.7640  175.9710  139.4900 C   0  0  0  0  0  1  0  0  0  0  0  0
  180.3850  177.4290  140.7290 C   0  0  0  0  0  1  0  0  0  0  0  0
  190.6430  177.7070  142.7150 N   0  0  0  0  0  2  0  0  0  0  0  0
  191.4090  176.4650  142.7400 C   0  0  1  0  0  3  0  0  0  0  0  0
  191.7740  176.0060  144.1160 C   0  0  2  0  0  3  0  0  0  0  0  0
  190.6750  175.4720  143.4150 O   0  0  0  0  0  0  0  0  0  0  0  0
  192.0090  176.7110  146.7260 O   0  0  0  0  0  0  0  0  0  0  0  0
  191.1860  176.9970  145.4990 S   0  0  0  0  0  0  0  0  0  0  0  0
  191.2670  178.4620  145.1700 O   0  0  0  0  0  0  0  0  0  0  0  0
  189.4780  176.5930  145.8280 C   0  0  0  0  0  2  0  0  0  0  0  0
  188.9600  177.7870  147.9490 C   0  0  0  0  0  1  0  0  0  0  0  0
  187.2710  177.6640  146.1530 C   0  0  0  0  0  1  0  0  0  0  0  0
  188.7510  177.7730  146.4470 C   0  0  0  0  0  3  0  0  0  0  0  0
  3 17  2  0  0  0  0
  3  8  1  0  0  0  0
  4  2  1  1  0  0  0
  4  6  1  0  0  0  0
  5  7  1  0  0  0  0
  5 16  2  0  0  0  0
  6 16  1  0  0  0  0
  6 12  2  0  0  0  0
  7 13  2  0  0  0  0
  8  2  2  0  0  0  0
  9  5  1  0  0  0  0
 10 18  1  0  0  0  0
 10  1  2  0  0  0  0
 11  1  1  0  0  0  0
 12 15  1  0  0  0  0
 13 11  1  0  0  0  0
 14  3  1  0  0  0  0
 15 18  2  0  0  0  0
 15 28  1  0  0  0  0
 16 10  1  0  0  0  0
 19 17  1  6  0  0  0
 19  9  1  0  0  0  0
 19  4  1  0  0  0  0
 20  7  1  0  0  0  0
 21 24  1  0  0  0  0
 21 22  1  0  0  0  0
 22 20  1  0  0  0  0
 23 21  2  0  0  0  0
 24 25  1  0  0  0  0
 25 26  1  0  0  0  0
 25 27  1  0  0  0  0
 29 28  1  1  0  0  0
 29 31  1  0  0  0  0
 29 30  1  0  0  0  0
 30 33  1  1  0  0  0
 31 30  1  0  0  0  0
 33 35  1  0  0  0  0
 33 32  2  0  0  0  0
 34 33  2  0  0  0  0
 35 38  1  0  0  0  0
 37 38  1  0  0  0  0
 38 36  1  0  0  0  0
M  END
>  <MODEL>
6

>  <REMARK>
 VINA RESULT:      -7.6      2.408      4.606
  Name = 
  9 active torsions:
  status: ('A' for Active; 'I' for Inactive)
    1  A    between atoms: N_6  and  C_14
    2  A    between atoms: C_9  and  C_17
    3  A    between atoms: S_10  and  C_31
    4  A    between atoms: S_10  and  C_33
    5  A    between atoms: C_11  and  C_14
    6  A    between atoms: N_15  and  C_17
    7  A    between atoms: C_16  and  N_28
    8  A    between atoms: N_28  and  C_29
    9  A    between atoms: C_33  and  C_34
                            x       y       z     vdW  Elec       q    Type
                         _______ _______ _______ _____ _____    ______ ____

>  <TORSDO>
F 9

$$$$
=
 OpenBabel10232408103D

 38 42  0  0  1  0  0  0  0  0999 V2000
  189.7850  177.2160  139.8580 C   0  0  0  0  0  3  0  0  0  0  0  0
  184.8470  178.5860  143.5320 C   0  0  0  0  0  3  0  0  0  0  0  0
  185.4490  178.7110  145.9000 C   0  0  0  0  0  0  0  0  0  0  0  0
  186.2480  178.2180  143.2240 C   0  0  2  0  0  3  0  0  0  0  0  0
  188.9960  177.9050  142.7930 C   0  0  0  0  0  0  0  0  0  0  0  0
  186.7520  178.2210  141.9720 C   0  0  0  0  0  0  0  0  0  0  0  0
  190.4820  177.9600  142.7680 C   0  0  0  0  0  0  0  0  0  0  0  0
  184.4750  178.8040  144.7960 C   0  0  0  0  0  3  0  0  0  0  0  0
  188.4550  177.9550  144.0870 O   0  0  0  0  0  0  0  0  0  0  0  0
  188.5440  177.8110  140.3560 C   0  0  0  0  0  0  0  0  0  0  0  0
  190.9510  177.0940  140.4630 C   0  0  0  0  0  2  0  0  0  0  0  0
  185.8910  178.5070  140.9040 C   0  0  0  0  0  3  0  0  0  0  0  0
  191.2900  177.5730  141.7900 C   0  0  0  0  0  3  0  0  0  0  0  0
  185.0880  179.1380  147.1700 O   0  0  0  0  0  1  0  0  0  0  0  0
  186.3300  178.4630  139.5930 C   0  0  0  0  0  0  0  0  0  0  0  0
  188.1420  177.9440  141.7200 C   0  0  0  0  0  0  0  0  0  0  0  0
  186.6840  178.2430  145.6850 C   0  0  0  0  0  3  0  0  0  0  0  0
  187.6380  178.0770  139.3310 C   0  0  0  0  0  3  0  0  0  0  0  0
  187.0900  177.6920  144.3450 C   0  0  1  0  0  3  0  0  0  0  0  0
  191.1920  178.4300  144.0030 C   0  0  0  0  0  2  0  0  0  0  0  0
  191.0690  176.8970  146.0210 C   0  0  0  0  0  0  0  0  0  0  0  0
  190.5230  177.9280  145.1970 N   0  0  0  0  0  2  0  0  0  0  0  0
  192.1120  176.2840  145.6720 O   0  0  0  0  0  0  0  0  0  0  0  0
  190.4160  176.5690  147.3330 C   0  0  0  0  0  2  0  0  0  0  0  0
  189.2280  177.3830  147.6330 N   0  0  0  0  0  0  0  0  0  0  0  0
  188.1630  176.5480  148.1730 C   0  0  0  0  0  1  0  0  0  0  0  0
  189.5530  178.4000  148.6200 C   0  0  0  0  0  1  0  0  0  0  0  0
  185.4100  178.7330  138.5320 N   0  0  0  0  0  2  0  0  0  0  0  0
  184.5630  177.7030  137.9390 C   0  0  1  0  0  3  0  0  0  0  0  0
  183.1030  177.8980  138.1960 C   0  0  2  0  0  3  0  0  0  0  0  0
  183.7090  178.2870  136.9860 O   0  0  0  0  0  0  0  0  0  0  0  0
  182.5650  179.0410  140.5980 O   0  0  0  0  0  0  0  0  0  0  0  0
  182.6160  179.3590  139.1280 S   0  0  0  0  0  0  0  0  0  0  0  0
  183.5850  180.4830  138.8890 O   0  0  0  0  0  0  0  0  0  0  0  0
  181.0000  179.8920  138.5840 C   0  0  0  0  0  2  0  0  0  0  0  0
  180.2870  182.1340  137.7730 C   0  0  0  0  0  1  0  0  0  0  0  0
  180.6100  180.2830  136.1720 C   0  0  0  0  0  1  0  0  0  0  0  0
  181.1130  180.9020  137.4570 C   0  0  0  0  0  3  0  0  0  0  0  0
  1 10  2  0  0  0  0
  1 11  1  0  0  0  0
  2  8  2  0  0  0  0
  3 14  1  0  0  0  0
  4  2  1  6  0  0  0
  4 19  1  0  0  0  0
  5  9  1  0  0  0  0
  6  4  1  0  0  0  0
  7  5  1  0  0  0  0
  7 20  1  0  0  0  0
  8  3  1  0  0  0  0
  9 19  1  0  0  0  0
 10 16  1  0  0  0  0
 11 13  1  0  0  0  0
 12  6  2  0  0  0  0
 13  7  2  0  0  0  0
 15 12  1  0  0  0  0
 16  6  1  0  0  0  0
 16  5  2  0  0  0  0
 17  3  2  0  0  0  0
 18 15  2  0  0  0  0
 18 10  1  0  0  0  0
 19 17  1  1  0  0  0
 20 22  1  0  0  0  0
 21 24  1  0  0  0  0
 22 21  1  0  0  0  0
 23 21  2  0  0  0  0
 24 25  1  0  0  0  0
 25 26  1  0  0  0  0
 25 27  1  0  0  0  0
 28 15  1  0  0  0  0
 29 30  1  0  0  0  0
 29 28  1  1  0  0  0
 30 33  1  1  0  0  0
 31 29  1  0  0  0  0
 31 30  1  0  0  0  0
 33 32  2  0  0  0  0
 34 33  2  0  0  0  0
 35 33  1  0  0  0  0
 37 38  1  0  0  0  0
 38 36  1  0  0  0  0
 38 35  1  0  0  0  0
M  END
>  <MODEL>
7

>  <REMARK>
 VINA RESULT:      -7.6      3.099      8.477
  Name = 
  9 active torsions:
  status: ('A' for Active; 'I' for Inactive)
    1  A    between atoms: N_6  and  C_14
    2  A    between atoms: C_9  and  C_17
    3  A    between atoms: S_10  and  C_31
    4  A    between atoms: S_10  and  C_33
    5  A    between atoms: C_11  and  C_14
    6  A    between atoms: N_15  and  C_17
    7  A    between atoms: C_16  and  N_28
    8  A    between atoms: N_28  and  C_29
    9  A    between atoms: C_33  and  C_34
                            x       y       z     vdW  Elec       q    Type
                         _______ _______ _______ _____ _____    ______ ____

>  <TORSDO>
F 9

$$$$
=
 OpenBabel10232408103D

 38 42  0  0  1  0  0  0  0  0999 V2000
  187.5160  177.7250  139.0830 C   0  0  0  0  0  3  0  0  0  0  0  0
  184.9030  178.4230  144.7800 C   0  0  0  0  0  3  0  0  0  0  0  0
  186.5320  178.1890  146.5910 C   0  0  0  0  0  0  0  0  0  0  0  0
  185.9830  178.1310  143.8090 C   0  0  2  0  0  3  0  0  0  0  0  0
  188.2030  177.9360  142.1150 C   0  0  0  0  0  0  0  0  0  0  0  0
  185.8550  178.3370  142.4820 C   0  0  0  0  0  0  0  0  0  0  0  0
  189.5130  178.0190  141.4150 C   0  0  0  0  0  0  0  0  0  0  0  0
  185.1660  178.4360  146.0890 C   0  0  0  0  0  3  0  0  0  0  0  0
  188.3210  177.7750  143.5050 O   0  0  0  0  0  0  0  0  0  0  0  0
  186.6780  178.2140  140.1800 C   0  0  2  0  0  3  0  0  0  0  0  0
  188.8200  177.5300  139.0560 C   0  0  0  0  0  3  0  0  0  0  0  0
  184.6170  178.7710  141.9870 C   0  0  0  0  0  3  0  0  0  0  0  0
  189.7580  177.8030  140.1290 C   0  0  0  0  0  3  0  0  0  0  0  0
  186.8190  178.4080  147.9310 O   0  0  0  0  0  1  0  0  0  0  0  0
  184.4020  178.9380  140.6310 C   0  0  0  0  0  0  0  0  0  0  0  0
  186.9560  178.1270  141.5780 C   0  0  0  0  0  0  0  0  0  0  0  0
  187.5010  177.7810  145.7640 C   0  0  0  0  0  3  0  0  0  0  0  0
  185.4190  178.6200  139.7410 C   0  0  0  0  0  3  0  0  0  0  0  0
  187.2150  177.4520  144.3240 C   0  0  1  0  0  3  0  0  0  0  0  0
  190.7350  178.3040  142.2350 C   0  0  0  0  0  2  0  0  0  0  0  0
  191.5440  177.4460  144.4810 C   0  0  0  0  0  0  0  0  0  0  0  0
  190.9690  177.2300  143.1920 N   0  0  0  0  0  2  0  0  0  0  0  0
  191.9920  178.5780  144.8000 O   0  0  0  0  0  0  0  0  0  0  0  0
  191.5770  176.3240  145.4790 C   0  0  0  0  0  2  0  0  0  0  0  0
  191.6830  176.7670  146.8780 N   0  0  0  0  0  0  0  0  0  0  0  0
  190.3580  176.9140  147.4650 C   0  0  0  0  0  1  0  0  0  0  0  0
  192.4200  175.7880  147.6600 C   0  0  0  0  0  1  0  0  0  0  0  0
  183.1150  179.3540  140.1680 N   0  0  0  0  0  2  0  0  0  0  0  0
  181.8690  178.8600  140.7470 C   0  0  1  0  0  3  0  0  0  0  0  0
  180.8960  178.3430  139.7370 C   0  0  2  0  0  3  0  0  0  0  0  0
  181.7360  177.4860  140.4750 O   0  0  0  0  0  0  0  0  0  0  0  0
  180.2040  178.2840  137.1140 O   0  0  0  0  0  0  0  0  0  0  0  0
  181.4090  178.3570  138.0120 S   0  0  0  0  0  0  0  0  0  0  0  0
  182.1900  179.6040  137.7050 O   0  0  0  0  0  0  0  0  0  0  0  0
  182.4630  176.9490  137.7010 C   0  0  0  0  0  2  0  0  0  0  0  0
  183.0790  177.1470  135.2980 C   0  0  0  0  0  1  0  0  0  0  0  0
  184.7520  176.3880  136.9470 C   0  0  0  0  0  1  0  0  0  0  0  0
  183.5690  177.3040  136.7250 C   0  0  0  0  0  3  0  0  0  0  0  0
  2  8  2  0  0  0  0
  3 14  1  0  0  0  0
  4 19  1  0  0  0  0
  4  2  1  6  0  0  0
  5  9  1  0  0  0  0
  6  4  1  0  0  0  0
  7  5  1  0  0  0  0
  7 20  1  0  0  0  0
  8  3  1  0  0  0  0
  9 19  1  0  0  0  0
 10  1  1  1  0  0  0
 10 16  1  0  0  0  0
 11  1  2  0  0  0  0
 11 13  1  0  0  0  0
 12  6  2  0  0  0  0
 13  7  2  0  0  0  0
 15 12  1  0  0  0  0
 16  5  2  0  0  0  0
 16  6  1  0  0  0  0
 17  3  2  0  0  0  0
 18 10  1  0  0  0  0
 18 15  2  0  0  0  0
 19 17  1  1  0  0  0
 20 22  1  0  0  0  0
 21 23  2  0  0  0  0
 21 24  1  0  0  0  0
 22 21  1  0  0  0  0
 24 25  1  0  0  0  0
 25 26  1  0  0  0  0
 25 27  1  0  0  0  0
 28 15  1  0  0  0  0
 29 28  1  6  0  0  0
 30 33  1  6  0  0  0
 30 31  1  0  0  0  0
 30 29  1  0  0  0  0
 31 29  1  0  0  0  0
 32 33  2  0  0  0  0
 34 33  2  0  0  0  0
 35 33  1  0  0  0  0
 36 38  1  0  0  0  0
 38 37  1  0  0  0  0
 38 35  1  0  0  0  0
M  END
>  <MODEL>
8

>  <REMARK>
 VINA RESULT:      -7.6      3.106      8.544
  Name = 
  9 active torsions:
  status: ('A' for Active; 'I' for Inactive)
    1  A    between atoms: N_6  and  C_14
    2  A    between atoms: C_9  and  C_17
    3  A    between atoms: S_10  and  C_31
    4  A    between atoms: S_10  and  C_33
    5  A    between atoms: C_11  and  C_14
    6  A    between atoms: N_15  and  C_17
    7  A    between atoms: C_16  and  N_28
    8  A    between atoms: N_28  and  C_29
    9  A    between atoms: C_33  and  C_34
                            x       y       z     vdW  Elec       q    Type
                         _______ _______ _______ _____ _____    ______ ____

>  <TORSDO>
F 9

$$$$
=
 OpenBabel10232408103D

 38 42  0  0  1  0  0  0  0  0999 V2000
  183.6780  179.0360  144.9470 C   0  0  0  0  0  3  0  0  0  0  0  0
  185.8840  178.4310  139.0710 C   0  0  0  0  0  3  0  0  0  0  0  0
  188.2620  177.8550  139.0190 C   0  0  0  0  0  0  0  0  0  0  0  0
  185.9590  178.4870  140.5480 C   0  0  2  0  0  3  0  0  0  0  0  0
  186.1950  178.1810  143.3210 C   0  0  0  0  0  0  0  0  0  0  0  0
  184.8670  178.5260  141.3400 C   0  0  0  0  0  0  0  0  0  0  0  0
  186.4820  177.7720  144.7230 C   0  0  0  0  0  0  0  0  0  0  0  0
  186.9760  178.1450  138.3560 C   0  0  0  0  0  3  0  0  0  0  0  0
  187.3100  178.0940  142.4730 O   0  0  0  0  0  0  0  0  0  0  0  0
  183.7790  178.6990  143.5260 C   0  0  0  0  0  0  0  0  0  0  0  0
  184.5320  178.7930  145.9220 C   0  0  0  0  0  2  0  0  0  0  0  0
  183.6040  178.5980  140.7360 C   0  0  0  0  0  3  0  0  0  0  0  0
  185.7890  178.0770  145.8120 C   0  0  0  0  0  3  0  0  0  0  0  0
  189.3230  177.3650  138.2700 O   0  0  0  0  0  1  0  0  0  0  0  0
  182.4490  178.7070  141.4910 C   0  0  0  0  0  0  0  0  0  0  0  0
  184.9760  178.4890  142.7750 C   0  0  0  0  0  0  0  0  0  0  0  0
  188.4090  178.0350  140.3360 C   0  0  0  0  0  3  0  0  0  0  0  0
  182.5520  178.7960  142.8730 C   0  0  0  0  0  3  0  0  0  0  0  0
  187.3130  178.6420  141.1700 C   0  0  1  0  0  3  0  0  0  0  0  0
  187.7320  176.9880  144.9870 C   0  0  0  0  0  2  0  0  0  0  0  0
  190.1660  177.7040  144.9740 C   0  0  0  0  0  0  0  0  0  0  0  0
  188.8800  177.6290  144.3580 N   0  0  0  0  0  2  0  0  0  0  0  0
  190.3300  177.3180  146.1610 O   0  0  0  0  0  0  0  0  0  0  0  0
  191.3400  178.2100  144.1860 C   0  0  0  0  0  2  0  0  0  0  0  0
  191.9880  177.1860  143.3500 N   0  0  0  0  0  0  0  0  0  0  0  0
  191.5720  175.8540  143.7660 C   0  0  0  0  0  1  0  0  0  0  0  0
  191.6140  177.3660  141.9570 C   0  0  0  0  0  1  0  0  0  0  0  0
  181.1850  178.8080  140.8320 N   0  0  0  0  0  2  0  0  0  0  0  0
  180.2930  177.6670  140.6540 C   0  0  1  0  0  3  0  0  0  0  0  0
  179.9860  177.3550  139.2240 C   0  0  2  0  0  3  0  0  0  0  0  0
  180.9640  176.6490  139.9520 O   0  0  0  0  0  0  0  0  0  0  0  0
  180.1140  178.1610  136.6370 O   0  0  0  0  0  0  0  0  0  0  0  0
  180.7800  178.3720  137.9690 S   0  0  0  0  0  0  0  0  0  0  0  0
  180.7070  179.8250  138.3440 O   0  0  0  0  0  0  0  0  0  0  0  0
  182.5020  177.9140  137.8460 C   0  0  0  0  0  2  0  0  0  0  0  0
  183.2100  175.5550  137.4930 C   0  0  0  0  0  1  0  0  0  0  0  0
  183.7050  177.2660  135.7820 C   0  0  0  0  0  1  0  0  0  0  0  0
  182.6990  176.8140  136.8190 C   0  0  0  0  0  3  0  0  0  0  0  0
  1 11  1  0  0  0  0
  3 17  2  0  0  0  0
  4  2  1  6  0  0  0
  4 19  1  0  0  0  0
  4  6  1  0  0  0  0
  5  7  1  0  0  0  0
  6 16  1  0  0  0  0
  7 20  1  0  0  0  0
  7 13  2  0  0  0  0
  8  3  1  0  0  0  0
  8  2  2  0  0  0  0
  9  5  1  0  0  0  0
 10  1  2  0  0  0  0
 12  6  2  0  0  0  0
 12 15  1  0  0  0  0
 13 11  1  0  0  0  0
 14  3  1  0  0  0  0
 15 18  2  0  0  0  0
 16  5  2  0  0  0  0
 16 10  1  0  0  0  0
 18 10  1  0  0  0  0
 19 17  1  6  0  0  0
 19  9  1  0  0  0  0
 21 23  2  0  0  0  0
 22 21  1  0  0  0  0
 22 20  1  0  0  0  0
 24 21  1  0  0  0  0
 25 26  1  0  0  0  0
 25 24  1  0  0  0  0
 27 25  1  0  0  0  0
 28 15  1  0  0  0  0
 29 28  1  6  0  0  0
 30 33  1  6  0  0  0
 30 31  1  0  0  0  0
 30 29  1  0  0  0  0
 31 29  1  0  0  0  0
 32 33  2  0  0  0  0
 33 34  2  0  0  0  0
 35 33  1  0  0  0  0
 37 38  1  0  0  0  0
 38 36  1  0  0  0  0
 38 35  1  0  0  0  0
M  END
>  <MODEL>
9

>  <REMARK>
 VINA RESULT:      -7.6      3.201      9.016
  Name = 
  9 active torsions:
  status: ('A' for Active; 'I' for Inactive)
    1  A    between atoms: N_6  and  C_14
    2  A    between atoms: C_9  and  C_17
    3  A    between atoms: S_10  and  C_31
    4  A    between atoms: S_10  and  C_33
    5  A    between atoms: C_11  and  C_14
    6  A    between atoms: N_15  and  C_17
    7  A    between atoms: C_16  and  N_28
    8  A    between atoms: N_28  and  C_29
    9  A    between atoms: C_33  and  C_34
                            x       y       z     vdW  Elec       q    Type
                         _______ _______ _______ _____ _____    ______ ____

>  <TORSDO>
F 9

$$$$
