=
 OpenBabel10232411193D

 50 55  0  0  1  0  0  0  0  0999 V2000
  190.8510  176.7650  143.8870 C   0  0  0  0  0  0  0  0  0  0  0  0
  189.3760  176.8380  143.6640 C   0  0  2  0  0  3  0  0  0  0  0  0
  190.5600  177.3620  141.7270 C   0  0  0  0  0  3  0  0  0  0  0  0
  189.3370  177.2650  142.2340 C   0  0  0  0  0  0  0  0  0  0  0  0
  191.5180  177.0630  142.7780 C   0  0  0  0  0  3  0  0  0  0  0  0
  191.5130  177.2720  146.5620 S   0  0  0  0  0  0  0  0  0  0  0  0
  191.4830  176.3460  145.1530 C   0  0  0  0  0  0  0  0  0  0  0  0
  192.1460  175.1420  145.4210 C   0  0  0  0  0  0  0  0  0  0  0  0
  192.3200  174.1090  144.4560 N   0  0  0  0  0  1  0  0  0  0  0  0
  192.7400  176.2370  148.7890 N   0  0  0  0  0  1  0  0  0  0  0  0
  192.6350  175.0140  146.6840 N   0  0  0  0  0  0  0  0  0  0  0  0
  192.3610  176.1070  147.4260 C   0  0  0  0  0  0  0  0  0  0  0  0
  188.0680  177.3710  141.4410 C   0  0  0  0  0  2  0  0  0  0  0  0
  187.9510  178.6750  140.6640 C   0  0  2  0  0  3  0  0  0  0  0  0
  186.6210  179.1010  140.6380 O   0  0  0  0  0  1  0  0  0  0  0  0
  188.4190  178.4650  139.3030 N   0  0  0  0  0  2  0  0  0  0  0  0
  187.7360  177.6500  138.3460 C   0  0  0  0  0  0  0  0  0  0  0  0
  186.2220  178.0480  137.8340 S   0  0  0  0  0  0  0  0  0  0  0  0
  187.6570  175.6370  136.7820 C   0  0  1  0  0  3  0  0  0  0  0  0
  190.6320  175.8970  136.3840 C   0  0  0  0  0  2  0  0  0  0  0  0
  189.3800  173.9360  137.3980 N   0  0  0  0  0  2  0  0  0  0  0  0
  189.5490  178.0840  135.9360 C   0  0  0  0  0  1  0  0  0  0  0  0
  189.8120  177.0340  137.0030 C   0  0  1  0  0  3  0  0  0  0  0  0
  187.1290  174.5760  137.5390 O   0  0  0  0  0  0  0  0  0  0  0  0
  190.6010  174.6680  137.2340 C   0  0  0  0  0  0  0  0  0  0  0  0
  188.5070  176.5470  137.6780 C   0  0  1  0  0  3  0  0  0  0  0  0
  191.6190  174.3430  137.8970 O   0  0  0  0  0  0  0  0  0  0  0  0
  188.1590  174.2290  136.6420 C   0  0  1  0  0  3  0  0  0  0  0  0
  188.7910  177.8690  144.5120 N   0  0  0  0  0  2  0  0  0  0  0  0
  188.0450  177.8160  146.8260 C   0  0  0  0  0  1  0  0  0  0  0  0
  187.8950  177.2030  145.4420 C   0  0  1  0  0  3  0  0  0  0  0  0
  186.4590  177.3340  144.9560 C   0  0  0  0  0  2  0  0  0  0  0  0
  184.8830  178.2400  146.6540 C   0  0  0  0  0  1  0  0  0  0  0  0
  185.8170  178.5970  145.5130 C   0  0  2  0  0  3  0  0  0  0  0  0
  185.0240  179.3160  144.4320 C   0  0  0  0  0  2  0  0  0  0  0  0
  183.5270  179.1630  144.6510 C   0  0  0  0  0  2  0  0  0  0  0  0
  182.8850  178.7280  143.4190 N   0  0  0  0  0  2  0  0  0  0  0  0
  183.8760  178.8380  142.3600 C   0  0  0  0  0  2  0  0  0  0  0  0
  182.5250  175.9320  139.3890 C   0  0  2  0  0  3  0  0  0  0  0  0
  183.5530  177.8890  141.3070 N   0  0  0  0  0  2  0  0  0  0  0  0
  180.6750  175.9430  137.6780 C   0  0  0  0  0  2  0  0  0  0  0  0
  182.4150  177.7180  137.6520 C   0  0  0  0  0  2  0  0  0  0  0  0
  182.7430  177.3440  139.0320 N   0  0  0  0  0  0  0  0  0  0  0  0
  183.1520  178.3120  140.0030 C   0  0  0  0  0  0  0  0  0  0  0  0
  183.3050  175.1110  138.5180 O   0  0  0  0  0  0  0  0  0  0  0  0
  183.1760  179.5400  139.7000 O   0  0  0  0  0  0  0  0  0  0  0  0
  181.9260  176.4510  136.9430 C   0  0  1  0  0  0  0  0  0  0  0  0
  181.0320  175.6200  139.1490 C   0  0  0  0  0  2  0  0  0  0  0  0
  183.0240  175.3860  137.1360 C   0  0  0  0  0  2  0  0  0  0  0  0
  181.6680  176.6870  135.5940 O   0  0  0  0  0  1  0  0  0  0  0  0
  1  7  1  0  0  0  0
  2  1  1  0  0  0  0
  2 29  1  1  0  0  0
  3  4  2  0  0  0  0
  3  5  1  0  0  0  0
  4  2  1  0  0  0  0
  5  1  2  0  0  0  0
  6 12  1  0  0  0  0
  7  8  2  0  0  0  0
  7  6  1  0  0  0  0
  8 11  1  0  0  0  0
  9  8  1  0  0  0  0
 11 12  2  0  0  0  0
 12 10  1  0  0  0  0
 13  4  1  0  0  0  0
 14 15  1  6  0  0  0
 14 13  1  0  0  0  0
 16 14  1  0  0  0  0
 17 16  1  0  0  0  0
 18 17  2  0  0  0  0
 19 24  1  1  0  0  0
 19 26  1  0  0  0  0
 20 23  1  0  0  0  0
 20 25  1  0  0  0  0
 23 22  1  6  0  0  0
 23 26  1  0  0  0  0
 25 21  1  0  0  0  0
 25 27  2  0  0  0  0
 26 17  1  6  0  0  0
 28 19  1  0  0  0  0
 28 21  1  1  0  0  0
 28 24  1  0  0  0  0
 29 31  1  0  0  0  0
 31 30  1  1  0  0  0
 32 31  1  0  0  0  0
 32 34  1  0  0  0  0
 34 33  1  1  0  0  0
 35 36  1  0  0  0  0
 35 34  1  0  0  0  0
 37 36  1  0  0  0  0
 38 37  1  0  0  0  0
 39 48  1  6  0  0  0
 40 38  1  0  0  0  0
 41 48  1  0  0  0  0
 42 43  1  0  0  0  0
 43 39  1  0  0  0  0
 43 44  1  0  0  0  0
 44 40  1  0  0  0  0
 45 39  1  0  0  0  0
 46 44  2  0  0  0  0
 47 50  1  6  0  0  0
 47 49  1  0  0  0  0
 47 42  1  0  0  0  0
 47 41  1  0  0  0  0
 49 45  1  0  0  0  0
M  END
>  <MODEL>
1

>  <REMARK>
 VINA RESULT:      -7.9      0.000      0.000
  Name = 
  15 active torsions:
  status: ('A' for Active; 'I' for Inactive)
    1  A    between atoms: C_1  and  C_24
    2  A    between atoms: C_1  and  C_30
    3  A    between atoms: C_2  and  N_12
    4  A    between atoms: C_2  and  N_39
    5  A    between atoms: C_5  and  N_13
    6  A    between atoms: C_5  and  C_41
    7  A    between atoms: C_8  and  C_9
    8  A    between atoms: C_10  and  N_31
    9  A    between atoms: N_13  and  C_36
   10  A    between atoms: C_18  and  C_36
   11  A    between atoms: C_18  and  C_38
   12  A    between atoms: C_24  and  C_33
   13  A    between atoms: C_30  and  N_39
   14  A    between atoms: N_31  and  C_44
   15  A    between atoms: C_33  and  C_44
                            x       y       z     vdW  Elec       q    Type
                         _______ _______ _______ _____ _____    ______ ____

>  <TORSDO>
F 15

$$$$
=
 OpenBabel10232411193D

 50 55  0  0  1  0  0  0  0  0999 V2000
  187.7220  177.7370  144.9630 C   0  0  0  0  0  0  0  0  0  0  0  0
  188.0130  178.0040  143.5220 C   0  0  2  0  0  3  0  0  0  0  0  0
  185.7260  178.0740  143.9600 C   0  0  0  0  0  3  0  0  0  0  0  0
  186.6280  178.1710  142.9910 C   0  0  0  0  0  0  0  0  0  0  0  0
  186.4170  177.7810  145.2040 C   0  0  0  0  0  3  0  0  0  0  0  0
  190.3020  176.9280  145.6980 S   0  0  0  0  0  0  0  0  0  0  0  0
  188.7540  177.5260  145.9970 C   0  0  0  0  0  0  0  0  0  0  0  0
  188.6540  177.7800  147.3700 C   0  0  0  0  0  0  0  0  0  0  0  0
  187.4790  178.2930  147.9910 N   0  0  0  0  0  1  0  0  0  0  0  0
  192.0370  176.6560  147.8080 N   0  0  0  0  0  1  0  0  0  0  0  0
  189.7670  177.4940  148.0990 N   0  0  0  0  0  0  0  0  0  0  0  0
  190.7550  177.0200  147.3130 C   0  0  0  0  0  0  0  0  0  0  0  0
  186.3330  178.5920  141.5810 C   0  0  0  0  0  2  0  0  0  0  0  0
  184.8790  178.9850  141.3640 C   0  0  2  0  0  3  0  0  0  0  0  0
  184.0560  177.8620  141.4780 O   0  0  0  0  0  1  0  0  0  0  0  0
  184.7320  179.5600  140.0350 N   0  0  0  0  0  2  0  0  0  0  0  0
  183.7620  179.1170  139.0820 C   0  0  0  0  0  0  0  0  0  0  0  0
  182.2450  179.7590  139.0670 S   0  0  0  0  0  0  0  0  0  0  0  0
  185.6920  177.7800  138.0850 C   0  0  1  0  0  3  0  0  0  0  0  0
  183.6870  176.1350  136.5490 C   0  0  0  0  0  2  0  0  0  0  0  0
  185.5060  177.6290  135.5980 N   0  0  0  0  0  2  0  0  0  0  0  0
  183.0670  176.1530  138.9510 C   0  0  0  0  0  1  0  0  0  0  0  0
  183.2540  177.0250  137.7200 C   0  0  1  0  0  3  0  0  0  0  0  0
  186.5090  178.7120  137.4190 O   0  0  0  0  0  0  0  0  0  0  0  0
  184.2610  176.9410  135.4280 C   0  0  0  0  0  0  0  0  0  0  0  0
  184.2210  178.2050  137.9800 C   0  0  1  0  0  3  0  0  0  0  0  0
  183.5920  177.1080  134.3750 O   0  0  0  0  0  0  0  0  0  0  0  0
  186.3600  177.4670  136.7780 C   0  0  1  0  0  3  0  0  0  0  0  0
  188.6460  176.8390  142.9160 N   0  0  0  0  0  2  0  0  0  0  0  0
  190.9910  176.8070  142.2690 C   0  0  0  0  0  1  0  0  0  0  0  0
  189.6020  177.3310  141.9370 C   0  0  1  0  0  3  0  0  0  0  0  0
  189.1850  176.8850  140.5420 C   0  0  0  0  0  2  0  0  0  0  0  0
  189.6110  178.3640  138.5880 C   0  0  0  0  0  1  0  0  0  0  0  0
  190.2150  177.3210  139.5100 C   0  0  2  0  0  3  0  0  0  0  0  0
  190.6740  176.1330  138.6780 C   0  0  0  0  0  2  0  0  0  0  0  0
  190.6530  176.4570  137.1930 C   0  0  0  0  0  2  0  0  0  0  0  0
  192.0090  176.4630  136.6640 N   0  0  0  0  0  2  0  0  0  0  0  0
  192.3640  175.0790  136.3890 C   0  0  0  0  0  2  0  0  0  0  0  0
  196.1650  173.7930  138.1230 C   0  0  2  0  0  3  0  0  0  0  0  0
  193.6500  174.7880  137.0030 N   0  0  0  0  0  2  0  0  0  0  0  0
  198.2730  172.8240  137.1400 C   0  0  0  0  0  2  0  0  0  0  0  0
  197.4200  175.0230  136.3540 C   0  0  0  0  0  2  0  0  0  0  0  0
  196.1230  174.6710  136.9420 N   0  0  0  0  0  0  0  0  0  0  0  0
  194.8860  175.0710  136.3440 C   0  0  0  0  0  0  0  0  0  0  0  0
  196.9470  174.4230  139.1390 O   0  0  0  0  0  0  0  0  0  0  0  0
  194.8880  175.6920  135.2420 O   0  0  0  0  0  0  0  0  0  0  0  0
  198.5000  174.3430  137.2010 C   0  0  1  0  0  0  0  0  0  0  0  0
  196.8720  172.4860  137.7030 C   0  0  0  0  0  2  0  0  0  0  0  0
  198.2540  174.7770  138.6610 C   0  0  0  0  0  2  0  0  0  0  0  0
  199.7800  174.6890  136.7700 O   0  0  0  0  0  1  0  0  0  0  0  0
  1  5  2  0  0  0  0
  1  7  1  0  0  0  0
  2 29  1  6  0  0  0
  2  1  1  0  0  0  0
  3  5  1  0  0  0  0
  4  2  1  0  0  0  0
  4  3  2  0  0  0  0
  6  7  1  0  0  0  0
  6 12  1  0  0  0  0
  7  8  2  0  0  0  0
  8  9  1  0  0  0  0
  8 11  1  0  0  0  0
 12 10  1  0  0  0  0
 12 11  2  0  0  0  0
 13  4  1  0  0  0  0
 14 15  1  6  0  0  0
 14 13  1  0  0  0  0
 16 14  1  0  0  0  0
 17 16  1  0  0  0  0
 18 17  2  0  0  0  0
 19 24  1  6  0  0  0
 20 23  1  0  0  0  0
 23 26  1  0  0  0  0
 23 22  1  1  0  0  0
 25 21  1  0  0  0  0
 25 20  1  0  0  0  0
 26 19  1  0  0  0  0
 26 17  1  1  0  0  0
 27 25  2  0  0  0  0
 28 21  1  6  0  0  0
 28 24  1  0  0  0  0
 28 19  1  0  0  0  0
 31 30  1  1  0  0  0
 31 29  1  0  0  0  0
 32 31  1  0  0  0  0
 34 33  1  6  0  0  0
 34 32  1  0  0  0  0
 35 34  1  0  0  0  0
 36 35  1  0  0  0  0
 37 36  1  0  0  0  0
 38 37  1  0  0  0  0
 38 40  1  0  0  0  0
 39 48  1  6  0  0  0
 39 45  1  0  0  0  0
 41 47  1  0  0  0  0
 41 48  1  0  0  0  0
 42 43  1  0  0  0  0
 42 47  1  0  0  0  0
 43 39  1  0  0  0  0
 44 43  1  0  0  0  0
 44 40  1  0  0  0  0
 46 44  2  0  0  0  0
 47 50  1  6  0  0  0
 47 49  1  0  0  0  0
 49 45  1  0  0  0  0
M  END
>  <MODEL>
2

>  <REMARK>
 VINA RESULT:      -7.6      3.719      8.955
  Name = 
  15 active torsions:
  status: ('A' for Active; 'I' for Inactive)
    1  A    between atoms: C_1  and  C_24
    2  A    between atoms: C_1  and  C_30
    3  A    between atoms: C_2  and  N_12
    4  A    between atoms: C_2  and  N_39
    5  A    between atoms: C_5  and  N_13
    6  A    between atoms: C_5  and  C_41
    7  A    between atoms: C_8  and  C_9
    8  A    between atoms: C_10  and  N_31
    9  A    between atoms: N_13  and  C_36
   10  A    between atoms: C_18  and  C_36
   11  A    between atoms: C_18  and  C_38
   12  A    between atoms: C_24  and  C_33
   13  A    between atoms: C_30  and  N_39
   14  A    between atoms: N_31  and  C_44
   15  A    between atoms: C_33  and  C_44
                            x       y       z     vdW  Elec       q    Type
                         _______ _______ _______ _____ _____    ______ ____

>  <TORSDO>
F 15

$$$$
=
 OpenBabel10232411193D

 50 55  0  0  1  0  0  0  0  0999 V2000
  190.1910  177.0920  140.3650 C   0  0  0  0  0  0  0  0  0  0  0  0
  189.9280  176.6840  138.9520 C   0  0  2  0  0  3  0  0  0  0  0  0
  192.2030  177.0110  139.3390 C   0  0  0  0  0  3  0  0  0  0  0  0
  191.3150  176.7040  138.4010 C   0  0  0  0  0  0  0  0  0  0  0  0
  191.4890  177.2740  140.5770 C   0  0  0  0  0  3  0  0  0  0  0  0
  187.8820  178.3150  141.3760 S   0  0  0  0  0  0  0  0  0  0  0  0
  189.1520  177.2070  141.4070 C   0  0  0  0  0  0  0  0  0  0  0  0
  189.0200  176.4410  142.5710 C   0  0  0  0  0  0  0  0  0  0  0  0
  189.9230  175.4010  142.9350 N   0  0  0  0  0  1  0  0  0  0  0  0
  186.0690  178.2950  143.4380 N   0  0  0  0  0  1  0  0  0  0  0  0
  187.9600  176.7590  143.3620 N   0  0  0  0  0  0  0  0  0  0  0  0
  187.2420  177.7700  142.8310 C   0  0  0  0  0  0  0  0  0  0  0  0
  191.6560  176.2390  137.0150 C   0  0  0  0  0  2  0  0  0  0  0  0
  191.8540  174.7330  136.9190 C   0  0  2  0  0  3  0  0  0  0  0  0
  190.8790  174.0710  137.6680 O   0  0  0  0  0  1  0  0  0  0  0  0
  193.1730  174.3900  137.4300 N   0  0  0  0  0  2  0  0  0  0  0  0
  194.3600  174.3970  136.6320 C   0  0  0  0  0  0  0  0  0  0  0  0
  194.2950  174.7930  135.0350 S   0  0  0  0  0  0  0  0  0  0  0  0
  195.5780  174.1290  138.8570 C   0  0  1  0  0  3  0  0  0  0  0  0
  197.9480  173.0180  137.3630 C   0  0  0  0  0  2  0  0  0  0  0  0
  197.8660  175.1290  138.7700 N   0  0  0  0  0  2  0  0  0  0  0  0
  195.9060  171.7720  136.7060 C   0  0  0  0  0  1  0  0  0  0  0  0
  196.5740  173.1380  136.6950 C   0  0  1  0  0  3  0  0  0  0  0  0
  195.6340  175.4120  139.4290 O   0  0  0  0  0  0  0  0  0  0  0  0
  198.4960  174.3560  137.7400 C   0  0  0  0  0  0  0  0  0  0  0  0
  195.6810  174.2310  137.3290 C   0  0  1  0  0  3  0  0  0  0  0  0
  199.4400  174.8540  137.0750 O   0  0  0  0  0  0  0  0  0  0  0  0
  196.7810  174.6160  139.6110 C   0  0  1  0  0  3  0  0  0  0  0  0
  189.1080  177.6870  138.2860 N   0  0  0  0  0  2  0  0  0  0  0  0
  186.7100  177.8160  137.8990 C   0  0  0  0  0  1  0  0  0  0  0  0
  187.9740  176.9940  137.6970 C   0  0  1  0  0  3  0  0  0  0  0  0
  188.2270  176.7630  136.2140 C   0  0  0  0  0  2  0  0  0  0  0  0
  187.0310  175.1680  134.7260 C   0  0  0  0  0  1  0  0  0  0  0  0
  188.0310  175.2950  135.8590 C   0  0  2  0  0  3  0  0  0  0  0  0
  187.5140  174.5200  137.0630 C   0  0  0  0  0  2  0  0  0  0  0  0
  186.4620  173.5020  136.6540 C   0  0  0  0  0  2  0  0  0  0  0  0
  185.5860  173.2090  137.7790 N   0  0  0  0  0  2  0  0  0  0  0  0
  184.2210  173.4030  137.3160 C   0  0  0  0  0  2  0  0  0  0  0  0
  182.7860  176.7350  139.7540 C   0  0  2  0  0  3  0  0  0  0  0  0
  183.6250  174.5100  138.0470 N   0  0  0  0  0  2  0  0  0  0  0  0
  183.5760  179.1060  140.0770 C   0  0  0  0  0  2  0  0  0  0  0  0
  182.9850  178.2810  137.8070 C   0  0  0  0  0  2  0  0  0  0  0  0
  183.1080  176.9150  138.3290 N   0  0  0  0  0  0  0  0  0  0  0  0
  183.6120  175.8410  137.5280 C   0  0  0  0  0  0  0  0  0  0  0  0
  181.4440  177.1680  139.9810 O   0  0  0  0  0  0  0  0  0  0  0  0
  184.0270  176.0680  136.3550 O   0  0  0  0  0  0  0  0  0  0  0  0
  182.5150  179.1660  138.9660 C   0  0  1  0  0  0  0  0  0  0  0  0
  183.7370  177.6450  140.5620 C   0  0  0  0  0  2  0  0  0  0  0  0
  181.2360  178.5160  139.5290 C   0  0  0  0  0  2  0  0  0  0  0  0
  182.2850  180.4760  138.5470 O   0  0  0  0  0  1  0  0  0  0  0  0
  1  5  2  0  0  0  0
  1  7  1  0  0  0  0
  2 29  1  6  0  0  0
  2  1  1  0  0  0  0
  3  5  1  0  0  0  0
  4  2  1  0  0  0  0
  4  3  2  0  0  0  0
  6  7  1  0  0  0  0
  6 12  1  0  0  0  0
  7  8  2  0  0  0  0
  8  9  1  0  0  0  0
  8 11  1  0  0  0  0
 12 11  2  0  0  0  0
 12 10  1  0  0  0  0
 13  4  1  0  0  0  0
 14 13  1  0  0  0  0
 14 16  1  0  0  0  0
 14 15  1  1  0  0  0
 17 16  1  0  0  0  0
 18 17  2  0  0  0  0
 19 24  1  1  0  0  0
 19 28  1  0  0  0  0
 20 25  1  0  0  0  0
 23 22  1  1  0  0  0
 23 26  1  0  0  0  0
 23 20  1  0  0  0  0
 24 28  1  0  0  0  0
 25 21  1  0  0  0  0
 26 17  1  6  0  0  0
 26 19  1  0  0  0  0
 27 25  2  0  0  0  0
 28 21  1  6  0  0  0
 31 30  1  6  0  0  0
 31 29  1  0  0  0  0
 32 31  1  0  0  0  0
 34 33  1  6  0  0  0
 34 32  1  0  0  0  0
 34 35  1  0  0  0  0
 36 35  1  0  0  0  0
 36 37  1  0  0  0  0
 38 37  1  0  0  0  0
 38 40  1  0  0  0  0
 39 45  1  0  0  0  0
 39 48  1  1  0  0  0
 41 48  1  0  0  0  0
 42 43  1  0  0  0  0
 42 47  1  0  0  0  0
 43 39  1  0  0  0  0
 44 40  1  0  0  0  0
 44 43  1  0  0  0  0
 46 44  2  0  0  0  0
 47 50  1  6  0  0  0
 47 49  1  0  0  0  0
 47 41  1  0  0  0  0
 49 45  1  0  0  0  0
M  END
>  <MODEL>
3

>  <REMARK>
 VINA RESULT:      -7.6      3.719      6.823
  Name = 
  15 active torsions:
  status: ('A' for Active; 'I' for Inactive)
    1  A    between atoms: C_1  and  C_24
    2  A    between atoms: C_1  and  C_30
    3  A    between atoms: C_2  and  N_12
    4  A    between atoms: C_2  and  N_39
    5  A    between atoms: C_5  and  N_13
    6  A    between atoms: C_5  and  C_41
    7  A    between atoms: C_8  and  C_9
    8  A    between atoms: C_10  and  N_31
    9  A    between atoms: N_13  and  C_36
   10  A    between atoms: C_18  and  C_36
   11  A    between atoms: C_18  and  C_38
   12  A    between atoms: C_24  and  C_33
   13  A    between atoms: C_30  and  N_39
   14  A    between atoms: N_31  and  C_44
   15  A    between atoms: C_33  and  C_44
                            x       y       z     vdW  Elec       q    Type
                         _______ _______ _______ _____ _____    ______ ____

>  <TORSDO>
F 15

$$$$
=
 OpenBabel10232411193D

 50 55  0  0  1  0  0  0  0  0999 V2000
  187.4050  177.7920  145.8690 C   0  0  0  0  0  0  0  0  0  0  0  0
  187.1930  178.3930  144.5180 C   0  0  2  0  0  3  0  0  0  0  0  0
  185.1880  178.1880  145.6870 C   0  0  0  0  0  3  0  0  0  0  0  0
  185.7110  178.5670  144.5270 C   0  0  0  0  0  0  0  0  0  0  0  0
  186.2580  177.6810  146.5290 C   0  0  0  0  0  3  0  0  0  0  0  0
  189.9410  176.6380  145.5740 S   0  0  0  0  0  0  0  0  0  0  0  0
  188.7250  177.4370  146.4260 C   0  0  0  0  0  0  0  0  0  0  0  0
  189.2060  177.6930  147.7150 C   0  0  0  0  0  0  0  0  0  0  0  0
  188.4460  178.3540  148.7220 N   0  0  0  0  0  1  0  0  0  0  0  0
  192.3170  176.1220  146.8480 N   0  0  0  0  0  1  0  0  0  0  0  0
  190.4700  177.2550  147.9640 N   0  0  0  0  0  0  0  0  0  0  0  0
  191.0020  176.6580  146.8770 C   0  0  0  0  0  0  0  0  0  0  0  0
  184.9580  179.2660  143.4330 C   0  0  0  0  0  2  0  0  0  0  0  0
  184.1210  178.3210  142.5810 C   0  0  2  0  0  3  0  0  0  0  0  0
  184.8680  177.8720  141.4890 O   0  0  0  0  0  1  0  0  0  0  0  0
  182.9410  179.0250  142.1030 N   0  0  0  0  0  2  0  0  0  0  0  0
  181.8260  178.3760  141.4860 C   0  0  0  0  0  0  0  0  0  0  0  0
  180.3270  178.4540  142.1640 S   0  0  0  0  0  0  0  0  0  0  0  0
  180.8390  176.9490  139.6160 C   0  0  1  0  0  3  0  0  0  0  0  0
  182.7750  178.2270  137.6930 C   0  0  0  0  0  2  0  0  0  0  0  0
  182.6270  175.7730  138.3260 N   0  0  0  0  0  2  0  0  0  0  0  0
  181.5490  179.9990  138.9220 C   0  0  0  0  0  1  0  0  0  0  0  0
  182.5130  178.8340  139.0750 C   0  0  1  0  0  3  0  0  0  0  0  0
  181.0090  175.6110  140.0150 O   0  0  0  0  0  0  0  0  0  0  0  0
  183.3860  176.8660  137.7940 C   0  0  0  0  0  0  0  0  0  0  0  0
  182.0180  177.7970  140.1120 C   0  0  1  0  0  3  0  0  0  0  0  0
  184.6030  176.7080  137.5210 O   0  0  0  0  0  0  0  0  0  0  0  0
  181.1980  175.8640  138.6430 C   0  0  1  0  0  3  0  0  0  0  0  0
  187.5810  177.4440  143.4820 N   0  0  0  0  0  2  0  0  0  0  0  0
  189.6800  178.5630  142.9750 C   0  0  0  0  0  1  0  0  0  0  0  0
  188.2980  178.1920  142.4610 C   0  0  1  0  0  3  0  0  0  0  0  0
  188.4080  177.3550  141.1940 C   0  0  0  0  0  2  0  0  0  0  0  0
  187.4930  178.0070  138.9750 C   0  0  0  0  0  1  0  0  0  0  0  0
  188.6050  178.2500  139.9780 C   0  0  2  0  0  3  0  0  0  0  0  0
  189.9430  177.9610  139.3130 C   0  0  0  0  0  2  0  0  0  0  0  0
  190.5170  176.6340  139.7820 C   0  0  0  0  0  2  0  0  0  0  0  0
  190.6960  175.7390  138.6490 N   0  0  0  0  0  2  0  0  0  0  0  0
  191.6800  176.3550  137.7720 C   0  0  0  0  0  2  0  0  0  0  0  0
  195.4070  174.2310  138.6100 C   0  0  2  0  0  3  0  0  0  0  0  0
  192.9860  175.7750  138.0420 N   0  0  0  0  0  2  0  0  0  0  0  0
  196.7200  172.4850  137.3540 C   0  0  0  0  0  2  0  0  0  0  0  0
  196.2130  174.6750  136.2920 C   0  0  0  0  0  2  0  0  0  0  0  0
  195.1660  174.8630  137.3020 N   0  0  0  0  0  0  0  0  0  0  0  0
  193.9360  175.5310  137.0030 C   0  0  0  0  0  0  0  0  0  0  0  0
  196.6280  174.7390  139.1490 O   0  0  0  0  0  0  0  0  0  0  0  0
  193.7000  175.9230  135.8240 O   0  0  0  0  0  0  0  0  0  0  0  0
  197.3210  173.8380  136.9400 C   0  0  1  0  0  0  0  0  0  0  0  0
  195.5730  172.7150  138.3670 C   0  0  0  0  0  2  0  0  0  0  0  0
  197.7240  174.5680  138.2370 C   0  0  0  0  0  2  0  0  0  0  0  0
  198.4070  173.6760  136.0810 O   0  0  0  0  0  1  0  0  0  0  0  0
  1  7  1  0  0  0  0
  1  5  2  0  0  0  0
  2 29  1  6  0  0  0
  2  4  1  0  0  0  0
  2  1  1  0  0  0  0
  3  5  1  0  0  0  0
  4  3  2  0  0  0  0
  6  7  1  0  0  0  0
  6 12  1  0  0  0  0
  7  8  2  0  0  0  0
  8 11  1  0  0  0  0
  8  9  1  0  0  0  0
 10 12  1  0  0  0  0
 12 11  2  0  0  0  0
 13  4  1  0  0  0  0
 14 15  1  6  0  0  0
 14 13  1  0  0  0  0
 16 14  1  0  0  0  0
 17 16  1  0  0  0  0
 17 18  2  0  0  0  0
 19 24  1  1  0  0  0
 19 26  1  0  0  0  0
 20 25  1  0  0  0  0
 20 23  1  0  0  0  0
 23 22  1  6  0  0  0
 23 26  1  0  0  0  0
 25 21  1  0  0  0  0
 26 17  1  1  0  0  0
 27 25  2  0  0  0  0
 28 21  1  1  0  0  0
 28 19  1  0  0  0  0
 28 24  1  0  0  0  0
 31 30  1  1  0  0  0
 31 29  1  0  0  0  0
 32 31  1  0  0  0  0
 34 33  1  6  0  0  0
 34 32  1  0  0  0  0
 35 36  1  0  0  0  0
 35 34  1  0  0  0  0
 37 36  1  0  0  0  0
 38 40  1  0  0  0  0
 38 37  1  0  0  0  0
 39 48  1  6  0  0  0
 39 45  1  0  0  0  0
 41 48  1  0  0  0  0
 42 47  1  0  0  0  0
 42 43  1  0  0  0  0
 43 39  1  0  0  0  0
 44 43  1  0  0  0  0
 44 40  1  0  0  0  0
 46 44  2  0  0  0  0
 47 50  1  6  0  0  0
 47 41  1  0  0  0  0
 47 49  1  0  0  0  0
 49 45  1  0  0  0  0
M  END
>  <MODEL>
4

>  <REMARK>
 VINA RESULT:      -7.6      3.299      8.698
  Name = 
  15 active torsions:
  status: ('A' for Active; 'I' for Inactive)
    1  A    between atoms: C_1  and  C_24
    2  A    between atoms: C_1  and  C_30
    3  A    between atoms: C_2  and  N_12
    4  A    between atoms: C_2  and  N_39
    5  A    between atoms: C_5  and  N_13
    6  A    between atoms: C_5  and  C_41
    7  A    between atoms: C_8  and  C_9
    8  A    between atoms: C_10  and  N_31
    9  A    between atoms: N_13  and  C_36
   10  A    between atoms: C_18  and  C_36
   11  A    between atoms: C_18  and  C_38
   12  A    between atoms: C_24  and  C_33
   13  A    between atoms: C_30  and  N_39
   14  A    between atoms: N_31  and  C_44
   15  A    between atoms: C_33  and  C_44
                            x       y       z     vdW  Elec       q    Type
                         _______ _______ _______ _____ _____    ______ ____

>  <TORSDO>
F 15

$$$$
=
 OpenBabel10232411193D

 50 55  0  0  1  0  0  0  0  0999 V2000
  190.6190  177.2160  142.0370 C   0  0  0  0  0  0  0  0  0  0  0  0
  189.2020  177.0180  141.6080 C   0  0  2  0  0  3  0  0  0  0  0  0
  190.5800  177.5260  139.7990 C   0  0  0  0  0  3  0  0  0  0  0  0
  189.3220  177.2810  140.1440 C   0  0  0  0  0  0  0  0  0  0  0  0
  191.3980  177.5030  141.0000 C   0  0  0  0  0  3  0  0  0  0  0  0
  191.4090  175.5550  144.1500 S   0  0  0  0  0  0  0  0  0  0  0  0
  191.1040  177.0440  143.4200 C   0  0  0  0  0  0  0  0  0  0  0  0
  191.4010  178.0440  144.3540 C   0  0  0  0  0  0  0  0  0  0  0  0
  191.2580  179.4350  144.0880 N   0  0  0  0  0  1  0  0  0  0  0  0
  192.3320  175.5220  146.7360 N   0  0  0  0  0  1  0  0  0  0  0  0
  191.8360  177.6010  145.5650 N   0  0  0  0  0  0  0  0  0  0  0  0
  191.8940  176.2540  145.5990 C   0  0  0  0  0  0  0  0  0  0  0  0
  188.1880  177.0900  139.1790 C   0  0  0  0  0  2  0  0  0  0  0  0
  187.8110  178.3640  138.4360 C   0  0  2  0  0  3  0  0  0  0  0  0
  186.4810  178.6980  138.7020 O   0  0  0  0  0  1  0  0  0  0  0  0
  187.9800  178.1520  137.0060 N   0  0  0  0  0  2  0  0  0  0  0  0
  187.6880  176.9170  136.3470 C   0  0  0  0  0  0  0  0  0  0  0  0
  186.3270  176.7540  135.4330 S   0  0  0  0  0  0  0  0  0  0  0  0
  188.2930  174.5150  135.7360 C   0  0  1  0  0  3  0  0  0  0  0  0
  191.2070  175.2700  135.8820 C   0  0  0  0  0  2  0  0  0  0  0  0
  189.9820  173.5710  137.3170 N   0  0  0  0  0  2  0  0  0  0  0  0
  190.0210  176.8570  134.3890 C   0  0  0  0  0  1  0  0  0  0  0  0
  190.1120  176.3400  135.8150 C   0  0  1  0  0  3  0  0  0  0  0  0
  187.7160  173.7030  136.7290 O   0  0  0  0  0  0  0  0  0  0  0  0
  191.0990  174.4480  137.1260 C   0  0  0  0  0  0  0  0  0  0  0  0
  188.7450  175.8490  136.3470 C   0  0  1  0  0  3  0  0  0  0  0  0
  191.9290  174.6140  138.0560 O   0  0  0  0  0  0  0  0  0  0  0  0
  188.9870  173.2980  136.2760 C   0  0  1  0  0  3  0  0  0  0  0  0
  188.3470  178.0210  142.2300 N   0  0  0  0  0  2  0  0  0  0  0  0
  188.0830  177.7210  144.6290 C   0  0  0  0  0  1  0  0  0  0  0  0
  187.5630  177.3440  143.2500 C   0  0  1  0  0  3  0  0  0  0  0  0
  186.0970  177.7290  143.1110 C   0  0  0  0  0  2  0  0  0  0  0  0
  185.3590  178.0170  145.4690 C   0  0  0  0  0  1  0  0  0  0  0  0
  185.7040  178.7390  144.1810 C   0  0  2  0  0  3  0  0  0  0  0  0
  184.4990  179.5520  143.7310 C   0  0  0  0  0  2  0  0  0  0  0  0
  183.2850  179.2660  144.5990 C   0  0  0  0  0  2  0  0  0  0  0  0
  182.2540  178.6040  143.8140 N   0  0  0  0  0  2  0  0  0  0  0  0
  182.1940  179.2860  142.5300 C   0  0  0  0  0  2  0  0  0  0  0  0
  180.5140  176.8650  139.3030 C   0  0  2  0  0  3  0  0  0  0  0  0
  181.6830  178.3650  141.5270 N   0  0  0  0  0  2  0  0  0  0  0  0
  181.0410  176.6530  136.8470 C   0  0  0  0  0  2  0  0  0  0  0  0
  182.8050  176.2320  138.5470 C   0  0  0  0  0  2  0  0  0  0  0  0
  181.9680  176.9480  139.5160 N   0  0  0  0  0  0  0  0  0  0  0  0
  182.5330  177.7650  140.5480 C   0  0  0  0  0  0  0  0  0  0  0  0
  180.1240  175.4910  139.3210 O   0  0  0  0  0  0  0  0  0  0  0  0
  183.7840  177.9380  140.6030 O   0  0  0  0  0  0  0  0  0  0  0  0
  181.8620  175.5580  137.5460 C   0  0  1  0  0  0  0  0  0  0  0  0
  180.2200  177.4380  137.8990 C   0  0  0  0  0  2  0  0  0  0  0  0
  180.8720  174.7120  138.3730 C   0  0  0  0  0  2  0  0  0  0  0  0
  182.5630  174.7780  136.6290 O   0  0  0  0  0  1  0  0  0  0  0  0
  1  7  1  0  0  0  0
  2  1  1  0  0  0  0
  2 29  1  1  0  0  0
  3  4  2  0  0  0  0
  3  5  1  0  0  0  0
  4  2  1  0  0  0  0
  5  1  2  0  0  0  0
  6 12  1  0  0  0  0
  7  6  1  0  0  0  0
  7  8  2  0  0  0  0
  8 11  1  0  0  0  0
  9  8  1  0  0  0  0
 11 12  2  0  0  0  0
 12 10  1  0  0  0  0
 13  4  1  0  0  0  0
 14 15  1  6  0  0  0
 14 13  1  0  0  0  0
 16 14  1  0  0  0  0
 17 16  1  0  0  0  0
 18 17  2  0  0  0  0
 19 28  1  0  0  0  0
 19 26  1  0  0  0  0
 19 24  1  1  0  0  0
 20 25  1  0  0  0  0
 23 22  1  6  0  0  0
 23 20  1  0  0  0  0
 23 26  1  0  0  0  0
 25 21  1  0  0  0  0
 25 27  2  0  0  0  0
 26 17  1  6  0  0  0
 28 24  1  1  0  0  0
 28 21  1  0  0  0  0
 29 31  1  0  0  0  0
 31 30  1  1  0  0  0
 32 31  1  0  0  0  0
 32 34  1  0  0  0  0
 34 33  1  1  0  0  0
 35 34  1  0  0  0  0
 35 36  1  0  0  0  0
 37 36  1  0  0  0  0
 38 37  1  0  0  0  0
 39 48  1  6  0  0  0
 39 45  1  0  0  0  0
 39 43  1  0  0  0  0
 40 38  1  0  0  0  0
 41 47  1  0  0  0  0
 41 48  1  0  0  0  0
 42 43  1  0  0  0  0
 43 44  1  0  0  0  0
 44 46  2  0  0  0  0
 44 40  1  0  0  0  0
 47 50  1  6  0  0  0
 47 49  1  0  0  0  0
 47 42  1  0  0  0  0
 49 45  1  0  0  0  0
M  END
>  <MODEL>
5

>  <REMARK>
 VINA RESULT:      -7.4      1.576      2.062
  Name = 
  15 active torsions:
  status: ('A' for Active; 'I' for Inactive)
    1  A    between atoms: C_1  and  C_24
    2  A    between atoms: C_1  and  C_30
    3  A    between atoms: C_2  and  N_12
    4  A    between atoms: C_2  and  N_39
    5  A    between atoms: C_5  and  N_13
    6  A    between atoms: C_5  and  C_41
    7  A    between atoms: C_8  and  C_9
    8  A    between atoms: C_10  and  N_31
    9  A    between atoms: N_13  and  C_36
   10  A    between atoms: C_18  and  C_36
   11  A    between atoms: C_18  and  C_38
   12  A    between atoms: C_24  and  C_33
   13  A    between atoms: C_30  and  N_39
   14  A    between atoms: N_31  and  C_44
   15  A    between atoms: C_33  and  C_44
                            x       y       z     vdW  Elec       q    Type
                         _______ _______ _______ _____ _____    ______ ____

>  <TORSDO>
F 15

$$$$
=
 OpenBabel10232411193D

 50 55  0  0  1  0  0  0  0  0999 V2000
  182.5570  178.4250  141.7580 C   0  0  0  0  0  0  0  0  0  0  0  0
  184.0240  178.5290  142.0190 C   0  0  2  0  0  3  0  0  0  0  0  0
  182.7770  179.2190  143.8620 C   0  0  0  0  0  3  0  0  0  0  0  0
  184.0160  179.0860  143.4040 C   0  0  0  0  0  0  0  0  0  0  0  0
  181.8540  178.8180  142.8140 C   0  0  0  0  0  3  0  0  0  0  0  0
  182.3230  176.3730  139.8650 S   0  0  0  0  0  0  0  0  0  0  0  0
  181.9670  177.8860  140.5180 C   0  0  0  0  0  0  0  0  0  0  0  0
  181.0270  178.5000  139.6800 C   0  0  0  0  0  0  0  0  0  0  0  0
  180.4940  179.7990  139.9170 N   0  0  0  0  0  1  0  0  0  0  0  0
  181.0580  175.6080  137.5510 N   0  0  0  0  0  1  0  0  0  0  0  0
  180.6490  177.7720  138.5950 N   0  0  0  0  0  0  0  0  0  0  0  0
  181.2770  176.5790  138.5660 C   0  0  0  0  0  0  0  0  0  0  0  0
  185.2590  179.2740  144.2220 C   0  0  0  0  0  2  0  0  0  0  0  0
  185.4370  178.2110  145.2980 C   0  0  2  0  0  3  0  0  0  0  0  0
  184.7110  178.5590  146.4400 O   0  0  0  0  0  1  0  0  0  0  0  0
  186.8480  178.1010  145.6350 N   0  0  0  0  0  2  0  0  0  0  0  0
  187.7740  177.2840  144.9150 C   0  0  0  0  0  0  0  0  0  0  0  0
  187.3190  176.5230  143.5270 S   0  0  0  0  0  0  0  0  0  0  0  0
  190.0050  178.5180  144.8500 C   0  0  1  0  0  3  0  0  0  0  0  0
  190.8770  176.9580  147.2760 C   0  0  0  0  0  2  0  0  0  0  0  0
  191.9300  176.9290  144.9670 N   0  0  0  0  0  2  0  0  0  0  0  0
  188.6820  178.0210  147.7280 C   0  0  0  0  0  1  0  0  0  0  0  0
  189.4050  177.0110  146.8530 C   0  0  1  0  0  3  0  0  0  0  0  0
  190.5650  178.2470  143.5890 O   0  0  0  0  0  0  0  0  0  0  0  0
  191.7260  176.2990  146.2380 C   0  0  0  0  0  0  0  0  0  0  0  0
  189.2140  177.3000  145.3450 C   0  0  1  0  0  3  0  0  0  0  0  0
  192.1660  175.1380  146.4370 O   0  0  0  0  0  0  0  0  0  0  0  0
  191.4770  178.2890  144.6620 C   0  0  1  0  0  3  0  0  0  0  0  0
  184.6290  179.4820  141.0980 N   0  0  0  0  0  2  0  0  0  0  0  0
  184.1470  179.8850  138.7480 C   0  0  0  0  0  1  0  0  0  0  0  0
  184.6200  178.8710  139.7790 C   0  0  1  0  0  3  0  0  0  0  0  0
  186.0160  178.3730  139.4340 C   0  0  0  0  0  2  0  0  0  0  0  0
  185.5320  176.9540  137.4490 C   0  0  0  0  0  1  0  0  0  0  0  0
  186.1800  178.2400  137.9260 C   0  0  2  0  0  3  0  0  0  0  0  0
  187.6540  178.2200  137.5480 C   0  0  0  0  0  2  0  0  0  0  0  0
  188.4540  177.3390  138.4930 C   0  0  0  0  0  2  0  0  0  0  0  0
  189.8230  177.2090  138.0160 N   0  0  0  0  0  2  0  0  0  0  0  0
  190.5960  176.6150  139.0950 C   0  0  0  0  0  2  0  0  0  0  0  0
  194.5020  175.0590  137.9050 C   0  0  2  0  0  3  0  0  0  0  0  0
  191.8630  176.1380  138.5660 N   0  0  0  0  0  2  0  0  0  0  0  0
  195.5080  172.7480  137.8800 C   0  0  0  0  0  2  0  0  0  0  0  0
  193.4100  173.2150  136.6300 C   0  0  0  0  0  2  0  0  0  0  0  0
  193.2560  174.4250  137.4440 N   0  0  0  0  0  0  0  0  0  0  0  0
  191.9710  174.9030  137.8550 C   0  0  0  0  0  0  0  0  0  0  0  0
  195.2950  175.3990  136.7660 O   0  0  0  0  0  0  0  0  0  0  0  0
  190.9300  174.2430  137.5720 O   0  0  0  0  0  0  0  0  0  0  0  0
  194.9130  172.9600  136.4780 C   0  0  1  0  0  0  0  0  0  0  0  0
  195.2710  174.0120  138.7410 C   0  0  0  0  0  2  0  0  0  0  0  0
  195.5270  174.2600  135.9210 C   0  0  0  0  0  2  0  0  0  0  0  0
  195.1660  171.8720  135.6440 O   0  0  0  0  0  1  0  0  0  0  0  0
  1  2  1  0  0  0  0
  1  5  2  0  0  0  0
  2 29  1  6  0  0  0
  2  4  1  0  0  0  0
  4  3  2  0  0  0  0
  4 13  1  0  0  0  0
  5  3  1  0  0  0  0
  6  7  1  0  0  0  0
  7  1  1  0  0  0  0
  8  9  1  0  0  0  0
  8  7  2  0  0  0  0
 10 12  1  0  0  0  0
 11  8  1  0  0  0  0
 12 11  2  0  0  0  0
 12  6  1  0  0  0  0
 13 14  1  0  0  0  0
 14 16  1  0  0  0  0
 14 15  1  1  0  0  0
 17 16  1  0  0  0  0
 18 17  2  0  0  0  0
 19 24  1  6  0  0  0
 19 26  1  0  0  0  0
 21 25  1  0  0  0  0
 23 20  1  0  0  0  0
 23 22  1  1  0  0  0
 25 27  2  0  0  0  0
 25 20  1  0  0  0  0
 26 17  1  1  0  0  0
 26 23  1  0  0  0  0
 28 24  1  6  0  0  0
 28 19  1  0  0  0  0
 28 21  1  0  0  0  0
 31 30  1  6  0  0  0
 31 29  1  0  0  0  0
 32 31  1  0  0  0  0
 34 33  1  1  0  0  0
 34 32  1  0  0  0  0
 35 34  1  0  0  0  0
 35 36  1  0  0  0  0
 37 36  1  0  0  0  0
 37 38  1  0  0  0  0
 39 48  1  1  0  0  0
 40 38  1  0  0  0  0
 41 48  1  0  0  0  0
 42 43  1  0  0  0  0
 43 44  1  0  0  0  0
 43 39  1  0  0  0  0
 44 40  1  0  0  0  0
 45 39  1  0  0  0  0
 46 44  2  0  0  0  0
 47 50  1  6  0  0  0
 47 42  1  0  0  0  0
 47 41  1  0  0  0  0
 49 47  1  0  0  0  0
 49 45  1  0  0  0  0
M  END
>  <MODEL>
6

>  <REMARK>
 VINA RESULT:      -7.4      3.139     10.087
  Name = 
  15 active torsions:
  status: ('A' for Active; 'I' for Inactive)
    1  A    between atoms: C_1  and  C_24
    2  A    between atoms: C_1  and  C_30
    3  A    between atoms: C_2  and  N_12
    4  A    between atoms: C_2  and  N_39
    5  A    between atoms: C_5  and  N_13
    6  A    between atoms: C_5  and  C_41
    7  A    between atoms: C_8  and  C_9
    8  A    between atoms: C_10  and  N_31
    9  A    between atoms: N_13  and  C_36
   10  A    between atoms: C_18  and  C_36
   11  A    between atoms: C_18  and  C_38
   12  A    between atoms: C_24  and  C_33
   13  A    between atoms: C_30  and  N_39
   14  A    between atoms: N_31  and  C_44
   15  A    between atoms: C_33  and  C_44
                            x       y       z     vdW  Elec       q    Type
                         _______ _______ _______ _____ _____    ______ ____

>  <TORSDO>
F 15

$$$$
=
 OpenBabel10232411193D

 50 55  0  0  1  0  0  0  0  0999 V2000
  191.0370  177.3160  142.0280 C   0  0  0  0  0  0  0  0  0  0  0  0
  189.6990  177.1540  141.3850 C   0  0  2  0  0  3  0  0  0  0  0  0
  191.3500  177.6370  139.8140 C   0  0  0  0  0  3  0  0  0  0  0  0
  190.0480  177.4210  139.9590 C   0  0  0  0  0  0  0  0  0  0  0  0
  191.9720  177.5890  141.1260 C   0  0  0  0  0  3  0  0  0  0  0  0
  191.6150  175.6370  144.1960 S   0  0  0  0  0  0  0  0  0  0  0  0
  191.2990  177.1240  143.4680 C   0  0  0  0  0  0  0  0  0  0  0  0
  191.3440  178.1040  144.4670 C   0  0  0  0  0  0  0  0  0  0  0  0
  191.1190  179.4890  144.2210 N   0  0  0  0  0  1  0  0  0  0  0  0
  192.0940  175.5690  146.8980 N   0  0  0  0  0  1  0  0  0  0  0  0
  191.6100  177.6480  145.7210 N   0  0  0  0  0  0  0  0  0  0  0  0
  191.7860  176.3100  145.7260 C   0  0  0  0  0  0  0  0  0  0  0  0
  189.0730  177.2610  138.8300 C   0  0  0  0  0  2  0  0  0  0  0  0
  189.5280  176.2560  137.7810 C   0  0  2  0  0  3  0  0  0  0  0  0
  189.8810  175.0510  138.3930 O   0  0  0  0  0  1  0  0  0  0  0  0
  190.6780  176.7930  137.0700 N   0  0  0  0  0  2  0  0  0  0  0  0
  191.2530  176.1790  135.9130 C   0  0  0  0  0  0  0  0  0  0  0  0
  190.6530  176.4910  134.4110 S   0  0  0  0  0  0  0  0  0  0  0  0
  193.0280  175.3260  137.5340 C   0  0  1  0  0  3  0  0  0  0  0  0
  193.8530  173.2880  135.4730 C   0  0  0  0  0  2  0  0  0  0  0  0
  195.2650  175.1650  136.4340 N   0  0  0  0  0  2  0  0  0  0  0  0
  191.4050  173.1360  135.8430 C   0  0  0  0  0  1  0  0  0  0  0  0
  192.5240  174.0420  135.3560 C   0  0  1  0  0  3  0  0  0  0  0  0
  193.8560  176.4260  137.8200 O   0  0  0  0  0  0  0  0  0  0  0  0
  195.0220  174.2150  135.3890 C   0  0  0  0  0  0  0  0  0  0  0  0
  192.5310  175.4070  136.0840 C   0  0  1  0  0  3  0  0  0  0  0  0
  195.7250  174.2390  134.3460 O   0  0  0  0  0  0  0  0  0  0  0  0
  194.5140  175.1870  137.6920 C   0  0  1  0  0  3  0  0  0  0  0  0
  188.7810  178.1740  141.8770 N   0  0  0  0  0  2  0  0  0  0  0  0
  188.1630  176.1180  143.0200 C   0  0  0  0  0  1  0  0  0  0  0  0
  187.6900  177.4840  142.5460 C   0  0  1  0  0  3  0  0  0  0  0  0
  187.2000  178.3160  143.7220 C   0  0  0  0  0  2  0  0  0  0  0  0
  184.9060  178.4000  144.6800 C   0  0  0  0  0  1  0  0  0  0  0  0
  185.7690  178.7800  143.4910 C   0  0  2  0  0  3  0  0  0  0  0  0
  185.1950  178.1360  142.2380 C   0  0  0  0  0  2  0  0  0  0  0  0
  184.4620  179.1550  141.3800 C   0  0  0  0  0  2  0  0  0  0  0  0
  185.1560  179.3320  140.1130 N   0  0  0  0  0  2  0  0  0  0  0  0
  184.1490  179.2800  139.0650 C   0  0  0  0  0  2  0  0  0  0  0  0
  185.2650  175.7400  136.7580 C   0  0  2  0  0  3  0  0  0  0  0  0
  184.3990  178.1210  138.2230 N   0  0  0  0  0  2  0  0  0  0  0  0
  185.5480  173.3080  137.3530 C   0  0  0  0  0  2  0  0  0  0  0  0
  183.3810  174.4540  137.7670 C   0  0  0  0  0  2  0  0  0  0  0  0
  184.0950  175.7310  137.6510 N   0  0  0  0  0  0  0  0  0  0  0  0
  183.7390  176.8720  138.4380 C   0  0  0  0  0  0  0  0  0  0  0  0
  184.8470  175.3540  135.4470 O   0  0  0  0  0  0  0  0  0  0  0  0
  182.8280  176.7790  139.3100 O   0  0  0  0  0  0  0  0  0  0  0  0
  184.1000  173.4510  136.8590 C   0  0  1  0  0  0  0  0  0  0  0  0
  186.2580  174.6810  137.2860 C   0  0  0  0  0  2  0  0  0  0  0  0
  184.1640  174.0910  135.4570 C   0  0  0  0  0  2  0  0  0  0  0  0
  183.4420  172.2220  136.8350 O   0  0  0  0  0  1  0  0  0  0  0  0
  1  7  1  0  0  0  0
  2 29  1  1  0  0  0
  2  1  1  0  0  0  0
  3  4  2  0  0  0  0
  3  5  1  0  0  0  0
  4  2  1  0  0  0  0
  5  1  2  0  0  0  0
  6 12  1  0  0  0  0
  7  6  1  0  0  0  0
  7  8  2  0  0  0  0
  8 11  1  0  0  0  0
  9  8  1  0  0  0  0
 11 12  2  0  0  0  0
 12 10  1  0  0  0  0
 13  4  1  0  0  0  0
 14 15  1  1  0  0  0
 14 13  1  0  0  0  0
 16 14  1  0  0  0  0
 17 16  1  0  0  0  0
 18 17  2  0  0  0  0
 19 28  1  0  0  0  0
 19 24  1  1  0  0  0
 23 20  1  0  0  0  0
 23 22  1  1  0  0  0
 23 26  1  0  0  0  0
 25 20  1  0  0  0  0
 25 21  1  0  0  0  0
 26 17  1  1  0  0  0
 26 19  1  0  0  0  0
 27 25  2  0  0  0  0
 28 21  1  6  0  0  0
 28 24  1  0  0  0  0
 29 31  1  0  0  0  0
 31 30  1  1  0  0  0
 31 32  1  0  0  0  0
 34 32  1  0  0  0  0
 34 33  1  1  0  0  0
 35 34  1  0  0  0  0
 36 35  1  0  0  0  0
 37 36  1  0  0  0  0
 38 37  1  0  0  0  0
 39 48  1  1  0  0  0
 39 43  1  0  0  0  0
 40 44  1  0  0  0  0
 40 38  1  0  0  0  0
 43 42  1  0  0  0  0
 43 44  1  0  0  0  0
 44 46  2  0  0  0  0
 45 49  1  0  0  0  0
 45 39  1  0  0  0  0
 47 50  1  6  0  0  0
 47 41  1  0  0  0  0
 47 42  1  0  0  0  0
 48 41  1  0  0  0  0
 49 47  1  0  0  0  0
M  END
>  <MODEL>
7

>  <REMARK>
 VINA RESULT:      -7.3      2.613      3.934
  Name = 
  15 active torsions:
  status: ('A' for Active; 'I' for Inactive)
    1  A    between atoms: C_1  and  C_24
    2  A    between atoms: C_1  and  C_30
    3  A    between atoms: C_2  and  N_12
    4  A    between atoms: C_2  and  N_39
    5  A    between atoms: C_5  and  N_13
    6  A    between atoms: C_5  and  C_41
    7  A    between atoms: C_8  and  C_9
    8  A    between atoms: C_10  and  N_31
    9  A    between atoms: N_13  and  C_36
   10  A    between atoms: C_18  and  C_36
   11  A    between atoms: C_18  and  C_38
   12  A    between atoms: C_24  and  C_33
   13  A    between atoms: C_30  and  N_39
   14  A    between atoms: N_31  and  C_44
   15  A    between atoms: C_33  and  C_44
                            x       y       z     vdW  Elec       q    Type
                         _______ _______ _______ _____ _____    ______ ____

>  <TORSDO>
F 15

$$$$
=
 OpenBabel10232411193D

 50 55  0  0  1  0  0  0  0  0999 V2000
  190.8950  177.2260  142.1780 C   0  0  0  0  0  0  0  0  0  0  0  0
  189.5000  177.0730  141.6670 C   0  0  2  0  0  3  0  0  0  0  0  0
  190.9800  177.6370  139.9580 C   0  0  0  0  0  3  0  0  0  0  0  0
  189.7010  177.3990  140.2250 C   0  0  0  0  0  0  0  0  0  0  0  0
  191.7320  177.5450  141.1980 C   0  0  0  0  0  3  0  0  0  0  0  0
  191.5650  175.4580  144.2460 S   0  0  0  0  0  0  0  0  0  0  0  0
  191.3020  176.9830  143.5760 C   0  0  0  0  0  0  0  0  0  0  0  0
  191.5480  177.9340  144.5740 C   0  0  0  0  0  0  0  0  0  0  0  0
  191.4220  179.3380  144.3700 N   0  0  0  0  0  1  0  0  0  0  0  0
  192.3430  175.2920  146.8740 N   0  0  0  0  0  1  0  0  0  0  0  0
  191.9150  177.4290  145.7830 N   0  0  0  0  0  0  0  0  0  0  0  0
  191.9700  176.0820  145.7520 C   0  0  0  0  0  0  0  0  0  0  0  0
  188.6180  177.2720  139.1940 C   0  0  0  0  0  2  0  0  0  0  0  0
  188.8600  178.1290  137.9590 C   0  0  2  0  0  3  0  0  0  0  0  0
  188.9360  179.4770  138.3190 O   0  0  0  0  0  1  0  0  0  0  0  0
  187.7640  177.9390  137.0220 N   0  0  0  0  0  2  0  0  0  0  0  0
  187.6840  176.8440  136.1050 C   0  0  0  0  0  0  0  0  0  0  0  0
  186.6000  176.8640  134.8650 S   0  0  0  0  0  0  0  0  0  0  0  0
  188.3440  174.4490  135.5280 C   0  0  1  0  0  3  0  0  0  0  0  0
  191.2340  175.2090  135.9200 C   0  0  0  0  0  2  0  0  0  0  0  0
  189.9000  173.4960  137.2350 N   0  0  0  0  0  2  0  0  0  0  0  0
  190.1710  176.8050  134.3460 C   0  0  0  0  0  1  0  0  0  0  0  0
  190.1450  176.2770  135.7710 C   0  0  1  0  0  3  0  0  0  0  0  0
  187.6900  173.6280  136.4630 O   0  0  0  0  0  0  0  0  0  0  0  0
  191.0270  174.3770  137.1440 C   0  0  0  0  0  0  0  0  0  0  0  0
  188.7400  175.7780  136.1850 C   0  0  1  0  0  3  0  0  0  0  0  0
  191.7770  174.5380  138.1410 O   0  0  0  0  0  0  0  0  0  0  0  0
  188.9950  173.2290  136.1130 C   0  0  1  0  0  3  0  0  0  0  0  0
  188.6270  178.0620  142.2880 N   0  0  0  0  0  2  0  0  0  0  0  0
  188.0570  178.0450  144.6530 C   0  0  0  0  0  1  0  0  0  0  0  0
  187.8510  177.3710  143.3050 C   0  0  1  0  0  3  0  0  0  0  0  0
  186.3770  177.3850  142.9230 C   0  0  0  0  0  2  0  0  0  0  0  0
  185.0030  178.7890  144.4490 C   0  0  0  0  0  1  0  0  0  0  0  0
  185.7790  178.7680  143.1460 C   0  0  2  0  0  3  0  0  0  0  0  0
  184.8410  179.1340  142.0050 C   0  0  0  0  0  2  0  0  0  0  0  0
  185.3360  178.5740  140.6820 C   0  0  0  0  0  2  0  0  0  0  0  0
  185.1170  179.5420  139.6170 N   0  0  0  0  0  2  0  0  0  0  0  0
  183.7050  179.4790  139.2690 C   0  0  0  0  0  2  0  0  0  0  0  0
  183.4410  175.9550  136.6980 C   0  0  2  0  0  3  0  0  0  0  0  0
  183.4860  178.3510  138.3770 N   0  0  0  0  0  2  0  0  0  0  0  0
  183.4070  173.4770  137.1600 C   0  0  0  0  0  2  0  0  0  0  0  0
  181.7000  174.9660  138.1860 C   0  0  0  0  0  2  0  0  0  0  0  0
  182.5840  176.0980  137.8870 N   0  0  0  0  0  0  0  0  0  0  0  0
  182.6850  177.2300  138.7560 C   0  0  0  0  0  0  0  0  0  0  0  0
  182.6110  175.7370  135.5560 O   0  0  0  0  0  0  0  0  0  0  0  0
  182.0510  177.2460  139.8500 O   0  0  0  0  0  0  0  0  0  0  0  0
  181.9340  173.9110  137.0990 C   0  0  1  0  0  0  0  0  0  0  0  0
  184.3190  174.7020  136.9090 C   0  0  0  0  0  2  0  0  0  0  0  0
  181.7280  174.6190  135.7450 C   0  0  0  0  0  2  0  0  0  0  0  0
  181.0720  172.8250  137.2480 O   0  0  0  0  0  1  0  0  0  0  0  0
  1  7  1  0  0  0  0
  2  1  1  0  0  0  0
  2 29  1  1  0  0  0
  3  4  2  0  0  0  0
  3  5  1  0  0  0  0
  4  2  1  0  0  0  0
  5  1  2  0  0  0  0
  6 12  1  0  0  0  0
  7  6  1  0  0  0  0
  7  8  2  0  0  0  0
  8 11  1  0  0  0  0
  9  8  1  0  0  0  0
 12 11  2  0  0  0  0
 12 10  1  0  0  0  0
 13  4  1  0  0  0  0
 14 15  1  1  0  0  0
 14 13  1  0  0  0  0
 16 14  1  0  0  0  0
 17 16  1  0  0  0  0
 18 17  2  0  0  0  0
 19 28  1  0  0  0  0
 19 26  1  0  0  0  0
 19 24  1  1  0  0  0
 20 25  1  0  0  0  0
 23 22  1  6  0  0  0
 23 20  1  0  0  0  0
 23 26  1  0  0  0  0
 25 21  1  0  0  0  0
 25 27  2  0  0  0  0
 26 17  1  6  0  0  0
 28 24  1  1  0  0  0
 28 21  1  0  0  0  0
 29 31  1  0  0  0  0
 31 30  1  1  0  0  0
 32 34  1  0  0  0  0
 32 31  1  0  0  0  0
 34 33  1  1  0  0  0
 35 34  1  0  0  0  0
 36 35  1  0  0  0  0
 37 36  1  0  0  0  0
 38 37  1  0  0  0  0
 39 48  1  1  0  0  0
 39 43  1  0  0  0  0
 40 44  1  0  0  0  0
 40 38  1  0  0  0  0
 43 42  1  0  0  0  0
 43 44  1  0  0  0  0
 44 46  2  0  0  0  0
 45 49  1  0  0  0  0
 45 39  1  0  0  0  0
 47 41  1  0  0  0  0
 47 50  1  1  0  0  0
 47 42  1  0  0  0  0
 48 41  1  0  0  0  0
 49 47  1  0  0  0  0
M  END
>  <MODEL>
8

>  <REMARK>
 VINA RESULT:      -7.2      1.820      2.601
  Name = 
  15 active torsions:
  status: ('A' for Active; 'I' for Inactive)
    1  A    between atoms: C_1  and  C_24
    2  A    between atoms: C_1  and  C_30
    3  A    between atoms: C_2  and  N_12
    4  A    between atoms: C_2  and  N_39
    5  A    between atoms: C_5  and  N_13
    6  A    between atoms: C_5  and  C_41
    7  A    between atoms: C_8  and  C_9
    8  A    between atoms: C_10  and  N_31
    9  A    between atoms: N_13  and  C_36
   10  A    between atoms: C_18  and  C_36
   11  A    between atoms: C_18  and  C_38
   12  A    between atoms: C_24  and  C_33
   13  A    between atoms: C_30  and  N_39
   14  A    between atoms: N_31  and  C_44
   15  A    between atoms: C_33  and  C_44
                            x       y       z     vdW  Elec       q    Type
                         _______ _______ _______ _____ _____    ______ ____

>  <TORSDO>
F 15

$$$$
=
 OpenBabel10232411193D

 50 55  0  0  1  0  0  0  0  0999 V2000
  186.1160  178.1550  143.9850 C   0  0  0  0  0  0  0  0  0  0  0  0
  186.4890  178.5870  142.6050 C   0  0  2  0  0  3  0  0  0  0  0  0
  184.1770  178.4760  142.8710 C   0  0  0  0  0  3  0  0  0  0  0  0
  185.1370  178.7270  141.9890 C   0  0  0  0  0  0  0  0  0  0  0  0
  184.7970  178.0970  144.1290 C   0  0  0  0  0  3  0  0  0  0  0  0
  188.5700  177.1280  144.8640 S   0  0  0  0  0  0  0  0  0  0  0  0
  187.0850  177.8980  145.0690 C   0  0  0  0  0  0  0  0  0  0  0  0
  186.9650  178.2400  146.4210 C   0  0  0  0  0  0  0  0  0  0  0  0
  185.8310  178.9050  146.9670 N   0  0  0  0  0  1  0  0  0  0  0  0
  190.1950  176.8010  147.0520 N   0  0  0  0  0  1  0  0  0  0  0  0
  188.0170  177.8830  147.2080 N   0  0  0  0  0  0  0  0  0  0  0  0
  188.9760  177.2650  146.4880 C   0  0  0  0  0  0  0  0  0  0  0  0
  184.9140  179.2740  140.6090 C   0  0  0  0  0  2  0  0  0  0  0  0
  183.5650  178.8860  140.0190 C   0  0  2  0  0  3  0  0  0  0  0  0
  182.5640  179.0150  140.9850 O   0  0  0  0  0  1  0  0  0  0  0  0
  183.6220  177.5050  139.5620 N   0  0  0  0  0  2  0  0  0  0  0  0
  183.0200  177.0460  138.3490 C   0  0  0  0  0  0  0  0  0  0  0  0
  181.7900  177.8900  137.6500 S   0  0  0  0  0  0  0  0  0  0  0  0
  182.9030  175.4190  136.3880 C   0  0  1  0  0  3  0  0  0  0  0  0
  185.8530  174.8980  136.7150 C   0  0  0  0  0  2  0  0  0  0  0  0
  183.9570  173.2270  136.9580 N   0  0  0  0  0  2  0  0  0  0  0  0
  185.4640  177.3430  136.5540 C   0  0  0  0  0  1  0  0  0  0  0  0
  185.1800  176.1020  137.3840 C   0  0  1  0  0  3  0  0  0  0  0  0
  181.9610  174.4390  136.7500 O   0  0  0  0  0  0  0  0  0  0  0  0
  185.3120  173.6050  137.2340 C   0  0  0  0  0  0  0  0  0  0  0  0
  183.6670  175.8960  137.6310 C   0  0  1  0  0  3  0  0  0  0  0  0
  186.0100  172.9040  138.0100 O   0  0  0  0  0  0  0  0  0  0  0  0
  183.0860  173.9700  136.0430 C   0  0  1  0  0  3  0  0  0  0  0  0
  187.2380  177.5310  141.9360 N   0  0  0  0  0  2  0  0  0  0  0  0
  189.5820  177.5560  141.2870 C   0  0  0  0  0  1  0  0  0  0  0  0
  188.2110  178.1770  141.0690 C   0  0  1  0  0  3  0  0  0  0  0  0
  187.7830  178.0280  139.6160 C   0  0  0  0  0  2  0  0  0  0  0  0
  189.0100  179.1130  137.7440 C   0  0  0  0  0  1  0  0  0  0  0  0
  189.0010  177.9410  138.7060 C   0  0  2  0  0  3  0  0  0  0  0  0
  188.9780  176.6460  137.9070 C   0  0  0  0  0  2  0  0  0  0  0  0
  190.3660  176.2830  137.4040 C   0  0  0  0  0  2  0  0  0  0  0  0
  190.9490  175.2510  138.2490 N   0  0  0  0  0  2  0  0  0  0  0  0
  191.5780  174.2820  137.3650 C   0  0  0  0  0  2  0  0  0  0  0  0
  195.7370  173.3990  138.3740 C   0  0  2  0  0  3  0  0  0  0  0  0
  192.9720  174.1230  137.7490 N   0  0  0  0  0  2  0  0  0  0  0  0
  197.7680  172.8340  136.9930 C   0  0  0  0  0  2  0  0  0  0  0  0
  196.5290  174.9510  136.5900 C   0  0  0  0  0  2  0  0  0  0  0  0
  195.3970  174.3660  137.3170 N   0  0  0  0  0  0  0  0  0  0  0  0
  194.0400  174.6380  136.9530 C   0  0  0  0  0  0  0  0  0  0  0  0
  196.5850  174.0390  139.3300 O   0  0  0  0  0  0  0  0  0  0  0  0
  193.7880  175.3500  135.9390 O   0  0  0  0  0  0  0  0  0  0  0  0
  197.8080  174.3580  137.1900 C   0  0  1  0  0  0  0  0  0  0  0  0
  196.5290  172.2500  137.7120 C   0  0  0  0  0  2  0  0  0  0  0  0
  197.7440  174.6170  138.7090 C   0  0  0  0  0  2  0  0  0  0  0  0
  198.9480  174.9200  136.6190 O   0  0  0  0  0  1  0  0  0  0  0  0
  1  5  2  0  0  0  0
  1  7  1  0  0  0  0
  2 29  1  6  0  0  0
  2  1  1  0  0  0  0
  3  5  1  0  0  0  0
  4  2  1  0  0  0  0
  4  3  2  0  0  0  0
  6  7  1  0  0  0  0
  6 12  1  0  0  0  0
  7  8  2  0  0  0  0
  8  9  1  0  0  0  0
  8 11  1  0  0  0  0
 12 10  1  0  0  0  0
 12 11  2  0  0  0  0
 13  4  1  0  0  0  0
 14 13  1  0  0  0  0
 14 15  1  1  0  0  0
 16 14  1  0  0  0  0
 17 16  1  0  0  0  0
 18 17  2  0  0  0  0
 19 24  1  1  0  0  0
 19 26  1  0  0  0  0
 20 25  1  0  0  0  0
 20 23  1  0  0  0  0
 21 25  1  0  0  0  0
 23 22  1  6  0  0  0
 23 26  1  0  0  0  0
 25 27  2  0  0  0  0
 26 17  1  6  0  0  0
 28 19  1  0  0  0  0
 28 24  1  1  0  0  0
 28 21  1  0  0  0  0
 31 30  1  6  0  0  0
 31 29  1  0  0  0  0
 32 31  1  0  0  0  0
 34 33  1  6  0  0  0
 34 32  1  0  0  0  0
 35 34  1  0  0  0  0
 36 35  1  0  0  0  0
 36 37  1  0  0  0  0
 38 40  1  0  0  0  0
 38 37  1  0  0  0  0
 39 48  1  6  0  0  0
 39 45  1  0  0  0  0
 41 47  1  0  0  0  0
 41 48  1  0  0  0  0
 42 47  1  0  0  0  0
 42 43  1  0  0  0  0
 43 39  1  0  0  0  0
 44 43  1  0  0  0  0
 44 40  1  0  0  0  0
 46 44  2  0  0  0  0
 47 50  1  6  0  0  0
 47 49  1  0  0  0  0
 49 45  1  0  0  0  0
M  END
>  <MODEL>
9

>  <REMARK>
 VINA RESULT:      -7.1      3.451      8.744
  Name = 
  15 active torsions:
  status: ('A' for Active; 'I' for Inactive)
    1  A    between atoms: C_1  and  C_24
    2  A    between atoms: C_1  and  C_30
    3  A    between atoms: C_2  and  N_12
    4  A    between atoms: C_2  and  N_39
    5  A    between atoms: C_5  and  N_13
    6  A    between atoms: C_5  and  C_41
    7  A    between atoms: C_8  and  C_9
    8  A    between atoms: C_10  and  N_31
    9  A    between atoms: N_13  and  C_36
   10  A    between atoms: C_18  and  C_36
   11  A    between atoms: C_18  and  C_38
   12  A    between atoms: C_24  and  C_33
   13  A    between atoms: C_30  and  N_39
   14  A    between atoms: N_31  and  C_44
   15  A    between atoms: C_33  and  C_44
                            x       y       z     vdW  Elec       q    Type
                         _______ _______ _______ _____ _____    ______ ____

>  <TORSDO>
F 15

$$$$
