=
 OpenBabel10232408333D

 41 45  0  0  1  0  0  0  0  0999 V2000
  190.1280  177.5640  141.9150 C   0  0  1  0  0  3  0  0  0  0  0  0
  189.9000  177.0410  137.1540 C   0  0  0  0  0  3  0  0  0  0  0  0
  190.0140  176.5340  142.9970 C   0  0  0  0  0  3  0  0  0  0  0  0
  188.8690  176.3780  143.6660 C   0  0  0  0  0  3  0  0  0  0  0  0
  190.1530  177.2200  139.6240 C   0  0  0  0  0  0  0  0  0  0  0  0
  191.9010  176.3810  138.1530 N   0  0  0  0  0  0  0  0  0  0  0  0
  190.6090  176.9040  138.4140 C   0  0  0  0  0  0  0  0  0  0  0  0
  187.6470  177.1400  143.3120 C   0  0  0  0  0  0  0  0  0  0  0  0
  190.9240  177.0670  140.8070 N   0  0  0  0  0  2  0  0  0  0  0  0
  188.8110  177.8790  141.3560 N   0  0  0  0  0  0  0  0  0  0  0  0
  187.6180  177.8490  142.1600 C   0  0  0  0  0  0  0  0  0  0  0  0
  191.9020  176.2270  136.8690 C   0  0  0  0  0  0  0  0  0  0  0  0
  188.8000  177.7530  139.9070 C   0  0  0  0  0  2  0  0  0  0  0  0
  190.6940  176.6320  136.2200 N   0  0  0  0  0  0  0  0  0  0  0  0
  186.4110  178.5740  141.6820 C   0  0  0  0  0  0  0  0  0  0  0  0
  186.4550  179.8050  141.4080 O   0  0  0  0  0  0  0  0  0  0  0  0
  185.2100  177.8750  141.5540 O   0  0  0  0  0  0  0  0  0  0  0  0
  184.0800  178.4240  140.8940 C   0  0  0  0  0  2  0  0  0  0  0  0
  182.9870  178.7060  141.9080 C   0  0  0  0  0  2  0  0  0  0  0  0
  183.4670  178.4180  143.2490 N   0  0  0  0  0  0  0  0  0  0  0  0
  183.5260  179.7030  143.9590 C   0  0  0  0  0  2  0  0  0  0  0  0
  182.3960  178.8100  144.1750 C   0  0  0  0  0  2  0  0  0  0  0  0
  186.5070  177.0680  144.1720 N   0  0  0  0  0  2  0  0  0  0  0  0
  186.3430  177.9540  145.2470 N   0  0  0  0  0  2  0  0  0  0  0  0
  186.5970  177.2510  146.3750 O   0  0  0  0  0  0  0  0  0  0  0  0
  187.1540  178.1530  147.2180 N   0  0  0  0  0  2  0  0  0  0  0  0
  189.4620  178.4570  148.8780 C   0  0  0  0  0  1  0  0  0  0  0  0
  188.9600  176.2330  147.4660 O   0  0  0  0  0  0  0  0  0  0  0  0
  189.5970  178.2430  146.2090 O   0  0  0  0  0  0  0  0  0  0  0  0
  188.8220  177.7280  147.3880 S   0  0  0  0  0  0  0  0  0  0  0  0
  193.0930  175.7350  136.1250 C   0  0  0  0  0  2  0  0  0  0  0  0
  194.2250  175.6360  137.0300 N   0  0  0  0  0  2  0  0  0  0  0  0
  197.0850  175.8670  135.5450 C   0  0  0  0  0  2  0  0  0  0  0  0
  196.4420  174.5910  137.2530 C   0  0  2  0  0  3  0  0  0  0  0  0
  197.3080  175.6360  136.9120 O   0  0  0  0  0  0  0  0  0  0  0  0
  195.7060  175.3550  135.1640 C   0  0  0  0  0  2  0  0  0  0  0  0
  195.1770  174.7240  136.4160 C   0  0  2  0  0  3  0  0  0  0  0  0
  196.2650  174.4790  138.7750 C   0  0  1  0  0  3  0  0  0  0  0  0
  195.6850  173.2590  139.1290 O   0  0  0  0  0  1  0  0  0  0  0  0
  197.5730  174.6720  139.5290 C   0  0  0  0  0  2  0  0  0  0  0  0
  197.3360  175.4310  140.8220 C   0  0  0  0  0  1  0  0  0  0  0  0
  1  3  1  1  0  0  0
  2  7  1  0  0  0  0
  3  4  2  0  0  0  0
  5 13  1  0  0  0  0
  5  9  1  0  0  0  0
  6  7  1  0  0  0  0
  7  5  2  0  0  0  0
  8  4  1  0  0  0  0
  8 23  1  0  0  0  0
  9  1  1  0  0  0  0
 10  1  1  0  0  0  0
 10 11  1  0  0  0  0
 11  8  2  0  0  0  0
 12  6  2  0  0  0  0
 13 10  1  0  0  0  0
 14 12  1  0  0  0  0
 14  2  2  0  0  0  0
 15 11  1  0  0  0  0
 16 15  2  0  0  0  0
 17 15  1  0  0  0  0
 18 17  1  0  0  0  0
 18 19  1  0  0  0  0
 19 20  1  0  0  0  0
 20 21  1  0  0  0  0
 20 22  1  0  0  0  0
 21 22  1  0  0  0  0
 23 24  1  0  0  0  0
 24 25  1  0  0  0  0
 25 26  1  0  0  0  0
 26 30  1  0  0  0  0
 29 30  2  0  0  0  0
 30 28  2  0  0  0  0
 30 27  1  0  0  0  0
 31 12  1  0  0  0  0
 31 32  1  0  0  0  0
 33 35  1  0  0  0  0
 34 38  1  1  0  0  0
 35 34  1  0  0  0  0
 36 33  1  0  0  0  0
 36 37  1  0  0  0  0
 37 32  1  1  0  0  0
 37 34  1  0  0  0  0
 38 39  1  6  0  0  0
 38 40  1  0  0  0  0
 40 41  1  0  0  0  0
M  END
>  <MODEL>
1

>  <REMARK>
 VINA RESULT:      -7.0      0.000      0.000
  Name = 
  15 active torsions:
  status: ('A' for Active; 'I' for Inactive)
    1  A    between atoms: C_1  and  O_27
    2  A    between atoms: C_1  and  C_28
    3  A    between atoms: N_5  and  O_30
    4  A    between atoms: N_5  and  S_36
    5  A    between atoms: N_6  and  C_11
    6  A    between atoms: C_10  and  C_11
    7  A    between atoms: C_10  and  O_27
    8  A    between atoms: C_16  and  C_38
    9  A    between atoms: C_21  and  N_23
   10  A    between atoms: N_22  and  N_23
   11  A    between atoms: N_22  and  O_30
   12  A    between atoms: C_31  and  C_38
   13  A    between atoms: N_32  and  C_35
   14  A    between atoms: N_32  and  C_37
   15  A    between atoms: C_33  and  C_35
                            x       y       z     vdW  Elec       q    Type
                         _______ _______ _______ _____ _____    ______ ____

>  <TORSDO>
F 15

$$$$
=
 OpenBabel10232408333D

 41 45  0  0  1  0  0  0  0  0999 V2000
  186.0960  178.8490  139.4530 C   0  0  1  0  0  3  0  0  0  0  0  0
  190.2390  176.9800  140.9840 C   0  0  0  0  0  3  0  0  0  0  0  0
  184.6980  178.3310  139.6080 C   0  0  0  0  0  3  0  0  0  0  0  0
  184.0970  177.6940  138.6000 C   0  0  0  0  0  3  0  0  0  0  0  0
  188.0440  177.9670  140.3460 C   0  0  0  0  0  0  0  0  0  0  0  0
  188.9330  178.0250  142.6090 N   0  0  0  0  0  0  0  0  0  0  0  0
  188.9890  177.6770  141.2360 C   0  0  2  0  0  3  0  0  0  0  0  0
  184.8060  177.3900  137.3330 C   0  0  0  0  0  0  0  0  0  0  0  0
  186.8540  178.6680  140.6780 N   0  0  0  0  0  0  0  0  0  0  0  0
  186.8160  178.1020  138.4190 N   0  0  0  0  0  0  0  0  0  0  0  0
  186.1460  177.5640  137.2640 C   0  0  0  0  0  0  0  0  0  0  0  0
  190.0420  177.5510  143.0790 C   0  0  0  0  0  0  0  0  0  0  0  0
  188.0870  177.5930  138.9130 C   0  0  0  0  0  2  0  0  0  0  0  0
  190.8740  176.9120  142.1070 N   0  0  0  0  0  0  0  0  0  0  0  0
  186.9520  177.2080  136.0680 C   0  0  0  0  0  0  0  0  0  0  0  0
  187.4880  178.0980  135.3520 O   0  0  0  0  0  0  0  0  0  0  0  0
  187.0970  175.8620  135.7280 O   0  0  0  0  0  0  0  0  0  0  0  0
  187.7900  174.9410  136.5570 C   0  0  0  0  0  2  0  0  0  0  0  0
  189.2840  175.1800  136.4430 C   0  0  0  0  0  2  0  0  0  0  0  0
  189.9750  174.5350  137.5460 N   0  0  0  0  0  0  0  0  0  0  0  0
  191.2260  173.9930  136.9970 C   0  0  0  0  0  2  0  0  0  0  0  0
  191.2440  175.2530  137.7270 C   0  0  0  0  0  2  0  0  0  0  0  0
  184.0640  176.8710  136.2260 N   0  0  0  0  0  2  0  0  0  0  0  0
  182.6990  176.5720  136.3350 N   0  0  0  0  0  2  0  0  0  0  0  0
  182.5030  175.3990  135.6870 O   0  0  0  0  0  0  0  0  0  0  0  0
  182.7140  174.4520  136.6310 N   0  0  0  0  0  2  0  0  0  0  0  0
  183.6570  171.7800  137.0120 C   0  0  0  0  0  1  0  0  0  0  0  0
  182.5430  172.6230  134.7240 O   0  0  0  0  0  0  0  0  0  0  0  0
  184.7720  173.4910  135.2760 O   0  0  0  0  0  0  0  0  0  0  0  0
  183.4360  173.0950  135.8370 S   0  0  0  0  0  0  0  0  0  0  0  0
  190.4450  177.7230  144.5000 C   0  0  0  0  0  2  0  0  0  0  0  0
  189.3470  178.3050  145.2510 N   0  0  0  0  0  2  0  0  0  0  0  0
  188.7030  177.9280  148.3950 C   0  0  0  0  0  2  0  0  0  0  0  0
  187.4190  177.5940  146.6070 C   0  0  2  0  0  3  0  0  0  0  0  0
  187.5420  178.3880  147.7520 O   0  0  0  0  0  0  0  0  0  0  0  0
  189.6000  177.2350  147.3830 C   0  0  0  0  0  2  0  0  0  0  0  0
  188.8160  177.2540  146.1060 C   0  0  2  0  0  3  0  0  0  0  0  0
  186.4450  178.2140  145.5920 C   0  0  1  0  0  3  0  0  0  0  0  0
  186.2170  177.3520  144.5170 O   0  0  0  0  0  1  0  0  0  0  0  0
  185.1210  178.6150  146.2280 C   0  0  0  0  0  2  0  0  0  0  0  0
  184.0840  178.9050  145.1590 C   0  0  0  0  0  1  0  0  0  0  0  0
  1  3  1  1  0  0  0
  1  9  1  0  0  0  0
  2  7  1  0  0  0  0
  2 14  2  0  0  0  0
  4  3  2  0  0  0  0
  5  9  2  0  0  0  0
  6 12  2  0  0  0  0
  7  5  1  6  0  0  0
  7  6  1  0  0  0  0
  8  4  1  0  0  0  0
 10 13  1  0  0  0  0
 10  1  1  0  0  0  0
 11  8  2  0  0  0  0
 11 10  1  0  0  0  0
 12 31  1  0  0  0  0
 13  5  1  0  0  0  0
 14 12  1  0  0  0  0
 15 11  1  0  0  0  0
 16 15  2  0  0  0  0
 17 15  1  0  0  0  0
 17 18  1  0  0  0  0
 19 18  1  0  0  0  0
 19 20  1  0  0  0  0
 20 22  1  0  0  0  0
 21 20  1  0  0  0  0
 21 22  1  0  0  0  0
 23 24  1  0  0  0  0
 23  8  1  0  0  0  0
 25 24  1  0  0  0  0
 25 26  1  0  0  0  0
 28 30  2  0  0  0  0
 29 30  2  0  0  0  0
 30 26  1  0  0  0  0
 30 27  1  0  0  0  0
 31 32  1  0  0  0  0
 34 38  1  6  0  0  0
 34 35  1  0  0  0  0
 35 33  1  0  0  0  0
 36 33  1  0  0  0  0
 37 32  1  6  0  0  0
 37 34  1  0  0  0  0
 37 36  1  0  0  0  0
 38 39  1  6  0  0  0
 38 40  1  0  0  0  0
 41 40  1  0  0  0  0
M  END
>  <MODEL>
2

>  <REMARK>
 VINA RESULT:      -6.9      4.517      9.950
  Name = 
  15 active torsions:
  status: ('A' for Active; 'I' for Inactive)
    1  A    between atoms: C_1  and  O_27
    2  A    between atoms: C_1  and  C_28
    3  A    between atoms: N_5  and  O_30
    4  A    between atoms: N_5  and  S_36
    5  A    between atoms: N_6  and  C_11
    6  A    between atoms: C_10  and  C_11
    7  A    between atoms: C_10  and  O_27
    8  A    between atoms: C_16  and  C_38
    9  A    between atoms: C_21  and  N_23
   10  A    between atoms: N_22  and  N_23
   11  A    between atoms: N_22  and  O_30
   12  A    between atoms: C_31  and  C_38
   13  A    between atoms: N_32  and  C_35
   14  A    between atoms: N_32  and  C_37
   15  A    between atoms: C_33  and  C_35
                            x       y       z     vdW  Elec       q    Type
                         _______ _______ _______ _____ _____    ______ ____

>  <TORSDO>
F 15

$$$$
=
 OpenBabel10232408333D

 41 45  0  0  1  0  0  0  0  0999 V2000
  187.5470  178.4440  138.6480 C   0  0  1  0  0  3  0  0  0  0  0  0
  190.7740  176.3700  141.5260 C   0  0  0  0  0  3  0  0  0  0  0  0
  186.0730  178.2020  138.5340 C   0  0  0  0  0  3  0  0  0  0  0  0
  185.5850  177.4460  137.5470 C   0  0  0  0  0  3  0  0  0  0  0  0
  189.0260  177.5060  140.1660 C   0  0  0  0  0  0  0  0  0  0  0  0
  189.3950  177.9620  142.5270 N   0  0  0  0  0  0  0  0  0  0  0  0
  189.6740  177.2930  141.3080 C   0  0  2  0  0  3  0  0  0  0  0  0
  186.4730  176.7430  136.5900 C   0  0  0  0  0  0  0  0  0  0  0  0
  187.9660  178.4430  140.0390 N   0  0  0  0  0  0  0  0  0  0  0  0
  188.3020  177.3690  137.9990 N   0  0  0  0  0  0  0  0  0  0  0  0
  187.8020  176.6840  136.8370 C   0  0  0  0  0  0  0  0  0  0  0  0
  190.2510  177.4460  143.3490 C   0  0  0  0  0  0  0  0  0  0  0  0
  189.3000  176.8010  138.8920 C   0  0  0  0  0  2  0  0  0  0  0  0
  191.1210  176.4720  142.7660 N   0  0  0  0  0  0  0  0  0  0  0  0
  188.7560  175.9320  135.9800 C   0  0  0  0  0  0  0  0  0  0  0  0
  189.4130  176.5100  135.0720 O   0  0  0  0  0  0  0  0  0  0  0  0
  188.9060  174.5590  136.1810 O   0  0  0  0  0  0  0  0  0  0  0  0
  190.0990  173.8700  135.8420 C   0  0  0  0  0  2  0  0  0  0  0  0
  191.0730  173.9390  137.0040 C   0  0  0  0  0  2  0  0  0  0  0  0
  192.2430  174.7120  136.6250 N   0  0  0  0  0  0  0  0  0  0  0  0
  192.5820  175.5540  137.7810 C   0  0  0  0  0  2  0  0  0  0  0  0
  193.3220  174.3220  137.5430 C   0  0  0  0  0  2  0  0  0  0  0  0
  185.8980  176.0970  135.4500 N   0  0  0  0  0  2  0  0  0  0  0  0
  184.5170  175.8710  135.3550 N   0  0  0  0  0  2  0  0  0  0  0  0
  184.2930  174.6220  135.8260 O   0  0  0  0  0  0  0  0  0  0  0  0
  185.2380  173.8590  135.2260 N   0  0  0  0  0  2  0  0  0  0  0  0
  187.0320  171.6840  135.6950 C   0  0  0  0  0  1  0  0  0  0  0  0
  185.9820  173.1620  137.6690 O   0  0  0  0  0  0  0  0  0  0  0  0
  184.4650  171.6540  136.4650 O   0  0  0  0  0  0  0  0  0  0  0  0
  185.6360  172.5850  136.3260 S   0  0  0  0  0  0  0  0  0  0  0  0
  190.3630  177.8850  144.7650 C   0  0  0  0  0  2  0  0  0  0  0  0
  189.0690  178.3520  145.2330 N   0  0  0  0  0  2  0  0  0  0  0  0
  188.4060  177.7930  148.3460 C   0  0  0  0  0  2  0  0  0  0  0  0
  187.1090  177.6430  146.5420 C   0  0  2  0  0  3  0  0  0  0  0  0
  187.2680  178.3500  147.7390 O   0  0  0  0  0  0  0  0  0  0  0  0
  189.2700  177.1280  147.2870 C   0  0  0  0  0  2  0  0  0  0  0  0
  188.4880  177.2720  146.0160 C   0  0  2  0  0  3  0  0  0  0  0  0
  186.1660  178.3760  145.5750 C   0  0  1  0  0  3  0  0  0  0  0  0
  186.0370  177.6830  144.3700 O   0  0  0  0  0  1  0  0  0  0  0  0
  184.7920  178.6270  146.1810 C   0  0  0  0  0  2  0  0  0  0  0  0
  183.7720  178.9020  145.0910 C   0  0  0  0  0  1  0  0  0  0  0  0
  1  3  1  1  0  0  0
  1  9  1  0  0  0  0
  2 14  2  0  0  0  0
  4  3  2  0  0  0  0
  6 12  2  0  0  0  0
  7  5  1  6  0  0  0
  7  2  1  0  0  0  0
  7  6  1  0  0  0  0
  8 11  2  0  0  0  0
  8  4  1  0  0  0  0
  9  5  2  0  0  0  0
 10  1  1  0  0  0  0
 10 13  1  0  0  0  0
 11 10  1  0  0  0  0
 12 31  1  0  0  0  0
 13  5  1  0  0  0  0
 14 12  1  0  0  0  0
 15 17  1  0  0  0  0
 15 11  1  0  0  0  0
 16 15  2  0  0  0  0
 18 17  1  0  0  0  0
 18 19  1  0  0  0  0
 20 19  1  0  0  0  0
 20 22  1  0  0  0  0
 20 21  1  0  0  0  0
 22 21  1  0  0  0  0
 23  8  1  0  0  0  0
 24 23  1  0  0  0  0
 24 25  1  0  0  0  0
 26 25  1  0  0  0  0
 26 30  1  0  0  0  0
 27 30  1  0  0  0  0
 30 29  2  0  0  0  0
 30 28  2  0  0  0  0
 31 32  1  0  0  0  0
 34 38  1  6  0  0  0
 34 35  1  0  0  0  0
 35 33  1  0  0  0  0
 36 33  1  0  0  0  0
 37 32  1  6  0  0  0
 37 34  1  0  0  0  0
 37 36  1  0  0  0  0
 38 39  1  6  0  0  0
 38 40  1  0  0  0  0
 41 40  1  0  0  0  0
M  END
>  <MODEL>
3

>  <REMARK>
 VINA RESULT:      -6.8      4.195     10.139
  Name = 
  15 active torsions:
  status: ('A' for Active; 'I' for Inactive)
    1  A    between atoms: C_1  and  O_27
    2  A    between atoms: C_1  and  C_28
    3  A    between atoms: N_5  and  O_30
    4  A    between atoms: N_5  and  S_36
    5  A    between atoms: N_6  and  C_11
    6  A    between atoms: C_10  and  C_11
    7  A    between atoms: C_10  and  O_27
    8  A    between atoms: C_16  and  C_38
    9  A    between atoms: C_21  and  N_23
   10  A    between atoms: N_22  and  N_23
   11  A    between atoms: N_22  and  O_30
   12  A    between atoms: C_31  and  C_38
   13  A    between atoms: N_32  and  C_35
   14  A    between atoms: N_32  and  C_37
   15  A    between atoms: C_33  and  C_35
                            x       y       z     vdW  Elec       q    Type
                         _______ _______ _______ _____ _____    ______ ____

>  <TORSDO>
F 15

$$$$
=
 OpenBabel10232408333D

 41 45  0  0  1  0  0  0  0  0999 V2000
  187.6470  178.4110  138.7930 C   0  0  1  0  0  3  0  0  0  0  0  0
  190.6210  176.2010  141.8370 C   0  0  0  0  0  3  0  0  0  0  0  0
  186.1500  178.3680  138.7180 C   0  0  0  0  0  3  0  0  0  0  0  0
  185.5400  177.5930  137.8170 C   0  0  0  0  0  3  0  0  0  0  0  0
  189.0160  177.4310  140.3840 C   0  0  0  0  0  0  0  0  0  0  0  0
  189.4990  178.0620  142.6840 N   0  0  0  0  0  0  0  0  0  0  0  0
  189.6540  177.2430  141.5370 C   0  0  2  0  0  3  0  0  0  0  0  0
  186.2990  176.6810  136.9280 C   0  0  0  0  0  0  0  0  0  0  0  0
  188.0930  178.4900  140.1720 N   0  0  0  0  0  0  0  0  0  0  0  0
  188.2300  177.1820  138.2500 N   0  0  0  0  0  0  0  0  0  0  0  0
  187.6120  176.4620  137.1680 C   0  0  0  0  0  0  0  0  0  0  0  0
  190.2950  177.5160  143.5460 C   0  0  0  0  0  0  0  0  0  0  0  0
  189.1600  176.5710  139.1870 C   0  0  0  0  0  2  0  0  0  0  0  0
  191.0080  176.3770  143.0570 N   0  0  0  0  0  0  0  0  0  0  0  0
  188.4320  175.5020  136.3830 C   0  0  0  0  0  0  0  0  0  0  0  0
  188.4040  174.2650  136.6310 O   0  0  0  0  0  0  0  0  0  0  0  0
  189.2580  175.9900  135.3700 O   0  0  0  0  0  0  0  0  0  0  0  0
  190.6030  176.3760  135.6080 C   0  0  0  0  0  2  0  0  0  0  0  0
  191.5260  175.2060  135.3220 C   0  0  0  0  0  2  0  0  0  0  0  0
  192.5810  175.1520  136.3190 N   0  0  0  0  0  0  0  0  0  0  0  0
  191.9780  174.5990  137.5390 C   0  0  0  0  0  2  0  0  0  0  0  0
  192.7610  173.7360  136.6670 C   0  0  0  0  0  2  0  0  0  0  0  0
  185.6130  176.0130  135.8650 N   0  0  0  0  0  2  0  0  0  0  0  0
  185.0170  174.7580  136.0530 N   0  0  0  0  0  2  0  0  0  0  0  0
  183.6970  174.9780  136.2560 O   0  0  0  0  0  0  0  0  0  0  0  0
  183.4660  174.5220  137.5100 N   0  0  0  0  0  2  0  0  0  0  0  0
  180.7360  174.6770  138.3430 C   0  0  0  0  0  1  0  0  0  0  0  0
  182.7190  175.9840  139.5880 O   0  0  0  0  0  0  0  0  0  0  0  0
  182.0830  176.7710  137.3510 O   0  0  0  0  0  0  0  0  0  0  0  0
  182.2750  175.5580  138.2160 S   0  0  0  0  0  0  0  0  0  0  0  0
  190.4990  178.0740  144.9090 C   0  0  0  0  0  2  0  0  0  0  0  0
  189.2220  178.4930  145.4600 N   0  0  0  0  0  2  0  0  0  0  0  0
  188.4210  177.8990  148.5330 C   0  0  0  0  0  2  0  0  0  0  0  0
  187.2610  177.6060  146.6550 C   0  0  2  0  0  3  0  0  0  0  0  0
  187.2750  178.3370  147.8490 O   0  0  0  0  0  0  0  0  0  0  0  0
  189.4110  177.3130  147.5400 C   0  0  0  0  0  2  0  0  0  0  0  0
  188.7010  177.3680  146.2210 C   0  0  2  0  0  3  0  0  0  0  0  0
  186.3150  178.2360  145.6200 C   0  0  1  0  0  3  0  0  0  0  0  0
  186.2240  177.4470  144.4710 O   0  0  0  0  0  1  0  0  0  0  0  0
  184.9250  178.4940  146.1850 C   0  0  0  0  0  2  0  0  0  0  0  0
  183.9820  178.9530  145.0880 C   0  0  0  0  0  1  0  0  0  0  0  0
  1  3  1  1  0  0  0
  1  9  1  0  0  0  0
  2 14  2  0  0  0  0
  4  3  2  0  0  0  0
  6 12  2  0  0  0  0
  7  5  1  6  0  0  0
  7  2  1  0  0  0  0
  7  6  1  0  0  0  0
  8 11  2  0  0  0  0
  8  4  1  0  0  0  0
  9  5  2  0  0  0  0
 10  1  1  0  0  0  0
 10 13  1  0  0  0  0
 11 10  1  0  0  0  0
 12 31  1  0  0  0  0
 13  5  1  0  0  0  0
 14 12  1  0  0  0  0
 15 16  2  0  0  0  0
 15 11  1  0  0  0  0
 17 18  1  0  0  0  0
 17 15  1  0  0  0  0
 19 18  1  0  0  0  0
 19 20  1  0  0  0  0
 20 22  1  0  0  0  0
 20 21  1  0  0  0  0
 22 21  1  0  0  0  0
 23 24  1  0  0  0  0
 23  8  1  0  0  0  0
 24 25  1  0  0  0  0
 25 26  1  0  0  0  0
 26 30  1  0  0  0  0
 29 30  2  0  0  0  0
 30 27  1  0  0  0  0
 30 28  2  0  0  0  0
 31 32  1  0  0  0  0
 34 38  1  6  0  0  0
 34 35  1  0  0  0  0
 35 33  1  0  0  0  0
 36 33  1  0  0  0  0
 37 32  1  6  0  0  0
 37 34  1  0  0  0  0
 37 36  1  0  0  0  0
 38 39  1  6  0  0  0
 38 40  1  0  0  0  0
 41 40  1  0  0  0  0
M  END
>  <MODEL>
4

>  <REMARK>
 VINA RESULT:      -6.7      3.873      9.970
  Name = 
  15 active torsions:
  status: ('A' for Active; 'I' for Inactive)
    1  A    between atoms: C_1  and  O_27
    2  A    between atoms: C_1  and  C_28
    3  A    between atoms: N_5  and  O_30
    4  A    between atoms: N_5  and  S_36
    5  A    between atoms: N_6  and  C_11
    6  A    between atoms: C_10  and  C_11
    7  A    between atoms: C_10  and  O_27
    8  A    between atoms: C_16  and  C_38
    9  A    between atoms: C_21  and  N_23
   10  A    between atoms: N_22  and  N_23
   11  A    between atoms: N_22  and  O_30
   12  A    between atoms: C_31  and  C_38
   13  A    between atoms: N_32  and  C_35
   14  A    between atoms: N_32  and  C_37
   15  A    between atoms: C_33  and  C_35
                            x       y       z     vdW  Elec       q    Type
                         _______ _______ _______ _____ _____    ______ ____

>  <TORSDO>
F 15

$$$$
=
 OpenBabel10232408333D

 41 45  0  0  1  0  0  0  0  0999 V2000
  189.7080  177.6890  141.9390 C   0  0  1  0  0  3  0  0  0  0  0  0
  189.4610  177.1770  137.1780 C   0  0  0  0  0  3  0  0  0  0  0  0
  189.5520  176.6630  143.0210 C   0  0  0  0  0  3  0  0  0  0  0  0
  188.4010  176.5530  143.6890 C   0  0  0  0  0  3  0  0  0  0  0  0
  189.7200  177.3450  139.6480 C   0  0  0  0  0  0  0  0  0  0  0  0
  191.4330  176.4370  138.1780 N   0  0  0  0  0  0  0  0  0  0  0  0
  190.1630  177.0110  138.4380 C   0  0  0  0  0  0  0  0  0  0  0  0
  187.2110  177.3640  143.3350 C   0  0  0  0  0  0  0  0  0  0  0  0
  190.4840  177.1600  140.8310 N   0  0  0  0  0  2  0  0  0  0  0  0
  188.4040  178.0560  141.3800 N   0  0  0  0  0  0  0  0  0  0  0  0
  187.2110  178.0740  142.1830 C   0  0  0  0  0  0  0  0  0  0  0  0
  191.4290  176.2840  136.8930 C   0  0  0  0  0  0  0  0  0  0  0  0
  188.3890  177.9310  139.9310 C   0  0  0  0  0  2  0  0  0  0  0  0
  190.2380  176.7370  136.2440 N   0  0  0  0  0  0  0  0  0  0  0  0
  186.0350  178.8470  141.7050 C   0  0  0  0  0  0  0  0  0  0  0  0
  185.7860  180.0000  142.1510 O   0  0  0  0  0  0  0  0  0  0  0  0
  185.1860  178.2690  140.7600 O   0  0  0  0  0  0  0  0  0  0  0  0
  184.7260  178.9780  139.6200 C   0  0  0  0  0  2  0  0  0  0  0  0
  183.7670  178.1060  138.8320 C   0  0  0  0  0  2  0  0  0  0  0  0
  182.4880  178.7800  138.6880 N   0  0  0  0  0  0  0  0  0  0  0  0
  182.0200  178.5060  137.3220 C   0  0  0  0  0  2  0  0  0  0  0  0
  181.4860  177.7360  138.4370 C   0  0  0  0  0  2  0  0  0  0  0  0
  186.0680  177.3370  144.1950 N   0  0  0  0  0  2  0  0  0  0  0  0
  185.9790  178.1690  145.3200 N   0  0  0  0  0  2  0  0  0  0  0  0
  186.6620  177.5550  146.3150 O   0  0  0  0  0  0  0  0  0  0  0  0
  187.6760  178.4040  146.6040 N   0  0  0  0  0  2  0  0  0  0  0  0
  190.1360  176.9630  146.8120 C   0  0  0  0  0  1  0  0  0  0  0  0
  189.1950  178.5350  148.7690 O   0  0  0  0  0  0  0  0  0  0  0  0
  187.9980  176.4350  148.3410 O   0  0  0  0  0  0  0  0  0  0  0  0
  188.7290  177.5830  147.7040 S   0  0  0  0  0  0  0  0  0  0  0  0
  192.5990  175.7450  136.1500 C   0  0  0  0  0  2  0  0  0  0  0  0
  193.6480  175.3840  137.0880 N   0  0  0  0  0  2  0  0  0  0  0  0
  196.3530  175.7610  135.3620 C   0  0  0  0  0  2  0  0  0  0  0  0
  195.9160  174.4280  137.0910 C   0  0  2  0  0  3  0  0  0  0  0  0
  196.7060  175.5150  136.6990 O   0  0  0  0  0  0  0  0  0  0  0  0
  194.9670  175.2000  135.0930 C   0  0  0  0  0  2  0  0  0  0  0  0
  194.5770  174.5240  136.3730 C   0  0  2  0  0  3  0  0  0  0  0  0
  195.8790  174.2810  138.6210 C   0  0  1  0  0  3  0  0  0  0  0  0
  195.4120  173.0190  138.9960 O   0  0  0  0  0  1  0  0  0  0  0  0
  197.2330  174.5470  139.2630 C   0  0  0  0  0  2  0  0  0  0  0  0
  197.0610  175.2750  140.5840 C   0  0  0  0  0  1  0  0  0  0  0  0
  1  3  1  1  0  0  0
  2  7  1  0  0  0  0
  3  4  2  0  0  0  0
  5 13  1  0  0  0  0
  5  9  1  0  0  0  0
  6  7  1  0  0  0  0
  7  5  2  0  0  0  0
  8  4  1  0  0  0  0
  8 23  1  0  0  0  0
  9  1  1  0  0  0  0
 10  1  1  0  0  0  0
 10 11  1  0  0  0  0
 11  8  2  0  0  0  0
 12  6  2  0  0  0  0
 13 10  1  0  0  0  0
 14 12  1  0  0  0  0
 14  2  2  0  0  0  0
 15 16  2  0  0  0  0
 15 11  1  0  0  0  0
 17 15  1  0  0  0  0
 18 17  1  0  0  0  0
 19 18  1  0  0  0  0
 20 19  1  0  0  0  0
 21 22  1  0  0  0  0
 21 20  1  0  0  0  0
 22 20  1  0  0  0  0
 23 24  1  0  0  0  0
 24 25  1  0  0  0  0
 25 26  1  0  0  0  0
 26 30  1  0  0  0  0
 27 30  1  0  0  0  0
 30 29  2  0  0  0  0
 30 28  2  0  0  0  0
 31 12  1  0  0  0  0
 31 32  1  0  0  0  0
 33 35  1  0  0  0  0
 34 38  1  1  0  0  0
 35 34  1  0  0  0  0
 36 33  1  0  0  0  0
 36 37  1  0  0  0  0
 37 32  1  1  0  0  0
 37 34  1  0  0  0  0
 38 39  1  6  0  0  0
 38 40  1  0  0  0  0
 40 41  1  0  0  0  0
M  END
>  <MODEL>
5

>  <REMARK>
 VINA RESULT:      -6.6      1.436      1.924
  Name = 
  15 active torsions:
  status: ('A' for Active; 'I' for Inactive)
    1  A    between atoms: C_1  and  O_27
    2  A    between atoms: C_1  and  C_28
    3  A    between atoms: N_5  and  O_30
    4  A    between atoms: N_5  and  S_36
    5  A    between atoms: N_6  and  C_11
    6  A    between atoms: C_10  and  C_11
    7  A    between atoms: C_10  and  O_27
    8  A    between atoms: C_16  and  C_38
    9  A    between atoms: C_21  and  N_23
   10  A    between atoms: N_22  and  N_23
   11  A    between atoms: N_22  and  O_30
   12  A    between atoms: C_31  and  C_38
   13  A    between atoms: N_32  and  C_35
   14  A    between atoms: N_32  and  C_37
   15  A    between atoms: C_33  and  C_35
                            x       y       z     vdW  Elec       q    Type
                         _______ _______ _______ _____ _____    ______ ____

>  <TORSDO>
F 15

$$$$
=
 OpenBabel10232408333D

 41 45  0  0  1  0  0  0  0  0999 V2000
  185.3020  179.1700  141.2720 C   0  0  1  0  0  3  0  0  0  0  0  0
  189.6700  177.3850  140.4160 C   0  0  0  0  0  3  0  0  0  0  0  0
  184.1680  178.5870  142.0600 C   0  0  0  0  0  3  0  0  0  0  0  0
  183.1500  177.9870  141.4390 C   0  0  0  0  0  3  0  0  0  0  0  0
  187.4410  178.3170  141.0190 C   0  0  0  0  0  0  0  0  0  0  0  0
  189.3360  178.2780  142.5440 N   0  0  0  0  0  0  0  0  0  0  0  0
  188.7060  178.0140  141.3020 C   0  0  0  0  0  0  0  0  0  0  0  0
  183.1390  177.7870  139.9690 C   0  0  0  0  0  0  0  0  0  0  0  0
  186.5690  178.9480  141.9450 N   0  0  0  0  0  2  0  0  0  0  0  0
  185.4180  178.5150  139.9670 N   0  0  0  0  0  0  0  0  0  0  0  0
  184.2670  178.0190  139.2590 C   0  0  0  0  0  0  0  0  0  0  0  0
  190.5350  177.8230  142.3680 C   0  0  0  0  0  0  0  0  0  0  0  0
  186.7700  178.0300  139.7300 C   0  0  0  0  0  2  0  0  0  0  0  0
  190.7790  177.2770  141.0700 N   0  0  0  0  0  0  0  0  0  0  0  0
  184.3750  177.7670  137.7990 C   0  0  0  0  0  0  0  0  0  0  0  0
  183.6120  178.3460  136.9780 O   0  0  0  0  0  0  0  0  0  0  0  0
  185.3290  176.8580  137.3390 O   0  0  0  0  0  0  0  0  0  0  0  0
  186.0210  177.0400  136.1130 C   0  0  0  0  0  2  0  0  0  0  0  0
  187.4660  176.6060  136.2760 C   0  0  0  0  0  2  0  0  0  0  0  0
  188.3520  177.6070  135.7080 N   0  0  0  0  0  0  0  0  0  0  0  0
  188.8750  178.3930  136.8340 C   0  0  0  0  0  2  0  0  0  0  0  0
  189.6920  177.3400  136.2470 C   0  0  0  0  0  2  0  0  0  0  0  0
  181.9490  177.3040  139.3400 N   0  0  0  0  0  2  0  0  0  0  0  0
  181.4600  176.0140  139.5890 N   0  0  0  0  0  2  0  0  0  0  0  0
  180.9820  175.5430  138.4130 O   0  0  0  0  0  0  0  0  0  0  0  0
  182.0630  175.0050  137.8000 N   0  0  0  0  0  2  0  0  0  0  0  0
  180.8100  176.5660  135.7590 C   0  0  0  0  0  1  0  0  0  0  0  0
  183.1060  175.2360  135.3780 O   0  0  0  0  0  0  0  0  0  0  0  0
  181.0600  173.9010  135.6150 O   0  0  0  0  0  0  0  0  0  0  0  0
  181.7910  175.1230  136.0950 S   0  0  0  0  0  0  0  0  0  0  0  0
  191.5890  177.9270  143.4120 C   0  0  0  0  0  2  0  0  0  0  0  0
  190.9700  178.1270  144.7110 N   0  0  0  0  0  2  0  0  0  0  0  0
  191.5390  176.5360  147.4650 C   0  0  0  0  0  2  0  0  0  0  0  0
  189.6380  176.8670  146.3540 C   0  0  2  0  0  3  0  0  0  0  0  0
  190.2840  177.1600  147.5600 O   0  0  0  0  0  0  0  0  0  0  0  0
  191.8900  176.3260  146.0020 C   0  0  0  0  0  2  0  0  0  0  0  0
  190.6850  176.8060  145.2510 C   0  0  2  0  0  3  0  0  0  0  0  0
  188.4310  177.7910  146.1220 C   0  0  1  0  0  3  0  0  0  0  0  0
  187.5950  177.2890  145.1220 O   0  0  0  0  0  1  0  0  0  0  0  0
  187.6330  178.0350  147.3950 C   0  0  0  0  0  2  0  0  0  0  0  0
  186.2110  178.4480  147.0600 C   0  0  0  0  0  1  0  0  0  0  0  0
  1  9  1  0  0  0  0
  1  3  1  1  0  0  0
  2 14  2  0  0  0  0
  2  7  1  0  0  0  0
  4  3  2  0  0  0  0
  5  7  2  0  0  0  0
  5  9  1  0  0  0  0
  7  6  1  0  0  0  0
  8  4  1  0  0  0  0
 10  1  1  0  0  0  0
 11 10  1  0  0  0  0
 11  8  2  0  0  0  0
 12  6  2  0  0  0  0
 12 31  1  0  0  0  0
 13 10  1  0  0  0  0
 13  5  1  0  0  0  0
 14 12  1  0  0  0  0
 15 11  1  0  0  0  0
 16 15  2  0  0  0  0
 17 15  1  0  0  0  0
 18 19  1  0  0  0  0
 18 17  1  0  0  0  0
 20 22  1  0  0  0  0
 20 19  1  0  0  0  0
 20 21  1  0  0  0  0
 22 21  1  0  0  0  0
 23 24  1  0  0  0  0
 23  8  1  0  0  0  0
 25 24  1  0  0  0  0
 26 25  1  0  0  0  0
 27 30  1  0  0  0  0
 28 30  2  0  0  0  0
 29 30  2  0  0  0  0
 30 26  1  0  0  0  0
 31 32  1  0  0  0  0
 33 35  1  0  0  0  0
 34 38  1  6  0  0  0
 34 35  1  0  0  0  0
 36 33  1  0  0  0  0
 37 32  1  1  0  0  0
 37 36  1  0  0  0  0
 37 34  1  0  0  0  0
 38 39  1  6  0  0  0
 38 40  1  0  0  0  0
 41 40  1  0  0  0  0
M  END
>  <MODEL>
6

>  <REMARK>
 VINA RESULT:      -6.3      4.976      9.017
  Name = 
  15 active torsions:
  status: ('A' for Active; 'I' for Inactive)
    1  A    between atoms: C_1  and  O_27
    2  A    between atoms: C_1  and  C_28
    3  A    between atoms: N_5  and  O_30
    4  A    between atoms: N_5  and  S_36
    5  A    between atoms: N_6  and  C_11
    6  A    between atoms: C_10  and  C_11
    7  A    between atoms: C_10  and  O_27
    8  A    between atoms: C_16  and  C_38
    9  A    between atoms: C_21  and  N_23
   10  A    between atoms: N_22  and  N_23
   11  A    between atoms: N_22  and  O_30
   12  A    between atoms: C_31  and  C_38
   13  A    between atoms: N_32  and  C_35
   14  A    between atoms: N_32  and  C_37
   15  A    between atoms: C_33  and  C_35
                            x       y       z     vdW  Elec       q    Type
                         _______ _______ _______ _____ _____    ______ ____

>  <TORSDO>
F 15

$$$$
=
 OpenBabel10232408333D

 41 45  0  0  1  0  0  0  0  0999 V2000
  188.3990  178.4150  140.0580 C   0  0  1  0  0  3  0  0  0  0  0  0
  188.0580  175.3370  136.3970 C   0  0  0  0  0  3  0  0  0  0  0  0
  188.3330  178.1580  141.5330 C   0  0  0  0  0  3  0  0  0  0  0  0
  187.2090  178.3980  142.2130 C   0  0  0  0  0  3  0  0  0  0  0  0
  188.3710  176.8580  138.3430 C   0  0  0  0  0  0  0  0  0  0  0  0
  190.0970  175.3470  137.5290 N   0  0  0  0  0  0  0  0  0  0  0  0
  188.8020  175.9240  137.4980 C   0  0  0  0  0  0  0  0  0  0  0  0
  185.9640  178.8320  141.5360 C   0  0  0  0  0  0  0  0  0  0  0  0
  189.1760  177.3880  139.3870 N   0  0  0  0  0  2  0  0  0  0  0  0
  187.0610  178.3640  139.4620 N   0  0  0  0  0  0  0  0  0  0  0  0
  185.8900  178.7830  140.1860 C   0  0  0  0  0  0  0  0  0  0  0  0
  190.0680  174.5070  136.5460 C   0  0  0  0  0  0  0  0  0  0  0  0
  187.0160  177.4550  138.3270 C   0  0  0  0  0  2  0  0  0  0  0  0
  188.8360  174.4810  135.8220 N   0  0  0  0  0  0  0  0  0  0  0  0
  184.6580  179.1180  139.4260 C   0  0  0  0  0  0  0  0  0  0  0  0
  184.4820  180.2700  138.9420 O   0  0  0  0  0  0  0  0  0  0  0  0
  183.6770  178.1390  139.2650 O   0  0  0  0  0  0  0  0  0  0  0  0
  183.0770  177.8650  138.0080 C   0  0  0  0  0  2  0  0  0  0  0  0
  182.5850  176.4300  137.9820 C   0  0  0  0  0  2  0  0  0  0  0  0
  181.5850  176.2670  136.9410 N   0  0  0  0  0  0  0  0  0  0  0  0
  181.8450  174.9670  136.3080 C   0  0  0  0  0  2  0  0  0  0  0  0
  180.7880  175.0860  137.3020 C   0  0  0  0  0  2  0  0  0  0  0  0
  184.8470  179.2480  142.3280 N   0  0  0  0  0  2  0  0  0  0  0  0
  184.2990  178.4150  143.3140 N   0  0  0  0  0  2  0  0  0  0  0  0
  183.9580  179.2130  144.3530 O   0  0  0  0  0  0  0  0  0  0  0  0
  185.1390  179.6850  144.8200 N   0  0  0  0  0  2  0  0  0  0  0  0
  186.7320  177.6030  145.9610 C   0  0  0  0  0  1  0  0  0  0  0  0
  185.9890  179.7880  147.3250 O   0  0  0  0  0  0  0  0  0  0  0  0
  184.2390  178.1540  146.7800 O   0  0  0  0  0  0  0  0  0  0  0  0
  185.4860  178.8290  146.2830 S   0  0  0  0  0  0  0  0  0  0  0  0
  191.2480  173.6880  136.1620 C   0  0  0  0  0  2  0  0  0  0  0  0
  192.3570  173.9850  137.0520 N   0  0  0  0  0  2  0  0  0  0  0  0
  194.3650  176.1840  135.7970 C   0  0  0  0  0  2  0  0  0  0  0  0
  194.7850  174.3910  137.0490 C   0  0  2  0  0  3  0  0  0  0  0  0
  194.8610  175.7890  137.0510 O   0  0  0  0  0  0  0  0  0  0  0  0
  193.4740  175.0880  135.2370 C   0  0  0  0  0  2  0  0  0  0  0  0
  193.5650  173.9770  136.2400 C   0  0  2  0  0  3  0  0  0  0  0  0
  194.9080  173.8190  138.4710 C   0  0  1  0  0  3  0  0  0  0  0  0
  195.3670  172.5000  138.4480 O   0  0  0  0  0  1  0  0  0  0  0  0
  195.8040  174.6660  139.3630 C   0  0  0  0  0  2  0  0  0  0  0  0
  197.2660  174.3740  139.0800 C   0  0  0  0  0  1  0  0  0  0  0  0
  1  3  1  1  0  0  0
  2  7  1  0  0  0  0
  3  4  2  0  0  0  0
  5  9  1  0  0  0  0
  7  6  1  0  0  0  0
  7  5  2  0  0  0  0
  8  4  1  0  0  0  0
  8 23  1  0  0  0  0
  9  1  1  0  0  0  0
 10  1  1  0  0  0  0
 10 11  1  0  0  0  0
 11  8  2  0  0  0  0
 12  6  2  0  0  0  0
 13  5  1  0  0  0  0
 13 10  1  0  0  0  0
 14  2  2  0  0  0  0
 14 12  1  0  0  0  0
 15 11  1  0  0  0  0
 16 15  2  0  0  0  0
 17 15  1  0  0  0  0
 18 17  1  0  0  0  0
 19 18  1  0  0  0  0
 20 22  1  0  0  0  0
 20 19  1  0  0  0  0
 21 20  1  0  0  0  0
 21 22  1  0  0  0  0
 23 24  1  0  0  0  0
 24 25  1  0  0  0  0
 25 26  1  0  0  0  0
 26 30  1  0  0  0  0
 27 30  1  0  0  0  0
 30 29  2  0  0  0  0
 30 28  2  0  0  0  0
 31 12  1  0  0  0  0
 31 32  1  0  0  0  0
 33 35  1  0  0  0  0
 34 35  1  0  0  0  0
 34 38  1  1  0  0  0
 36 33  1  0  0  0  0
 36 37  1  0  0  0  0
 37 34  1  0  0  0  0
 37 32  1  1  0  0  0
 38 39  1  6  0  0  0
 38 40  1  0  0  0  0
 41 40  1  0  0  0  0
M  END
>  <MODEL>
7

>  <REMARK>
 VINA RESULT:      -6.2      2.733      3.571
  Name = 
  15 active torsions:
  status: ('A' for Active; 'I' for Inactive)
    1  A    between atoms: C_1  and  O_27
    2  A    between atoms: C_1  and  C_28
    3  A    between atoms: N_5  and  O_30
    4  A    between atoms: N_5  and  S_36
    5  A    between atoms: N_6  and  C_11
    6  A    between atoms: C_10  and  C_11
    7  A    between atoms: C_10  and  O_27
    8  A    between atoms: C_16  and  C_38
    9  A    between atoms: C_21  and  N_23
   10  A    between atoms: N_22  and  N_23
   11  A    between atoms: N_22  and  O_30
   12  A    between atoms: C_31  and  C_38
   13  A    between atoms: N_32  and  C_35
   14  A    between atoms: N_32  and  C_37
   15  A    between atoms: C_33  and  C_35
                            x       y       z     vdW  Elec       q    Type
                         _______ _______ _______ _____ _____    ______ ____

>  <TORSDO>
F 15

$$$$
=
 OpenBabel10232408333D

 41 45  0  0  1  0  0  0  0  0999 V2000
  188.7470  178.4300  141.2460 C   0  0  1  0  0  3  0  0  0  0  0  0
  189.9090  176.4090  137.0550 C   0  0  0  0  0  3  0  0  0  0  0  0
  188.4010  177.7860  142.5550 C   0  0  0  0  0  3  0  0  0  0  0  0
  187.1260  177.6710  142.9360 C   0  0  0  0  0  3  0  0  0  0  0  0
  189.4410  177.3920  139.2940 C   0  0  0  0  0  0  0  0  0  0  0  0
  191.5840  176.4190  138.6770 N   0  0  0  0  0  0  0  0  0  0  0  0
  190.2400  176.7880  138.4180 C   0  0  0  0  0  0  0  0  0  0  0  0
  186.0060  178.0810  142.0540 C   0  0  0  0  0  0  0  0  0  0  0  0
  189.8550  177.7410  140.6080 N   0  0  0  0  0  2  0  0  0  0  0  0
  187.6240  178.3420  140.3100 N   0  0  0  0  0  0  0  0  0  0  0  0
  186.2570  178.3790  140.7580 C   0  0  0  0  0  0  0  0  0  0  0  0
  191.9590  175.8720  137.5660 C   0  0  0  0  0  0  0  0  0  0  0  0
  188.0310  177.7660  139.0370 C   0  0  0  0  0  2  0  0  0  0  0  0
  190.9590  175.8580  136.5440 N   0  0  0  0  0  0  0  0  0  0  0  0
  185.1900  178.7170  139.7810 C   0  0  0  0  0  0  0  0  0  0  0  0
  184.8560  179.9150  139.5670 O   0  0  0  0  0  0  0  0  0  0  0  0
  184.5380  177.6830  139.1070 O   0  0  0  0  0  0  0  0  0  0  0  0
  184.2260  177.7570  137.7240 C   0  0  0  0  0  2  0  0  0  0  0  0
  185.1620  176.8540  136.9430 C   0  0  0  0  0  2  0  0  0  0  0  0
  185.3580  177.3830  135.6040 N   0  0  0  0  0  0  0  0  0  0  0  0
  186.8070  177.3820  135.3610 C   0  0  0  0  0  2  0  0  0  0  0  0
  185.9830  176.3120  134.8150 C   0  0  0  0  0  2  0  0  0  0  0  0
  184.6770  178.1040  142.5810 N   0  0  0  0  0  2  0  0  0  0  0  0
  184.2070  179.1880  143.3360 N   0  0  0  0  0  2  0  0  0  0  0  0
  184.2500  178.8080  144.6340 O   0  0  0  0  0  0  0  0  0  0  0  0
  185.2430  179.5540  145.1730 N   0  0  0  0  0  2  0  0  0  0  0  0
  187.0450  177.7660  146.4870 C   0  0  0  0  0  1  0  0  0  0  0  0
  185.9890  179.9170  147.6880 O   0  0  0  0  0  0  0  0  0  0  0  0
  184.4780  178.0440  147.2050 O   0  0  0  0  0  0  0  0  0  0  0  0
  185.6450  178.8410  146.6970 S   0  0  0  0  0  0  0  0  0  0  0  0
  193.3410  175.3660  137.3520 C   0  0  0  0  0  2  0  0  0  0  0  0
  194.1960  176.4550  136.9150 N   0  0  0  0  0  2  0  0  0  0  0  0
  196.7200  177.3260  135.0950 C   0  0  0  0  0  2  0  0  0  0  0  0
  196.0930  175.3200  135.8310 C   0  0  2  0  0  3  0  0  0  0  0  0
  197.1160  176.2700  135.9330 O   0  0  0  0  0  0  0  0  0  0  0  0
  195.2130  177.2850  134.9060 C   0  0  0  0  0  2  0  0  0  0  0  0
  194.7730  176.0550  135.6410 C   0  0  2  0  0  3  0  0  0  0  0  0
  196.1630  174.2930  136.9730 C   0  0  1  0  0  3  0  0  0  0  0  0
  195.9250  172.9990  136.5040 O   0  0  0  0  0  1  0  0  0  0  0  0
  197.4890  174.3410  137.7180 C   0  0  0  0  0  2  0  0  0  0  0  0
  197.2640  174.6610  139.1840 C   0  0  0  0  0  1  0  0  0  0  0  0
  1  3  1  1  0  0  0
  2  7  1  0  0  0  0
  3  4  2  0  0  0  0
  5  9  1  0  0  0  0
  7  6  1  0  0  0  0
  7  5  2  0  0  0  0
  8 23  1  0  0  0  0
  8  4  1  0  0  0  0
  9  1  1  0  0  0  0
 10 11  1  0  0  0  0
 10  1  1  0  0  0  0
 11  8  2  0  0  0  0
 12  6  2  0  0  0  0
 13  5  1  0  0  0  0
 13 10  1  0  0  0  0
 14  2  2  0  0  0  0
 14 12  1  0  0  0  0
 15 11  1  0  0  0  0
 16 15  2  0  0  0  0
 17 15  1  0  0  0  0
 18 17  1  0  0  0  0
 19 18  1  0  0  0  0
 20 19  1  0  0  0  0
 21 20  1  0  0  0  0
 22 21  1  0  0  0  0
 22 20  1  0  0  0  0
 23 24  1  0  0  0  0
 24 25  1  0  0  0  0
 25 26  1  0  0  0  0
 26 30  1  0  0  0  0
 27 30  1  0  0  0  0
 30 29  2  0  0  0  0
 30 28  2  0  0  0  0
 31 12  1  0  0  0  0
 32 31  1  0  0  0  0
 33 35  1  0  0  0  0
 34 35  1  0  0  0  0
 34 38  1  1  0  0  0
 36 33  1  0  0  0  0
 36 37  1  0  0  0  0
 37 34  1  0  0  0  0
 37 32  1  1  0  0  0
 38 39  1  6  0  0  0
 38 40  1  0  0  0  0
 40 41  1  0  0  0  0
M  END
>  <MODEL>
8

>  <REMARK>
 VINA RESULT:      -6.2      2.204      3.474
  Name = 
  15 active torsions:
  status: ('A' for Active; 'I' for Inactive)
    1  A    between atoms: C_1  and  O_27
    2  A    between atoms: C_1  and  C_28
    3  A    between atoms: N_5  and  O_30
    4  A    between atoms: N_5  and  S_36
    5  A    between atoms: N_6  and  C_11
    6  A    between atoms: C_10  and  C_11
    7  A    between atoms: C_10  and  O_27
    8  A    between atoms: C_16  and  C_38
    9  A    between atoms: C_21  and  N_23
   10  A    between atoms: N_22  and  N_23
   11  A    between atoms: N_22  and  O_30
   12  A    between atoms: C_31  and  C_38
   13  A    between atoms: N_32  and  C_35
   14  A    between atoms: N_32  and  C_37
   15  A    between atoms: C_33  and  C_35
                            x       y       z     vdW  Elec       q    Type
                         _______ _______ _______ _____ _____    ______ ____

>  <TORSDO>
F 15

$$$$
=
 OpenBabel10232408333D

 41 45  0  0  1  0  0  0  0  0999 V2000
  188.3420  176.3070  138.0900 C   0  0  1  0  0  3  0  0  0  0  0  0
  193.1250  176.6580  138.1220 C   0  0  0  0  0  3  0  0  0  0  0  0
  187.3210  177.2080  137.4640 C   0  0  0  0  0  3  0  0  0  0  0  0
  186.6560  178.0960  138.2080 C   0  0  0  0  0  3  0  0  0  0  0  0
  190.6490  176.4580  137.9430 C   0  0  0  0  0  0  0  0  0  0  0  0
  192.1750  175.9040  136.1300 N   0  0  0  0  0  0  0  0  0  0  0  0
  191.8780  176.3540  137.4420 C   0  0  2  0  0  3  0  0  0  0  0  0
  186.9590  178.2950  139.6460 C   0  0  0  0  0  0  0  0  0  0  0  0
  189.4810  176.1230  137.2080 N   0  0  0  0  0  0  0  0  0  0  0  0
  188.8750  176.8990  139.3190 N   0  0  0  0  0  0  0  0  0  0  0  0
  188.0680  177.7280  140.1750 C   0  0  0  0  0  0  0  0  0  0  0  0
  193.4660  175.9670  136.0830 C   0  0  0  0  0  0  0  0  0  0  0  0
  190.3290  176.9430  139.3060 C   0  0  0  0  0  2  0  0  0  0  0  0
  194.0840  176.4160  137.2920 N   0  0  0  0  0  0  0  0  0  0  0  0
  188.4970  177.9390  141.5820 C   0  0  0  0  0  0  0  0  0  0  0  0
  189.1820  178.9460  141.9110 O   0  0  0  0  0  0  0  0  0  0  0  0
  188.1460  176.9920  142.5450 O   0  0  0  0  0  0  0  0  0  0  0  0
  187.1050  177.2160  143.4840 C   0  0  0  0  0  2  0  0  0  0  0  0
  187.6980  177.7010  144.7940 C   0  0  0  0  0  2  0  0  0  0  0  0
  188.9330  176.9880  145.0740 N   0  0  0  0  0  0  0  0  0  0  0  0
  189.8950  177.9880  145.5550 C   0  0  0  0  0  2  0  0  0  0  0  0
  189.1940  177.1430  146.5110 C   0  0  0  0  0  2  0  0  0  0  0  0
  186.0990  179.1240  140.4320 N   0  0  0  0  0  2  0  0  0  0  0  0
  184.8520  179.5480  139.9520 N   0  0  0  0  0  2  0  0  0  0  0  0
  183.9340  179.1920  140.8820 O   0  0  0  0  0  0  0  0  0  0  0  0
  183.1050  178.3410  140.2320 N   0  0  0  0  0  2  0  0  0  0  0  0
  181.6650  178.9440  142.6260 C   0  0  0  0  0  1  0  0  0  0  0  0
  180.8330  179.7000  140.1920 O   0  0  0  0  0  0  0  0  0  0  0  0
  180.7220  177.3060  140.7250 O   0  0  0  0  0  0  0  0  0  0  0  0
  181.5240  178.5650  140.8950 S   0  0  0  0  0  0  0  0  0  0  0  0
  194.2430  175.5390  134.8890 C   0  0  0  0  0  2  0  0  0  0  0  0
  195.4700  174.8870  135.3150 N   0  0  0  0  0  2  0  0  0  0  0  0
  196.6790  171.8970  135.1280 C   0  0  0  0  0  2  0  0  0  0  0  0
  196.0340  173.0870  136.8960 C   0  0  2  0  0  3  0  0  0  0  0  0
  197.1580  172.5010  136.3030 O   0  0  0  0  0  0  0  0  0  0  0  0
  195.3830  172.5680  134.7060 C   0  0  0  0  0  2  0  0  0  0  0  0
  195.1010  173.5630  135.7910 C   0  0  2  0  0  3  0  0  0  0  0  0
  196.4340  174.1170  137.9650 C   0  0  1  0  0  3  0  0  0  0  0  0
  196.0350  173.7060  139.2390 O   0  0  0  0  0  1  0  0  0  0  0  0
  197.9280  174.4120  137.9580 C   0  0  0  0  0  2  0  0  0  0  0  0
  198.3560  175.0190  139.2810 C   0  0  0  0  0  1  0  0  0  0  0  0
  1  3  1  6  0  0  0
  1 10  1  0  0  0  0
  3  4  2  0  0  0  0
  4  8  1  0  0  0  0
  5 13  1  0  0  0  0
  6  7  1  0  0  0  0
  7  5  1  1  0  0  0
  7  2  1  0  0  0  0
  8 11  2  0  0  0  0
  8 23  1  0  0  0  0
  9  5  2  0  0  0  0
  9  1  1  0  0  0  0
 10 11  1  0  0  0  0
 11 15  1  0  0  0  0
 12  6  2  0  0  0  0
 12 14  1  0  0  0  0
 13 10  1  0  0  0  0
 14  2  2  0  0  0  0
 15 16  2  0  0  0  0
 15 17  1  0  0  0  0
 17 18  1  0  0  0  0
 18 19  1  0  0  0  0
 19 20  1  0  0  0  0
 20 21  1  0  0  0  0
 20 22  1  0  0  0  0
 21 22  1  0  0  0  0
 24 23  1  0  0  0  0
 24 25  1  0  0  0  0
 26 25  1  0  0  0  0
 26 30  1  0  0  0  0
 28 30  2  0  0  0  0
 29 30  2  0  0  0  0
 30 27  1  0  0  0  0
 31 32  1  0  0  0  0
 31 12  1  0  0  0  0
 33 35  1  0  0  0  0
 34 38  1  6  0  0  0
 35 34  1  0  0  0  0
 36 33  1  0  0  0  0
 36 37  1  0  0  0  0
 37 32  1  6  0  0  0
 37 34  1  0  0  0  0
 38 39  1  1  0  0  0
 40 38  1  0  0  0  0
 40 41  1  0  0  0  0
M  END
>  <MODEL>
9

>  <REMARK>
 VINA RESULT:      -6.1      2.745      5.022
  Name = 
  15 active torsions:
  status: ('A' for Active; 'I' for Inactive)
    1  A    between atoms: C_1  and  O_27
    2  A    between atoms: C_1  and  C_28
    3  A    between atoms: N_5  and  O_30
    4  A    between atoms: N_5  and  S_36
    5  A    between atoms: N_6  and  C_11
    6  A    between atoms: C_10  and  C_11
    7  A    between atoms: C_10  and  O_27
    8  A    between atoms: C_16  and  C_38
    9  A    between atoms: C_21  and  N_23
   10  A    between atoms: N_22  and  N_23
   11  A    between atoms: N_22  and  O_30
   12  A    between atoms: C_31  and  C_38
   13  A    between atoms: N_32  and  C_35
   14  A    between atoms: N_32  and  C_37
   15  A    between atoms: C_33  and  C_35
                            x       y       z     vdW  Elec       q    Type
                         _______ _______ _______ _____ _____    ______ ____

>  <TORSDO>
F 15

$$$$
