=
 OpenBabel10232412393D

 37 40  0  0  1  0  0  0  0  0999 V2000
  186.2120  178.3600  147.3900 C   0  0  0  0  0  3  0  0  0  0  0  0
  189.8100  177.4030  147.7120 N   0  0  0  0  0  0  0  0  0  0  0  0
  187.8660  177.7600  145.6470 C   0  0  0  0  0  0  0  0  0  0  0  0
  188.2440  178.0600  149.3010 O   0  0  0  0  0  0  0  0  0  0  0  0
  184.9150  178.4040  143.8560 C   0  0  0  0  0  0  0  0  0  0  0  0
  186.9680  177.6860  143.2320 C   0  0  0  0  0  0  0  0  0  0  0  0
  185.5670  178.2230  144.9950 C   0  0  2  0  0  3  0  0  0  0  0  0
  190.2020  177.2670  146.4750 C   0  0  0  0  0  0  0  0  0  0  0  0
  185.0980  178.5410  146.3830 C   0  0  0  0  0  3  0  0  0  0  0  0
  188.5040  177.8490  148.0870 C   0  0  0  0  0  0  0  0  0  0  0  0
  187.4720  178.0190  147.0560 C   0  0  0  0  0  0  0  0  0  0  0  0
  189.3250  177.6520  145.3100 C   0  0  0  0  0  2  0  0  0  0  0  0
  185.7940  178.0520  142.7280 C   0  0  0  0  0  3  0  0  0  0  0  0
  186.9170  177.7920  144.6990 C   0  0  0  0  0  0  0  0  0  0  0  0
  191.4870  176.7980  146.1930 O   0  0  0  0  0  0  0  0  0  0  0  0
  192.1160  175.7890  146.9700 C   0  0  0  0  0  1  0  0  0  0  0  0
  183.5360  178.8970  143.7500 C   0  0  0  0  0  3  0  0  0  0  0  0
  182.8400  178.7900  142.6200 C   0  0  0  0  0  3  0  0  0  0  0  0
  181.5270  179.2530  142.4970 O   0  0  0  0  0  0  0  0  0  0  0  0
  180.5160  178.9650  143.4540 C   0  0  0  0  0  1  0  0  0  0  0  0
  188.0060  177.1320  142.4200 N   0  0  0  0  0  2  0  0  0  0  0  0
  188.4010  177.6860  141.1350 C   0  0  0  0  0  2  0  0  0  0  0  0
  189.9000  177.5280  140.9390 C   0  0  1  0  0  3  0  0  0  0  0  0
  190.4410  176.5020  141.9170 C   0  0  0  0  0  1  0  0  0  0  0  0
  190.2250  177.1360  139.5300 C   0  0  0  0  0  0  0  0  0  0  0  0
  189.6250  177.8870  138.3800 C   0  0  0  0  0  1  0  0  0  0  0  0
  191.0440  176.1500  139.3310 N   0  0  0  0  0  0  0  0  0  0  0  0
  192.6440  176.1340  137.4600 C   0  0  0  0  0  0  0  0  0  0  0  0
  193.4370  176.8770  138.0950 O   0  0  0  0  0  0  0  0  0  0  0  0
  191.4040  175.7340  138.0420 N   0  0  0  0  0  2  0  0  0  0  0  0
  192.9850  175.6970  136.0760 C   0  0  0  0  0  2  0  0  0  0  0  0
  196.6920  174.9110  136.0660 C   0  0  0  0  0  3  0  0  0  0  0  0
  194.9640  176.9040  135.1320 C   0  0  0  0  0  3  0  0  0  0  0  0
  196.3400  177.0030  134.8960 C   0  0  0  0  0  3  0  0  0  0  0  0
  194.4520  175.8100  135.8390 C   0  0  0  0  0  0  0  0  0  0  0  0
  195.3170  174.8120  136.3030 C   0  0  0  0  0  3  0  0  0  0  0  0
  197.2030  176.0070  135.3650 C   0  0  0  0  0  3  0  0  0  0  0  0
  2 10  1  0  0  0  0
  3 11  2  0  0  0  0
  5  7  1  0  0  0  0
  6 14  2  0  0  0  0
  7  9  1  6  0  0  0
  8  2  2  0  0  0  0
  9  1  2  0  0  0  0
 10  4  2  0  0  0  0
 11  1  1  0  0  0  0
 11 10  1  0  0  0  0
 12  3  1  0  0  0  0
 12  8  1  0  0  0  0
 13  6  1  0  0  0  0
 13  5  2  0  0  0  0
 14  7  1  0  0  0  0
 14  3  1  0  0  0  0
 15  8  1  0  0  0  0
 15 16  1  0  0  0  0
 17  5  1  0  0  0  0
 18 17  2  0  0  0  0
 19 18  1  0  0  0  0
 19 20  1  0  0  0  0
 21  6  1  0  0  0  0
 22 21  1  0  0  0  0
 23 22  1  0  0  0  0
 23 24  1  1  0  0  0
 25 23  1  0  0  0  0
 26 25  1  0  0  0  0
 27 25  2  0  0  0  0
 28 30  1  0  0  0  0
 28 29  2  0  0  0  0
 30 27  1  0  0  0  0
 31 28  1  0  0  0  0
 32 36  1  0  0  0  0
 33 35  1  0  0  0  0
 34 33  2  0  0  0  0
 34 37  1  0  0  0  0
 35 31  1  0  0  0  0
 35 36  2  0  0  0  0
 37 32  2  0  0  0  0
M  END
>  <MODEL>
1

>  <REMARK>
 VINA RESULT:     -10.0      0.000      0.000
  Name = 
  10 active torsions:
  status: ('A' for Active; 'I' for Inactive)
    1  A    between atoms: C_1  and  C_32
    2  A    between atoms: O_4  and  C_21
    3  A    between atoms: O_5  and  C_29
    4  A    between atoms: C_7  and  C_24
    5  A    between atoms: C_7  and  C_25
    6  A    between atoms: N_10  and  C_17
    7  A    between atoms: N_10  and  C_25
    8  A    between atoms: N_12  and  N_33
    9  A    between atoms: C_14  and  C_27
   10  A    between atoms: C_22  and  C_32
                            x       y       z     vdW  Elec       q    Type
                         _______ _______ _______ _____ _____    ______ ____

>  <TORSDO>
F 10

$$$$
=
 OpenBabel10232412393D

 37 40  0  0  1  0  0  0  0  0999 V2000
  186.3700  178.4140  147.2900 C   0  0  0  0  0  3  0  0  0  0  0  0
  189.8920  177.2620  147.7810 N   0  0  0  0  0  0  0  0  0  0  0  0
  188.0450  177.6490  145.6330 C   0  0  0  0  0  0  0  0  0  0  0  0
  188.3140  178.0730  149.2850 O   0  0  0  0  0  0  0  0  0  0  0  0
  185.2010  178.3930  143.7110 C   0  0  0  0  0  0  0  0  0  0  0  0
  187.2290  177.5300  143.1910 C   0  0  0  0  0  0  0  0  0  0  0  0
  185.8020  178.2190  144.8800 C   0  0  2  0  0  3  0  0  0  0  0  0
  190.3170  177.0540  146.5650 C   0  0  0  0  0  0  0  0  0  0  0  0
  185.3060  178.6190  146.2360 C   0  0  0  0  0  3  0  0  0  0  0  0
  188.6020  177.7980  148.0900 C   0  0  0  0  0  0  0  0  0  0  0  0
  187.6190  177.9870  147.0150 C   0  0  0  0  0  0  0  0  0  0  0  0
  189.5060  177.4420  145.3550 C   0  0  0  0  0  2  0  0  0  0  0  0
  186.0960  177.9440  142.6310 C   0  0  0  0  0  3  0  0  0  0  0  0
  187.1340  177.6980  144.6500 C   0  0  0  0  0  0  0  0  0  0  0  0
  191.5810  176.5000  146.3480 O   0  0  0  0  0  0  0  0  0  0  0  0
  192.2630  175.7510  147.3440 C   0  0  0  0  0  1  0  0  0  0  0  0
  183.8590  178.9610  143.5360 C   0  0  0  0  0  3  0  0  0  0  0  0
  183.1070  178.6630  142.4780 C   0  0  0  0  0  3  0  0  0  0  0  0
  181.8280  179.1930  142.2910 O   0  0  0  0  0  0  0  0  0  0  0  0
  180.8410  178.5590  141.4880 C   0  0  0  0  0  1  0  0  0  0  0  0
  188.2590  176.8840  142.4390 N   0  0  0  0  0  2  0  0  0  0  0  0
  189.1440  177.5860  141.5250 C   0  0  0  0  0  2  0  0  0  0  0  0
  188.7970  177.2300  140.0880 C   0  0  1  0  0  3  0  0  0  0  0  0
  187.9720  178.3420  139.4680 C   0  0  0  0  0  1  0  0  0  0  0  0
  190.0320  176.9740  139.2790 C   0  0  0  0  0  0  0  0  0  0  0  0
  191.3860  177.2440  139.8620 C   0  0  0  0  0  1  0  0  0  0  0  0
  189.9020  176.5030  138.0780 N   0  0  0  0  0  0  0  0  0  0  0  0
  191.4140  174.8850  137.0000 C   0  0  0  0  0  0  0  0  0  0  0  0
  190.7810  173.9180  137.5000 O   0  0  0  0  0  0  0  0  0  0  0  0
  191.0110  176.2280  137.2660 N   0  0  0  0  0  2  0  0  0  0  0  0
  192.6150  174.6270  136.1550 C   0  0  0  0  0  2  0  0  0  0  0  0
  195.2230  172.2490  137.5350 C   0  0  0  0  0  3  0  0  0  0  0  0
  194.3380  174.8700  137.9550 C   0  0  0  0  0  3  0  0  0  0  0  0
  195.3900  174.3560  138.7200 C   0  0  0  0  0  3  0  0  0  0  0  0
  193.7250  174.0730  136.9810 C   0  0  0  0  0  0  0  0  0  0  0  0
  194.1710  172.7630  136.7700 C   0  0  0  0  0  3  0  0  0  0  0  0
  195.8310  173.0450  138.5110 C   0  0  0  0  0  3  0  0  0  0  0  0
  2 10  1  0  0  0  0
  3 11  2  0  0  0  0
  5  7  1  0  0  0  0
  6 14  2  0  0  0  0
  7  9  1  6  0  0  0
  8  2  2  0  0  0  0
  9  1  2  0  0  0  0
 10  4  2  0  0  0  0
 11  1  1  0  0  0  0
 11 10  1  0  0  0  0
 12  3  1  0  0  0  0
 12  8  1  0  0  0  0
 13  6  1  0  0  0  0
 13  5  2  0  0  0  0
 14  7  1  0  0  0  0
 14  3  1  0  0  0  0
 15  8  1  0  0  0  0
 15 16  1  0  0  0  0
 17  5  1  0  0  0  0
 18 17  2  0  0  0  0
 19 18  1  0  0  0  0
 20 19  1  0  0  0  0
 21  6  1  0  0  0  0
 22 21  1  0  0  0  0
 23 24  1  6  0  0  0
 23 22  1  0  0  0  0
 25 26  1  0  0  0  0
 25 23  1  0  0  0  0
 27 25  2  0  0  0  0
 28 30  1  0  0  0  0
 28 29  2  0  0  0  0
 30 27  1  0  0  0  0
 31 35  1  0  0  0  0
 31 28  1  0  0  0  0
 32 37  1  0  0  0  0
 33 34  1  0  0  0  0
 35 33  2  0  0  0  0
 36 35  1  0  0  0  0
 36 32  2  0  0  0  0
 37 34  2  0  0  0  0
M  END
>  <MODEL>
2

>  <REMARK>
 VINA RESULT:      -9.8      1.647      1.890
  Name = 
  10 active torsions:
  status: ('A' for Active; 'I' for Inactive)
    1  A    between atoms: C_1  and  C_32
    2  A    between atoms: O_4  and  C_21
    3  A    between atoms: O_5  and  C_29
    4  A    between atoms: C_7  and  C_24
    5  A    between atoms: C_7  and  C_25
    6  A    between atoms: N_10  and  C_17
    7  A    between atoms: N_10  and  C_25
    8  A    between atoms: N_12  and  N_33
    9  A    between atoms: C_14  and  C_27
   10  A    between atoms: C_22  and  C_32
                            x       y       z     vdW  Elec       q    Type
                         _______ _______ _______ _____ _____    ______ ____

>  <TORSDO>
F 10

$$$$
=
 OpenBabel10232412393D

 37 40  0  0  1  0  0  0  0  0999 V2000
  187.5600  178.1720  147.0580 C   0  0  0  0  0  3  0  0  0  0  0  0
  184.5900  178.4620  144.8070 N   0  0  0  0  0  0  0  0  0  0  0  0
  187.3480  177.7300  144.6300 C   0  0  0  0  0  0  0  0  0  0  0  0
  184.8200  178.7760  147.1000 O   0  0  0  0  0  0  0  0  0  0  0  0
  190.7160  177.0380  145.3460 C   0  0  0  0  0  0  0  0  0  0  0  0
  189.5220  177.0520  143.4230 C   0  0  0  0  0  0  0  0  0  0  0  0
  189.5260  177.5090  145.6930 C   0  0  0  0  0  0  0  0  0  0  0  0
  185.0360  178.0380  143.6570 C   0  0  0  0  0  0  0  0  0  0  0  0
  189.0350  177.8400  147.0700 C   0  0  0  0  0  2  0  0  0  0  0  0
  185.3640  178.4540  146.0100 C   0  0  0  0  0  0  0  0  0  0  0  0
  186.7900  178.1080  145.9530 C   0  0  0  0  0  0  0  0  0  0  0  0
  186.4020  177.4170  143.5070 C   0  0  0  0  0  2  0  0  0  0  0  0
  190.7270  176.7570  143.9010 C   0  0  0  0  0  3  0  0  0  0  0  0
  188.6700  177.5240  144.5260 C   0  0  0  0  0  0  0  0  0  0  0  0
  184.2260  178.1060  142.5210 O   0  0  0  0  0  0  0  0  0  0  0  0
  183.0630  178.9180  142.4650 C   0  0  0  0  0  1  0  0  0  0  0  0
  191.8320  176.8190  146.2740 C   0  0  0  0  0  3  0  0  0  0  0  0
  192.0320  175.6410  146.8600 C   0  0  0  0  0  3  0  0  0  0  0  0
  193.0870  175.4110  147.7480 O   0  0  0  0  0  0  0  0  0  0  0  0
  193.1090  175.9310  149.0710 C   0  0  0  0  0  1  0  0  0  0  0  0
  189.2350  177.0430  142.0230 N   0  0  0  0  0  2  0  0  0  0  0  0
  188.9820  178.2460  141.2480 C   0  0  0  0  0  2  0  0  0  0  0  0
  189.3700  178.0220  139.7950 C   0  0  1  0  0  3  0  0  0  0  0  0
  190.3700  176.8850  139.7000 C   0  0  0  0  0  1  0  0  0  0  0  0
  188.1660  177.7380  138.9500 C   0  0  0  0  0  0  0  0  0  0  0  0
  188.2200  176.6760  137.8930 C   0  0  0  0  0  1  0  0  0  0  0  0
  187.0810  178.4160  139.1630 N   0  0  0  0  0  0  0  0  0  0  0  0
  184.7270  178.9490  138.6760 C   0  0  0  0  0  0  0  0  0  0  0  0
  184.7080  179.8210  139.5840 O   0  0  0  0  0  0  0  0  0  0  0  0
  185.9130  178.1980  138.4200 N   0  0  0  0  0  2  0  0  0  0  0  0
  183.4930  178.6730  137.8870 C   0  0  0  0  0  2  0  0  0  0  0  0
  181.6860  176.0740  139.9700 C   0  0  0  0  0  3  0  0  0  0  0  0
  181.3280  178.7220  139.1420 C   0  0  0  0  0  3  0  0  0  0  0  0
  180.3690  178.1080  139.9540 C   0  0  0  0  0  3  0  0  0  0  0  0
  182.4650  178.0120  138.7390 C   0  0  0  0  0  0  0  0  0  0  0  0
  182.6440  176.6880  139.1580 C   0  0  0  0  0  3  0  0  0  0  0  0
  180.5480  176.7830  140.3670 C   0  0  0  0  0  3  0  0  0  0  0  0
  1  9  1  0  0  0  0
  2 10  1  0  0  0  0
  3 11  1  0  0  0  0
  5  7  2  0  0  0  0
  5 17  1  0  0  0  0
  6 13  2  0  0  0  0
  6 14  1  0  0  0  0
  7  9  1  0  0  0  0
  8  2  2  0  0  0  0
 10  4  2  0  0  0  0
 11 10  1  0  0  0  0
 11  1  2  0  0  0  0
 12  8  1  0  0  0  0
 12  3  1  0  0  0  0
 13  5  1  0  0  0  0
 14  3  2  0  0  0  0
 14  7  1  0  0  0  0
 15  8  1  0  0  0  0
 16 15  1  0  0  0  0
 17 18  2  0  0  0  0
 18 19  1  0  0  0  0
 19 20  1  0  0  0  0
 21  6  1  0  0  0  0
 22 21  1  0  0  0  0
 23 24  1  1  0  0  0
 23 22  1  0  0  0  0
 25 27  2  0  0  0  0
 25 23  1  0  0  0  0
 26 25  1  0  0  0  0
 28 29  2  0  0  0  0
 30 28  1  0  0  0  0
 30 27  1  0  0  0  0
 31 28  1  0  0  0  0
 31 35  1  0  0  0  0
 32 37  1  0  0  0  0
 33 34  1  0  0  0  0
 34 37  2  0  0  0  0
 35 33  2  0  0  0  0
 35 36  1  0  0  0  0
 36 32  2  0  0  0  0
M  END
>  <MODEL>
3

>  <REMARK>
 VINA RESULT:      -9.6      3.833      8.501
  Name = 
  10 active torsions:
  status: ('A' for Active; 'I' for Inactive)
    1  A    between atoms: C_1  and  C_32
    2  A    between atoms: O_4  and  C_21
    3  A    between atoms: O_5  and  C_29
    4  A    between atoms: C_7  and  C_24
    5  A    between atoms: C_7  and  C_25
    6  A    between atoms: N_10  and  C_17
    7  A    between atoms: N_10  and  C_25
    8  A    between atoms: N_12  and  N_33
    9  A    between atoms: C_14  and  C_27
   10  A    between atoms: C_22  and  C_32
                            x       y       z     vdW  Elec       q    Type
                         _______ _______ _______ _____ _____    ______ ____

>  <TORSDO>
F 10

$$$$
=
 OpenBabel10232412393D

 37 40  0  0  1  0  0  0  0  0999 V2000
  186.8430  178.0090  147.0570 C   0  0  0  0  0  3  0  0  0  0  0  0
  184.3640  178.8190  144.3790 N   0  0  0  0  0  0  0  0  0  0  0  0
  187.1110  178.0570  144.5950 C   0  0  0  0  0  0  0  0  0  0  0  0
  184.1410  178.6730  146.6900 O   0  0  0  0  0  0  0  0  0  0  0  0
  190.2820  177.1410  145.7940 C   0  0  0  0  0  0  0  0  0  0  0  0
  189.4850  177.5660  143.7190 C   0  0  0  0  0  0  0  0  0  0  0  0
  189.0430  177.5700  145.9920 C   0  0  0  0  0  0  0  0  0  0  0  0
  185.0290  178.6160  143.2760 C   0  0  0  0  0  0  0  0  0  0  0  0
  188.2910  177.6400  147.2870 C   0  0  0  0  0  2  0  0  0  0  0  0
  184.8890  178.5550  145.6830 C   0  0  0  0  0  0  0  0  0  0  0  0
  186.3020  178.1850  145.8350 C   0  0  0  0  0  0  0  0  0  0  0  0
  186.4040  177.9970  143.2720 C   0  0  0  0  0  2  0  0  0  0  0  0
  190.5770  177.1480  144.3520 C   0  0  0  0  0  3  0  0  0  0  0  0
  188.4290  177.8380  144.7080 C   0  0  0  0  0  0  0  0  0  0  0  0
  184.4540  178.9280  142.0420 O   0  0  0  0  0  0  0  0  0  0  0  0
  185.1900  178.8830  140.8280 C   0  0  0  0  0  1  0  0  0  0  0  0
  191.1990  176.7140  146.8580 C   0  0  0  0  0  3  0  0  0  0  0  0
  192.1220  175.7760  146.6500 C   0  0  0  0  0  3  0  0  0  0  0  0
  193.0040  175.3530  147.6480 O   0  0  0  0  0  0  0  0  0  0  0  0
  193.1210  176.0110  148.9020 C   0  0  0  0  0  1  0  0  0  0  0  0
  189.4750  177.8390  142.3160 N   0  0  0  0  0  2  0  0  0  0  0  0
  189.9380  176.8960  141.3120 C   0  0  0  0  0  2  0  0  0  0  0  0
  189.1930  177.1170  140.0060 C   0  0  1  0  0  3  0  0  0  0  0  0
  188.7950  178.5760  139.8820 C   0  0  0  0  0  1  0  0  0  0  0  0
  190.0200  176.6940  138.8310 C   0  0  0  0  0  0  0  0  0  0  0  0
  189.8320  177.3540  137.4990 C   0  0  0  0  0  1  0  0  0  0  0  0
  190.9070  175.7630  138.9960 N   0  0  0  0  0  0  0  0  0  0  0  0
  193.0790  175.7620  137.8360 C   0  0  0  0  0  0  0  0  0  0  0  0
  193.5620  176.5620  138.6800 O   0  0  0  0  0  0  0  0  0  0  0  0
  191.7260  175.3230  137.9460 N   0  0  0  0  0  2  0  0  0  0  0  0
  193.9150  175.2980  136.6920 C   0  0  0  0  0  2  0  0  0  0  0  0
  195.9060  172.3440  137.9840 C   0  0  0  0  0  3  0  0  0  0  0  0
  193.7180  172.8320  136.3100 C   0  0  0  0  0  3  0  0  0  0  0  0
  194.1480  171.5200  136.5340 C   0  0  0  0  0  3  0  0  0  0  0  0
  194.3840  173.9020  136.9190 C   0  0  0  0  0  0  0  0  0  0  0  0
  195.4770  173.6560  137.7590 C   0  0  0  0  0  3  0  0  0  0  0  0
  195.2440  171.2760  137.3700 C   0  0  0  0  0  3  0  0  0  0  0  0
  1  9  1  0  0  0  0
  2 10  1  0  0  0  0
  3 14  2  0  0  0  0
  3 11  1  0  0  0  0
  5  7  2  0  0  0  0
  5 17  1  0  0  0  0
  6 13  2  0  0  0  0
  6 14  1  0  0  0  0
  7  9  1  0  0  0  0
  8  2  2  0  0  0  0
 10 11  1  0  0  0  0
 10  4  2  0  0  0  0
 11  1  2  0  0  0  0
 12  8  1  0  0  0  0
 12  3  1  0  0  0  0
 13  5  1  0  0  0  0
 14  7  1  0  0  0  0
 15  8  1  0  0  0  0
 16 15  1  0  0  0  0
 18 17  2  0  0  0  0
 18 19  1  0  0  0  0
 19 20  1  0  0  0  0
 21  6  1  0  0  0  0
 22 21  1  0  0  0  0
 23 24  1  6  0  0  0
 23 22  1  0  0  0  0
 25 27  2  0  0  0  0
 25 23  1  0  0  0  0
 26 25  1  0  0  0  0
 28 30  1  0  0  0  0
 28 29  2  0  0  0  0
 30 27  1  0  0  0  0
 31 35  1  0  0  0  0
 31 28  1  0  0  0  0
 33 34  2  0  0  0  0
 33 35  1  0  0  0  0
 34 37  1  0  0  0  0
 35 36  2  0  0  0  0
 36 32  1  0  0  0  0
 37 32  2  0  0  0  0
M  END
>  <MODEL>
4

>  <REMARK>
 VINA RESULT:      -9.6      2.052      5.426
  Name = 
  10 active torsions:
  status: ('A' for Active; 'I' for Inactive)
    1  A    between atoms: C_1  and  C_32
    2  A    between atoms: O_4  and  C_21
    3  A    between atoms: O_5  and  C_29
    4  A    between atoms: C_7  and  C_24
    5  A    between atoms: C_7  and  C_25
    6  A    between atoms: N_10  and  C_17
    7  A    between atoms: N_10  and  C_25
    8  A    between atoms: N_12  and  N_33
    9  A    between atoms: C_14  and  C_27
   10  A    between atoms: C_22  and  C_32
                            x       y       z     vdW  Elec       q    Type
                         _______ _______ _______ _____ _____    ______ ____

>  <TORSDO>
F 10

$$$$
=
 OpenBabel10232412393D

 37 40  0  0  1  0  0  0  0  0999 V2000
  186.6430  178.1200  147.0840 C   0  0  0  0  0  3  0  0  0  0  0  0
  184.4710  178.8130  144.1220 N   0  0  0  0  0  0  0  0  0  0  0  0
  187.1500  177.9760  144.6650 C   0  0  0  0  0  0  0  0  0  0  0  0
  184.0190  178.8460  146.4030 O   0  0  0  0  0  0  0  0  0  0  0  0
  190.1500  177.0450  146.2360 C   0  0  0  0  0  0  0  0  0  0  0  0
  189.5760  177.3420  144.0670 C   0  0  0  0  0  0  0  0  0  0  0  0
  188.9160  177.5290  146.2780 C   0  0  0  0  0  0  0  0  0  0  0  0
  185.2310  178.5060  143.1080 C   0  0  0  0  0  0  0  0  0  0  0  0
  188.0450  177.7200  147.4830 C   0  0  0  0  0  2  0  0  0  0  0  0
  184.8560  178.6280  145.4870 C   0  0  0  0  0  0  0  0  0  0  0  0
  186.2310  178.2230  145.8050 C   0  0  0  0  0  0  0  0  0  0  0  0
  186.5740  177.8420  143.2840 C   0  0  0  0  0  2  0  0  0  0  0  0
  190.5830  176.9350  144.8330 C   0  0  0  0  0  3  0  0  0  0  0  0
  188.4410  177.7220  144.9240 C   0  0  0  0  0  0  0  0  0  0  0  0
  184.7930  178.7450  141.8040 O   0  0  0  0  0  0  0  0  0  0  0  0
  185.6860  178.8150  140.7020 C   0  0  0  0  0  1  0  0  0  0  0  0
  190.9410  176.6670  147.4130 C   0  0  0  0  0  3  0  0  0  0  0  0
  192.1160  176.0520  147.2970 C   0  0  0  0  0  3  0  0  0  0  0  0
  192.8850  175.6810  148.4040 O   0  0  0  0  0  0  0  0  0  0  0  0
  193.2840  176.6040  149.4090 C   0  0  0  0  0  1  0  0  0  0  0  0
  189.7130  177.5100  142.6540 N   0  0  0  0  0  2  0  0  0  0  0  0
  190.6030  176.7050  141.8330 C   0  0  0  0  0  2  0  0  0  0  0  0
  190.9490  177.4500  140.5550 C   0  0  1  0  0  3  0  0  0  0  0  0
  192.4300  177.3030  140.2600 C   0  0  0  0  0  1  0  0  0  0  0  0
  190.1300  176.9590  139.4010 C   0  0  0  0  0  0  0  0  0  0  0  0
  190.7750  176.1810  138.2940 C   0  0  0  0  0  1  0  0  0  0  0  0
  188.8570  177.2070  139.3900 N   0  0  0  0  0  0  0  0  0  0  0  0
  187.4260  177.6980  137.4480 C   0  0  0  0  0  0  0  0  0  0  0  0
  187.6280  178.9340  137.5760 O   0  0  0  0  0  0  0  0  0  0  0  0
  188.0250  176.7700  138.3510 N   0  0  0  0  0  2  0  0  0  0  0  0
  186.5230  177.2020  136.3700 C   0  0  0  0  0  2  0  0  0  0  0  0
  183.9940  174.5880  137.4380 C   0  0  0  0  0  3  0  0  0  0  0  0
  184.3550  177.3580  137.6120 C   0  0  0  0  0  3  0  0  0  0  0  0
  183.2210  176.7630  138.1760 C   0  0  0  0  0  3  0  0  0  0  0  0
  185.3080  176.5690  136.9570 C   0  0  0  0  0  0  0  0  0  0  0  0
  185.1270  175.1830  136.8740 C   0  0  0  0  0  3  0  0  0  0  0  0
  183.0400  175.3780  138.0870 C   0  0  0  0  0  3  0  0  0  0  0  0
  1  9  1  0  0  0  0
  2 10  1  0  0  0  0
  3 14  2  0  0  0  0
  3 11  1  0  0  0  0
  5  7  2  0  0  0  0
  5 17  1  0  0  0  0
  6 13  2  0  0  0  0
  6 14  1  0  0  0  0
  7  9  1  0  0  0  0
  8 12  1  0  0  0  0
  8  2  2  0  0  0  0
 10 11  1  0  0  0  0
 10  4  2  0  0  0  0
 11  1  2  0  0  0  0
 12  3  1  0  0  0  0
 13  5  1  0  0  0  0
 14  7  1  0  0  0  0
 15  8  1  0  0  0  0
 16 15  1  0  0  0  0
 18 17  2  0  0  0  0
 18 19  1  0  0  0  0
 19 20  1  0  0  0  0
 21  6  1  0  0  0  0
 22 21  1  0  0  0  0
 23 24  1  6  0  0  0
 23 22  1  0  0  0  0
 25 23  1  0  0  0  0
 26 25  1  0  0  0  0
 27 25  2  0  0  0  0
 28 29  2  0  0  0  0
 28 30  1  0  0  0  0
 30 27  1  0  0  0  0
 31 35  1  0  0  0  0
 31 28  1  0  0  0  0
 32 37  1  0  0  0  0
 33 34  1  0  0  0  0
 35 33  2  0  0  0  0
 36 35  1  0  0  0  0
 36 32  2  0  0  0  0
 37 34  2  0  0  0  0
M  END
>  <MODEL>
5

>  <REMARK>
 VINA RESULT:      -9.6      3.288      7.326
  Name = 
  10 active torsions:
  status: ('A' for Active; 'I' for Inactive)
    1  A    between atoms: C_1  and  C_32
    2  A    between atoms: O_4  and  C_21
    3  A    between atoms: O_5  and  C_29
    4  A    between atoms: C_7  and  C_24
    5  A    between atoms: C_7  and  C_25
    6  A    between atoms: N_10  and  C_17
    7  A    between atoms: N_10  and  C_25
    8  A    between atoms: N_12  and  N_33
    9  A    between atoms: C_14  and  C_27
   10  A    between atoms: C_22  and  C_32
                            x       y       z     vdW  Elec       q    Type
                         _______ _______ _______ _____ _____    ______ ____

>  <TORSDO>
F 10

$$$$
=
 OpenBabel10232412393D

 37 40  0  0  1  0  0  0  0  0999 V2000
  185.8690  178.1470  147.2070 C   0  0  0  0  0  3  0  0  0  0  0  0
  189.4760  177.3160  147.7290 N   0  0  0  0  0  0  0  0  0  0  0  0
  187.6660  177.7290  145.5550 C   0  0  0  0  0  0  0  0  0  0  0  0
  187.7750  177.8040  149.2380 O   0  0  0  0  0  0  0  0  0  0  0  0
  184.8210  178.3710  143.5970 C   0  0  0  0  0  0  0  0  0  0  0  0
  186.9430  177.7770  143.0810 C   0  0  0  0  0  0  0  0  0  0  0  0
  185.4000  178.1410  144.7680 C   0  0  2  0  0  3  0  0  0  0  0  0
  189.9580  177.2770  146.5170 C   0  0  0  0  0  0  0  0  0  0  0  0
  184.8220  178.3490  146.1350 C   0  0  0  0  0  3  0  0  0  0  0  0
  188.1280  177.6840  148.0350 C   0  0  0  0  0  0  0  0  0  0  0  0
  187.1640  177.8800  146.9440 C   0  0  0  0  0  0  0  0  0  0  0  0
  189.1490  177.7020  145.3180 C   0  0  0  0  0  2  0  0  0  0  0  0
  185.7920  178.1280  142.5170 C   0  0  0  0  0  3  0  0  0  0  0  0
  186.7860  177.7850  144.5440 C   0  0  0  0  0  0  0  0  0  0  0  0
  191.2790  176.8800  146.3000 O   0  0  0  0  0  0  0  0  0  0  0  0
  191.9830  176.0500  147.2130 C   0  0  0  0  0  1  0  0  0  0  0  0
  183.4330  178.8140  143.4230 C   0  0  0  0  0  3  0  0  0  0  0  0
  182.8250  178.7600  142.2400 C   0  0  0  0  0  3  0  0  0  0  0  0
  181.5050  179.1770  142.0510 O   0  0  0  0  0  0  0  0  0  0  0  0
  180.6870  179.6500  143.1140 C   0  0  0  0  0  1  0  0  0  0  0  0
  188.0590  177.3200  142.3130 N   0  0  0  0  0  2  0  0  0  0  0  0
  189.1100  178.1970  141.8240 C   0  0  0  0  0  2  0  0  0  0  0  0
  190.3030  177.3750  141.3640 C   0  0  1  0  0  3  0  0  0  0  0  0
  190.4740  176.1680  142.2690 C   0  0  0  0  0  1  0  0  0  0  0  0
  190.1500  176.9460  139.9370 C   0  0  0  0  0  0  0  0  0  0  0  0
  189.2760  177.7280  139.0030 C   0  0  0  0  0  1  0  0  0  0  0  0
  190.7990  175.9000  139.5280 N   0  0  0  0  0  0  0  0  0  0  0  0
  191.7070  175.7990  137.2410 C   0  0  0  0  0  0  0  0  0  0  0  0
  192.6760  176.5350  137.5640 O   0  0  0  0  0  0  0  0  0  0  0  0
  190.7150  175.4460  138.2040 N   0  0  0  0  0  2  0  0  0  0  0  0
  191.5730  175.3230  135.8350 C   0  0  0  0  0  2  0  0  0  0  0  0
  188.0600  174.8760  134.4860 C   0  0  0  0  0  3  0  0  0  0  0  0
  189.7970  176.9590  135.1720 C   0  0  0  0  0  3  0  0  0  0  0  0
  188.5160  177.2470  134.6900 C   0  0  0  0  0  3  0  0  0  0  0  0
  190.2130  175.6290  135.3070 C   0  0  0  0  0  0  0  0  0  0  0  0
  189.3410  174.5870  134.9670 C   0  0  0  0  0  3  0  0  0  0  0  0
  187.6480  176.2050  134.3460 C   0  0  0  0  0  3  0  0  0  0  0  0
  2 10  1  0  0  0  0
  3 11  2  0  0  0  0
  5  7  1  0  0  0  0
  6 14  2  0  0  0  0
  7  9  1  1  0  0  0
  8  2  2  0  0  0  0
  9  1  2  0  0  0  0
 10  4  2  0  0  0  0
 11  1  1  0  0  0  0
 11 10  1  0  0  0  0
 12  3  1  0  0  0  0
 12  8  1  0  0  0  0
 13  6  1  0  0  0  0
 13  5  2  0  0  0  0
 14  7  1  0  0  0  0
 14  3  1  0  0  0  0
 15  8  1  0  0  0  0
 15 16  1  0  0  0  0
 17  5  1  0  0  0  0
 18 17  2  0  0  0  0
 19 18  1  0  0  0  0
 19 20  1  0  0  0  0
 21  6  1  0  0  0  0
 22 21  1  0  0  0  0
 23 22  1  0  0  0  0
 23 24  1  1  0  0  0
 25 23  1  0  0  0  0
 26 25  1  0  0  0  0
 27 25  2  0  0  0  0
 28 29  2  0  0  0  0
 28 30  1  0  0  0  0
 30 27  1  0  0  0  0
 31 28  1  0  0  0  0
 32 36  1  0  0  0  0
 33 35  1  0  0  0  0
 34 33  2  0  0  0  0
 35 31  1  0  0  0  0
 36 35  2  0  0  0  0
 37 32  2  0  0  0  0
 37 34  1  0  0  0  0
M  END
>  <MODEL>
6

>  <REMARK>
 VINA RESULT:      -9.5      1.897      2.958
  Name = 
  10 active torsions:
  status: ('A' for Active; 'I' for Inactive)
    1  A    between atoms: C_1  and  C_32
    2  A    between atoms: O_4  and  C_21
    3  A    between atoms: O_5  and  C_29
    4  A    between atoms: C_7  and  C_24
    5  A    between atoms: C_7  and  C_25
    6  A    between atoms: N_10  and  C_17
    7  A    between atoms: N_10  and  C_25
    8  A    between atoms: N_12  and  N_33
    9  A    between atoms: C_14  and  C_27
   10  A    between atoms: C_22  and  C_32
                            x       y       z     vdW  Elec       q    Type
                         _______ _______ _______ _____ _____    ______ ____

>  <TORSDO>
F 10

$$$$
=
 OpenBabel10232412393D

 37 40  0  0  1  0  0  0  0  0999 V2000
  185.9710  178.2850  147.3340 C   0  0  0  0  0  3  0  0  0  0  0  0
  189.6070  177.4640  147.6130 N   0  0  0  0  0  0  0  0  0  0  0  0
  187.6630  177.9130  145.5650 C   0  0  0  0  0  0  0  0  0  0  0  0
  188.0010  177.9100  149.2350 O   0  0  0  0  0  0  0  0  0  0  0  0
  184.7000  178.5800  143.8020 C   0  0  0  0  0  0  0  0  0  0  0  0
  186.7880  178.0100  143.1420 C   0  0  0  0  0  0  0  0  0  0  0  0
  185.3510  178.3290  144.9300 C   0  0  2  0  0  3  0  0  0  0  0  0
  190.0130  177.4530  146.3730 C   0  0  0  0  0  0  0  0  0  0  0  0
  184.8580  178.5040  146.3340 C   0  0  0  0  0  3  0  0  0  0  0  0
  188.2790  177.8170  148.0100 C   0  0  0  0  0  0  0  0  0  0  0  0
  187.2480  178.0310  146.9860 C   0  0  0  0  0  0  0  0  0  0  0  0
  189.1290  177.8990  145.2360 C   0  0  0  0  0  2  0  0  0  0  0  0
  185.6020  178.3660  142.6590 C   0  0  0  0  0  3  0  0  0  0  0  0
  186.7210  177.9850  144.6120 C   0  0  0  0  0  0  0  0  0  0  0  0
  191.3200  177.0680  146.0660 O   0  0  0  0  0  0  0  0  0  0  0  0
  191.9640  175.9810  146.7150 C   0  0  0  0  0  1  0  0  0  0  0  0
  183.3010  179.0190  143.7250 C   0  0  0  0  0  3  0  0  0  0  0  0
  182.5540  178.7860  142.6470 C   0  0  0  0  0  3  0  0  0  0  0  0
  181.2220  179.1960  142.5510 O   0  0  0  0  0  0  0  0  0  0  0  0
  180.2070  178.3880  141.9690 C   0  0  0  0  0  1  0  0  0  0  0  0
  187.8550  177.5750  142.2970 N   0  0  0  0  0  2  0  0  0  0  0  0
  188.9410  178.4400  141.8660 C   0  0  0  0  0  2  0  0  0  0  0  0
  190.0720  177.6070  141.2850 C   0  0  1  0  0  3  0  0  0  0  0  0
  190.1450  176.2710  142.0000 C   0  0  0  0  0  1  0  0  0  0  0  0
  189.8980  177.4080  139.8110 C   0  0  0  0  0  0  0  0  0  0  0  0
  190.5560  176.2500  139.1230 C   0  0  0  0  0  1  0  0  0  0  0  0
  189.1580  178.2450  139.1520 N   0  0  0  0  0  0  0  0  0  0  0  0
  187.6500  178.3490  137.2080 C   0  0  0  0  0  0  0  0  0  0  0  0
  186.6790  178.6690  137.9430 O   0  0  0  0  0  0  0  0  0  0  0  0
  188.9390  178.1160  137.7740 N   0  0  0  0  0  2  0  0  0  0  0  0
  187.4450  178.1760  135.7420 C   0  0  0  0  0  2  0  0  0  0  0  0
  188.9860  175.0070  134.3470 C   0  0  0  0  0  3  0  0  0  0  0  0
  186.6480  175.8040  135.6630 C   0  0  0  0  0  3  0  0  0  0  0  0
  186.8300  174.4620  135.3110 C   0  0  0  0  0  3  0  0  0  0  0  0
  187.6330  176.7490  135.3530 C   0  0  0  0  0  0  0  0  0  0  0  0
  188.8040  176.3480  134.6970 C   0  0  0  0  0  3  0  0  0  0  0  0
  187.9990  174.0640  134.6520 C   0  0  0  0  0  3  0  0  0  0  0  0
  2 10  1  0  0  0  0
  3 11  2  0  0  0  0
  5  7  1  0  0  0  0
  6 14  2  0  0  0  0
  7  9  1  1  0  0  0
  8  2  2  0  0  0  0
  9  1  2  0  0  0  0
 10  4  2  0  0  0  0
 11  1  1  0  0  0  0
 11 10  1  0  0  0  0
 12  3  1  0  0  0  0
 12  8  1  0  0  0  0
 13  6  1  0  0  0  0
 13  5  2  0  0  0  0
 14  7  1  0  0  0  0
 14  3  1  0  0  0  0
 15  8  1  0  0  0  0
 15 16  1  0  0  0  0
 17  5  1  0  0  0  0
 18 17  2  0  0  0  0
 19 18  1  0  0  0  0
 20 19  1  0  0  0  0
 21  6  1  0  0  0  0
 22 21  1  0  0  0  0
 23 22  1  0  0  0  0
 23 24  1  1  0  0  0
 25 23  1  0  0  0  0
 26 25  1  0  0  0  0
 27 25  2  0  0  0  0
 28 30  1  0  0  0  0
 28 29  2  0  0  0  0
 30 27  1  0  0  0  0
 31 28  1  0  0  0  0
 32 37  2  0  0  0  0
 32 36  1  0  0  0  0
 34 33  2  0  0  0  0
 35 33  1  0  0  0  0
 35 31  1  0  0  0  0
 36 35  2  0  0  0  0
 37 34  1  0  0  0  0
M  END
>  <MODEL>
7

>  <REMARK>
 VINA RESULT:      -9.5      3.092      3.891
  Name = 
  10 active torsions:
  status: ('A' for Active; 'I' for Inactive)
    1  A    between atoms: C_1  and  C_32
    2  A    between atoms: O_4  and  C_21
    3  A    between atoms: O_5  and  C_29
    4  A    between atoms: C_7  and  C_24
    5  A    between atoms: C_7  and  C_25
    6  A    between atoms: N_10  and  C_17
    7  A    between atoms: N_10  and  C_25
    8  A    between atoms: N_12  and  N_33
    9  A    between atoms: C_14  and  C_27
   10  A    between atoms: C_22  and  C_32
                            x       y       z     vdW  Elec       q    Type
                         _______ _______ _______ _____ _____    ______ ____

>  <TORSDO>
F 10

$$$$
=
 OpenBabel10232412393D

 37 40  0  0  1  0  0  0  0  0999 V2000
  185.6170  178.5810  146.2590 C   0  0  0  0  0  3  0  0  0  0  0  0
  183.4020  178.9360  143.2700 N   0  0  0  0  0  0  0  0  0  0  0  0
  186.0460  178.0390  143.8810 C   0  0  0  0  0  0  0  0  0  0  0  0
  183.0180  179.3440  145.5270 O   0  0  0  0  0  0  0  0  0  0  0  0
  189.0350  177.1870  145.5180 C   0  0  0  0  0  0  0  0  0  0  0  0
  188.4160  177.1800  143.3410 C   0  0  0  0  0  0  0  0  0  0  0  0
  187.8310  177.7430  145.5090 C   0  0  0  0  0  0  0  0  0  0  0  0
  184.1150  178.4340  142.3000 C   0  0  0  0  0  0  0  0  0  0  0  0
  187.0060  178.1660  146.6870 C   0  0  0  0  0  2  0  0  0  0  0  0
  183.8150  178.9410  144.6390 C   0  0  0  0  0  0  0  0  0  0  0  0
  185.1750  178.5100  144.9880 C   0  0  0  0  0  0  0  0  0  0  0  0
  185.4240  177.7280  142.5500 C   0  0  0  0  0  2  0  0  0  0  0  0
  189.4220  176.8390  144.1400 C   0  0  0  0  0  3  0  0  0  0  0  0
  187.3290  177.7520  144.1510 C   0  0  0  0  0  0  0  0  0  0  0  0
  183.6530  178.4950  140.9840 O   0  0  0  0  0  0  0  0  0  0  0  0
  183.1310  177.3600  140.3080 C   0  0  0  0  0  1  0  0  0  0  0  0
  189.8380  176.9480  146.7230 C   0  0  0  0  0  3  0  0  0  0  0  0
  191.1680  176.9950  146.6970 C   0  0  0  0  0  3  0  0  0  0  0  0
  191.9520  176.7700  147.8320 O   0  0  0  0  0  0  0  0  0  0  0  0
  192.7420  175.6000  148.0030 C   0  0  0  0  0  1  0  0  0  0  0  0
  188.5220  177.1220  141.9160 N   0  0  0  0  0  2  0  0  0  0  0  0
  188.7790  178.2840  141.0830 C   0  0  0  0  0  2  0  0  0  0  0  0
  189.7640  177.9290  139.9810 C   0  0  1  0  0  3  0  0  0  0  0  0
  190.8810  177.0730  140.5480 C   0  0  0  0  0  1  0  0  0  0  0  0
  189.0820  177.2230  138.8490 C   0  0  0  0  0  0  0  0  0  0  0  0
  189.8150  176.1840  138.0570 C   0  0  0  0  0  1  0  0  0  0  0  0
  187.8470  177.5200  138.5840 N   0  0  0  0  0  0  0  0  0  0  0  0
  185.8210  177.3110  137.2010 C   0  0  0  0  0  0  0  0  0  0  0  0
  185.2630  178.2490  137.8270 O   0  0  0  0  0  0  0  0  0  0  0  0
  187.1400  176.8930  137.5490 N   0  0  0  0  0  2  0  0  0  0  0  0
  185.0860  176.6050  136.1130 C   0  0  0  0  0  2  0  0  0  0  0  0
  184.6000  173.1330  137.5540 C   0  0  0  0  0  3  0  0  0  0  0  0
  185.8640  174.3440  135.3720 C   0  0  0  0  0  3  0  0  0  0  0  0
  185.9310  172.9570  135.5370 C   0  0  0  0  0  3  0  0  0  0  0  0
  185.1690  175.1280  136.2990 C   0  0  0  0  0  0  0  0  0  0  0  0
  184.5340  174.5200  137.3890 C   0  0  0  0  0  3  0  0  0  0  0  0
  185.3000  172.3520  136.6290 C   0  0  0  0  0  3  0  0  0  0  0  0
  1  9  1  0  0  0  0
  2 10  1  0  0  0  0
  3 14  2  0  0  0  0
  3 11  1  0  0  0  0
  5 17  1  0  0  0  0
  6 13  2  0  0  0  0
  6 14  1  0  0  0  0
  7  5  2  0  0  0  0
  7  9  1  0  0  0  0
  8 12  1  0  0  0  0
  8  2  2  0  0  0  0
 10 11  1  0  0  0  0
 10  4  2  0  0  0  0
 11  1  2  0  0  0  0
 12  3  1  0  0  0  0
 13  5  1  0  0  0  0
 14  7  1  0  0  0  0
 15  8  1  0  0  0  0
 16 15  1  0  0  0  0
 18 17  2  0  0  0  0
 18 19  1  0  0  0  0
 19 20  1  0  0  0  0
 21  6  1  0  0  0  0
 22 21  1  0  0  0  0
 23 24  1  1  0  0  0
 23 22  1  0  0  0  0
 25 23  1  0  0  0  0
 26 25  1  0  0  0  0
 27 25  2  0  0  0  0
 28 30  1  0  0  0  0
 28 29  2  0  0  0  0
 30 27  1  0  0  0  0
 31 35  1  0  0  0  0
 31 28  1  0  0  0  0
 33 34  2  0  0  0  0
 33 35  1  0  0  0  0
 34 37  1  0  0  0  0
 35 36  2  0  0  0  0
 36 32  1  0  0  0  0
 37 32  2  0  0  0  0
M  END
>  <MODEL>
8

>  <REMARK>
 VINA RESULT:      -9.3      3.609      7.208
  Name = 
  10 active torsions:
  status: ('A' for Active; 'I' for Inactive)
    1  A    between atoms: C_1  and  C_32
    2  A    between atoms: O_4  and  C_21
    3  A    between atoms: O_5  and  C_29
    4  A    between atoms: C_7  and  C_24
    5  A    between atoms: C_7  and  C_25
    6  A    between atoms: N_10  and  C_17
    7  A    between atoms: N_10  and  C_25
    8  A    between atoms: N_12  and  N_33
    9  A    between atoms: C_14  and  C_27
   10  A    between atoms: C_22  and  C_32
                            x       y       z     vdW  Elec       q    Type
                         _______ _______ _______ _____ _____    ______ ____

>  <TORSDO>
F 10

$$$$
=
 OpenBabel10232412393D

 37 40  0  0  1  0  0  0  0  0999 V2000
  185.8900  178.2290  147.2020 C   0  0  0  0  0  3  0  0  0  0  0  0
  189.4930  177.2340  147.2440 N   0  0  0  0  0  0  0  0  0  0  0  0
  187.4800  177.9100  145.3300 C   0  0  0  0  0  0  0  0  0  0  0  0
  187.9860  177.6340  148.9700 O   0  0  0  0  0  0  0  0  0  0  0  0
  184.4720  178.8260  143.7660 C   0  0  0  0  0  0  0  0  0  0  0  0
  186.4980  178.2140  142.9660 C   0  0  0  0  0  0  0  0  0  0  0  0
  185.1620  178.4680  144.8390 C   0  0  2  0  0  3  0  0  0  0  0  0
  189.8410  177.2930  145.9880 C   0  0  0  0  0  0  0  0  0  0  0  0
  184.7440  178.5650  146.2760 C   0  0  0  0  0  3  0  0  0  0  0  0
  188.2030  177.6150  147.7290 C   0  0  0  0  0  0  0  0  0  0  0  0
  187.1370  177.9450  146.7740 C   0  0  0  0  0  0  0  0  0  0  0  0
  188.9260  177.8560  144.9290 C   0  0  0  0  0  2  0  0  0  0  0  0
  185.3090  178.6550  142.5670 C   0  0  0  0  0  3  0  0  0  0  0  0
  186.4990  178.0890  144.4320 C   0  0  0  0  0  0  0  0  0  0  0  0
  191.1120  176.8740  145.5900 O   0  0  0  0  0  0  0  0  0  0  0  0
  191.9810  176.1570  146.4550 C   0  0  0  0  0  1  0  0  0  0  0  0
  183.0930  179.3290  143.7870 C   0  0  0  0  0  3  0  0  0  0  0  0
  182.1200  178.7300  143.1040 C   0  0  0  0  0  3  0  0  0  0  0  0
  180.8010  179.1930  143.1090 O   0  0  0  0  0  0  0  0  0  0  0  0
  180.2330  179.9130  142.0230 C   0  0  0  0  0  1  0  0  0  0  0  0
  187.5040  177.7940  142.0410 N   0  0  0  0  0  2  0  0  0  0  0  0
  188.1940  178.7020  141.1390 C   0  0  0  0  0  2  0  0  0  0  0  0
  189.4010  178.0110  140.5260 C   0  0  1  0  0  3  0  0  0  0  0  0
  189.7620  176.7860  141.3460 C   0  0  0  0  0  1  0  0  0  0  0  0
  189.1440  177.6330  139.1000 C   0  0  0  0  0  0  0  0  0  0  0  0
  188.9810  178.6960  138.0550 C   0  0  0  0  0  1  0  0  0  0  0  0
  189.0840  176.3750  138.7890 N   0  0  0  0  0  0  0  0  0  0  0  0
  189.4600  174.7510  136.9770 C   0  0  0  0  0  0  0  0  0  0  0  0
  190.2130  174.0620  137.7140 O   0  0  0  0  0  0  0  0  0  0  0  0
  188.8590  175.9460  137.4740 N   0  0  0  0  0  2  0  0  0  0  0  0
  189.2230  174.3370  135.5650 C   0  0  0  0  0  2  0  0  0  0  0  0
  185.9150  172.4900  135.6260 C   0  0  0  0  0  3  0  0  0  0  0  0
  188.6270  171.9290  135.2280 C   0  0  0  0  0  3  0  0  0  0  0  0
  187.6830  170.9000  135.1560 C   0  0  0  0  0  3  0  0  0  0  0  0
  188.2170  173.2390  135.5030 C   0  0  0  0  0  0  0  0  0  0  0  0
  186.8590  173.5180  135.6990 C   0  0  0  0  0  3  0  0  0  0  0  0
  186.3260  171.1810  135.3560 C   0  0  0  0  0  3  0  0  0  0  0  0
  2 10  1  0  0  0  0
  3 11  2  0  0  0  0
  5 17  1  0  0  0  0
  5  7  1  0  0  0  0
  6 14  2  0  0  0  0
  7  9  1  1  0  0  0
  8  2  2  0  0  0  0
  9  1  2  0  0  0  0
 10  4  2  0  0  0  0
 11  1  1  0  0  0  0
 11 10  1  0  0  0  0
 12  3  1  0  0  0  0
 12  8  1  0  0  0  0
 13  6  1  0  0  0  0
 13  5  2  0  0  0  0
 14  7  1  0  0  0  0
 14  3  1  0  0  0  0
 15  8  1  0  0  0  0
 15 16  1  0  0  0  0
 18 19  1  0  0  0  0
 18 17  2  0  0  0  0
 20 19  1  0  0  0  0
 21  6  1  0  0  0  0
 22 21  1  0  0  0  0
 23 22  1  0  0  0  0
 23 24  1  1  0  0  0
 25 23  1  0  0  0  0
 26 25  1  0  0  0  0
 27 25  2  0  0  0  0
 28 30  1  0  0  0  0
 28 29  2  0  0  0  0
 30 27  1  0  0  0  0
 31 28  1  0  0  0  0
 32 36  1  0  0  0  0
 33 35  1  0  0  0  0
 34 33  2  0  0  0  0
 34 37  1  0  0  0  0
 35 31  1  0  0  0  0
 35 36  2  0  0  0  0
 37 32  2  0  0  0  0
M  END
>  <MODEL>
9

>  <REMARK>
 VINA RESULT:      -9.0      3.058      4.143
  Name = 
  10 active torsions:
  status: ('A' for Active; 'I' for Inactive)
    1  A    between atoms: C_1  and  C_32
    2  A    between atoms: O_4  and  C_21
    3  A    between atoms: O_5  and  C_29
    4  A    between atoms: C_7  and  C_24
    5  A    between atoms: C_7  and  C_25
    6  A    between atoms: N_10  and  C_17
    7  A    between atoms: N_10  and  C_25
    8  A    between atoms: N_12  and  N_33
    9  A    between atoms: C_14  and  C_27
   10  A    between atoms: C_22  and  C_32
                            x       y       z     vdW  Elec       q    Type
                         _______ _______ _______ _____ _____    ______ ____

>  <TORSDO>
F 10

$$$$
