=
 OpenBabel10232407513D

 61 67  0  0  1  0  0  0  0  0999 V2000
  187.1590  177.7760  145.5710 C   0  0  0  0  0  0  0  0  0  0  0  0
  185.1950  179.4220  145.0670 C   0  0  0  0  0  3  0  0  0  0  0  0
  187.0550  176.9190  146.7020 N   0  0  0  0  0  1  0  0  0  0  0  0
  186.1780  178.5930  145.2970 C   0  0  0  0  0  0  0  0  0  0  0  0
  184.0400  179.0910  144.2060 C   0  0  0  0  0  0  0  0  0  0  0  0
  181.8280  178.5030  142.5630 C   0  0  0  0  0  0  0  0  0  0  0  0
  181.6530  178.6780  143.9410 C   0  0  0  0  0  3  0  0  0  0  0  0
  182.7510  178.9740  144.7540 C   0  0  0  0  0  3  0  0  0  0  0  0
  183.1060  178.6290  142.0090 C   0  0  0  0  0  3  0  0  0  0  0  0
  184.2200  178.9180  142.8160 C   0  0  0  0  0  0  0  0  0  0  0  0
  185.5620  179.0710  142.2110 C   0  0  0  0  0  3  0  0  0  0  0  0
  186.0530  178.6170  139.6850 C   0  0  0  0  0  3  0  0  0  0  0  0
  185.8080  178.8240  140.9510 C   0  0  0  0  0  0  0  0  0  0  0  0
  185.4970  178.2820  137.2860 C   0  0  0  0  0  2  0  0  0  0  0  0
  184.9530  178.4060  138.6970 C   0  0  1  0  0  3  0  0  0  0  0  0
  185.1410  177.0290  138.0650 C   0  0  1  0  0  3  0  0  0  0  0  0
  183.8560  176.4980  137.6010 N   0  0  2  0  0  0  0  0  0  0  0  0
  181.7940  175.5290  138.5250 C   0  0  0  0  0  0  0  0  0  0  0  0
  183.1030  176.1930  138.8270 C   0  0  0  0  0  2  0  0  0  0  0  0
  181.9520  172.4270  135.5450 C   0  0  0  0  0  3  0  0  0  0  0  0
  180.5340  173.8120  137.1350 C   0  0  0  0  0  2  0  0  0  0  0  0
  182.9010  173.3790  135.5770 C   0  0  0  0  0  3  0  0  0  0  0  0
  181.8810  174.3150  137.6470 C   0  0  1  0  0  3  0  0  0  0  0  0
  184.0940  175.2500  136.8390 C   0  0  1  0  0  3  0  0  0  0  0  0
  180.8400  175.6100  139.4540 C   0  0  0  0  0  2  0  0  0  0  0  0
  180.7270  172.4650  136.4350 C   0  0  0  0  0  2  0  0  0  0  0  0
  182.7500  174.6180  136.4290 C   0  0  1  0  0  3  0  0  0  0  0  0
  184.9070  175.5290  135.5740 C   0  0  0  0  0  2  0  0  0  0  0  0
  186.0090  174.5760  135.4790 N   0  0  0  0  0  2  0  0  0  0  0  0
  187.3020  175.2730  135.4220 C   0  0  0  0  0  3  0  0  0  0  0  0
  188.2050  174.7020  134.3470 C   0  0  0  0  0  1  0  0  0  0  0  0
  187.9980  175.2970  136.7670 C   0  0  0  0  0  1  0  0  0  0  0  0
  180.3460  179.0690  140.7350 N   0  0  0  0  0  1  0  0  0  0  0  0
  180.7500  178.2040  141.7270 O   0  0  0  0  0  0  0  0  0  0  0  0
  188.4630  177.9670  144.9290 C   0  0  0  0  0  0  0  0  0  0  0  0
  189.4060  178.4530  145.6140 O   0  0  0  0  0  0  0  0  0  0  0  0
  190.1090  175.7100  142.6930 C   0  0  0  0  0  3  0  0  0  0  0  0
  188.7020  177.5500  143.5300 C   0  0  0  0  0  0  0  0  0  0  0  0
  190.6410  176.2080  141.5740 C   0  0  0  0  0  3  0  0  0  0  0  0
  190.0190  177.2410  140.7100 C   0  0  0  0  0  0  0  0  0  0  0  0
  188.7560  176.0940  143.1830 C   0  0  0  0  0  2  0  0  0  0  0  0
  189.2550  178.2410  141.1800 C   0  0  0  0  0  3  0  0  0  0  0  0
  188.8670  178.4830  142.5850 C   0  0  0  0  0  3  0  0  0  0  0  0
  189.7120  177.9410  138.4650 O   0  0  0  0  0  0  0  0  0  0  0  0
  190.3940  177.2690  139.2840 C   0  0  0  0  0  0  0  0  0  0  0  0
  191.4940  176.5260  138.8390 O   0  0  0  0  0  0  0  0  0  0  0  0
  191.9130  176.5150  137.4790 C   0  0  0  0  0  2  0  0  0  0  0  0
  192.5520  174.1260  137.0020 C   0  0  2  0  0  3  0  0  0  0  0  0
  193.0740  175.5470  137.2660 C   0  0  2  0  0  3  0  0  0  0  0  0
  195.9880  174.6560  139.5880 C   0  0  0  0  0  1  0  0  0  0  0  0
  194.5180  173.1170  135.6440 C   0  0  0  0  0  2  0  0  0  0  0  0
  195.8780  172.3670  137.5420 C   0  0  2  0  0  3  0  0  0  0  0  0
  195.1280  174.6040  138.3400 C   0  0  1  0  0  3  0  0  0  0  0  0
  193.6810  173.0750  136.9110 C   0  0  1  0  0  3  0  0  0  0  0  0
  195.7510  171.0320  137.9220 O   0  0  0  0  0  1  0  0  0  0  0  0
  194.6830  173.1560  138.0590 C   0  0  1  0  0  3  0  0  0  0  0  0
  193.9360  175.5350  138.5210 C   0  0  0  0  0  2  0  0  0  0  0  0
  195.8390  172.4640  136.0180 C   0  0  0  0  0  2  0  0  0  0  0  0
  191.9660  174.6760  134.5740 C   0  0  0  0  0  1  0  0  0  0  0  0
  191.5070  174.0370  135.8740 C   0  0  1  0  0  3  0  0  0  0  0  0
  191.1350  172.7100  135.6510 O   0  0  0  0  0  1  0  0  0  0  0  0
  1  3  1  0  0  0  0
  2  4  2  0  0  0  0
  4  1  2  0  0  0  0
  5  8  1  0  0  0  0
  5  2  1  0  0  0  0
  6  7  1  0  0  0  0
  7  8  2  0  0  0  0
  9  6  2  0  0  0  0
  9 10  1  0  0  0  0
 10  5  2  0  0  0  0
 11 10  1  0  0  0  0
 12 13  2  0  0  0  0
 13 11  2  0  0  0  0
 14 15  1  0  0  0  0
 15 12  1  1  0  0  0
 16 14  1  6  0  0  0
 16 15  1  0  0  0  0
 17 16  1  0  0  0  0
 17 19  1  1  0  0  0
 18 19  1  0  0  0  0
 18 25  2  0  0  0  0
 20 22  2  0  0  0  0
 20 26  1  0  0  0  0
 23 21  1  6  0  0  0
 23 18  1  0  0  0  0
 24 28  1  6  0  0  0
 24 17  1  0  0  0  0
 26 21  1  0  0  0  0
 27 22  1  1  0  0  0
 27 24  1  0  0  0  0
 27 23  1  0  0  0  0
 29 28  1  0  0  0  0
 30 29  1  0  0  0  0
 30 32  1  0  0  0  0
 31 30  1  0  0  0  0
 33 34  1  0  0  0  0
 34  6  1  0  0  0  0
 35  1  1  0  0  0  0
 35 36  2  0  0  0  0
 37 41  1  0  0  0  0
 38 35  1  0  0  0  0
 39 37  2  0  0  0  0
 40 42  2  0  0  0  0
 40 39  1  0  0  0  0
 41 38  1  0  0  0  0
 42 43  1  0  0  0  0
 43 38  2  0  0  0  0
 44 45  2  0  0  0  0
 45 40  1  0  0  0  0
 46 45  1  0  0  0  0
 47 46  1  0  0  0  0
 48 60  1  6  0  0  0
 48 49  1  0  0  0  0
 49 47  1  1  0  0  0
 49 57  1  0  0  0  0
 51 58  1  0  0  0  0
 52 55  1  6  0  0  0
 52 56  1  0  0  0  0
 53 57  1  0  0  0  0
 53 50  1  1  0  0  0
 54 51  1  6  0  0  0
 54 48  1  0  0  0  0
 54 56  1  0  0  0  0
 56 53  1  0  0  0  0
 58 52  1  0  0  0  0
 59 60  1  0  0  0  0
 61 60  1  0  0  0  0
M  END
>  <MODEL>
1

>  <REMARK>
 VINA RESULT:      -7.9      0.000      0.000
  Name = 
  15 active torsions:
  status: ('A' for Active; 'I' for Inactive)
    1  A    between atoms: N_1  and  C_28
    2  A    between atoms: C_2  and  C_47
    3  A    between atoms: C_3  and  C_59
    4  A    between atoms: C_4  and  C_54
    5  A    between atoms: C_9  and  C_49
    6  A    between atoms: C_10  and  C_16
    7  A    between atoms: C_15  and  C_49
    8  A    between atoms: C_20  and  N_23
    9  A    between atoms: C_21  and  C_24
   10  A    between atoms: N_23  and  C_27
   11  A    between atoms: C_24  and  O_42
   12  A    between atoms: C_25  and  C_31
   13  A    between atoms: C_26  and  O_33
   14  A    between atoms: C_27  and  C_39
   15  A    between atoms: O_42  and  C_59
                            x       y       z     vdW  Elec       q    Type
                         _______ _______ _______ _____ _____    ______ ____

>  <TORSDO>
F 15

$$$$
=
 OpenBabel10232407513D

 61 67  0  0  1  0  0  0  0  0999 V2000
  188.1910  173.9930  135.4660 C   0  0  0  0  0  0  0  0  0  0  0  0
  190.6730  174.5100  134.8390 C   0  0  0  0  0  3  0  0  0  0  0  0
  187.7720  172.6350  135.5220 N   0  0  0  0  0  1  0  0  0  0  0  0
  189.4320  174.2660  135.1700 C   0  0  0  0  0  0  0  0  0  0  0  0
  191.7660  174.6320  135.8270 C   0  0  0  0  0  0  0  0  0  0  0  0
  193.8790  174.8720  137.6760 C   0  0  0  0  0  0  0  0  0  0  0  0
  193.6440  173.6520  137.0310 C   0  0  0  0  0  3  0  0  0  0  0  0
  192.5980  173.5350  136.1110 C   0  0  0  0  0  3  0  0  0  0  0  0
  193.0610  175.9710  137.3910 C   0  0  0  0  0  3  0  0  0  0  0  0
  192.0010  175.8660  136.4730 C   0  0  0  0  0  0  0  0  0  0  0  0
  191.1590  177.0430  136.1650 C   0  0  0  0  0  3  0  0  0  0  0  0
  189.0190  177.6690  137.5270 C   0  0  0  0  0  3  0  0  0  0  0  0
  190.0780  177.3420  136.8360 C   0  0  0  0  0  0  0  0  0  0  0  0
  189.8310  177.0940  139.8040 C   0  0  0  0  0  2  0  0  0  0  0  0
  188.6840  176.9930  138.8170 C   0  0  1  0  0  3  0  0  0  0  0  0
  188.6610  178.0540  139.9150 C   0  0  1  0  0  3  0  0  0  0  0  0
  187.7750  177.6420  141.0070 N   0  0  2  0  0  0  0  0  0  0  0  0
  185.6340  178.2960  142.0240 C   0  0  0  0  0  0  0  0  0  0  0  0
  186.5980  178.5150  140.8970 C   0  0  0  0  0  2  0  0  0  0  0  0
  187.4170  177.9570  145.9260 C   0  0  0  0  0  3  0  0  0  0  0  0
  185.3040  177.9030  144.5140 C   0  0  0  0  0  2  0  0  0  0  0  0
  188.1470  177.6970  144.8280 C   0  0  0  0  0  3  0  0  0  0  0  0
  186.2280  178.3870  143.3990 C   0  0  1  0  0  3  0  0  0  0  0  0
  188.4560  177.8840  142.3010 C   0  0  1  0  0  3  0  0  0  0  0  0
  184.3670  178.6600  141.8210 C   0  0  0  0  0  2  0  0  0  0  0  0
  185.9290  178.2370  145.8710 C   0  0  0  0  0  2  0  0  0  0  0  0
  187.5050  177.5530  143.4670 C   0  0  1  0  0  3  0  0  0  0  0  0
  189.7070  177.0130  142.4310 C   0  0  0  0  0  2  0  0  0  0  0  0
  190.8070  177.8110  142.9660 N   0  0  0  0  0  2  0  0  0  0  0  0
  191.6560  177.0060  143.8540 C   0  0  0  0  0  3  0  0  0  0  0  0
  191.3910  175.5220  143.6970 C   0  0  0  0  0  1  0  0  0  0  0  0
  191.5360  177.4330  145.3020 C   0  0  0  0  0  1  0  0  0  0  0  0
  195.5290  173.9240  139.1710 N   0  0  0  0  0  1  0  0  0  0  0  0
  194.9140  175.0160  138.6020 O   0  0  0  0  0  0  0  0  0  0  0  0
  187.1830  175.0570  135.4200 C   0  0  0  0  0  0  0  0  0  0  0  0
  187.4800  176.1440  134.8490 O   0  0  0  0  0  0  0  0  0  0  0  0
  185.0040  173.0380  137.4150 C   0  0  0  0  0  3  0  0  0  0  0  0
  185.8250  174.8560  135.9700 C   0  0  0  0  0  0  0  0  0  0  0  0
  183.7640  172.8220  136.9710 C   0  0  0  0  0  3  0  0  0  0  0  0
  182.8900  173.8350  136.3280 C   0  0  0  0  0  0  0  0  0  0  0  0
  185.6530  174.3780  137.3790 C   0  0  0  0  0  2  0  0  0  0  0  0
  183.3510  174.8210  135.5400 C   0  0  0  0  0  3  0  0  0  0  0  0
  184.7600  175.1050  135.1990 C   0  0  0  0  0  3  0  0  0  0  0  0
  180.9530  172.5150  136.6900 O   0  0  0  0  0  0  0  0  0  0  0  0
  181.4300  173.6510  136.4240 C   0  0  0  0  0  0  0  0  0  0  0  0
  180.5760  174.7350  136.1930 O   0  0  0  0  0  0  0  0  0  0  0  0
  179.9830  175.4840  137.2480 C   0  0  0  0  0  2  0  0  0  0  0  0
  180.2000  177.5290  138.7030 C   0  0  2  0  0  3  0  0  0  0  0  0
  180.6480  176.8500  137.3990 C   0  0  2  0  0  3  0  0  0  0  0  0
  180.5240  179.9090  135.0970 C   0  0  0  0  0  1  0  0  0  0  0  0
  182.2150  179.0950  139.1670 C   0  0  0  0  0  2  0  0  0  0  0  0
  181.4730  180.9970  137.8090 C   0  0  2  0  0  3  0  0  0  0  0  0
  180.9110  179.0880  136.3110 C   0  0  1  0  0  3  0  0  0  0  0  0
  180.7350  178.9710  138.8470 C   0  0  1  0  0  3  0  0  0  0  0  0
  180.8080  182.0270  138.4740 O   0  0  0  0  0  1  0  0  0  0  0  0
  180.5180  179.8290  137.6040 C   0  0  1  0  0  3  0  0  0  0  0  0
  180.2430  177.7230  136.2190 C   0  0  0  0  0  2  0  0  0  0  0  0
  182.6120  180.4820  138.6870 C   0  0  0  0  0  2  0  0  0  0  0  0
  181.6250  175.7950  139.9290 C   0  0  0  0  0  1  0  0  0  0  0  0
  180.3740  176.6560  139.9600 C   0  0  1  0  0  3  0  0  0  0  0  0
  180.3640  177.4460  141.1120 O   0  0  0  0  0  1  0  0  0  0  0  0
  1  3  1  0  0  0  0
  2  4  2  0  0  0  0
  2  5  1  0  0  0  0
  4  1  2  0  0  0  0
  5  8  2  0  0  0  0
  5 10  1  0  0  0  0
  6 34  1  0  0  0  0
  7  6  2  0  0  0  0
  8  7  1  0  0  0  0
  9  6  1  0  0  0  0
 10  9  2  0  0  0  0
 11 10  1  0  0  0  0
 11 13  2  0  0  0  0
 13 12  2  0  0  0  0
 15 12  1  6  0  0  0
 15 14  1  0  0  0  0
 15 16  1  0  0  0  0
 16 14  1  1  0  0  0
 16 17  1  0  0  0  0
 17 19  1  1  0  0  0
 17 24  1  0  0  0  0
 18 23  1  0  0  0  0
 19 18  1  0  0  0  0
 21 26  1  0  0  0  0
 22 20  2  0  0  0  0
 23 27  1  0  0  0  0
 23 21  1  1  0  0  0
 24 28  1  1  0  0  0
 24 27  1  0  0  0  0
 25 18  2  0  0  0  0
 26 20  1  0  0  0  0
 27 22  1  1  0  0  0
 28 29  1  0  0  0  0
 29 30  1  0  0  0  0
 30 32  1  0  0  0  0
 31 30  1  0  0  0  0
 34 33  1  0  0  0  0
 35  1  1  0  0  0  0
 35 38  1  0  0  0  0
 36 35  2  0  0  0  0
 38 41  1  0  0  0  0
 39 37  2  0  0  0  0
 40 45  1  0  0  0  0
 40 39  1  0  0  0  0
 41 37  1  0  0  0  0
 42 40  2  0  0  0  0
 43 42  1  0  0  0  0
 43 38  2  0  0  0  0
 45 44  2  0  0  0  0
 46 45  1  0  0  0  0
 46 47  1  0  0  0  0
 48 54  1  0  0  0  0
 48 60  1  1  0  0  0
 49 47  1  6  0  0  0
 49 48  1  0  0  0  0
 52 55  1  1  0  0  0
 52 58  1  0  0  0  0
 53 50  1  6  0  0  0
 53 56  1  0  0  0  0
 54 51  1  6  0  0  0
 56 52  1  0  0  0  0
 56 54  1  0  0  0  0
 57 53  1  0  0  0  0
 57 49  1  0  0  0  0
 58 51  1  0  0  0  0
 59 60  1  0  0  0  0
 60 61  1  0  0  0  0
M  END
>  <MODEL>
2

>  <REMARK>
 VINA RESULT:      -7.7      3.014     11.256
  Name = 
  15 active torsions:
  status: ('A' for Active; 'I' for Inactive)
    1  A    between atoms: N_1  and  C_28
    2  A    between atoms: C_2  and  C_47
    3  A    between atoms: C_3  and  C_59
    4  A    between atoms: C_4  and  C_54
    5  A    between atoms: C_9  and  C_49
    6  A    between atoms: C_10  and  C_16
    7  A    between atoms: C_15  and  C_49
    8  A    between atoms: C_20  and  N_23
    9  A    between atoms: C_21  and  C_24
   10  A    between atoms: N_23  and  C_27
   11  A    between atoms: C_24  and  O_42
   12  A    between atoms: C_25  and  C_31
   13  A    between atoms: C_26  and  O_33
   14  A    between atoms: C_27  and  C_39
   15  A    between atoms: O_42  and  C_59
                            x       y       z     vdW  Elec       q    Type
                         _______ _______ _______ _____ _____    ______ ____

>  <TORSDO>
F 15

$$$$
=
 OpenBabel10232407513D

 61 67  0  0  1  0  0  0  0  0999 V2000
  186.8990  177.7410  145.3920 C   0  0  0  0  0  0  0  0  0  0  0  0
  184.9980  179.4150  144.7570 C   0  0  0  0  0  3  0  0  0  0  0  0
  186.7230  176.9130  146.5360 N   0  0  0  0  0  1  0  0  0  0  0  0
  185.9510  178.5710  145.0530 C   0  0  0  0  0  0  0  0  0  0  0  0
  183.8780  179.0880  143.8500 C   0  0  0  0  0  0  0  0  0  0  0  0
  181.7320  178.5080  142.1190 C   0  0  0  0  0  0  0  0  0  0  0  0
  181.5060  178.6610  143.4920 C   0  0  0  0  0  3  0  0  0  0  0  0
  182.5710  178.9530  144.3490 C   0  0  0  0  0  3  0  0  0  0  0  0
  183.0290  178.6510  141.6140 C   0  0  0  0  0  3  0  0  0  0  0  0
  184.1100  178.9370  142.4650 C   0  0  0  0  0  0  0  0  0  0  0  0
  185.4720  179.1090  141.9120 C   0  0  0  0  0  3  0  0  0  0  0  0
  186.0790  178.6040  139.4210 C   0  0  0  0  0  3  0  0  0  0  0  0
  185.7760  178.8360  140.6700 C   0  0  0  0  0  0  0  0  0  0  0  0
  185.6370  178.1230  137.0230 C   0  0  0  0  0  2  0  0  0  0  0  0
  185.0260  178.3400  138.3940 C   0  0  1  0  0  3  0  0  0  0  0  0
  185.2290  176.9240  137.8600 C   0  0  1  0  0  3  0  0  0  0  0  0
  183.9630  176.3750  137.3680 N   0  0  2  0  0  0  0  0  0  0  0  0
  181.9320  175.2950  138.2370 C   0  0  0  0  0  0  0  0  0  0  0  0
  183.2180  175.9860  138.5740 C   0  0  0  0  0  2  0  0  0  0  0  0
  182.1940  172.3510  135.1080 C   0  0  0  0  0  3  0  0  0  0  0  0
  180.7300  173.6090  136.7610 C   0  0  0  0  0  2  0  0  0  0  0  0
  183.1120  173.3300  135.1890 C   0  0  0  0  0  3  0  0  0  0  0  0
  182.0600  174.1300  137.3000 C   0  0  1  0  0  3  0  0  0  0  0  0
  184.2420  175.1740  136.5450 C   0  0  1  0  0  3  0  0  0  0  0  0
  180.9750  175.3000  139.1660 C   0  0  0  0  0  2  0  0  0  0  0  0
  180.9670  172.3050  135.9960 C   0  0  0  0  0  2  0  0  0  0  0  0
  182.9200  174.5210  136.1010 C   0  0  1  0  0  3  0  0  0  0  0  0
  185.0470  175.5420  135.2970 C   0  0  0  0  0  2  0  0  0  0  0  0
  186.1180  174.5690  135.1000 N   0  0  0  0  0  2  0  0  0  0  0  0
  187.0090  174.5260  136.2670 C   0  0  0  0  0  3  0  0  0  0  0  0
  188.4010  175.0260  135.9350 C   0  0  0  0  0  1  0  0  0  0  0  0
  187.0580  173.1500  136.8990 C   0  0  0  0  0  1  0  0  0  0  0  0
  180.7390  178.5730  139.9130 N   0  0  0  0  0  1  0  0  0  0  0  0
  180.6880  178.2130  141.2410 O   0  0  0  0  0  0  0  0  0  0  0  0
  188.2360  177.8890  144.8080 C   0  0  0  0  0  0  0  0  0  0  0  0
  189.1350  178.4500  145.4960 O   0  0  0  0  0  0  0  0  0  0  0  0
  190.2330  175.6450  142.8640 C   0  0  0  0  0  3  0  0  0  0  0  0
  188.5580  177.3450  143.4710 C   0  0  0  0  0  0  0  0  0  0  0  0
  190.7060  176.0770  141.6920 C   0  0  0  0  0  3  0  0  0  0  0  0
  189.9550  176.8950  140.7090 C   0  0  0  0  0  0  0  0  0  0  0  0
  188.8300  175.8820  143.3050 C   0  0  0  0  0  2  0  0  0  0  0  0
  189.0450  177.8210  141.0540 C   0  0  0  0  0  3  0  0  0  0  0  0
  188.6010  178.1710  142.4190 C   0  0  0  0  0  3  0  0  0  0  0  0
  190.1110  177.7650  138.5080 O   0  0  0  0  0  0  0  0  0  0  0  0
  190.3470  176.8050  139.2900 C   0  0  0  0  0  0  0  0  0  0  0  0
  190.9580  175.6410  138.8090 O   0  0  0  0  0  0  0  0  0  0  0  0
  192.2020  175.6560  138.1190 C   0  0  0  0  0  2  0  0  0  0  0  0
  194.0600  174.1380  137.3530 C   0  0  2  0  0  3  0  0  0  0  0  0
  192.5440  174.2750  137.5650 C   0  0  2  0  0  3  0  0  0  0  0  0
  191.3650  172.5580  134.3500 C   0  0  0  0  0  1  0  0  0  0  0  0
  194.3580  171.5670  137.5360 C   0  0  0  0  0  2  0  0  0  0  0  0
  193.8820  171.0140  135.1940 C   0  0  2  0  0  3  0  0  0  0  0  0
  192.1240  172.7170  135.6520 C   0  0  1  0  0  3  0  0  0  0  0  0
  194.4550  172.8100  136.6680 C   0  0  1  0  0  3  0  0  0  0  0  0
  194.9800  170.8540  134.3480 O   0  0  0  0  0  1  0  0  0  0  0  0
  193.6310  172.4980  135.4220 C   0  0  1  0  0  3  0  0  0  0  0  0
  191.8370  174.0970  136.2280 C   0  0  0  0  0  2  0  0  0  0  0  0
  194.2070  170.4110  136.5600 C   0  0  0  0  0  2  0  0  0  0  0  0
  196.3950  174.2900  138.3820 C   0  0  0  0  0  1  0  0  0  0  0  0
  194.9050  174.4920  138.5910 C   0  0  1  0  0  3  0  0  0  0  0  0
  194.6500  175.8030  139.0010 O   0  0  0  0  0  1  0  0  0  0  0  0
  1  3  1  0  0  0  0
  2  4  2  0  0  0  0
  4  1  2  0  0  0  0
  5  8  1  0  0  0  0
  5  2  1  0  0  0  0
  6  7  1  0  0  0  0
  7  8  2  0  0  0  0
  9  6  2  0  0  0  0
  9 10  1  0  0  0  0
 10  5  2  0  0  0  0
 11 10  1  0  0  0  0
 12 13  2  0  0  0  0
 13 11  2  0  0  0  0
 14 15  1  0  0  0  0
 15 12  1  1  0  0  0
 16 14  1  6  0  0  0
 16 15  1  0  0  0  0
 17 16  1  0  0  0  0
 17 19  1  1  0  0  0
 18 19  1  0  0  0  0
 18 25  2  0  0  0  0
 20 22  2  0  0  0  0
 20 26  1  0  0  0  0
 23 21  1  6  0  0  0
 23 18  1  0  0  0  0
 24 28  1  6  0  0  0
 24 17  1  0  0  0  0
 26 21  1  0  0  0  0
 27 22  1  1  0  0  0
 27 24  1  0  0  0  0
 27 23  1  0  0  0  0
 29 28  1  0  0  0  0
 29 30  1  0  0  0  0
 30 32  1  0  0  0  0
 31 30  1  0  0  0  0
 33 34  1  0  0  0  0
 34  6  1  0  0  0  0
 35  1  1  0  0  0  0
 35 36  2  0  0  0  0
 37 41  1  0  0  0  0
 38 35  1  0  0  0  0
 39 37  2  0  0  0  0
 40 42  2  0  0  0  0
 40 39  1  0  0  0  0
 41 38  1  0  0  0  0
 42 43  1  0  0  0  0
 43 38  2  0  0  0  0
 44 45  2  0  0  0  0
 45 40  1  0  0  0  0
 46 45  1  0  0  0  0
 47 46  1  0  0  0  0
 48 49  1  0  0  0  0
 48 60  1  1  0  0  0
 49 47  1  6  0  0  0
 52 55  1  6  0  0  0
 52 56  1  0  0  0  0
 52 58  1  0  0  0  0
 53 50  1  6  0  0  0
 53 57  1  0  0  0  0
 54 48  1  0  0  0  0
 54 51  1  1  0  0  0
 56 53  1  0  0  0  0
 56 54  1  0  0  0  0
 57 49  1  0  0  0  0
 58 51  1  0  0  0  0
 59 60  1  0  0  0  0
 60 61  1  0  0  0  0
M  END
>  <MODEL>
3

>  <REMARK>
 VINA RESULT:      -7.3      1.060      1.990
  Name = 
  15 active torsions:
  status: ('A' for Active; 'I' for Inactive)
    1  A    between atoms: N_1  and  C_28
    2  A    between atoms: C_2  and  C_47
    3  A    between atoms: C_3  and  C_59
    4  A    between atoms: C_4  and  C_54
    5  A    between atoms: C_9  and  C_49
    6  A    between atoms: C_10  and  C_16
    7  A    between atoms: C_15  and  C_49
    8  A    between atoms: C_20  and  N_23
    9  A    between atoms: C_21  and  C_24
   10  A    between atoms: N_23  and  C_27
   11  A    between atoms: C_24  and  O_42
   12  A    between atoms: C_25  and  C_31
   13  A    between atoms: C_26  and  O_33
   14  A    between atoms: C_27  and  C_39
   15  A    between atoms: O_42  and  C_59
                            x       y       z     vdW  Elec       q    Type
                         _______ _______ _______ _____ _____    ______ ____

>  <TORSDO>
F 15

$$$$
=
 OpenBabel10232407513D

 61 67  0  0  1  0  0  0  0  0999 V2000
  189.1610  172.9940  135.8160 C   0  0  0  0  0  0  0  0  0  0  0  0
  191.7260  173.0870  135.3350 C   0  0  0  0  0  3  0  0  0  0  0  0
  188.6020  171.7750  136.2940 N   0  0  0  0  0  1  0  0  0  0  0  0
  190.4440  173.0600  135.5870 C   0  0  0  0  0  0  0  0  0  0  0  0
  192.7400  173.4820  136.3350 C   0  0  0  0  0  0  0  0  0  0  0  0
  194.7000  174.2490  138.2090 C   0  0  0  0  0  0  0  0  0  0  0  0
  194.7790  173.0000  137.5800 C   0  0  0  0  0  3  0  0  0  0  0  0
  193.8070  172.6230  136.6480 C   0  0  0  0  0  3  0  0  0  0  0  0
  193.6460  175.1130  137.8950 C   0  0  0  0  0  3  0  0  0  0  0  0
  192.6590  174.7440  136.9660 C   0  0  0  0  0  0  0  0  0  0  0  0
  191.5630  175.6790  136.6270 C   0  0  0  0  0  3  0  0  0  0  0  0
  190.0150  176.7790  138.4230 C   0  0  0  0  0  3  0  0  0  0  0  0
  190.7780  176.2120  137.5270 C   0  0  0  0  0  0  0  0  0  0  0  0
  191.7320  177.1500  140.1800 C   0  0  0  0  0  2  0  0  0  0  0  0
  190.3190  176.6880  139.8830 C   0  0  1  0  0  3  0  0  0  0  0  0
  190.5700  178.1010  140.4020 C   0  0  1  0  0  3  0  0  0  0  0  0
  190.2570  178.1850  141.8320 N   0  0  2  0  0  0  0  0  0  0  0  0
  190.6720  176.9370  143.9100 C   0  0  0  0  0  0  0  0  0  0  0  0
  190.9800  177.0630  142.4490 C   0  0  0  0  0  2  0  0  0  0  0  0
  186.5160  177.3530  144.9520 C   0  0  0  0  0  3  0  0  0  0  0  0
  188.9080  177.0140  145.7410 C   0  0  0  0  0  2  0  0  0  0  0  0
  186.9780  177.8810  143.8060 C   0  0  0  0  0  3  0  0  0  0  0  0
  189.2120  176.8730  144.2510 C   0  0  1  0  0  3  0  0  0  0  0  0
  188.7990  178.0020  142.0210 C   0  0  1  0  0  3  0  0  0  0  0  0
  191.5610  176.2940  144.6680 C   0  0  0  0  0  2  0  0  0  0  0  0
  187.4260  176.7230  145.9870 C   0  0  0  0  0  2  0  0  0  0  0  0
  188.4590  177.9840  143.5230 C   0  0  1  0  0  3  0  0  0  0  0  0
  188.0160  179.1380  141.3580 C   0  0  0  0  0  2  0  0  0  0  0  0
  187.5570  178.7130  140.0390 N   0  0  0  0  0  2  0  0  0  0  0  0
  186.1400  178.3280  140.0750 C   0  0  0  0  0  3  0  0  0  0  0  0
  185.5060  178.3750  138.6990 C   0  0  0  0  0  1  0  0  0  0  0  0
  185.3490  179.1500  141.0710 C   0  0  0  0  0  1  0  0  0  0  0  0
  195.3930  175.6480  140.0580 N   0  0  0  0  0  1  0  0  0  0  0  0
  195.6540  174.6500  139.1460 O   0  0  0  0  0  0  0  0  0  0  0  0
  188.2740  174.0340  135.2870 C   0  0  0  0  0  0  0  0  0  0  0  0
  188.6950  174.7630  134.3460 O   0  0  0  0  0  0  0  0  0  0  0  0
  185.8120  173.0890  137.7070 C   0  0  0  0  0  3  0  0  0  0  0  0
  186.8940  174.2000  135.7920 C   0  0  0  0  0  0  0  0  0  0  0  0
  184.5600  172.8920  137.2870 C   0  0  0  0  0  3  0  0  0  0  0  0
  183.8420  173.7290  136.2950 C   0  0  0  0  0  0  0  0  0  0  0  0
  186.6380  174.2490  137.2670 C   0  0  0  0  0  2  0  0  0  0  0  0
  184.4440  174.3280  135.2540 C   0  0  0  0  0  3  0  0  0  0  0  0
  185.8830  174.3040  134.9210 C   0  0  0  0  0  3  0  0  0  0  0  0
  181.7310  172.7910  136.8290 O   0  0  0  0  0  0  0  0  0  0  0  0
  182.3700  173.7710  136.3600 C   0  0  0  0  0  0  0  0  0  0  0  0
  181.6820  174.8900  135.8760 O   0  0  0  0  0  0  0  0  0  0  0  0
  180.6690  175.5520  136.6240 C   0  0  0  0  0  2  0  0  0  0  0  0
  180.4240  177.4660  138.2420 C   0  0  2  0  0  3  0  0  0  0  0  0
  181.0570  176.9980  136.9220 C   0  0  2  0  0  3  0  0  0  0  0  0
  180.4780  180.1730  134.8580 C   0  0  0  0  0  1  0  0  0  0  0  0
  182.0830  179.3280  138.9570 C   0  0  0  0  0  2  0  0  0  0  0  0
  181.0660  181.1740  137.7020 C   0  0  2  0  0  3  0  0  0  0  0  0
  180.9500  179.3330  136.0290 C   0  0  1  0  0  3  0  0  0  0  0  0
  180.6710  178.9640  138.5310 C   0  0  1  0  0  3  0  0  0  0  0  0
  180.1870  182.0020  138.3990 O   0  0  0  0  0  1  0  0  0  0  0  0
  180.3600  179.8730  137.3460 C   0  0  1  0  0  3  0  0  0  0  0  0
  180.5560  177.8820  135.7880 C   0  0  0  0  0  2  0  0  0  0  0  0
  182.2360  180.8010  138.6110 C   0  0  0  0  0  2  0  0  0  0  0  0
  182.0980  175.9520  139.4430 C   0  0  0  0  0  1  0  0  0  0  0  0
  180.6950  176.5340  139.4370 C   0  0  1  0  0  3  0  0  0  0  0  0
  180.4430  177.1940  140.6420 O   0  0  0  0  0  1  0  0  0  0  0  0
  1  3  1  0  0  0  0
  2  4  2  0  0  0  0
  2  5  1  0  0  0  0
  4  1  2  0  0  0  0
  5  8  2  0  0  0  0
  5 10  1  0  0  0  0
  6 34  1  0  0  0  0
  7  6  2  0  0  0  0
  8  7  1  0  0  0  0
  9  6  1  0  0  0  0
 10  9  2  0  0  0  0
 11 10  1  0  0  0  0
 11 13  2  0  0  0  0
 13 12  2  0  0  0  0
 15 12  1  6  0  0  0
 15 14  1  0  0  0  0
 15 16  1  0  0  0  0
 16 14  1  1  0  0  0
 16 17  1  0  0  0  0
 17 24  1  0  0  0  0
 17 19  1  1  0  0  0
 18 23  1  0  0  0  0
 18 25  2  0  0  0  0
 19 18  1  0  0  0  0
 20 26  1  0  0  0  0
 21 26  1  0  0  0  0
 22 20  2  0  0  0  0
 23 21  1  1  0  0  0
 24 28  1  6  0  0  0
 24 27  1  0  0  0  0
 27 22  1  6  0  0  0
 27 23  1  0  0  0  0
 29 30  1  0  0  0  0
 29 28  1  0  0  0  0
 30 32  1  0  0  0  0
 31 30  1  0  0  0  0
 34 33  1  0  0  0  0
 35 38  1  0  0  0  0
 35  1  1  0  0  0  0
 36 35  2  0  0  0  0
 38 41  1  0  0  0  0
 39 37  2  0  0  0  0
 40 45  1  0  0  0  0
 40 39  1  0  0  0  0
 41 37  1  0  0  0  0
 42 40  2  0  0  0  0
 43 42  1  0  0  0  0
 43 38  2  0  0  0  0
 45 44  2  0  0  0  0
 46 45  1  0  0  0  0
 46 47  1  0  0  0  0
 48 54  1  0  0  0  0
 48 60  1  1  0  0  0
 49 47  1  6  0  0  0
 49 48  1  0  0  0  0
 52 55  1  1  0  0  0
 52 58  1  0  0  0  0
 53 50  1  6  0  0  0
 53 56  1  0  0  0  0
 54 51  1  6  0  0  0
 56 52  1  0  0  0  0
 56 54  1  0  0  0  0
 57 53  1  0  0  0  0
 57 49  1  0  0  0  0
 58 51  1  0  0  0  0
 60 59  1  0  0  0  0
 60 61  1  0  0  0  0
M  END
>  <MODEL>
4

>  <REMARK>
 VINA RESULT:      -6.6      3.081     11.435
  Name = 
  15 active torsions:
  status: ('A' for Active; 'I' for Inactive)
    1  A    between atoms: N_1  and  C_28
    2  A    between atoms: C_2  and  C_47
    3  A    between atoms: C_3  and  C_59
    4  A    between atoms: C_4  and  C_54
    5  A    between atoms: C_9  and  C_49
    6  A    between atoms: C_10  and  C_16
    7  A    between atoms: C_15  and  C_49
    8  A    between atoms: C_20  and  N_23
    9  A    between atoms: C_21  and  C_24
   10  A    between atoms: N_23  and  C_27
   11  A    between atoms: C_24  and  O_42
   12  A    between atoms: C_25  and  C_31
   13  A    between atoms: C_26  and  O_33
   14  A    between atoms: C_27  and  C_39
   15  A    between atoms: O_42  and  C_59
                            x       y       z     vdW  Elec       q    Type
                         _______ _______ _______ _____ _____    ______ ____

>  <TORSDO>
F 15

$$$$
=
 OpenBabel10232407513D

 61 67  0  0  1  0  0  0  0  0999 V2000
  192.5220  175.8000  136.5850 C   0  0  0  0  0  0  0  0  0  0  0  0
  190.2690  176.8460  135.7760 C   0  0  0  0  0  3  0  0  0  0  0  0
  193.6450  176.6560  136.7620 N   0  0  0  0  0  1  0  0  0  0  0  0
  191.3850  176.3110  136.1970 C   0  0  0  0  0  0  0  0  0  0  0  0
  189.2250  177.3620  136.6860 C   0  0  0  0  0  0  0  0  0  0  0  0
  187.2070  178.3110  138.4080 C   0  0  0  0  0  0  0  0  0  0  0  0
  187.1670  178.6170  137.0420 C   0  0  0  0  0  3  0  0  0  0  0  0
  188.1670  178.1420  136.1890 C   0  0  0  0  0  3  0  0  0  0  0  0
  188.2520  177.5270  138.9080 C   0  0  0  0  0  3  0  0  0  0  0  0
  189.2680  177.0490  138.0630 C   0  0  0  0  0  0  0  0  0  0  0  0
  190.3540  176.2010  138.6030 C   0  0  0  0  0  3  0  0  0  0  0  0
  191.4700  176.6160  140.9290 C   0  0  0  0  0  3  0  0  0  0  0  0
  190.9230  176.4240  139.7590 C   0  0  0  0  0  0  0  0  0  0  0  0
  189.4140  177.7840  141.6920 C   0  0  0  0  0  2  0  0  0  0  0  0
  190.9020  177.5890  141.9100 C   0  0  1  0  0  3  0  0  0  0  0  0
  189.8940  176.8460  142.7840 C   0  0  1  0  0  3  0  0  0  0  0  0
  189.7730  177.4950  144.0920 N   0  0  2  0  0  0  0  0  0  0  0  0
  190.6120  177.2370  146.3900 C   0  0  0  0  0  0  0  0  0  0  0  0
  190.6990  176.7650  144.9700 C   0  0  0  0  0  2  0  0  0  0  0  0
  186.6200  177.8360  147.8820 C   0  0  0  0  0  3  0  0  0  0  0  0
  189.1210  177.9720  148.3130 C   0  0  0  0  0  2  0  0  0  0  0  0
  186.8550  177.8670  146.5590 C   0  0  0  0  0  3  0  0  0  0  0  0
  189.2310  177.2460  146.9750 C   0  0  1  0  0  3  0  0  0  0  0  0
  188.3860  177.3340  144.5880 C   0  0  1  0  0  3  0  0  0  0  0  0
  191.6650  177.0090  147.1740 C   0  0  0  0  0  2  0  0  0  0  0  0
  187.7310  177.7360  148.9080 C   0  0  0  0  0  2  0  0  0  0  0  0
  188.2610  177.9190  146.0070 C   0  0  1  0  0  3  0  0  0  0  0  0
  187.3930  178.0550  143.6740 C   0  0  0  0  0  2  0  0  0  0  0  0
  186.1380  177.3090  143.6280 N   0  0  0  0  0  2  0  0  0  0  0  0
  185.0320  178.1690  143.1850 C   0  0  0  0  0  3  0  0  0  0  0  0
  185.4930  179.2130  142.1870 C   0  0  0  0  0  1  0  0  0  0  0  0
  184.3030  178.8090  144.3480 C   0  0  0  0  0  1  0  0  0  0  0  0
  184.9770  179.1470  138.8360 N   0  0  0  0  0  1  0  0  0  0  0  0
  186.2240  178.7750  139.2840 O   0  0  0  0  0  0  0  0  0  0  0  0
  192.7240  174.3490  136.5220 C   0  0  0  0  0  0  0  0  0  0  0  0
  193.8970  173.8980  136.6550 O   0  0  0  0  0  0  0  0  0  0  0  0
  190.8300  172.2320  134.3470 C   0  0  0  0  0  3  0  0  0  0  0  0
  191.5860  173.4180  136.3690 C   0  0  0  0  0  0  0  0  0  0  0  0
  189.4990  172.2480  134.4540 C   0  0  0  0  0  3  0  0  0  0  0  0
  188.7380  172.2940  135.7270 C   0  0  0  0  0  0  0  0  0  0  0  0
  191.7350  172.1870  135.5290 C   0  0  0  0  0  2  0  0  0  0  0  0
  189.1610  172.9460  136.8220 C   0  0  0  0  0  3  0  0  0  0  0  0
  190.4290  173.6870  136.9860 C   0  0  0  0  0  3  0  0  0  0  0  0
  187.0840  170.7610  134.9940 O   0  0  0  0  0  0  0  0  0  0  0  0
  187.3730  171.7360  135.7380 C   0  0  0  0  0  0  0  0  0  0  0  0
  186.3940  172.3080  136.5590 O   0  0  0  0  0  0  0  0  0  0  0  0
  185.0200  172.3640  136.1900 C   0  0  0  0  0  2  0  0  0  0  0  0
  182.8760  173.6460  136.5080 C   0  0  2  0  0  3  0  0  0  0  0  0
  184.4100  173.7200  136.5350 C   0  0  2  0  0  3  0  0  0  0  0  0
  184.8410  177.1170  134.8160 C   0  0  0  0  0  1  0  0  0  0  0  0
  182.2540  175.5700  138.1330 C   0  0  0  0  0  2  0  0  0  0  0  0
  182.2900  177.4010  136.5020 C   0  0  2  0  0  3  0  0  0  0  0  0
  184.3170  176.1200  135.8300 C   0  0  1  0  0  3  0  0  0  0  0  0
  182.2010  175.0200  136.7180 C   0  0  1  0  0  3  0  0  0  0  0  0
  181.0660  177.7770  135.9470 O   0  0  0  0  0  1  0  0  0  0  0  0
  182.7760  176.1230  135.8340 C   0  0  1  0  0  3  0  0  0  0  0  0
  184.8770  174.7410  135.5060 C   0  0  0  0  0  2  0  0  0  0  0  0
  182.0940  177.0740  137.9810 C   0  0  0  0  0  2  0  0  0  0  0  0
  180.7830  172.3470  137.1970 C   0  0  0  0  0  1  0  0  0  0  0  0
  182.2850  172.5090  137.3620 C   0  0  1  0  0  3  0  0  0  0  0  0
  182.9310  171.3010  137.0880 O   0  0  0  0  0  1  0  0  0  0  0  0
  1  3  1  0  0  0  0
  2  4  2  0  0  0  0
  2  5  1  0  0  0  0
  4  1  2  0  0  0  0
  5 10  1  0  0  0  0
  6  9  1  0  0  0  0
  6 34  1  0  0  0  0
  7  6  2  0  0  0  0
  8  5  2  0  0  0  0
  8  7  1  0  0  0  0
 10 11  1  0  0  0  0
 10  9  2  0  0  0  0
 11 13  2  0  0  0  0
 13 12  2  0  0  0  0
 14 15  1  0  0  0  0
 15 12  1  6  0  0  0
 15 16  1  0  0  0  0
 16 14  1  6  0  0  0
 16 17  1  0  0  0  0
 17 24  1  0  0  0  0
 17 19  1  1  0  0  0
 18 23  1  0  0  0  0
 18 25  2  0  0  0  0
 19 18  1  0  0  0  0
 20 26  1  0  0  0  0
 21 26  1  0  0  0  0
 22 20  2  0  0  0  0
 23 21  1  1  0  0  0
 24 28  1  6  0  0  0
 24 27  1  0  0  0  0
 27 22  1  1  0  0  0
 27 23  1  0  0  0  0
 29 28  1  0  0  0  0
 30 29  1  0  0  0  0
 30 32  1  0  0  0  0
 31 30  1  0  0  0  0
 33 34  1  0  0  0  0
 35  1  1  0  0  0  0
 35 36  2  0  0  0  0
 37 39  2  0  0  0  0
 37 41  1  0  0  0  0
 38 35  1  0  0  0  0
 38 43  2  0  0  0  0
 39 40  1  0  0  0  0
 40 45  1  0  0  0  0
 40 42  2  0  0  0  0
 41 38  1  0  0  0  0
 42 43  1  0  0  0  0
 44 45  2  0  0  0  0
 45 46  1  0  0  0  0
 47 46  1  0  0  0  0
 48 49  1  0  0  0  0
 48 54  1  0  0  0  0
 48 60  1  1  0  0  0
 49 47  1  6  0  0  0
 52 55  1  6  0  0  0
 52 58  1  0  0  0  0
 53 50  1  6  0  0  0
 53 56  1  0  0  0  0
 54 51  1  1  0  0  0
 56 52  1  0  0  0  0
 56 54  1  0  0  0  0
 57 53  1  0  0  0  0
 57 49  1  0  0  0  0
 58 51  1  0  0  0  0
 59 60  1  0  0  0  0
 61 60  1  0  0  0  0
M  END
>  <MODEL>
5

>  <REMARK>
 VINA RESULT:      -6.1      2.760     10.058
  Name = 
  15 active torsions:
  status: ('A' for Active; 'I' for Inactive)
    1  A    between atoms: N_1  and  C_28
    2  A    between atoms: C_2  and  C_47
    3  A    between atoms: C_3  and  C_59
    4  A    between atoms: C_4  and  C_54
    5  A    between atoms: C_9  and  C_49
    6  A    between atoms: C_10  and  C_16
    7  A    between atoms: C_15  and  C_49
    8  A    between atoms: C_20  and  N_23
    9  A    between atoms: C_21  and  C_24
   10  A    between atoms: N_23  and  C_27
   11  A    between atoms: C_24  and  O_42
   12  A    between atoms: C_25  and  C_31
   13  A    between atoms: C_26  and  O_33
   14  A    between atoms: C_27  and  C_39
   15  A    between atoms: O_42  and  C_59
                            x       y       z     vdW  Elec       q    Type
                         _______ _______ _______ _____ _____    ______ ____

>  <TORSDO>
F 15

$$$$
=
 OpenBabel10232407513D

 61 67  0  0  1  0  0  0  0  0999 V2000
  193.5310  175.6490  138.1900 C   0  0  0  0  0  0  0  0  0  0  0  0
  192.1070  177.5250  139.3200 C   0  0  0  0  0  3  0  0  0  0  0  0
  194.8500  175.4130  138.6710 N   0  0  0  0  0  1  0  0  0  0  0  0
  192.8020  176.5720  138.7550 C   0  0  0  0  0  0  0  0  0  0  0  0
  191.2130  177.3000  140.4750 C   0  0  0  0  0  0  0  0  0  0  0  0
  189.5000  176.9160  142.6790 C   0  0  0  0  0  0  0  0  0  0  0  0
  190.8240  177.3230  142.8800 C   0  0  0  0  0  3  0  0  0  0  0  0
  191.6720  177.5170  141.7860 C   0  0  0  0  0  3  0  0  0  0  0  0
  189.0340  176.7080  141.3760 C   0  0  0  0  0  3  0  0  0  0  0  0
  189.8770  176.8920  140.2670 C   0  0  0  0  0  0  0  0  0  0  0  0
  189.3630  176.6900  138.8940 C   0  0  0  0  0  3  0  0  0  0  0  0
  187.1140  177.7150  138.0450 C   0  0  0  0  0  3  0  0  0  0  0  0
  188.2270  177.1880  138.4790 C   0  0  0  0  0  0  0  0  0  0  0  0
  185.3060  179.4190  137.9970 C   0  0  0  0  0  2  0  0  0  0  0  0
  186.3670  178.7370  138.8390 C   0  0  1  0  0  3  0  0  0  0  0  0
  184.9100  178.2920  138.9320 C   0  0  1  0  0  3  0  0  0  0  0  0
  184.2840  178.8380  140.1390 N   0  0  2  0  0  0  0  0  0  0  0  0
  184.3940  178.5760  142.5820 C   0  0  0  0  0  0  0  0  0  0  0  0
  184.9950  178.2060  141.2600 C   0  0  0  0  0  2  0  0  0  0  0  0
  180.0940  178.4780  142.7360 C   0  0  0  0  0  3  0  0  0  0  0  0
  182.2790  178.9640  143.9390 C   0  0  0  0  0  2  0  0  0  0  0  0
  180.7220  178.6210  141.5570 C   0  0  0  0  0  3  0  0  0  0  0  0
  182.9170  178.3420  142.7000 C   0  0  1  0  0  3  0  0  0  0  0  0
  182.8560  178.4410  140.1680 C   0  0  1  0  0  3  0  0  0  0  0  0
  185.1730  178.4640  143.6590 C   0  0  0  0  0  2  0  0  0  0  0  0
  180.8310  178.4860  144.0600 C   0  0  0  0  0  2  0  0  0  0  0  0
  182.2020  178.9170  141.4790 C   0  0  1  0  0  3  0  0  0  0  0  0
  182.0950  179.0550  138.9920 C   0  0  0  0  0  2  0  0  0  0  0  0
  182.0420  180.5070  139.1470 N   0  0  0  0  0  2  0  0  0  0  0  0
  181.5350  181.1460  137.9260 C   0  0  0  0  0  3  0  0  0  0  0  0
  180.8960  182.4900  138.2150 C   0  0  0  0  0  1  0  0  0  0  0  0
  180.5900  180.2440  137.1580 C   0  0  0  0  0  1  0  0  0  0  0  0
  187.8700  177.7360  144.2690 N   0  0  0  0  0  1  0  0  0  0  0  0
  188.6320  176.7120  143.7530 O   0  0  0  0  0  0  0  0  0  0  0  0
  193.1290  175.1000  136.8920 C   0  0  0  0  0  0  0  0  0  0  0  0
  193.8040  175.4120  135.8710 O   0  0  0  0  0  0  0  0  0  0  0  0
  191.4290  172.6680  134.8920 C   0  0  0  0  0  3  0  0  0  0  0  0
  191.9990  174.1540  136.7720 C   0  0  0  0  0  0  0  0  0  0  0  0
  190.0940  172.6970  134.8650 C   0  0  0  0  0  3  0  0  0  0  0  0
  189.2130  172.9380  136.0330 C   0  0  0  0  0  0  0  0  0  0  0  0
  192.2130  172.8080  136.1510 C   0  0  0  0  0  2  0  0  0  0  0  0
  189.5350  173.7520  137.0520 C   0  0  0  0  0  3  0  0  0  0  0  0
  190.7910  174.5120  137.2230 C   0  0  0  0  0  3  0  0  0  0  0  0
  187.2780  172.0340  137.0650 O   0  0  0  0  0  0  0  0  0  0  0  0
  187.8470  172.3840  135.9960 C   0  0  0  0  0  0  0  0  0  0  0  0
  187.1930  172.2260  134.7680 O   0  0  0  0  0  0  0  0  0  0  0  0
  185.7820  172.0740  134.6640 C   0  0  0  0  0  2  0  0  0  0  0  0
  183.5310  173.0920  135.1530 C   0  0  2  0  0  3  0  0  0  0  0  0
  185.0490  173.2190  135.3570 C   0  0  2  0  0  3  0  0  0  0  0  0
  185.3710  177.0030  134.8530 C   0  0  0  0  0  1  0  0  0  0  0  0
  182.6420  174.3630  137.2320 C   0  0  0  0  0  2  0  0  0  0  0  0
  182.6770  176.6220  136.2770 C   0  0  2  0  0  3  0  0  0  0  0  0
  184.8400  175.7120  135.4420 C   0  0  1  0  0  3  0  0  0  0  0  0
  182.7440  174.2960  135.7180 C   0  0  1  0  0  3  0  0  0  0  0  0
  181.4790  177.1030  135.7500 O   0  0  0  0  0  1  0  0  0  0  0  0
  183.3080  175.6480  135.2910 C   0  0  1  0  0  3  0  0  0  0  0  0
  185.5230  174.5360  134.7560 C   0  0  0  0  0  2  0  0  0  0  0  0
  182.3850  175.8280  137.5490 C   0  0  0  0  0  2  0  0  0  0  0  0
  183.3460  171.2710  136.9390 C   0  0  0  0  0  1  0  0  0  0  0  0
  182.9570  171.7170  135.5400 C   0  0  1  0  0  3  0  0  0  0  0  0
  181.5660  171.7090  135.4030 O   0  0  0  0  0  1  0  0  0  0  0  0
  1  3  1  0  0  0  0
  1  4  2  0  0  0  0
  2  5  1  0  0  0  0
  4  2  2  0  0  0  0
  5  8  1  0  0  0  0
  6  7  1  0  0  0  0
  6 34  1  0  0  0  0
  8  7  2  0  0  0  0
  9  6  2  0  0  0  0
 10  5  2  0  0  0  0
 10  9  1  0  0  0  0
 11 10  1  0  0  0  0
 12 13  2  0  0  0  0
 13 11  2  0  0  0  0
 14 15  1  0  0  0  0
 15 12  1  6  0  0  0
 15 16  1  0  0  0  0
 16 14  1  6  0  0  0
 16 17  1  0  0  0  0
 17 24  1  0  0  0  0
 17 19  1  1  0  0  0
 18 23  1  0  0  0  0
 18 25  2  0  0  0  0
 19 18  1  0  0  0  0
 20 26  1  0  0  0  0
 21 26  1  0  0  0  0
 22 20  2  0  0  0  0
 23 21  1  1  0  0  0
 24 28  1  6  0  0  0
 24 27  1  0  0  0  0
 27 22  1  6  0  0  0
 27 23  1  0  0  0  0
 28 29  1  0  0  0  0
 30 31  1  0  0  0  0
 30 29  1  0  0  0  0
 32 30  1  0  0  0  0
 34 33  1  0  0  0  0
 35  1  1  0  0  0  0
 36 35  2  0  0  0  0
 37 41  1  0  0  0  0
 38 35  1  0  0  0  0
 38 43  2  0  0  0  0
 39 37  2  0  0  0  0
 39 40  1  0  0  0  0
 40 42  2  0  0  0  0
 41 38  1  0  0  0  0
 42 43  1  0  0  0  0
 45 40  1  0  0  0  0
 45 44  2  0  0  0  0
 46 45  1  0  0  0  0
 47 46  1  0  0  0  0
 48 49  1  0  0  0  0
 48 60  1  1  0  0  0
 48 54  1  0  0  0  0
 49 47  1  6  0  0  0
 51 58  1  0  0  0  0
 52 55  1  6  0  0  0
 52 58  1  0  0  0  0
 53 50  1  6  0  0  0
 54 51  1  1  0  0  0
 56 53  1  0  0  0  0
 56 54  1  0  0  0  0
 56 52  1  0  0  0  0
 57 49  1  0  0  0  0
 57 53  1  0  0  0  0
 60 59  1  0  0  0  0
 61 60  1  0  0  0  0
M  END
>  <MODEL>
6

>  <REMARK>
 VINA RESULT:      -6.1      2.842      8.623
  Name = 
  15 active torsions:
  status: ('A' for Active; 'I' for Inactive)
    1  A    between atoms: N_1  and  C_28
    2  A    between atoms: C_2  and  C_47
    3  A    between atoms: C_3  and  C_59
    4  A    between atoms: C_4  and  C_54
    5  A    between atoms: C_9  and  C_49
    6  A    between atoms: C_10  and  C_16
    7  A    between atoms: C_15  and  C_49
    8  A    between atoms: C_20  and  N_23
    9  A    between atoms: C_21  and  C_24
   10  A    between atoms: N_23  and  C_27
   11  A    between atoms: C_24  and  O_42
   12  A    between atoms: C_25  and  C_31
   13  A    between atoms: C_26  and  O_33
   14  A    between atoms: C_27  and  C_39
   15  A    between atoms: O_42  and  C_59
                            x       y       z     vdW  Elec       q    Type
                         _______ _______ _______ _____ _____    ______ ____

>  <TORSDO>
F 15

$$$$
=
 OpenBabel10232407513D

 61 67  0  0  1  0  0  0  0  0999 V2000
  186.3300  178.9750  146.7800 C   0  0  0  0  0  0  0  0  0  0  0  0
  185.3500  179.5810  144.4360 C   0  0  0  0  0  3  0  0  0  0  0  0
  186.0860  179.8600  147.8680 N   0  0  0  0  0  1  0  0  0  0  0  0
  185.8330  179.2560  145.6060 C   0  0  0  0  0  0  0  0  0  0  0  0
  184.0170  179.1520  143.9620 C   0  0  0  0  0  0  0  0  0  0  0  0
  181.4640  178.3790  143.0550 C   0  0  0  0  0  0  0  0  0  0  0  0
  181.6590  178.7210  144.3990 C   0  0  0  0  0  3  0  0  0  0  0  0
  182.9260  179.1080  144.8470 C   0  0  0  0  0  3  0  0  0  0  0  0
  182.5440  178.4310  142.1680 C   0  0  0  0  0  3  0  0  0  0  0  0
  183.8240  178.8110  142.6060 C   0  0  0  0  0  0  0  0  0  0  0  0
  184.9510  178.8830  141.6490 C   0  0  0  0  0  3  0  0  0  0  0  0
  184.7850  178.0520  139.1770 C   0  0  0  0  0  3  0  0  0  0  0  0
  184.8700  178.4480  140.4190 C   0  0  0  0  0  0  0  0  0  0  0  0
  183.2450  178.4340  137.2640 C   0  0  0  0  0  2  0  0  0  0  0  0
  183.4760  177.6810  138.5600 C   0  0  1  0  0  3  0  0  0  0  0  0
  183.7580  177.0070  137.2200 C   0  0  1  0  0  3  0  0  0  0  0  0
  182.6680  176.0930  136.8660 N   0  0  2  0  0  0  0  0  0  0  0  0
  180.9320  174.7430  137.9660 C   0  0  0  0  0  0  0  0  0  0  0  0
  182.0110  175.7680  138.1400 C   0  0  0  0  0  2  0  0  0  0  0  0
  181.9510  171.4190  135.4280 C   0  0  0  0  0  3  0  0  0  0  0  0
  180.1950  172.5780  136.8540 C   0  0  0  0  0  2  0  0  0  0  0  0
  182.6080  172.5850  135.3060 C   0  0  0  0  0  3  0  0  0  0  0  0
  181.3520  173.4880  137.2580 C   0  0  1  0  0  3  0  0  0  0  0  0
  183.2410  174.8610  136.2730 C   0  0  1  0  0  3  0  0  0  0  0  0
  179.9820  174.6920  138.9000 C   0  0  0  0  0  2  0  0  0  0  0  0
  180.7500  171.2490  136.3370 C   0  0  0  0  0  2  0  0  0  0  0  0
  182.1210  173.8430  135.9870 C   0  0  1  0  0  3  0  0  0  0  0  0
  183.9630  175.1720  134.9600 C   0  0  0  0  0  2  0  0  0  0  0  0
  185.2960  174.5770  134.9810 N   0  0  0  0  0  2  0  0  0  0  0  0
  185.4980  173.7830  136.2010 C   0  0  0  0  0  3  0  0  0  0  0  0
  186.2050  174.5760  137.2820 C   0  0  0  0  0  1  0  0  0  0  0  0
  186.2140  172.4780  135.9220 C   0  0  0  0  0  1  0  0  0  0  0  0
  179.9950  177.7250  141.2480 N   0  0  0  0  0  1  0  0  0  0  0  0
  180.2110  177.9860  142.5820 O   0  0  0  0  0  0  0  0  0  0  0  0
  187.3770  177.9570  146.9000 C   0  0  0  0  0  0  0  0  0  0  0  0
  187.5850  177.4360  148.0320 O   0  0  0  0  0  0  0  0  0  0  0  0
  190.2030  178.4390  144.7570 C   0  0  0  0  0  3  0  0  0  0  0  0
  188.1410  177.4950  145.7210 C   0  0  0  0  0  0  0  0  0  0  0  0
  190.0270  178.2940  143.4420 C   0  0  0  0  0  3  0  0  0  0  0  0
  189.2100  177.2400  142.7920 C   0  0  0  0  0  0  0  0  0  0  0  0
  189.6390  177.4880  145.7560 C   0  0  0  0  0  2  0  0  0  0  0  0
  188.0870  176.7350  143.3280 C   0  0  0  0  0  3  0  0  0  0  0  0
  187.4830  177.0860  144.6300 C   0  0  0  0  0  3  0  0  0  0  0  0
  190.2730  175.8270  141.2110 O   0  0  0  0  0  0  0  0  0  0  0  0
  189.5580  176.8450  141.4150 C   0  0  0  0  0  0  0  0  0  0  0  0
  189.1130  177.6170  140.3360 O   0  0  0  0  0  0  0  0  0  0  0  0
  188.9770  177.0920  139.0200 C   0  0  0  0  0  2  0  0  0  0  0  0
  190.4620  175.4830  137.7750 C   0  0  2  0  0  3  0  0  0  0  0  0
  190.3390  176.9000  138.3580 C   0  0  2  0  0  3  0  0  0  0  0  0
  193.8570  177.2070  139.8420 C   0  0  0  0  0  1  0  0  0  0  0  0
  192.2080  175.8660  135.8960 C   0  0  0  0  0  2  0  0  0  0  0  0
  194.2270  175.5840  137.2610 C   0  0  2  0  0  3  0  0  0  0  0  0
  192.8050  176.9510  138.7810 C   0  0  1  0  0  3  0  0  0  0  0  0
  191.8680  175.1830  137.2090 C   0  0  1  0  0  3  0  0  0  0  0  0
  194.8240  174.3240  137.2500 O   0  0  0  0  0  1  0  0  0  0  0  0
  193.0000  175.5530  138.1630 C   0  0  1  0  0  3  0  0  0  0  0  0
  191.4240  177.1020  139.4060 C   0  0  0  0  0  2  0  0  0  0  0  0
  193.7270  175.9170  135.8560 C   0  0  0  0  0  2  0  0  0  0  0  0
  188.9980  176.1170  135.7760 C   0  0  0  0  0  1  0  0  0  0  0  0
  189.3020  175.0810  136.8450 C   0  0  1  0  0  3  0  0  0  0  0  0
  189.5530  173.8410  136.2540 O   0  0  0  0  0  1  0  0  0  0  0  0
  1 35  1  0  0  0  0
  1  3  1  0  0  0  0
  2  4  2  0  0  0  0
  4  1  2  0  0  0  0
  5  2  1  0  0  0  0
  5  8  1  0  0  0  0
  6  7  1  0  0  0  0
  7  8  2  0  0  0  0
  9 10  1  0  0  0  0
  9  6  2  0  0  0  0
 10  5  2  0  0  0  0
 11 10  1  0  0  0  0
 12 13  2  0  0  0  0
 13 11  2  0  0  0  0
 14 15  1  0  0  0  0
 15 12  1  1  0  0  0
 16 14  1  6  0  0  0
 16 15  1  0  0  0  0
 17 16  1  0  0  0  0
 17 19  1  1  0  0  0
 18 19  1  0  0  0  0
 18 25  2  0  0  0  0
 20 26  1  0  0  0  0
 22 20  2  0  0  0  0
 23 21  1  6  0  0  0
 23 18  1  0  0  0  0
 24 28  1  6  0  0  0
 24 17  1  0  0  0  0
 26 21  1  0  0  0  0
 27 22  1  1  0  0  0
 27 24  1  0  0  0  0
 27 23  1  0  0  0  0
 28 29  1  0  0  0  0
 29 30  1  0  0  0  0
 30 31  1  0  0  0  0
 32 30  1  0  0  0  0
 33 34  1  0  0  0  0
 34  6  1  0  0  0  0
 35 36  2  0  0  0  0
 37 41  1  0  0  0  0
 38 41  1  0  0  0  0
 38 35  1  0  0  0  0
 39 37  2  0  0  0  0
 40 42  2  0  0  0  0
 40 39  1  0  0  0  0
 42 43  1  0  0  0  0
 43 38  2  0  0  0  0
 44 45  2  0  0  0  0
 45 40  1  0  0  0  0
 46 45  1  0  0  0  0
 47 46  1  0  0  0  0
 48 60  1  6  0  0  0
 48 49  1  0  0  0  0
 49 47  1  1  0  0  0
 49 57  1  0  0  0  0
 52 55  1  6  0  0  0
 52 56  1  0  0  0  0
 53 57  1  0  0  0  0
 53 50  1  1  0  0  0
 54 51  1  6  0  0  0
 54 48  1  0  0  0  0
 54 56  1  0  0  0  0
 56 53  1  0  0  0  0
 58 51  1  0  0  0  0
 58 52  1  0  0  0  0
 59 60  1  0  0  0  0
 61 60  1  0  0  0  0
M  END
>  <MODEL>
7

>  <REMARK>
 VINA RESULT:      -6.1      1.701      2.348
  Name = 
  15 active torsions:
  status: ('A' for Active; 'I' for Inactive)
    1  A    between atoms: N_1  and  C_28
    2  A    between atoms: C_2  and  C_47
    3  A    between atoms: C_3  and  C_59
    4  A    between atoms: C_4  and  C_54
    5  A    between atoms: C_9  and  C_49
    6  A    between atoms: C_10  and  C_16
    7  A    between atoms: C_15  and  C_49
    8  A    between atoms: C_20  and  N_23
    9  A    between atoms: C_21  and  C_24
   10  A    between atoms: N_23  and  C_27
   11  A    between atoms: C_24  and  O_42
   12  A    between atoms: C_25  and  C_31
   13  A    between atoms: C_26  and  O_33
   14  A    between atoms: C_27  and  C_39
   15  A    between atoms: O_42  and  C_59
                            x       y       z     vdW  Elec       q    Type
                         _______ _______ _______ _____ _____    ______ ____

>  <TORSDO>
F 15

$$$$
=
 OpenBabel10232407513D

 61 67  0  0  1  0  0  0  0  0999 V2000
  191.1120  176.5320  144.1040 C   0  0  0  0  0  0  0  0  0  0  0  0
  189.9790  177.7100  146.1410 C   0  0  0  0  0  3  0  0  0  0  0  0
  191.3670  175.1340  144.1820 N   0  0  0  0  0  1  0  0  0  0  0  0
  190.5320  177.1320  145.1080 C   0  0  0  0  0  0  0  0  0  0  0  0
  188.5180  177.8600  146.3010 C   0  0  0  0  0  0  0  0  0  0  0  0
  185.7370  178.1900  146.6140 C   0  0  0  0  0  0  0  0  0  0  0  0
  186.5500  177.9770  147.7340 C   0  0  0  0  0  3  0  0  0  0  0  0
  187.9310  177.8180  147.5770 C   0  0  0  0  0  3  0  0  0  0  0  0
  186.3160  178.2430  145.3420 C   0  0  0  0  0  3  0  0  0  0  0  0
  187.7010  178.0770  145.1690 C   0  0  0  0  0  0  0  0  0  0  0  0
  188.3010  178.1590  143.8190 C   0  0  0  0  0  3  0  0  0  0  0  0
  186.8980  178.0220  141.6180 C   0  0  0  0  0  3  0  0  0  0  0  0
  187.5980  178.0710  142.7200 C   0  0  0  0  0  0  0  0  0  0  0  0
  184.9170  179.4100  142.1880 C   0  0  0  0  0  2  0  0  0  0  0  0
  185.4050  178.0850  141.6340 C   0  0  1  0  0  3  0  0  0  0  0  0
  184.9690  179.1990  140.6860 C   0  0  1  0  0  3  0  0  0  0  0  0
  183.6230  178.9350  140.1700 N   0  0  2  0  0  0  0  0  0  0  0  0
  181.4620  178.0590  140.9510 C   0  0  0  0  0  0  0  0  0  0  0  0
  182.8470  178.4840  141.3340 C   0  0  0  0  0  2  0  0  0  0  0  0
  181.1990  175.6290  137.4090 C   0  0  0  0  0  3  0  0  0  0  0  0
  179.9820  176.8270  139.2900 C   0  0  0  0  0  2  0  0  0  0  0  0
  182.2620  176.4310  137.5970 C   0  0  0  0  0  3  0  0  0  0  0  0
  181.3870  177.0470  139.8460 C   0  0  1  0  0  3  0  0  0  0  0  0
  183.6930  177.8470  139.1660 C   0  0  1  0  0  3  0  0  0  0  0  0
  180.5340  178.0680  141.9090 C   0  0  0  0  0  2  0  0  0  0  0  0
  179.9960  175.6360  138.3290 C   0  0  0  0  0  2  0  0  0  0  0  0
  182.2770  177.4810  138.6840 C   0  0  1  0  0  3  0  0  0  0  0  0
  184.5250  178.2740  137.9550 C   0  0  0  0  0  2  0  0  0  0  0  0
  185.9390  178.0190  138.2160 N   0  0  0  0  0  2  0  0  0  0  0  0
  186.5460  177.2590  137.1150 C   0  0  0  0  0  3  0  0  0  0  0  0
  185.5070  176.7640  136.1290 C   0  0  0  0  0  1  0  0  0  0  0  0
  187.4130  176.1210  137.6150 C   0  0  0  0  0  1  0  0  0  0  0  0
  183.5980  178.9000  145.7320 N   0  0  0  0  0  1  0  0  0  0  0  0
  184.3560  178.3490  146.7410 O   0  0  0  0  0  0  0  0  0  0  0  0
  191.7770  177.3290  143.0690 C   0  0  0  0  0  0  0  0  0  0  0  0
  192.3550  178.3990  143.4100 O   0  0  0  0  0  0  0  0  0  0  0  0
  193.4370  177.5000  139.9030 C   0  0  0  0  0  3  0  0  0  0  0  0
  191.8300  176.8740  141.6620 C   0  0  0  0  0  0  0  0  0  0  0  0
  192.6860  177.5580  138.8010 C   0  0  0  0  0  3  0  0  0  0  0  0
  191.4480  176.7770  138.5590 C   0  0  0  0  0  0  0  0  0  0  0  0
  193.1500  176.5640  141.0260 C   0  0  0  0  0  2  0  0  0  0  0  0
  190.5790  176.4440  139.5280 C   0  0  0  0  0  3  0  0  0  0  0  0
  190.6920  176.7440  140.9700 C   0  0  0  0  0  3  0  0  0  0  0  0
  190.2290  177.2300  136.5760 O   0  0  0  0  0  0  0  0  0  0  0  0
  191.0680  176.4950  137.1630 C   0  0  0  0  0  0  0  0  0  0  0  0
  191.6240  175.3950  136.4990 O   0  0  0  0  0  0  0  0  0  0  0  0
  193.0250  175.2430  136.3030 C   0  0  0  0  0  2  0  0  0  0  0  0
  195.0070  173.7250  136.6380 C   0  0  2  0  0  3  0  0  0  0  0  0
  193.4730  173.8140  136.6000 C   0  0  2  0  0  3  0  0  0  0  0  0
  192.7660  170.5700  134.6900 C   0  0  0  0  0  1  0  0  0  0  0  0
  195.3490  171.6700  138.1830 C   0  0  0  0  0  2  0  0  0  0  0  0
  195.1940  169.9330  136.4580 C   0  0  2  0  0  3  0  0  0  0  0  0
  193.3460  171.4550  135.7750 C   0  0  1  0  0  3  0  0  0  0  0  0
  195.5230  172.2780  136.8020 C   0  0  1  0  0  3  0  0  0  0  0  0
  196.3950  169.4550  135.9340 O   0  0  0  0  0  1  0  0  0  0  0  0
  194.8760  171.2870  135.8400 C   0  0  1  0  0  3  0  0  0  0  0  0
  192.9490  172.8990  135.5020 C   0  0  0  0  0  2  0  0  0  0  0  0
  195.3570  170.1660  137.9590 C   0  0  0  0  0  2  0  0  0  0  0  0
  195.9170  174.2190  138.9760 C   0  0  0  0  0  1  0  0  0  0  0  0
  195.6750  174.7500  137.5740 C   0  0  1  0  0  3  0  0  0  0  0  0
  196.8720  175.2120  137.0220 O   0  0  0  0  0  1  0  0  0  0  0  0
  1  3  1  0  0  0  0
  1  4  2  0  0  0  0
  2  5  1  0  0  0  0
  4  2  2  0  0  0  0
  5  8  1  0  0  0  0
  6 34  1  0  0  0  0
  6  7  1  0  0  0  0
  8  7  2  0  0  0  0
  9  6  2  0  0  0  0
 10  9  1  0  0  0  0
 10  5  2  0  0  0  0
 11 10  1  0  0  0  0
 12 13  2  0  0  0  0
 13 11  2  0  0  0  0
 15 12  1  6  0  0  0
 15 14  1  0  0  0  0
 16 15  1  0  0  0  0
 16 14  1  1  0  0  0
 17 16  1  0  0  0  0
 17 19  1  1  0  0  0
 18 19  1  0  0  0  0
 18 25  2  0  0  0  0
 20 22  2  0  0  0  0
 20 26  1  0  0  0  0
 23 21  1  6  0  0  0
 23 18  1  0  0  0  0
 24 28  1  6  0  0  0
 24 17  1  0  0  0  0
 26 21  1  0  0  0  0
 27 22  1  6  0  0  0
 27 24  1  0  0  0  0
 27 23  1  0  0  0  0
 28 29  1  0  0  0  0
 30 32  1  0  0  0  0
 30 29  1  0  0  0  0
 31 30  1  0  0  0  0
 33 34  1  0  0  0  0
 35 36  2  0  0  0  0
 35  1  1  0  0  0  0
 37 41  1  0  0  0  0
 38 35  1  0  0  0  0
 39 37  2  0  0  0  0
 40 39  1  0  0  0  0
 40 42  2  0  0  0  0
 41 38  1  0  0  0  0
 42 43  1  0  0  0  0
 43 38  2  0  0  0  0
 44 45  2  0  0  0  0
 45 40  1  0  0  0  0
 46 45  1  0  0  0  0
 47 46  1  0  0  0  0
 48 54  1  0  0  0  0
 48 60  1  1  0  0  0
 49 47  1  6  0  0  0
 49 48  1  0  0  0  0
 52 55  1  6  0  0  0
 52 58  1  0  0  0  0
 53 50  1  6  0  0  0
 53 56  1  0  0  0  0
 54 51  1  1  0  0  0
 56 52  1  0  0  0  0
 56 54  1  0  0  0  0
 57 53  1  0  0  0  0
 57 49  1  0  0  0  0
 58 51  1  0  0  0  0
 60 59  1  0  0  0  0
 61 60  1  0  0  0  0
M  END
>  <MODEL>
8

>  <REMARK>
 VINA RESULT:      -5.8      2.186      4.044
  Name = 
  15 active torsions:
  status: ('A' for Active; 'I' for Inactive)
    1  A    between atoms: N_1  and  C_28
    2  A    between atoms: C_2  and  C_47
    3  A    between atoms: C_3  and  C_59
    4  A    between atoms: C_4  and  C_54
    5  A    between atoms: C_9  and  C_49
    6  A    between atoms: C_10  and  C_16
    7  A    between atoms: C_15  and  C_49
    8  A    between atoms: C_20  and  N_23
    9  A    between atoms: C_21  and  C_24
   10  A    between atoms: N_23  and  C_27
   11  A    between atoms: C_24  and  O_42
   12  A    between atoms: C_25  and  C_31
   13  A    between atoms: C_26  and  O_33
   14  A    between atoms: C_27  and  C_39
   15  A    between atoms: O_42  and  C_59
                            x       y       z     vdW  Elec       q    Type
                         _______ _______ _______ _____ _____    ______ ____

>  <TORSDO>
F 15

$$$$
=
 OpenBabel10232407513D

 61 67  0  0  1  0  0  0  0  0999 V2000
  185.8780  177.6880  137.8330 C   0  0  0  0  0  0  0  0  0  0  0  0
  183.9270  178.2190  139.4860 C   0  0  0  0  0  3  0  0  0  0  0  0
  185.6630  176.7170  136.8150 N   0  0  0  0  0  1  0  0  0  0  0  0
  184.9070  177.9760  138.6560 C   0  0  0  0  0  0  0  0  0  0  0  0
  182.9140  179.2710  139.2570 C   0  0  0  0  0  0  0  0  0  0  0  0
  180.9640  181.2500  138.7900 C   0  0  0  0  0  0  0  0  0  0  0  0
  182.0670  181.1350  137.9350 C   0  0  0  0  0  3  0  0  0  0  0  0
  183.0320  180.1500  138.1660 C   0  0  0  0  0  3  0  0  0  0  0  0
  180.8350  180.3720  139.8720 C   0  0  0  0  0  3  0  0  0  0  0  0
  181.8020  179.3820  140.1200 C   0  0  0  0  0  0  0  0  0  0  0  0
  181.6400  178.4460  141.2550 C   0  0  0  0  0  3  0  0  0  0  0  0
  183.6020  177.7730  142.8440 C   0  0  0  0  0  3  0  0  0  0  0  0
  182.6280  178.0970  142.0360 C   0  0  0  0  0  0  0  0  0  0  0  0
  185.0470  179.4480  143.9750 C   0  0  0  0  0  2  0  0  0  0  0  0
  184.9160  178.4820  142.8130 C   0  0  1  0  0  3  0  0  0  0  0  0
  185.7000  178.0810  144.0600 C   0  0  1  0  0  3  0  0  0  0  0  0
  187.1410  178.1970  143.8190 N   0  0  2  0  0  0  0  0  0  0  0  0
  188.8690  177.2610  142.3390 C   0  0  0  0  0  0  0  0  0  0  0  0
  187.4050  177.3430  142.6520 C   0  0  0  0  0  2  0  0  0  0  0  0
  191.4440  176.7100  145.7440 C   0  0  0  0  0  3  0  0  0  0  0  0
  191.2390  177.0410  143.2330 C   0  0  0  0  0  2  0  0  0  0  0  0
  190.2210  177.2440  145.9050 C   0  0  0  0  0  3  0  0  0  0  0  0
  189.7450  176.8620  143.4900 C   0  0  1  0  0  3  0  0  0  0  0  0
  187.8740  177.6730  144.9950 C   0  0  1  0  0  3  0  0  0  0  0  0
  189.2090  176.9210  141.0960 C   0  0  0  0  0  2  0  0  0  0  0  0
  192.0320  176.4110  144.3800 C   0  0  0  0  0  2  0  0  0  0  0  0
  189.3900  177.6900  144.7230 C   0  0  1  0  0  3  0  0  0  0  0  0
  187.5930  178.5210  146.2360 C   0  0  0  0  0  2  0  0  0  0  0  0
  186.7290  177.7800  147.1520 N   0  0  0  0  0  2  0  0  0  0  0  0
  187.4230  177.5010  148.4170 C   0  0  0  0  0  3  0  0  0  0  0  0
  188.4330  178.5780  148.7580 C   0  0  0  0  0  1  0  0  0  0  0  0
  188.0620  176.1270  148.4260 C   0  0  0  0  0  1  0  0  0  0  0  0
  180.0260  183.0680  137.4970 N   0  0  0  0  0  1  0  0  0  0  0  0
  179.9870  182.2260  138.5850 O   0  0  0  0  0  0  0  0  0  0  0  0
  187.2470  178.1080  138.1500 C   0  0  0  0  0  0  0  0  0  0  0  0
  187.4490  178.7410  139.2240 O   0  0  0  0  0  0  0  0  0  0  0  0
  188.3810  177.3250  134.8470 C   0  0  0  0  0  3  0  0  0  0  0  0
  188.3840  177.7530  137.2730 C   0  0  0  0  0  0  0  0  0  0  0  0
  189.2670  176.3370  134.7040 C   0  0  0  0  0  3  0  0  0  0  0  0
  190.4260  176.0830  135.5930 C   0  0  0  0  0  0  0  0  0  0  0  0
  188.4950  178.3630  135.9100 C   0  0  0  0  0  2  0  0  0  0  0  0
  190.4140  176.3190  136.9150 C   0  0  0  0  0  3  0  0  0  0  0  0
  189.3060  176.8870  137.7100 C   0  0  0  0  0  3  0  0  0  0  0  0
  192.6810  175.9970  134.8630 O   0  0  0  0  0  0  0  0  0  0  0  0
  191.5930  175.3820  135.0270 C   0  0  0  0  0  0  0  0  0  0  0  0
  191.4820  174.0390  134.6470 O   0  0  0  0  0  0  0  0  0  0  0  0
  191.7220  172.9640  135.5490 C   0  0  0  0  0  2  0  0  0  0  0  0
  193.4670  171.1640  135.7800 C   0  0  2  0  0  3  0  0  0  0  0  0
  193.2150  172.6760  135.6830 C   0  0  2  0  0  3  0  0  0  0  0  0
  195.7110  173.8390  138.3460 C   0  0  0  0  0  1  0  0  0  0  0  0
  195.8950  171.0050  134.8790 C   0  0  0  0  0  2  0  0  0  0  0  0
  197.0590  171.4330  136.9940 C   0  0  2  0  0  3  0  0  0  0  0  0
  195.2260  173.1150  137.1050 C   0  0  1  0  0  3  0  0  0  0  0  0
  194.9480  170.8160  136.0520 C   0  0  1  0  0  3  0  0  0  0  0  0
  197.4930  170.3190  137.7130 O   0  0  0  0  0  1  0  0  0  0  0  0
  195.5610  171.6140  137.1980 C   0  0  1  0  0  3  0  0  0  0  0  0
  193.7300  173.3490  136.9480 C   0  0  0  0  0  2  0  0  0  0  0  0
  197.2700  171.1830  135.5020 C   0  0  0  0  0  2  0  0  0  0  0  0
  193.5500  169.0460  134.3490 C   0  0  0  0  0  1  0  0  0  0  0  0
  192.8170  170.3410  134.6520 C   0  0  1  0  0  3  0  0  0  0  0  0
  191.4770  170.0770  134.9470 O   0  0  0  0  0  1  0  0  0  0  0  0
  1 35  1  0  0  0  0
  1  4  2  0  0  0  0
  3  1  1  0  0  0  0
  4  2  2  0  0  0  0
  5  2  1  0  0  0  0
  5 10  1  0  0  0  0
  6  9  1  0  0  0  0
  7  8  1  0  0  0  0
  7  6  2  0  0  0  0
  8  5  2  0  0  0  0
  9 10  2  0  0  0  0
 10 11  1  0  0  0  0
 11 13  2  0  0  0  0
 13 12  2  0  0  0  0
 15 12  1  1  0  0  0
 15 14  1  0  0  0  0
 15 16  1  0  0  0  0
 16 14  1  1  0  0  0
 17 19  1  6  0  0  0
 17 16  1  0  0  0  0
 17 24  1  0  0  0  0
 18 19  1  0  0  0  0
 18 23  1  0  0  0  0
 20 22  2  0  0  0  0
 21 26  1  0  0  0  0
 23 21  1  6  0  0  0
 23 27  1  0  0  0  0
 24 28  1  1  0  0  0
 25 18  2  0  0  0  0
 26 20  1  0  0  0  0
 27 24  1  0  0  0  0
 27 22  1  1  0  0  0
 28 29  1  0  0  0  0
 29 30  1  0  0  0  0
 30 32  1  0  0  0  0
 30 31  1  0  0  0  0
 33 34  1  0  0  0  0
 34  6  1  0  0  0  0
 35 36  2  0  0  0  0
 37 41  1  0  0  0  0
 38 43  2  0  0  0  0
 38 35  1  0  0  0  0
 39 37  2  0  0  0  0
 39 40  1  0  0  0  0
 40 42  2  0  0  0  0
 41 38  1  0  0  0  0
 42 43  1  0  0  0  0
 44 45  2  0  0  0  0
 45 40  1  0  0  0  0
 46 45  1  0  0  0  0
 46 47  1  0  0  0  0
 48 60  1  6  0  0  0
 48 54  1  0  0  0  0
 49 47  1  1  0  0  0
 49 48  1  0  0  0  0
 49 57  1  0  0  0  0
 51 58  1  0  0  0  0
 52 56  1  0  0  0  0
 52 55  1  1  0  0  0
 53 56  1  0  0  0  0
 53 50  1  1  0  0  0
 54 51  1  6  0  0  0
 54 56  1  0  0  0  0
 57 53  1  0  0  0  0
 58 52  1  0  0  0  0
 59 60  1  0  0  0  0
 60 61  1  0  0  0  0
M  END
>  <MODEL>
9

>  <REMARK>
 VINA RESULT:      -5.1      2.837      7.359
  Name = 
  15 active torsions:
  status: ('A' for Active; 'I' for Inactive)
    1  A    between atoms: N_1  and  C_28
    2  A    between atoms: C_2  and  C_47
    3  A    between atoms: C_3  and  C_59
    4  A    between atoms: C_4  and  C_54
    5  A    between atoms: C_9  and  C_49
    6  A    between atoms: C_10  and  C_16
    7  A    between atoms: C_15  and  C_49
    8  A    between atoms: C_20  and  N_23
    9  A    between atoms: C_21  and  C_24
   10  A    between atoms: N_23  and  C_27
   11  A    between atoms: C_24  and  O_42
   12  A    between atoms: C_25  and  C_31
   13  A    between atoms: C_26  and  O_33
   14  A    between atoms: C_27  and  C_39
   15  A    between atoms: O_42  and  C_59
                            x       y       z     vdW  Elec       q    Type
                         _______ _______ _______ _____ _____    ______ ____

>  <TORSDO>
F 15

$$$$
