=
 OpenBabel10232408533D

 51 58  0  0  1  0  0  0  0  0999 V2000
  193.9170  175.4410  136.6060 N   0  0  0  0  0  0  0  0  0  0  0  0
  189.5620  175.8530  134.3840 C   0  0  0  0  0  3  0  0  0  0  0  0
  190.8710  175.7390  134.5240 C   0  0  0  0  0  3  0  0  0  0  0  0
  188.7250  176.2010  136.7240 C   0  0  0  0  0  0  0  0  0  0  0  0
  187.3830  176.2180  137.3990 C   0  0  0  0  0  2  0  0  0  0  0  0
  188.5550  175.9630  135.4310 C   0  0  0  0  0  0  0  0  0  0  0  0
  186.3800  175.9810  136.2790 C   0  0  2  0  0  3  0  0  0  0  0  0
  189.9700  176.4970  137.4900 C   0  0  0  0  0  0  0  0  0  0  0  0
  192.9370  175.3500  135.5610 C   0  0  0  0  0  3  0  0  0  0  0  0
  187.1880  175.8300  135.0860 N   0  0  0  0  0  2  0  0  0  0  0  0
  192.3410  176.4710  138.0770 C   0  0  0  0  0  3  0  0  0  0  0  0
  193.5880  176.0780  137.8400 C   0  0  0  0  0  3  0  0  0  0  0  0
  191.6670  175.7260  135.7490 C   0  0  0  0  0  0  0  0  0  0  0  0
  191.2470  176.2500  137.0900 C   0  0  0  0  0  0  0  0  0  0  0  0
  189.8140  176.9070  141.2720 C   0  0  0  0  0  0  0  0  0  0  0  0
  188.3430  178.5510  140.2730 C   0  0  0  0  0  2  0  0  0  0  0  0
  190.4720  176.3310  142.4050 N   0  0  0  0  0  2  0  0  0  0  0  0
  190.0820  176.3590  139.9320 C   0  0  0  0  0  3  0  0  0  0  0  0
  189.0630  177.9630  141.4030 N   0  0  0  0  0  0  0  0  0  0  0  0
  189.7310  177.0530  138.8440 C   0  0  0  0  0  0  0  0  0  0  0  0
  189.1630  178.4380  138.9860 C   0  0  0  0  0  2  0  0  0  0  0  0
  191.4820  178.4460  144.1310 N   0  0  0  0  0  2  0  0  0  0  0  0
  190.7670  177.4860  144.6160 C   0  0  0  0  0  0  0  0  0  0  0  0
  190.0980  176.5680  143.7410 N   0  0  0  0  0  2  0  0  0  0  0  0
  191.0920  176.3530  146.7950 C   0  0  0  0  0  1  0  0  0  0  0  0
  188.9220  177.4400  146.2630 C   0  0  0  0  0  1  0  0  0  0  0  0
  190.4250  177.5070  146.0690 C   0  0  0  0  0  3  0  0  0  0  0  0
  198.0500  175.2580  136.9760 O   0  0  0  0  0  0  0  0  0  0  0  0
  197.3640  174.1580  137.5230 C   0  0  0  0  0  2  0  0  0  0  0  0
  195.2660  174.9200  136.4220 C   0  0  0  0  0  3  0  0  0  0  0  0
  196.1410  175.9290  135.6780 C   0  0  0  0  0  2  0  0  0  0  0  0
  195.8970  174.5180  137.7590 C   0  0  0  0  0  2  0  0  0  0  0  0
  197.5800  175.4140  135.6590 C   0  0  0  0  0  2  0  0  0  0  0  0
  185.4790  177.1990  136.1510 C   0  0  0  0  0  2  0  0  0  0  0  0
  181.2440  177.5790  137.3930 C   0  0  0  0  0  2  0  0  0  0  0  0
  184.0570  176.8930  136.5970 C   0  0  2  0  0  3  0  0  0  0  0  0
  181.4330  176.7490  136.1340 C   0  0  0  0  0  2  0  0  0  0  0  0
  182.3570  177.2770  138.3900 C   0  0  1  0  0  3  0  0  0  0  0  0
  182.9170  177.3030  135.2340 S   0  0  0  0  0  0  0  0  0  0  0  0
  183.7080  177.7100  137.8360 C   0  0  0  0  0  2  0  0  0  0  0  0
  181.4090  179.0810  140.4420 C   0  0  0  0  0  0  0  0  0  0  0  0
  182.0960  177.9790  139.6330 N   0  0  0  0  0  0  0  0  0  0  0  0
  180.6270  180.0620  140.5260 O   0  0  0  0  0  0  0  0  0  0  0  0
  182.3320  178.2000  140.9880 C   0  0  1  0  0  3  0  0  0  0  0  0
  183.6680  178.8980  141.1640 C   0  0  0  0  0  2  0  0  0  0  0  0
  183.2100  178.9440  143.6290 C   0  0  0  0  0  2  0  0  0  0  0  0
  184.1490  178.7240  142.5260 N   0  0  0  0  0  0  0  0  0  0  0  0
  185.4300  178.1230  142.7470 C   0  0  0  0  0  3  0  0  0  0  0  0
  185.1450  178.5210  145.1270 C   0  0  0  0  0  3  0  0  0  0  0  0
  183.9030  178.9830  144.9660 C   0  0  0  0  0  3  0  0  0  0  0  0
  185.9160  178.0130  143.9820 C   0  0  0  0  0  3  0  0  0  0  0  0
  1 12  1  0  0  0  0
  2  3  2  0  0  0  0
  2  6  1  0  0  0  0
  3 13  1  0  0  0  0
  4  5  1  0  0  0  0
  4  8  1  0  0  0  0
  6  4  2  0  0  0  0
  7 34  1  6  0  0  0
  7  5  1  0  0  0  0
  8 20  1  0  0  0  0
  9 13  2  0  0  0  0
  9  1  1  0  0  0  0
 10  6  1  0  0  0  0
 10  7  1  0  0  0  0
 12 11  2  0  0  0  0
 13 14  1  0  0  0  0
 14  8  2  0  0  0  0
 14 11  1  0  0  0  0
 15 19  2  0  0  0  0
 15 17  1  0  0  0  0
 16 19  1  0  0  0  0
 17 24  1  0  0  0  0
 18 15  1  0  0  0  0
 20 21  1  0  0  0  0
 20 18  2  0  0  0  0
 21 16  1  0  0  0  0
 22 23  2  0  0  0  0
 23 27  1  0  0  0  0
 24 23  1  0  0  0  0
 27 26  1  0  0  0  0
 27 25  1  0  0  0  0
 28 29  1  0  0  0  0
 29 32  1  0  0  0  0
 30  1  1  0  0  0  0
 30 32  1  0  0  0  0
 31 30  1  0  0  0  0
 33 31  1  0  0  0  0
 33 28  1  0  0  0  0
 36 34  1  6  0  0  0
 36 40  1  0  0  0  0
 37 35  1  0  0  0  0
 38 35  1  6  0  0  0
 38 42  1  0  0  0  0
 39 37  1  0  0  0  0
 39 36  1  0  0  0  0
 40 38  1  0  0  0  0
 41 43  2  0  0  0  0
 41 44  1  0  0  0  0
 42 41  1  0  0  0  0
 42 44  1  0  0  0  0
 44 45  1  6  0  0  0
 45 47  1  0  0  0  0
 46 50  1  0  0  0  0
 47 48  1  0  0  0  0
 47 46  1  0  0  0  0
 48 51  2  0  0  0  0
 50 49  2  0  0  0  0
 51 49  1  0  0  0  0
M  END
>  <MODEL>
1

>  <REMARK>
 VINA RESULT:      -9.7      0.000      0.000
  Name = 
  9 active torsions:
  status: ('A' for Active; 'I' for Inactive)
    1  A    between atoms: N_3  and  C_19
    2  A    between atoms: C_13  and  C_29
    3  A    between atoms: C_14  and  N_16
    4  A    between atoms: C_14  and  CA_26
    5  A    between atoms: N_15  and  C_31
    6  A    between atoms: C_24  and  C_41
    7  A    between atoms: C_28  and  C_41
    8  A    between atoms: C_33  and  C_49
    9  A    between atoms: N_37  and  N_39
                            x       y       z     vdW  Elec       q    Type
                         _______ _______ _______ _____ _____    ______ ____

>  <TORSDO>
F 9

$$$$
=
 OpenBabel10232408533D

 51 58  0  0  1  0  0  0  0  0999 V2000
  189.8590  177.4330  143.4040 N   0  0  0  0  0  0  0  0  0  0  0  0
  186.7380  178.5720  139.7930 C   0  0  0  0  0  3  0  0  0  0  0  0
  187.1840  178.3580  141.0180 C   0  0  0  0  0  3  0  0  0  0  0  0
  188.6210  177.8140  138.3170 C   0  0  0  0  0  0  0  0  0  0  0  0
  188.9540  177.9130  136.8550 C   0  0  0  0  0  2  0  0  0  0  0  0
  187.4590  178.4130  138.5370 C   0  0  0  0  0  0  0  0  0  0  0  0
  187.7730  178.6460  136.2350 C   0  0  2  0  0  3  0  0  0  0  0  0
  189.5070  177.0660  139.2540 C   0  0  0  0  0  0  0  0  0  0  0  0
  188.7080  178.0050  142.7640 C   0  0  0  0  0  3  0  0  0  0  0  0
  186.8870  178.9250  137.3470 N   0  0  0  0  0  2  0  0  0  0  0  0
  190.5680  176.4220  141.3580 C   0  0  0  0  0  3  0  0  0  0  0  0
  190.7360  176.5830  142.6660 C   0  0  0  0  0  3  0  0  0  0  0  0
  188.4940  177.8770  141.4490 C   0  0  0  0  0  0  0  0  0  0  0  0
  189.4860  177.1250  140.6130 C   0  0  0  0  0  0  0  0  0  0  0  0
  192.8540  175.7300  138.0230 C   0  0  0  0  0  0  0  0  0  0  0  0
  191.1040  174.7510  136.6650 C   0  0  0  0  0  2  0  0  0  0  0  0
  194.2240  175.8400  138.4220 N   0  0  0  0  0  2  0  0  0  0  0  0
  191.8370  176.5380  138.7180 C   0  0  0  0  0  3  0  0  0  0  0  0
  192.4890  174.8600  137.1260 N   0  0  0  0  0  0  0  0  0  0  0  0
  190.5400  176.2400  138.5830 C   0  0  0  0  0  0  0  0  0  0  0  0
  190.1250  175.0180  137.8110 C   0  0  0  0  0  2  0  0  0  0  0  0
  195.6150  173.3190  138.8460 N   0  0  0  0  0  2  0  0  0  0  0  0
  196.0940  174.2070  138.0380 C   0  0  0  0  0  0  0  0  0  0  0  0
  195.3070  175.3490  137.6710 N   0  0  0  0  0  2  0  0  0  0  0  0
  198.5690  174.2920  138.0970 C   0  0  0  0  0  1  0  0  0  0  0  0
  197.3560  174.6150  135.9510 C   0  0  0  0  0  1  0  0  0  0  0  0
  197.3460  173.8980  137.2880 C   0  0  0  0  0  3  0  0  0  0  0  0
  190.1060  176.6240  147.4700 O   0  0  0  0  0  0  0  0  0  0  0  0
  191.3380  176.9130  146.8540 C   0  0  0  0  0  2  0  0  0  0  0  0
  190.1380  177.6780  144.8130 C   0  0  0  0  0  3  0  0  0  0  0  0
  188.8600  177.5730  145.6460 C   0  0  0  0  0  2  0  0  0  0  0  0
  191.2230  176.7340  145.3400 C   0  0  0  0  0  2  0  0  0  0  0  0
  189.2270  177.6680  147.1260 C   0  0  0  0  0  2  0  0  0  0  0  0
  187.0870  177.7300  135.2350 C   0  0  0  0  0  2  0  0  0  0  0  0
  185.8190  173.5320  135.8600 C   0  0  0  0  0  2  0  0  0  0  0  0
  186.9360  176.3190  135.7820 C   0  0  2  0  0  3  0  0  0  0  0  0
  187.3100  173.6820  135.6050 C   0  0  0  0  0  2  0  0  0  0  0  0
  185.3230  174.6680  136.7460 C   0  0  1  0  0  3  0  0  0  0  0  0
  187.6250  175.1450  134.5660 S   0  0  0  0  0  0  0  0  0  0  0  0
  185.4650  176.0070  136.0340 C   0  0  0  0  0  2  0  0  0  0  0  0
  182.5700  173.7900  136.8380 C   0  0  0  0  0  0  0  0  0  0  0  0
  183.9310  174.4450  137.0850 N   0  0  0  0  0  0  0  0  0  0  0  0
  181.8180  173.0210  136.1850 O   0  0  0  0  0  0  0  0  0  0  0  0
  182.7960  174.7150  137.8480 C   0  0  1  0  0  3  0  0  0  0  0  0
  182.2240  176.0630  137.4480 C   0  0  0  0  0  2  0  0  0  0  0  0
  182.9810  176.6480  139.7660 C   0  0  0  0  0  2  0  0  0  0  0  0
  182.6100  177.0780  138.4150 N   0  0  0  0  0  0  0  0  0  0  0  0
  182.8460  178.4190  137.9690 C   0  0  0  0  0  3  0  0  0  0  0  0
  183.2070  179.0660  140.2830 C   0  0  0  0  0  3  0  0  0  0  0  0
  183.1040  177.8090  140.7180 C   0  0  0  0  0  3  0  0  0  0  0  0
  183.1370  179.3770  138.8480 C   0  0  0  0  0  3  0  0  0  0  0  0
  1 30  1  0  0  0  0
  2  3  2  0  0  0  0
  3 13  1  0  0  0  0
  4  6  2  0  0  0  0
  4  8  1  0  0  0  0
  5  4  1  0  0  0  0
  6  2  1  0  0  0  0
  7 34  1  6  0  0  0
  7  5  1  0  0  0  0
  7 10  1  0  0  0  0
  8 14  2  0  0  0  0
  9  1  1  0  0  0  0
 10  6  1  0  0  0  0
 11 12  2  0  0  0  0
 12  1  1  0  0  0  0
 13  9  2  0  0  0  0
 14 11  1  0  0  0  0
 14 13  1  0  0  0  0
 15 17  1  0  0  0  0
 15 18  1  0  0  0  0
 16 19  1  0  0  0  0
 16 21  1  0  0  0  0
 19 15  2  0  0  0  0
 20 18  2  0  0  0  0
 20  8  1  0  0  0  0
 21 20  1  0  0  0  0
 23 22  2  0  0  0  0
 24 23  1  0  0  0  0
 24 17  1  0  0  0  0
 26 27  1  0  0  0  0
 27 23  1  0  0  0  0
 27 25  1  0  0  0  0
 29 28  1  0  0  0  0
 30 32  1  0  0  0  0
 30 31  1  0  0  0  0
 31 33  1  0  0  0  0
 32 29  1  0  0  0  0
 33 28  1  0  0  0  0
 36 34  1  6  0  0  0
 36 40  1  0  0  0  0
 37 35  1  0  0  0  0
 38 35  1  6  0  0  0
 38 42  1  0  0  0  0
 39 37  1  0  0  0  0
 39 36  1  0  0  0  0
 40 38  1  0  0  0  0
 41 42  1  0  0  0  0
 41 44  1  0  0  0  0
 42 44  1  0  0  0  0
 43 41  2  0  0  0  0
 44 45  1  6  0  0  0
 45 47  1  0  0  0  0
 46 50  1  0  0  0  0
 47 46  1  0  0  0  0
 48 47  1  0  0  0  0
 48 51  2  0  0  0  0
 49 50  2  0  0  0  0
 51 49  1  0  0  0  0
M  END
>  <MODEL>
2

>  <REMARK>
 VINA RESULT:      -9.5      2.997      7.117
  Name = 
  9 active torsions:
  status: ('A' for Active; 'I' for Inactive)
    1  A    between atoms: N_3  and  C_19
    2  A    between atoms: C_13  and  C_29
    3  A    between atoms: C_14  and  N_16
    4  A    between atoms: C_14  and  CA_26
    5  A    between atoms: N_15  and  C_31
    6  A    between atoms: C_24  and  C_41
    7  A    between atoms: C_28  and  C_41
    8  A    between atoms: C_33  and  C_49
    9  A    between atoms: N_37  and  N_39
                            x       y       z     vdW  Elec       q    Type
                         _______ _______ _______ _____ _____    ______ ____

>  <TORSDO>
F 9

$$$$
=
 OpenBabel10232408533D

 51 58  0  0  1  0  0  0  0  0999 V2000
  189.7330  177.1820  145.6560 N   0  0  0  0  0  0  0  0  0  0  0  0
  184.9810  178.0430  146.5180 C   0  0  0  0  0  3  0  0  0  0  0  0
  186.2190  177.6300  146.7260 C   0  0  0  0  0  3  0  0  0  0  0  0
  184.9650  178.7350  144.1060 C   0  0  0  0  0  0  0  0  0  0  0  0
  184.0180  179.4680  143.2000 C   0  0  0  0  0  2  0  0  0  0  0  0
  184.4310  178.6570  145.3180 C   0  0  0  0  0  0  0  0  0  0  0  0
  182.8110  179.7870  144.0710 C   0  0  2  0  0  3  0  0  0  0  0  0
  186.2400  178.1670  143.5820 C   0  0  0  0  0  0  0  0  0  0  0  0
  188.5280  177.3850  146.4080 C   0  0  0  0  0  3  0  0  0  0  0  0
  183.1470  179.2510  145.3750 N   0  0  0  0  0  2  0  0  0  0  0  0
  188.5440  177.3560  143.5900 C   0  0  0  0  0  3  0  0  0  0  0  0
  189.6810  177.1070  144.2310 C   0  0  0  0  0  3  0  0  0  0  0  0
  187.3580  177.6430  145.8120 C   0  0  0  0  0  0  0  0  0  0  0  0
  187.3000  177.7350  144.3170 C   0  0  0  0  0  0  0  0  0  0  0  0
  187.6130  178.2110  140.0300 C   0  0  0  0  0  0  0  0  0  0  0  0
  185.2520  178.7380  139.9330 C   0  0  0  0  0  2  0  0  0  0  0  0
  188.8640  177.9200  139.3990 N   0  0  0  0  0  2  0  0  0  0  0  0
  187.5300  178.1910  141.5000 C   0  0  0  0  0  3  0  0  0  0  0  0
  186.5370  178.3970  139.3220 N   0  0  0  0  0  0  0  0  0  0  0  0
  186.3360  178.1570  142.1020 C   0  0  0  0  0  0  0  0  0  0  0  0
  185.0820  178.0290  141.2790 C   0  0  0  0  0  2  0  0  0  0  0  0
  188.0890  176.2660  137.1330 N   0  0  0  0  0  2  0  0  0  0  0  0
  188.9270  177.2380  136.9820 C   0  0  0  0  0  0  0  0  0  0  0  0
  189.1450  178.1770  138.0440 N   0  0  0  0  0  2  0  0  0  0  0  0
  188.3370  177.4720  134.5880 C   0  0  0  0  0  1  0  0  0  0  0  0
  190.5490  176.5490  135.2470 C   0  0  0  0  0  1  0  0  0  0  0  0
  189.4520  177.5300  135.6160 C   0  0  0  0  0  3  0  0  0  0  0  0
  192.5200  175.5890  148.2920 O   0  0  0  0  0  0  0  0  0  0  0  0
  192.8530  175.4480  146.9320 C   0  0  0  0  0  2  0  0  0  0  0  0
  191.0190  177.0160  146.3210 C   0  0  0  0  0  3  0  0  0  0  0  0
  190.8960  177.2970  147.8190 C   0  0  0  0  0  2  0  0  0  0  0  0
  191.6060  175.6240  146.0650 C   0  0  0  0  0  2  0  0  0  0  0  0
  192.2200  176.9480  148.4970 C   0  0  0  0  0  2  0  0  0  0  0  0
  181.5900  179.0760  143.5110 C   0  0  0  0  0  2  0  0  0  0  0  0
  180.1470  179.0020  139.3240 C   0  0  0  0  0  2  0  0  0  0  0  0
  181.4500  179.3000  142.0130 C   0  0  2  0  0  3  0  0  0  0  0  0
  180.2310  180.4020  139.9100 C   0  0  0  0  0  2  0  0  0  0  0  0
  181.3380  178.1700  139.7850 C   0  0  1  0  0  3  0  0  0  0  0  0
  179.9830  180.3430  141.7140 S   0  0  0  0  0  0  0  0  0  0  0  0
  181.2980  177.9640  141.2940 C   0  0  0  0  0  2  0  0  0  0  0  0
  180.7910  175.4510  138.9670 C   0  0  0  0  0  0  0  0  0  0  0  0
  181.3130  176.8810  139.1200 N   0  0  0  0  0  0  0  0  0  0  0  0
  180.0410  174.5070  139.3240 O   0  0  0  0  0  0  0  0  0  0  0  0
  181.7970  175.9820  138.1720 C   0  0  1  0  0  3  0  0  0  0  0  0
  183.1450  175.4460  138.6200 C   0  0  0  0  0  2  0  0  0  0  0  0
  184.3380  176.2850  136.5810 C   0  0  0  0  0  2  0  0  0  0  0  0
  183.9840  175.1720  137.4650 N   0  0  0  0  0  0  0  0  0  0  0  0
  184.6310  173.8980  137.3540 C   0  0  0  0  0  3  0  0  0  0  0  0
  185.4790  174.5820  135.1820 C   0  0  0  0  0  3  0  0  0  0  0  0
  184.9850  175.8140  135.3040 C   0  0  0  0  0  3  0  0  0  0  0  0
  185.3520  173.6040  136.2730 C   0  0  0  0  0  3  0  0  0  0  0  0
  1 30  1  0  0  0  0
  1  9  1  0  0  0  0
  2  3  2  0  0  0  0
  4  6  2  0  0  0  0
  5  7  1  0  0  0  0
  5  4  1  0  0  0  0
  6 10  1  0  0  0  0
  6  2  1  0  0  0  0
  7 34  1  6  0  0  0
  7 10  1  0  0  0  0
  8  4  1  0  0  0  0
  8 14  2  0  0  0  0
 11 12  2  0  0  0  0
 11 14  1  0  0  0  0
 12  1  1  0  0  0  0
 13  9  2  0  0  0  0
 13  3  1  0  0  0  0
 14 13  1  0  0  0  0
 15 18  1  0  0  0  0
 16 21  1  0  0  0  0
 17 15  1  0  0  0  0
 18 20  2  0  0  0  0
 19 16  1  0  0  0  0
 19 15  2  0  0  0  0
 20  8  1  0  0  0  0
 21 20  1  0  0  0  0
 23 22  2  0  0  0  0
 23 24  1  0  0  0  0
 24 17  1  0  0  0  0
 25 27  1  0  0  0  0
 26 27  1  0  0  0  0
 27 23  1  0  0  0  0
 28 33  1  0  0  0  0
 29 28  1  0  0  0  0
 30 31  1  0  0  0  0
 31 33  1  0  0  0  0
 32 30  1  0  0  0  0
 32 29  1  0  0  0  0
 35 38  1  0  0  0  0
 35 37  1  0  0  0  0
 36 34  1  1  0  0  0
 37 39  1  0  0  0  0
 38 42  1  6  0  0  0
 38 40  1  0  0  0  0
 39 36  1  0  0  0  0
 40 36  1  0  0  0  0
 41 42  1  0  0  0  0
 41 43  2  0  0  0  0
 44 45  1  1  0  0  0
 44 41  1  0  0  0  0
 44 42  1  0  0  0  0
 46 47  1  0  0  0  0
 47 45  1  0  0  0  0
 48 47  1  0  0  0  0
 49 50  2  0  0  0  0
 49 51  1  0  0  0  0
 50 46  1  0  0  0  0
 51 48  2  0  0  0  0
M  END
>  <MODEL>
3

>  <REMARK>
 VINA RESULT:      -8.2      3.552      8.494
  Name = 
  9 active torsions:
  status: ('A' for Active; 'I' for Inactive)
    1  A    between atoms: N_3  and  C_19
    2  A    between atoms: C_13  and  C_29
    3  A    between atoms: C_14  and  N_16
    4  A    between atoms: C_14  and  CA_26
    5  A    between atoms: N_15  and  C_31
    6  A    between atoms: C_24  and  C_41
    7  A    between atoms: C_28  and  C_41
    8  A    between atoms: C_33  and  C_49
    9  A    between atoms: N_37  and  N_39
                            x       y       z     vdW  Elec       q    Type
                         _______ _______ _______ _____ _____    ______ ____

>  <TORSDO>
F 9

$$$$
=
 OpenBabel10232408533D

 51 58  0  0  1  0  0  0  0  0999 V2000
  193.9540  175.3750  136.5250 N   0  0  0  0  0  0  0  0  0  0  0  0
  189.5580  175.4190  134.3470 C   0  0  0  0  0  3  0  0  0  0  0  0
  190.8730  175.3850  134.4740 C   0  0  0  0  0  3  0  0  0  0  0  0
  188.7290  175.8600  136.6740 C   0  0  0  0  0  0  0  0  0  0  0  0
  187.3960  175.8440  137.3660 C   0  0  0  0  0  2  0  0  0  0  0  0
  188.5580  175.5360  135.3990 C   0  0  0  0  0  0  0  0  0  0  0  0
  186.3950  175.4870  136.2770 C   0  0  2  0  0  3  0  0  0  0  0  0
  189.9650  176.2670  137.4030 C   0  0  0  0  0  0  0  0  0  0  0  0
  192.9690  175.1690  135.5020 C   0  0  0  0  0  3  0  0  0  0  0  0
  187.1970  175.3100  135.0830 N   0  0  0  0  0  2  0  0  0  0  0  0
  192.3400  176.4040  137.9570 C   0  0  0  0  0  3  0  0  0  0  0  0
  193.6040  176.0660  137.7250 C   0  0  0  0  0  3  0  0  0  0  0  0
  191.6820  175.4880  135.6860 C   0  0  0  0  0  0  0  0  0  0  0  0
  191.2490  176.0660  137.0000 C   0  0  0  0  0  0  0  0  0  0  0  0
  189.7790  176.8670  141.1590 C   0  0  0  0  0  0  0  0  0  0  0  0
  188.2980  178.4430  140.0680 C   0  0  0  0  0  2  0  0  0  0  0  0
  190.4350  176.3560  142.3240 N   0  0  0  0  0  2  0  0  0  0  0  0
  190.0620  176.2540  139.8500 C   0  0  0  0  0  3  0  0  0  0  0  0
  189.0170  177.9200  141.2310 N   0  0  0  0  0  0  0  0  0  0  0  0
  189.7120  176.8890  138.7250 C   0  0  0  0  0  0  0  0  0  0  0  0
  189.1280  178.2740  138.7930 C   0  0  0  0  0  2  0  0  0  0  0  0
  191.0740  178.7830  143.7980 N   0  0  0  0  0  2  0  0  0  0  0  0
  190.5560  177.7650  144.4000 C   0  0  0  0  0  0  0  0  0  0  0  0
  190.0490  176.6570  143.6430 N   0  0  0  0  0  2  0  0  0  0  0  0
  191.0520  176.8650  146.6540 C   0  0  0  0  0  1  0  0  0  0  0  0
  188.7620  177.6560  146.0990 C   0  0  0  0  0  1  0  0  0  0  0  0
  190.2440  177.8710  145.8560 C   0  0  0  0  0  3  0  0  0  0  0  0
  198.0990  175.4860  136.7560 O   0  0  0  0  0  0  0  0  0  0  0  0
  197.5030  174.4210  137.4550 C   0  0  0  0  0  2  0  0  0  0  0  0
  195.3270  174.9180  136.3530 C   0  0  0  0  0  3  0  0  0  0  0  0
  196.1120  175.8810  135.4620 C   0  0  0  0  0  2  0  0  0  0  0  0
  196.0240  174.7180  137.7030 C   0  0  0  0  0  2  0  0  0  0  0  0
  197.5800  175.4550  135.4490 C   0  0  0  0  0  2  0  0  0  0  0  0
  185.4270  176.6450  136.0910 C   0  0  0  0  0  2  0  0  0  0  0  0
  181.1740  176.0980  137.1980 C   0  0  0  0  0  2  0  0  0  0  0  0
  184.1410  176.4300  136.8730 C   0  0  2  0  0  3  0  0  0  0  0  0
  182.0570  174.9250  137.5920 C   0  0  0  0  0  2  0  0  0  0  0  0
  181.9100  177.4100  137.4360 C   0  0  1  0  0  3  0  0  0  0  0  0
  183.4670  174.7890  136.4460 S   0  0  0  0  0  0  0  0  0  0  0  0
  183.1280  177.5170  136.5290 C   0  0  0  0  0  2  0  0  0  0  0  0
  180.5040  179.6680  136.3020 C   0  0  0  0  0  0  0  0  0  0  0  0
  181.0140  178.5210  137.1770 N   0  0  0  0  0  0  0  0  0  0  0  0
  180.5440  180.3520  135.2470 O   0  0  0  0  0  0  0  0  0  0  0  0
  180.0030  179.3970  137.5670 C   0  0  1  0  0  3  0  0  0  0  0  0
  180.5550  180.3990  138.5650 C   0  0  0  0  0  2  0  0  0  0  0  0
  183.0360  180.3100  138.9180 C   0  0  0  0  0  2  0  0  0  0  0  0
  181.6960  179.8320  139.2660 N   0  0  0  0  0  0  0  0  0  0  0  0
  181.4730  179.0140  140.4220 C   0  0  0  0  0  3  0  0  0  0  0  0
  183.8680  178.6180  140.5320 C   0  0  0  0  0  3  0  0  0  0  0  0
  184.1200  179.4610  139.5300 C   0  0  0  0  0  3  0  0  0  0  0  0
  182.5000  178.4330  141.0400 C   0  0  0  0  0  3  0  0  0  0  0  0
  1 12  1  0  0  0  0
  2  3  2  0  0  0  0
  2  6  1  0  0  0  0
  3 13  1  0  0  0  0
  4  5  1  0  0  0  0
  4  8  1  0  0  0  0
  6  4  2  0  0  0  0
  7 34  1  6  0  0  0
  7  5  1  0  0  0  0
  8 20  1  0  0  0  0
  9 13  2  0  0  0  0
  9  1  1  0  0  0  0
 10  6  1  0  0  0  0
 10  7  1  0  0  0  0
 12 11  2  0  0  0  0
 13 14  1  0  0  0  0
 14  8  2  0  0  0  0
 14 11  1  0  0  0  0
 15 19  2  0  0  0  0
 15 17  1  0  0  0  0
 16 19  1  0  0  0  0
 17 24  1  0  0  0  0
 18 15  1  0  0  0  0
 20 21  1  0  0  0  0
 20 18  2  0  0  0  0
 21 16  1  0  0  0  0
 22 23  2  0  0  0  0
 23 27  1  0  0  0  0
 24 23  1  0  0  0  0
 27 26  1  0  0  0  0
 27 25  1  0  0  0  0
 28 29  1  0  0  0  0
 29 32  1  0  0  0  0
 30  1  1  0  0  0  0
 30 32  1  0  0  0  0
 31 30  1  0  0  0  0
 33 31  1  0  0  0  0
 33 28  1  0  0  0  0
 35 38  1  0  0  0  0
 35 37  1  0  0  0  0
 36 34  1  6  0  0  0
 38 40  1  6  0  0  0
 39 36  1  0  0  0  0
 39 37  1  0  0  0  0
 40 36  1  0  0  0  0
 41 42  1  0  0  0  0
 41 44  1  0  0  0  0
 42 38  1  0  0  0  0
 42 44  1  0  0  0  0
 43 41  2  0  0  0  0
 44 45  1  1  0  0  0
 45 47  1  0  0  0  0
 46 47  1  0  0  0  0
 46 50  1  0  0  0  0
 47 48  1  0  0  0  0
 48 51  2  0  0  0  0
 49 51  1  0  0  0  0
 50 49  2  0  0  0  0
M  END
>  <MODEL>
4

>  <REMARK>
 VINA RESULT:      -7.7      1.582      2.219
  Name = 
  9 active torsions:
  status: ('A' for Active; 'I' for Inactive)
    1  A    between atoms: N_3  and  C_19
    2  A    between atoms: C_13  and  C_29
    3  A    between atoms: C_14  and  N_16
    4  A    between atoms: C_14  and  CA_26
    5  A    between atoms: N_15  and  C_31
    6  A    between atoms: C_24  and  C_41
    7  A    between atoms: C_28  and  C_41
    8  A    between atoms: C_33  and  C_49
    9  A    between atoms: N_37  and  N_39
                            x       y       z     vdW  Elec       q    Type
                         _______ _______ _______ _____ _____    ______ ____

>  <TORSDO>
F 9

$$$$
=
 OpenBabel10232408533D

 51 58  0  0  1  0  0  0  0  0999 V2000
  192.8910  176.0070  136.5000 N   0  0  0  0  0  0  0  0  0  0  0  0
  188.2690  176.9760  135.1700 C   0  0  0  0  0  3  0  0  0  0  0  0
  189.5680  176.7600  135.0550 C   0  0  0  0  0  3  0  0  0  0  0  0
  187.8830  177.0860  137.6470 C   0  0  0  0  0  0  0  0  0  0  0  0
  186.6850  177.1060  138.5520 C   0  0  0  0  0  2  0  0  0  0  0  0
  187.4720  177.0210  136.3870 C   0  0  0  0  0  0  0  0  0  0  0  0
  185.4870  177.0760  137.6150 C   0  0  2  0  0  3  0  0  0  0  0  0
  189.2630  177.2020  138.2000 C   0  0  0  0  0  0  0  0  0  0  0  0
  191.7410  176.1110  135.6490 C   0  0  0  0  0  3  0  0  0  0  0  0
  186.0600  177.0220  136.2860 N   0  0  0  0  0  2  0  0  0  0  0  0
  191.6890  176.9480  138.3390 C   0  0  0  0  0  3  0  0  0  0  0  0
  192.8370  176.5070  137.8360 C   0  0  0  0  0  3  0  0  0  0  0  0
  190.5600  176.5440  136.1060 C   0  0  0  0  0  0  0  0  0  0  0  0
  190.4250  176.9230  137.5500 C   0  0  0  0  0  0  0  0  0  0  0  0
  190.1630  177.3660  141.8960 C   0  0  0  0  0  0  0  0  0  0  0  0
  188.0860  178.5680  141.5700 C   0  0  0  0  0  2  0  0  0  0  0  0
  191.2590  176.9480  142.7160 N   0  0  0  0  0  2  0  0  0  0  0  0
  190.1440  176.9830  140.4750 C   0  0  0  0  0  3  0  0  0  0  0  0
  189.2420  178.1560  142.3690 N   0  0  0  0  0  0  0  0  0  0  0  0
  189.3120  177.6000  139.6280 C   0  0  0  0  0  0  0  0  0  0  0  0
  188.4760  178.7570  140.1030 C   0  0  0  0  0  2  0  0  0  0  0  0
  192.2440  174.8890  144.5220 N   0  0  0  0  0  2  0  0  0  0  0  0
  191.5620  175.8890  144.9730 C   0  0  0  0  0  0  0  0  0  0  0  0
  191.2610  177.0030  144.1220 N   0  0  0  0  0  2  0  0  0  0  0  0
  191.0840  177.4400  146.8450 C   0  0  0  0  0  1  0  0  0  0  0  0
  192.5140  175.4400  147.2110 C   0  0  0  0  0  1  0  0  0  0  0  0
  191.3300  175.9970  146.4440 C   0  0  0  0  0  3  0  0  0  0  0  0
  196.9920  175.4290  136.1790 O   0  0  0  0  0  0  0  0  0  0  0  0
  196.2740  174.3020  136.6220 C   0  0  0  0  0  2  0  0  0  0  0  0
  194.1380  175.4260  136.0180 C   0  0  0  0  0  3  0  0  0  0  0  0
  195.0040  176.4860  135.3370 C   0  0  0  0  0  2  0  0  0  0  0  0
  194.9020  174.7260  137.1460 C   0  0  0  0  0  2  0  0  0  0  0  0
  196.3620  175.8720  135.0020 C   0  0  0  0  0  2  0  0  0  0  0  0
  184.6860  178.3580  137.7880 C   0  0  0  0  0  2  0  0  0  0  0  0
  181.5390  179.0220  140.8330 C   0  0  0  0  0  2  0  0  0  0  0  0
  183.5220  178.1640  138.7480 C   0  0  2  0  0  3  0  0  0  0  0  0
  180.9910  178.5910  139.4820 C   0  0  0  0  0  2  0  0  0  0  0  0
  182.8200  178.2580  141.1460 C   0  0  1  0  0  3  0  0  0  0  0  0
  182.1040  179.1440  138.1500 S   0  0  0  0  0  0  0  0  0  0  0  0
  183.9150  178.6140  140.1500 C   0  0  0  0  0  2  0  0  0  0  0  0
  183.5400  179.5850  143.6120 C   0  0  0  0  0  0  0  0  0  0  0  0
  183.2610  178.5850  142.4890 N   0  0  0  0  0  0  0  0  0  0  0  0
  183.5450  180.7580  144.0680 O   0  0  0  0  0  0  0  0  0  0  0  0
  183.8150  178.2290  143.7170 C   0  0  1  0  0  3  0  0  0  0  0  0
  185.3060  177.9920  143.5530 C   0  0  0  0  0  2  0  0  0  0  0  0
  185.1670  178.3600  146.0290 C   0  0  0  0  0  2  0  0  0  0  0  0
  185.9610  178.0020  144.8510 N   0  0  0  0  0  0  0  0  0  0  0  0
  187.2740  177.4420  144.9790 C   0  0  0  0  0  3  0  0  0  0  0  0
  187.2870  178.1480  147.3040 C   0  0  0  0  0  3  0  0  0  0  0  0
  186.0250  178.5780  147.2480 C   0  0  0  0  0  3  0  0  0  0  0  0
  187.9170  177.4990  146.1440 C   0  0  0  0  0  3  0  0  0  0  0  0
  1 12  1  0  0  0  0
  2  6  1  0  0  0  0
  3  2  2  0  0  0  0
  3 13  1  0  0  0  0
  4  8  1  0  0  0  0
  4  5  1  0  0  0  0
  6  4  2  0  0  0  0
  7 34  1  6  0  0  0
  7  5  1  0  0  0  0
  8 20  1  0  0  0  0
  9 13  2  0  0  0  0
  9  1  1  0  0  0  0
 10  6  1  0  0  0  0
 10  7  1  0  0  0  0
 12 11  2  0  0  0  0
 13 14  1  0  0  0  0
 14  8  2  0  0  0  0
 14 11  1  0  0  0  0
 15 19  2  0  0  0  0
 15 17  1  0  0  0  0
 16 19  1  0  0  0  0
 17 24  1  0  0  0  0
 18 15  1  0  0  0  0
 20 21  1  0  0  0  0
 20 18  2  0  0  0  0
 21 16  1  0  0  0  0
 22 23  2  0  0  0  0
 23 27  1  0  0  0  0
 24 23  1  0  0  0  0
 27 25  1  0  0  0  0
 27 26  1  0  0  0  0
 28 29  1  0  0  0  0
 29 32  1  0  0  0  0
 30  1  1  0  0  0  0
 30 32  1  0  0  0  0
 31 30  1  0  0  0  0
 33 31  1  0  0  0  0
 33 28  1  0  0  0  0
 35 38  1  0  0  0  0
 36 34  1  6  0  0  0
 36 40  1  0  0  0  0
 37 35  1  0  0  0  0
 38 40  1  6  0  0  0
 38 42  1  0  0  0  0
 39 36  1  0  0  0  0
 39 37  1  0  0  0  0
 41 44  1  0  0  0  0
 41 43  2  0  0  0  0
 42 41  1  0  0  0  0
 42 44  1  0  0  0  0
 44 45  1  6  0  0  0
 45 47  1  0  0  0  0
 46 50  1  0  0  0  0
 47 48  1  0  0  0  0
 47 46  1  0  0  0  0
 48 51  2  0  0  0  0
 50 49  2  0  0  0  0
 51 49  1  0  0  0  0
M  END
>  <MODEL>
5

>  <REMARK>
 VINA RESULT:      -7.6      1.548      2.347
  Name = 
  9 active torsions:
  status: ('A' for Active; 'I' for Inactive)
    1  A    between atoms: N_3  and  C_19
    2  A    between atoms: C_13  and  C_29
    3  A    between atoms: C_14  and  N_16
    4  A    between atoms: C_14  and  CA_26
    5  A    between atoms: N_15  and  C_31
    6  A    between atoms: C_24  and  C_41
    7  A    between atoms: C_28  and  C_41
    8  A    between atoms: C_33  and  C_49
    9  A    between atoms: N_37  and  N_39
                            x       y       z     vdW  Elec       q    Type
                         _______ _______ _______ _____ _____    ______ ____

>  <TORSDO>
F 9

$$$$
=
 OpenBabel10232408533D

 51 58  0  0  1  0  0  0  0  0999 V2000
  190.4790  177.0420  145.8560 N   0  0  0  0  0  0  0  0  0  0  0  0
  191.8750  177.3680  141.1640 C   0  0  0  0  0  3  0  0  0  0  0  0
  191.9690  177.3480  142.4810 C   0  0  0  0  0  3  0  0  0  0  0  0
  189.4040  177.3440  140.7270 C   0  0  0  0  0  0  0  0  0  0  0  0
  188.5220  177.1630  139.5250 C   0  0  0  0  0  2  0  0  0  0  0  0
  190.6720  177.2600  140.3490 C   0  0  0  0  0  0  0  0  0  0  0  0
  189.4830  176.9870  138.3580 C   0  0  2  0  0  3  0  0  0  0  0  0
  188.8200  177.6430  142.0660 C   0  0  0  0  0  0  0  0  0  0  0  0
  191.3510  177.0040  144.7160 C   0  0  0  0  0  3  0  0  0  0  0  0
  190.8020  177.0580  138.9540 N   0  0  0  0  0  2  0  0  0  0  0  0
  188.6390  177.7410  144.5000 C   0  0  0  0  0  3  0  0  0  0  0  0
  189.1310  177.4880  145.7080 C   0  0  0  0  0  3  0  0  0  0  0  0
  190.9050  177.2460  143.4780 C   0  0  0  0  0  0  0  0  0  0  0  0
  189.4540  177.5570  143.2660 C   0  0  0  0  0  0  0  0  0  0  0  0
  185.4580  179.0820  141.0050 C   0  0  0  0  0  0  0  0  0  0  0  0
  185.3150  178.4770  143.3460 C   0  0  0  0  0  2  0  0  0  0  0  0
  184.8650  179.5410  139.7860 N   0  0  0  0  0  2  0  0  0  0  0  0
  186.8820  178.7070  141.0130 C   0  0  0  0  0  3  0  0  0  0  0  0
  184.7330  178.9040  142.0720 N   0  0  0  0  0  0  0  0  0  0  0  0
  187.3810  178.0000  142.0340 C   0  0  0  0  0  0  0  0  0  0  0  0
  186.4670  177.4960  143.1180 C   0  0  0  0  0  2  0  0  0  0  0  0
  182.5070  178.5690  138.3820 N   0  0  0  0  0  2  0  0  0  0  0  0
  182.5500  179.7770  138.8390 C   0  0  0  0  0  0  0  0  0  0  0  0
  183.6160  180.1850  139.7080 N   0  0  0  0  0  2  0  0  0  0  0  0
  180.1370  180.0240  139.3420 C   0  0  0  0  0  1  0  0  0  0  0  0
  181.0670  180.9010  137.2110 C   0  0  0  0  0  1  0  0  0  0  0  0
  181.3500  180.6500  138.6800 C   0  0  0  0  0  3  0  0  0  0  0  0
  193.1010  176.7600  149.0650 O   0  0  0  0  0  0  0  0  0  0  0  0
  191.9040  177.4420  149.3460 C   0  0  0  0  0  2  0  0  0  0  0  0
  190.9530  176.6640  147.1810 C   0  0  0  0  0  3  0  0  0  0  0  0
  192.1820  175.7600  147.0810 C   0  0  0  0  0  2  0  0  0  0  0  0
  191.2400  177.8960  148.0450 C   0  0  0  0  0  2  0  0  0  0  0  0
  192.7400  175.5300  148.4850 C   0  0  0  0  0  2  0  0  0  0  0  0
  189.2900  178.1320  137.3760 C   0  0  0  0  0  2  0  0  0  0  0  0
  186.8350  175.9960  134.3720 C   0  0  0  0  0  2  0  0  0  0  0  0
  188.6780  177.6510  136.0700 C   0  0  2  0  0  3  0  0  0  0  0  0
  186.6450  177.5040  134.3460 C   0  0  0  0  0  2  0  0  0  0  0  0
  188.3010  175.6570  134.6080 C   0  0  1  0  0  3  0  0  0  0  0  0
  186.9400  178.2020  136.0030 S   0  0  0  0  0  0  0  0  0  0  0  0
  188.7480  176.1300  135.9850 C   0  0  0  0  0  2  0  0  0  0  0  0
  187.9480  172.7940  134.4090 C   0  0  0  0  0  0  0  0  0  0  0  0
  188.4880  174.2220  134.5050 N   0  0  0  0  0  0  0  0  0  0  0  0
  186.9920  171.9790  134.3460 O   0  0  0  0  0  0  0  0  0  0  0  0
  189.3010  173.0900  134.4840 C   0  0  1  0  0  3  0  0  0  0  0  0
  189.8140  172.8060  135.8840 C   0  0  0  0  0  2  0  0  0  0  0  0
  192.1390  172.6600  134.9570 C   0  0  0  0  0  2  0  0  0  0  0  0
  191.2200  173.1580  135.9850 N   0  0  0  0  0  0  0  0  0  0  0  0
  191.6280  174.1580  136.9270 C   0  0  0  0  0  3  0  0  0  0  0  0
  193.9350  173.7380  136.2900 C   0  0  0  0  0  3  0  0  0  0  0  0
  193.5820  172.8840  135.3280 C   0  0  0  0  0  3  0  0  0  0  0  0
  192.9190  174.4500  137.0800 C   0  0  0  0  0  3  0  0  0  0  0  0
  1 30  1  0  0  0  0
  2  3  2  0  0  0  0
  3 13  1  0  0  0  0
  4  8  1  0  0  0  0
  5  4  1  0  0  0  0
  6  4  2  0  0  0  0
  6  2  1  0  0  0  0
  7 34  1  6  0  0  0
  7 10  1  0  0  0  0
  7  5  1  0  0  0  0
  8 14  2  0  0  0  0
  9  1  1  0  0  0  0
 10  6  1  0  0  0  0
 11 12  2  0  0  0  0
 12  1  1  0  0  0  0
 13  9  2  0  0  0  0
 14 13  1  0  0  0  0
 14 11  1  0  0  0  0
 15 18  1  0  0  0  0
 15 19  2  0  0  0  0
 17 15  1  0  0  0  0
 18 20  2  0  0  0  0
 19 16  1  0  0  0  0
 20  8  1  0  0  0  0
 20 21  1  0  0  0  0
 21 16  1  0  0  0  0
 22 23  2  0  0  0  0
 23 24  1  0  0  0  0
 24 17  1  0  0  0  0
 26 27  1  0  0  0  0
 27 23  1  0  0  0  0
 27 25  1  0  0  0  0
 28 29  1  0  0  0  0
 30 32  1  0  0  0  0
 31 30  1  0  0  0  0
 31 33  1  0  0  0  0
 32 29  1  0  0  0  0
 33 28  1  0  0  0  0
 36 34  1  1  0  0  0
 37 35  1  0  0  0  0
 37 39  1  0  0  0  0
 38 35  1  1  0  0  0
 38 40  1  0  0  0  0
 39 36  1  0  0  0  0
 40 36  1  0  0  0  0
 41 44  1  0  0  0  0
 41 42  1  0  0  0  0
 42 38  1  0  0  0  0
 43 41  2  0  0  0  0
 44 42  1  0  0  0  0
 44 45  1  1  0  0  0
 45 47  1  0  0  0  0
 46 50  1  0  0  0  0
 46 47  1  0  0  0  0
 47 48  1  0  0  0  0
 48 51  2  0  0  0  0
 49 51  1  0  0  0  0
 50 49  2  0  0  0  0
M  END
>  <MODEL>
6

>  <REMARK>
 VINA RESULT:      -7.4      3.249      9.171
  Name = 
  9 active torsions:
  status: ('A' for Active; 'I' for Inactive)
    1  A    between atoms: N_3  and  C_19
    2  A    between atoms: C_13  and  C_29
    3  A    between atoms: C_14  and  N_16
    4  A    between atoms: C_14  and  CA_26
    5  A    between atoms: N_15  and  C_31
    6  A    between atoms: C_24  and  C_41
    7  A    between atoms: C_28  and  C_41
    8  A    between atoms: C_33  and  C_49
    9  A    between atoms: N_37  and  N_39
                            x       y       z     vdW  Elec       q    Type
                         _______ _______ _______ _____ _____    ______ ____

>  <TORSDO>
F 9

$$$$
=
 OpenBabel10232408533D

 51 58  0  0  1  0  0  0  0  0999 V2000
  195.3320  174.2440  135.6060 N   0  0  0  0  0  0  0  0  0  0  0  0
  193.7030  176.3870  139.7080 C   0  0  0  0  0  3  0  0  0  0  0  0
  194.5290  175.7700  138.8810 C   0  0  0  0  0  3  0  0  0  0  0  0
  191.5080  176.3880  138.4930 C   0  0  0  0  0  0  0  0  0  0  0  0
  190.1720  177.0490  138.6780 C   0  0  0  0  0  2  0  0  0  0  0  0
  192.3170  176.7660  139.4730 C   0  0  0  0  0  0  0  0  0  0  0  0
  190.3130  177.8630  139.9570 C   0  0  2  0  0  3  0  0  0  0  0  0
  191.7340  175.4180  137.3820 C   0  0  0  0  0  0  0  0  0  0  0  0
  195.3850  174.9170  136.8720 C   0  0  0  0  0  3  0  0  0  0  0  0
  191.6770  177.6350  140.3890 N   0  0  0  0  0  2  0  0  0  0  0  0
  192.9460  174.1270  135.7010 C   0  0  0  0  0  3  0  0  0  0  0  0
  194.0780  173.8020  135.0850 C   0  0  0  0  0  3  0  0  0  0  0  0
  194.2750  175.2700  137.5320 C   0  0  0  0  0  0  0  0  0  0  0  0
  192.9350  174.9670  136.9310 C   0  0  0  0  0  0  0  0  0  0  0  0
  188.5540  173.5360  136.4630 C   0  0  0  0  0  0  0  0  0  0  0  0
  189.2530  174.8240  134.5360 C   0  0  0  0  0  2  0  0  0  0  0  0
  187.6170  172.6920  137.1400 N   0  0  0  0  0  2  0  0  0  0  0  0
  189.7670  173.9740  137.1740 C   0  0  0  0  0  3  0  0  0  0  0  0
  188.2990  173.9930  135.2720 N   0  0  0  0  0  0  0  0  0  0  0  0
  190.4950  174.9880  136.6910 C   0  0  0  0  0  0  0  0  0  0  0  0
  190.0160  175.7500  135.4850 C   0  0  0  0  0  2  0  0  0  0  0  0
  184.9310  173.6750  136.6040 N   0  0  0  0  0  2  0  0  0  0  0  0
  185.2200  172.4270  136.4390 C   0  0  0  0  0  0  0  0  0  0  0  0
  186.5830  171.9850  136.4980 N   0  0  0  0  0  2  0  0  0  0  0  0
  183.0890  171.2780  136.9660 C   0  0  0  0  0  1  0  0  0  0  0  0
  184.7740  170.1810  135.5060 C   0  0  0  0  0  1  0  0  0  0  0  0
  184.1660  171.5070  135.9210 C   0  0  0  0  0  3  0  0  0  0  0  0
  199.3590  173.4800  134.9400 O   0  0  0  0  0  0  0  0  0  0  0  0
  198.4920  172.4530  134.5230 C   0  0  0  0  0  2  0  0  0  0  0  0
  196.5450  173.9690  134.8460 C   0  0  0  0  0  3  0  0  0  0  0  0
  197.5720  175.0840  135.0410 C   0  0  0  0  0  2  0  0  0  0  0  0
  197.1340  172.6020  135.2090 C   0  0  0  0  0  2  0  0  0  0  0  0
  198.8800  174.6720  134.3680 C   0  0  0  0  0  2  0  0  0  0  0  0
  189.3380  177.3320  140.9960 C   0  0  0  0  0  2  0  0  0  0  0  0
  190.2060  176.5730  145.2720 C   0  0  0  0  0  2  0  0  0  0  0  0
  189.9260  177.3930  142.3970 C   0  0  2  0  0  3  0  0  0  0  0  0
  191.4090  176.3680  144.3650 C   0  0  0  0  0  2  0  0  0  0  0  0
  189.4040  177.7840  144.8110 C   0  0  1  0  0  3  0  0  0  0  0  0
  190.8620  175.8570  142.7040 S   0  0  0  0  0  0  0  0  0  0  0  0
  188.8130  177.5430  143.4280 C   0  0  0  0  0  2  0  0  0  0  0  0
  187.7350  177.9950  147.1630 C   0  0  0  0  0  0  0  0  0  0  0  0
  188.3350  178.0430  145.7560 N   0  0  0  0  0  0  0  0  0  0  0  0
  187.8120  177.7050  148.3850 O   0  0  0  0  0  0  0  0  0  0  0  0
  187.0430  178.4700  146.0580 C   0  0  1  0  0  3  0  0  0  0  0  0
  186.0410  177.4280  145.5920 C   0  0  0  0  0  2  0  0  0  0  0  0
  183.9700  178.8010  145.2560 C   0  0  0  0  0  2  0  0  0  0  0  0
  185.0780  178.0300  144.6850 N   0  0  0  0  0  0  0  0  0  0  0  0
  185.3590  178.0590  143.2800 C   0  0  0  0  0  3  0  0  0  0  0  0
  183.1700  179.0500  142.9190 C   0  0  0  0  0  3  0  0  0  0  0  0
  182.9240  179.1410  144.2270 C   0  0  0  0  0  3  0  0  0  0  0  0
  184.4610  178.5480  142.4260 C   0  0  0  0  0  3  0  0  0  0  0  0
  1  9  1  0  0  0  0
  3  2  2  0  0  0  0
  4  5  1  0  0  0  0
  4  6  2  0  0  0  0
  5  7  1  0  0  0  0
  6  2  1  0  0  0  0
  6 10  1  0  0  0  0
  7 10  1  0  0  0  0
  7 34  1  1  0  0  0
  8  4  1  0  0  0  0
  9 13  2  0  0  0  0
 11 14  1  0  0  0  0
 12  1  1  0  0  0  0
 12 11  2  0  0  0  0
 13  3  1  0  0  0  0
 14  8  2  0  0  0  0
 14 13  1  0  0  0  0
 15 17  1  0  0  0  0
 15 18  1  0  0  0  0
 16 19  1  0  0  0  0
 16 21  1  0  0  0  0
 19 15  2  0  0  0  0
 20 18  2  0  0  0  0
 20  8  1  0  0  0  0
 21 20  1  0  0  0  0
 23 24  1  0  0  0  0
 23 22  2  0  0  0  0
 24 17  1  0  0  0  0
 26 27  1  0  0  0  0
 27 23  1  0  0  0  0
 27 25  1  0  0  0  0
 29 28  1  0  0  0  0
 29 32  1  0  0  0  0
 30 31  1  0  0  0  0
 30 32  1  0  0  0  0
 30  1  1  0  0  0  0
 33 28  1  0  0  0  0
 33 31  1  0  0  0  0
 36 34  1  6  0  0  0
 36 39  1  0  0  0  0
 36 40  1  0  0  0  0
 37 35  1  0  0  0  0
 38 40  1  6  0  0  0
 38 35  1  0  0  0  0
 38 42  1  0  0  0  0
 39 37  1  0  0  0  0
 41 43  2  0  0  0  0
 42 44  1  0  0  0  0
 42 41  1  0  0  0  0
 44 45  1  6  0  0  0
 44 41  1  0  0  0  0
 47 46  1  0  0  0  0
 47 45  1  0  0  0  0
 48 47  1  0  0  0  0
 49 50  2  0  0  0  0
 50 46  1  0  0  0  0
 51 49  1  0  0  0  0
 51 48  2  0  0  0  0
M  END
>  <MODEL>
7

>  <REMARK>
 VINA RESULT:      -7.2      3.368      6.997
  Name = 
  9 active torsions:
  status: ('A' for Active; 'I' for Inactive)
    1  A    between atoms: N_3  and  C_19
    2  A    between atoms: C_13  and  C_29
    3  A    between atoms: C_14  and  N_16
    4  A    between atoms: C_14  and  CA_26
    5  A    between atoms: N_15  and  C_31
    6  A    between atoms: C_24  and  C_41
    7  A    between atoms: C_28  and  C_41
    8  A    between atoms: C_33  and  C_49
    9  A    between atoms: N_37  and  N_39
                            x       y       z     vdW  Elec       q    Type
                         _______ _______ _______ _____ _____    ______ ____

>  <TORSDO>
F 9

$$$$
=
 OpenBabel10232408533D

 51 58  0  0  1  0  0  0  0  0999 V2000
  190.5090  177.1170  145.8820 N   0  0  0  0  0  0  0  0  0  0  0  0
  191.9860  177.3350  141.2090 C   0  0  0  0  0  3  0  0  0  0  0  0
  192.0570  177.3490  142.5280 C   0  0  0  0  0  3  0  0  0  0  0  0
  189.5230  177.2810  140.7290 C   0  0  0  0  0  0  0  0  0  0  0  0
  188.6650  177.0620  139.5160 C   0  0  0  0  0  2  0  0  0  0  0  0
  190.7990  177.1960  140.3760 C   0  0  0  0  0  0  0  0  0  0  0  0
  189.6480  176.8650  138.3710 C   0  0  2  0  0  3  0  0  0  0  0  0
  188.9130  177.6090  142.0490 C   0  0  0  0  0  0  0  0  0  0  0  0
  191.4010  177.0570  144.7600 C   0  0  0  0  0  3  0  0  0  0  0  0
  190.9550  176.9600  138.9890 N   0  0  0  0  0  2  0  0  0  0  0  0
  188.6880  177.7670  144.4760 C   0  0  0  0  0  3  0  0  0  0  0  0
  189.1600  177.5480  145.6990 C   0  0  0  0  0  3  0  0  0  0  0  0
  190.9760  177.2640  143.5070 C   0  0  0  0  0  0  0  0  0  0  0  0
  189.5270  177.5580  143.2630 C   0  0  0  0  0  0  0  0  0  0  0  0
  185.5640  179.0140  140.9040 C   0  0  0  0  0  0  0  0  0  0  0  0
  185.3740  178.4210  143.2450 C   0  0  0  0  0  2  0  0  0  0  0  0
  184.9950  179.4600  139.6690 N   0  0  0  0  0  2  0  0  0  0  0  0
  186.9910  178.6510  140.9470 C   0  0  0  0  0  3  0  0  0  0  0  0
  184.8170  178.8360  141.9560 N   0  0  0  0  0  0  0  0  0  0  0  0
  187.4720  177.9540  141.9820 C   0  0  0  0  0  0  0  0  0  0  0  0
  186.5390  177.4490  143.0490 C   0  0  0  0  0  2  0  0  0  0  0  0
  182.4330  178.1530  139.2210 N   0  0  0  0  0  2  0  0  0  0  0  0
  182.5410  179.4370  139.1340 C   0  0  0  0  0  0  0  0  0  0  0  0
  183.7440  180.0930  139.5590 N   0  0  0  0  0  2  0  0  0  0  0  0
  180.3420  180.1680  140.0080 C   0  0  0  0  0  1  0  0  0  0  0  0
  180.6490  179.7650  137.5750 C   0  0  0  0  0  1  0  0  0  0  0  0
  181.3190  180.2440  138.8490 C   0  0  0  0  0  3  0  0  0  0  0  0
  193.0670  176.9550  149.1500 O   0  0  0  0  0  0  0  0  0  0  0  0
  191.8500  177.6190  149.3920 C   0  0  0  0  0  2  0  0  0  0  0  0
  190.9610  176.7760  147.2250 C   0  0  0  0  0  3  0  0  0  0  0  0
  192.2100  175.8950  147.1700 C   0  0  0  0  0  2  0  0  0  0  0  0
  191.2060  178.0320  148.0680 C   0  0  0  0  0  2  0  0  0  0  0  0
  192.7420  175.7060  148.5890 C   0  0  0  0  0  2  0  0  0  0  0  0
  189.4640  177.9830  137.3580 C   0  0  0  0  0  2  0  0  0  0  0  0
  186.2840  176.2340  134.8190 C   0  0  0  0  0  2  0  0  0  0  0  0
  188.6360  177.5260  136.1660 C   0  0  2  0  0  3  0  0  0  0  0  0
  186.4940  177.7220  134.5860 C   0  0  0  0  0  2  0  0  0  0  0  0
  187.6260  175.5430  135.0270 C   0  0  1  0  0  3  0  0  0  0  0  0
  187.1040  178.5150  136.1090 S   0  0  0  0  0  0  0  0  0  0  0  0
  188.2990  176.0450  136.2970 C   0  0  0  0  0  2  0  0  0  0  0  0
  187.8380  172.6660  134.8360 C   0  0  0  0  0  0  0  0  0  0  0  0
  187.4220  174.1100  135.1210 N   0  0  0  0  0  0  0  0  0  0  0  0
  188.6340  171.8240  134.3460 O   0  0  0  0  0  0  0  0  0  0  0  0
  186.6600  173.0020  135.4880 C   0  0  1  0  0  3  0  0  0  0  0  0
  185.4860  172.8550  134.5360 C   0  0  0  0  0  2  0  0  0  0  0  0
  183.0920  173.4590  134.9770 C   0  0  0  0  0  2  0  0  0  0  0  0
  184.2600  172.6280  135.2840 N   0  0  0  0  0  0  0  0  0  0  0  0
  184.1500  171.4660  136.1160 C   0  0  0  0  0  3  0  0  0  0  0  0
  181.9690  172.2590  136.8380 C   0  0  0  0  0  3  0  0  0  0  0  0
  181.9920  173.2910  135.9930 C   0  0  0  0  0  3  0  0  0  0  0  0
  183.0610  171.2740  136.8590 C   0  0  0  0  0  3  0  0  0  0  0  0
  1 30  1  0  0  0  0
  2  3  2  0  0  0  0
  3 13  1  0  0  0  0
  4  8  1  0  0  0  0
  5  4  1  0  0  0  0
  6  4  2  0  0  0  0
  6  2  1  0  0  0  0
  7 34  1  6  0  0  0
  7 10  1  0  0  0  0
  7  5  1  0  0  0  0
  8 14  2  0  0  0  0
  9  1  1  0  0  0  0
 10  6  1  0  0  0  0
 11 12  2  0  0  0  0
 12  1  1  0  0  0  0
 13  9  2  0  0  0  0
 14 13  1  0  0  0  0
 14 11  1  0  0  0  0
 15 18  1  0  0  0  0
 15 19  2  0  0  0  0
 17 15  1  0  0  0  0
 18 20  2  0  0  0  0
 19 16  1  0  0  0  0
 20  8  1  0  0  0  0
 20 21  1  0  0  0  0
 21 16  1  0  0  0  0
 23 22  2  0  0  0  0
 23 24  1  0  0  0  0
 24 17  1  0  0  0  0
 26 27  1  0  0  0  0
 27 23  1  0  0  0  0
 27 25  1  0  0  0  0
 28 29  1  0  0  0  0
 30 32  1  0  0  0  0
 31 30  1  0  0  0  0
 31 33  1  0  0  0  0
 32 29  1  0  0  0  0
 33 28  1  0  0  0  0
 36 40  1  0  0  0  0
 36 34  1  1  0  0  0
 37 35  1  0  0  0  0
 37 39  1  0  0  0  0
 38 35  1  1  0  0  0
 38 42  1  0  0  0  0
 38 40  1  0  0  0  0
 39 36  1  0  0  0  0
 41 42  1  0  0  0  0
 41 44  1  0  0  0  0
 42 44  1  0  0  0  0
 43 41  2  0  0  0  0
 44 45  1  6  0  0  0
 45 47  1  0  0  0  0
 46 47  1  0  0  0  0
 46 50  1  0  0  0  0
 47 48  1  0  0  0  0
 48 51  2  0  0  0  0
 49 51  1  0  0  0  0
 50 49  2  0  0  0  0
M  END
>  <MODEL>
8

>  <REMARK>
 VINA RESULT:      -7.2      3.840      8.734
  Name = 
  9 active torsions:
  status: ('A' for Active; 'I' for Inactive)
    1  A    between atoms: N_3  and  C_19
    2  A    between atoms: C_13  and  C_29
    3  A    between atoms: C_14  and  N_16
    4  A    between atoms: C_14  and  CA_26
    5  A    between atoms: N_15  and  C_31
    6  A    between atoms: C_24  and  C_41
    7  A    between atoms: C_28  and  C_41
    8  A    between atoms: C_33  and  C_49
    9  A    between atoms: N_37  and  N_39
                            x       y       z     vdW  Elec       q    Type
                         _______ _______ _______ _____ _____    ______ ____

>  <TORSDO>
F 9

$$$$
=
 OpenBabel10232408533D

 51 58  0  0  1  0  0  0  0  0999 V2000
  190.6850  176.9790  145.9430 N   0  0  0  0  0  0  0  0  0  0  0  0
  185.8360  177.6620  145.6410 C   0  0  0  0  0  3  0  0  0  0  0  0
  187.0050  177.3220  146.1540 C   0  0  0  0  0  3  0  0  0  0  0  0
  186.3510  178.2060  143.2470 C   0  0  0  0  0  0  0  0  0  0  0  0
  185.6140  178.8380  142.1010 C   0  0  0  0  0  2  0  0  0  0  0  0
  185.5570  178.1760  144.3080 C   0  0  0  0  0  0  0  0  0  0  0  0
  184.2300  179.1500  142.6510 C   0  0  2  0  0  3  0  0  0  0  0  0
  187.7310  177.6690  143.0660 C   0  0  0  0  0  0  0  0  0  0  0  0
  189.3330  177.1690  146.3860 C   0  0  0  0  0  3  0  0  0  0  0  0
  184.2750  178.7100  144.0310 N   0  0  0  0  0  2  0  0  0  0  0  0
  189.9970  176.9720  143.6540 C   0  0  0  0  0  3  0  0  0  0  0  0
  190.9640  176.8160  144.5530 C   0  0  0  0  0  3  0  0  0  0  0  0
  188.3240  177.3350  145.5240 C   0  0  0  0  0  0  0  0  0  0  0  0
  188.6070  177.3340  144.0520 C   0  0  0  0  0  0  0  0  0  0  0  0
  189.7750  176.9590  139.9330 C   0  0  0  0  0  0  0  0  0  0  0  0
  188.0370  178.5440  139.3580 C   0  0  0  0  0  2  0  0  0  0  0  0
  190.8550  176.0900  139.5750 N   0  0  0  0  0  2  0  0  0  0  0  0
  189.3410  177.0200  141.3390 C   0  0  0  0  0  3  0  0  0  0  0  0
  189.1180  177.6150  139.0210 N   0  0  0  0  0  0  0  0  0  0  0  0
  188.1650  177.5750  141.6510 C   0  0  0  0  0  0  0  0  0  0  0  0
  187.2380  178.0380  140.5600 C   0  0  0  0  0  2  0  0  0  0  0  0
  190.8650  174.0380  137.5100 N   0  0  0  0  0  2  0  0  0  0  0  0
  191.6860  175.0330  137.4530 C   0  0  0  0  0  0  0  0  0  0  0  0
  191.5400  176.1450  138.3470 N   0  0  0  0  0  2  0  0  0  0  0  0
  193.2160  173.7900  135.9520 C   0  0  0  0  0  1  0  0  0  0  0  0
  193.7040  176.1500  136.5600 C   0  0  0  0  0  1  0  0  0  0  0  0
  192.6060  175.1410  136.2830 C   0  0  0  0  0  3  0  0  0  0  0  0
  192.7310  175.8930  149.3900 O   0  0  0  0  0  0  0  0  0  0  0  0
  193.3250  175.4520  148.1940 C   0  0  0  0  0  2  0  0  0  0  0  0
  191.7890  176.9150  146.8930 C   0  0  0  0  0  3  0  0  0  0  0  0
  191.3820  177.5150  148.2390 C   0  0  0  0  0  2  0  0  0  0  0  0
  192.3030  175.4820  147.0570 C   0  0  0  0  0  2  0  0  0  0  0  0
  192.5050  177.2740  149.2460 C   0  0  0  0  0  2  0  0  0  0  0  0
  183.1940  178.3480  141.8790 C   0  0  0  0  0  2  0  0  0  0  0  0
  182.3320  178.4560  137.5360 C   0  0  0  0  0  2  0  0  0  0  0  0
  183.2190  178.6840  140.3960 C   0  0  2  0  0  3  0  0  0  0  0  0
  182.1380  179.7980  138.2240 C   0  0  0  0  0  2  0  0  0  0  0  0
  183.5590  177.7510  138.1010 C   0  0  1  0  0  3  0  0  0  0  0  0
  181.6690  179.5460  139.9660 S   0  0  0  0  0  0  0  0  0  0  0  0
  183.3550  177.4090  139.5700 C   0  0  0  0  0  2  0  0  0  0  0  0
  183.5160  175.0680  137.0230 C   0  0  0  0  0  0  0  0  0  0  0  0
  183.8060  176.5340  137.3500 N   0  0  0  0  0  0  0  0  0  0  0  0
  182.8650  174.0070  137.2010 O   0  0  0  0  0  0  0  0  0  0  0  0
  184.5340  175.7940  136.4210 C   0  0  1  0  0  3  0  0  0  0  0  0
  185.8720  175.3990  137.0210 C   0  0  0  0  0  2  0  0  0  0  0  0
  187.8730  175.1560  135.5310 C   0  0  0  0  0  2  0  0  0  0  0  0
  186.9570  176.0200  136.2800 N   0  0  0  0  0  0  0  0  0  0  0  0
  186.9640  177.4430  136.1040 C   0  0  0  0  0  3  0  0  0  0  0  0
  189.1110  177.2380  134.9850 C   0  0  0  0  0  3  0  0  0  0  0  0
  189.0820  175.9050  135.0330 C   0  0  0  0  0  3  0  0  0  0  0  0
  187.9810  178.0370  135.4840 C   0  0  0  0  0  3  0  0  0  0  0  0
  1  9  1  0  0  0  0
  1 30  1  0  0  0  0
  2  3  2  0  0  0  0
  4  6  2  0  0  0  0
  5  7  1  0  0  0  0
  5  4  1  0  0  0  0
  6  2  1  0  0  0  0
  7 34  1  6  0  0  0
  7 10  1  0  0  0  0
  8  4  1  0  0  0  0
  8 14  2  0  0  0  0
 10  6  1  0  0  0  0
 11 14  1  0  0  0  0
 11 12  2  0  0  0  0
 12  1  1  0  0  0  0
 13  3  1  0  0  0  0
 13  9  2  0  0  0  0
 14 13  1  0  0  0  0
 15 18  1  0  0  0  0
 16 21  1  0  0  0  0
 17 15  1  0  0  0  0
 18 20  2  0  0  0  0
 19 16  1  0  0  0  0
 19 15  2  0  0  0  0
 20  8  1  0  0  0  0
 21 20  1  0  0  0  0
 23 22  2  0  0  0  0
 23 24  1  0  0  0  0
 24 17  1  0  0  0  0
 25 27  1  0  0  0  0
 27 26  1  0  0  0  0
 27 23  1  0  0  0  0
 29 28  1  0  0  0  0
 30 32  1  0  0  0  0
 30 31  1  0  0  0  0
 31 33  1  0  0  0  0
 32 29  1  0  0  0  0
 33 28  1  0  0  0  0
 35 38  1  0  0  0  0
 35 37  1  0  0  0  0
 36 34  1  1  0  0  0
 37 39  1  0  0  0  0
 38 42  1  6  0  0  0
 38 40  1  0  0  0  0
 39 36  1  0  0  0  0
 40 36  1  0  0  0  0
 41 43  2  0  0  0  0
 41 42  1  0  0  0  0
 44 45  1  1  0  0  0
 44 41  1  0  0  0  0
 44 42  1  0  0  0  0
 46 47  1  0  0  0  0
 47 45  1  0  0  0  0
 48 47  1  0  0  0  0
 49 50  2  0  0  0  0
 49 51  1  0  0  0  0
 50 46  1  0  0  0  0
 51 48  2  0  0  0  0
M  END
>  <MODEL>
9

>  <REMARK>
 VINA RESULT:      -7.0      2.894      8.208
  Name = 
  9 active torsions:
  status: ('A' for Active; 'I' for Inactive)
    1  A    between atoms: N_3  and  C_19
    2  A    between atoms: C_13  and  C_29
    3  A    between atoms: C_14  and  N_16
    4  A    between atoms: C_14  and  CA_26
    5  A    between atoms: N_15  and  C_31
    6  A    between atoms: C_24  and  C_41
    7  A    between atoms: C_28  and  C_41
    8  A    between atoms: C_33  and  C_49
    9  A    between atoms: N_37  and  N_39
                            x       y       z     vdW  Elec       q    Type
                         _______ _______ _______ _____ _____    ______ ____

>  <TORSDO>
F 9

$$$$
