=
 OpenBabel10232407563D

 26 28  0  0  1  0  0  0  0  0999 V2000
  189.8240  177.0290  141.3240 N   0  0  0  0  0  0  0  0  0  0  0  0
  190.4950  177.7130  140.2260 C   0  0  0  0  0  1  0  0  0  0  0  0
  187.4480  177.5820  141.5040 C   0  0  2  0  0  3  0  0  0  0  0  0
  188.8670  177.9580  141.9280 C   0  0  2  0  0  3  0  0  0  0  0  0
  188.1670  178.7460  140.8420 C   0  0  0  0  0  2  0  0  0  0  0  0
  186.4160  177.6010  143.8240 C   0  0  0  0  0  0  0  0  0  0  0  0
  184.4490  179.4160  143.0090 C   0  0  0  0  0  3  0  0  0  0  0  0
  185.4080  178.9790  142.0910 C   0  0  0  0  0  0  0  0  0  0  0  0
  183.5240  179.4060  145.2330 O   0  0  0  0  0  1  0  0  0  0  0  0
  184.4750  178.9610  144.3260 C   0  0  0  0  0  0  0  0  0  0  0  0
  187.3520  176.6680  144.2520 O   0  0  0  0  0  1  0  0  0  0  0  0
  185.4510  178.0490  144.7290 C   0  0  0  0  0  3  0  0  0  0  0  0
  185.3270  179.4360  140.7430 N   0  0  0  0  0  1  0  0  0  0  0  0
  186.4270  178.0870  142.4980 C   0  0  0  0  0  0  0  0  0  0  0  0
  190.8470  176.6030  142.2920 C   0  0  2  0  0  3  0  0  0  0  0  0
  190.4010  175.4850  143.0030 O   0  0  0  0  0  1  0  0  0  0  0  0
  191.2840  177.7150  143.2540 C   0  0  0  0  0  2  0  0  0  0  0  0
  190.0050  177.6640  145.3960 N   0  0  0  0  0  0  0  0  0  0  0  0
  192.0680  175.7020  147.6970 C   0  0  0  0  0  1  0  0  0  0  0  0
  190.2370  177.1120  146.6020 C   0  0  1  0  0  3  0  0  0  0  0  0
  191.9840  176.5550  145.3490 N   0  0  0  0  0  0  0  0  0  0  0  0
  191.4370  176.4420  146.5710 C   0  0  0  0  0  0  0  0  0  0  0  0
  191.0820  177.2960  144.6690 C   0  0  0  0  0  0  0  0  0  0  0  0
  187.8860  177.3640  147.3240 C   0  0  0  0  0  1  0  0  0  0  0  0
  189.7090  178.4380  148.6200 C   0  0  0  0  0  1  0  0  0  0  0  0
  189.3260  177.2360  147.7800 C   0  0  0  0  0  3  0  0  0  0  0  0
  1 15  1  0  0  0  0
  2  1  1  0  0  0  0
  3  4  1  0  0  0  0
  3 14  1  1  0  0  0
  4  1  1  6  0  0  0
  5  3  1  0  0  0  0
  5  4  1  0  0  0  0
  6 11  1  0  0  0  0
  6 12  1  0  0  0  0
  7 10  1  0  0  0  0
  8 14  1  0  0  0  0
  8  7  2  0  0  0  0
 10 12  2  0  0  0  0
 10  9  1  0  0  0  0
 13  8  1  0  0  0  0
 14  6  2  0  0  0  0
 15 16  1  1  0  0  0
 15 17  1  0  0  0  0
 17 23  1  0  0  0  0
 18 20  1  0  0  0  0
 20 26  1  1  0  0  0
 21 22  2  0  0  0  0
 22 20  1  0  0  0  0
 22 19  1  0  0  0  0
 23 21  1  0  0  0  0
 23 18  2  0  0  0  0
 24 26  1  0  0  0  0
 26 25  1  0  0  0  0
M  END
>  <MODEL>
1

>  <REMARK>
 VINA RESULT:      -8.2      0.000      0.000
  Name = 
  6 active torsions:
  status: ('A' for Active; 'I' for Inactive)
    1  A    between atoms: N_7  and  C_14
    2  A    between atoms: N_7  and  C_23
    3  A    between atoms: C_10  and  C_21
    4  A    between atoms: C_11  and  C_26
    5  A    between atoms: C_14  and  C_24
    6  A    between atoms: C_17  and  C_24
                            x       y       z     vdW  Elec       q    Type
                         _______ _______ _______ _____ _____    ______ ____

>  <TORSDO>
F 6

$$$$
=
 OpenBabel10232407563D

 26 28  0  0  1  0  0  0  0  0999 V2000
  184.4230  178.3300  143.9770 N   0  0  0  0  0  0  0  0  0  0  0  0
  183.4300  179.1130  144.7000 C   0  0  0  0  0  1  0  0  0  0  0  0
  186.1530  177.4550  145.4700 C   0  0  2  0  0  3  0  0  0  0  0  0
  185.7390  178.6080  144.5560 C   0  0  2  0  0  3  0  0  0  0  0  0
  185.6140  178.7500  146.0580 C   0  0  0  0  0  2  0  0  0  0  0  0
  188.4670  176.9670  144.5460 C   0  0  0  0  0  0  0  0  0  0  0  0
  189.6490  177.5570  147.0120 C   0  0  0  0  0  3  0  0  0  0  0  0
  188.2620  177.6520  146.8710 C   0  0  0  0  0  0  0  0  0  0  0  0
  191.8210  177.0970  146.0760 O   0  0  0  0  0  1  0  0  0  0  0  0
  190.4440  177.1810  145.9300 C   0  0  0  0  0  0  0  0  0  0  0  0
  187.9100  176.6260  143.3200 O   0  0  0  0  0  1  0  0  0  0  0  0
  189.8520  176.8790  144.7030 C   0  0  0  0  0  3  0  0  0  0  0  0
  187.4790  178.0020  148.0100 N   0  0  0  0  0  1  0  0  0  0  0  0
  187.6540  177.3890  145.6220 C   0  0  0  0  0  0  0  0  0  0  0  0
  184.3670  178.7160  142.5580 C   0  0  2  0  0  3  0  0  0  0  0  0
  184.1630  177.5870  141.7600 O   0  0  0  0  0  1  0  0  0  0  0  0
  185.5980  179.4980  142.0830 C   0  0  0  0  0  2  0  0  0  0  0  0
  187.4060  178.4770  140.6980 N   0  0  0  0  0  0  0  0  0  0  0  0
  185.9220  178.0030  137.3850 C   0  0  0  0  0  1  0  0  0  0  0  0
  187.4770  178.0790  139.4140 C   0  0  1  0  0  3  0  0  0  0  0  0
  185.4050  178.8310  139.6870 N   0  0  0  0  0  0  0  0  0  0  0  0
  186.2640  178.2960  138.8030 C   0  0  0  0  0  0  0  0  0  0  0  0
  186.1350  178.9180  140.8210 C   0  0  0  0  0  0  0  0  0  0  0  0
  189.7270  177.1390  139.8220 C   0  0  0  0  0  1  0  0  0  0  0  0
  189.2960  178.5040  137.7950 C   0  0  0  0  0  1  0  0  0  0  0  0
  188.6990  177.5090  138.7700 C   0  0  0  0  0  3  0  0  0  0  0  0
  1  2  1  0  0  0  0
  3 14  1  1  0  0  0
  3  5  1  0  0  0  0
  4  1  1  6  0  0  0
  4  3  1  0  0  0  0
  4  5  1  0  0  0  0
  6 12  2  0  0  0  0
  6 14  1  0  0  0  0
  8  7  1  0  0  0  0
  8 13  1  0  0  0  0
 10  9  1  0  0  0  0
 10  7  2  0  0  0  0
 11  6  1  0  0  0  0
 12 10  1  0  0  0  0
 14  8  2  0  0  0  0
 15 16  1  6  0  0  0
 15  1  1  0  0  0  0
 17 15  1  0  0  0  0
 18 23  2  0  0  0  0
 19 22  1  0  0  0  0
 20 26  1  6  0  0  0
 20 18  1  0  0  0  0
 21 23  1  0  0  0  0
 22 20  1  0  0  0  0
 22 21  2  0  0  0  0
 23 17  1  0  0  0  0
 25 26  1  0  0  0  0
 26 24  1  0  0  0  0
M  END
>  <MODEL>
2

>  <REMARK>
 VINA RESULT:      -7.9      2.210      7.101
  Name = 
  6 active torsions:
  status: ('A' for Active; 'I' for Inactive)
    1  A    between atoms: N_7  and  C_14
    2  A    between atoms: N_7  and  C_23
    3  A    between atoms: C_10  and  C_21
    4  A    between atoms: C_11  and  C_26
    5  A    between atoms: C_14  and  C_24
    6  A    between atoms: C_17  and  C_24
                            x       y       z     vdW  Elec       q    Type
                         _______ _______ _______ _____ _____    ______ ____

>  <TORSDO>
F 6

$$$$
=
 OpenBabel10232407563D

 26 28  0  0  1  0  0  0  0  0999 V2000
  188.7580  177.8760  145.3520 N   0  0  0  0  0  0  0  0  0  0  0  0
  189.0850  176.9790  146.4530 C   0  0  0  0  0  1  0  0  0  0  0  0
  186.4720  178.7040  145.0860 C   0  0  2  0  0  3  0  0  0  0  0  0
  187.4240  177.5310  144.8590 C   0  0  2  0  0  3  0  0  0  0  0  0
  186.4460  177.5000  146.0130 C   0  0  0  0  0  2  0  0  0  0  0  0
  185.5260  178.5730  142.7340 C   0  0  0  0  0  0  0  0  0  0  0  0
  182.9100  178.7900  143.7000 C   0  0  0  0  0  3  0  0  0  0  0  0
  183.9810  178.8000  144.5980 C   0  0  0  0  0  0  0  0  0  0  0  0
  182.0700  178.6430  141.4470 O   0  0  0  0  0  1  0  0  0  0  0  0
  183.1400  178.6610  142.3310 C   0  0  0  0  0  0  0  0  0  0  0  0
  186.8140  178.5060  142.2160 O   0  0  0  0  0  1  0  0  0  0  0  0
  184.4450  178.5620  141.8500 C   0  0  0  0  0  3  0  0  0  0  0  0
  183.7100  178.9720  145.9870 N   0  0  0  0  0  1  0  0  0  0  0  0
  185.3060  178.6590  144.1260 C   0  0  0  0  0  0  0  0  0  0  0  0
  189.7800  177.7070  144.3070 C   0  0  2  0  0  3  0  0  0  0  0  0
  190.0310  178.9300  143.6770 O   0  0  0  0  0  1  0  0  0  0  0  0
  189.4310  176.6290  143.2730 C   0  0  0  0  0  2  0  0  0  0  0  0
  189.4110  177.0450  140.8120 N   0  0  0  0  0  0  0  0  0  0  0  0
  192.9300  177.4200  139.8750 C   0  0  0  0  0  1  0  0  0  0  0  0
  190.3780  177.2550  139.9000 C   0  0  1  0  0  3  0  0  0  0  0  0
  191.4350  177.0180  141.8380 N   0  0  0  0  0  0  0  0  0  0  0  0
  191.6030  177.2370  140.5240 C   0  0  0  0  0  0  0  0  0  0  0  0
  190.0940  176.9150  141.9700 C   0  0  0  0  0  0  0  0  0  0  0  0
  189.1100  178.5540  138.2200 C   0  0  0  0  0  1  0  0  0  0  0  0
  189.6540  176.1700  137.8000 C   0  0  0  0  0  1  0  0  0  0  0  0
  190.1340  177.4570  138.4390 C   0  0  0  0  0  3  0  0  0  0  0  0
  1  2  1  0  0  0  0
  3 14  1  6  0  0  0
  3  5  1  0  0  0  0
  4  3  1  0  0  0  0
  4  1  1  1  0  0  0
  4  5  1  0  0  0  0
  6 14  1  0  0  0  0
  7  8  1  0  0  0  0
  8 13  1  0  0  0  0
  9 10  1  0  0  0  0
 10  7  2  0  0  0  0
 11  6  1  0  0  0  0
 12 10  1  0  0  0  0
 12  6  2  0  0  0  0
 14  8  2  0  0  0  0
 15 16  1  6  0  0  0
 15  1  1  0  0  0  0
 17 15  1  0  0  0  0
 18 23  2  0  0  0  0
 19 22  1  0  0  0  0
 20 26  1  6  0  0  0
 20 22  1  0  0  0  0
 20 18  1  0  0  0  0
 21 23  1  0  0  0  0
 22 21  2  0  0  0  0
 23 17  1  0  0  0  0
 24 26  1  0  0  0  0
 25 26  1  0  0  0  0
M  END
>  <MODEL>
3

>  <REMARK>
 VINA RESULT:      -7.8      2.274      5.245
  Name = 
  6 active torsions:
  status: ('A' for Active; 'I' for Inactive)
    1  A    between atoms: N_7  and  C_14
    2  A    between atoms: N_7  and  C_23
    3  A    between atoms: C_10  and  C_21
    4  A    between atoms: C_11  and  C_26
    5  A    between atoms: C_14  and  C_24
    6  A    between atoms: C_17  and  C_24
                            x       y       z     vdW  Elec       q    Type
                         _______ _______ _______ _____ _____    ______ ____

>  <TORSDO>
F 6

$$$$
=
 OpenBabel10232407563D

 26 28  0  0  1  0  0  0  0  0999 V2000
  188.8920  177.7800  144.7000 N   0  0  0  0  0  0  0  0  0  0  0  0
  189.3720  176.9770  145.8180 C   0  0  0  0  0  1  0  0  0  0  0  0
  186.6320  178.6840  144.9370 C   0  0  2  0  0  3  0  0  0  0  0  0
  187.4720  177.4860  144.4990 C   0  0  2  0  0  3  0  0  0  0  0  0
  186.7620  177.4640  145.8350 C   0  0  0  0  0  2  0  0  0  0  0  0
  185.2040  178.7510  142.8380 C   0  0  0  0  0  0  0  0  0  0  0  0
  182.8550  178.7810  144.3550 C   0  0  0  0  0  3  0  0  0  0  0  0
  184.0930  178.7400  145.0020 C   0  0  0  0  0  0  0  0  0  0  0  0
  181.5520  178.8260  142.3290 O   0  0  0  0  0  1  0  0  0  0  0  0
  182.7860  178.7950  142.9630 C   0  0  0  0  0  0  0  0  0  0  0  0
  186.3510  178.7810  142.0550 O   0  0  0  0  0  1  0  0  0  0  0  0
  183.9590  178.7900  142.2080 C   0  0  0  0  0  3  0  0  0  0  0  0
  184.1240  178.7650  146.4270 N   0  0  0  0  0  1  0  0  0  0  0  0
  185.2880  178.6930  144.2470 C   0  0  0  0  0  0  0  0  0  0  0  0
  189.6890  177.4330  143.5130 C   0  0  2  0  0  3  0  0  0  0  0  0
  190.1890  178.5910  142.9130 O   0  0  0  0  0  1  0  0  0  0  0  0
  188.9280  176.5800  142.4890 C   0  0  0  0  0  2  0  0  0  0  0  0
  190.5140  176.3350  140.5780 N   0  0  0  0  0  0  0  0  0  0  0  0
  189.2310  178.5660  137.9750 C   0  0  0  0  0  1  0  0  0  0  0  0
  190.5830  176.8890  139.3530 C   0  0  1  0  0  3  0  0  0  0  0  0
  188.7630  177.7490  140.2910 N   0  0  0  0  0  0  0  0  0  0  0  0
  189.5220  177.7460  139.1830 C   0  0  0  0  0  0  0  0  0  0  0  0
  189.3960  176.8770  141.1060 C   0  0  0  0  0  0  0  0  0  0  0  0
  191.5270  175.2070  137.8060 C   0  0  0  0  0  1  0  0  0  0  0  0
  193.0270  176.7850  138.9960 C   0  0  0  0  0  1  0  0  0  0  0  0
  191.6630  176.6130  138.3580 C   0  0  0  0  0  3  0  0  0  0  0  0
  1  2  1  0  0  0  0
  3 14  1  6  0  0  0
  3  5  1  0  0  0  0
  4  1  1  1  0  0  0
  4  3  1  0  0  0  0
  4  5  1  0  0  0  0
  6 14  1  0  0  0  0
  7  8  1  0  0  0  0
  8 13  1  0  0  0  0
  9 10  1  0  0  0  0
 10  7  2  0  0  0  0
 11  6  1  0  0  0  0
 12  6  2  0  0  0  0
 12 10  1  0  0  0  0
 14  8  2  0  0  0  0
 15 16  1  6  0  0  0
 15  1  1  0  0  0  0
 17 15  1  0  0  0  0
 18 23  2  0  0  0  0
 19 22  1  0  0  0  0
 20 26  1  1  0  0  0
 20 18  1  0  0  0  0
 21 23  1  0  0  0  0
 22 20  1  0  0  0  0
 22 21  2  0  0  0  0
 23 17  1  0  0  0  0
 24 26  1  0  0  0  0
 26 25  1  0  0  0  0
M  END
>  <MODEL>
4

>  <REMARK>
 VINA RESULT:      -7.7      2.286      5.627
  Name = 
  6 active torsions:
  status: ('A' for Active; 'I' for Inactive)
    1  A    between atoms: N_7  and  C_14
    2  A    between atoms: N_7  and  C_23
    3  A    between atoms: C_10  and  C_21
    4  A    between atoms: C_11  and  C_26
    5  A    between atoms: C_14  and  C_24
    6  A    between atoms: C_17  and  C_24
                            x       y       z     vdW  Elec       q    Type
                         _______ _______ _______ _____ _____    ______ ____

>  <TORSDO>
F 6

$$$$
=
 OpenBabel10232407563D

 26 28  0  0  1  0  0  0  0  0999 V2000
  188.6630  177.5570  144.5910 N   0  0  0  0  0  0  0  0  0  0  0  0
  189.0850  176.8850  145.8130 C   0  0  0  0  0  1  0  0  0  0  0  0
  186.4560  178.6070  144.7170 C   0  0  2  0  0  3  0  0  0  0  0  0
  187.2280  177.3240  144.4120 C   0  0  2  0  0  3  0  0  0  0  0  0
  186.5160  177.4820  145.7370 C   0  0  0  0  0  2  0  0  0  0  0  0
  185.0390  178.5900  142.6100 C   0  0  0  0  0  0  0  0  0  0  0  0
  182.6870  178.8020  144.1090 C   0  0  0  0  0  3  0  0  0  0  0  0
  183.9210  178.7580  144.7630 C   0  0  0  0  0  0  0  0  0  0  0  0
  181.3940  178.7630  142.0770 O   0  0  0  0  0  1  0  0  0  0  0  0
  182.6240  178.7280  142.7180 C   0  0  0  0  0  0  0  0  0  0  0  0
  186.1890  178.5270  141.8330 O   0  0  0  0  0  1  0  0  0  0  0  0
  183.7980  178.6320  141.9720 C   0  0  0  0  0  3  0  0  0  0  0  0
  183.9490  178.8740  146.1840 N   0  0  0  0  0  1  0  0  0  0  0  0
  185.1160  178.6190  144.0200 C   0  0  0  0  0  0  0  0  0  0  0  0
  189.4430  177.0060  143.4720 C   0  0  2  0  0  3  0  0  0  0  0  0
  190.4500  176.1650  143.9550 O   0  0  0  0  0  1  0  0  0  0  0  0
  190.0320  178.0770  142.5460 C   0  0  0  0  0  2  0  0  0  0  0  0
  188.9620  178.1470  140.2920 N   0  0  0  0  0  0  0  0  0  0  0  0
  190.8210  175.7250  138.2740 C   0  0  0  0  0  1  0  0  0  0  0  0
  189.1890  177.4940  139.1380 C   0  0  1  0  0  3  0  0  0  0  0  0
  190.7170  176.7340  140.5580 N   0  0  0  0  0  0  0  0  0  0  0  0
  190.2520  176.6380  139.3020 C   0  0  0  0  0  0  0  0  0  0  0  0
  189.9130  177.6630  141.1200 C   0  0  0  0  0  0  0  0  0  0  0  0
  188.9730  178.7860  137.0410 C   0  0  0  0  0  1  0  0  0  0  0  0
  186.9450  177.9950  138.2300 C   0  0  0  0  0  1  0  0  0  0  0  0
  188.3870  177.6750  137.8900 C   0  0  0  0  0  3  0  0  0  0  0  0
  1  2  1  0  0  0  0
  3 14  1  6  0  0  0
  3  5  1  0  0  0  0
  4  1  1  1  0  0  0
  4  3  1  0  0  0  0
  4  5  1  0  0  0  0
  6 14  1  0  0  0  0
  7  8  1  0  0  0  0
  8 13  1  0  0  0  0
  9 10  1  0  0  0  0
 10  7  2  0  0  0  0
 11  6  1  0  0  0  0
 12  6  2  0  0  0  0
 12 10  1  0  0  0  0
 14  8  2  0  0  0  0
 15 16  1  1  0  0  0
 15  1  1  0  0  0  0
 17 15  1  0  0  0  0
 18 23  2  0  0  0  0
 19 22  1  0  0  0  0
 20 26  1  1  0  0  0
 20 22  1  0  0  0  0
 20 18  1  0  0  0  0
 21 23  1  0  0  0  0
 22 21  2  0  0  0  0
 23 17  1  0  0  0  0
 24 26  1  0  0  0  0
 26 25  1  0  0  0  0
M  END
>  <MODEL>
5

>  <REMARK>
 VINA RESULT:      -7.7      2.281      5.517
  Name = 
  6 active torsions:
  status: ('A' for Active; 'I' for Inactive)
    1  A    between atoms: N_7  and  C_14
    2  A    between atoms: N_7  and  C_23
    3  A    between atoms: C_10  and  C_21
    4  A    between atoms: C_11  and  C_26
    5  A    between atoms: C_14  and  C_24
    6  A    between atoms: C_17  and  C_24
                            x       y       z     vdW  Elec       q    Type
                         _______ _______ _______ _____ _____    ______ ____

>  <TORSDO>
F 6

$$$$
=
 OpenBabel10232407563D

 26 28  0  0  1  0  0  0  0  0999 V2000
  188.7480  177.2360  141.1530 N   0  0  0  0  0  0  0  0  0  0  0  0
  188.2310  178.0780  140.0810 C   0  0  0  0  0  1  0  0  0  0  0  0
  187.6390  176.9800  143.3180 C   0  0  2  0  0  3  0  0  0  0  0  0
  188.4760  177.8980  142.4300 C   0  0  2  0  0  3  0  0  0  0  0  0
  186.9890  178.1360  142.5740 C   0  0  0  0  0  2  0  0  0  0  0  0
  189.0370  177.0630  145.4360 C   0  0  0  0  0  0  0  0  0  0  0  0
  186.8880  178.1000  146.8950 C   0  0  0  0  0  3  0  0  0  0  0  0
  186.7270  177.8170  145.5360 C   0  0  0  0  0  0  0  0  0  0  0  0
  188.2680  178.1720  148.8690 O   0  0  0  0  0  1  0  0  0  0  0  0
  188.1140  177.8790  147.5210 C   0  0  0  0  0  0  0  0  0  0  0  0
  190.1120  176.5090  144.7520 O   0  0  0  0  0  1  0  0  0  0  0  0
  189.1820  177.3540  146.7940 C   0  0  0  0  0  3  0  0  0  0  0  0
  185.4480  178.0200  144.9400 N   0  0  0  0  0  1  0  0  0  0  0  0
  187.8140  177.3230  144.7790 C   0  0  0  0  0  0  0  0  0  0  0  0
  190.1920  177.0540  140.9360 C   0  0  2  0  0  3  0  0  0  0  0  0
  190.9130  177.6430  141.9780 O   0  0  0  0  0  1  0  0  0  0  0  0
  190.6810  177.5760  139.5790 C   0  0  0  0  0  2  0  0  0  0  0  0
  192.5750  176.3630  138.4970 N   0  0  0  0  0  0  0  0  0  0  0  0
  191.0290  173.5520  136.7340 C   0  0  0  0  0  1  0  0  0  0  0  0
  192.6500  175.2670  137.7190 C   0  0  1  0  0  3  0  0  0  0  0  0
  190.4940  175.5110  138.1920 N   0  0  0  0  0  0  0  0  0  0  0  0
  191.3880  174.7530  137.5360 C   0  0  0  0  0  0  0  0  0  0  0  0
  191.2550  176.4680  138.7650 C   0  0  0  0  0  0  0  0  0  0  0  0
  194.9340  174.4770  138.2420 C   0  0  0  0  0  1  0  0  0  0  0  0
  194.4880  175.6810  136.1190 C   0  0  0  0  0  1  0  0  0  0  0  0
  193.9170  174.7220  137.1440 C   0  0  0  0  0  3  0  0  0  0  0  0
  2  1  1  0  0  0  0
  3 14  1  1  0  0  0
  4  1  1  6  0  0  0
  4  5  1  0  0  0  0
  4  3  1  0  0  0  0
  5  3  1  0  0  0  0
  6 12  1  0  0  0  0
  7 10  1  0  0  0  0
  8  7  2  0  0  0  0
 10  9  1  0  0  0  0
 11  6  1  0  0  0  0
 12 10  2  0  0  0  0
 13  8  1  0  0  0  0
 14  6  2  0  0  0  0
 14  8  1  0  0  0  0
 15  1  1  0  0  0  0
 15 16  1  1  0  0  0
 17 15  1  0  0  0  0
 18 23  2  0  0  0  0
 19 22  1  0  0  0  0
 20 26  1  6  0  0  0
 20 18  1  0  0  0  0
 21 23  1  0  0  0  0
 22 20  1  0  0  0  0
 22 21  2  0  0  0  0
 23 17  1  0  0  0  0
 25 26  1  0  0  0  0
 26 24  1  0  0  0  0
M  END
>  <MODEL>
6

>  <REMARK>
 VINA RESULT:      -7.6      3.220      6.543
  Name = 
  6 active torsions:
  status: ('A' for Active; 'I' for Inactive)
    1  A    between atoms: N_7  and  C_14
    2  A    between atoms: N_7  and  C_23
    3  A    between atoms: C_10  and  C_21
    4  A    between atoms: C_11  and  C_26
    5  A    between atoms: C_14  and  C_24
    6  A    between atoms: C_17  and  C_24
                            x       y       z     vdW  Elec       q    Type
                         _______ _______ _______ _____ _____    ______ ____

>  <TORSDO>
F 6

$$$$
=
 OpenBabel10232407563D

 26 28  0  0  1  0  0  0  0  0999 V2000
  185.2640  178.8070  145.5400 N   0  0  0  0  0  0  0  0  0  0  0  0
  184.8210  178.5260  146.9000 C   0  0  0  0  0  1  0  0  0  0  0  0
  183.7470  179.3870  143.7110 C   0  0  2  0  0  3  0  0  0  0  0  0
  184.2680  178.2690  144.6120 C   0  0  2  0  0  3  0  0  0  0  0  0
  182.9200  178.8990  144.8890 C   0  0  0  0  0  2  0  0  0  0  0  0
  184.0720  178.3690  141.4070 C   0  0  0  0  0  0  0  0  0  0  0  0
  181.3150  178.3870  140.9360 C   0  0  0  0  0  3  0  0  0  0  0  0
  181.8100  178.8690  142.1510 C   0  0  0  0  0  0  0  0  0  0  0  0
  181.6830  177.4050  138.7670 O   0  0  0  0  0  1  0  0  0  0  0  0
  182.1850  177.8890  139.9670 C   0  0  0  0  0  0  0  0  0  0  0  0
  185.4490  178.3850  141.5900 O   0  0  0  0  0  1  0  0  0  0  0  0
  183.5600  177.8890  140.1990 C   0  0  0  0  0  3  0  0  0  0  0  0
  180.8940  179.4050  143.1020 N   0  0  0  0  0  1  0  0  0  0  0  0
  183.1990  178.8360  142.4150 C   0  0  0  0  0  0  0  0  0  0  0  0
  186.5790  178.1740  145.3470 C   0  0  2  0  0  3  0  0  0  0  0  0
  186.4690  177.0980  144.4620 O   0  0  0  0  0  1  0  0  0  0  0  0
  187.2470  177.7330  146.6550 C   0  0  0  0  0  2  0  0  0  0  0  0
  189.3520  177.8300  145.3180 N   0  0  0  0  0  0  0  0  0  0  0  0
  191.8540  176.0850  147.3410 C   0  0  0  0  0  1  0  0  0  0  0  0
  190.6010  177.3700  145.5200 C   0  0  1  0  0  3  0  0  0  0  0  0
  189.4550  176.7900  147.3320 N   0  0  0  0  0  0  0  0  0  0  0  0
  190.6610  176.7400  146.7400 C   0  0  0  0  0  0  0  0  0  0  0  0
  188.6960  177.4640  146.4400 C   0  0  0  0  0  0  0  0  0  0  0  0
  191.7030  178.9000  143.9190 C   0  0  0  0  0  1  0  0  0  0  0  0
  191.6350  176.4620  143.4670 C   0  0  0  0  0  1  0  0  0  0  0  0
  191.7260  177.5200  144.5480 C   0  0  0  0  0  3  0  0  0  0  0  0
  1  2  1  0  0  0  0
  3 14  1  6  0  0  0
  3  4  1  0  0  0  0
  3  5  1  0  0  0  0
  4  5  1  0  0  0  0
  4  1  1  1  0  0  0
  6 11  1  0  0  0  0
  6 14  1  0  0  0  0
  7  8  1  0  0  0  0
  8 14  2  0  0  0  0
  8 13  1  0  0  0  0
  9 10  1  0  0  0  0
 10 12  1  0  0  0  0
 10  7  2  0  0  0  0
 12  6  2  0  0  0  0
 15 16  1  6  0  0  0
 15  1  1  0  0  0  0
 15 17  1  0  0  0  0
 18 20  1  0  0  0  0
 18 23  2  0  0  0  0
 20 26  1  6  0  0  0
 20 22  1  0  0  0  0
 22 21  2  0  0  0  0
 22 19  1  0  0  0  0
 23 17  1  0  0  0  0
 23 21  1  0  0  0  0
 24 26  1  0  0  0  0
 25 26  1  0  0  0  0
M  END
>  <MODEL>
7

>  <REMARK>
 VINA RESULT:      -7.6      2.701      4.728
  Name = 
  6 active torsions:
  status: ('A' for Active; 'I' for Inactive)
    1  A    between atoms: N_7  and  C_14
    2  A    between atoms: N_7  and  C_23
    3  A    between atoms: C_10  and  C_21
    4  A    between atoms: C_11  and  C_26
    5  A    between atoms: C_14  and  C_24
    6  A    between atoms: C_17  and  C_24
                            x       y       z     vdW  Elec       q    Type
                         _______ _______ _______ _____ _____    ______ ____

>  <TORSDO>
F 6

$$$$
=
 OpenBabel10232407563D

 26 28  0  0  1  0  0  0  0  0999 V2000
  188.5170  177.5590  144.2050 N   0  0  0  0  0  0  0  0  0  0  0  0
  189.0050  177.0130  145.4650 C   0  0  0  0  0  1  0  0  0  0  0  0
  186.3770  178.6910  144.5510 C   0  0  2  0  0  3  0  0  0  0  0  0
  187.0640  177.3850  144.1590 C   0  0  2  0  0  3  0  0  0  0  0  0
  186.4880  177.5490  145.5490 C   0  0  0  0  0  2  0  0  0  0  0  0
  183.8580  178.8220  144.8440 C   0  0  0  0  0  0  0  0  0  0  0  0
  183.4620  178.7170  142.0780 C   0  0  0  0  0  3  0  0  0  0  0  0
  184.7610  178.6800  142.5910 C   0  0  0  0  0  0  0  0  0  0  0  0
  181.0810  178.8610  142.4170 O   0  0  0  0  0  1  0  0  0  0  0  0
  182.3670  178.8170  142.9350 C   0  0  0  0  0  0  0  0  0  0  0  0
  184.0160  178.8340  146.2250 O   0  0  0  0  0  1  0  0  0  0  0  0
  182.5660  178.8600  144.3150 C   0  0  0  0  0  3  0  0  0  0  0  0
  185.8530  178.5400  141.6850 N   0  0  0  0  0  1  0  0  0  0  0  0
  184.9780  178.7650  143.9850 C   0  0  0  0  0  0  0  0  0  0  0  0
  189.1820  176.8400  143.1070 C   0  0  2  0  0  3  0  0  0  0  0  0
  189.9320  175.7750  143.6140 O   0  0  0  0  0  1  0  0  0  0  0  0
  190.0510  177.7390  142.2190 C   0  0  0  0  0  2  0  0  0  0  0  0
  188.9190  178.0380  140.0150 N   0  0  0  0  0  0  0  0  0  0  0  0
  190.4520  175.5540  137.8060 C   0  0  0  0  0  1  0  0  0  0  0  0
  189.0390  177.4280  138.8210 C   0  0  1  0  0  3  0  0  0  0  0  0
  190.5290  176.4430  140.1410 N   0  0  0  0  0  0  0  0  0  0  0  0
  190.0140  176.4620  138.9000 C   0  0  0  0  0  0  0  0  0  0  0  0
  189.8430  177.4160  140.7800 C   0  0  0  0  0  0  0  0  0  0  0  0
  188.7600  178.9950  136.9290 C   0  0  0  0  0  1  0  0  0  0  0  0
  186.7710  177.9770  138.0060 C   0  0  0  0  0  1  0  0  0  0  0  0
  188.2180  177.7570  137.6160 C   0  0  0  0  0  3  0  0  0  0  0  0
  1  2  1  0  0  0  0
  3 14  1  6  0  0  0
  3  5  1  0  0  0  0
  4  1  1  1  0  0  0
  4  3  1  0  0  0  0
  4  5  1  0  0  0  0
  6 11  1  0  0  0  0
  7  8  2  0  0  0  0
  7 10  1  0  0  0  0
  8 14  1  0  0  0  0
  9 10  1  0  0  0  0
 10 12  2  0  0  0  0
 12  6  1  0  0  0  0
 13  8  1  0  0  0  0
 14  6  2  0  0  0  0
 15 16  1  1  0  0  0
 15  1  1  0  0  0  0
 17 15  1  0  0  0  0
 18 23  2  0  0  0  0
 19 22  1  0  0  0  0
 20 26  1  1  0  0  0
 20 22  1  0  0  0  0
 20 18  1  0  0  0  0
 21 23  1  0  0  0  0
 22 21  2  0  0  0  0
 23 17  1  0  0  0  0
 24 26  1  0  0  0  0
 26 25  1  0  0  0  0
M  END
>  <MODEL>
8

>  <REMARK>
 VINA RESULT:      -7.5      2.067      5.546
  Name = 
  6 active torsions:
  status: ('A' for Active; 'I' for Inactive)
    1  A    between atoms: N_7  and  C_14
    2  A    between atoms: N_7  and  C_23
    3  A    between atoms: C_10  and  C_21
    4  A    between atoms: C_11  and  C_26
    5  A    between atoms: C_14  and  C_24
    6  A    between atoms: C_17  and  C_24
                            x       y       z     vdW  Elec       q    Type
                         _______ _______ _______ _____ _____    ______ ____

>  <TORSDO>
F 6

$$$$
=
 OpenBabel10232407563D

 26 28  0  0  1  0  0  0  0  0999 V2000
  191.3560  176.5760  144.6190 N   0  0  0  0  0  0  0  0  0  0  0  0
  192.0060  175.2820  144.7870 C   0  0  0  0  0  1  0  0  0  0  0  0
  189.6920  177.7950  145.9350 C   0  0  2  0  0  3  0  0  0  0  0  0
  190.0140  176.4950  145.2010 C   0  0  2  0  0  3  0  0  0  0  0  0
  190.1090  176.5550  146.7100 C   0  0  0  0  0  2  0  0  0  0  0  0
  187.4090  178.1350  144.8780 C   0  0  0  0  0  0  0  0  0  0  0  0
  186.2120  178.4160  147.3900 C   0  0  0  0  0  3  0  0  0  0  0  0
  187.5870  178.1860  147.3030 C   0  0  0  0  0  0  0  0  0  0  0  0
  184.0690  178.7160  146.3310 O   0  0  0  0  0  1  0  0  0  0  0  0
  185.4350  178.4950  146.2350 C   0  0  0  0  0  0  0  0  0  0  0  0
  187.9770  178.0430  143.6130 O   0  0  0  0  0  1  0  0  0  0  0  0
  186.0350  178.3640  144.9820 C   0  0  0  0  0  3  0  0  0  0  0  0
  188.3550  178.1490  148.5030 N   0  0  0  0  0  1  0  0  0  0  0  0
  188.2000  178.0100  146.0410 C   0  0  0  0  0  0  0  0  0  0  0  0
  191.3020  176.8770  143.1800 C   0  0  2  0  0  3  0  0  0  0  0  0
  191.4630  178.2500  142.9700 O   0  0  0  0  0  1  0  0  0  0  0  0
  190.0290  176.3710  142.4920 C   0  0  0  0  0  2  0  0  0  0  0  0
  190.8990  176.1870  140.1600 N   0  0  0  0  0  0  0  0  0  0  0  0
  188.9340  178.5850  138.2130 C   0  0  0  0  0  1  0  0  0  0  0  0
  190.5900  176.8040  139.0040 C   0  0  1  0  0  3  0  0  0  0  0  0
  189.2090  177.6580  140.5180 N   0  0  0  0  0  0  0  0  0  0  0  0
  189.5670  177.6950  139.2240 C   0  0  0  0  0  0  0  0  0  0  0  0
  190.0350  176.7290  141.0460 C   0  0  0  0  0  0  0  0  0  0  0  0
  190.7960  175.2510  137.0910 C   0  0  0  0  0  1  0  0  0  0  0  0
  192.7790  176.5050  137.8950 C   0  0  0  0  0  1  0  0  0  0  0  0
  191.2770  176.5530  137.7010 C   0  0  0  0  0  3  0  0  0  0  0  0
  1  2  1  0  0  0  0
  3 14  1  1  0  0  0
  3  5  1  0  0  0  0
  4  1  1  6  0  0  0
  4  3  1  0  0  0  0
  4  5  1  0  0  0  0
  6 12  2  0  0  0  0
  6 14  1  0  0  0  0
  8  7  1  0  0  0  0
  8 13  1  0  0  0  0
 10  9  1  0  0  0  0
 10  7  2  0  0  0  0
 11  6  1  0  0  0  0
 12 10  1  0  0  0  0
 14  8  2  0  0  0  0
 15 16  1  1  0  0  0
 15  1  1  0  0  0  0
 17 15  1  0  0  0  0
 18 23  2  0  0  0  0
 19 22  1  0  0  0  0
 20 26  1  1  0  0  0
 20 22  1  0  0  0  0
 20 18  1  0  0  0  0
 21 23  1  0  0  0  0
 22 21  2  0  0  0  0
 23 17  1  0  0  0  0
 24 26  1  0  0  0  0
 26 25  1  0  0  0  0
M  END
>  <MODEL>
9

>  <REMARK>
 VINA RESULT:      -7.5      2.018      6.035
  Name = 
  6 active torsions:
  status: ('A' for Active; 'I' for Inactive)
    1  A    between atoms: N_7  and  C_14
    2  A    between atoms: N_7  and  C_23
    3  A    between atoms: C_10  and  C_21
    4  A    between atoms: C_11  and  C_26
    5  A    between atoms: C_14  and  C_24
    6  A    between atoms: C_17  and  C_24
                            x       y       z     vdW  Elec       q    Type
                         _______ _______ _______ _____ _____    ______ ____

>  <TORSDO>
F 6

$$$$
