=
 OpenBabel10232410193D

 61 65  0  0  1  0  0  0  0  0999 V2000
  189.4590  175.8170  137.1460 N   0  0  0  0  0  0  0  0  0  0  0  0
  190.7520  175.9200  137.1250 C   0  0  0  0  0  0  0  0  0  0  0  0
  192.7930  176.9920  138.5270 C   0  0  2  0  0  3  0  0  0  0  0  0
  191.2870  176.8030  140.7030 C   0  0  2  0  0  3  0  0  0  0  0  0
  192.9570  177.4780  140.2400 S   0  0  0  0  0  0  0  0  0  0  0  0
  190.6030  176.3390  139.5560 O   0  0  0  0  0  0  0  0  0  0  0  0
  191.5160  176.1750  138.4530 C   0  0  1  0  0  3  0  0  0  0  0  0
  193.7830  176.1130  138.2560 O   0  0  0  0  0  1  0  0  0  0  0  0
  190.4950  177.6760  141.7010 C   0  0  0  0  0  2  0  0  0  0  0  0
  191.2730  177.7650  143.0250 C   0  0  2  0  0  3  0  0  0  0  0  0
  190.3380  177.1600  145.1600 N   0  0  0  0  0  0  0  0  0  0  0  0
  191.6410  176.3520  143.4680 C   0  0  0  0  0  2  0  0  0  0  0  0
  190.9670  176.0140  144.5590 C   0  0  0  0  0  2  0  0  0  0  0  0
  190.4220  178.2540  144.1960 C   0  0  0  0  0  2  0  0  0  0  0  0
  190.2110  177.1850  146.6160 C   0  0  0  0  0  0  0  0  0  0  0  0
  191.0140  176.5010  147.2660 O   0  0  0  0  0  0  0  0  0  0  0  0
  188.9600  178.2390  148.3580 O   0  0  0  0  0  1  0  0  0  0  0  0
  188.8790  177.4410  147.2140 C   0  0  1  0  0  3  0  0  0  0  0  0
  188.0930  178.1420  146.1350 C   0  0  0  0  0  2  0  0  0  0  0  0
  186.5720  177.8950  145.9340 C   0  0  2  0  0  3  0  0  0  0  0  0
  186.4320  177.1160  144.6970 N   0  0  0  0  0  1  0  0  0  0  0  0
  185.6310  179.1680  145.8820 C   0  0  0  0  0  2  0  0  0  0  0  0
  184.2980  178.8360  146.2610 O   0  0  0  0  0  1  0  0  0  0  0  0
  191.7350  175.0040  134.5340 S   0  0  0  0  0  0  0  0  0  0  0  0
  192.2150  172.8120  135.5130 C   0  0  0  0  0  0  0  0  0  0  0  0
  191.5940  173.5490  136.5460 C   0  0  0  0  0  3  0  0  0  0  0  0
  192.3340  173.4860  134.3480 C   0  0  0  0  0  3  0  0  0  0  0  0
  191.2590  174.8720  136.2050 C   0  0  0  0  0  0  0  0  0  0  0  0
  192.6280  171.4250  135.5930 C   0  0  0  0  0  2  0  0  0  0  0  0
  194.0020  171.2400  135.8540 O   0  0  0  0  0  0  0  0  0  0  0  0
  194.1000  170.0700  136.6170 C   0  0  0  0  0  2  0  0  0  0  0  0
  195.1170  168.0020  137.1750 O   0  0  0  0  0  0  0  0  0  0  0  0
  194.8450  168.8950  136.1670 C   0  0  2  0  0  3  0  0  0  0  0  0
  196.1960  168.8790  136.8380 C   0  0  0  0  0  2  0  0  0  0  0  0
  188.5390  176.1040  138.1010 O   0  0  0  0  0  0  0  0  0  0  0  0
  187.9850  177.4280  137.9590 C   0  0  0  0  0  2  0  0  0  0  0  0
  187.8580  178.9760  139.6200 O   0  0  0  0  0  1  0  0  0  0  0  0
  187.1170  177.9210  139.1000 C   0  0  1  0  0  3  0  0  0  0  0  0
  185.7480  178.3040  138.6770 C   0  0  0  0  0  0  0  0  0  0  0  0
  184.7640  178.6920  139.6410 C   0  0  0  0  0  3  0  0  0  0  0  0
  184.8190  178.6140  141.3080 C   0  0  1  0  0  3  0  0  0  0  0  0
  185.5300  179.6680  141.9590 O   0  0  0  0  0  1  0  0  0  0  0  0
  183.4810  178.5080  141.9820 N   0  0  0  0  0  1  0  0  0  0  0  0
  185.6210  178.2440  137.1110 C   0  0  0  0  0  2  0  0  0  0  0  0
  183.2610  174.9060  136.3350 C   0  0  0  0  0  0  0  0  0  0  0  0
  184.5600  176.7630  135.4530 C   0  0  0  0  0  3  0  0  0  0  0  0
  183.7730  175.0860  137.6180 C   0  0  0  0  0  3  0  0  0  0  0  0
  183.6710  175.6720  135.2710 C   0  0  0  0  0  3  0  0  0  0  0  0
  184.9210  176.9880  136.7680 C   0  0  0  0  0  0  0  0  0  0  0  0
  184.6430  176.1690  137.7380 N   0  0  0  0  0  0  0  0  0  0  0  0
  182.9280  172.4790  135.7310 C   0  0  0  0  0  0  0  0  0  0  0  0
  182.3710  173.7530  136.1050 N   0  0  0  0  0  2  0  0  0  0  0  0
  182.2080  171.4060  135.7960 O   0  0  0  0  0  0  0  0  0  0  0  0
  184.2020  172.3170  135.1500 O   0  0  0  0  0  0  0  0  0  0  0  0
  185.4650  170.4060  135.3260 O   0  0  0  0  0  1  0  0  0  0  0  0
  185.2810  171.7040  135.8230 C   0  0  1  0  0  3  0  0  0  0  0  0
  186.5030  172.5190  135.6140 C   0  0  0  0  0  0  0  0  0  0  0  0
  186.4040  173.5520  134.9090 O   0  0  0  0  0  0  0  0  0  0  0  0
  187.8500  172.0990  136.2220 C   0  0  0  0  0  3  0  0  0  0  0  0
  188.2640  172.8530  137.3680 F   0  0  0  0  0  0  0  0  0  0  0  0
  188.7360  171.2990  135.4350 F   0  0  0  0  0  0  0  0  0  0  0  0
  1 35  1  0  0  0  0
  2  1  2  0  0  0  0
  3  8  1  1  0  0  0
  3  5  1  0  0  0  0
  4  9  1  6  0  0  0
  5  4  1  0  0  0  0
  6  4  1  0  0  0  0
  7  2  1  6  0  0  0
  7  3  1  0  0  0  0
  7  6  1  0  0  0  0
 10  9  1  6  0  0  0
 10 12  1  0  0  0  0
 10 14  1  0  0  0  0
 11 15  1  0  0  0  0
 12 13  1  0  0  0  0
 13 11  1  0  0  0  0
 14 11  1  0  0  0  0
 15 18  1  0  0  0  0
 15 16  2  0  0  0  0
 18 17  1  1  0  0  0
 19 18  1  0  0  0  0
 20 21  1  6  0  0  0
 20 19  1  0  0  0  0
 22 20  1  0  0  0  0
 22 23  1  0  0  0  0
 24 28  1  0  0  0  0
 25 29  1  0  0  0  0
 25 26  1  0  0  0  0
 27 24  1  0  0  0  0
 27 25  2  0  0  0  0
 28 26  2  0  0  0  0
 28  2  1  0  0  0  0
 29 30  1  0  0  0  0
 30 31  1  0  0  0  0
 33 31  1  1  0  0  0
 33 34  1  0  0  0  0
 33 32  1  0  0  0  0
 34 32  1  0  0  0  0
 36 35  1  0  0  0  0
 36 38  1  0  0  0  0
 38 37  1  6  0  0  0
 39 38  1  0  0  0  0
 39 40  2  0  0  0  0
 40 41  1  0  0  0  0
 41 42  1  1  0  0  0
 41 43  1  0  0  0  0
 44 39  1  0  0  0  0
 45 47  1  0  0  0  0
 46 49  2  0  0  0  0
 47 50  2  0  0  0  0
 48 46  1  0  0  0  0
 48 45  2  0  0  0  0
 49 44  1  0  0  0  0
 49 50  1  0  0  0  0
 51 53  2  0  0  0  0
 51 52  1  0  0  0  0
 52 45  1  0  0  0  0
 54 51  1  0  0  0  0
 54 56  1  0  0  0  0
 56 55  1  6  0  0  0
 57 56  1  0  0  0  0
 57 59  1  0  0  0  0
 58 57  2  0  0  0  0
 59 60  1  0  0  0  0
 61 59  1  0  0  0  0
M  END
>  <MODEL>
1

>  <REMARK>
 VINA RESULT:      -6.1      0.000      0.000
  Name = 
  24 active torsions:
  status: ('A' for Active; 'I' for Inactive)
    1  A    between atoms: C_2  and  O_55
    2  A    between atoms: C_3  and  C_47
    3  A    between atoms: CA_4  and  C_11
    4  A    between atoms: CA_4  and  C_25
    5  A    between atoms: C_7  and  C_9
    6  A    between atoms: C_7  and  C_24
    7  A    between atoms: C_8  and  C_47
    8  A    between atoms: C_10  and  C_30
    9  A    between atoms: C_10  and  C_50
   10  A    between atoms: C_14  and  N_37
   11  A    between atoms: C_15  and  C_16
   12  A    between atoms: N_22  and  O_60
   13  A    between atoms: C_24  and  O_55
   14  A    between atoms: C_25  and  C_56
   15  A    between atoms: C_30  and  C_58
   16  A    between atoms: C_32  and  O_38
   17  A    between atoms: C_32  and  C_44
   18  A    between atoms: C_33  and  C_34
   19  A    between atoms: C_33  and  O_38
   20  A    between atoms: C_42  and  C_45
   21  A    between atoms: C_45  and  C_61
   22  A    between atoms: C_50  and  C_53
   23  A    between atoms: C_51  and  C_56
   24  A    between atoms: C_58  and  O_60
                            x       y       z     vdW  Elec       q    Type
                         _______ _______ _______ _____ _____    ______ ____

>  <TORSDO>
F 24

$$$$
=
 OpenBabel10232410193D

 61 65  0  0  1  0  0  0  0  0999 V2000
  188.8630  177.1720  141.1870 N   0  0  0  0  0  0  0  0  0  0  0  0
  190.0450  176.6360  141.1800 C   0  0  0  0  0  0  0  0  0  0  0  0
  192.4000  176.7040  139.8640 C   0  0  2  0  0  3  0  0  0  0  0  0
  191.1550  175.6830  137.7550 C   0  0  2  0  0  3  0  0  0  0  0  0
  192.8900  176.1450  138.2380 S   0  0  0  0  0  0  0  0  0  0  0  0
  190.2740  175.8480  138.8480 O   0  0  0  0  0  0  0  0  0  0  0  0
  190.8820  176.6600  139.8720 C   0  0  1  0  0  3  0  0  0  0  0  0
  192.7090  178.0170  139.9550 O   0  0  0  0  0  1  0  0  0  0  0  0
  191.0410  174.3790  136.9380 C   0  0  0  0  0  2  0  0  0  0  0  0
  192.3310  174.1760  136.1240 C   0  0  2  0  0  3  0  0  0  0  0  0
  193.5030  172.0770  135.9890 N   0  0  0  0  0  0  0  0  0  0  0  0
  191.9930  173.3740  134.8710 C   0  0  0  0  0  2  0  0  0  0  0  0
  192.5320  172.1630  134.9320 C   0  0  0  0  0  2  0  0  0  0  0  0
  193.3490  173.2710  136.8170 C   0  0  0  0  0  2  0  0  0  0  0  0
  194.6590  171.2050  135.7870 C   0  0  0  0  0  0  0  0  0  0  0  0
  194.9870  170.9620  134.6170 O   0  0  0  0  0  0  0  0  0  0  0  0
  195.4200  168.9890  136.2570 O   0  0  0  0  0  1  0  0  0  0  0  0
  194.9780  170.1900  136.8190 C   0  0  1  0  0  3  0  0  0  0  0  0
  196.0660  170.8120  137.6580 C   0  0  0  0  0  2  0  0  0  0  0  0
  196.8690  172.0510  137.1750 C   0  0  2  0  0  3  0  0  0  0  0  0
  198.2660  171.6200  137.0400 N   0  0  0  0  0  1  0  0  0  0  0  0
  196.7900  173.3580  138.0650 C   0  0  0  0  0  2  0  0  0  0  0  0
  195.7720  173.2440  139.0560 O   0  0  0  0  0  1  0  0  0  0  0  0
  191.1350  178.6000  143.0430 S   0  0  0  0  0  0  0  0  0  0  0  0
  191.4780  176.8210  144.6890 C   0  0  0  0  0  0  0  0  0  0  0  0
  191.0050  176.1640  143.5300 C   0  0  0  0  0  3  0  0  0  0  0  0
  191.6170  178.1570  144.5500 C   0  0  0  0  0  3  0  0  0  0  0  0
  190.7060  177.0180  142.4530 C   0  0  0  0  0  0  0  0  0  0  0  0
  191.8870  176.1740  145.9200 C   0  0  0  0  0  2  0  0  0  0  0  0
  191.6440  176.9320  147.0850 O   0  0  0  0  0  0  0  0  0  0  0  0
  190.3240  176.6570  147.4600 C   0  0  0  0  0  2  0  0  0  0  0  0
  188.1920  177.2270  148.3270 O   0  0  0  0  0  0  0  0  0  0  0  0
  189.3610  177.7060  147.7900 C   0  0  2  0  0  3  0  0  0  0  0  0
  188.1310  177.5380  146.9320 C   0  0  0  0  0  2  0  0  0  0  0  0
  188.0520  177.5990  140.1870 O   0  0  0  0  0  0  0  0  0  0  0  0
  188.6650  178.6170  139.3710 C   0  0  0  0  0  2  0  0  0  0  0  0
  189.1140  178.8640  137.1550 O   0  0  0  0  0  1  0  0  0  0  0  0
  188.0260  178.8730  138.0200 C   0  0  1  0  0  3  0  0  0  0  0  0
  186.9750  177.8870  137.6690 C   0  0  0  0  0  0  0  0  0  0  0  0
  185.6530  178.0010  138.2080 C   0  0  0  0  0  3  0  0  0  0  0  0
  185.0740  179.0170  139.4000 C   0  0  1  0  0  3  0  0  0  0  0  0
  184.3550  180.1650  138.9450 O   0  0  0  0  0  1  0  0  0  0  0  0
  184.2220  178.3520  140.4410 N   0  0  0  0  0  1  0  0  0  0  0  0
  187.5360  176.8230  136.6570 C   0  0  0  0  0  2  0  0  0  0  0  0
  184.8150  173.8300  135.6830 C   0  0  0  0  0  0  0  0  0  0  0  0
  186.5070  174.6580  137.2210 C   0  0  0  0  0  3  0  0  0  0  0  0
  184.7270  175.0590  135.0330 C   0  0  0  0  0  3  0  0  0  0  0  0
  185.6290  173.6370  136.7720 C   0  0  0  0  0  3  0  0  0  0  0  0
  186.4850  175.8040  136.4510 C   0  0  0  0  0  0  0  0  0  0  0  0
  185.6080  176.0250  135.5170 N   0  0  0  0  0  0  0  0  0  0  0  0
  182.5220  172.7790  135.7390 C   0  0  0  0  0  0  0  0  0  0  0  0
  183.8830  172.7640  135.2690 N   0  0  0  0  0  2  0  0  0  0  0  0
  181.6300  172.0280  135.1780 O   0  0  0  0  0  0  0  0  0  0  0  0
  182.0940  173.4690  136.8900 O   0  0  0  0  0  0  0  0  0  0  0  0
  180.3950  174.7300  135.9930 O   0  0  0  0  0  1  0  0  0  0  0  0
  181.5120  174.7550  136.8420 C   0  0  1  0  0  3  0  0  0  0  0  0
  181.1130  175.1530  138.2140 C   0  0  0  0  0  0  0  0  0  0  0  0
  180.4010  174.3570  138.8710 O   0  0  0  0  0  0  0  0  0  0  0  0
  181.5390  176.5070  138.8030 C   0  0  0  0  0  3  0  0  0  0  0  0
  182.3800  177.3020  137.9590 F   0  0  0  0  0  0  0  0  0  0  0  0
  181.4050  176.7130  140.2110 F   0  0  0  0  0  0  0  0  0  0  0  0
  2  1  2  0  0  0  0
  2 28  1  0  0  0  0
  3  7  1  0  0  0  0
  3  8  1  6  0  0  0
  4  9  1  1  0  0  0
  4  5  1  0  0  0  0
  4  6  1  0  0  0  0
  5  3  1  0  0  0  0
  6  7  1  0  0  0  0
  7  2  1  1  0  0  0
 10 14  1  0  0  0  0
 10  9  1  1  0  0  0
 11 14  1  0  0  0  0
 12 13  1  0  0  0  0
 12 10  1  0  0  0  0
 13 11  1  0  0  0  0
 15 11  1  0  0  0  0
 15 18  1  0  0  0  0
 16 15  2  0  0  0  0
 18 17  1  6  0  0  0
 18 19  1  0  0  0  0
 20 21  1  1  0  0  0
 20 19  1  0  0  0  0
 20 22  1  0  0  0  0
 22 23  1  0  0  0  0
 24 27  1  0  0  0  0
 25 29  1  0  0  0  0
 26 25  1  0  0  0  0
 27 25  2  0  0  0  0
 28 24  1  0  0  0  0
 28 26  2  0  0  0  0
 29 30  1  0  0  0  0
 30 31  1  0  0  0  0
 33 31  1  6  0  0  0
 33 32  1  0  0  0  0
 34 33  1  0  0  0  0
 34 32  1  0  0  0  0
 35  1  1  0  0  0  0
 36 35  1  0  0  0  0
 38 37  1  6  0  0  0
 38 36  1  0  0  0  0
 39 38  1  0  0  0  0
 39 40  2  0  0  0  0
 40 41  1  0  0  0  0
 41 42  1  6  0  0  0
 41 43  1  0  0  0  0
 44 39  1  0  0  0  0
 45 48  1  0  0  0  0
 47 50  1  0  0  0  0
 47 45  2  0  0  0  0
 48 46  2  0  0  0  0
 49 44  1  0  0  0  0
 49 46  1  0  0  0  0
 50 49  2  0  0  0  0
 51 54  1  0  0  0  0
 52 45  1  0  0  0  0
 52 51  1  0  0  0  0
 53 51  2  0  0  0  0
 56 55  1  6  0  0  0
 56 54  1  0  0  0  0
 56 57  1  0  0  0  0
 57 59  1  0  0  0  0
 57 58  2  0  0  0  0
 59 61  1  0  0  0  0
 60 59  1  0  0  0  0
M  END
>  <MODEL>
2

>  <REMARK>
 VINA RESULT:      -6.0      2.860      8.688
  Name = 
  24 active torsions:
  status: ('A' for Active; 'I' for Inactive)
    1  A    between atoms: C_2  and  O_55
    2  A    between atoms: C_3  and  C_47
    3  A    between atoms: CA_4  and  C_11
    4  A    between atoms: CA_4  and  C_25
    5  A    between atoms: C_7  and  C_9
    6  A    between atoms: C_7  and  C_24
    7  A    between atoms: C_8  and  C_47
    8  A    between atoms: C_10  and  C_30
    9  A    between atoms: C_10  and  C_50
   10  A    between atoms: C_14  and  N_37
   11  A    between atoms: C_15  and  C_16
   12  A    between atoms: N_22  and  O_60
   13  A    between atoms: C_24  and  O_55
   14  A    between atoms: C_25  and  C_56
   15  A    between atoms: C_30  and  C_58
   16  A    between atoms: C_32  and  O_38
   17  A    between atoms: C_32  and  C_44
   18  A    between atoms: C_33  and  C_34
   19  A    between atoms: C_33  and  O_38
   20  A    between atoms: C_42  and  C_45
   21  A    between atoms: C_45  and  C_61
   22  A    between atoms: C_50  and  C_53
   23  A    between atoms: C_51  and  C_56
   24  A    between atoms: C_58  and  O_60
                            x       y       z     vdW  Elec       q    Type
                         _______ _______ _______ _____ _____    ______ ____

>  <TORSDO>
F 24

$$$$
=
 OpenBabel10232410193D

 61 65  0  0  1  0  0  0  0  0999 V2000
  187.5320  177.3600  136.7280 N   0  0  0  0  0  0  0  0  0  0  0  0
  187.2390  176.3970  135.9090 C   0  0  0  0  0  0  0  0  0  0  0  0
  187.6350  173.8250  135.1960 C   0  0  2  0  0  3  0  0  0  0  0  0
  190.1150  174.0400  136.1150 C   0  0  2  0  0  3  0  0  0  0  0  0
  189.0780  172.7690  135.2400 S   0  0  0  0  0  0  0  0  0  0  0  0
  189.4040  175.2540  136.2510 O   0  0  0  0  0  0  0  0  0  0  0  0
  187.9960  175.0460  136.0230 C   0  0  1  0  0  3  0  0  0  0  0  0
  186.6570  173.2090  135.8950 O   0  0  0  0  0  1  0  0  0  0  0  0
  191.5780  174.1210  135.6290 C   0  0  0  0  0  2  0  0  0  0  0  0
  192.5190  173.7480  136.7870 C   0  0  2  0  0  3  0  0  0  0  0  0
  194.7610  174.5970  137.0060 N   0  0  0  0  0  0  0  0  0  0  0  0
  192.6230  174.9400  137.7320 C   0  0  0  0  0  2  0  0  0  0  0  0
  193.8390  175.4700  137.6840 C   0  0  0  0  0  2  0  0  0  0  0  0
  193.9710  173.5580  136.3510 C   0  0  0  0  0  2  0  0  0  0  0  0
  196.1530  174.5920  137.4560 C   0  0  0  0  0  0  0  0  0  0  0  0
  196.3720  174.9480  138.6220 O   0  0  0  0  0  0  0  0  0  0  0  0
  197.4600  176.1520  136.2040 O   0  0  0  0  0  1  0  0  0  0  0  0
  197.2280  174.7970  136.4560 C   0  0  1  0  0  3  0  0  0  0  0  0
  198.4520  174.1550  137.0590 C   0  0  0  0  0  2  0  0  0  0  0  0
  198.6480  172.6140  137.0720 C   0  0  2  0  0  3  0  0  0  0  0  0
  200.0810  172.3710  136.8660 N   0  0  0  0  0  1  0  0  0  0  0  0
  197.8010  171.7650  136.0380 C   0  0  0  0  0  2  0  0  0  0  0  0
  196.6320  171.2280  136.6510 O   0  0  0  0  0  1  0  0  0  0  0  0
  184.7480  175.2360  134.9300 S   0  0  0  0  0  0  0  0  0  0  0  0
  183.4890  176.8650  136.2540 C   0  0  0  0  0  0  0  0  0  0  0  0
  184.8460  177.2160  136.4320 C   0  0  0  0  0  3  0  0  0  0  0  0
  183.2930  175.8090  135.4350 C   0  0  0  0  0  3  0  0  0  0  0  0
  185.7610  176.3740  135.7730 C   0  0  0  0  0  0  0  0  0  0  0  0
  182.3520  177.5840  136.7950 C   0  0  0  0  0  2  0  0  0  0  0  0
  182.6400  178.3500  137.9440 O   0  0  0  0  0  0  0  0  0  0  0  0
  182.1450  177.6210  139.0320 C   0  0  0  0  0  2  0  0  0  0  0  0
  180.4720  178.9160  140.1040 O   0  0  0  0  0  0  0  0  0  0  0  0
  180.7580  177.7230  139.4850 C   0  0  2  0  0  3  0  0  0  0  0  0
  180.7360  177.8250  140.9910 C   0  0  0  0  0  2  0  0  0  0  0  0
  188.5630  177.5380  137.5910 O   0  0  0  0  0  0  0  0  0  0  0  0
  188.2050  177.2380  138.9550 C   0  0  0  0  0  2  0  0  0  0  0  0
  186.5740  178.7970  139.2420 O   0  0  0  0  0  1  0  0  0  0  0  0
  187.7810  178.4130  139.8150 C   0  0  1  0  0  3  0  0  0  0  0  0
  187.6790  178.0810  141.2570 C   0  0  0  0  0  0  0  0  0  0  0  0
  188.8370  177.6870  142.0020 C   0  0  0  0  0  3  0  0  0  0  0  0
  190.3760  177.3270  141.4650 C   0  0  1  0  0  3  0  0  0  0  0  0
  190.6080  177.5120  140.0670 O   0  0  0  0  0  1  0  0  0  0  0  0
  191.4830  178.0370  142.1890 N   0  0  0  0  0  1  0  0  0  0  0  0
  186.2020  178.2690  141.7610 C   0  0  0  0  0  2  0  0  0  0  0  0
  186.6460  177.7340  145.8630 C   0  0  0  0  0  0  0  0  0  0  0  0
  185.6500  179.0060  144.0450 C   0  0  0  0  0  3  0  0  0  0  0  0
  187.0450  176.7130  145.0020 C   0  0  0  0  0  3  0  0  0  0  0  0
  185.9270  178.8190  145.4240 C   0  0  0  0  0  3  0  0  0  0  0  0
  186.1950  178.0400  143.2210 C   0  0  0  0  0  0  0  0  0  0  0  0
  186.7450  176.9480  143.6610 N   0  0  0  0  0  0  0  0  0  0  0  0
  188.1310  177.9530  147.8900 C   0  0  0  0  0  0  0  0  0  0  0  0
  186.8790  177.5470  147.3070 N   0  0  0  0  0  2  0  0  0  0  0  0
  188.2510  178.0560  149.1750 O   0  0  0  0  0  0  0  0  0  0  0  0
  189.3220  178.1260  147.1570 O   0  0  0  0  0  0  0  0  0  0  0  0
  190.4850  177.2750  145.3680 O   0  0  0  0  0  1  0  0  0  0  0  0
  190.1050  177.0450  146.6980 C   0  0  1  0  0  3  0  0  0  0  0  0
  191.3010  176.9150  147.5660 C   0  0  0  0  0  0  0  0  0  0  0  0
  191.5540  177.8530  148.3580 O   0  0  0  0  0  0  0  0  0  0  0  0
  192.2130  175.6810  147.4790 C   0  0  0  0  0  3  0  0  0  0  0  0
  191.6300  174.5320  146.8540 F   0  0  0  0  0  0  0  0  0  0  0  0
  193.3710  175.6270  148.3160 F   0  0  0  0  0  0  0  0  0  0  0  0
  1 35  1  0  0  0  0
  2  1  2  0  0  0  0
  3  5  1  0  0  0  0
  3  8  1  1  0  0  0
  3  7  1  0  0  0  0
  4  9  1  6  0  0  0
  4  6  1  0  0  0  0
  5  4  1  0  0  0  0
  7  2  1  6  0  0  0
  7  6  1  0  0  0  0
 10  9  1  6  0  0  0
 10 12  1  0  0  0  0
 11 15  1  0  0  0  0
 11 13  1  0  0  0  0
 13 12  1  0  0  0  0
 14 10  1  0  0  0  0
 14 11  1  0  0  0  0
 15 16  2  0  0  0  0
 18 17  1  1  0  0  0
 18 19  1  0  0  0  0
 18 15  1  0  0  0  0
 19 20  1  0  0  0  0
 20 21  1  6  0  0  0
 22 23  1  0  0  0  0
 22 20  1  0  0  0  0
 24 27  1  0  0  0  0
 24 28  1  0  0  0  0
 25 26  1  0  0  0  0
 25 29  1  0  0  0  0
 27 25  2  0  0  0  0
 28  2  1  0  0  0  0
 28 26  2  0  0  0  0
 29 30  1  0  0  0  0
 30 31  1  0  0  0  0
 32 34  1  0  0  0  0
 33 31  1  6  0  0  0
 33 32  1  0  0  0  0
 33 34  1  0  0  0  0
 35 36  1  0  0  0  0
 36 38  1  0  0  0  0
 38 37  1  6  0  0  0
 38 39  1  0  0  0  0
 39 44  1  0  0  0  0
 39 40  2  0  0  0  0
 41 42  1  6  0  0  0
 41 40  1  0  0  0  0
 41 43  1  0  0  0  0
 44 49  1  0  0  0  0
 45 52  1  0  0  0  0
 46 48  2  0  0  0  0
 47 45  2  0  0  0  0
 48 45  1  0  0  0  0
 49 50  2  0  0  0  0
 49 46  1  0  0  0  0
 50 47  1  0  0  0  0
 51 53  2  0  0  0  0
 52 51  1  0  0  0  0
 54 51  1  0  0  0  0
 56 55  1  6  0  0  0
 56 54  1  0  0  0  0
 56 57  1  0  0  0  0
 57 58  2  0  0  0  0
 59 57  1  0  0  0  0
 59 61  1  0  0  0  0
 60 59  1  0  0  0  0
M  END
>  <MODEL>
3

>  <REMARK>
 VINA RESULT:      -5.3      3.721     10.829
  Name = 
  24 active torsions:
  status: ('A' for Active; 'I' for Inactive)
    1  A    between atoms: C_2  and  O_55
    2  A    between atoms: C_3  and  C_47
    3  A    between atoms: CA_4  and  C_11
    4  A    between atoms: CA_4  and  C_25
    5  A    between atoms: C_7  and  C_9
    6  A    between atoms: C_7  and  C_24
    7  A    between atoms: C_8  and  C_47
    8  A    between atoms: C_10  and  C_30
    9  A    between atoms: C_10  and  C_50
   10  A    between atoms: C_14  and  N_37
   11  A    between atoms: C_15  and  C_16
   12  A    between atoms: N_22  and  O_60
   13  A    between atoms: C_24  and  O_55
   14  A    between atoms: C_25  and  C_56
   15  A    between atoms: C_30  and  C_58
   16  A    between atoms: C_32  and  O_38
   17  A    between atoms: C_32  and  C_44
   18  A    between atoms: C_33  and  C_34
   19  A    between atoms: C_33  and  O_38
   20  A    between atoms: C_42  and  C_45
   21  A    between atoms: C_45  and  C_61
   22  A    between atoms: C_50  and  C_53
   23  A    between atoms: C_51  and  C_56
   24  A    between atoms: C_58  and  O_60
                            x       y       z     vdW  Elec       q    Type
                         _______ _______ _______ _____ _____    ______ ____

>  <TORSDO>
F 24

$$$$
=
 OpenBabel10232410193D

 61 65  0  0  1  0  0  0  0  0999 V2000
  187.6250  178.4140  140.7050 N   0  0  0  0  0  0  0  0  0  0  0  0
  187.2620  178.4860  141.9490 C   0  0  0  0  0  0  0  0  0  0  0  0
  185.1070  178.9380  143.5090 C   0  0  2  0  0  3  0  0  0  0  0  0
  183.5800  178.1830  141.4740 C   0  0  2  0  0  3  0  0  0  0  0  0
  183.3490  178.8590  143.1910 S   0  0  0  0  0  0  0  0  0  0  0  0
  184.9520  178.1410  141.1370 O   0  0  0  0  0  0  0  0  0  0  0  0
  185.7690  178.2680  142.3180 C   0  0  1  0  0  3  0  0  0  0  0  0
  185.3690  178.1240  144.5550 O   0  0  0  0  0  1  0  0  0  0  0  0
  182.6050  178.7540  140.4220 C   0  0  0  0  0  2  0  0  0  0  0  0
  183.1180  178.4080  139.0140 C   0  0  2  0  0  3  0  0  0  0  0  0
  181.9290  176.9910  137.4740 N   0  0  0  0  0  0  0  0  0  0  0  0
  182.2930  179.1840  137.9920 C   0  0  0  0  0  2  0  0  0  0  0  0
  181.5310  178.3600  137.2840 C   0  0  0  0  0  2  0  0  0  0  0  0
  182.8480  176.9600  138.6080 C   0  0  0  0  0  2  0  0  0  0  0  0
  181.7820  176.0730  136.3450 C   0  0  0  0  0  0  0  0  0  0  0  0
  181.7760  176.5700  135.2100 O   0  0  0  0  0  0  0  0  0  0  0  0
  180.1540  174.5380  135.5060 O   0  0  0  0  0  1  0  0  0  0  0  0
  181.0480  174.8010  136.5470 C   0  0  1  0  0  3  0  0  0  0  0  0
  182.1160  173.7380  136.6080 C   0  0  0  0  0  2  0  0  0  0  0  0
  181.8070  172.2900  137.0800 C   0  0  2  0  0  3  0  0  0  0  0  0
  183.0980  171.6010  137.1950 N   0  0  0  0  0  1  0  0  0  0  0  0
  180.8130  171.4340  136.1930 C   0  0  0  0  0  2  0  0  0  0  0  0
  181.4200  170.2130  135.7760 O   0  0  0  0  0  1  0  0  0  0  0  0
  189.6240  176.7930  142.2110 S   0  0  0  0  0  0  0  0  0  0  0  0
  189.6730  177.2670  144.6120 C   0  0  0  0  0  0  0  0  0  0  0  0
  188.5080  177.9070  144.1350 C   0  0  0  0  0  3  0  0  0  0  0  0
  190.3670  176.6000  143.6640 C   0  0  0  0  0  3  0  0  0  0  0  0
  188.3000  177.7890  142.7480 C   0  0  0  0  0  0  0  0  0  0  0  0
  190.1000  177.2090  145.9970 C   0  0  0  0  0  2  0  0  0  0  0  0
  191.4770  176.9580  146.1720 O   0  0  0  0  0  0  0  0  0  0  0  0
  191.5830  176.1400  147.3040 C   0  0  0  0  0  2  0  0  0  0  0  0
  193.7600  175.8350  148.1940 O   0  0  0  0  0  0  0  0  0  0  0  0
  192.5280  176.4100  148.3870 C   0  0  2  0  0  3  0  0  0  0  0  0
  192.8870  175.1100  149.0650 C   0  0  0  0  0  2  0  0  0  0  0  0
  186.9140  178.3910  139.5500 O   0  0  0  0  0  0  0  0  0  0  0  0
  187.7560  178.3360  138.3800 C   0  0  0  0  0  2  0  0  0  0  0  0
  187.2280  178.0530  136.1870 O   0  0  0  0  0  1  0  0  0  0  0  0
  187.3960  177.2940  137.3390 C   0  0  1  0  0  3  0  0  0  0  0  0
  188.4110  176.2200  137.2050 C   0  0  0  0  0  0  0  0  0  0  0  0
  188.0260  174.8890  136.8450 C   0  0  0  0  0  3  0  0  0  0  0  0
  186.5020  174.2210  136.7150 C   0  0  1  0  0  3  0  0  0  0  0  0
  186.2250  173.1240  137.5870 O   0  0  0  0  0  1  0  0  0  0  0  0
  185.3680  175.1940  136.8640 N   0  0  0  0  0  1  0  0  0  0  0  0
  189.8520  176.7910  137.4700 C   0  0  0  0  0  2  0  0  0  0  0  0
  192.9020  174.1500  136.4520 C   0  0  0  0  0  0  0  0  0  0  0  0
  190.7180  174.4850  137.4680 C   0  0  0  0  0  3  0  0  0  0  0  0
  192.8910  175.4210  135.8790 C   0  0  0  0  0  3  0  0  0  0  0  0
  191.8400  173.6660  137.1750 C   0  0  0  0  0  3  0  0  0  0  0  0
  190.8250  175.7810  137.0020 C   0  0  0  0  0  0  0  0  0  0  0  0
  191.7650  176.1790  136.1970 N   0  0  0  0  0  0  0  0  0  0  0  0
  195.0330  172.9790  137.1240 C   0  0  0  0  0  0  0  0  0  0  0  0
  194.0320  173.2600  136.1280 N   0  0  0  0  0  2  0  0  0  0  0  0
  195.8630  172.0010  136.9590 O   0  0  0  0  0  0  0  0  0  0  0  0
  195.2780  173.7960  138.2460 O   0  0  0  0  0  0  0  0  0  0  0  0
  196.7920  175.3520  137.4960 O   0  0  0  0  0  1  0  0  0  0  0  0
  196.5270  174.4040  138.4950 C   0  0  1  0  0  3  0  0  0  0  0  0
  196.4880  175.0530  139.8290 C   0  0  0  0  0  0  0  0  0  0  0  0
  195.3760  175.4410  140.2590 O   0  0  0  0  0  0  0  0  0  0  0  0
  197.7720  175.2640  140.6460 C   0  0  0  0  0  3  0  0  0  0  0  0
  198.9530  174.6730  140.0910 F   0  0  0  0  0  0  0  0  0  0  0  0
  197.6550  175.6720  142.0110 F   0  0  0  0  0  0  0  0  0  0  0  0
  1  2  2  0  0  0  0
  2 28  1  0  0  0  0
  3  8  1  1  0  0  0
  4  9  1  6  0  0  0
  4  5  1  0  0  0  0
  5  3  1  0  0  0  0
  6  4  1  0  0  0  0
  6  7  1  0  0  0  0
  7  2  1  6  0  0  0
  7  3  1  0  0  0  0
 10  9  1  1  0  0  0
 11 14  1  0  0  0  0
 12 10  1  0  0  0  0
 13 11  1  0  0  0  0
 13 12  1  0  0  0  0
 14 10  1  0  0  0  0
 15 18  1  0  0  0  0
 15 11  1  0  0  0  0
 16 15  2  0  0  0  0
 18 17  1  6  0  0  0
 18 19  1  0  0  0  0
 19 20  1  0  0  0  0
 20 21  1  6  0  0  0
 22 20  1  0  0  0  0
 23 22  1  0  0  0  0
 24 28  1  0  0  0  0
 24 27  1  0  0  0  0
 25 29  1  0  0  0  0
 26 25  1  0  0  0  0
 27 25  2  0  0  0  0
 28 26  2  0  0  0  0
 29 30  1  0  0  0  0
 30 31  1  0  0  0  0
 32 33  1  0  0  0  0
 32 34  1  0  0  0  0
 33 31  1  6  0  0  0
 33 34  1  0  0  0  0
 35  1  1  0  0  0  0
 36 35  1  0  0  0  0
 38 37  1  6  0  0  0
 38 36  1  0  0  0  0
 39 38  1  0  0  0  0
 39 44  1  0  0  0  0
 40 39  2  0  0  0  0
 41 40  1  0  0  0  0
 41 43  1  1  0  0  0
 41 42  1  0  0  0  0
 45 48  1  0  0  0  0
 47 50  1  0  0  0  0
 47 45  2  0  0  0  0
 48 46  2  0  0  0  0
 49 46  1  0  0  0  0
 49 44  1  0  0  0  0
 50 49  2  0  0  0  0
 51 54  1  0  0  0  0
 52 45  1  0  0  0  0
 52 51  1  0  0  0  0
 53 51  2  0  0  0  0
 54 56  1  0  0  0  0
 56 55  1  6  0  0  0
 56 57  1  0  0  0  0
 57 58  2  0  0  0  0
 57 59  1  0  0  0  0
 59 61  1  0  0  0  0
 60 59  1  0  0  0  0
M  END
>  <MODEL>
4

>  <REMARK>
 VINA RESULT:      -5.3      3.529     10.237
  Name = 
  24 active torsions:
  status: ('A' for Active; 'I' for Inactive)
    1  A    between atoms: C_2  and  O_55
    2  A    between atoms: C_3  and  C_47
    3  A    between atoms: CA_4  and  C_11
    4  A    between atoms: CA_4  and  C_25
    5  A    between atoms: C_7  and  C_9
    6  A    between atoms: C_7  and  C_24
    7  A    between atoms: C_8  and  C_47
    8  A    between atoms: C_10  and  C_30
    9  A    between atoms: C_10  and  C_50
   10  A    between atoms: C_14  and  N_37
   11  A    between atoms: C_15  and  C_16
   12  A    between atoms: N_22  and  O_60
   13  A    between atoms: C_24  and  O_55
   14  A    between atoms: C_25  and  C_56
   15  A    between atoms: C_30  and  C_58
   16  A    between atoms: C_32  and  O_38
   17  A    between atoms: C_32  and  C_44
   18  A    between atoms: C_33  and  C_34
   19  A    between atoms: C_33  and  O_38
   20  A    between atoms: C_42  and  C_45
   21  A    between atoms: C_45  and  C_61
   22  A    between atoms: C_50  and  C_53
   23  A    between atoms: C_51  and  C_56
   24  A    between atoms: C_58  and  O_60
                            x       y       z     vdW  Elec       q    Type
                         _______ _______ _______ _____ _____    ______ ____

>  <TORSDO>
F 24

$$$$
=
 OpenBabel10232410193D

 61 65  0  0  1  0  0  0  0  0999 V2000
  188.8410  176.0210  136.0490 N   0  0  0  0  0  0  0  0  0  0  0  0
  189.6940  176.8210  136.6090 C   0  0  0  0  0  0  0  0  0  0  0  0
  187.8990  177.7890  138.3760 C   0  0  2  0  0  3  0  0  0  0  0  0
  189.7310  177.4940  140.2720 C   0  0  2  0  0  3  0  0  0  0  0  0
  187.9470  178.0060  140.1500 S   0  0  0  0  0  0  0  0  0  0  0  0
  190.2130  177.0670  139.0140 O   0  0  0  0  0  0  0  0  0  0  0  0
  189.3290  177.4970  137.9590 C   0  0  1  0  0  3  0  0  0  0  0  0
  187.6160  178.9910  137.8260 O   0  0  0  0  0  1  0  0  0  0  0  0
  190.0660  176.6190  141.4990 C   0  0  0  0  0  2  0  0  0  0  0  0
  190.3980  177.5280  142.6950 C   0  0  2  0  0  3  0  0  0  0  0  0
  189.3210  177.3510  144.8410 N   0  0  0  0  0  0  0  0  0  0  0  0
  191.2020  176.7200  143.7100 C   0  0  0  0  0  2  0  0  0  0  0  0
  190.4900  176.5130  144.8100 C   0  0  0  0  0  2  0  0  0  0  0  0
  189.1700  177.9320  143.5090 C   0  0  0  0  0  2  0  0  0  0  0  0
  188.8530  177.8250  146.1420 C   0  0  0  0  0  0  0  0  0  0  0  0
  189.6880  177.8840  147.0560 O   0  0  0  0  0  0  0  0  0  0  0  0
  187.0980  178.2630  147.7030 O   0  0  0  0  0  1  0  0  0  0  0  0
  187.4350  177.6090  146.5150 C   0  0  1  0  0  3  0  0  0  0  0  0
  186.6370  178.1640  145.3620 C   0  0  0  0  0  2  0  0  0  0  0  0
  185.4120  179.0930  145.5820 C   0  0  2  0  0  3  0  0  0  0  0  0
  184.5280  178.4050  146.5320 N   0  0  0  0  0  1  0  0  0  0  0  0
  184.5920  179.5300  144.3000 C   0  0  0  0  0  2  0  0  0  0  0  0
  183.3630  178.8130  144.2080 O   0  0  0  0  0  1  0  0  0  0  0  0
  191.9100  175.7810  135.0200 S   0  0  0  0  0  0  0  0  0  0  0  0
  193.2230  175.5040  137.0660 C   0  0  0  0  0  0  0  0  0  0  0  0
  191.9530  175.9420  137.5020 C   0  0  0  0  0  3  0  0  0  0  0  0
  193.3290  175.3520  135.7280 C   0  0  0  0  0  3  0  0  0  0  0  0
  191.0350  176.2010  136.4670 C   0  0  0  0  0  0  0  0  0  0  0  0
  194.3330  175.1390  137.9260 C   0  0  0  0  0  2  0  0  0  0  0  0
  194.5040  173.7490  138.0980 O   0  0  0  0  0  0  0  0  0  0  0  0
  195.8590  173.5580  138.3950 C   0  0  0  0  0  2  0  0  0  0  0  0
  197.3940  175.1970  137.6350 O   0  0  0  0  0  0  0  0  0  0  0  0
  196.7580  174.6620  138.7280 C   0  0  2  0  0  3  0  0  0  0  0  0
  198.1740  174.2670  138.3910 C   0  0  0  0  0  2  0  0  0  0  0  0
  187.5280  175.7800  136.2870 O   0  0  0  0  0  0  0  0  0  0  0  0
  186.9300  174.9220  135.2930 C   0  0  0  0  0  2  0  0  0  0  0  0
  185.4340  173.3540  134.6070 O   0  0  0  0  0  1  0  0  0  0  0  0
  185.7730  174.0590  135.7560 C   0  0  1  0  0  3  0  0  0  0  0  0
  186.1100  173.1920  136.9110 C   0  0  0  0  0  0  0  0  0  0  0  0
  187.2300  172.3020  136.8580 C   0  0  0  0  0  3  0  0  0  0  0  0
  188.2010  171.8910  135.5630 C   0  0  1  0  0  3  0  0  0  0  0  0
  187.5200  171.5780  134.3470 O   0  0  0  0  0  1  0  0  0  0  0  0
  189.2620  172.8980  135.2220 N   0  0  0  0  0  1  0  0  0  0  0  0
  185.1150  173.4510  138.1010 C   0  0  0  0  0  2  0  0  0  0  0  0
  182.5990  176.3150  136.4330 C   0  0  0  0  0  0  0  0  0  0  0  0
  182.9250  174.0040  137.1180 C   0  0  0  0  0  3  0  0  0  0  0  0
  183.7420  176.7330  137.1100 C   0  0  0  0  0  3  0  0  0  0  0  0
  182.1630  175.0120  136.4720 C   0  0  0  0  0  3  0  0  0  0  0  0
  184.1230  174.4470  137.6440 C   0  0  0  0  0  0  0  0  0  0  0  0
  184.4490  175.7030  137.7280 N   0  0  0  0  0  0  0  0  0  0  0  0
  181.5990  178.6310  136.4210 C   0  0  0  0  0  0  0  0  0  0  0  0
  181.7620  177.3460  135.7920 N   0  0  0  0  0  2  0  0  0  0  0  0
  181.1090  179.6270  135.7550 O   0  0  0  0  0  0  0  0  0  0  0  0
  181.8120  178.8690  137.7930 O   0  0  0  0  0  0  0  0  0  0  0  0
  180.2840  177.4790  138.7990 O   0  0  0  0  0  1  0  0  0  0  0  0
  180.7820  178.7900  138.7550 C   0  0  1  0  0  3  0  0  0  0  0  0
  181.3290  179.1820  140.0780 C   0  0  0  0  0  0  0  0  0  0  0  0
  180.5870  179.8360  140.8480 O   0  0  0  0  0  0  0  0  0  0  0  0
  182.7670  178.8180  140.4810 C   0  0  0  0  0  3  0  0  0  0  0  0
  183.7910  179.6250  139.8880 F   0  0  0  0  0  0  0  0  0  0  0  0
  183.0080  177.5390  141.0750 F   0  0  0  0  0  0  0  0  0  0  0  0
  1 35  1  0  0  0  0
  1  2  2  0  0  0  0
  3  8  1  6  0  0  0
  3  5  1  0  0  0  0
  4  9  1  1  0  0  0
  5  4  1  0  0  0  0
  6  4  1  0  0  0  0
  7  2  1  6  0  0  0
  7  3  1  0  0  0  0
  7  6  1  0  0  0  0
 10  9  1  6  0  0  0
 10 14  1  0  0  0  0
 10 12  1  0  0  0  0
 11 15  1  0  0  0  0
 12 13  1  0  0  0  0
 13 11  1  0  0  0  0
 14 11  1  0  0  0  0
 15 18  1  0  0  0  0
 15 16  2  0  0  0  0
 18 17  1  1  0  0  0
 19 20  1  0  0  0  0
 19 18  1  0  0  0  0
 20 21  1  1  0  0  0
 22 20  1  0  0  0  0
 23 22  1  0  0  0  0
 24 27  1  0  0  0  0
 24 28  1  0  0  0  0
 25 26  1  0  0  0  0
 25 29  1  0  0  0  0
 27 25  2  0  0  0  0
 28  2  1  0  0  0  0
 28 26  2  0  0  0  0
 29 30  1  0  0  0  0
 30 31  1  0  0  0  0
 32 34  1  0  0  0  0
 32 33  1  0  0  0  0
 33 31  1  6  0  0  0
 34 33  1  0  0  0  0
 36 38  1  0  0  0  0
 36 35  1  0  0  0  0
 38 37  1  6  0  0  0
 38 39  1  0  0  0  0
 39 44  1  0  0  0  0
 40 39  2  0  0  0  0
 41 42  1  6  0  0  0
 41 40  1  0  0  0  0
 43 41  1  0  0  0  0
 45 48  2  0  0  0  0
 45 47  1  0  0  0  0
 46 49  2  0  0  0  0
 47 50  2  0  0  0  0
 48 46  1  0  0  0  0
 49 50  1  0  0  0  0
 49 44  1  0  0  0  0
 51 54  1  0  0  0  0
 52 51  1  0  0  0  0
 52 45  1  0  0  0  0
 53 51  2  0  0  0  0
 54 56  1  0  0  0  0
 56 55  1  1  0  0  0
 56 57  1  0  0  0  0
 57 59  1  0  0  0  0
 57 58  2  0  0  0  0
 59 61  1  0  0  0  0
 60 59  1  0  0  0  0
M  END
>  <MODEL>
5

>  <REMARK>
 VINA RESULT:      -5.3      3.099      5.363
  Name = 
  24 active torsions:
  status: ('A' for Active; 'I' for Inactive)
    1  A    between atoms: C_2  and  O_55
    2  A    between atoms: C_3  and  C_47
    3  A    between atoms: CA_4  and  C_11
    4  A    between atoms: CA_4  and  C_25
    5  A    between atoms: C_7  and  C_9
    6  A    between atoms: C_7  and  C_24
    7  A    between atoms: C_8  and  C_47
    8  A    between atoms: C_10  and  C_30
    9  A    between atoms: C_10  and  C_50
   10  A    between atoms: C_14  and  N_37
   11  A    between atoms: C_15  and  C_16
   12  A    between atoms: N_22  and  O_60
   13  A    between atoms: C_24  and  O_55
   14  A    between atoms: C_25  and  C_56
   15  A    between atoms: C_30  and  C_58
   16  A    between atoms: C_32  and  O_38
   17  A    between atoms: C_32  and  C_44
   18  A    between atoms: C_33  and  C_34
   19  A    between atoms: C_33  and  O_38
   20  A    between atoms: C_42  and  C_45
   21  A    between atoms: C_45  and  C_61
   22  A    between atoms: C_50  and  C_53
   23  A    between atoms: C_51  and  C_56
   24  A    between atoms: C_58  and  O_60
                            x       y       z     vdW  Elec       q    Type
                         _______ _______ _______ _____ _____    ______ ____

>  <TORSDO>
F 24

$$$$
=
 OpenBabel10232410193D

 61 65  0  0  1  0  0  0  0  0999 V2000
  187.7390  174.9420  134.3460 N   0  0  0  0  0  0  0  0  0  0  0  0
  188.5290  175.9450  134.5790 C   0  0  0  0  0  0  0  0  0  0  0  0
  186.6470  177.6840  135.4260 C   0  0  2  0  0  3  0  0  0  0  0  0
  187.9680  177.8660  137.7200 C   0  0  2  0  0  3  0  0  0  0  0  0
  186.3840  178.5100  136.9900 S   0  0  0  0  0  0  0  0  0  0  0  0
  188.5960  176.9650  136.8300 O   0  0  0  0  0  0  0  0  0  0  0  0
  188.0440  177.0940  135.5040 C   0  0  1  0  0  3  0  0  0  0  0  0
  186.7250  178.6360  134.4700 O   0  0  0  0  0  1  0  0  0  0  0  0
  187.8700  177.4510  139.2040 C   0  0  0  0  0  2  0  0  0  0  0  0
  188.9430  178.2000  140.0120 C   0  0  2  0  0  3  0  0  0  0  0  0
  189.3070  177.8690  142.3690 N   0  0  0  0  0  0  0  0  0  0  0  0
  190.0840  177.2350  140.3180 C   0  0  0  0  0  2  0  0  0  0  0  0
  190.1290  176.9600  141.6150 C   0  0  0  0  0  2  0  0  0  0  0  0
  188.4790  178.5990  141.4130 C   0  0  0  0  0  2  0  0  0  0  0  0
  189.7460  178.2310  143.7160 C   0  0  0  0  0  0  0  0  0  0  0  0
  190.9570  178.1340  143.9610 O   0  0  0  0  0  0  0  0  0  0  0  0
  187.7720  177.1730  144.5480 O   0  0  0  0  0  1  0  0  0  0  0  0
  188.7970  178.0760  144.8440 C   0  0  1  0  0  3  0  0  0  0  0  0
  189.6330  177.5680  145.9920 C   0  0  0  0  0  2  0  0  0  0  0  0
  189.1440  177.6540  147.4640 C   0  0  2  0  0  3  0  0  0  0  0  0
  188.2420  176.5140  147.6750 N   0  0  0  0  0  1  0  0  0  0  0  0
  188.4340  178.9950  147.9160 C   0  0  0  0  0  2  0  0  0  0  0  0
  187.0310  178.8040  148.0810 O   0  0  0  0  0  1  0  0  0  0  0  0
  190.5240  173.8270  134.3550 S   0  0  0  0  0  0  0  0  0  0  0  0
  192.2240  175.3640  135.2170 C   0  0  0  0  0  0  0  0  0  0  0  0
  191.0110  176.0850  135.2780 C   0  0  0  0  0  3  0  0  0  0  0  0
  192.0950  174.1020  134.7500 C   0  0  0  0  0  3  0  0  0  0  0  0
  189.8890  175.3900  134.7900 C   0  0  0  0  0  0  0  0  0  0  0  0
  193.5140  175.8360  135.6830 C   0  0  0  0  0  2  0  0  0  0  0  0
  193.7690  175.5790  137.0470 O   0  0  0  0  0  0  0  0  0  0  0  0
  194.7310  174.5620  137.0780 C   0  0  0  0  0  2  0  0  0  0  0  0
  195.5790  172.4820  137.8360 O   0  0  0  0  0  0  0  0  0  0  0  0
  194.4490  173.2240  137.5940 C   0  0  2  0  0  3  0  0  0  0  0  0
  194.9250  172.1980  136.5960 C   0  0  0  0  0  2  0  0  0  0  0  0
  186.4160  174.7530  134.5790 O   0  0  0  0  0  0  0  0  0  0  0  0
  186.0380  173.3610  134.5400 C   0  0  0  0  0  2  0  0  0  0  0  0
  184.3490  171.8380  134.5360 O   0  0  0  0  0  1  0  0  0  0  0  0
  184.7200  173.0030  135.1990 C   0  0  1  0  0  3  0  0  0  0  0  0
  184.8210  172.8470  136.6710 C   0  0  0  0  0  0  0  0  0  0  0  0
  186.0940  172.6830  137.3050 C   0  0  0  0  0  3  0  0  0  0  0  0
  187.5980  172.4340  136.6240 C   0  0  1  0  0  3  0  0  0  0  0  0
  188.7130  172.8960  137.3880 O   0  0  0  0  0  1  0  0  0  0  0  0
  187.8920  171.0130  136.2390 N   0  0  0  0  0  1  0  0  0  0  0  0
  183.3970  172.9280  137.3300 C   0  0  0  0  0  2  0  0  0  0  0  0
  182.1510  176.8900  137.5830 C   0  0  0  0  0  0  0  0  0  0  0  0
  183.8590  175.3060  136.8850 C   0  0  0  0  0  3  0  0  0  0  0  0
  181.2200  175.8760  137.7960 C   0  0  0  0  0  3  0  0  0  0  0  0
  183.4090  176.6360  137.0940 C   0  0  0  0  0  3  0  0  0  0  0  0
  182.9480  174.3350  137.2510 C   0  0  0  0  0  0  0  0  0  0  0  0
  181.7150  174.5920  137.5730 N   0  0  0  0  0  0  0  0  0  0  0  0
  181.8910  178.9570  139.0070 C   0  0  0  0  0  0  0  0  0  0  0  0
  181.6990  178.2850  137.7480 N   0  0  0  0  0  2  0  0  0  0  0  0
  181.7600  180.2410  139.0880 O   0  0  0  0  0  0  0  0  0  0  0  0
  182.0840  178.2910  140.2340 O   0  0  0  0  0  0  0  0  0  0  0  0
  180.9310  178.6590  142.1860 O   0  0  0  0  0  1  0  0  0  0  0  0
  182.1020  178.9600  141.4770 C   0  0  1  0  0  3  0  0  0  0  0  0
  183.2980  178.5250  142.2400 C   0  0  0  0  0  0  0  0  0  0  0  0
  184.0930  177.7330  141.6800 O   0  0  0  0  0  0  0  0  0  0  0  0
  183.5430  179.0110  143.6760 C   0  0  0  0  0  3  0  0  0  0  0  0
  184.6090  179.9560  143.8290 F   0  0  0  0  0  0  0  0  0  0  0  0
  182.9910  178.2560  144.7580 F   0  0  0  0  0  0  0  0  0  0  0  0
  1 35  1  0  0  0  0
  1  2  2  0  0  0  0
  2 28  1  0  0  0  0
  3  8  1  6  0  0  0
  3  7  1  0  0  0  0
  3  5  1  0  0  0  0
  4  9  1  1  0  0  0
  5  4  1  0  0  0  0
  6  4  1  0  0  0  0
  7  2  1  1  0  0  0
  7  6  1  0  0  0  0
 10  9  1  1  0  0  0
 10 12  1  0  0  0  0
 10 14  1  0  0  0  0
 11 15  1  0  0  0  0
 12 13  1  0  0  0  0
 13 11  1  0  0  0  0
 14 11  1  0  0  0  0
 15 16  2  0  0  0  0
 15 18  1  0  0  0  0
 18 17  1  6  0  0  0
 18 19  1  0  0  0  0
 19 20  1  0  0  0  0
 20 21  1  6  0  0  0
 20 22  1  0  0  0  0
 22 23  1  0  0  0  0
 24 27  1  0  0  0  0
 24 28  1  0  0  0  0
 25 26  1  0  0  0  0
 25 29  1  0  0  0  0
 27 25  2  0  0  0  0
 28 26  2  0  0  0  0
 29 30  1  0  0  0  0
 30 31  1  0  0  0  0
 33 31  1  6  0  0  0
 33 32  1  0  0  0  0
 34 33  1  0  0  0  0
 34 32  1  0  0  0  0
 36 35  1  0  0  0  0
 36 38  1  0  0  0  0
 38 37  1  6  0  0  0
 38 39  1  0  0  0  0
 39 40  2  0  0  0  0
 39 44  1  0  0  0  0
 41 43  1  1  0  0  0
 41 40  1  0  0  0  0
 41 42  1  0  0  0  0
 45 52  1  0  0  0  0
 45 47  1  0  0  0  0
 46 48  1  0  0  0  0
 46 49  2  0  0  0  0
 48 45  2  0  0  0  0
 49 44  1  0  0  0  0
 49 50  1  0  0  0  0
 50 47  2  0  0  0  0
 51 53  2  0  0  0  0
 51 54  1  0  0  0  0
 52 51  1  0  0  0  0
 54 56  1  0  0  0  0
 56 55  1  1  0  0  0
 56 57  1  0  0  0  0
 57 59  1  0  0  0  0
 58 57  2  0  0  0  0
 59 60  1  0  0  0  0
 59 61  1  0  0  0  0
M  END
>  <MODEL>
6

>  <REMARK>
 VINA RESULT:      -5.2      3.240      5.960
  Name = 
  24 active torsions:
  status: ('A' for Active; 'I' for Inactive)
    1  A    between atoms: C_2  and  O_55
    2  A    between atoms: C_3  and  C_47
    3  A    between atoms: CA_4  and  C_11
    4  A    between atoms: CA_4  and  C_25
    5  A    between atoms: C_7  and  C_9
    6  A    between atoms: C_7  and  C_24
    7  A    between atoms: C_8  and  C_47
    8  A    between atoms: C_10  and  C_30
    9  A    between atoms: C_10  and  C_50
   10  A    between atoms: C_14  and  N_37
   11  A    between atoms: C_15  and  C_16
   12  A    between atoms: N_22  and  O_60
   13  A    between atoms: C_24  and  O_55
   14  A    between atoms: C_25  and  C_56
   15  A    between atoms: C_30  and  C_58
   16  A    between atoms: C_32  and  O_38
   17  A    between atoms: C_32  and  C_44
   18  A    between atoms: C_33  and  C_34
   19  A    between atoms: C_33  and  O_38
   20  A    between atoms: C_42  and  C_45
   21  A    between atoms: C_45  and  C_61
   22  A    between atoms: C_50  and  C_53
   23  A    between atoms: C_51  and  C_56
   24  A    between atoms: C_58  and  O_60
                            x       y       z     vdW  Elec       q    Type
                         _______ _______ _______ _____ _____    ______ ____

>  <TORSDO>
F 24

$$$$
=
 OpenBabel10232410193D

 61 65  0  0  1  0  0  0  0  0999 V2000
  187.9700  176.6900  136.3800 N   0  0  0  0  0  0  0  0  0  0  0  0
  187.4700  175.6630  135.7650 C   0  0  0  0  0  0  0  0  0  0  0  0
  187.8540  173.1390  134.8900 C   0  0  2  0  0  3  0  0  0  0  0  0
  190.4180  173.4000  135.5240 C   0  0  2  0  0  3  0  0  0  0  0  0
  189.3220  172.1330  134.7160 S   0  0  0  0  0  0  0  0  0  0  0  0
  189.6930  174.5810  135.7990 O   0  0  0  0  0  0  0  0  0  0  0  0
  188.2740  174.3350  135.7270 C   0  0  1  0  0  3  0  0  0  0  0  0
  186.9830  172.4600  135.6680 O   0  0  0  0  0  1  0  0  0  0  0  0
  191.8100  173.5520  134.8760 C   0  0  0  0  0  2  0  0  0  0  0  0
  192.5300  174.7610  135.4980 C   0  0  2  0  0  3  0  0  0  0  0  0
  194.9250  174.9480  135.6550 N   0  0  0  0  0  0  0  0  0  0  0  0
  193.1470  175.5890  134.3750 C   0  0  0  0  0  2  0  0  0  0  0  0
  194.4720  175.5180  134.4140 C   0  0  0  0  0  2  0  0  0  0  0  0
  193.7580  174.3780  136.3230 C   0  0  0  0  0  2  0  0  0  0  0  0
  196.1940  175.4260  136.2030 C   0  0  0  0  0  0  0  0  0  0  0  0
  196.5670  176.5570  135.8620 O   0  0  0  0  0  0  0  0  0  0  0  0
  197.1790  174.0880  137.9200 O   0  0  0  0  0  1  0  0  0  0  0  0
  197.2340  174.4360  136.5670 C   0  0  1  0  0  3  0  0  0  0  0  0
  196.9530  173.2340  135.7010 C   0  0  0  0  0  2  0  0  0  0  0  0
  197.8200  171.9470  135.7750 C   0  0  2  0  0  3  0  0  0  0  0  0
  198.7580  172.0060  134.6480 N   0  0  0  0  0  1  0  0  0  0  0  0
  197.0590  170.5580  135.7740 C   0  0  0  0  0  2  0  0  0  0  0  0
  195.6550  170.7420  135.9390 O   0  0  0  0  0  1  0  0  0  0  0  0
  185.1740  174.4770  137.1210 S   0  0  0  0  0  0  0  0  0  0  0  0
  183.7900  176.3560  136.3800 C   0  0  0  0  0  0  0  0  0  0  0  0
  185.0520  176.5700  135.7820 C   0  0  0  0  0  3  0  0  0  0  0  0
  183.7130  175.2300  137.1230 C   0  0  0  0  0  3  0  0  0  0  0  0
  186.0270  175.6090  136.1080 C   0  0  0  0  0  0  0  0  0  0  0  0
  182.6100  177.1760  136.1830 C   0  0  0  0  0  2  0  0  0  0  0  0
  181.9330  177.5170  137.3730 O   0  0  0  0  0  0  0  0  0  0  0  0
  182.3650  178.8050  137.7100 C   0  0  0  0  0  2  0  0  0  0  0  0
  183.7180  180.1060  139.1590 O   0  0  0  0  0  0  0  0  0  0  0  0
  182.6940  179.1950  139.0810 C   0  0  2  0  0  3  0  0  0  0  0  0
  184.1000  178.7490  139.3980 C   0  0  0  0  0  2  0  0  0  0  0  0
  189.2140  176.9490  136.8560 O   0  0  0  0  0  0  0  0  0  0  0  0
  189.3090  176.7800  138.2850 C   0  0  0  0  0  2  0  0  0  0  0  0
  189.1000  179.0440  138.3030 O   0  0  0  0  0  1  0  0  0  0  0  0
  189.6220  178.0250  139.0910 C   0  0  1  0  0  3  0  0  0  0  0  0
  189.0680  177.9900  140.4670 C   0  0  0  0  0  0  0  0  0  0  0  0
  189.9340  177.9240  141.6050 C   0  0  0  0  0  3  0  0  0  0  0  0
  191.5840  177.6750  141.6720 C   0  0  1  0  0  3  0  0  0  0  0  0
  192.0380  176.7790  142.6880 O   0  0  0  0  0  1  0  0  0  0  0  0
  192.2110  177.2290  140.3830 N   0  0  0  0  0  1  0  0  0  0  0  0
  187.4980  178.0730  140.4290 C   0  0  0  0  0  2  0  0  0  0  0  0
  185.7680  178.2210  144.2100 C   0  0  0  0  0  0  0  0  0  0  0  0
  187.5450  177.3650  142.7870 C   0  0  0  0  0  3  0  0  0  0  0  0
  185.3770  179.1550  143.2530 C   0  0  0  0  0  3  0  0  0  0  0  0
  186.8440  177.3880  144.0210 C   0  0  0  0  0  3  0  0  0  0  0  0
  187.0240  178.2060  141.8230 C   0  0  0  0  0  0  0  0  0  0  0  0
  186.1020  179.0900  142.0630 N   0  0  0  0  0  0  0  0  0  0  0  0
  185.8380  178.5610  146.7090 C   0  0  0  0  0  0  0  0  0  0  0  0
  185.0880  178.2520  145.5190 N   0  0  0  0  0  2  0  0  0  0  0  0
  185.2230  178.8640  147.8070 O   0  0  0  0  0  0  0  0  0  0  0  0
  187.2360  178.4270  146.8170 O   0  0  0  0  0  0  0  0  0  0  0  0
  187.4820  176.3330  147.7290 O   0  0  0  0  0  1  0  0  0  0  0  0
  187.8590  177.6790  147.8390 C   0  0  1  0  0  3  0  0  0  0  0  0
  189.3300  177.8190  147.7080 C   0  0  0  0  0  0  0  0  0  0  0  0
  189.9480  178.4030  148.6300 O   0  0  0  0  0  0  0  0  0  0  0  0
  190.0710  177.2850  146.4710 C   0  0  0  0  0  3  0  0  0  0  0  0
  191.2040  176.4550  146.7490 F   0  0  0  0  0  0  0  0  0  0  0  0
  189.8400  177.9180  145.2100 F   0  0  0  0  0  0  0  0  0  0  0  0
  1 35  1  0  0  0  0
  2 28  1  0  0  0  0
  2  1  2  0  0  0  0
  3  8  1  1  0  0  0
  3  7  1  0  0  0  0
  4  9  1  6  0  0  0
  4  6  1  0  0  0  0
  5  3  1  0  0  0  0
  5  4  1  0  0  0  0
  7  2  1  6  0  0  0
  7  6  1  0  0  0  0
 10  9  1  6  0  0  0
 10 14  1  0  0  0  0
 11 15  1  0  0  0  0
 11 14  1  0  0  0  0
 12 13  1  0  0  0  0
 12 10  1  0  0  0  0
 13 11  1  0  0  0  0
 15 18  1  0  0  0  0
 16 15  2  0  0  0  0
 18 17  1  1  0  0  0
 19 20  1  0  0  0  0
 19 18  1  0  0  0  0
 20 21  1  6  0  0  0
 22 20  1  0  0  0  0
 22 23  1  0  0  0  0
 24 27  1  0  0  0  0
 25 27  2  0  0  0  0
 26 28  2  0  0  0  0
 26 25  1  0  0  0  0
 28 24  1  0  0  0  0
 29 25  1  0  0  0  0
 29 30  1  0  0  0  0
 30 31  1  0  0  0  0
 32 34  1  0  0  0  0
 33 31  1  6  0  0  0
 33 32  1  0  0  0  0
 33 34  1  0  0  0  0
 35 36  1  0  0  0  0
 36 38  1  0  0  0  0
 38 37  1  6  0  0  0
 38 39  1  0  0  0  0
 39 40  2  0  0  0  0
 40 41  1  0  0  0  0
 41 43  1  6  0  0  0
 41 42  1  0  0  0  0
 44 39  1  0  0  0  0
 44 49  1  0  0  0  0
 45 52  1  0  0  0  0
 46 48  2  0  0  0  0
 47 45  2  0  0  0  0
 48 45  1  0  0  0  0
 49 50  2  0  0  0  0
 49 46  1  0  0  0  0
 50 47  1  0  0  0  0
 51 54  1  0  0  0  0
 51 53  2  0  0  0  0
 52 51  1  0  0  0  0
 54 56  1  0  0  0  0
 56 55  1  6  0  0  0
 57 56  1  0  0  0  0
 57 58  2  0  0  0  0
 59 60  1  0  0  0  0
 59 57  1  0  0  0  0
 61 59  1  0  0  0  0
M  END
>  <MODEL>
7

>  <REMARK>
 VINA RESULT:      -5.2      3.528     10.677
  Name = 
  24 active torsions:
  status: ('A' for Active; 'I' for Inactive)
    1  A    between atoms: C_2  and  O_55
    2  A    between atoms: C_3  and  C_47
    3  A    between atoms: CA_4  and  C_11
    4  A    between atoms: CA_4  and  C_25
    5  A    between atoms: C_7  and  C_9
    6  A    between atoms: C_7  and  C_24
    7  A    between atoms: C_8  and  C_47
    8  A    between atoms: C_10  and  C_30
    9  A    between atoms: C_10  and  C_50
   10  A    between atoms: C_14  and  N_37
   11  A    between atoms: C_15  and  C_16
   12  A    between atoms: N_22  and  O_60
   13  A    between atoms: C_24  and  O_55
   14  A    between atoms: C_25  and  C_56
   15  A    between atoms: C_30  and  C_58
   16  A    between atoms: C_32  and  O_38
   17  A    between atoms: C_32  and  C_44
   18  A    between atoms: C_33  and  C_34
   19  A    between atoms: C_33  and  O_38
   20  A    between atoms: C_42  and  C_45
   21  A    between atoms: C_45  and  C_61
   22  A    between atoms: C_50  and  C_53
   23  A    between atoms: C_51  and  C_56
   24  A    between atoms: C_58  and  O_60
                            x       y       z     vdW  Elec       q    Type
                         _______ _______ _______ _____ _____    ______ ____

>  <TORSDO>
F 24

$$$$
=
 OpenBabel10232410193D

 61 65  0  0  1  0  0  0  0  0999 V2000
  185.2610  178.6910  140.8290 N   0  0  0  0  0  0  0  0  0  0  0  0
  185.0390  177.9860  141.8960 C   0  0  0  0  0  0  0  0  0  0  0  0
  187.5940  178.3010  142.7060 C   0  0  2  0  0  3  0  0  0  0  0  0
  186.8310  177.5340  145.1290 C   0  0  2  0  0  3  0  0  0  0  0  0
  188.3800  178.1530  144.3050 S   0  0  0  0  0  0  0  0  0  0  0  0
  185.7440  177.5610  144.2270 O   0  0  0  0  0  0  0  0  0  0  0  0
  186.2130  177.6930  142.8700 C   0  0  1  0  0  3  0  0  0  0  0  0
  188.2390  177.4710  141.8560 O   0  0  0  0  0  1  0  0  0  0  0  0
  186.5940  178.0900  146.5500 C   0  0  0  0  0  2  0  0  0  0  0  0
  187.5300  177.3730  147.5380 C   0  0  2  0  0  3  0  0  0  0  0  0
  189.9080  177.1760  147.2130 N   0  0  0  0  0  0  0  0  0  0  0  0
  188.3330  178.4260  148.2960 C   0  0  0  0  0  2  0  0  0  0  0  0
  189.6130  178.3760  147.9490 C   0  0  0  0  0  2  0  0  0  0  0  0
  188.6310  176.5650  146.8520 C   0  0  0  0  0  2  0  0  0  0  0  0
  191.2330  176.5800  147.3800 C   0  0  0  0  0  0  0  0  0  0  0  0
  191.8390  176.8330  148.4300 O   0  0  0  0  0  0  0  0  0  0  0  0
  192.2000  174.9030  145.9790 O   0  0  0  0  0  1  0  0  0  0  0  0
  192.0380  176.2770  146.1730 C   0  0  1  0  0  3  0  0  0  0  0  0
  191.2700  176.8850  145.0260 C   0  0  0  0  0  2  0  0  0  0  0  0
  191.9600  177.7720  143.9540 C   0  0  2  0  0  3  0  0  0  0  0  0
  191.8310  179.1610  144.4110 N   0  0  0  0  0  1  0  0  0  0  0  0
  191.4420  177.6430  142.4620 C   0  0  0  0  0  2  0  0  0  0  0  0
  192.4700  177.1570  141.6030 O   0  0  0  0  0  1  0  0  0  0  0  0
  183.3760  178.9930  144.0720 S   0  0  0  0  0  0  0  0  0  0  0  0
  181.5160  179.2590  142.5020 C   0  0  0  0  0  0  0  0  0  0  0  0
  182.5500  178.6580  141.7490 C   0  0  0  0  0  3  0  0  0  0  0  0
  181.8290  179.4770  143.7980 C   0  0  0  0  0  3  0  0  0  0  0  0
  183.7450  178.4430  142.4610 C   0  0  0  0  0  0  0  0  0  0  0  0
  180.1810  179.5560  142.0190 C   0  0  0  0  0  2  0  0  0  0  0  0
  180.1110  180.6640  141.1490 O   0  0  0  0  0  0  0  0  0  0  0  0
  180.3360  180.1620  139.8610 C   0  0  0  0  0  2  0  0  0  0  0  0
  180.1630  181.0330  137.6620 O   0  0  0  0  0  0  0  0  0  0  0  0
  180.9360  180.9620  138.7950 C   0  0  2  0  0  3  0  0  0  0  0  0
  181.2230  180.0740  137.6100 C   0  0  0  0  0  2  0  0  0  0  0  0
  186.4080  179.0870  140.2230 O   0  0  0  0  0  0  0  0  0  0  0  0
  187.0170  178.0370  139.4440 C   0  0  0  0  0  2  0  0  0  0  0  0
  186.5650  179.2360  137.5660 O   0  0  0  0  0  1  0  0  0  0  0  0
  186.5620  177.9170  138.0030 C   0  0  1  0  0  3  0  0  0  0  0  0
  187.4150  177.0160  137.1900 C   0  0  0  0  0  0  0  0  0  0  0  0
  186.8340  176.1110  136.2460 C   0  0  0  0  0  3  0  0  0  0  0  0
  185.2300  175.7170  135.9980 C   0  0  1  0  0  3  0  0  0  0  0  0
  184.9870  174.4490  135.3860 O   0  0  0  0  0  1  0  0  0  0  0  0
  184.3650  175.7840  137.2230 N   0  0  0  0  0  1  0  0  0  0  0  0
  188.9350  177.2610  137.5110 C   0  0  0  0  0  2  0  0  0  0  0  0
  191.5030  174.4450  135.8410 C   0  0  0  0  0  0  0  0  0  0  0  0
  189.6970  174.9220  137.3980 C   0  0  0  0  0  3  0  0  0  0  0  0
  191.3720  175.6880  135.2250 C   0  0  0  0  0  3  0  0  0  0  0  0
  190.6680  174.0410  136.8540 C   0  0  0  0  0  3  0  0  0  0  0  0
  189.7090  176.1900  136.8500 C   0  0  0  0  0  0  0  0  0  0  0  0
  190.4020  176.5090  135.7980 N   0  0  0  0  0  0  0  0  0  0  0  0
  193.7000  173.2120  135.9660 C   0  0  0  0  0  0  0  0  0  0  0  0
  192.4720  173.4920  135.2690 N   0  0  0  0  0  2  0  0  0  0  0  0
  194.4230  172.1920  135.6330 O   0  0  0  0  0  0  0  0  0  0  0  0
  194.2710  174.0670  136.9310 O   0  0  0  0  0  0  0  0  0  0  0  0
  195.9830  175.5780  136.6810 O   0  0  0  0  0  1  0  0  0  0  0  0
  195.6630  174.2640  137.0540 C   0  0  1  0  0  3  0  0  0  0  0  0
  196.0610  174.0130  138.4620 C   0  0  0  0  0  0  0  0  0  0  0  0
  195.3190  173.2800  139.1570 O   0  0  0  0  0  0  0  0  0  0  0  0
  197.3290  174.6480  139.0530 C   0  0  0  0  0  3  0  0  0  0  0  0
  198.4000  174.8510  138.1240 F   0  0  0  0  0  0  0  0  0  0  0  0
  197.4990  174.6430  140.4730 F   0  0  0  0  0  0  0  0  0  0  0  0
  1  2  2  0  0  0  0
  2 28  1  0  0  0  0
  3  8  1  6  0  0  0
  3  7  1  0  0  0  0
  3  5  1  0  0  0  0
  4  9  1  1  0  0  0
  5  4  1  0  0  0  0
  6  4  1  0  0  0  0
  7  2  1  6  0  0  0
  7  6  1  0  0  0  0
 10  9  1  6  0  0  0
 10 12  1  0  0  0  0
 11 15  1  0  0  0  0
 11 13  1  0  0  0  0
 13 12  1  0  0  0  0
 14 11  1  0  0  0  0
 14 10  1  0  0  0  0
 15 16  2  0  0  0  0
 18 17  1  6  0  0  0
 18 15  1  0  0  0  0
 19 18  1  0  0  0  0
 20 21  1  1  0  0  0
 20 19  1  0  0  0  0
 22 20  1  0  0  0  0
 23 22  1  0  0  0  0
 25 27  2  0  0  0  0
 26 28  2  0  0  0  0
 26 25  1  0  0  0  0
 27 24  1  0  0  0  0
 28 24  1  0  0  0  0
 29 25  1  0  0  0  0
 30 29  1  0  0  0  0
 31 30  1  0  0  0  0
 32 33  1  0  0  0  0
 33 31  1  1  0  0  0
 34 32  1  0  0  0  0
 34 33  1  0  0  0  0
 35  1  1  0  0  0  0
 36 35  1  0  0  0  0
 38 37  1  6  0  0  0
 38 36  1  0  0  0  0
 39 44  1  0  0  0  0
 39 38  1  0  0  0  0
 40 39  2  0  0  0  0
 41 42  1  1  0  0  0
 41 40  1  0  0  0  0
 41 43  1  0  0  0  0
 45 48  1  0  0  0  0
 47 50  1  0  0  0  0
 47 45  2  0  0  0  0
 48 46  2  0  0  0  0
 49 46  1  0  0  0  0
 49 44  1  0  0  0  0
 50 49  2  0  0  0  0
 51 54  1  0  0  0  0
 52 45  1  0  0  0  0
 52 51  1  0  0  0  0
 53 51  2  0  0  0  0
 54 56  1  0  0  0  0
 56 55  1  1  0  0  0
 56 57  1  0  0  0  0
 57 59  1  0  0  0  0
 57 58  2  0  0  0  0
 59 61  1  0  0  0  0
 60 59  1  0  0  0  0
M  END
>  <MODEL>
8

>  <REMARK>
 VINA RESULT:      -5.1      3.561      9.361
  Name = 
  24 active torsions:
  status: ('A' for Active; 'I' for Inactive)
    1  A    between atoms: C_2  and  O_55
    2  A    between atoms: C_3  and  C_47
    3  A    between atoms: CA_4  and  C_11
    4  A    between atoms: CA_4  and  C_25
    5  A    between atoms: C_7  and  C_9
    6  A    between atoms: C_7  and  C_24
    7  A    between atoms: C_8  and  C_47
    8  A    between atoms: C_10  and  C_30
    9  A    between atoms: C_10  and  C_50
   10  A    between atoms: C_14  and  N_37
   11  A    between atoms: C_15  and  C_16
   12  A    between atoms: N_22  and  O_60
   13  A    between atoms: C_24  and  O_55
   14  A    between atoms: C_25  and  C_56
   15  A    between atoms: C_30  and  C_58
   16  A    between atoms: C_32  and  O_38
   17  A    between atoms: C_32  and  C_44
   18  A    between atoms: C_33  and  C_34
   19  A    between atoms: C_33  and  O_38
   20  A    between atoms: C_42  and  C_45
   21  A    between atoms: C_45  and  C_61
   22  A    between atoms: C_50  and  C_53
   23  A    between atoms: C_51  and  C_56
   24  A    between atoms: C_58  and  O_60
                            x       y       z     vdW  Elec       q    Type
                         _______ _______ _______ _____ _____    ______ ____

>  <TORSDO>
F 24

$$$$
=
 OpenBabel10232410193D

 61 65  0  0  1  0  0  0  0  0999 V2000
  188.7600  176.8650  140.9770 N   0  0  0  0  0  0  0  0  0  0  0  0
  189.9680  176.6620  141.4050 C   0  0  0  0  0  0  0  0  0  0  0  0
  192.5900  177.1070  140.9450 C   0  0  2  0  0  3  0  0  0  0  0  0
  192.2160  176.2400  138.4660 C   0  0  2  0  0  3  0  0  0  0  0  0
  193.6360  176.7970  139.5290 S   0  0  0  0  0  0  0  0  0  0  0  0
  191.0210  176.1880  139.2190 O   0  0  0  0  0  0  0  0  0  0  0  0
  191.1660  176.9220  140.4510 C   0  0  1  0  0  3  0  0  0  0  0  0
  192.6860  178.4210  141.2440 O   0  0  0  0  0  1  0  0  0  0  0  0
  192.5330  175.0400  137.5480 C   0  0  0  0  0  2  0  0  0  0  0  0
  193.6600  175.4280  136.5760 C   0  0  2  0  0  3  0  0  0  0  0  0
  195.5150  173.9880  136.0470 N   0  0  0  0  0  0  0  0  0  0  0  0
  193.4710  174.6510  135.2770 C   0  0  0  0  0  2  0  0  0  0  0  0
  194.4370  173.7540  135.1230 C   0  0  0  0  0  2  0  0  0  0  0  0
  195.0410  174.9580  137.0310 C   0  0  0  0  0  2  0  0  0  0  0  0
  196.8730  173.6660  135.6080 C   0  0  0  0  0  0  0  0  0  0  0  0
  197.0860  173.6600  134.3870 O   0  0  0  0  0  0  0  0  0  0  0  0
  198.1590  173.4500  137.6100 O   0  0  0  0  0  1  0  0  0  0  0  0
  197.7120  172.7920  136.4610 C   0  0  1  0  0  3  0  0  0  0  0  0
  196.8230  171.6310  136.8290 C   0  0  0  0  0  2  0  0  0  0  0  0
  196.7410  170.3490  135.9550 C   0  0  2  0  0  3  0  0  0  0  0  0
  195.3730  170.2870  135.4260 N   0  0  0  0  0  1  0  0  0  0  0  0
  197.1170  168.9750  136.6460 C   0  0  0  0  0  2  0  0  0  0  0  0
  196.0740  168.5340  137.5120 O   0  0  0  0  0  1  0  0  0  0  0  0
  190.5310  178.7660  143.3470 S   0  0  0  0  0  0  0  0  0  0  0  0
  189.6010  177.3540  145.1180 C   0  0  0  0  0  0  0  0  0  0  0  0
  189.5700  176.5530  143.9540 C   0  0  0  0  0  3  0  0  0  0  0  0
  190.1270  178.5840  144.9290 C   0  0  0  0  0  3  0  0  0  0  0  0
  190.0360  177.1920  142.7900 C   0  0  0  0  0  0  0  0  0  0  0  0
  189.2110  176.9290  146.4480 C   0  0  0  0  0  2  0  0  0  0  0  0
  188.5600  177.9230  147.2090 O   0  0  0  0  0  0  0  0  0  0  0  0
  187.1900  177.7630  146.9680 C   0  0  0  0  0  2  0  0  0  0  0  0
  184.9910  178.6110  146.7090 O   0  0  0  0  0  0  0  0  0  0  0  0
  186.3300  178.8640  146.5370 C   0  0  2  0  0  3  0  0  0  0  0  0
  185.4780  178.4030  145.3800 C   0  0  0  0  0  2  0  0  0  0  0  0
  188.2590  177.0730  139.7340 O   0  0  0  0  0  0  0  0  0  0  0  0
  187.8960  178.4490  139.5030 C   0  0  0  0  0  2  0  0  0  0  0  0
  189.0570  178.8470  137.5890 O   0  0  0  0  0  1  0  0  0  0  0  0
  187.7470  178.8740  138.0550 C   0  0  1  0  0  3  0  0  0  0  0  0
  186.8200  178.0130  137.2810 C   0  0  0  0  0  0  0  0  0  0  0  0
  185.4290  177.9500  137.6120 C   0  0  0  0  0  3  0  0  0  0  0  0
  184.6200  178.5790  138.9310 C   0  0  1  0  0  3  0  0  0  0  0  0
  184.4760  180.0000  138.9550 O   0  0  0  0  0  1  0  0  0  0  0  0
  183.2570  177.9980  139.1740 N   0  0  0  0  0  1  0  0  0  0  0  0
  187.5880  177.2880  136.1160 C   0  0  0  0  0  2  0  0  0  0  0  0
  186.3510  173.3730  135.4410 C   0  0  0  0  0  0  0  0  0  0  0  0
  187.3680  174.9820  136.9540 C   0  0  0  0  0  3  0  0  0  0  0  0
  185.9080  174.3770  134.5840 C   0  0  0  0  0  3  0  0  0  0  0  0
  187.0100  173.6520  136.6140 C   0  0  0  0  0  3  0  0  0  0  0  0
  187.0340  175.9220  135.9980 C   0  0  0  0  0  0  0  0  0  0  0  0
  186.2850  175.6630  134.9680 N   0  0  0  0  0  0  0  0  0  0  0  0
  184.5720  171.6710  134.8900 C   0  0  0  0  0  0  0  0  0  0  0  0
  185.9550  171.9840  135.1380 N   0  0  0  0  0  2  0  0  0  0  0  0
  184.2440  170.5380  134.3580 O   0  0  0  0  0  0  0  0  0  0  0  0
  183.4940  172.4710  135.3190 O   0  0  0  0  0  0  0  0  0  0  0  0
  183.4780  171.6260  137.4550 O   0  0  0  0  0  1  0  0  0  0  0  0
  182.6780  172.1350  136.4210 C   0  0  1  0  0  3  0  0  0  0  0  0
  181.9560  173.3490  136.8730 C   0  0  0  0  0  0  0  0  0  0  0  0
  180.7080  173.2840  136.9740 O   0  0  0  0  0  0  0  0  0  0  0  0
  182.7100  174.6510  137.1840 C   0  0  0  0  0  3  0  0  0  0  0  0
  182.1020  175.8450  136.6770 F   0  0  0  0  0  0  0  0  0  0  0  0
  184.0780  174.5690  137.5930 F   0  0  0  0  0  0  0  0  0  0  0  0
  1  2  2  0  0  0  0
  2 28  1  0  0  0  0
  3  8  1  6  0  0  0
  4  9  1  1  0  0  0
  4  6  1  0  0  0  0
  4  5  1  0  0  0  0
  5  3  1  0  0  0  0
  6  7  1  0  0  0  0
  7  3  1  0  0  0  0
  7  2  1  1  0  0  0
 10 14  1  0  0  0  0
 10  9  1  1  0  0  0
 11 14  1  0  0  0  0
 12 10  1  0  0  0  0
 13 12  1  0  0  0  0
 13 11  1  0  0  0  0
 15 11  1  0  0  0  0
 15 18  1  0  0  0  0
 16 15  2  0  0  0  0
 18 19  1  0  0  0  0
 18 17  1  1  0  0  0
 20 21  1  1  0  0  0
 20 22  1  0  0  0  0
 20 19  1  0  0  0  0
 22 23  1  0  0  0  0
 24 27  1  0  0  0  0
 25 29  1  0  0  0  0
 26 25  1  0  0  0  0
 27 25  2  0  0  0  0
 28 24  1  0  0  0  0
 28 26  2  0  0  0  0
 29 30  1  0  0  0  0
 31 30  1  0  0  0  0
 33 32  1  0  0  0  0
 33 31  1  1  0  0  0
 34 33  1  0  0  0  0
 34 32  1  0  0  0  0
 35  1  1  0  0  0  0
 36 35  1  0  0  0  0
 38 37  1  6  0  0  0
 38 36  1  0  0  0  0
 39 40  2  0  0  0  0
 39 38  1  0  0  0  0
 40 41  1  0  0  0  0
 41 42  1  6  0  0  0
 41 43  1  0  0  0  0
 44 39  1  0  0  0  0
 45 48  1  0  0  0  0
 47 50  1  0  0  0  0
 47 45  2  0  0  0  0
 48 46  2  0  0  0  0
 49 44  1  0  0  0  0
 49 46  1  0  0  0  0
 50 49  2  0  0  0  0
 51 52  1  0  0  0  0
 51 54  1  0  0  0  0
 52 45  1  0  0  0  0
 53 51  2  0  0  0  0
 54 56  1  0  0  0  0
 56 57  1  0  0  0  0
 56 55  1  1  0  0  0
 57 58  2  0  0  0  0
 57 59  1  0  0  0  0
 59 61  1  0  0  0  0
 60 59  1  0  0  0  0
M  END
>  <MODEL>
9

>  <REMARK>
 VINA RESULT:      -4.9      2.785      9.006
  Name = 
  24 active torsions:
  status: ('A' for Active; 'I' for Inactive)
    1  A    between atoms: C_2  and  O_55
    2  A    between atoms: C_3  and  C_47
    3  A    between atoms: CA_4  and  C_11
    4  A    between atoms: CA_4  and  C_25
    5  A    between atoms: C_7  and  C_9
    6  A    between atoms: C_7  and  C_24
    7  A    between atoms: C_8  and  C_47
    8  A    between atoms: C_10  and  C_30
    9  A    between atoms: C_10  and  C_50
   10  A    between atoms: C_14  and  N_37
   11  A    between atoms: C_15  and  C_16
   12  A    between atoms: N_22  and  O_60
   13  A    between atoms: C_24  and  O_55
   14  A    between atoms: C_25  and  C_56
   15  A    between atoms: C_30  and  C_58
   16  A    between atoms: C_32  and  O_38
   17  A    between atoms: C_32  and  C_44
   18  A    between atoms: C_33  and  C_34
   19  A    between atoms: C_33  and  O_38
   20  A    between atoms: C_42  and  C_45
   21  A    between atoms: C_45  and  C_61
   22  A    between atoms: C_50  and  C_53
   23  A    between atoms: C_51  and  C_56
   24  A    between atoms: C_58  and  O_60
                            x       y       z     vdW  Elec       q    Type
                         _______ _______ _______ _____ _____    ______ ____

>  <TORSDO>
F 24

$$$$
