=
 OpenBabel10232412323D

 29 32  0  0  1  0  0  0  0  0999 V2000
  187.4420  177.4290  138.0400 C   0  0  0  0  0  1  0  0  0  0  0  0
  189.0020  177.6090  142.2150 C   0  0  2  0  0  3  0  0  0  0  0  0
  187.8090  178.2640  139.2510 C   0  0  2  0  0  3  0  0  0  0  0  0
  189.3330  178.4580  139.3130 C   0  0  0  0  0  2  0  0  0  0  0  0
  189.8410  176.8480  141.2150 C   0  0  0  0  0  0  0  0  0  0  0  0
  187.7790  178.3340  141.6300 C   0  0  1  0  0  3  0  0  0  0  0  0
  190.4300  175.8080  141.6140 O   0  0  0  0  0  0  0  0  0  0  0  0
  190.9270  176.5740  138.9690 C   0  0  0  0  0  1  0  0  0  0  0  0
  187.2600  177.6390  140.4560 N   0  0  0  0  0  2  0  0  0  0  0  0
  190.0100  177.2810  139.8500 N   0  0  0  0  0  0  0  0  0  0  0  0
  186.7070  178.5100  142.6580 C   0  0  0  0  0  0  0  0  0  0  0  0
  184.4050  179.1300  143.2590 C   0  0  0  0  0  3  0  0  0  0  0  0
  185.8670  178.0820  146.2630 C   0  0  0  0  0  0  0  0  0  0  0  0
  185.4210  178.9910  142.2950 C   0  0  0  0  0  3  0  0  0  0  0  0
  183.9140  178.8310  145.6490 N   0  0  0  0  0  2  0  0  0  0  0  0
  184.7150  178.7780  144.5690 C   0  0  0  0  0  0  0  0  0  0  0  0
  184.6230  178.4020  146.6910 N   0  0  0  0  0  0  0  0  0  0  0  0
  185.9510  178.3150  144.9170 C   0  0  0  0  0  0  0  0  0  0  0  0
  186.9810  178.1590  143.9940 C   0  0  0  0  0  3  0  0  0  0  0  0
  187.4470  178.3870  148.1140 C   0  0  0  0  0  1  0  0  0  0  0  0
  186.8920  177.5970  147.0730 O   0  0  0  0  0  0  0  0  0  0  0  0
  189.8050  178.5110  142.9180 O   0  0  0  0  0  0  0  0  0  0  0  0
  190.8990  177.7510  143.3550 C   0  0  2  0  0  3  0  0  0  0  0  0
  191.5080  179.9360  144.2280 O   0  0  0  0  0  1  0  0  0  0  0  0
  189.8950  178.3210  145.5520 O   0  0  0  0  0  1  0  0  0  0  0  0
  190.9400  177.6840  144.8700 C   0  0  2  0  0  0  0  0  0  0  0  0
  191.9130  178.5980  144.1450 C   0  0  1  0  0  3  0  0  0  0  0  0
  191.5310  176.4240  145.4740 C   0  0  0  0  0  2  0  0  0  0  0  0
  191.5140  176.5120  146.9890 C   0  0  0  0  0  1  0  0  0  0  0  0
  2 22  1  6  0  0  0
  3  1  1  6  0  0  0
  3  4  1  0  0  0  0
  3  9  1  0  0  0  0
  4 10  1  0  0  0  0
  5  7  2  0  0  0  0
  5  2  1  0  0  0  0
  6  2  1  0  0  0  0
  6 11  1  1  0  0  0
  8 10  1  0  0  0  0
  9  6  1  0  0  0  0
 10  5  1  0  0  0  0
 11 19  1  0  0  0  0
 12 16  2  0  0  0  0
 13 17  2  0  0  0  0
 13 21  1  0  0  0  0
 14 11  2  0  0  0  0
 14 12  1  0  0  0  0
 15 17  1  0  0  0  0
 16 18  1  0  0  0  0
 16 15  1  0  0  0  0
 18 13  1  0  0  0  0
 19 18  2  0  0  0  0
 21 20  1  0  0  0  0
 23 22  1  1  0  0  0
 23 27  1  0  0  0  0
 23 26  1  0  0  0  0
 26 28  1  0  0  0  0
 26 25  1  1  0  0  0
 27 24  1  1  0  0  0
 27 26  1  0  0  0  0
 28 29  1  0  0  0  0
M  END
>  <MODEL>
1

>  <REMARK>
 VINA RESULT:      -8.8      0.000      0.000
  Name = 
  5 active torsions:
  status: ('A' for Active; 'I' for Inactive)
    1  A    between atoms: C_1  and  C_11
    2  A    between atoms: C_2  and  C_20
    3  A    between atoms: C_5  and  O_26
    4  A    between atoms: C_8  and  O_19
    5  A    between atoms: C_10  and  O_26
                            x       y       z     vdW  Elec       q    Type
                         _______ _______ _______ _____ _____    ______ ____

>  <TORSDO>
F 5

$$$$
=
 OpenBabel10232412323D

 29 32  0  0  1  0  0  0  0  0999 V2000
  187.6180  177.5850  137.7850 C   0  0  0  0  0  1  0  0  0  0  0  0
  188.8000  177.6160  142.0860 C   0  0  2  0  0  3  0  0  0  0  0  0
  187.8330  178.3700  139.0640 C   0  0  2  0  0  3  0  0  0  0  0  0
  189.3330  178.6370  139.2710 C   0  0  0  0  0  2  0  0  0  0  0  0
  189.7620  176.9540  141.1280 C   0  0  0  0  0  0  0  0  0  0  0  0
  187.5940  178.3090  141.4310 C   0  0  1  0  0  3  0  0  0  0  0  0
  190.3720  175.9240  141.5260 O   0  0  0  0  0  0  0  0  0  0  0  0
  191.0520  176.8570  138.9770 C   0  0  0  0  0  1  0  0  0  0  0  0
  187.2170  177.6530  140.1830 N   0  0  0  0  0  2  0  0  0  0  0  0
  190.0250  177.4680  139.8070 N   0  0  0  0  0  0  0  0  0  0  0  0
  186.4290  178.3740  142.3670 C   0  0  0  0  0  0  0  0  0  0  0  0
  185.5170  178.3280  144.6500 C   0  0  0  0  0  3  0  0  0  0  0  0
  182.7450  178.8900  142.5860 C   0  0  0  0  0  0  0  0  0  0  0  0
  186.6120  178.2390  143.7680 C   0  0  0  0  0  3  0  0  0  0  0  0
  183.0840  178.6680  144.7280 N   0  0  0  0  0  2  0  0  0  0  0  0
  184.2630  178.5520  144.0900 C   0  0  0  0  0  0  0  0  0  0  0  0
  182.1500  178.8760  143.8020 N   0  0  0  0  0  0  0  0  0  0  0  0
  184.0890  178.6830  142.7430 C   0  0  0  0  0  0  0  0  0  0  0  0
  185.1440  178.6060  141.8390 C   0  0  0  0  0  3  0  0  0  0  0  0
  181.7190  177.9830  140.5520 C   0  0  0  0  0  1  0  0  0  0  0  0
  182.0840  179.0800  141.3750 O   0  0  0  0  0  0  0  0  0  0  0  0
  189.4880  178.5180  142.9020 O   0  0  0  0  0  0  0  0  0  0  0  0
  190.6700  177.8510  143.2550 C   0  0  2  0  0  3  0  0  0  0  0  0
  191.1330  180.0630  144.1480 O   0  0  0  0  0  1  0  0  0  0  0  0
  189.7530  178.2820  145.5200 O   0  0  0  0  0  1  0  0  0  0  0  0
  190.8080  177.7570  144.7620 C   0  0  2  0  0  0  0  0  0  0  0  0
  191.6500  178.7700  144.0070 C   0  0  1  0  0  3  0  0  0  0  0  0
  191.5440  176.5440  145.2990 C   0  0  0  0  0  2  0  0  0  0  0  0
  191.4050  176.4710  146.8080 C   0  0  0  0  0  1  0  0  0  0  0  0
  2 22  1  6  0  0  0
  3  1  1  6  0  0  0
  3  4  1  0  0  0  0
  3  9  1  0  0  0  0
  4 10  1  0  0  0  0
  5  7  2  0  0  0  0
  5  2  1  0  0  0  0
  6  2  1  0  0  0  0
  6 11  1  1  0  0  0
  8 10  1  0  0  0  0
  9  6  1  0  0  0  0
 10  5  1  0  0  0  0
 11 14  1  0  0  0  0
 13 18  1  0  0  0  0
 13 17  2  0  0  0  0
 14 12  2  0  0  0  0
 16 12  1  0  0  0  0
 16 15  1  0  0  0  0
 17 15  1  0  0  0  0
 18 16  2  0  0  0  0
 19 11  2  0  0  0  0
 19 18  1  0  0  0  0
 20 21  1  0  0  0  0
 21 13  1  0  0  0  0
 23 22  1  1  0  0  0
 23 27  1  0  0  0  0
 23 26  1  0  0  0  0
 26 28  1  0  0  0  0
 26 25  1  1  0  0  0
 27 24  1  1  0  0  0
 27 26  1  0  0  0  0
 28 29  1  0  0  0  0
M  END
>  <MODEL>
2

>  <REMARK>
 VINA RESULT:      -8.0      1.745      2.720
  Name = 
  5 active torsions:
  status: ('A' for Active; 'I' for Inactive)
    1  A    between atoms: C_1  and  C_11
    2  A    between atoms: C_2  and  C_20
    3  A    between atoms: C_5  and  O_26
    4  A    between atoms: C_8  and  O_19
    5  A    between atoms: C_10  and  O_26
                            x       y       z     vdW  Elec       q    Type
                         _______ _______ _______ _____ _____    ______ ____

>  <TORSDO>
F 5

$$$$
=
 OpenBabel10232412323D

 29 32  0  0  1  0  0  0  0  0999 V2000
  187.5830  178.1900  136.6340 C   0  0  0  0  0  1  0  0  0  0  0  0
  188.6090  177.6410  140.9400 C   0  0  2  0  0  3  0  0  0  0  0  0
  187.8300  178.8080  137.9960 C   0  0  2  0  0  3  0  0  0  0  0  0
  189.3410  178.8960  138.2680 C   0  0  0  0  0  2  0  0  0  0  0  0
  189.5350  176.9890  139.9380 C   0  0  0  0  0  0  0  0  0  0  0  0
  187.5030  178.5200  140.3360 C   0  0  1  0  0  3  0  0  0  0  0  0
  190.0240  175.8650  140.2360 O   0  0  0  0  0  0  0  0  0  0  0  0
  190.8830  176.9900  137.8220 C   0  0  0  0  0  1  0  0  0  0  0  0
  187.1060  178.0430  139.0140 N   0  0  0  0  0  2  0  0  0  0  0  0
  189.8940  177.6120  138.6880 N   0  0  0  0  0  0  0  0  0  0  0  0
  186.3180  178.6050  141.2450 C   0  0  0  0  0  0  0  0  0  0  0  0
  183.8830  178.6600  141.5810 C   0  0  0  0  0  3  0  0  0  0  0  0
  185.2380  178.7590  144.8080 C   0  0  0  0  0  0  0  0  0  0  0  0
  184.9980  178.6070  140.7230 C   0  0  0  0  0  3  0  0  0  0  0  0
  183.2340  178.7670  143.9490 N   0  0  0  0  0  2  0  0  0  0  0  0
  184.1320  178.7080  142.9490 C   0  0  0  0  0  0  0  0  0  0  0  0
  183.9150  178.7980  145.0930 N   0  0  0  0  0  0  0  0  0  0  0  0
  185.4020  178.7050  143.4500 C   0  0  0  0  0  0  0  0  0  0  0  0
  186.5290  178.6490  142.6370 C   0  0  0  0  0  3  0  0  0  0  0  0
  186.0370  178.3590  147.0920 C   0  0  0  0  0  1  0  0  0  0  0  0
  186.2610  178.7770  145.7540 O   0  0  0  0  0  0  0  0  0  0  0  0
  189.3550  178.3750  141.8660 O   0  0  0  0  0  0  0  0  0  0  0  0
  189.4320  177.5510  142.9980 C   0  0  2  0  0  3  0  0  0  0  0  0
  191.7870  177.7260  142.4250 O   0  0  0  0  0  1  0  0  0  0  0  0
  190.5800  179.5650  143.8820 O   0  0  0  0  0  1  0  0  0  0  0  0
  190.1640  178.2490  144.1270 C   0  0  2  0  0  0  0  0  0  0  0  0
  190.8840  177.1690  143.3380 C   0  0  1  0  0  3  0  0  0  0  0  0
  189.7440  177.8790  145.5370 C   0  0  0  0  0  2  0  0  0  0  0  0
  190.7830  176.9760  146.1740 C   0  0  0  0  0  1  0  0  0  0  0  0
  2 22  1  1  0  0  0
  3  1  1  6  0  0  0
  3  4  1  0  0  0  0
  3  9  1  0  0  0  0
  4 10  1  0  0  0  0
  5  7  2  0  0  0  0
  5  2  1  0  0  0  0
  6  2  1  0  0  0  0
  6 11  1  1  0  0  0
  8 10  1  0  0  0  0
  9  6  1  0  0  0  0
 10  5  1  0  0  0  0
 11 19  1  0  0  0  0
 12 16  2  0  0  0  0
 13 17  2  0  0  0  0
 13 21  1  0  0  0  0
 14 11  2  0  0  0  0
 14 12  1  0  0  0  0
 15 17  1  0  0  0  0
 16 18  1  0  0  0  0
 16 15  1  0  0  0  0
 18 13  1  0  0  0  0
 19 18  2  0  0  0  0
 21 20  1  0  0  0  0
 23 22  1  6  0  0  0
 23 27  1  0  0  0  0
 23 26  1  0  0  0  0
 26 25  1  6  0  0  0
 26 28  1  0  0  0  0
 27 24  1  6  0  0  0
 27 26  1  0  0  0  0
 28 29  1  0  0  0  0
M  END
>  <MODEL>
3

>  <REMARK>
 VINA RESULT:      -7.6      1.294      1.652
  Name = 
  5 active torsions:
  status: ('A' for Active; 'I' for Inactive)
    1  A    between atoms: C_1  and  C_11
    2  A    between atoms: C_2  and  C_20
    3  A    between atoms: C_5  and  O_26
    4  A    between atoms: C_8  and  O_19
    5  A    between atoms: C_10  and  O_26
                            x       y       z     vdW  Elec       q    Type
                         _______ _______ _______ _____ _____    ______ ____

>  <TORSDO>
F 5

$$$$
=
 OpenBabel10232412323D

 29 32  0  0  1  0  0  0  0  0999 V2000
  191.6070  176.8410  145.2530 C   0  0  0  0  0  1  0  0  0  0  0  0
  187.7920  177.4540  143.0230 C   0  0  2  0  0  3  0  0  0  0  0  0
  190.7480  177.7290  144.3750 C   0  0  2  0  0  3  0  0  0  0  0  0
  189.6620  178.4140  145.2210 C   0  0  0  0  0  2  0  0  0  0  0  0
  187.6670  177.0300  144.4680 C   0  0  0  0  0  0  0  0  0  0  0  0
  189.2240  177.7450  142.5460 C   0  0  1  0  0  3  0  0  0  0  0  0
  186.7350  176.2350  144.7680 O   0  0  0  0  0  0  0  0  0  0  0  0
  188.2990  177.1670  146.8930 C   0  0  0  0  0  1  0  0  0  0  0  0
  190.2010  176.9370  143.2710 N   0  0  0  0  0  2  0  0  0  0  0  0
  188.5450  177.5180  145.5030 N   0  0  0  0  0  0  0  0  0  0  0  0
  189.3590  177.5400  141.0700 C   0  0  0  0  0  0  0  0  0  0  0  0
  190.5950  176.6490  139.1420 C   0  0  0  0  0  3  0  0  0  0  0  0
  187.7040  178.0740  137.7750 C   0  0  0  0  0  0  0  0  0  0  0  0
  190.4830  176.8640  140.5290 C   0  0  0  0  0  3  0  0  0  0  0  0
  189.4570  177.0360  136.9980 N   0  0  0  0  0  2  0  0  0  0  0  0
  189.5640  177.1220  138.3370 C   0  0  0  0  0  0  0  0  0  0  0  0
  188.3120  177.6220  136.6530 N   0  0  0  0  0  0  0  0  0  0  0  0
  188.4830  177.7710  138.8590 C   0  0  0  0  0  0  0  0  0  0  0  0
  188.3320  178.0000  140.2230 C   0  0  0  0  0  3  0  0  0  0  0  0
  185.2520  178.0380  137.7750 C   0  0  0  0  0  1  0  0  0  0  0  0
  186.4830  178.7440  137.8080 O   0  0  0  0  0  0  0  0  0  0  0  0
  186.9710  178.5590  142.7810 O   0  0  0  0  0  0  0  0  0  0  0  0
  185.6690  178.0380  142.7570 C   0  0  2  0  0  3  0  0  0  0  0  0
  185.2320  180.2720  143.6090 O   0  0  0  0  0  1  0  0  0  0  0  0
  185.4370  179.7970  141.0220 O   0  0  0  0  0  1  0  0  0  0  0  0
  184.8060  178.7870  141.7600 C   0  0  2  0  0  0  0  0  0  0  0  0
  184.6280  179.0630  143.2430 C   0  0  1  0  0  3  0  0  0  0  0  0
  183.7010  177.9910  141.0920 C   0  0  0  0  0  2  0  0  0  0  0  0
  182.3450  178.5580  141.4680 C   0  0  0  0  0  1  0  0  0  0  0  0
  2 22  1  1  0  0  0
  2  5  1  0  0  0  0
  3  4  1  0  0  0  0
  3  1  1  1  0  0  0
  4 10  1  0  0  0  0
  5  7  2  0  0  0  0
  5 10  1  0  0  0  0
  6 11  1  6  0  0  0
  6  2  1  0  0  0  0
  6  9  1  0  0  0  0
  9  3  1  0  0  0  0
 10  8  1  0  0  0  0
 12 14  2  0  0  0  0
 13 21  1  0  0  0  0
 13 18  1  0  0  0  0
 14 11  1  0  0  0  0
 15 16  1  0  0  0  0
 16 18  2  0  0  0  0
 16 12  1  0  0  0  0
 17 15  1  0  0  0  0
 17 13  2  0  0  0  0
 18 19  1  0  0  0  0
 19 11  2  0  0  0  0
 20 21  1  0  0  0  0
 23 22  1  6  0  0  0
 23 27  1  0  0  0  0
 26 25  1  6  0  0  0
 26 23  1  0  0  0  0
 26 27  1  0  0  0  0
 27 24  1  6  0  0  0
 28 29  1  0  0  0  0
 28 26  1  0  0  0  0
M  END
>  <MODEL>
4

>  <REMARK>
 VINA RESULT:      -7.5      2.546      7.087
  Name = 
  5 active torsions:
  status: ('A' for Active; 'I' for Inactive)
    1  A    between atoms: C_1  and  C_11
    2  A    between atoms: C_2  and  C_20
    3  A    between atoms: C_5  and  O_26
    4  A    between atoms: C_8  and  O_19
    5  A    between atoms: C_10  and  O_26
                            x       y       z     vdW  Elec       q    Type
                         _______ _______ _______ _____ _____    ______ ____

>  <TORSDO>
F 5

$$$$
=
 OpenBabel10232412323D

 29 32  0  0  1  0  0  0  0  0999 V2000
  191.6280  177.2060  142.1260 C   0  0  0  0  0  1  0  0  0  0  0  0
  187.7190  178.3400  140.3010 C   0  0  2  0  0  3  0  0  0  0  0  0
  190.1890  176.8440  141.8180 C   0  0  2  0  0  3  0  0  0  0  0  0
  190.0610  176.3990  140.3520 C   0  0  0  0  0  2  0  0  0  0  0  0
  188.9410  178.4840  139.4220 C   0  0  0  0  0  0  0  0  0  0  0  0
  187.9710  177.6960  141.6740 C   0  0  1  0  0  3  0  0  0  0  0  0
  188.9810  179.4640  138.6290 O   0  0  0  0  0  0  0  0  0  0  0  0
  191.1190  177.6640  138.4840 C   0  0  0  0  0  1  0  0  0  0  0  0
  189.3210  177.9760  142.1530 N   0  0  0  0  0  2  0  0  0  0  0  0
  190.0290  177.5380  139.4380 N   0  0  0  0  0  0  0  0  0  0  0  0
  186.9520  178.1370  142.6760 C   0  0  0  0  0  0  0  0  0  0  0  0
  184.8330  179.2590  143.2160 C   0  0  0  0  0  3  0  0  0  0  0  0
  186.0070  178.0350  146.2790 C   0  0  0  0  0  0  0  0  0  0  0  0
  185.8040  178.8680  142.2750 C   0  0  0  0  0  3  0  0  0  0  0  0
  184.2670  179.1630  145.6060 N   0  0  0  0  0  2  0  0  0  0  0  0
  185.0470  178.8980  144.5430 C   0  0  0  0  0  0  0  0  0  0  0  0
  184.8570  178.6310  146.6740 N   0  0  0  0  0  0  0  0  0  0  0  0
  186.1520  178.1940  144.9270 C   0  0  0  0  0  0  0  0  0  0  0  0
  187.1320  177.7860  144.0280 C   0  0  0  0  0  3  0  0  0  0  0  0
  187.7470  178.0870  148.0070 C   0  0  0  0  0  1  0  0  0  0  0  0
  186.8950  177.3730  147.1230 O   0  0  0  0  0  0  0  0  0  0  0  0
  186.7230  177.6400  139.6160 O   0  0  0  0  0  0  0  0  0  0  0  0
  186.0470  178.6160  138.8700 C   0  0  2  0  0  3  0  0  0  0  0  0
  185.4560  176.6190  137.6160 O   0  0  0  0  0  1  0  0  0  0  0  0
  184.1000  177.3590  139.7550 O   0  0  0  0  0  1  0  0  0  0  0  0
  184.5470  178.4110  138.9450 C   0  0  2  0  0  0  0  0  0  0  0  0
  185.2830  178.0070  137.6790 C   0  0  1  0  0  3  0  0  0  0  0  0
  183.6890  179.6590  138.8500 C   0  0  0  0  0  2  0  0  0  0  0  0
  182.3780  179.4520  139.5830 C   0  0  0  0  0  1  0  0  0  0  0  0
  2 22  1  6  0  0  0
  2  6  1  0  0  0  0
  3  1  1  6  0  0  0
  3  9  1  0  0  0  0
  4  3  1  0  0  0  0
  5 10  1  0  0  0  0
  5  2  1  0  0  0  0
  6  9  1  0  0  0  0
  6 11  1  1  0  0  0
  7  5  2  0  0  0  0
  8 10  1  0  0  0  0
 10  4  1  0  0  0  0
 11 19  1  0  0  0  0
 12 16  2  0  0  0  0
 13 17  2  0  0  0  0
 13 21  1  0  0  0  0
 14 11  2  0  0  0  0
 14 12  1  0  0  0  0
 15 17  1  0  0  0  0
 16 18  1  0  0  0  0
 16 15  1  0  0  0  0
 18 13  1  0  0  0  0
 19 18  2  0  0  0  0
 21 20  1  0  0  0  0
 23 26  1  0  0  0  0
 23 22  1  1  0  0  0
 26 25  1  1  0  0  0
 27 24  1  1  0  0  0
 27 23  1  0  0  0  0
 27 26  1  0  0  0  0
 28 26  1  0  0  0  0
 28 29  1  0  0  0  0
M  END
>  <MODEL>
5

>  <REMARK>
 VINA RESULT:      -7.3      2.574      5.095
  Name = 
  5 active torsions:
  status: ('A' for Active; 'I' for Inactive)
    1  A    between atoms: C_1  and  C_11
    2  A    between atoms: C_2  and  C_20
    3  A    between atoms: C_5  and  O_26
    4  A    between atoms: C_8  and  O_19
    5  A    between atoms: C_10  and  O_26
                            x       y       z     vdW  Elec       q    Type
                         _______ _______ _______ _____ _____    ______ ____

>  <TORSDO>
F 5

$$$$
=
 OpenBabel10232412323D

 29 32  0  0  1  0  0  0  0  0999 V2000
  184.4810  178.6090  146.2220 C   0  0  0  0  0  1  0  0  0  0  0  0
  184.6600  178.2530  141.7790 C   0  0  2  0  0  3  0  0  0  0  0  0
  184.9690  179.1600  144.8970 C   0  0  2  0  0  3  0  0  0  0  0  0
  183.8310  179.9130  144.1890 C   0  0  0  0  0  2  0  0  0  0  0  0
  183.2870  178.1850  142.4060 C   0  0  0  0  0  0  0  0  0  0  0  0
  185.8100  178.5670  142.7500 C   0  0  1  0  0  3  0  0  0  0  0  0
  182.4470  177.3940  141.8950 O   0  0  0  0  0  0  0  0  0  0  0  0
  181.5290  178.9770  144.0120 C   0  0  0  0  0  1  0  0  0  0  0  0
  185.5240  178.0690  144.0930 N   0  0  0  0  0  2  0  0  0  0  0  0
  182.9010  179.0010  143.5310 N   0  0  0  0  0  0  0  0  0  0  0  0
  187.1100  178.0230  142.2500 C   0  0  0  0  0  0  0  0  0  0  0  0
  189.0480  176.5360  142.5210 C   0  0  0  0  0  3  0  0  0  0  0  0
  189.5290  178.0840  139.4170 C   0  0  0  0  0  0  0  0  0  0  0  0
  187.8380  177.0670  143.0060 C   0  0  0  0  0  3  0  0  0  0  0  0
  190.6100  176.6240  140.6240 N   0  0  0  0  0  2  0  0  0  0  0  0
  189.4910  176.9840  141.2800 C   0  0  0  0  0  0  0  0  0  0  0  0
  190.6330  177.3010  139.4780 N   0  0  0  0  0  0  0  0  0  0  0  0
  188.7890  177.9020  140.5540 C   0  0  0  0  0  0  0  0  0  0  0  0
  187.5880  178.4480  140.9960 C   0  0  0  0  0  3  0  0  0  0  0  0
  188.9790  178.4400  137.0540 C   0  0  0  0  0  1  0  0  0  0  0  0
  189.2120  178.9380  138.3630 O   0  0  0  0  0  0  0  0  0  0  0  0
  184.6550  179.1720  140.7260 O   0  0  0  0  0  0  0  0  0  0  0  0
  183.7110  178.6720  139.8190 C   0  0  2  0  0  3  0  0  0  0  0  0
  184.1370  180.8570  138.8460 O   0  0  0  0  0  1  0  0  0  0  0  0
  185.6900  178.7880  138.3260 O   0  0  0  0  0  1  0  0  0  0  0  0
  184.3260  178.4900  138.4450 C   0  0  2  0  0  0  0  0  0  0  0  0
  183.4060  179.6740  138.6900 C   0  0  1  0  0  3  0  0  0  0  0  0
  183.7590  177.3690  137.5940 C   0  0  0  0  0  2  0  0  0  0  0  0
  183.2070  176.2670  138.4790 C   0  0  0  0  0  1  0  0  0  0  0  0
  2 22  1  6  0  0  0
  2  5  1  0  0  0  0
  2  6  1  0  0  0  0
  3  1  1  1  0  0  0
  4  3  1  0  0  0  0
  5 10  1  0  0  0  0
  6 11  1  6  0  0  0
  6  9  1  0  0  0  0
  7  5  2  0  0  0  0
  9  3  1  0  0  0  0
 10  8  1  0  0  0  0
 10  4  1  0  0  0  0
 11 14  1  0  0  0  0
 12 14  2  0  0  0  0
 13 17  2  0  0  0  0
 13 18  1  0  0  0  0
 15 16  1  0  0  0  0
 16 12  1  0  0  0  0
 17 15  1  0  0  0  0
 18 19  1  0  0  0  0
 18 16  2  0  0  0  0
 19 11  2  0  0  0  0
 20 21  1  0  0  0  0
 21 13  1  0  0  0  0
 23 22  1  1  0  0  0
 26 25  1  6  0  0  0
 26 27  1  0  0  0  0
 26 23  1  0  0  0  0
 27 24  1  1  0  0  0
 27 23  1  0  0  0  0
 28 26  1  0  0  0  0
 28 29  1  0  0  0  0
M  END
>  <MODEL>
6

>  <REMARK>
 VINA RESULT:      -7.3      3.301      7.800
  Name = 
  5 active torsions:
  status: ('A' for Active; 'I' for Inactive)
    1  A    between atoms: C_1  and  C_11
    2  A    between atoms: C_2  and  C_20
    3  A    between atoms: C_5  and  O_26
    4  A    between atoms: C_8  and  O_19
    5  A    between atoms: C_10  and  O_26
                            x       y       z     vdW  Elec       q    Type
                         _______ _______ _______ _____ _____    ______ ____

>  <TORSDO>
F 5

$$$$
=
 OpenBabel10232412323D

 29 32  0  0  1  0  0  0  0  0999 V2000
  180.6460  179.1150  139.9810 C   0  0  0  0  0  1  0  0  0  0  0  0
  184.9340  178.0050  139.4540 C   0  0  2  0  0  3  0  0  0  0  0  0
  182.1050  179.5250  140.0250 C   0  0  2  0  0  3  0  0  0  0  0  0
  182.6210  179.7860  138.6000 C   0  0  0  0  0  2  0  0  0  0  0  0
  184.0070  177.6750  138.3070 C   0  0  0  0  0  0  0  0  0  0  0  0
  184.2980  178.8010  140.6050 C   0  0  1  0  0  3  0  0  0  0  0  0
  184.2110  176.6010  137.6780 O   0  0  0  0  0  0  0  0  0  0  0  0
  182.1510  178.2300  136.7120 C   0  0  0  0  0  1  0  0  0  0  0  0
  182.8750  178.5010  140.7360 N   0  0  0  0  0  2  0  0  0  0  0  0
  182.9320  178.5450  137.8980 N   0  0  0  0  0  0  0  0  0  0  0  0
  185.0120  178.5570  141.8960 C   0  0  0  0  0  0  0  0  0  0  0  0
  185.0390  178.5540  144.3540 C   0  0  0  0  0  3  0  0  0  0  0  0
  188.1790  177.3180  143.4190 C   0  0  0  0  0  0  0  0  0  0  0  0
  184.3750  178.8100  143.1390 C   0  0  0  0  0  3  0  0  0  0  0  0
  187.1540  177.7320  145.2990 N   0  0  0  0  0  2  0  0  0  0  0  0
  186.3320  178.0460  144.2800 C   0  0  0  0  0  0  0  0  0  0  0  0
  188.2900  177.2840  144.7680 N   0  0  0  0  0  0  0  0  0  0  0  0
  186.9430  177.8020  143.0840 C   0  0  0  0  0  0  0  0  0  0  0  0
  186.3210  178.0380  141.8620 C   0  0  0  0  0  3  0  0  0  0  0  0
  190.1030  175.9060  142.8550 C   0  0  0  0  0  1  0  0  0  0  0  0
  189.1720  176.9260  142.5240 O   0  0  0  0  0  0  0  0  0  0  0  0
  186.0630  178.6740  138.9720 O   0  0  0  0  0  0  0  0  0  0  0  0
  186.8640  177.6690  138.4130 C   0  0  2  0  0  3  0  0  0  0  0  0
  187.4380  179.5380  136.9710 O   0  0  0  0  0  1  0  0  0  0  0  0
  188.6400  179.1630  139.2890 O   0  0  0  0  0  1  0  0  0  0  0  0
  188.3350  177.9910  138.5840 C   0  0  2  0  0  0  0  0  0  0  0  0
  187.6920  178.1850  137.2220 C   0  0  1  0  0  3  0  0  0  0  0  0
  189.2750  176.8080  138.7170 C   0  0  0  0  0  2  0  0  0  0  0  0
  190.5820  177.2450  139.3500 C   0  0  0  0  0  1  0  0  0  0  0  0
  2 22  1  6  0  0  0
  2  6  1  0  0  0  0
  3  1  1  6  0  0  0
  3  9  1  0  0  0  0
  4  3  1  0  0  0  0
  5  2  1  0  0  0  0
  6  9  1  0  0  0  0
  6 11  1  1  0  0  0
  7  5  2  0  0  0  0
  8 10  1  0  0  0  0
 10  5  1  0  0  0  0
 10  4  1  0  0  0  0
 11 14  1  0  0  0  0
 13 17  2  0  0  0  0
 14 12  2  0  0  0  0
 16 12  1  0  0  0  0
 16 15  1  0  0  0  0
 17 15  1  0  0  0  0
 18 13  1  0  0  0  0
 18 16  2  0  0  0  0
 19 11  2  0  0  0  0
 19 18  1  0  0  0  0
 21 20  1  0  0  0  0
 21 13  1  0  0  0  0
 23 26  1  0  0  0  0
 23 22  1  1  0  0  0
 26 28  1  0  0  0  0
 26 25  1  1  0  0  0
 27 24  1  1  0  0  0
 27 23  1  0  0  0  0
 27 26  1  0  0  0  0
 28 29  1  0  0  0  0
M  END
>  <MODEL>
7

>  <REMARK>
 VINA RESULT:      -7.3      3.477      5.773
  Name = 
  5 active torsions:
  status: ('A' for Active; 'I' for Inactive)
    1  A    between atoms: C_1  and  C_11
    2  A    between atoms: C_2  and  C_20
    3  A    between atoms: C_5  and  O_26
    4  A    between atoms: C_8  and  O_19
    5  A    between atoms: C_10  and  O_26
                            x       y       z     vdW  Elec       q    Type
                         _______ _______ _______ _____ _____    ______ ____

>  <TORSDO>
F 5

$$$$
=
 OpenBabel10232412323D

 29 32  0  0  1  0  0  0  0  0999 V2000
  191.8210  177.0790  144.4380 C   0  0  0  0  0  1  0  0  0  0  0  0
  187.8610  177.5040  142.4300 C   0  0  2  0  0  3  0  0  0  0  0  0
  190.8760  177.9200  143.6030 C   0  0  2  0  0  3  0  0  0  0  0  0
  189.8130  178.5700  144.5050 C   0  0  0  0  0  2  0  0  0  0  0  0
  187.8380  177.0940  143.8840 C   0  0  0  0  0  0  0  0  0  0  0  0
  189.2490  177.8490  141.8670 C   0  0  1  0  0  3  0  0  0  0  0  0
  186.9600  176.2650  144.2470 O   0  0  0  0  0  0  0  0  0  0  0  0
  188.6040  177.2890  146.2660 C   0  0  0  0  0  1  0  0  0  0  0  0
  190.3000  177.0920  142.5410 N   0  0  0  0  0  2  0  0  0  0  0  0
  188.7540  177.6310  144.8610 N   0  0  0  0  0  0  0  0  0  0  0  0
  189.3060  177.6300  140.3880 C   0  0  0  0  0  0  0  0  0  0  0  0
  188.6060  178.2370  138.1110 C   0  0  0  0  0  3  0  0  0  0  0  0
  190.9140  175.6390  137.6800 C   0  0  0  0  0  0  0  0  0  0  0  0
  188.5320  178.4270  139.5040 C   0  0  0  0  0  3  0  0  0  0  0  0
  189.6960  176.8860  136.3700 N   0  0  0  0  0  2  0  0  0  0  0  0
  189.4660  177.2460  137.6460 C   0  0  0  0  0  0  0  0  0  0  0  0
  190.5880  175.8970  136.3920 N   0  0  0  0  0  0  0  0  0  0  0  0
  190.2100  176.4820  138.4980 C   0  0  0  0  0  0  0  0  0  0  0  0
  190.1680  176.6400  139.8790 C   0  0  0  0  0  3  0  0  0  0  0  0
  193.1570  174.6500  137.6250 C   0  0  0  0  0  1  0  0  0  0  0  0
  191.8180  174.6640  138.0960 O   0  0  0  0  0  0  0  0  0  0  0  0
  186.9800  178.5710  142.2250 O   0  0  0  0  0  0  0  0  0  0  0  0
  185.7020  178.0050  142.3350 C   0  0  2  0  0  3  0  0  0  0  0  0
  185.2320  180.2880  143.0230 O   0  0  0  0  0  1  0  0  0  0  0  0
  185.2860  179.5970  140.4770 O   0  0  0  0  0  1  0  0  0  0  0  0
  184.7460  178.6340  141.3400 C   0  0  2  0  0  0  0  0  0  0  0  0
  184.6540  179.0320  142.8030 C   0  0  1  0  0  3  0  0  0  0  0  0
  183.6320  177.7450  140.8190 C   0  0  0  0  0  2  0  0  0  0  0  0
  182.2820  178.3770  141.0990 C   0  0  0  0  0  1  0  0  0  0  0  0
  2 22  1  1  0  0  0
  2  5  1  0  0  0  0
  3  1  1  1  0  0  0
  3  4  1  0  0  0  0
  4 10  1  0  0  0  0
  5  7  2  0  0  0  0
  5 10  1  0  0  0  0
  6 11  1  6  0  0  0
  6  2  1  0  0  0  0
  6  9  1  0  0  0  0
  9  3  1  0  0  0  0
 10  8  1  0  0  0  0
 12 14  1  0  0  0  0
 13 21  1  0  0  0  0
 13 18  1  0  0  0  0
 14 11  2  0  0  0  0
 15 17  1  0  0  0  0
 15 16  1  0  0  0  0
 16 12  2  0  0  0  0
 16 18  1  0  0  0  0
 17 13  2  0  0  0  0
 18 19  2  0  0  0  0
 19 11  1  0  0  0  0
 20 21  1  0  0  0  0
 23 22  1  6  0  0  0
 23 27  1  0  0  0  0
 26 25  1  6  0  0  0
 26 23  1  0  0  0  0
 26 27  1  0  0  0  0
 27 24  1  6  0  0  0
 28 29  1  0  0  0  0
 28 26  1  0  0  0  0
M  END
>  <MODEL>
8

>  <REMARK>
 VINA RESULT:      -7.2      2.603      7.378
  Name = 
  5 active torsions:
  status: ('A' for Active; 'I' for Inactive)
    1  A    between atoms: C_1  and  C_11
    2  A    between atoms: C_2  and  C_20
    3  A    between atoms: C_5  and  O_26
    4  A    between atoms: C_8  and  O_19
    5  A    between atoms: C_10  and  O_26
                            x       y       z     vdW  Elec       q    Type
                         _______ _______ _______ _____ _____    ______ ____

>  <TORSDO>
F 5

$$$$
=
 OpenBabel10232412323D

 29 32  0  0  1  0  0  0  0  0999 V2000
  188.4220  177.5560  146.9920 C   0  0  0  0  0  1  0  0  0  0  0  0
  188.6310  178.2010  142.5830 C   0  0  2  0  0  3  0  0  0  0  0  0
  188.1570  177.0370  145.5930 C   0  0  2  0  0  3  0  0  0  0  0  0
  189.4610  176.5100  144.9710 C   0  0  0  0  0  2  0  0  0  0  0  0
  189.9100  178.4230  143.3580 C   0  0  0  0  0  0  0  0  0  0  0  0
  187.4530  177.6540  143.4040 C   0  0  1  0  0  3  0  0  0  0  0  0
  190.6660  179.3620  142.9870 O   0  0  0  0  0  0  0  0  0  0  0  0
  191.6000  177.7800  145.0980 C   0  0  0  0  0  1  0  0  0  0  0  0
  187.5260  178.0910  144.7960 N   0  0  0  0  0  2  0  0  0  0  0  0
  190.3020  177.5930  144.4700 N   0  0  0  0  0  0  0  0  0  0  0  0
  186.1410  178.0390  142.7970 C   0  0  0  0  0  0  0  0  0  0  0  0
  183.7390  178.5080  143.0230 C   0  0  0  0  0  3  0  0  0  0  0  0
  184.4550  179.0920  139.6450 C   0  0  0  0  0  0  0  0  0  0  0  0
  184.9670  178.1200  143.5910 C   0  0  0  0  0  3  0  0  0  0  0  0
  182.6820  179.1920  140.9120 N   0  0  0  0  0  2  0  0  0  0  0  0
  183.7290  178.8070  141.6640 C   0  0  0  0  0  0  0  0  0  0  0  0
  183.1300  179.3680  139.6700 N   0  0  0  0  0  0  0  0  0  0  0  0
  184.8590  178.7300  140.9020 C   0  0  0  0  0  0  0  0  0  0  0  0
  186.0930  178.3540  141.4260 C   0  0  0  0  0  3  0  0  0  0  0  0
  185.4630  178.0370  137.6750 C   0  0  0  0  0  1  0  0  0  0  0  0
  185.2660  179.1640  138.5160 O   0  0  0  0  0  0  0  0  0  0  0  0
  188.8800  177.3710  141.4870 O   0  0  0  0  0  0  0  0  0  0  0  0
  189.4420  178.2160  140.5190 C   0  0  2  0  0  3  0  0  0  0  0  0
  190.6650  176.1640  140.0720 O   0  0  0  0  0  1  0  0  0  0  0  0
  188.2810  176.6050  139.0300 O   0  0  0  0  0  1  0  0  0  0  0  0
  189.1060  177.7350  139.1210 C   0  0  2  0  0  0  0  0  0  0  0  0
  190.5030  177.4940  139.6670 C   0  0  1  0  0  3  0  0  0  0  0  0
  188.9820  178.8020  138.0500 C   0  0  0  0  0  2  0  0  0  0  0  0
  189.0300  178.1710  136.6720 C   0  0  0  0  0  1  0  0  0  0  0  0
  2 22  1  6  0  0  0
  2  5  1  0  0  0  0
  2  6  1  0  0  0  0
  3  1  1  1  0  0  0
  4  3  1  0  0  0  0
  5 10  1  0  0  0  0
  6 11  1  6  0  0  0
  6  9  1  0  0  0  0
  7  5  2  0  0  0  0
  9  3  1  0  0  0  0
 10  4  1  0  0  0  0
 10  8  1  0  0  0  0
 11 14  1  0  0  0  0
 12 14  2  0  0  0  0
 13 17  2  0  0  0  0
 13 18  1  0  0  0  0
 15 16  1  0  0  0  0
 16 12  1  0  0  0  0
 17 15  1  0  0  0  0
 18 19  1  0  0  0  0
 18 16  2  0  0  0  0
 19 11  2  0  0  0  0
 20 21  1  0  0  0  0
 21 13  1  0  0  0  0
 23 22  1  1  0  0  0
 26 25  1  6  0  0  0
 26 27  1  0  0  0  0
 26 23  1  0  0  0  0
 27 24  1  1  0  0  0
 27 23  1  0  0  0  0
 28 26  1  0  0  0  0
 29 28  1  0  0  0  0
M  END
>  <MODEL>
9

>  <REMARK>
 VINA RESULT:      -7.2      2.534      5.739
  Name = 
  5 active torsions:
  status: ('A' for Active; 'I' for Inactive)
    1  A    between atoms: C_1  and  C_11
    2  A    between atoms: C_2  and  C_20
    3  A    between atoms: C_5  and  O_26
    4  A    between atoms: C_8  and  O_19
    5  A    between atoms: C_10  and  O_26
                            x       y       z     vdW  Elec       q    Type
                         _______ _______ _______ _____ _____    ______ ____

>  <TORSDO>
F 5

$$$$
