=
 OpenBabel10232407553D

 26 31  0  0  1  0  0  0  0  0999 V2000
  187.7080  177.4840  142.3710 C   0  0  1  0  0  3  0  0  0  0  0  0
  187.8910  177.7920  139.7200 C   0  0  2  0  0  3  0  0  0  0  0  0
  189.1400  177.2730  142.3590 N   0  0  0  0  0  0  0  0  0  0  0  0
  186.8880  177.5850  143.4210 C   0  0  0  0  0  2  0  0  0  0  0  0
  188.8050  178.5130  140.5020 C   0  0  2  0  0  0  0  0  0  0  0  0
  188.8410  178.6930  139.0090 C   0  0  1  0  0  3  0  0  0  0  0  0
  189.7490  177.6440  141.1450 O   0  0  0  0  0  0  0  0  0  0  0  0
  187.5950  178.0870  141.1630 N   0  0  2  0  0  0  0  0  0  0  0  0
  192.2740  176.0970  146.9450 N   0  0  0  0  0  0  0  0  0  0  0  0
  190.5200  177.4540  147.2430 C   0  0  0  0  0  3  0  0  0  0  0  0
  189.5430  177.5820  144.8790 C   0  0  0  0  0  3  0  0  0  0  0  0
  191.0050  176.1660  143.3940 C   0  0  0  0  0  3  0  0  0  0  0  0
  189.9390  176.9930  143.5240 C   0  0  0  0  0  0  0  0  0  0  0  0
  191.6460  176.7710  147.8250 N   0  0  0  0  0  2  0  0  0  0  0  0
  191.8840  175.7930  144.5280 C   0  0  0  0  0  3  0  0  0  0  0  0
  190.4930  177.1640  145.9530 C   0  0  0  0  0  0  0  0  0  0  0  0
  191.5970  176.2950  145.7200 C   0  0  0  0  0  0  0  0  0  0  0  0
  181.2240  179.6470  143.4040 Cl  0  0  0  0  0  0  0  0  0  0  0  0
  183.6050  179.0060  144.5790 C   0  0  0  0  0  3  0  0  0  0  0  0
  184.7560  178.1280  142.1890 C   0  0  0  0  0  3  0  0  0  0  0  0
  184.9190  178.5280  144.5700 C   0  0  0  0  0  3  0  0  0  0  0  0
  183.4430  178.6070  142.1970 C   0  0  0  0  0  3  0  0  0  0  0  0
  185.5040  178.0890  143.3770 C   0  0  0  0  0  0  0  0  0  0  0  0
  182.8680  179.0470  143.3930 C   0  0  0  0  0  0  0  0  0  0  0  0
  189.9150  177.8730  138.3720 C   0  0  0  0  0  3  0  0  0  0  0  0
  189.7200  177.3450  137.2210 N   0  0  0  0  0  2  0  0  0  0  0  0
  1  4  1  1  0  0  0
  2  5  1  0  0  0  0
  2  8  1  0  0  0  0
  3  1  1  0  0  0  0
  3 13  1  0  0  0  0
  5  7  1  0  0  0  0
  5  8  1  0  0  0  0
  6  2  1  0  0  0  0
  6  5  1  0  0  0  0
  7  3  1  0  0  0  0
  8  1  1  0  0  0  0
  9 14  1  0  0  0  0
 10 14  1  0  0  0  0
 11 16  1  0  0  0  0
 12 13  1  0  0  0  0
 12 15  2  0  0  0  0
 13 11  2  0  0  0  0
 15 17  1  0  0  0  0
 16 10  2  0  0  0  0
 17 16  1  0  0  0  0
 17  9  2  0  0  0  0
 20 22  2  0  0  0  0
 20 23  1  0  0  0  0
 21 19  1  0  0  0  0
 22 24  1  0  0  0  0
 23  4  1  0  0  0  0
 23 21  2  0  0  0  0
 24 18  1  0  0  0  0
 24 19  2  0  0  0  0
 25  6  1  0  0  0  0
 26 25  2  0  0  0  0
M  END
>  <MODEL>
1

>  <REMARK>
 VINA RESULT:      -9.3      0.000      0.000
  Name = 
  3 active torsions:
  status: ('A' for Active; 'I' for Inactive)
    1  A    between atoms: C_4  and  C_21
    2  A    between atoms: N_12  and  C_14
    3  A    between atoms: C_17  and  C_19
                            x       y       z     vdW  Elec       q    Type
                         _______ _______ _______ _____ _____    ______ ____

>  <TORSDO>
F 3

$$$$
=
 OpenBabel10232407553D

 26 31  0  0  1  0  0  0  0  0999 V2000
  188.7640  177.8640  142.9540 C   0  0  1  0  0  3  0  0  0  0  0  0
  190.5170  177.6640  140.9440 C   0  0  2  0  0  3  0  0  0  0  0  0
  187.7510  178.0600  141.9380 N   0  0  0  0  0  0  0  0  0  0  0  0
  188.6060  177.7290  144.2740 C   0  0  0  0  0  2  0  0  0  0  0  0
  189.3450  176.9020  140.8340 C   0  0  2  0  0  0  0  0  0  0  0  0
  190.3800  176.7830  139.7500 C   0  0  1  0  0  3  0  0  0  0  0  0
  188.1910  177.7340  140.6410 O   0  0  0  0  0  0  0  0  0  0  0  0
  189.7180  177.3130  142.1670 N   0  0  2  0  0  0  0  0  0  0  0  0
  182.2460  179.0080  142.9520 N   0  0  0  0  0  0  0  0  0  0  0  0
  183.5540  178.6590  144.7340 C   0  0  0  0  0  3  0  0  0  0  0  0
  185.8470  178.3140  143.6460 C   0  0  0  0  0  3  0  0  0  0  0  0
  185.5250  178.5120  141.1550 C   0  0  0  0  0  3  0  0  0  0  0  0
  186.3530  178.2840  142.2030 C   0  0  0  0  0  0  0  0  0  0  0  0
  182.2360  178.9330  144.2240 N   0  0  0  0  0  2  0  0  0  0  0  0
  184.0740  178.7740  141.3110 C   0  0  0  0  0  3  0  0  0  0  0  0
  184.3760  178.5670  143.7020 C   0  0  0  0  0  0  0  0  0  0  0  0
  183.5810  178.7870  142.5410 C   0  0  0  0  0  0  0  0  0  0  0  0
  192.7250  175.7970  148.2270 Cl  0  0  0  0  0  0  0  0  0  0  0  0
  190.3020  176.8340  147.5080 C   0  0  0  0  0  3  0  0  0  0  0  0
  190.8800  176.7630  144.7750 C   0  0  0  0  0  3  0  0  0  0  0  0
  189.3540  177.2770  146.5810 C   0  0  0  0  0  3  0  0  0  0  0  0
  191.8280  176.3190  145.7000 C   0  0  0  0  0  3  0  0  0  0  0  0
  189.6340  177.2420  145.2100 C   0  0  0  0  0  0  0  0  0  0  0  0
  191.5380  176.3530  147.0680 C   0  0  0  0  0  0  0  0  0  0  0  0
  190.0400  177.6170  138.5580 C   0  0  0  0  0  3  0  0  0  0  0  0
  190.1870  177.1380  137.3790 N   0  0  0  0  0  2  0  0  0  0  0  0
  1  4  1  1  0  0  0
  2  8  1  0  0  0  0
  3 13  1  0  0  0  0
  3  1  1  0  0  0  0
  4 23  1  0  0  0  0
  5  2  1  0  0  0  0
  5  8  1  0  0  0  0
  6  5  1  0  0  0  0
  6  2  1  0  0  0  0
  7  5  1  0  0  0  0
  7  3  1  0  0  0  0
  8  1  1  0  0  0  0
  9 14  1  0  0  0  0
 11 16  1  0  0  0  0
 12 15  2  0  0  0  0
 12 13  1  0  0  0  0
 13 11  2  0  0  0  0
 14 10  1  0  0  0  0
 15 17  1  0  0  0  0
 16 10  2  0  0  0  0
 17  9  2  0  0  0  0
 17 16  1  0  0  0  0
 20 23  2  0  0  0  0
 20 22  1  0  0  0  0
 21 19  2  0  0  0  0
 22 24  2  0  0  0  0
 23 21  1  0  0  0  0
 24 19  1  0  0  0  0
 24 18  1  0  0  0  0
 25  6  1  0  0  0  0
 26 25  2  0  0  0  0
M  END
>  <MODEL>
2

>  <REMARK>
 VINA RESULT:      -9.2      3.232      6.520
  Name = 
  3 active torsions:
  status: ('A' for Active; 'I' for Inactive)
    1  A    between atoms: C_4  and  C_21
    2  A    between atoms: N_12  and  C_14
    3  A    between atoms: C_17  and  C_19
                            x       y       z     vdW  Elec       q    Type
                         _______ _______ _______ _____ _____    ______ ____

>  <TORSDO>
F 3

$$$$
=
 OpenBabel10232407553D

 26 31  0  0  1  0  0  0  0  0999 V2000
  188.2410  177.4000  142.4580 C   0  0  1  0  0  3  0  0  0  0  0  0
  185.7130  178.1360  141.9880 C   0  0  2  0  0  3  0  0  0  0  0  0
  188.4620  177.5590  141.0360 N   0  0  0  0  0  0  0  0  0  0  0  0
  189.1340  177.1340  143.4160 C   0  0  0  0  0  2  0  0  0  0  0  0
  186.7170  178.9380  141.4250 C   0  0  2  0  0  0  0  0  0  0  0  0
  185.2820  179.3420  141.2260 C   0  0  1  0  0  3  0  0  0  0  0  0
  187.4210  178.2470  140.3830 O   0  0  0  0  0  0  0  0  0  0  0  0
  187.1040  178.1290  142.5560 N   0  0  2  0  0  0  0  0  0  0  0  0
  193.4130  176.6750  138.4030 N   0  0  0  0  0  0  0  0  0  0  0  0
  191.5570  176.2450  137.2300 C   0  0  0  0  0  3  0  0  0  0  0  0
  189.7200  176.8320  138.9160 C   0  0  0  0  0  2  0  0  0  0  0  0
  190.8650  177.5740  141.0330 C   0  0  0  0  0  3  0  0  0  0  0  0
  189.7130  177.3170  140.3670 C   0  0  0  0  0  0  0  0  0  0  0  0
  192.9960  176.2720  137.2680 N   0  0  0  0  0  0  0  0  0  0  0  0
  192.2070  177.3820  140.4360 C   0  0  0  0  0  3  0  0  0  0  0  0
  191.1120  176.6520  138.4080 C   0  0  0  0  0  0  0  0  0  0  0  0
  192.2680  176.9400  139.1880 C   0  0  0  0  0  0  0  0  0  0  0  0
  188.0200  177.7660  149.3060 Cl  0  0  0  0  0  0  0  0  0  0  0  0
  187.3210  177.6660  146.6670 C   0  0  0  0  0  3  0  0  0  0  0  0
  189.9370  177.1950  145.8050 C   0  0  0  0  0  3  0  0  0  0  0  0
  187.5920  177.5160  145.3040 C   0  0  0  0  0  3  0  0  0  0  0  0
  189.6670  177.3440  147.1680 C   0  0  0  0  0  3  0  0  0  0  0  0
  188.8980  177.2760  144.8640 C   0  0  0  0  0  0  0  0  0  0  0  0
  188.3580  177.5790  147.5990 C   0  0  0  0  0  0  0  0  0  0  0  0
  184.7620  178.9220  139.8900 C   0  0  0  0  0  3  0  0  0  0  0  0
  184.3630  179.8050  139.0520 N   0  0  0  0  0  2  0  0  0  0  0  0
  1  8  1  0  0  0  0
  1  4  1  1  0  0  0
  2  8  1  0  0  0  0
  3  1  1  0  0  0  0
  4 23  1  0  0  0  0
  5  2  1  0  0  0  0
  5  8  1  0  0  0  0
  6  5  1  0  0  0  0
  6  2  1  0  0  0  0
  7  3  1  0  0  0  0
  7  5  1  0  0  0  0
  9 17  1  0  0  0  0
 10 14  1  0  0  0  0
 10 16  2  0  0  0  0
 11 13  1  0  0  0  0
 13 12  2  0  0  0  0
 13  3  1  0  0  0  0
 14  9  2  0  0  0  0
 15 12  1  0  0  0  0
 16 11  1  0  0  0  0
 16 17  1  0  0  0  0
 17 15  2  0  0  0  0
 19 24  1  0  0  0  0
 20 22  1  0  0  0  0
 21 19  2  0  0  0  0
 22 24  2  0  0  0  0
 23 21  1  0  0  0  0
 23 20  2  0  0  0  0
 24 18  1  0  0  0  0
 25  6  1  0  0  0  0
 26 25  2  0  0  0  0
M  END
>  <MODEL>
3

>  <REMARK>
 VINA RESULT:      -9.1      3.264      5.773
  Name = 
  3 active torsions:
  status: ('A' for Active; 'I' for Inactive)
    1  A    between atoms: C_4  and  C_21
    2  A    between atoms: N_12  and  C_14
    3  A    between atoms: C_17  and  C_19
                            x       y       z     vdW  Elec       q    Type
                         _______ _______ _______ _____ _____    ______ ____

>  <TORSDO>
F 3

$$$$
=
 OpenBabel10232407553D

 26 31  0  0  1  0  0  0  0  0999 V2000
  187.2370  178.2250  143.0650 C   0  0  1  0  0  3  0  0  0  0  0  0
  188.0850  178.0740  145.5970 C   0  0  2  0  0  3  0  0  0  0  0  0
  188.5710  177.8130  142.6830 N   0  0  0  0  0  0  0  0  0  0  0  0
  186.1630  178.3980  142.2890 C   0  0  0  0  0  2  0  0  0  0  0  0
  188.3710  176.9770  144.7710 C   0  0  2  0  0  0  0  0  0  0  0  0
  188.7880  176.9140  146.2140 C   0  0  1  0  0  3  0  0  0  0  0  0
  189.3310  177.3150  143.7590 O   0  0  0  0  0  0  0  0  0  0  0  0
  187.2750  177.8210  144.3570 N   0  0  2  0  0  0  0  0  0  0  0  0
  190.4100  177.1590  137.3520 N   0  0  0  0  0  0  0  0  0  0  0  0
  188.6780  178.5430  137.6580 C   0  0  0  0  0  3  0  0  0  0  0  0
  188.3450  178.4170  140.1950 C   0  0  0  0  0  3  0  0  0  0  0  0
  190.0750  176.8210  141.0930 C   0  0  0  0  0  3  0  0  0  0  0  0
  189.0210  177.6410  141.3260 C   0  0  0  0  0  0  0  0  0  0  0  0
  189.6010  177.9300  136.7390 N   0  0  0  0  0  0  0  0  0  0  0  0
  190.6340  176.5850  139.7410 C   0  0  0  0  0  3  0  0  0  0  0  0
  188.9640  178.1030  138.8720 C   0  0  0  0  0  0  0  0  0  0  0  0
  190.0690  177.2170  138.7220 C   0  0  2  0  0  3  0  0  0  0  0  0
  180.4390  178.9490  144.0990 Cl  0  0  0  0  0  0  0  0  0  0  0  0
  182.4090  178.6160  142.2350 C   0  0  0  0  0  3  0  0  0  0  0  0
  184.4640  178.7080  144.1260 C   0  0  0  0  0  3  0  0  0  0  0  0
  183.7400  178.4870  141.8280 C   0  0  0  0  0  3  0  0  0  0  0  0
  183.1340  178.8360  144.5340 C   0  0  0  0  0  3  0  0  0  0  0  0
  184.7760  178.5290  142.7690 C   0  0  0  0  0  0  0  0  0  0  0  0
  182.1060  178.7890  143.5880 C   0  0  0  0  0  0  0  0  0  0  0  0
  190.2310  177.2510  146.3960 C   0  0  0  0  0  3  0  0  0  0  0  0
  190.9540  176.5630  147.2000 N   0  0  0  0  0  2  0  0  0  0  0  0
  1  4  1  6  0  0  0
  1  8  1  0  0  0  0
  2  6  1  0  0  0  0
  3  1  1  0  0  0  0
  3  7  1  0  0  0  0
  4 23  1  0  0  0  0
  5  2  1  0  0  0  0
  5  6  1  0  0  0  0
  6 25  1  0  0  0  0
  7  5  1  0  0  0  0
  8  5  1  0  0  0  0
  8  2  1  0  0  0  0
  9 17  1  0  0  0  0
 10 16  2  0  0  0  0
 11 13  2  0  0  0  0
 12 13  1  0  0  0  0
 13  3  1  0  0  0  0
 14  9  2  0  0  0  0
 14 10  1  0  0  0  0
 15 12  2  0  0  0  0
 16 11  1  0  0  0  0
 17 16  1  0  0  0  0
 17 15  1  0  0  0  0
 19 24  1  0  0  0  0
 20 22  1  0  0  0  0
 21 19  2  0  0  0  0
 21 23  1  0  0  0  0
 23 20  2  0  0  0  0
 24 18  1  0  0  0  0
 24 22  2  0  0  0  0
 25 26  2  0  0  0  0
M  END
>  <MODEL>
4

>  <REMARK>
 VINA RESULT:      -9.0      1.366      5.606
  Name = 
  3 active torsions:
  status: ('A' for Active; 'I' for Inactive)
    1  A    between atoms: C_4  and  C_21
    2  A    between atoms: N_12  and  C_14
    3  A    between atoms: C_17  and  C_19
                            x       y       z     vdW  Elec       q    Type
                         _______ _______ _______ _____ _____    ______ ____

>  <TORSDO>
F 3

$$$$
=
 OpenBabel10232407553D

 26 31  0  0  1  0  0  0  0  0999 V2000
  188.4720  178.1740  141.7690 C   0  0  1  0  0  3  0  0  0  0  0  0
  185.9470  179.0550  141.7550 C   0  0  2  0  0  3  0  0  0  0  0  0
  188.3180  178.0100  143.1990 N   0  0  0  0  0  0  0  0  0  0  0  0
  189.5020  177.8160  140.9950 C   0  0  0  0  0  2  0  0  0  0  0  0
  186.1930  177.8600  142.4480 C   0  0  2  0  0  0  0  0  0  0  0  0
  184.7790  178.3670  142.3740 C   0  0  1  0  0  3  0  0  0  0  0  0
  186.9780  178.0870  143.6280 O   0  0  0  0  0  0  0  0  0  0  0  0
  187.1600  178.2260  141.4400 N   0  0  2  0  0  0  0  0  0  0  0  0
  192.3530  176.0590  146.6830 N   0  0  0  0  0  0  0  0  0  0  0  0
  190.6520  177.1640  147.6280 C   0  0  0  0  0  3  0  0  0  0  0  0
  189.2130  177.7570  145.5940 C   0  0  0  0  0  3  0  0  0  0  0  0
  190.3890  176.8470  143.5610 C   0  0  0  0  0  3  0  0  0  0  0  0
  189.3450  177.5320  144.0870 C   0  0  0  0  0  0  0  0  0  0  0  0
  191.8940  176.4570  147.8040 N   0  0  0  0  0  2  0  0  0  0  0  0
  191.4910  176.2930  144.3830 C   0  0  0  0  0  3  0  0  0  0  0  0
  190.3740  177.1800  146.3360 C   0  0  0  0  0  0  0  0  0  0  0  0
  191.4360  176.4810  145.6940 C   0  0  0  0  0  0  0  0  0  0  0  0
  189.4810  177.3710  134.9840 Cl  0  0  0  0  0  0  0  0  0  0  0  0
  189.9010  176.4420  137.5180 C   0  0  0  0  0  3  0  0  0  0  0  0
  189.0600  178.8180  138.7240 C   0  0  0  0  0  3  0  0  0  0  0  0
  189.8990  176.5560  138.9110 C   0  0  0  0  0  3  0  0  0  0  0  0
  189.0600  178.7040  137.3310 C   0  0  0  0  0  3  0  0  0  0  0  0
  189.4760  177.7420  139.5240 C   0  0  0  0  0  0  0  0  0  0  0  0
  189.4800  177.5150  136.7280 C   0  0  0  0  0  0  0  0  0  0  0  0
  184.3790  179.0940  143.6150 C   0  0  0  0  0  3  0  0  0  0  0  0
  183.2820  178.7990  144.2060 N   0  0  0  0  0  2  0  0  0  0  0  0
  1  4  1  6  0  0  0
  1  3  1  0  0  0  0
  2  6  1  0  0  0  0
  2  5  1  0  0  0  0
  3  7  1  0  0  0  0
  3 13  1  0  0  0  0
  5  7  1  0  0  0  0
  6  5  1  0  0  0  0
  6 25  1  0  0  0  0
  8  2  1  0  0  0  0
  8  1  1  0  0  0  0
  8  5  1  0  0  0  0
  9 14  1  0  0  0  0
 10 14  1  0  0  0  0
 11 16  1  0  0  0  0
 12 13  1  0  0  0  0
 12 15  2  0  0  0  0
 13 11  2  0  0  0  0
 15 17  1  0  0  0  0
 16 10  2  0  0  0  0
 17 16  1  0  0  0  0
 17  9  2  0  0  0  0
 18 24  1  0  0  0  0
 19 21  1  0  0  0  0
 20 23  1  0  0  0  0
 21 23  2  0  0  0  0
 22 20  2  0  0  0  0
 23  4  1  0  0  0  0
 24 22  1  0  0  0  0
 24 19  2  0  0  0  0
 25 26  2  0  0  0  0
M  END
>  <MODEL>
5

>  <REMARK>
 VINA RESULT:      -9.0      2.853      5.346
  Name = 
  3 active torsions:
  status: ('A' for Active; 'I' for Inactive)
    1  A    between atoms: C_4  and  C_21
    2  A    between atoms: N_12  and  C_14
    3  A    between atoms: C_17  and  C_19
                            x       y       z     vdW  Elec       q    Type
                         _______ _______ _______ _____ _____    ______ ____

>  <TORSDO>
F 3

$$$$
=
 OpenBabel10232407553D

 26 31  0  0  1  0  0  0  0  0999 V2000
  189.2270  176.8300  143.4780 C   0  0  1  0  0  3  0  0  0  0  0  0
  191.3220  176.0080  144.9240 C   0  0  2  0  0  3  0  0  0  0  0  0
  188.5810  177.1250  144.7390 N   0  0  0  0  0  0  0  0  0  0  0  0
  188.8000  177.0940  142.2400 C   0  0  0  0  0  2  0  0  0  0  0  0
  190.7740  177.2540  145.2630 C   0  0  2  0  0  0  0  0  0  0  0  0
  191.9820  176.7740  146.0180 C   0  0  1  0  0  3  0  0  0  0  0  0
  189.4650  177.1160  145.8350 O   0  0  0  0  0  0  0  0  0  0  0  0
  190.5040  176.7790  143.9260 N   0  0  2  0  0  0  0  0  0  0  0  0
  183.3140  179.1630  145.3180 N   0  0  0  0  0  0  0  0  0  0  0  0
  184.0080  178.7420  143.2330 C   0  0  0  0  0  3  0  0  0  0  0  0
  186.3810  177.8640  143.6350 C   0  0  0  0  0  2  0  0  0  0  0  0
  186.7810  177.9170  146.1210 C   0  0  0  0  0  3  0  0  0  0  0  0
  187.2500  177.6570  144.8760 C   0  0  0  0  0  0  0  0  0  0  0  0
  182.9540  179.2060  144.0960 N   0  0  0  0  0  0  0  0  0  0  0  0
  185.4220  178.4460  146.3810 C   0  0  0  0  0  3  0  0  0  0  0  0
  185.0390  178.4130  143.9930 C   0  0  0  0  0  0  0  0  0  0  0  0
  184.6370  178.6650  145.3360 C   0  0  0  0  0  0  0  0  0  0  0  0
  192.0530  176.8220  137.1720 Cl  0  0  0  0  0  0  0  0  0  0  0  0
  189.7260  176.8470  138.6040 C   0  0  0  0  0  3  0  0  0  0  0  0
  191.0300  177.0900  141.0640 C   0  0  0  0  0  3  0  0  0  0  0  0
  188.9820  176.9130  139.7860 C   0  0  0  0  0  3  0  0  0  0  0  0
  191.7740  177.0250  139.8820 C   0  0  0  0  0  3  0  0  0  0  0  0
  189.6270  177.0380  141.0220 C   0  0  0  0  0  0  0  0  0  0  0  0
  191.1210  176.9040  138.6520 C   0  0  0  0  0  0  0  0  0  0  0  0
  191.6160  176.1700  147.3340 C   0  0  0  0  0  3  0  0  0  0  0  0
  192.5320  175.8720  148.1790 N   0  0  0  0  0  2  0  0  0  0  0  0
  1  4  1  6  0  0  0
  1  8  1  0  0  0  0
  1  3  1  0  0  0  0
  2  5  1  0  0  0  0
  2  6  1  0  0  0  0
  3 13  1  0  0  0  0
  3  7  1  0  0  0  0
  5  7  1  0  0  0  0
  5  6  1  0  0  0  0
  6 25  1  0  0  0  0
  8  2  1  0  0  0  0
  8  5  1  0  0  0  0
  9 17  1  0  0  0  0
 10 16  2  0  0  0  0
 10 14  1  0  0  0  0
 11 16  1  0  0  0  0
 11 13  1  0  0  0  0
 12 15  1  0  0  0  0
 13 12  2  0  0  0  0
 14  9  2  0  0  0  0
 16 17  1  0  0  0  0
 17 15  2  0  0  0  0
 18 24  1  0  0  0  0
 19 24  2  0  0  0  0
 19 21  1  0  0  0  0
 21 23  2  0  0  0  0
 22 20  2  0  0  0  0
 23 20  1  0  0  0  0
 23  4  1  0  0  0  0
 24 22  1  0  0  0  0
 25 26  2  0  0  0  0
M  END
>  <MODEL>
6

>  <REMARK>
 VINA RESULT:      -8.9      3.448      7.246
  Name = 
  3 active torsions:
  status: ('A' for Active; 'I' for Inactive)
    1  A    between atoms: C_4  and  C_21
    2  A    between atoms: N_12  and  C_14
    3  A    between atoms: C_17  and  C_19
                            x       y       z     vdW  Elec       q    Type
                         _______ _______ _______ _____ _____    ______ ____

>  <TORSDO>
F 3

$$$$
=
 OpenBabel10232407553D

 26 31  0  0  1  0  0  0  0  0999 V2000
  187.8930  177.4040  143.6860 C   0  0  1  0  0  3  0  0  0  0  0  0
  189.2600  176.8940  145.9270 C   0  0  2  0  0  3  0  0  0  0  0  0
  186.7770  177.7400  144.5440 N   0  0  0  0  0  0  0  0  0  0  0  0
  187.9910  177.5270  142.3590 C   0  0  0  0  0  2  0  0  0  0  0  0
  188.5600  178.1080  145.8800 C   0  0  2  0  0  0  0  0  0  0  0  0
  189.3810  177.8020  147.1020 C   0  0  1  0  0  3  0  0  0  0  0  0
  187.1400  177.9000  145.8950 O   0  0  0  0  0  0  0  0  0  0  0  0
  188.8790  177.5040  144.6080 N   0  0  2  0  0  0  0  0  0  0  0  0
  181.6330  179.3440  142.7570 N   0  0  0  0  0  0  0  0  0  0  0  0
  183.0330  178.5410  141.2070 C   0  0  0  0  0  3  0  0  0  0  0  0
  185.1130  178.0040  142.6030 C   0  0  0  0  0  2  0  0  0  0  0  0
  184.5940  178.6430  144.9840 C   0  0  0  0  0  3  0  0  0  0  0  0
  185.4800  178.1600  144.0800 C   0  0  0  0  0  0  0  0  0  0  0  0
  181.7340  179.0810  141.5140 N   0  0  0  0  0  0  0  0  0  0  0  0
  183.2260  179.0840  144.6230 C   0  0  0  0  0  3  0  0  0  0  0  0
  183.7260  178.4880  142.3330 C   0  0  0  0  0  0  0  0  0  0  0  0
  182.8660  178.9910  143.3510 C   0  0  0  0  0  0  0  0  0  0  0  0
  193.0250  177.1730  139.0610 Cl  0  0  0  0  0  0  0  0  0  0  0  0
  190.3210  177.3480  139.4130 C   0  0  0  0  0  3  0  0  0  0  0  0
  190.5030  177.3710  142.2010 C   0  0  0  0  0  3  0  0  0  0  0  0
  189.1610  177.4320  140.1880 C   0  0  0  0  0  3  0  0  0  0  0  0
  191.6630  177.2890  141.4270 C   0  0  0  0  0  3  0  0  0  0  0  0
  189.2430  177.4470  141.5860 C   0  0  0  0  0  0  0  0  0  0  0  0
  191.5720  177.2780  140.0320 C   0  0  0  0  0  0  0  0  0  0  0  0
  188.5430  177.2750  148.2210 C   0  0  0  0  0  3  0  0  0  0  0  0
  188.2320  178.0380  149.2020 N   0  0  0  0  0  2  0  0  0  0  0  0
  1  4  1  6  0  0  0
  1  3  1  0  0  0  0
  1  8  1  0  0  0  0
  2  6  1  0  0  0  0
  3  7  1  0  0  0  0
  5  7  1  0  0  0  0
  5  2  1  0  0  0  0
  5  6  1  0  0  0  0
  6 25  1  0  0  0  0
  8  5  1  0  0  0  0
  8  2  1  0  0  0  0
  9 17  1  0  0  0  0
 10 14  1  0  0  0  0
 10 16  2  0  0  0  0
 11 13  1  0  0  0  0
 13  3  1  0  0  0  0
 13 12  2  0  0  0  0
 14  9  2  0  0  0  0
 15 12  1  0  0  0  0
 16 11  1  0  0  0  0
 16 17  1  0  0  0  0
 17 15  2  0  0  0  0
 18 24  1  0  0  0  0
 19 24  2  0  0  0  0
 19 21  1  0  0  0  0
 21 23  2  0  0  0  0
 22 20  2  0  0  0  0
 23 20  1  0  0  0  0
 23  4  1  0  0  0  0
 24 22  1  0  0  0  0
 25 26  2  0  0  0  0
M  END
>  <MODEL>
7

>  <REMARK>
 VINA RESULT:      -8.8      3.599      7.940
  Name = 
  3 active torsions:
  status: ('A' for Active; 'I' for Inactive)
    1  A    between atoms: C_4  and  C_21
    2  A    between atoms: N_12  and  C_14
    3  A    between atoms: C_17  and  C_19
                            x       y       z     vdW  Elec       q    Type
                         _______ _______ _______ _____ _____    ______ ____

>  <TORSDO>
F 3

$$$$
=
 OpenBabel10232407553D

 26 31  0  0  1  0  0  0  0  0999 V2000
  187.2120  178.2550  142.9700 C   0  0  1  0  0  3  0  0  0  0  0  0
  188.0890  178.0410  145.4880 C   0  0  2  0  0  3  0  0  0  0  0  0
  188.5450  177.8650  142.5630 N   0  0  0  0  0  0  0  0  0  0  0  0
  186.1290  178.4420  142.2100 C   0  0  0  0  0  2  0  0  0  0  0  0
  188.3750  176.9690  144.6290 C   0  0  2  0  0  0  0  0  0  0  0  0
  188.8070  176.8700  146.0660 C   0  0  1  0  0  3  0  0  0  0  0  0
  189.3210  177.3430  143.6160 O   0  0  0  0  0  0  0  0  0  0  0  0
  187.2680  177.8160  144.2500 N   0  0  2  0  0  0  0  0  0  0  0  0
  190.2030  177.3170  137.1610 N   0  0  0  0  0  0  0  0  0  0  0  0
  191.3610  176.1670  138.6920 C   0  0  0  0  0  3  0  0  0  0  0  0
  190.1540  176.8110  140.8580 C   0  0  0  0  0  3  0  0  0  0  0  0
  188.3040  178.4010  140.2330 C   0  0  0  0  0  3  0  0  0  0  0  0
  188.9820  177.7330  141.1970 C   0  0  0  0  0  0  0  0  0  0  0  0
  191.1800  176.5110  137.3060 N   0  0  0  0  0  0  0  0  0  0  0  0
  188.6520  178.3230  138.7950 C   0  0  0  0  0  3  0  0  0  0  0  0
  190.4410  176.8090  139.3920 C   0  0  0  0  0  0  0  0  0  0  0  0
  189.6750  177.5550  138.4500 C   0  0  2  0  0  3  0  0  0  0  0  0
  180.4210  178.8940  144.0940 Cl  0  0  0  0  0  0  0  0  0  0  0  0
  182.3730  178.6090  142.2030 C   0  0  0  0  0  3  0  0  0  0  0  0
  184.4490  178.7080  144.0710 C   0  0  0  0  0  3  0  0  0  0  0  0
  183.7000  178.5030  141.7790 C   0  0  0  0  0  3  0  0  0  0  0  0
  183.1220  178.8130  144.4960 C   0  0  0  0  0  3  0  0  0  0  0  0
  184.7460  178.5480  142.7080 C   0  0  0  0  0  0  0  0  0  0  0  0
  182.0830  178.7620  143.5620 C   0  0  0  0  0  0  0  0  0  0  0  0
  190.2500  177.2130  146.2410 C   0  0  0  0  0  3  0  0  0  0  0  0
  190.8870  176.7970  147.2720 N   0  0  0  0  0  2  0  0  0  0  0  0
  1  4  1  6  0  0  0
  1  8  1  0  0  0  0
  2  6  1  0  0  0  0
  3  1  1  0  0  0  0
  3  7  1  0  0  0  0
  4 23  1  0  0  0  0
  5  2  1  0  0  0  0
  5  6  1  0  0  0  0
  6 25  1  0  0  0  0
  7  5  1  0  0  0  0
  8  5  1  0  0  0  0
  8  2  1  0  0  0  0
  9 14  2  0  0  0  0
  9 17  1  0  0  0  0
 10 16  2  0  0  0  0
 11 13  2  0  0  0  0
 12 13  1  0  0  0  0
 13  3  1  0  0  0  0
 14 10  1  0  0  0  0
 15 12  2  0  0  0  0
 16 11  1  0  0  0  0
 17 15  1  0  0  0  0
 17 16  1  0  0  0  0
 19 24  1  0  0  0  0
 20 22  1  0  0  0  0
 21 19  2  0  0  0  0
 21 23  1  0  0  0  0
 23 20  2  0  0  0  0
 24 18  1  0  0  0  0
 24 22  2  0  0  0  0
 25 26  2  0  0  0  0
M  END
>  <MODEL>
8

>  <REMARK>
 VINA RESULT:      -8.7      1.351      5.571
  Name = 
  3 active torsions:
  status: ('A' for Active; 'I' for Inactive)
    1  A    between atoms: C_4  and  C_21
    2  A    between atoms: N_12  and  C_14
    3  A    between atoms: C_17  and  C_19
                            x       y       z     vdW  Elec       q    Type
                         _______ _______ _______ _____ _____    ______ ____

>  <TORSDO>
F 3

$$$$
=
 OpenBabel10232407553D

 26 31  0  0  1  0  0  0  0  0999 V2000
  186.0870  178.7980  141.8560 C   0  0  1  0  0  3  0  0  0  0  0  0
  188.5390  178.8380  140.7880 C   0  0  2  0  0  3  0  0  0  0  0  0
  185.5880  178.7830  140.4980 N   0  0  0  0  0  0  0  0  0  0  0  0
  185.4020  178.6810  142.9980 C   0  0  0  0  0  2  0  0  0  0  0  0
  187.6470  177.8820  140.2810 C   0  0  2  0  0  0  0  0  0  0  0  0
  189.0500  177.9090  139.7420 C   0  0  1  0  0  3  0  0  0  0  0  0
  186.5800  178.4950  139.5420 O   0  0  0  0  0  0  0  0  0  0  0  0
  187.3540  178.3950  141.5980 N   0  0  2  0  0  0  0  0  0  0  0  0
  180.1040  178.6680  139.0340 N   0  0  0  0  0  0  0  0  0  0  0  0
  181.3540  180.2900  138.1320 C   0  0  0  0  0  3  0  0  0  0  0  0
  183.6560  179.8070  139.1470 C   0  0  0  0  0  2  0  0  0  0  0  0
  183.4000  177.8000  140.6470 C   0  0  0  0  0  3  0  0  0  0  0  0
  184.1950  178.7710  140.1340 C   0  0  0  0  0  0  0  0  0  0  0  0
  180.0610  179.6690  138.2450 N   0  0  0  0  0  0  0  0  0  0  0  0
  181.9590  177.6780  140.3250 C   0  0  0  0  0  3  0  0  0  0  0  0
  182.1960  179.6160  138.8980 C   0  0  0  0  0  0  0  0  0  0  0  0
  181.4370  178.5670  139.4920 C   0  0  0  0  0  0  0  0  0  0  0  0
  187.7100  177.6790  148.4760 Cl  0  0  0  0  0  0  0  0  0  0  0  0
  185.8920  178.7260  146.7260 C   0  0  0  0  0  3  0  0  0  0  0  0
  187.1580  177.6450  144.4820 C   0  0  0  0  0  3  0  0  0  0  0  0
  185.3650  178.9490  145.4510 C   0  0  0  0  0  3  0  0  0  0  0  0
  187.6850  177.4200  145.7570 C   0  0  0  0  0  3  0  0  0  0  0  0
  185.9910  178.4090  144.3210 C   0  0  0  0  0  0  0  0  0  0  0  0
  187.0510  177.9600  146.8790 C   0  0  0  0  0  0  0  0  0  0  0  0
  189.1370  178.6320  138.4380 C   0  0  0  0  0  3  0  0  0  0  0  0
  189.6170  178.0410  137.4080 N   0  0  0  0  0  2  0  0  0  0  0  0
  1  4  1  1  0  0  0
  2  8  1  0  0  0  0
  3  1  1  0  0  0  0
  4 23  1  0  0  0  0
  5  2  1  0  0  0  0
  5  8  1  0  0  0  0
  6  5  1  0  0  0  0
  6  2  1  0  0  0  0
  7  5  1  0  0  0  0
  7  3  1  0  0  0  0
  8  1  1  0  0  0  0
  9 17  1  0  0  0  0
 10 14  1  0  0  0  0
 10 16  2  0  0  0  0
 11 13  1  0  0  0  0
 13  3  1  0  0  0  0
 13 12  2  0  0  0  0
 14  9  2  0  0  0  0
 15 12  1  0  0  0  0
 16 11  1  0  0  0  0
 16 17  1  0  0  0  0
 17 15  2  0  0  0  0
 19 24  1  0  0  0  0
 20 22  1  0  0  0  0
 21 19  2  0  0  0  0
 22 24  2  0  0  0  0
 23 20  2  0  0  0  0
 23 21  1  0  0  0  0
 24 18  1  0  0  0  0
 25  6  1  0  0  0  0
 26 25  2  0  0  0  0
M  END
>  <MODEL>
9

>  <REMARK>
 VINA RESULT:      -8.7      3.519      7.370
  Name = 
  3 active torsions:
  status: ('A' for Active; 'I' for Inactive)
    1  A    between atoms: C_4  and  C_21
    2  A    between atoms: N_12  and  C_14
    3  A    between atoms: C_17  and  C_19
                            x       y       z     vdW  Elec       q    Type
                         _______ _______ _______ _____ _____    ______ ____

>  <TORSDO>
F 3

$$$$
