=
 OpenBabel10232410473D

 35 36  0  0  1  0  0  0  0  0999 V2000
  183.1190  178.8250  143.0820 C   0  0  0  0  0  0  0  0  0  0  0  0
  184.3450  178.4850  143.8790 C   0  0  1  0  0  3  0  0  0  0  0  0
  182.3410  177.9260  140.8930 N   0  0  0  0  0  0  0  0  0  0  0  0
  185.2980  178.0610  142.7300 C   0  0  0  0  0  0  0  0  0  0  0  0
  186.7010  178.5130  142.5850 N   0  0  0  0  0  2  0  0  0  0  0  0
  183.4340  178.5800  141.6880 C   0  0  2  0  0  3  0  0  0  0  0  0
  184.6630  177.9030  141.5960 N   0  0  0  0  0  0  0  0  0  0  0  0
  181.8920  179.2210  143.4310 C   0  0  0  0  0  3  0  0  0  0  0  0
  182.6910  177.5640  139.5180 C   0  0  0  0  0  1  0  0  0  0  0  0
  180.7600  179.2750  142.3150 C   0  0  0  0  0  3  0  0  0  0  0  0
  181.0560  178.6210  141.1290 C   0  0  0  0  0  3  0  0  0  0  0  0
  185.0300  179.4940  144.8140 C   0  0  0  0  0  2  0  0  0  0  0  0
  184.0300  178.3520  146.5260 O   0  0  0  0  0  0  0  0  0  0  0  0
  186.1870  178.8870  147.0660 N   0  0  0  0  0  0  0  0  0  0  0  0
  185.0710  178.9140  146.1880 C   0  0  0  0  0  0  0  0  0  0  0  0
  188.0640  177.4240  148.8320 O   0  0  0  0  0  0  0  0  0  0  0  0
  188.2340  177.5110  147.5820 C   0  0  0  0  0  0  0  0  0  0  0  0
  187.2020  177.9920  146.7170 N   0  0  0  0  0  0  0  0  0  0  0  0
  189.5090  176.9920  146.9840 C   0  0  0  0  0  2  0  0  0  0  0  0
  189.5380  177.2750  145.4830 C   0  0  0  0  0  2  0  0  0  0  0  0
  191.7410  178.5150  144.3740 O   0  0  0  0  0  1  0  0  0  0  0  0
  192.0130  176.8270  146.2090 O   0  0  0  0  0  1  0  0  0  0  0  0
  191.2560  175.8040  143.7190 O   0  0  0  0  0  0  0  0  0  0  0  0
  191.2360  177.0110  144.9380 P   0  0  0  0  0  0  0  0  0  0  0  0
  187.5570  178.3110  141.4180 C   0  0  0  0  0  2  0  0  0  0  0  0
  188.8880  177.8080  141.8340 C   0  0  0  0  0  2  0  0  0  0  0  0
  189.8010  177.7880  140.6110 C   0  0  0  0  0  2  0  0  0  0  0  0
  189.3020  176.7820  139.5270 C   0  0  0  0  0  2  0  0  0  0  0  0
  190.1780  176.7570  138.2770 C   0  0  0  0  0  3  0  0  0  0  0  0
  189.6890  177.5130  137.1100 C   0  0  0  0  0  3  0  0  0  0  0  0
  188.9560  179.7760  137.3180 O   0  0  0  0  0  1  0  0  0  0  0  0
  188.5040  178.4620  137.2630 C   0  0  1  0  0  3  0  0  0  0  0  0
  187.5770  178.3630  136.0420 C   0  0  0  0  0  2  0  0  0  0  0  0
  186.2850  177.7600  136.4870 C   0  0  0  0  0  2  0  0  0  0  0  0
  185.9770  177.9490  137.9930 C   0  0  0  0  0  1  0  0  0  0  0  0
  1  8  2  0  0  0  0
  1  2  1  0  0  0  0
  2 12  1  6  0  0  0
  3 11  1  0  0  0  0
  3  6  1  0  0  0  0
  4  2  1  0  0  0  0
  5  4  1  0  0  0  0
  6  7  1  1  0  0  0
  6  1  1  0  0  0  0
  7  4  2  0  0  0  0
  9  3  1  0  0  0  0
 10  8  1  0  0  0  0
 11 10  2  0  0  0  0
 12 15  1  0  0  0  0
 15 13  2  0  0  0  0
 15 14  1  0  0  0  0
 17 16  2  0  0  0  0
 18 14  2  0  0  0  0
 18 17  1  0  0  0  0
 19 17  1  0  0  0  0
 20 19  1  0  0  0  0
 21 24  1  0  0  0  0
 23 24  2  0  0  0  0
 24 20  1  0  0  0  0
 24 22  1  0  0  0  0
 25 26  1  0  0  0  0
 25  5  1  0  0  0  0
 27 26  1  0  0  0  0
 28 27  1  0  0  0  0
 29 28  1  0  0  0  0
 30 32  1  0  0  0  0
 30 29  2  0  0  0  0
 32 31  1  6  0  0  0
 33 34  1  0  0  0  0
 33 32  1  0  0  0  0
 34 35  1  0  0  0  0
M  END
>  <MODEL>
1

>  <REMARK>
 VINA RESULT:      -7.3      0.000      0.000
  Name = 
  15 active torsions:
  status: ('A' for Active; 'I' for Inactive)
    1  A    between atoms: C_1  and  C_14
    2  A    between atoms: C_1  and  C_32
    3  A    between atoms: C_5  and  C_22
    4  A    between atoms: C_6  and  C_31
    5  A    between atoms: C_7  and  C_16
    6  A    between atoms: C_7  and  C_27
    7  A    between atoms: N_12  and  C_32
    8  A    between atoms: C_14  and  C_16
    9  A    between atoms: C_18  and  C_28
   10  A    between atoms: C_22  and  C_30
   11  A    between atoms: N_25  and  N_26
   12  A    between atoms: C_27  and  C_29
   13  A    between atoms: C_28  and  C_34
   14  A    between atoms: C_29  and  C_31
   15  A    between atoms: C_34  and  P_35
                            x       y       z     vdW  Elec       q    Type
                         _______ _______ _______ _____ _____    ______ ____

>  <TORSDO>
F 15

$$$$
=
 OpenBabel10232410473D

 35 36  0  0  1  0  0  0  0  0999 V2000
  184.0170  178.7470  142.4630 C   0  0  0  0  0  0  0  0  0  0  0  0
  184.8430  179.0110  141.2370 C   0  0  1  0  0  3  0  0  0  0  0  0
  184.5040  179.2550  144.8530 N   0  0  0  0  0  0  0  0  0  0  0  0
  186.2630  178.9630  141.8600 C   0  0  0  0  0  0  0  0  0  0  0  0
  187.4110  178.2220  141.2890 N   0  0  0  0  0  2  0  0  0  0  0  0
  184.9370  178.5980  143.5740 C   0  0  2  0  0  3  0  0  0  0  0  0
  186.2280  178.9790  143.1680 N   0  0  0  0  0  0  0  0  0  0  0  0
  182.6980  178.6920  142.6740 C   0  0  0  0  0  3  0  0  0  0  0  0
  185.4790  179.2150  145.9440 C   0  0  0  0  0  1  0  0  0  0  0  0
  182.1680  178.6080  144.1710 C   0  0  0  0  0  3  0  0  0  0  0  0
  183.0990  178.9010  145.1540 C   0  0  0  0  0  3  0  0  0  0  0  0
  184.7650  178.1290  139.9820 C   0  0  0  0  0  2  0  0  0  0  0  0
  184.5190  180.1040  138.8530 O   0  0  0  0  0  0  0  0  0  0  0  0
  185.8300  178.6550  137.6650 N   0  0  0  0  0  0  0  0  0  0  0  0
  185.0220  178.9840  138.7850 C   0  0  0  0  0  0  0  0  0  0  0  0
  188.0390  178.1450  135.7570 O   0  0  0  0  0  0  0  0  0  0  0  0
  188.2130  178.1660  137.0090 C   0  0  0  0  0  0  0  0  0  0  0  0
  187.2070  178.6600  137.8970 N   0  0  0  0  0  0  0  0  0  0  0  0
  189.5480  177.7640  137.5640 C   0  0  0  0  0  2  0  0  0  0  0  0
  190.2560  176.8180  136.5950 C   0  0  0  0  0  2  0  0  0  0  0  0
  190.6680  174.4550  137.9640 O   0  0  0  0  0  1  0  0  0  0  0  0
  192.4930  175.4570  136.5650 O   0  0  0  0  0  0  0  0  0  0  0  0
  191.9040  176.8060  138.9430 O   0  0  0  0  0  1  0  0  0  0  0  0
  191.4590  175.8870  137.5640 P   0  0  0  0  0  0  0  0  0  0  0  0
  188.6930  177.9770  141.9470 C   0  0  0  0  0  2  0  0  0  0  0  0
  189.3680  176.8040  141.3410 C   0  0  0  0  0  2  0  0  0  0  0  0
  190.3720  176.2500  142.3490 C   0  0  0  0  0  2  0  0  0  0  0  0
  191.5380  177.2510  142.6210 C   0  0  0  0  0  2  0  0  0  0  0  0
  191.4630  177.9040  144.0000 C   0  0  0  0  0  2  0  0  0  0  0  0
  190.9720  177.0620  145.1050 C   0  0  0  0  0  2  0  0  0  0  0  0
  188.5920  176.9700  145.2700 O   0  0  0  0  0  1  0  0  0  0  0  0
  189.7290  177.4810  145.8850 C   0  0  1  0  0  3  0  0  0  0  0  0
  189.7660  176.8980  147.3050 C   0  0  0  0  0  2  0  0  0  0  0  0
  189.3790  177.9780  148.2620 C   0  0  0  0  0  2  0  0  0  0  0  0
  187.8770  177.9930  148.6370 C   0  0  0  0  0  1  0  0  0  0  0  0
  1  8  2  0  0  0  0
  2 12  1  6  0  0  0
  2  4  1  0  0  0  0
  2  1  1  0  0  0  0
  3 11  1  0  0  0  0
  3  9  1  0  0  0  0
  4  7  2  0  0  0  0
  5  4  1  0  0  0  0
  5 25  1  0  0  0  0
  6  1  1  6  0  0  0
  6  3  1  0  0  0  0
  7  6  1  0  0  0  0
  8 10  1  0  0  0  0
 10 11  2  0  0  0  0
 14 18  2  0  0  0  0
 14 15  1  0  0  0  0
 15 13  2  0  0  0  0
 15 12  1  0  0  0  0
 16 17  2  0  0  0  0
 17 19  1  0  0  0  0
 17 18  1  0  0  0  0
 20 24  1  0  0  0  0
 20 19  1  0  0  0  0
 22 24  2  0  0  0  0
 24 21  1  0  0  0  0
 24 23  1  0  0  0  0
 26 25  1  0  0  0  0
 26 27  1  0  0  0  0
 27 28  1  0  0  0  0
 28 29  1  0  0  0  0
 29 30  1  0  0  0  0
 30 32  1  0  0  0  0
 32 31  1  6  0  0  0
 32 33  1  0  0  0  0
 33 34  1  0  0  0  0
 34 35  1  0  0  0  0
M  END
>  <MODEL>
2

>  <REMARK>
 VINA RESULT:      -7.0      2.796      7.161
  Name = 
  15 active torsions:
  status: ('A' for Active; 'I' for Inactive)
    1  A    between atoms: C_1  and  C_14
    2  A    between atoms: C_1  and  C_32
    3  A    between atoms: C_5  and  C_22
    4  A    between atoms: C_6  and  C_31
    5  A    between atoms: C_7  and  C_16
    6  A    between atoms: C_7  and  C_27
    7  A    between atoms: N_12  and  C_32
    8  A    between atoms: C_14  and  C_16
    9  A    between atoms: C_18  and  C_28
   10  A    between atoms: C_22  and  C_30
   11  A    between atoms: N_25  and  N_26
   12  A    between atoms: C_27  and  C_29
   13  A    between atoms: C_28  and  C_34
   14  A    between atoms: C_29  and  C_31
   15  A    between atoms: C_34  and  P_35
                            x       y       z     vdW  Elec       q    Type
                         _______ _______ _______ _____ _____    ______ ____

>  <TORSDO>
F 15

$$$$
=
 OpenBabel10232410473D

 35 36  0  0  1  0  0  0  0  0999 V2000
  188.4240  177.6650  145.0210 C   0  0  0  0  0  0  0  0  0  0  0  0
  188.4420  177.2880  143.5680 C   0  0  1  0  0  3  0  0  0  0  0  0
  186.5290  177.6890  146.6390 N   0  0  0  0  0  0  0  0  0  0  0  0
  186.9810  177.6450  143.1850 C   0  0  0  0  0  0  0  0  0  0  0  0
  186.5870  178.4140  141.9820 N   0  0  0  0  0  2  0  0  0  0  0  0
  187.0890  178.1450  145.3220 C   0  0  2  0  0  3  0  0  0  0  0  0
  186.2370  177.8720  144.2380 N   0  0  0  0  0  0  0  0  0  0  0  0
  189.3390  177.5790  145.9920 C   0  0  0  0  0  3  0  0  0  0  0  0
  185.1390  178.0660  146.8980 C   0  0  0  0  0  1  0  0  0  0  0  0
  188.8930  177.8720  147.4900 C   0  0  0  0  0  3  0  0  0  0  0  0
  187.5250  177.8990  147.7130 C   0  0  0  0  0  3  0  0  0  0  0  0
  189.4350  177.8980  142.5680 C   0  0  0  0  0  2  0  0  0  0  0  0
  190.0850  175.7050  142.5050 O   0  0  0  0  0  0  0  0  0  0  0  0
  191.0110  176.8690  140.7690 N   0  0  0  0  0  2  0  0  0  0  0  0
  190.2210  176.7920  141.9460 C   0  0  0  0  0  0  0  0  0  0  0  0
  191.1600  175.1270  138.3760 O   0  0  0  0  0  0  0  0  0  0  0  0
  190.5830  176.2520  138.3640 C   0  0  0  0  0  0  0  0  0  0  0  0
  190.2960  176.9610  139.5720 N   0  0  0  0  0  2  0  0  0  0  0  0
  190.0910  176.8010  137.0570 C   0  0  0  0  0  2  0  0  0  0  0  0
  188.6170  176.4510  136.8620 C   0  0  0  0  0  2  0  0  0  0  0  0
  187.3030  178.3390  135.3350 O   0  0  0  0  0  0  0  0  0  0  0  0
  186.3860  177.6310  137.5600 O   0  0  0  0  0  1  0  0  0  0  0  0
  188.6930  179.2100  137.6420 O   0  0  0  0  0  1  0  0  0  0  0  0
  187.7000  178.0020  136.9360 P   0  0  0  0  0  0  0  0  0  0  0  0
  185.2580  178.9510  141.6970 C   0  0  0  0  0  2  0  0  0  0  0  0
  185.0470  179.0580  140.2340 C   0  0  0  0  0  2  0  0  0  0  0  0
  183.5590  179.2790  139.9750 C   0  0  0  0  0  2  0  0  0  0  0  0
  182.8200  177.9450  139.6420 C   0  0  0  0  0  2  0  0  0  0  0  0
  181.7100  177.6060  140.6350 C   0  0  0  0  0  2  0  0  0  0  0  0
  180.6590  178.6210  140.8240 C   0  0  0  0  0  2  0  0  0  0  0  0
  179.9830  180.7130  141.7560 O   0  0  0  0  0  1  0  0  0  0  0  0
  180.7220  179.5650  142.0210 C   0  0  1  0  0  3  0  0  0  0  0  0
  180.0900  178.9070  143.2570 C   0  0  0  0  0  2  0  0  0  0  0  0
  181.1890  178.3470  144.0990 C   0  0  0  0  0  2  0  0  0  0  0  0
  182.5060  179.1620  144.0560 C   0  0  0  0  0  1  0  0  0  0  0  0
  1  6  1  0  0  0  0
  1  8  2  0  0  0  0
  2 12  1  6  0  0  0
  2  1  1  0  0  0  0
  3  9  1  0  0  0  0
  3 11  1  0  0  0  0
  4  2  1  0  0  0  0
  4  7  2  0  0  0  0
  5  4  1  0  0  0  0
  6  7  1  6  0  0  0
  6  3  1  0  0  0  0
  8 10  1  0  0  0  0
 10 11  2  0  0  0  0
 14 15  1  0  0  0  0
 15 13  2  0  0  0  0
 15 12  1  0  0  0  0
 17 16  2  0  0  0  0
 17 18  1  0  0  0  0
 18 14  1  0  0  0  0
 19 17  1  0  0  0  0
 20 24  1  0  0  0  0
 20 19  1  0  0  0  0
 21 24  2  0  0  0  0
 24 22  1  0  0  0  0
 24 23  1  0  0  0  0
 25  5  1  0  0  0  0
 26 25  1  0  0  0  0
 27 26  1  0  0  0  0
 28 27  1  0  0  0  0
 28 29  1  0  0  0  0
 29 30  1  0  0  0  0
 30 32  1  0  0  0  0
 32 31  1  6  0  0  0
 32 33  1  0  0  0  0
 33 34  1  0  0  0  0
 35 34  1  0  0  0  0
M  END
>  <MODEL>
3

>  <REMARK>
 VINA RESULT:      -7.0      2.877      7.851
  Name = 
  15 active torsions:
  status: ('A' for Active; 'I' for Inactive)
    1  A    between atoms: C_1  and  C_14
    2  A    between atoms: C_1  and  C_32
    3  A    between atoms: C_5  and  C_22
    4  A    between atoms: C_6  and  C_31
    5  A    between atoms: C_7  and  C_16
    6  A    between atoms: C_7  and  C_27
    7  A    between atoms: N_12  and  C_32
    8  A    between atoms: C_14  and  C_16
    9  A    between atoms: C_18  and  C_28
   10  A    between atoms: C_22  and  C_30
   11  A    between atoms: N_25  and  N_26
   12  A    between atoms: C_27  and  C_29
   13  A    between atoms: C_28  and  C_34
   14  A    between atoms: C_29  and  C_31
   15  A    between atoms: C_34  and  P_35
                            x       y       z     vdW  Elec       q    Type
                         _______ _______ _______ _____ _____    ______ ____

>  <TORSDO>
F 15

$$$$
=
 OpenBabel10232410473D

 35 36  0  0  1  0  0  0  0  0999 V2000
  188.5010  177.5050  145.1340 C   0  0  0  0  0  0  0  0  0  0  0  0
  188.4890  177.1310  143.6800 C   0  0  1  0  0  3  0  0  0  0  0  0
  186.6030  177.7630  146.7280 N   0  0  0  0  0  0  0  0  0  0  0  0
  187.0910  177.6690  143.2800 C   0  0  0  0  0  0  0  0  0  0  0  0
  186.8110  178.4830  142.0740 N   0  0  0  0  0  2  0  0  0  0  0  0
  187.2330  178.1470  145.4200 C   0  0  2  0  0  3  0  0  0  0  0  0
  186.3670  177.9860  144.3240 N   0  0  0  0  0  0  0  0  0  0  0  0
  189.3850  177.3030  146.1160 C   0  0  0  0  0  3  0  0  0  0  0  0
  185.2680  178.3110  146.9710 C   0  0  0  0  0  1  0  0  0  0  0  0
  188.9600  177.6470  147.6090 C   0  0  0  0  0  3  0  0  0  0  0  0
  187.6040  177.8450  147.8160 C   0  0  0  0  0  3  0  0  0  0  0  0
  189.5650  177.6130  142.6940 C   0  0  0  0  0  2  0  0  0  0  0  0
  190.0970  175.3900  142.7850 O   0  0  0  0  0  0  0  0  0  0  0  0
  191.0010  176.3590  140.9210 N   0  0  0  0  0  0  0  0  0  0  0  0
  190.2630  176.4190  142.1330 C   0  0  0  0  0  0  0  0  0  0  0  0
  191.7810  175.5970  138.1660 O   0  0  0  0  0  0  0  0  0  0  0  0
  190.7320  176.2550  138.4180 C   0  0  0  0  0  0  0  0  0  0  0  0
  190.2360  176.3940  139.7520 N   0  0  0  0  0  0  0  0  0  0  0  0
  189.9310  176.8090  137.2770 C   0  0  0  0  0  2  0  0  0  0  0  0
  188.4370  176.6550  137.5600 C   0  0  0  0  0  2  0  0  0  0  0  0
  186.8300  178.2610  135.9920 O   0  0  0  0  0  0  0  0  0  0  0  0
  186.6550  178.3300  138.4930 O   0  0  0  0  0  1  0  0  0  0  0  0
  188.9650  179.4700  137.4040 O   0  0  0  0  0  1  0  0  0  0  0  0
  187.7110  178.3000  137.4270 P   0  0  0  0  0  0  0  0  0  0  0  0
  185.5640  179.1830  141.7750 C   0  0  0  0  0  2  0  0  0  0  0  0
  184.4330  178.2250  141.7310 C   0  0  0  0  0  2  0  0  0  0  0  0
  183.3290  178.7370  142.6530 C   0  0  0  0  0  2  0  0  0  0  0  0
  181.9370  178.7470  141.9470 C   0  0  0  0  0  2  0  0  0  0  0  0
  181.9850  178.2360  140.5090 C   0  0  0  0  0  2  0  0  0  0  0  0
  180.9470  177.2660  140.1170 C   0  0  0  0  0  2  0  0  0  0  0  0
  180.5740  175.7270  138.3300 O   0  0  0  0  0  1  0  0  0  0  0  0
  181.3490  175.9470  139.4630 C   0  0  1  0  0  3  0  0  0  0  0  0
  182.8110  176.0020  138.9980 C   0  0  0  0  0  2  0  0  0  0  0  0
  182.9970  174.9790  137.9250 C   0  0  0  0  0  2  0  0  0  0  0  0
  184.4620  174.8100  137.4510 C   0  0  0  0  0  1  0  0  0  0  0  0
  1  6  1  0  0  0  0
  1  8  2  0  0  0  0
  2 12  1  6  0  0  0
  2  1  1  0  0  0  0
  3  9  1  0  0  0  0
  3 11  1  0  0  0  0
  4  2  1  0  0  0  0
  4  7  2  0  0  0  0
  5  4  1  0  0  0  0
  6  7  1  6  0  0  0
  6  3  1  0  0  0  0
  8 10  1  0  0  0  0
 10 11  2  0  0  0  0
 14 15  1  0  0  0  0
 15 12  1  0  0  0  0
 15 13  2  0  0  0  0
 16 17  2  0  0  0  0
 17 18  1  0  0  0  0
 18 14  2  0  0  0  0
 19 20  1  0  0  0  0
 19 17  1  0  0  0  0
 21 24  2  0  0  0  0
 23 24  1  0  0  0  0
 24 20  1  0  0  0  0
 24 22  1  0  0  0  0
 25  5  1  0  0  0  0
 26 25  1  0  0  0  0
 26 27  1  0  0  0  0
 28 27  1  0  0  0  0
 29 28  1  0  0  0  0
 30 29  1  0  0  0  0
 32 31  1  6  0  0  0
 32 30  1  0  0  0  0
 33 32  1  0  0  0  0
 34 33  1  0  0  0  0
 35 34  1  0  0  0  0
M  END
>  <MODEL>
4

>  <REMARK>
 VINA RESULT:      -6.9      3.033      7.448
  Name = 
  15 active torsions:
  status: ('A' for Active; 'I' for Inactive)
    1  A    between atoms: C_1  and  C_14
    2  A    between atoms: C_1  and  C_32
    3  A    between atoms: C_5  and  C_22
    4  A    between atoms: C_6  and  C_31
    5  A    between atoms: C_7  and  C_16
    6  A    between atoms: C_7  and  C_27
    7  A    between atoms: N_12  and  C_32
    8  A    between atoms: C_14  and  C_16
    9  A    between atoms: C_18  and  C_28
   10  A    between atoms: C_22  and  C_30
   11  A    between atoms: N_25  and  N_26
   12  A    between atoms: C_27  and  C_29
   13  A    between atoms: C_28  and  C_34
   14  A    between atoms: C_29  and  C_31
   15  A    between atoms: C_34  and  P_35
                            x       y       z     vdW  Elec       q    Type
                         _______ _______ _______ _____ _____    ______ ____

>  <TORSDO>
F 15

$$$$
=
 OpenBabel10232410473D

 35 36  0  0  1  0  0  0  0  0999 V2000
  189.4100  177.1020  145.0880 C   0  0  0  0  0  0  0  0  0  0  0  0
  188.5250  176.8460  143.9030 C   0  0  1  0  0  3  0  0  0  0  0  0
  188.8620  177.0850  147.5190 N   0  0  0  0  0  0  0  0  0  0  0  0
  187.1630  177.3060  144.4860 C   0  0  0  0  0  0  0  0  0  0  0  0
  186.2000  178.1900  143.7890 N   0  0  0  0  0  2  0  0  0  0  0  0
  188.5660  177.6200  146.1480 C   0  0  2  0  0  3  0  0  0  0  0  0
  187.2160  177.4810  145.7820 N   0  0  0  0  0  0  0  0  0  0  0  0
  190.7110  176.8900  145.3120 C   0  0  0  0  0  3  0  0  0  0  0  0
  187.9400  177.5080  148.5740 C   0  0  0  0  0  1  0  0  0  0  0  0
  191.2720  177.0800  146.7880 C   0  0  0  0  0  3  0  0  0  0  0  0
  190.3160  177.1570  147.7880 C   0  0  0  0  0  3  0  0  0  0  0  0
  188.7780  177.4870  142.5290 C   0  0  0  0  0  2  0  0  0  0  0  0
  190.0790  175.6230  142.2700 O   0  0  0  0  0  0  0  0  0  0  0  0
  190.7400  177.2740  140.8320 N   0  0  0  0  0  2  0  0  0  0  0  0
  189.9170  176.7770  141.8780 C   0  0  0  0  0  0  0  0  0  0  0  0
  190.8920  175.3440  138.5890 O   0  0  0  0  0  0  0  0  0  0  0  0
  190.4400  176.5160  138.4480 C   0  0  0  0  0  0  0  0  0  0  0  0
  190.1350  177.3430  139.5750 N   0  0  0  0  0  2  0  0  0  0  0  0
  190.1130  177.0080  137.0690 C   0  0  0  0  0  2  0  0  0  0  0  0
  188.6670  176.6630  136.7170 C   0  0  0  0  0  2  0  0  0  0  0  0
  187.0520  178.3820  135.2810 O   0  0  0  0  0  0  0  0  0  0  0  0
  186.5520  177.8650  137.6840 O   0  0  0  0  0  1  0  0  0  0  0  0
  188.7870  179.4820  137.2290 O   0  0  0  0  0  1  0  0  0  0  0  0
  187.7280  178.1990  136.8130 P   0  0  0  0  0  0  0  0  0  0  0  0
  185.0180  178.8140  144.3790 C   0  0  0  0  0  2  0  0  0  0  0  0
  183.8810  178.7680  143.4280 C   0  0  0  0  0  2  0  0  0  0  0  0
  182.5820  178.7490  144.2280 C   0  0  0  0  0  2  0  0  0  0  0  0
  181.3360  179.0050  143.3240 C   0  0  0  0  0  2  0  0  0  0  0  0
  181.6120  178.7860  141.8380 C   0  0  0  0  0  2  0  0  0  0  0  0
  180.7940  179.5640  140.8900 C   0  0  0  0  0  2  0  0  0  0  0  0
  181.0160  181.0840  139.0630 O   0  0  0  0  0  1  0  0  0  0  0  0
  181.2860  179.7800  139.4620 C   0  0  1  0  0  3  0  0  0  0  0  0
  182.8090  179.5990  139.3860 C   0  0  0  0  0  2  0  0  0  0  0  0
  183.0960  178.4480  138.4770 C   0  0  0  0  0  2  0  0  0  0  0  0
  181.9270  178.0730  137.5330 C   0  0  0  0  0  1  0  0  0  0  0  0
  1  8  2  0  0  0  0
  2 12  1  6  0  0  0
  2  4  1  0  0  0  0
  2  1  1  0  0  0  0
  3 11  1  0  0  0  0
  3  9  1  0  0  0  0
  4  7  2  0  0  0  0
  5 25  1  0  0  0  0
  5  4  1  0  0  0  0
  6  1  1  6  0  0  0
  6  3  1  0  0  0  0
  7  6  1  0  0  0  0
  8 10  1  0  0  0  0
 10 11  2  0  0  0  0
 14 15  1  0  0  0  0
 15 13  2  0  0  0  0
 15 12  1  0  0  0  0
 17 16  2  0  0  0  0
 17 18  1  0  0  0  0
 18 14  1  0  0  0  0
 19 17  1  0  0  0  0
 20 24  1  0  0  0  0
 20 19  1  0  0  0  0
 21 24  2  0  0  0  0
 24 23  1  0  0  0  0
 24 22  1  0  0  0  0
 26 27  1  0  0  0  0
 26 25  1  0  0  0  0
 28 27  1  0  0  0  0
 29 28  1  0  0  0  0
 30 29  1  0  0  0  0
 32 31  1  1  0  0  0
 32 30  1  0  0  0  0
 33 32  1  0  0  0  0
 34 33  1  0  0  0  0
 35 34  1  0  0  0  0
M  END
>  <MODEL>
5

>  <REMARK>
 VINA RESULT:      -6.9      3.035      8.034
  Name = 
  15 active torsions:
  status: ('A' for Active; 'I' for Inactive)
    1  A    between atoms: C_1  and  C_14
    2  A    between atoms: C_1  and  C_32
    3  A    between atoms: C_5  and  C_22
    4  A    between atoms: C_6  and  C_31
    5  A    between atoms: C_7  and  C_16
    6  A    between atoms: C_7  and  C_27
    7  A    between atoms: N_12  and  C_32
    8  A    between atoms: C_14  and  C_16
    9  A    between atoms: C_18  and  C_28
   10  A    between atoms: C_22  and  C_30
   11  A    between atoms: N_25  and  N_26
   12  A    between atoms: C_27  and  C_29
   13  A    between atoms: C_28  and  C_34
   14  A    between atoms: C_29  and  C_31
   15  A    between atoms: C_34  and  P_35
                            x       y       z     vdW  Elec       q    Type
                         _______ _______ _______ _____ _____    ______ ____

>  <TORSDO>
F 15

$$$$
=
 OpenBabel10232410473D

 35 36  0  0  1  0  0  0  0  0999 V2000
  187.0330  178.0570  139.2690 C   0  0  0  0  0  0  0  0  0  0  0  0
  188.5310  177.9880  139.1900 C   0  0  1  0  0  3  0  0  0  0  0  0
  185.5770  179.1650  140.9610 N   0  0  0  0  0  0  0  0  0  0  0  0
  188.8800  178.0920  140.6980 C   0  0  0  0  0  0  0  0  0  0  0  0
  189.8470  177.2180  141.4030 N   0  0  0  0  0  2  0  0  0  0  0  0
  186.6850  178.1940  140.6700 C   0  0  2  0  0  3  0  0  0  0  0  0
  187.8480  178.4470  141.4200 N   0  0  0  0  0  0  0  0  0  0  0  0
  186.0750  178.0710  138.3370 C   0  0  0  0  0  3  0  0  0  0  0  0
  185.3000  179.4010  142.3780 C   0  0  0  0  0  1  0  0  0  0  0  0
  184.5810  178.3830  138.7830 C   0  0  0  0  0  3  0  0  0  0  0  0
  184.4330  178.9130  140.0550 C   0  0  0  0  0  3  0  0  0  0  0  0
  189.2700  176.8110  138.5350 C   0  0  0  0  0  2  0  0  0  0  0  0
  189.3790  178.3720  136.8660 O   0  0  0  0  0  0  0  0  0  0  0  0
  190.4480  176.4490  136.2420 N   0  0  0  0  0  2  0  0  0  0  0  0
  189.6880  177.2190  137.1620 C   0  0  0  0  0  0  0  0  0  0  0  0
  191.8060  174.2440  137.6820 O   0  0  0  0  0  0  0  0  0  0  0  0
  192.3630  175.3570  137.4600 C   0  0  0  0  0  0  0  0  0  0  0  0
  191.8020  176.3090  136.5530 N   0  0  0  0  0  2  0  0  0  0  0  0
  193.7010  175.6360  138.0810 C   0  0  0  0  0  2  0  0  0  0  0  0
  194.8060  174.9510  137.2790 C   0  0  0  0  0  2  0  0  0  0  0  0
  197.3270  173.9070  137.7040 O   0  0  0  0  0  0  0  0  0  0  0  0
  196.0850  175.0500  139.5600 O   0  0  0  0  0  1  0  0  0  0  0  0
  195.1050  172.5420  138.8070 O   0  0  0  0  0  1  0  0  0  0  0  0
  195.8310  174.0580  138.4630 P   0  0  0  0  0  0  0  0  0  0  0  0
  190.0450  177.1410  142.8490 C   0  0  0  0  0  2  0  0  0  0  0  0
  190.3670  175.7510  143.2530 C   0  0  0  0  0  2  0  0  0  0  0  0
  191.5920  175.7850  144.1640 C   0  0  0  0  0  2  0  0  0  0  0  0
  191.5160  176.9480  145.2010 C   0  0  0  0  0  2  0  0  0  0  0  0
  190.8710  176.5380  146.5230 C   0  0  0  0  0  2  0  0  0  0  0  0
  189.9320  177.5000  147.1280 C   0  0  0  0  0  2  0  0  0  0  0  0
  187.8700  177.6020  148.3270 O   0  0  0  0  0  1  0  0  0  0  0  0
  188.4350  177.2080  147.1190 C   0  0  1  0  0  3  0  0  0  0  0  0
  187.7380  178.0200  146.0170 C   0  0  0  0  0  2  0  0  0  0  0  0
  186.3620  177.4690  145.8320 C   0  0  0  0  0  2  0  0  0  0  0  0
  185.2250  178.4340  146.2500 C   0  0  0  0  0  1  0  0  0  0  0  0
  2 12  1  1  0  0  0
  2  1  1  0  0  0  0
  2  4  1  0  0  0  0
  3  9  1  0  0  0  0
  4  5  1  0  0  0  0
  4  7  2  0  0  0  0
  5 25  1  0  0  0  0
  6  1  1  6  0  0  0
  6  3  1  0  0  0  0
  6  7  1  0  0  0  0
  8 10  1  0  0  0  0
  8  1  2  0  0  0  0
 10 11  2  0  0  0  0
 11  3  1  0  0  0  0
 13 15  2  0  0  0  0
 14 18  1  0  0  0  0
 14 15  1  0  0  0  0
 15 12  1  0  0  0  0
 17 16  2  0  0  0  0
 17 19  1  0  0  0  0
 18 17  1  0  0  0  0
 20 19  1  0  0  0  0
 20 24  1  0  0  0  0
 21 24  2  0  0  0  0
 24 23  1  0  0  0  0
 24 22  1  0  0  0  0
 25 26  1  0  0  0  0
 26 27  1  0  0  0  0
 27 28  1  0  0  0  0
 28 29  1  0  0  0  0
 29 30  1  0  0  0  0
 32 30  1  0  0  0  0
 32 31  1  1  0  0  0
 33 32  1  0  0  0  0
 34 33  1  0  0  0  0
 34 35  1  0  0  0  0
M  END
>  <MODEL>
6

>  <REMARK>
 VINA RESULT:      -6.8      3.861      8.068
  Name = 
  15 active torsions:
  status: ('A' for Active; 'I' for Inactive)
    1  A    between atoms: C_1  and  C_14
    2  A    between atoms: C_1  and  C_32
    3  A    between atoms: C_5  and  C_22
    4  A    between atoms: C_6  and  C_31
    5  A    between atoms: C_7  and  C_16
    6  A    between atoms: C_7  and  C_27
    7  A    between atoms: N_12  and  C_32
    8  A    between atoms: C_14  and  C_16
    9  A    between atoms: C_18  and  C_28
   10  A    between atoms: C_22  and  C_30
   11  A    between atoms: N_25  and  N_26
   12  A    between atoms: C_27  and  C_29
   13  A    between atoms: C_28  and  C_34
   14  A    between atoms: C_29  and  C_31
   15  A    between atoms: C_34  and  P_35
                            x       y       z     vdW  Elec       q    Type
                         _______ _______ _______ _____ _____    ______ ____

>  <TORSDO>
F 15

$$$$
=
 OpenBabel10232410473D

 35 36  0  0  1  0  0  0  0  0999 V2000
  188.5360  177.5840  144.7830 C   0  0  0  0  0  0  0  0  0  0  0  0
  188.4750  177.3490  143.3020 C   0  0  1  0  0  3  0  0  0  0  0  0
  186.6990  177.6340  146.4660 N   0  0  0  0  0  0  0  0  0  0  0  0
  187.0480  177.8810  143.0090 C   0  0  0  0  0  0  0  0  0  0  0  0
  186.6980  178.7980  141.8980 N   0  0  0  0  0  2  0  0  0  0  0  0
  187.2650  178.1590  145.1780 C   0  0  2  0  0  3  0  0  0  0  0  0
  186.3600  178.0770  144.1050 N   0  0  0  0  0  0  0  0  0  0  0  0
  189.4650  177.3160  145.7060 C   0  0  0  0  0  3  0  0  0  0  0  0
  185.3620  178.1170  146.8120 C   0  0  0  0  0  1  0  0  0  0  0  0
  189.0920  177.5040  147.2410 C   0  0  0  0  0  3  0  0  0  0  0  0
  187.7410  177.6420  147.5170 C   0  0  0  0  0  3  0  0  0  0  0  0
  189.4960  177.9540  142.3260 C   0  0  0  0  0  2  0  0  0  0  0  0
  190.2180  175.7870  142.1930 O   0  0  0  0  0  0  0  0  0  0  0  0
  190.5810  176.8790  140.2170 N   0  0  0  0  0  2  0  0  0  0  0  0
  190.1420  176.8430  141.5670 C   0  0  0  0  0  0  0  0  0  0  0  0
  188.9930  179.1540  139.1730 O   0  0  0  0  0  0  0  0  0  0  0  0
  188.6680  177.9490  138.9740 C   0  0  0  0  0  0  0  0  0  0  0  0
  189.5660  176.8730  139.2570 N   0  0  0  0  0  2  0  0  0  0  0  0
  187.3490  177.6520  138.3220 C   0  0  0  0  0  2  0  0  0  0  0  0
  187.3950  178.0380  136.8440 C   0  0  0  0  0  2  0  0  0  0  0  0
  187.2820  175.2830  136.9880 O   0  0  0  0  0  1  0  0  0  0  0  0
  186.5910  176.4830  134.8970 O   0  0  0  0  0  0  0  0  0  0  0  0
  189.3350  176.4620  135.4360 O   0  0  0  0  0  1  0  0  0  0  0  0
  187.6900  176.5190  135.9190 P   0  0  0  0  0  0  0  0  0  0  0  0
  185.4220  179.4860  141.7150 C   0  0  0  0  0  2  0  0  0  0  0  0
  184.5000  178.6550  140.9040 C   0  0  0  0  0  2  0  0  0  0  0  0
  183.4440  178.0600  141.8320 C   0  0  0  0  0  2  0  0  0  0  0  0
  183.0850  179.0260  143.0040 C   0  0  0  0  0  2  0  0  0  0  0  0
  181.5830  179.1450  143.2510 C   0  0  0  0  0  2  0  0  0  0  0  0
  180.6970  178.4850  142.2750 C   0  0  0  0  0  2  0  0  0  0  0  0
  180.3900  180.6460  141.3050 O   0  0  0  0  0  1  0  0  0  0  0  0
  180.0040  179.3140  141.1980 C   0  0  1  0  0  3  0  0  0  0  0  0
  180.4290  178.8410  139.8000 C   0  0  0  0  0  2  0  0  0  0  0  0
  180.5050  177.3490  139.8180 C   0  0  0  0  0  2  0  0  0  0  0  0
  181.5730  176.7520  138.8670 C   0  0  0  0  0  1  0  0  0  0  0  0
  1  6  1  0  0  0  0
  1  8  2  0  0  0  0
  2 12  1  6  0  0  0
  2  1  1  0  0  0  0
  3  9  1  0  0  0  0
  3 11  1  0  0  0  0
  4  2  1  0  0  0  0
  4  7  2  0  0  0  0
  5  4  1  0  0  0  0
  6  7  1  6  0  0  0
  6  3  1  0  0  0  0
  8 10  1  0  0  0  0
 10 11  2  0  0  0  0
 14 15  1  0  0  0  0
 15 13  2  0  0  0  0
 15 12  1  0  0  0  0
 17 16  2  0  0  0  0
 17 18  1  0  0  0  0
 18 14  1  0  0  0  0
 19 17  1  0  0  0  0
 20 19  1  0  0  0  0
 22 24  2  0  0  0  0
 23 24  1  0  0  0  0
 24 20  1  0  0  0  0
 24 21  1  0  0  0  0
 25  5  1  0  0  0  0
 26 25  1  0  0  0  0
 26 27  1  0  0  0  0
 27 28  1  0  0  0  0
 28 29  1  0  0  0  0
 30 29  1  0  0  0  0
 32 31  1  1  0  0  0
 32 30  1  0  0  0  0
 33 34  1  0  0  0  0
 33 32  1  0  0  0  0
 35 34  1  0  0  0  0
M  END
>  <MODEL>
7

>  <REMARK>
 VINA RESULT:      -6.7      2.944      7.778
  Name = 
  15 active torsions:
  status: ('A' for Active; 'I' for Inactive)
    1  A    between atoms: C_1  and  C_14
    2  A    between atoms: C_1  and  C_32
    3  A    between atoms: C_5  and  C_22
    4  A    between atoms: C_6  and  C_31
    5  A    between atoms: C_7  and  C_16
    6  A    between atoms: C_7  and  C_27
    7  A    between atoms: N_12  and  C_32
    8  A    between atoms: C_14  and  C_16
    9  A    between atoms: C_18  and  C_28
   10  A    between atoms: C_22  and  C_30
   11  A    between atoms: N_25  and  N_26
   12  A    between atoms: C_27  and  C_29
   13  A    between atoms: C_28  and  C_34
   14  A    between atoms: C_29  and  C_31
   15  A    between atoms: C_34  and  P_35
                            x       y       z     vdW  Elec       q    Type
                         _______ _______ _______ _____ _____    ______ ____

>  <TORSDO>
F 15

$$$$
=
 OpenBabel10232410473D

 35 36  0  0  1  0  0  0  0  0999 V2000
  188.6100  177.5420  145.1810 C   0  0  0  0  0  0  0  0  0  0  0  0
  188.5990  177.2430  143.7090 C   0  0  1  0  0  3  0  0  0  0  0  0
  186.7270  177.5840  146.8120 N   0  0  0  0  0  0  0  0  0  0  0  0
  187.1590  177.7010  143.3580 C   0  0  0  0  0  0  0  0  0  0  0  0
  186.8020  178.5540  142.2000 N   0  0  0  0  0  2  0  0  0  0  0  0
  187.3050  178.0780  145.5180 C   0  0  2  0  0  3  0  0  0  0  0  0
  186.4340  177.9120  144.4270 N   0  0  0  0  0  0  0  0  0  0  0  0
  189.5240  177.3540  146.1370 C   0  0  0  0  0  3  0  0  0  0  0  0
  185.3620  178.0230  147.1030 C   0  0  0  0  0  1  0  0  0  0  0  0
  189.1020  177.5900  147.6530 C   0  0  0  0  0  3  0  0  0  0  0  0
  187.7390  177.6810  147.8880 C   0  0  0  0  0  3  0  0  0  0  0  0
  189.6200  177.8500  142.7350 C   0  0  0  0  0  2  0  0  0  0  0  0
  190.0290  175.6180  142.4430 O   0  0  0  0  0  0  0  0  0  0  0  0
  191.1670  176.8550  140.8920 N   0  0  0  0  0  2  0  0  0  0  0  0
  190.3120  176.7380  142.0200 C   0  0  0  0  0  0  0  0  0  0  0  0
  190.8770  175.1780  138.4660 O   0  0  0  0  0  0  0  0  0  0  0  0
  190.6340  176.4190  138.4690 C   0  0  0  0  0  0  0  0  0  0  0  0
  190.5300  177.1600  139.6870 N   0  0  0  0  0  2  0  0  0  0  0  0
  190.3400  177.1040  137.1660 C   0  0  0  0  0  2  0  0  0  0  0  0
  188.9220  176.7700  136.7060 C   0  0  0  0  0  2  0  0  0  0  0  0
  187.0560  178.4570  135.5660 O   0  0  0  0  0  0  0  0  0  0  0  0
  186.8810  177.8030  137.9810 O   0  0  0  0  0  1  0  0  0  0  0  0
  188.9570  179.5660  137.3460 O   0  0  0  0  0  1  0  0  0  0  0  0
  187.9230  178.2440  136.9940 P   0  0  0  0  0  0  0  0  0  0  0  0
  185.5030  179.1770  141.9560 C   0  0  0  0  0  2  0  0  0  0  0  0
  184.9880  178.7910  140.6200 C   0  0  0  0  0  2  0  0  0  0  0  0
  183.6960  178.0030  140.8090 C   0  0  0  0  0  2  0  0  0  0  0  0
  183.1000  177.5230  139.4490 C   0  0  0  0  0  2  0  0  0  0  0  0
  183.1730  178.5820  138.3510 C   0  0  0  0  0  2  0  0  0  0  0  0
  181.9750  179.4180  138.1560 C   0  0  0  0  0  2  0  0  0  0  0  0
  182.9390  181.4940  138.8360 O   0  0  0  0  0  1  0  0  0  0  0  0
  181.8040  180.7010  138.9640 C   0  0  1  0  0  3  0  0  0  0  0  0
  180.6250  181.5230  138.4230 C   0  0  0  0  0  2  0  0  0  0  0  0
  181.0860  182.2490  137.2010 C   0  0  0  0  0  2  0  0  0  0  0  0
  180.9370  183.7890  137.2790 C   0  0  0  0  0  1  0  0  0  0  0  0
  1  6  1  0  0  0  0
  1  8  2  0  0  0  0
  2 12  1  6  0  0  0
  2  1  1  0  0  0  0
  3  9  1  0  0  0  0
  3 11  1  0  0  0  0
  4  2  1  0  0  0  0
  4  7  2  0  0  0  0
  5  4  1  0  0  0  0
  6  7  1  6  0  0  0
  6  3  1  0  0  0  0
  8 10  1  0  0  0  0
 10 11  2  0  0  0  0
 14 15  1  0  0  0  0
 15 13  2  0  0  0  0
 15 12  1  0  0  0  0
 16 17  2  0  0  0  0
 17 18  1  0  0  0  0
 18 14  1  0  0  0  0
 19 17  1  0  0  0  0
 20 24  1  0  0  0  0
 20 19  1  0  0  0  0
 21 24  2  0  0  0  0
 24 23  1  0  0  0  0
 24 22  1  0  0  0  0
 25  5  1  0  0  0  0
 26 27  1  0  0  0  0
 26 25  1  0  0  0  0
 28 27  1  0  0  0  0
 29 28  1  0  0  0  0
 30 29  1  0  0  0  0
 30 32  1  0  0  0  0
 32 31  1  6  0  0  0
 33 32  1  0  0  0  0
 34 35  1  0  0  0  0
 34 33  1  0  0  0  0
M  END
>  <MODEL>
8

>  <REMARK>
 VINA RESULT:      -6.7      3.179      7.454
  Name = 
  15 active torsions:
  status: ('A' for Active; 'I' for Inactive)
    1  A    between atoms: C_1  and  C_14
    2  A    between atoms: C_1  and  C_32
    3  A    between atoms: C_5  and  C_22
    4  A    between atoms: C_6  and  C_31
    5  A    between atoms: C_7  and  C_16
    6  A    between atoms: C_7  and  C_27
    7  A    between atoms: N_12  and  C_32
    8  A    between atoms: C_14  and  C_16
    9  A    between atoms: C_18  and  C_28
   10  A    between atoms: C_22  and  C_30
   11  A    between atoms: N_25  and  N_26
   12  A    between atoms: C_27  and  C_29
   13  A    between atoms: C_28  and  C_34
   14  A    between atoms: C_29  and  C_31
   15  A    between atoms: C_34  and  P_35
                            x       y       z     vdW  Elec       q    Type
                         _______ _______ _______ _____ _____    ______ ____

>  <TORSDO>
F 15

$$$$
=
 OpenBabel10232410473D

 35 36  0  0  1  0  0  0  0  0999 V2000
  189.1920  176.4480  137.7310 C   0  0  0  0  0  0  0  0  0  0  0  0
  189.7390  177.2240  138.8950 C   0  0  1  0  0  3  0  0  0  0  0  0
  187.3780  177.0450  136.1310 N   0  0  0  0  0  0  0  0  0  0  0  0
  188.4800  178.0450  139.2800 C   0  0  0  0  0  0  0  0  0  0  0  0
  187.9670  178.2080  140.6600 N   0  0  0  0  0  2  0  0  0  0  0  0
  187.8120  176.8570  137.5560 C   0  0  2  0  0  3  0  0  0  0  0  0
  187.5490  177.9780  138.3630 N   0  0  0  0  0  0  0  0  0  0  0  0
  189.7440  175.5740  136.8840 C   0  0  0  0  0  3  0  0  0  0  0  0
  186.0260  177.5740  135.9460 C   0  0  0  0  0  1  0  0  0  0  0  0
  188.9080  175.1120  135.6120 C   0  0  0  0  0  3  0  0  0  0  0  0
  187.7920  175.8780  135.3180 C   0  0  0  0  0  3  0  0  0  0  0  0
  190.3470  176.5420  140.1300 C   0  0  0  0  0  2  0  0  0  0  0  0
  191.6540  177.5260  141.7300 O   0  0  0  0  0  0  0  0  0  0  0  0
  192.6560  177.6570  139.6790 N   0  0  0  0  0  2  0  0  0  0  0  0
  191.5780  177.2880  140.5260 C   0  0  0  0  0  0  0  0  0  0  0  0
  193.0800  176.5600  136.9590 O   0  0  0  0  0  0  0  0  0  0  0  0
  193.4670  175.9600  138.0020 C   0  0  0  0  0  0  0  0  0  0  0  0
  193.4870  176.6090  139.2760 N   0  0  0  0  0  2  0  0  0  0  0  0
  194.0200  174.5710  137.8780 C   0  0  0  0  0  2  0  0  0  0  0  0
  195.2900  174.5850  137.0290 C   0  0  0  0  0  2  0  0  0  0  0  0
  197.7470  175.4160  137.9740 O   0  0  0  0  0  1  0  0  0  0  0  0
  196.0920  174.3190  139.5060 O   0  0  0  0  0  1  0  0  0  0  0  0
  197.3100  172.6400  137.6310 O   0  0  0  0  0  0  0  0  0  0  0  0
  196.6520  174.1460  138.1250 P   0  0  0  0  0  0  0  0  0  0  0  0
  186.6800  178.7870  141.0400 C   0  0  0  0  0  2  0  0  0  0  0  0
  186.1590  178.1300  142.2630 C   0  0  0  0  0  2  0  0  0  0  0  0
  187.3180  177.9290  143.2350 C   0  0  0  0  0  2  0  0  0  0  0  0
  186.8580  177.2400  144.5570 C   0  0  0  0  0  2  0  0  0  0  0  0
  186.7380  178.2070  145.7330 C   0  0  0  0  0  2  0  0  0  0  0  0
  187.1180  177.6880  147.0590 C   0  0  0  0  0  2  0  0  0  0  0  0
  188.4810  178.1000  148.9750 O   0  0  0  0  0  1  0  0  0  0  0  0
  188.5250  177.9340  147.5960 C   0  0  1  0  0  3  0  0  0  0  0  0
  189.4230  176.7190  147.3230 C   0  0  0  0  0  2  0  0  0  0  0  0
  190.6010  177.1790  146.5280 C   0  0  0  0  0  2  0  0  0  0  0  0
  190.4780  176.9320  145.0040 C   0  0  0  0  0  1  0  0  0  0  0  0
  1  2  1  0  0  0  0
  2  4  1  0  0  0  0
  2 12  1  1  0  0  0
  3  6  1  0  0  0  0
  4  5  1  0  0  0  0
  5 25  1  0  0  0  0
  6  1  1  6  0  0  0
  6  7  1  0  0  0  0
  7  4  2  0  0  0  0
  8  1  2  0  0  0  0
  9  3  1  0  0  0  0
 10  8  1  0  0  0  0
 11 10  2  0  0  0  0
 11  3  1  0  0  0  0
 12 15  1  0  0  0  0
 14 15  1  0  0  0  0
 15 13  2  0  0  0  0
 16 17  2  0  0  0  0
 17 18  1  0  0  0  0
 18 14  1  0  0  0  0
 19 17  1  0  0  0  0
 20 19  1  0  0  0  0
 20 24  1  0  0  0  0
 21 24  1  0  0  0  0
 23 24  2  0  0  0  0
 24 22  1  0  0  0  0
 25 26  1  0  0  0  0
 26 27  1  0  0  0  0
 27 28  1  0  0  0  0
 28 29  1  0  0  0  0
 29 30  1  0  0  0  0
 30 32  1  0  0  0  0
 32 31  1  1  0  0  0
 33 32  1  0  0  0  0
 34 33  1  0  0  0  0
 35 34  1  0  0  0  0
M  END
>  <MODEL>
9

>  <REMARK>
 VINA RESULT:      -6.7      4.156      8.718
  Name = 
  15 active torsions:
  status: ('A' for Active; 'I' for Inactive)
    1  A    between atoms: C_1  and  C_14
    2  A    between atoms: C_1  and  C_32
    3  A    between atoms: C_5  and  C_22
    4  A    between atoms: C_6  and  C_31
    5  A    between atoms: C_7  and  C_16
    6  A    between atoms: C_7  and  C_27
    7  A    between atoms: N_12  and  C_32
    8  A    between atoms: C_14  and  C_16
    9  A    between atoms: C_18  and  C_28
   10  A    between atoms: C_22  and  C_30
   11  A    between atoms: N_25  and  N_26
   12  A    between atoms: C_27  and  C_29
   13  A    between atoms: C_28  and  C_34
   14  A    between atoms: C_29  and  C_31
   15  A    between atoms: C_34  and  P_35
                            x       y       z     vdW  Elec       q    Type
                         _______ _______ _______ _____ _____    ______ ____

>  <TORSDO>
F 15

$$$$
