=
 OpenBabel10232412143D

 48 50  0  0  1  0  0  0  0  0999 V2000
  185.3450  177.9340  138.5540 N   0  0  0  0  0  2  0  0  0  0  0  0
  186.3990  178.3710  139.4250 C   0  0  0  0  0  2  0  0  0  0  0  0
  188.1700  177.5130  137.8830 C   0  0  2  0  0  3  0  0  0  0  0  0
  187.6830  178.1820  136.6710 C   0  0  0  0  0  3  0  0  0  0  0  0
  188.6430  178.0030  140.3280 C   0  0  0  0  0  3  0  0  0  0  0  0
  187.7060  178.1310  139.1790 C   0  0  0  0  0  0  0  0  0  0  0  0
  186.4020  178.1670  136.3670 C   0  0  0  0  0  3  0  0  0  0  0  0
  189.6280  177.2300  137.8090 C   0  0  0  0  0  2  0  0  0  0  0  0
  190.3710  176.9820  138.8640 C   0  0  0  0  0  0  0  0  0  0  0  0
  189.9080  177.4980  140.2210 C   0  0  0  0  0  0  0  0  0  0  0  0
  185.3690  177.6330  137.2590 C   0  0  2  0  0  3  0  0  0  0  0  0
  184.3050  176.8230  136.6540 C   0  0  0  0  0  0  0  0  0  0  0  0
  183.4180  177.3680  135.9380 O   0  0  0  0  0  0  0  0  0  0  0  0
  184.2560  175.4230  136.8290 O   0  0  0  0  0  0  0  0  0  0  0  0
  185.0910  173.3000  137.6160 C   0  0  0  0  0  1  0  0  0  0  0  0
  185.4400  174.6600  137.0530 C   0  0  0  0  0  2  0  0  0  0  0  0
  191.7190  176.4980  138.5120 N   0  0  0  0  0  2  0  0  0  0  0  0
  192.2920  175.2240  138.0170 C   0  0  1  0  0  3  0  0  0  0  0  0
  191.2550  174.2860  137.3600 C   0  0  0  0  0  1  0  0  0  0  0  0
  194.0020  176.7740  137.2640 O   0  0  0  0  0  1  0  0  0  0  0  0
  193.4460  175.5110  137.0230 C   0  0  1  0  0  3  0  0  0  0  0  0
  194.5300  173.6520  138.1040 O   0  0  0  0  0  0  0  0  0  0  0  0
  194.4970  174.4410  137.1550 C   0  0  0  0  0  0  0  0  0  0  0  0
  195.5850  174.3570  136.1210 C   0  0  0  0  0  2  0  0  0  0  0  0
  196.5250  175.3790  136.3350 O   0  0  0  0  0  0  0  0  0  0  0  0
  199.3410  175.1750  136.0270 O   0  0  0  0  0  0  0  0  0  0  0  0
  197.9510  174.5690  136.8240 P   0  0  0  0  0  0  0  0  0  0  0  0
  197.7960  173.1000  136.4570 O   0  0  0  0  0  1  0  0  0  0  0  0
  198.1680  174.6930  138.5120 O   0  0  0  0  0  1  0  0  0  0  0  0
  190.7330  177.2550  141.4550 C   0  0  0  0  0  2  0  0  0  0  0  0
  189.6990  176.5490  142.7800 S   0  0  0  0  0  0  0  0  0  0  0  0
  190.4930  177.2480  144.2890 C   0  0  2  0  0  3  0  0  0  0  0  0
  189.4950  177.9770  145.0550 N   0  0  0  0  0  2  0  0  0  0  0  0
  189.7160  176.5560  146.8880 O   0  0  0  0  0  0  0  0  0  0  0  0
  189.4140  177.7190  146.4660 C   0  0  0  0  0  0  0  0  0  0  0  0
  188.6560  178.6560  147.3480 C   0  0  0  0  0  2  0  0  0  0  0  0
  187.3410  177.9900  147.7840 C   0  0  0  0  0  2  0  0  0  0  0  0
  186.1020  177.4230  143.8550 C   0  0  0  0  0  2  0  0  0  0  0  0
  185.6730  179.7350  142.6920 C   0  0  0  0  0  1  0  0  0  0  0  0
  183.4440  178.6780  144.6820 C   0  0  0  0  0  1  0  0  0  0  0  0
  185.8830  179.8590  147.5340 O   0  0  0  0  0  0  0  0  0  0  0  0
  185.9110  178.9290  143.9850 C   0  0  1  0  0  3  0  0  0  0  0  0
  185.4330  178.0920  146.0740 N   0  0  0  0  0  0  0  0  0  0  0  0
  186.1640  178.6770  147.1610 C   0  0  0  0  0  0  0  0  0  0  0  0
  186.0090  176.9540  145.3100 C   0  0  0  0  0  2  0  0  0  0  0  0
  184.8910  179.0340  145.1020 C   0  0  2  0  0  3  0  0  0  0  0  0
  191.1980  179.5760  144.0180 N   0  0  0  0  0  1  0  0  0  0  0  0
  191.6590  178.1850  143.9370 C   0  0  0  0  0  2  0  0  0  0  0  0
  1  2  1  0  0  0  0
  3  4  1  6  0  0  0
  3  6  1  0  0  0  0
  6  2  1  0  0  0  0
  6  5  2  0  0  0  0
  7  4  2  0  0  0  0
  7 11  1  0  0  0  0
  8  3  1  0  0  0  0
  8  9  1  0  0  0  0
  9 10  2  0  0  0  0
 10  5  1  0  0  0  0
 10 30  1  0  0  0  0
 11 12  1  6  0  0  0
 11  1  1  0  0  0  0
 12 14  1  0  0  0  0
 13 12  2  0  0  0  0
 14 16  1  0  0  0  0
 16 15  1  0  0  0  0
 17  9  1  0  0  0  0
 18 19  1  6  0  0  0
 18 17  1  0  0  0  0
 21 23  1  0  0  0  0
 21 20  1  1  0  0  0
 21 18  1  0  0  0  0
 23 22  2  0  0  0  0
 24 25  1  0  0  0  0
 24 23  1  0  0  0  0
 25 27  1  0  0  0  0
 26 27  2  0  0  0  0
 27 29  1  0  0  0  0
 28 27  1  0  0  0  0
 30 31  1  0  0  0  0
 31 32  1  0  0  0  0
 32 48  1  6  0  0  0
 32 33  1  0  0  0  0
 33 35  1  0  0  0  0
 35 34  2  0  0  0  0
 35 36  1  0  0  0  0
 36 37  1  0  0  0  0
 38 42  1  0  0  0  0
 38 45  1  0  0  0  0
 42 39  1  6  0  0  0
 42 46  1  0  0  0  0
 43 44  1  0  0  0  0
 44 41  2  0  0  0  0
 44 37  1  0  0  0  0
 45 43  1  0  0  0  0
 46 40  1  6  0  0  0
 46 43  1  0  0  0  0
 48 47  1  0  0  0  0
M  END
>  <MODEL>
1

>  <REMARK>
 VINA RESULT:      -6.9      0.000      0.000
  Name = 
  18 active torsions:
  status: ('A' for Active; 'I' for Inactive)
    1  A    between atoms: C_4  and  C_27
    2  A    between atoms: C_4  and  C_45
    3  A    between atoms: S_9  and  C_44
    4  A    between atoms: S_9  and  C_47
    5  A    between atoms: N_10  and  C_47
    6  A    between atoms: C_11  and  O_23
    7  A    between atoms: C_11  and  C_46
    8  A    between atoms: C_12  and  N_22
    9  A    between atoms: C_12  and  C_27
   10  A    between atoms: C_17  and  O_23
   11  A    between atoms: N_22  and  C_39
   12  A    between atoms: C_28  and  C_29
   13  A    between atoms: C_28  and  C_41
   14  A    between atoms: O_30  and  P_34
   15  A    between atoms: O_30  and  C_45
   16  A    between atoms: C_33  and  C_41
   17  A    between atoms: C_43  and  C_44
   18  A    between atoms: C_47  and  C_48
                            x       y       z     vdW  Elec       q    Type
                         _______ _______ _______ _____ _____    ______ ____

>  <TORSDO>
F 18

$$$$
=
 OpenBabel10232412143D

 48 50  0  0  1  0  0  0  0  0999 V2000
  191.9170  176.5470  143.5590 N   0  0  0  0  0  2  0  0  0  0  0  0
  191.6410  176.8420  142.1810 C   0  0  0  0  0  2  0  0  0  0  0  0
  189.5690  178.1140  142.7600 C   0  0  2  0  0  3  0  0  0  0  0  0
  190.1840  179.0030  143.7540 C   0  0  0  0  0  3  0  0  0  0  0  0
  189.9820  177.2180  140.4230 C   0  0  0  0  0  3  0  0  0  0  0  0
  190.5340  177.5000  141.7760 C   0  0  0  0  0  0  0  0  0  0  0  0
  191.0060  178.5220  144.6640 C   0  0  0  0  0  3  0  0  0  0  0  0
  188.3550  178.7220  142.1550 C   0  0  0  0  0  2  0  0  0  0  0  0
  187.8370  178.3210  141.0160 C   0  0  0  0  0  0  0  0  0  0  0  0
  188.7370  177.6070  140.0150 C   0  0  0  0  0  0  0  0  0  0  0  0
  191.4800  177.1350  144.6680 C   0  0  2  0  0  3  0  0  0  0  0  0
  191.5410  176.4450  145.9620 C   0  0  0  0  0  0  0  0  0  0  0  0
  192.2560  175.4120  146.1010 O   0  0  0  0  0  0  0  0  0  0  0  0
  190.8310  176.9230  147.0850 O   0  0  0  0  0  0  0  0  0  0  0  0
  188.8060  177.9040  147.9580 C   0  0  0  0  0  1  0  0  0  0  0  0
  189.4210  176.7450  147.2050 C   0  0  0  0  0  2  0  0  0  0  0  0
  186.5110  178.9100  140.7520 N   0  0  0  0  0  2  0  0  0  0  0  0
  185.1120  178.5780  141.1130 C   0  0  1  0  0  3  0  0  0  0  0  0
  184.6900  179.0870  142.5090 C   0  0  0  0  0  1  0  0  0  0  0  0
  184.8350  179.8900  139.0900 O   0  0  0  0  0  1  0  0  0  0  0  0
  184.1410  179.1260  140.0370 C   0  0  1  0  0  3  0  0  0  0  0  0
  182.6910  177.2040  139.9820 O   0  0  0  0  0  0  0  0  0  0  0  0
  183.4340  177.9770  139.3690 C   0  0  0  0  0  0  0  0  0  0  0  0
  183.6790  177.7210  137.9090 C   0  0  0  0  0  2  0  0  0  0  0  0
  182.8750  176.6560  137.4710 O   0  0  0  0  0  0  0  0  0  0  0  0
  183.4370  174.7360  135.4540 O   0  0  0  0  0  0  0  0  0  0  0  0
  183.9780  175.4780  136.9000 P   0  0  0  0  0  0  0  0  0  0  0  0
  184.0990  174.4030  137.9690 O   0  0  0  0  0  1  0  0  0  0  0  0
  185.5170  176.1680  136.6390 O   0  0  0  0  0  1  0  0  0  0  0  0
  188.1960  177.1440  138.6910 C   0  0  0  0  0  2  0  0  0  0  0  0
  189.0300  178.0160  137.3240 S   0  0  0  0  0  0  0  0  0  0  0  0
  189.8440  176.6240  136.4320 C   0  0  2  0  0  3  0  0  0  0  0  0
  191.2000  176.4680  136.9320 N   0  0  0  0  0  2  0  0  0  0  0  0
  190.6620  174.5150  138.0820 O   0  0  0  0  0  0  0  0  0  0  0  0
  191.5650  175.2000  137.4980 C   0  0  0  0  0  0  0  0  0  0  0  0
  193.0050  174.8730  137.7190 C   0  0  0  0  0  2  0  0  0  0  0  0
  193.8690  175.7200  136.7710 C   0  0  0  0  0  2  0  0  0  0  0  0
  197.8970  174.7220  137.0470 C   0  0  0  0  0  2  0  0  0  0  0  0
  199.0840  175.0820  134.7360 C   0  0  0  0  0  1  0  0  0  0  0  0
  197.3100  172.4760  135.0630 C   0  0  0  0  0  1  0  0  0  0  0  0
  194.2430  174.8890  134.5690 O   0  0  0  0  0  0  0  0  0  0  0  0
  197.7790  174.9620  135.5470 C   0  0  1  0  0  3  0  0  0  0  0  0
  195.7450  174.0800  136.1650 N   0  0  0  0  0  0  0  0  0  0  0  0
  194.5940  174.8500  135.7900 C   0  0  0  0  0  0  0  0  0  0  0  0
  196.4580  174.3690  137.4370 C   0  0  0  0  0  2  0  0  0  0  0  0
  196.7590  173.9220  135.1290 C   0  0  2  0  0  3  0  0  0  0  0  0
  191.0570  176.1970  134.3500 N   0  0  0  0  0  1  0  0  0  0  0  0
  189.8770  176.8630  134.9140 C   0  0  0  0  0  2  0  0  0  0  0  0
  1 11  1  0  0  0  0
  2  1  1  0  0  0  0
  3  8  1  6  0  0  0
  3  4  1  0  0  0  0
  4  7  2  0  0  0  0
  5  6  2  0  0  0  0
  6  2  1  0  0  0  0
  6  3  1  0  0  0  0
  7 11  1  0  0  0  0
  9  8  1  0  0  0  0
 10  5  1  0  0  0  0
 10  9  2  0  0  0  0
 11 12  1  1  0  0  0
 12 13  2  0  0  0  0
 12 14  1  0  0  0  0
 14 16  1  0  0  0  0
 16 15  1  0  0  0  0
 17  9  1  0  0  0  0
 17 18  1  0  0  0  0
 18 19  1  1  0  0  0
 21 20  1  6  0  0  0
 21 18  1  0  0  0  0
 23 22  2  0  0  0  0
 23 21  1  0  0  0  0
 24 23  1  0  0  0  0
 25 24  1  0  0  0  0
 26 27  2  0  0  0  0
 27 25  1  0  0  0  0
 27 28  1  0  0  0  0
 29 27  1  0  0  0  0
 30 10  1  0  0  0  0
 31 30  1  0  0  0  0
 32 48  1  6  0  0  0
 32 33  1  0  0  0  0
 32 31  1  0  0  0  0
 33 35  1  0  0  0  0
 35 36  1  0  0  0  0
 35 34  2  0  0  0  0
 37 36  1  0  0  0  0
 38 45  1  0  0  0  0
 41 44  2  0  0  0  0
 42 39  1  6  0  0  0
 42 38  1  0  0  0  0
 43 45  1  0  0  0  0
 44 43  1  0  0  0  0
 44 37  1  0  0  0  0
 46 40  1  1  0  0  0
 46 42  1  0  0  0  0
 46 43  1  0  0  0  0
 47 48  1  0  0  0  0
M  END
>  <MODEL>
2

>  <REMARK>
 VINA RESULT:      -6.9      3.441     11.196
  Name = 
  18 active torsions:
  status: ('A' for Active; 'I' for Inactive)
    1  A    between atoms: C_4  and  C_27
    2  A    between atoms: C_4  and  C_45
    3  A    between atoms: S_9  and  C_44
    4  A    between atoms: S_9  and  C_47
    5  A    between atoms: N_10  and  C_47
    6  A    between atoms: C_11  and  O_23
    7  A    between atoms: C_11  and  C_46
    8  A    between atoms: C_12  and  N_22
    9  A    between atoms: C_12  and  C_27
   10  A    between atoms: C_17  and  O_23
   11  A    between atoms: N_22  and  C_39
   12  A    between atoms: C_28  and  C_29
   13  A    between atoms: C_28  and  C_41
   14  A    between atoms: O_30  and  P_34
   15  A    between atoms: O_30  and  C_45
   16  A    between atoms: C_33  and  C_41
   17  A    between atoms: C_43  and  C_44
   18  A    between atoms: C_47  and  C_48
                            x       y       z     vdW  Elec       q    Type
                         _______ _______ _______ _____ _____    ______ ____

>  <TORSDO>
F 18

$$$$
=
 OpenBabel10232412143D

 48 50  0  0  1  0  0  0  0  0999 V2000
  188.5480  178.1430  143.4560 N   0  0  0  0  0  2  0  0  0  0  0  0
  188.0410  178.1150  142.1130 C   0  0  0  0  0  2  0  0  0  0  0  0
  190.0820  176.9540  141.2560 C   0  0  2  0  0  3  0  0  0  0  0  0
  190.0790  175.8570  142.2320 C   0  0  0  0  0  3  0  0  0  0  0  0
  188.4990  178.1970  139.7110 C   0  0  0  0  0  3  0  0  0  0  0  0
  188.7510  177.6380  141.0670 C   0  0  0  0  0  0  0  0  0  0  0  0
  189.8770  176.0980  143.5100 C   0  0  0  0  0  3  0  0  0  0  0  0
  190.7760  176.5710  139.9990 C   0  0  0  0  0  2  0  0  0  0  0  0
  190.6120  177.2060  138.8600 C   0  0  0  0  0  0  0  0  0  0  0  0
  189.3280  177.9970  138.6430 C   0  0  0  0  0  0  0  0  0  0  0  0
  189.4990  177.4150  144.0310 C   0  0  2  0  0  3  0  0  0  0  0  0
  190.1490  177.8660  145.2680 C   0  0  0  0  0  0  0  0  0  0  0  0
  191.4080  177.9610  145.3280 O   0  0  0  0  0  0  0  0  0  0  0  0
  189.3960  178.2270  146.4060 O   0  0  0  0  0  0  0  0  0  0  0  0
  188.3170  177.7170  148.5030 C   0  0  0  0  0  1  0  0  0  0  0  0
  188.5600  177.2840  147.0740 C   0  0  0  0  0  2  0  0  0  0  0  0
  191.5840  176.7930  137.8300 N   0  0  0  0  0  2  0  0  0  0  0  0
  192.2070  175.5160  137.4120 C   0  0  1  0  0  3  0  0  0  0  0  0
  191.2080  174.4980  136.8190 C   0  0  0  0  0  1  0  0  0  0  0  0
  194.1700  176.8260  136.8470 O   0  0  0  0  0  1  0  0  0  0  0  0
  193.3460  175.7870  136.3970 C   0  0  1  0  0  3  0  0  0  0  0  0
  193.9430  173.7460  135.2670 O   0  0  0  0  0  0  0  0  0  0  0  0
  194.1490  174.5290  136.1990 C   0  0  0  0  0  0  0  0  0  0  0  0
  195.2120  174.1770  137.2030 C   0  0  0  0  0  2  0  0  0  0  0  0
  196.3440  173.6740  136.5410 O   0  0  0  0  0  0  0  0  0  0  0  0
  197.5340  175.0530  138.7210 O   0  0  0  0  0  1  0  0  0  0  0  0
  197.6330  174.6770  137.0520 P   0  0  0  0  0  0  0  0  0  0  0  0
  197.5460  175.9770  136.2670 O   0  0  0  0  0  0  0  0  0  0  0  0
  199.1380  173.9400  136.7280 O   0  0  0  0  0  1  0  0  0  0  0  0
  189.0860  178.7270  137.3510 C   0  0  0  0  0  2  0  0  0  0  0  0
  187.3070  178.7470  136.9560 S   0  0  0  0  0  0  0  0  0  0  0  0
  187.2380  177.6540  135.4740 C   0  0  2  0  0  3  0  0  0  0  0  0
  186.1450  176.7090  135.6320 N   0  0  0  0  0  2  0  0  0  0  0  0
  187.1050  175.7570  137.5290 O   0  0  0  0  0  0  0  0  0  0  0  0
  186.0370  176.0110  136.8820 C   0  0  0  0  0  0  0  0  0  0  0  0
  184.7740  175.2920  137.2240 C   0  0  0  0  0  2  0  0  0  0  0  0
  183.5760  176.2170  136.9570 C   0  0  0  0  0  2  0  0  0  0  0  0
  184.4260  179.1760  139.7540 C   0  0  0  0  0  2  0  0  0  0  0  0
  184.4150  178.1700  142.1760 C   0  0  0  0  0  1  0  0  0  0  0  0
  181.6020  178.7410  140.8330 C   0  0  0  0  0  1  0  0  0  0  0  0
  182.2660  175.4440  138.7920 O   0  0  0  0  0  0  0  0  0  0  0  0
  184.0700  178.0200  140.6810 C   0  0  1  0  0  3  0  0  0  0  0  0
  182.7200  177.7350  138.8400 N   0  0  0  0  0  0  0  0  0  0  0  0
  182.7890  176.4460  138.2120 C   0  0  0  0  0  0  0  0  0  0  0  0
  183.6850  178.8030  138.4660 C   0  0  0  0  0  2  0  0  0  0  0  0
  182.6350  177.7200  140.2950 C   0  0  2  0  0  3  0  0  0  0  0  0
  188.3220  175.7720  134.3470 N   0  0  0  0  0  1  0  0  0  0  0  0
  188.5550  176.8900  135.2680 C   0  0  0  0  0  2  0  0  0  0  0  0
  1 11  1  0  0  0  0
  2  1  1  0  0  0  0
  3  8  1  6  0  0  0
  3  4  1  0  0  0  0
  4  7  2  0  0  0  0
  5  6  2  0  0  0  0
  6  3  1  0  0  0  0
  6  2  1  0  0  0  0
  7 11  1  0  0  0  0
  9  8  1  0  0  0  0
 10  9  2  0  0  0  0
 10  5  1  0  0  0  0
 11 12  1  1  0  0  0
 12 13  2  0  0  0  0
 12 14  1  0  0  0  0
 14 16  1  0  0  0  0
 16 15  1  0  0  0  0
 17  9  1  0  0  0  0
 18 19  1  6  0  0  0
 18 17  1  0  0  0  0
 21 20  1  1  0  0  0
 21 18  1  0  0  0  0
 22 23  2  0  0  0  0
 23 21  1  0  0  0  0
 23 24  1  0  0  0  0
 25 27  1  0  0  0  0
 25 24  1  0  0  0  0
 27 26  1  0  0  0  0
 28 27  2  0  0  0  0
 29 27  1  0  0  0  0
 30 10  1  0  0  0  0
 31 30  1  0  0  0  0
 32 48  1  1  0  0  0
 32 33  1  0  0  0  0
 32 31  1  0  0  0  0
 33 35  1  0  0  0  0
 35 36  1  0  0  0  0
 35 34  2  0  0  0  0
 37 36  1  0  0  0  0
 37 44  1  0  0  0  0
 38 42  1  0  0  0  0
 42 39  1  1  0  0  0
 43 46  1  0  0  0  0
 44 41  2  0  0  0  0
 44 43  1  0  0  0  0
 45 43  1  0  0  0  0
 45 38  1  0  0  0  0
 46 42  1  0  0  0  0
 46 40  1  6  0  0  0
 47 48  1  0  0  0  0
M  END
>  <MODEL>
3

>  <REMARK>
 VINA RESULT:      -6.6      2.202      6.884
  Name = 
  18 active torsions:
  status: ('A' for Active; 'I' for Inactive)
    1  A    between atoms: C_4  and  C_27
    2  A    between atoms: C_4  and  C_45
    3  A    between atoms: S_9  and  C_44
    4  A    between atoms: S_9  and  C_47
    5  A    between atoms: N_10  and  C_47
    6  A    between atoms: C_11  and  O_23
    7  A    between atoms: C_11  and  C_46
    8  A    between atoms: C_12  and  N_22
    9  A    between atoms: C_12  and  C_27
   10  A    between atoms: C_17  and  O_23
   11  A    between atoms: N_22  and  C_39
   12  A    between atoms: C_28  and  C_29
   13  A    between atoms: C_28  and  C_41
   14  A    between atoms: O_30  and  P_34
   15  A    between atoms: O_30  and  C_45
   16  A    between atoms: C_33  and  C_41
   17  A    between atoms: C_43  and  C_44
   18  A    between atoms: C_47  and  C_48
                            x       y       z     vdW  Elec       q    Type
                         _______ _______ _______ _____ _____    ______ ____

>  <TORSDO>
F 18

$$$$
=
 OpenBabel10232412143D

 48 50  0  0  1  0  0  0  0  0999 V2000
  191.8480  177.2940  144.7290 N   0  0  0  0  0  2  0  0  0  0  0  0
  191.2500  178.0590  143.6710 C   0  0  0  0  0  2  0  0  0  0  0  0
  188.9390  177.6110  144.5130 C   0  0  2  0  0  3  0  0  0  0  0  0
  189.1740  178.0400  145.8980 C   0  0  0  0  0  3  0  0  0  0  0  0
  189.3740  178.3760  142.1340 C   0  0  0  0  0  3  0  0  0  0  0  0
  189.9140  178.1670  143.5040 C   0  0  0  0  0  0  0  0  0  0  0  0
  190.2560  177.6570  146.5420 C   0  0  0  0  0  3  0  0  0  0  0  0
  187.5070  177.7310  144.1350 C   0  0  0  0  0  2  0  0  0  0  0  0
  187.0880  177.7660  142.8900 C   0  0  0  0  0  0  0  0  0  0  0  0
  188.0550  178.2270  141.8070 C   0  0  0  0  0  0  0  0  0  0  0  0
  191.3550  176.9240  145.9070 C   0  0  2  0  0  3  0  0  0  0  0  0
  191.9550  175.8160  146.6610 C   0  0  0  0  0  0  0  0  0  0  0  0
  192.4350  174.8180  146.0530 O   0  0  0  0  0  0  0  0  0  0  0  0
  192.0360  175.8440  148.0700 O   0  0  0  0  0  0  0  0  0  0  0  0
  193.3890  176.9330  149.7450 C   0  0  0  0  0  1  0  0  0  0  0  0
  193.2930  175.8040  148.7430 C   0  0  0  0  0  2  0  0  0  0  0  0
  185.6230  177.6430  142.7760 N   0  0  0  0  0  2  0  0  0  0  0  0
  184.4520  178.3300  143.3690 C   0  0  1  0  0  3  0  0  0  0  0  0
  184.7280  179.7930  143.7820 C   0  0  0  0  0  1  0  0  0  0  0  0
  182.3120  179.2660  142.7090 O   0  0  0  0  0  1  0  0  0  0  0  0
  183.2520  178.2780  142.3900 C   0  0  1  0  0  3  0  0  0  0  0  0
  184.3560  179.4710  140.6140 O   0  0  0  0  0  0  0  0  0  0  0  0
  183.7480  178.4600  140.9810 C   0  0  0  0  0  0  0  0  0  0  0  0
  183.4500  177.3990  139.9600 C   0  0  0  0  0  2  0  0  0  0  0  0
  184.0290  177.7470  138.7280 O   0  0  0  0  0  0  0  0  0  0  0  0
  183.0070  175.1160  138.4040 O   0  0  0  0  0  1  0  0  0  0  0  0
  183.4470  176.5760  137.6230 P   0  0  0  0  0  0  0  0  0  0  0  0
  184.5700  176.2700  136.6420 O   0  0  0  0  0  0  0  0  0  0  0  0
  182.1080  177.1780  136.7530 O   0  0  0  0  0  1  0  0  0  0  0  0
  187.6180  178.3010  140.3700 C   0  0  0  0  0  2  0  0  0  0  0  0
  189.0620  178.5200  139.2780 S   0  0  0  0  0  0  0  0  0  0  0  0
  188.6570  177.3800  137.8870 C   0  0  2  0  0  3  0  0  0  0  0  0
  189.8590  177.1400  137.1060 N   0  0  0  0  0  2  0  0  0  0  0  0
  190.3490  175.1820  138.2690 O   0  0  0  0  0  0  0  0  0  0  0  0
  190.4590  175.8380  137.1820 C   0  0  0  0  0  0  0  0  0  0  0  0
  191.4790  175.4310  136.1690 C   0  0  0  0  0  2  0  0  0  0  0  0
  192.7330  174.9140  136.8920 C   0  0  0  0  0  2  0  0  0  0  0  0
  196.3860  173.1290  136.0170 C   0  0  0  0  0  2  0  0  0  0  0  0
  198.3380  174.4240  137.1970 C   0  0  0  0  0  1  0  0  0  0  0  0
  197.1210  175.7160  134.5710 C   0  0  0  0  0  1  0  0  0  0  0  0
  194.1440  176.8350  136.8860 O   0  0  0  0  0  0  0  0  0  0  0  0
  196.8620  174.3740  136.7550 C   0  0  1  0  0  3  0  0  0  0  0  0
  194.9650  175.0410  135.6360 N   0  0  0  0  0  0  0  0  0  0  0  0
  193.9520  175.6600  136.4430 C   0  0  0  0  0  0  0  0  0  0  0  0
  195.0120  173.5610  135.4960 C   0  0  0  0  0  2  0  0  0  0  0  0
  196.3290  175.4940  135.8830 C   0  0  2  0  0  3  0  0  0  0  0  0
  187.6610  179.4200  136.9740 N   0  0  0  0  0  1  0  0  0  0  0  0
  187.5580  177.9560  136.9810 C   0  0  0  0  0  2  0  0  0  0  0  0
  1 11  1  0  0  0  0
  2  1  1  0  0  0  0
  3  8  1  6  0  0  0
  3  4  1  0  0  0  0
  4  7  2  0  0  0  0
  5  6  2  0  0  0  0
  6  2  1  0  0  0  0
  6  3  1  0  0  0  0
  9  8  1  0  0  0  0
 10  5  1  0  0  0  0
 10  9  2  0  0  0  0
 11  7  1  0  0  0  0
 11 12  1  1  0  0  0
 12 14  1  0  0  0  0
 13 12  2  0  0  0  0
 14 16  1  0  0  0  0
 16 15  1  0  0  0  0
 17  9  1  0  0  0  0
 17 18  1  0  0  0  0
 18 19  1  6  0  0  0
 21 20  1  1  0  0  0
 21 18  1  0  0  0  0
 22 23  2  0  0  0  0
 23 21  1  0  0  0  0
 24 23  1  0  0  0  0
 25 24  1  0  0  0  0
 27 26  1  0  0  0  0
 27 25  1  0  0  0  0
 28 27  2  0  0  0  0
 29 27  1  0  0  0  0
 30 10  1  0  0  0  0
 31 30  1  0  0  0  0
 32 48  1  6  0  0  0
 32 31  1  0  0  0  0
 33 35  1  0  0  0  0
 33 32  1  0  0  0  0
 35 34  2  0  0  0  0
 36 37  1  0  0  0  0
 36 35  1  0  0  0  0
 38 42  1  0  0  0  0
 42 39  1  6  0  0  0
 43 46  1  0  0  0  0
 43 44  1  0  0  0  0
 44 41  2  0  0  0  0
 44 37  1  0  0  0  0
 45 43  1  0  0  0  0
 45 38  1  0  0  0  0
 46 40  1  6  0  0  0
 46 42  1  0  0  0  0
 47 48  1  0  0  0  0
M  END
>  <MODEL>
4

>  <REMARK>
 VINA RESULT:      -6.6      3.368     11.490
  Name = 
  18 active torsions:
  status: ('A' for Active; 'I' for Inactive)
    1  A    between atoms: C_4  and  C_27
    2  A    between atoms: C_4  and  C_45
    3  A    between atoms: S_9  and  C_44
    4  A    between atoms: S_9  and  C_47
    5  A    between atoms: N_10  and  C_47
    6  A    between atoms: C_11  and  O_23
    7  A    between atoms: C_11  and  C_46
    8  A    between atoms: C_12  and  N_22
    9  A    between atoms: C_12  and  C_27
   10  A    between atoms: C_17  and  O_23
   11  A    between atoms: N_22  and  C_39
   12  A    between atoms: C_28  and  C_29
   13  A    between atoms: C_28  and  C_41
   14  A    between atoms: O_30  and  P_34
   15  A    between atoms: O_30  and  C_45
   16  A    between atoms: C_33  and  C_41
   17  A    between atoms: C_43  and  C_44
   18  A    between atoms: C_47  and  C_48
                            x       y       z     vdW  Elec       q    Type
                         _______ _______ _______ _____ _____    ______ ____

>  <TORSDO>
F 18

$$$$
=
 OpenBabel10232412143D

 48 50  0  0  1  0  0  0  0  0999 V2000
  191.9210  177.1570  145.5780 N   0  0  0  0  0  2  0  0  0  0  0  0
  191.4130  177.8750  144.4440 C   0  0  0  0  0  2  0  0  0  0  0  0
  189.0410  177.5090  145.1440 C   0  0  2  0  0  3  0  0  0  0  0  0
  189.1890  178.0050  146.5180 C   0  0  0  0  0  3  0  0  0  0  0  0
  189.6540  178.1430  142.7650 C   0  0  0  0  0  3  0  0  0  0  0  0
  190.0940  177.9960  144.1780 C   0  0  0  0  0  0  0  0  0  0  0  0
  190.2160  177.6390  147.2550 C   0  0  0  0  0  3  0  0  0  0  0  0
  187.6410  177.6320  144.6610 C   0  0  0  0  0  2  0  0  0  0  0  0
  187.3090  177.6100  143.3900 C   0  0  0  0  0  0  0  0  0  0  0  0
  188.3580  177.9980  142.3550 C   0  0  0  0  0  0  0  0  0  0  0  0
  191.3420  176.8560  146.7350 C   0  0  2  0  0  3  0  0  0  0  0  0
  191.8660  175.7790  147.5840 C   0  0  0  0  0  0  0  0  0  0  0  0
  191.3340  174.6330  147.5620 O   0  0  0  0  0  0  0  0  0  0  0  0
  192.9840  175.9810  148.4220 O   0  0  0  0  0  0  0  0  0  0  0  0
  194.2500  176.8950  150.2620 C   0  0  0  0  0  1  0  0  0  0  0  0
  192.9660  176.9550  149.4640 C   0  0  0  0  0  2  0  0  0  0  0  0
  185.8540  177.5040  143.1800 N   0  0  0  0  0  2  0  0  0  0  0  0
  184.6520  178.1730  143.7320 C   0  0  1  0  0  3  0  0  0  0  0  0
  184.8590  178.7660  145.1430 C   0  0  0  0  0  1  0  0  0  0  0  0
  185.0950  179.4740  141.7310 O   0  0  0  0  0  1  0  0  0  0  0  0
  184.1670  179.2800  142.7620 C   0  0  1  0  0  3  0  0  0  0  0  0
  181.8180  178.7670  142.8980 O   0  0  0  0  0  0  0  0  0  0  0  0
  182.8260  178.8970  142.1960 C   0  0  0  0  0  0  0  0  0  0  0  0
  182.7110  178.6070  140.7260 C   0  0  0  0  0  2  0  0  0  0  0  0
  181.6910  179.3920  140.1630 O   0  0  0  0  0  0  0  0  0  0  0  0
  181.6230  181.5280  138.2920 O   0  0  0  0  0  1  0  0  0  0  0  0
  182.3810  180.0600  138.7460 P   0  0  0  0  0  0  0  0  0  0  0  0
  182.1830  179.0560  137.6200 O   0  0  0  0  0  0  0  0  0  0  0  0
  184.0530  180.3280  138.9550 O   0  0  0  0  0  1  0  0  0  0  0  0
  188.0220  178.0050  140.8890 C   0  0  0  0  0  2  0  0  0  0  0  0
  189.5380  178.1780  139.8920 S   0  0  0  0  0  0  0  0  0  0  0  0
  189.1340  177.1570  138.4120 C   0  0  2  0  0  3  0  0  0  0  0  0
  190.3550  176.5560  137.9020 N   0  0  0  0  0  2  0  0  0  0  0  0
  189.2710  174.5670  137.3580 O   0  0  0  0  0  0  0  0  0  0  0  0
  190.2360  175.3620  137.1120 C   0  0  0  0  0  0  0  0  0  0  0  0
  191.3960  174.8930  136.2980 C   0  0  0  0  0  2  0  0  0  0  0  0
  192.5100  174.4030  137.2360 C   0  0  0  0  0  2  0  0  0  0  0  0
  196.4500  174.0200  138.5130 C   0  0  0  0  0  2  0  0  0  0  0  0
  198.1010  174.6540  136.5760 C   0  0  0  0  0  1  0  0  0  0  0  0
  196.7360  171.7970  136.4390 C   0  0  0  0  0  1  0  0  0  0  0  0
  193.5450  173.7340  135.1960 O   0  0  0  0  0  0  0  0  0  0  0  0
  196.6700  174.3030  137.0320 C   0  0  1  0  0  3  0  0  0  0  0  0
  194.7130  173.0960  137.1160 N   0  0  0  0  0  0  0  0  0  0  0  0
  193.5840  173.6970  136.4660 C   0  0  0  0  0  0  0  0  0  0  0  0
  195.0330  173.4360  138.5280 C   0  0  0  0  0  2  0  0  0  0  0  0
  195.9640  173.1370  136.3680 C   0  0  2  0  0  3  0  0  0  0  0  0
  188.9080  179.3880  137.4320 N   0  0  0  0  0  1  0  0  0  0  0  0
  188.4700  177.9930  137.3070 C   0  0  0  0  0  2  0  0  0  0  0  0
  1 11  1  0  0  0  0
  2  1  1  0  0  0  0
  3  8  1  6  0  0  0
  3  4  1  0  0  0  0
  4  7  2  0  0  0  0
  5  6  2  0  0  0  0
  6  2  1  0  0  0  0
  6  3  1  0  0  0  0
  9  8  1  0  0  0  0
 10  5  1  0  0  0  0
 10  9  2  0  0  0  0
 11  7  1  0  0  0  0
 11 12  1  1  0  0  0
 12 14  1  0  0  0  0
 13 12  2  0  0  0  0
 14 16  1  0  0  0  0
 16 15  1  0  0  0  0
 17  9  1  0  0  0  0
 17 18  1  0  0  0  0
 18 19  1  1  0  0  0
 21 20  1  6  0  0  0
 21 18  1  0  0  0  0
 23 21  1  0  0  0  0
 23 22  2  0  0  0  0
 24 23  1  0  0  0  0
 25 24  1  0  0  0  0
 26 27  1  0  0  0  0
 27 29  1  0  0  0  0
 27 25  1  0  0  0  0
 28 27  2  0  0  0  0
 30 10  1  0  0  0  0
 31 30  1  0  0  0  0
 32 48  1  6  0  0  0
 32 31  1  0  0  0  0
 33 32  1  0  0  0  0
 35 34  2  0  0  0  0
 35 33  1  0  0  0  0
 36 35  1  0  0  0  0
 36 37  1  0  0  0  0
 38 45  1  0  0  0  0
 41 44  2  0  0  0  0
 42 39  1  1  0  0  0
 42 38  1  0  0  0  0
 43 45  1  0  0  0  0
 44 43  1  0  0  0  0
 44 37  1  0  0  0  0
 46 40  1  1  0  0  0
 46 42  1  0  0  0  0
 46 43  1  0  0  0  0
 48 47  1  0  0  0  0
M  END
>  <MODEL>
5

>  <REMARK>
 VINA RESULT:      -6.6      3.831     11.909
  Name = 
  18 active torsions:
  status: ('A' for Active; 'I' for Inactive)
    1  A    between atoms: C_4  and  C_27
    2  A    between atoms: C_4  and  C_45
    3  A    between atoms: S_9  and  C_44
    4  A    between atoms: S_9  and  C_47
    5  A    between atoms: N_10  and  C_47
    6  A    between atoms: C_11  and  O_23
    7  A    between atoms: C_11  and  C_46
    8  A    between atoms: C_12  and  N_22
    9  A    between atoms: C_12  and  C_27
   10  A    between atoms: C_17  and  O_23
   11  A    between atoms: N_22  and  C_39
   12  A    between atoms: C_28  and  C_29
   13  A    between atoms: C_28  and  C_41
   14  A    between atoms: O_30  and  P_34
   15  A    between atoms: O_30  and  C_45
   16  A    between atoms: C_33  and  C_41
   17  A    between atoms: C_43  and  C_44
   18  A    between atoms: C_47  and  C_48
                            x       y       z     vdW  Elec       q    Type
                         _______ _______ _______ _____ _____    ______ ____

>  <TORSDO>
F 18

$$$$
=
 OpenBabel10232412143D

 48 50  0  0  1  0  0  0  0  0999 V2000
  183.0620  178.4830  141.3080 N   0  0  0  0  0  2  0  0  0  0  0  0
  184.3890  178.9690  141.5590 C   0  0  0  0  0  2  0  0  0  0  0  0
  185.1520  178.3860  139.2510 C   0  0  2  0  0  3  0  0  0  0  0  0
  184.0720  179.0760  138.5330 C   0  0  0  0  0  3  0  0  0  0  0  0
  186.7930  178.7730  141.1470 C   0  0  0  0  0  3  0  0  0  0  0  0
  185.3910  178.8760  140.6580 C   0  0  0  0  0  0  0  0  0  0  0  0
  182.8220  178.9520  138.9260 C   0  0  0  0  0  3  0  0  0  0  0  0
  186.3730  178.2550  138.4140 C   0  0  0  0  0  2  0  0  0  0  0  0
  187.5670  178.0190  138.9100 C   0  0  0  0  0  0  0  0  0  0  0  0
  187.8460  178.4030  140.3580 C   0  0  0  0  0  0  0  0  0  0  0  0
  182.4290  178.2640  140.1600 C   0  0  2  0  0  3  0  0  0  0  0  0
  181.2510  177.3900  140.1030 C   0  0  0  0  0  0  0  0  0  0  0  0
  180.2780  177.5790  140.8860 O   0  0  0  0  0  0  0  0  0  0  0  0
  181.1600  176.3400  139.1630 O   0  0  0  0  0  0  0  0  0  0  0  0
  182.7390  175.4290  137.5830 C   0  0  0  0  0  1  0  0  0  0  0  0
  182.2140  175.3930  139.0010 C   0  0  0  0  0  2  0  0  0  0  0  0
  188.5630  177.6940  137.8720 N   0  0  0  0  0  2  0  0  0  0  0  0
  189.0560  176.4540  137.2270 C   0  0  1  0  0  3  0  0  0  0  0  0
  188.4810  176.2130  135.8140 C   0  0  0  0  0  1  0  0  0  0  0  0
  191.1320  177.1990  138.2390 O   0  0  0  0  0  1  0  0  0  0  0  0
  190.6040  176.4640  137.1700 C   0  0  1  0  0  3  0  0  0  0  0  0
  190.4740  174.1200  137.7070 O   0  0  0  0  0  0  0  0  0  0  0  0
  191.1150  175.0480  137.2040 C   0  0  0  0  0  0  0  0  0  0  0  0
  192.4820  174.7530  136.6540 C   0  0  0  0  0  2  0  0  0  0  0  0
  193.1150  173.7810  137.4460 O   0  0  0  0  0  0  0  0  0  0  0  0
  195.4680  173.5060  139.0130 O   0  0  0  0  0  1  0  0  0  0  0  0
  194.5950  174.4960  137.9210 P   0  0  0  0  0  0  0  0  0  0  0  0
  194.2700  175.8050  138.6260 O   0  0  0  0  0  1  0  0  0  0  0  0
  195.5690  174.8330  136.5610 O   0  0  0  0  0  0  0  0  0  0  0  0
  189.2010  178.1700  140.9650 C   0  0  0  0  0  2  0  0  0  0  0  0
  189.1770  176.6820  142.0190 S   0  0  0  0  0  0  0  0  0  0  0  0
  190.4690  177.0850  143.2690 C   0  0  2  0  0  3  0  0  0  0  0  0
  189.8230  177.4360  144.5230 N   0  0  0  0  0  2  0  0  0  0  0  0
  191.3140  176.1510  145.7700 O   0  0  0  0  0  0  0  0  0  0  0  0
  190.5270  177.1540  145.7420 C   0  0  0  0  0  0  0  0  0  0  0  0
  190.0760  177.7790  147.0220 C   0  0  0  0  0  2  0  0  0  0  0  0
  188.9520  176.9280  147.6330 C   0  0  0  0  0  2  0  0  0  0  0  0
  186.2470  177.5530  144.5360 C   0  0  0  0  0  2  0  0  0  0  0  0
  185.6040  180.0910  144.3860 C   0  0  0  0  0  1  0  0  0  0  0  0
  184.2340  178.3830  146.6770 C   0  0  0  0  0  1  0  0  0  0  0  0
  187.6770  178.7220  148.5490 O   0  0  0  0  0  0  0  0  0  0  0  0
  186.2520  178.9360  145.1750 C   0  0  1  0  0  3  0  0  0  0  0  0
  186.5470  177.4760  146.9280 N   0  0  0  0  0  0  0  0  0  0  0  0
  187.6890  177.7250  147.7600 C   0  0  0  0  0  0  0  0  0  0  0  0
  186.6830  176.6530  145.6970 C   0  0  0  0  0  2  0  0  0  0  0  0
  185.7560  178.6490  146.5790 C   0  0  2  0  0  3  0  0  0  0  0  0
  191.1990  179.3750  143.7300 N   0  0  0  0  0  1  0  0  0  0  0  0
  191.3650  178.2460  142.8080 C   0  0  0  0  0  2  0  0  0  0  0  0
  1  2  1  0  0  0  0
  3  8  1  6  0  0  0
  3  6  1  0  0  0  0
  4  7  2  0  0  0  0
  4  3  1  0  0  0  0
  6  5  2  0  0  0  0
  6  2  1  0  0  0  0
  7 11  1  0  0  0  0
  8  9  1  0  0  0  0
  9 10  2  0  0  0  0
 10 30  1  0  0  0  0
 10  5  1  0  0  0  0
 11 12  1  1  0  0  0
 11  1  1  0  0  0  0
 12 13  2  0  0  0  0
 14 12  1  0  0  0  0
 15 16  1  0  0  0  0
 16 14  1  0  0  0  0
 17  9  1  0  0  0  0
 18 19  1  6  0  0  0
 18 17  1  0  0  0  0
 21 23  1  0  0  0  0
 21 18  1  0  0  0  0
 21 20  1  1  0  0  0
 23 22  2  0  0  0  0
 24 23  1  0  0  0  0
 24 25  1  0  0  0  0
 25 27  1  0  0  0  0
 27 28  1  0  0  0  0
 27 26  1  0  0  0  0
 29 27  2  0  0  0  0
 30 31  1  0  0  0  0
 31 32  1  0  0  0  0
 32 48  1  6  0  0  0
 32 33  1  0  0  0  0
 33 35  1  0  0  0  0
 35 34  2  0  0  0  0
 35 36  1  0  0  0  0
 36 37  1  0  0  0  0
 37 44  1  0  0  0  0
 38 42  1  0  0  0  0
 38 45  1  0  0  0  0
 42 39  1  6  0  0  0
 42 46  1  0  0  0  0
 43 44  1  0  0  0  0
 44 41  2  0  0  0  0
 45 43  1  0  0  0  0
 46 40  1  6  0  0  0
 46 43  1  0  0  0  0
 48 47  1  0  0  0  0
M  END
>  <MODEL>
6

>  <REMARK>
 VINA RESULT:      -6.3      2.267      3.076
  Name = 
  18 active torsions:
  status: ('A' for Active; 'I' for Inactive)
    1  A    between atoms: C_4  and  C_27
    2  A    between atoms: C_4  and  C_45
    3  A    between atoms: S_9  and  C_44
    4  A    between atoms: S_9  and  C_47
    5  A    between atoms: N_10  and  C_47
    6  A    between atoms: C_11  and  O_23
    7  A    between atoms: C_11  and  C_46
    8  A    between atoms: C_12  and  N_22
    9  A    between atoms: C_12  and  C_27
   10  A    between atoms: C_17  and  O_23
   11  A    between atoms: N_22  and  C_39
   12  A    between atoms: C_28  and  C_29
   13  A    between atoms: C_28  and  C_41
   14  A    between atoms: O_30  and  P_34
   15  A    between atoms: O_30  and  C_45
   16  A    between atoms: C_33  and  C_41
   17  A    between atoms: C_43  and  C_44
   18  A    between atoms: C_47  and  C_48
                            x       y       z     vdW  Elec       q    Type
                         _______ _______ _______ _____ _____    ______ ____

>  <TORSDO>
F 18

$$$$
=
 OpenBabel10232412143D

 48 50  0  0  1  0  0  0  0  0999 V2000
  185.8860  178.7650  139.7210 N   0  0  0  0  0  2  0  0  0  0  0  0
  186.9220  178.4490  138.7790 C   0  0  0  0  0  2  0  0  0  0  0  0
  185.4540  176.8430  137.5470 C   0  0  2  0  0  3  0  0  0  0  0  0
  184.3230  177.7580  137.3510 C   0  0  0  0  0  3  0  0  0  0  0  0
  187.9820  176.7900  137.3270 C   0  0  0  0  0  3  0  0  0  0  0  0
  186.7780  177.5190  137.8090 C   0  0  0  0  0  0  0  0  0  0  0  0
  183.8890  178.5070  138.3430 C   0  0  0  0  0  3  0  0  0  0  0  0
  185.4880  175.7780  136.5100 C   0  0  0  0  0  2  0  0  0  0  0  0
  186.5600  175.0700  136.2340 C   0  0  0  0  0  0  0  0  0  0  0  0
  187.9270  175.6570  136.5640 C   0  0  0  0  0  0  0  0  0  0  0  0
  184.5690  178.6020  139.6380 C   0  0  2  0  0  3  0  0  0  0  0  0
  183.7320  178.6010  140.8450 C   0  0  0  0  0  0  0  0  0  0  0  0
  184.1530  179.1290  141.9130 O   0  0  0  0  0  0  0  0  0  0  0  0
  182.4370  178.0380  140.8410 O   0  0  0  0  0  0  0  0  0  0  0  0
  181.0610  179.8810  140.1110 C   0  0  0  0  0  1  0  0  0  0  0  0
  181.2880  178.8180  141.1630 C   0  0  0  0  0  2  0  0  0  0  0  0
  186.2760  173.9250  135.3500 N   0  0  0  0  0  2  0  0  0  0  0  0
  186.2010  172.4540  135.5110 C   0  0  1  0  0  3  0  0  0  0  0  0
  187.4760  171.8250  136.1160 C   0  0  0  0  0  1  0  0  0  0  0  0
  185.0340  172.6960  137.6260 O   0  0  0  0  0  1  0  0  0  0  0  0
  184.9690  172.0750  136.3710 C   0  0  1  0  0  3  0  0  0  0  0  0
  183.6020  172.4310  134.4210 O   0  0  0  0  0  0  0  0  0  0  0  0
  183.7110  172.4820  135.6500 C   0  0  0  0  0  0  0  0  0  0  0  0
  182.5570  173.0220  136.4460 C   0  0  0  0  0  2  0  0  0  0  0  0
  182.4890  174.4170  136.3010 O   0  0  0  0  0  0  0  0  0  0  0  0
  182.5400  175.3770  138.9740 O   0  0  0  0  0  1  0  0  0  0  0  0
  181.5600  174.9530  137.6340 P   0  0  0  0  0  0  0  0  0  0  0  0
  180.6520  173.8060  138.0550 O   0  0  0  0  0  1  0  0  0  0  0  0
  180.5900  176.2880  137.1990 O   0  0  0  0  0  0  0  0  0  0  0  0
  189.1840  174.8930  136.2520 C   0  0  0  0  0  2  0  0  0  0  0  0
  190.6080  176.0260  136.1540 S   0  0  0  0  0  0  0  0  0  0  0  0
  191.4870  175.6630  137.7330 C   0  0  2  0  0  3  0  0  0  0  0  0
  191.5830  176.8850  138.5140 N   0  0  0  0  0  2  0  0  0  0  0  0
  189.9850  176.1550  140.0440 O   0  0  0  0  0  0  0  0  0  0  0  0
  191.0050  176.8870  139.8290 C   0  0  0  0  0  0  0  0  0  0  0  0
  191.3540  177.9750  140.7910 C   0  0  0  0  0  2  0  0  0  0  0  0
  192.0000  177.3580  142.0420 C   0  0  0  0  0  2  0  0  0  0  0  0
  188.2930  176.0340  143.3830 C   0  0  0  0  0  2  0  0  0  0  0  0
  186.7720  178.0740  144.0170 C   0  0  0  0  0  1  0  0  0  0  0  0
  189.0200  177.2440  146.0900 C   0  0  0  0  0  1  0  0  0  0  0  0
  191.5030  179.0580  143.6370 O   0  0  0  0  0  0  0  0  0  0  0  0
  188.1710  177.5240  143.6750 C   0  0  1  0  0  3  0  0  0  0  0  0
  190.3930  177.0370  144.0150 N   0  0  0  0  0  0  0  0  0  0  0  0
  191.3260  177.8490  143.2870 C   0  0  0  0  0  0  0  0  0  0  0  0
  189.8100  175.8220  143.3880 C   0  0  0  0  0  2  0  0  0  0  0  0
  189.3010  177.7590  144.6570 C   0  0  2  0  0  3  0  0  0  0  0  0
  193.8820  176.1650  137.6780 N   0  0  0  0  0  1  0  0  0  0  0  0
  192.8940  175.0980  137.4840 C   0  0  0  0  0  2  0  0  0  0  0  0
  2  1  1  0  0  0  0
  3  8  1  6  0  0  0
  3  6  1  0  0  0  0
  4  3  1  0  0  0  0
  4  7  2  0  0  0  0
  5  6  2  0  0  0  0
  6  2  1  0  0  0  0
  7 11  1  0  0  0  0
  9  8  1  0  0  0  0
  9 10  2  0  0  0  0
 10  5  1  0  0  0  0
 11  1  1  0  0  0  0
 11 12  1  6  0  0  0
 12 13  2  0  0  0  0
 14 12  1  0  0  0  0
 14 16  1  0  0  0  0
 15 16  1  0  0  0  0
 17 18  1  0  0  0  0
 17  9  1  0  0  0  0
 18 19  1  1  0  0  0
 18 21  1  0  0  0  0
 21 20  1  1  0  0  0
 22 23  2  0  0  0  0
 23 21  1  0  0  0  0
 23 24  1  0  0  0  0
 25 24  1  0  0  0  0
 25 27  1  0  0  0  0
 27 28  1  0  0  0  0
 27 26  1  0  0  0  0
 29 27  2  0  0  0  0
 30 10  1  0  0  0  0
 31 30  1  0  0  0  0
 31 32  1  0  0  0  0
 32 48  1  6  0  0  0
 32 33  1  0  0  0  0
 33 35  1  0  0  0  0
 35 34  2  0  0  0  0
 35 36  1  0  0  0  0
 36 37  1  0  0  0  0
 37 44  1  0  0  0  0
 38 45  1  0  0  0  0
 38 42  1  0  0  0  0
 42 39  1  1  0  0  0
 42 46  1  0  0  0  0
 43 46  1  0  0  0  0
 44 41  2  0  0  0  0
 44 43  1  0  0  0  0
 45 43  1  0  0  0  0
 46 40  1  1  0  0  0
 48 47  1  0  0  0  0
M  END
>  <MODEL>
7

>  <REMARK>
 VINA RESULT:      -6.3      4.315      8.068
  Name = 
  18 active torsions:
  status: ('A' for Active; 'I' for Inactive)
    1  A    between atoms: C_4  and  C_27
    2  A    between atoms: C_4  and  C_45
    3  A    between atoms: S_9  and  C_44
    4  A    between atoms: S_9  and  C_47
    5  A    between atoms: N_10  and  C_47
    6  A    between atoms: C_11  and  O_23
    7  A    between atoms: C_11  and  C_46
    8  A    between atoms: C_12  and  N_22
    9  A    between atoms: C_12  and  C_27
   10  A    between atoms: C_17  and  O_23
   11  A    between atoms: N_22  and  C_39
   12  A    between atoms: C_28  and  C_29
   13  A    between atoms: C_28  and  C_41
   14  A    between atoms: O_30  and  P_34
   15  A    between atoms: O_30  and  C_45
   16  A    between atoms: C_33  and  C_41
   17  A    between atoms: C_43  and  C_44
   18  A    between atoms: C_47  and  C_48
                            x       y       z     vdW  Elec       q    Type
                         _______ _______ _______ _____ _____    ______ ____

>  <TORSDO>
F 18

$$$$
=
 OpenBabel10232412143D

 48 50  0  0  1  0  0  0  0  0999 V2000
  191.4320  176.5760  143.1320 N   0  0  0  0  0  2  0  0  0  0  0  0
  191.0190  176.7480  141.7680 C   0  0  0  0  0  2  0  0  0  0  0  0
  189.0960  178.2040  142.4240 C   0  0  2  0  0  3  0  0  0  0  0  0
  189.8660  179.1470  143.2450 C   0  0  0  0  0  3  0  0  0  0  0  0
  189.1950  177.0510  140.1660 C   0  0  0  0  0  3  0  0  0  0  0  0
  189.9090  177.4330  141.4140 C   0  0  0  0  0  0  0  0  0  0  0  0
  190.7580  178.7080  144.1090 C   0  0  0  0  0  3  0  0  0  0  0  0
  187.8560  178.8250  141.8900 C   0  0  0  0  0  2  0  0  0  0  0  0
  187.1920  178.3460  140.8620 C   0  0  0  0  0  0  0  0  0  0  0  0
  187.9340  177.4770  139.8530 C   0  0  0  0  0  0  0  0  0  0  0  0
  191.1550  177.3010  144.2120 C   0  0  2  0  0  3  0  0  0  0  0  0
  191.3250  176.7420  145.5580 C   0  0  0  0  0  0  0  0  0  0  0  0
  192.1220  175.7810  145.7540 O   0  0  0  0  0  0  0  0  0  0  0  0
  190.6290  177.2710  146.6670 O   0  0  0  0  0  0  0  0  0  0  0  0
  188.5550  177.9460  147.6990 C   0  0  0  0  0  1  0  0  0  0  0  0
  189.3090  176.8410  146.9920 C   0  0  0  0  0  2  0  0  0  0  0  0
  185.8780  178.9900  140.6790 N   0  0  0  0  0  2  0  0  0  0  0  0
  184.4630  178.5650  140.7960 C   0  0  1  0  0  3  0  0  0  0  0  0
  183.8990  178.6570  142.2310 C   0  0  0  0  0  1  0  0  0  0  0  0
  184.3530  180.3220  139.1250 O   0  0  0  0  0  1  0  0  0  0  0  0
  183.5780  179.3910  139.8290 C   0  0  1  0  0  3  0  0  0  0  0  0
  181.8910  178.8020  138.2150 O   0  0  0  0  0  0  0  0  0  0  0  0
  182.8790  178.4610  138.8730 C   0  0  0  0  0  0  0  0  0  0  0  0
  183.3630  177.0440  138.7490 C   0  0  0  0  0  2  0  0  0  0  0  0
  182.4580  176.2970  137.9770 O   0  0  0  0  0  0  0  0  0  0  0  0
  184.7770  174.8170  137.2680 O   0  0  0  0  0  1  0  0  0  0  0  0
  183.3970  175.6570  136.6970 P   0  0  0  0  0  0  0  0  0  0  0  0
  183.8710  176.8240  135.8440 O   0  0  0  0  0  1  0  0  0  0  0  0
  182.4610  174.6120  135.7250 O   0  0  0  0  0  0  0  0  0  0  0  0
  187.2230  176.9200  138.6520 C   0  0  0  0  0  2  0  0  0  0  0  0
  186.7330  178.2650  137.5230 S   0  0  0  0  0  0  0  0  0  0  0  0
  187.8460  177.9720  136.0840 C   0  0  2  0  0  3  0  0  0  0  0  0
  187.7890  176.5660  135.7190 N   0  0  0  0  0  2  0  0  0  0  0  0
  189.7740  176.6950  134.5060 O   0  0  0  0  0  0  0  0  0  0  0  0
  188.9770  175.9640  135.1810 C   0  0  0  0  0  0  0  0  0  0  0  0
  189.0840  174.4770  135.1000 C   0  0  0  0  0  2  0  0  0  0  0  0
  189.4920  173.9230  136.4740 C   0  0  0  0  0  2  0  0  0  0  0  0
  192.5670  176.5250  137.5070 C   0  0  0  0  0  2  0  0  0  0  0  0
  194.4960  176.4040  135.7340 C   0  0  0  0  0  1  0  0  0  0  0  0
  194.3260  174.0520  137.8510 C   0  0  0  0  0  1  0  0  0  0  0  0
  191.3640  172.7060  135.6410 O   0  0  0  0  0  0  0  0  0  0  0  0
  193.2070  175.8020  136.3280 C   0  0  1  0  0  3  0  0  0  0  0  0
  191.8870  174.2160  137.3450 N   0  0  0  0  0  0  0  0  0  0  0  0
  190.9430  173.5520  136.4910 C   0  0  0  0  0  0  0  0  0  0  0  0
  191.5310  175.5060  137.9930 C   0  0  0  0  0  2  0  0  0  0  0  0
  193.2320  174.3620  136.8010 C   0  0  2  0  0  3  0  0  0  0  0  0
  189.2970  179.5020  137.3250 N   0  0  0  0  0  1  0  0  0  0  0  0
  189.2980  178.3660  136.3970 C   0  0  0  0  0  2  0  0  0  0  0  0
  1 11  1  0  0  0  0
  2  1  1  0  0  0  0
  3  8  1  6  0  0  0
  3  4  1  0  0  0  0
  4  7  2  0  0  0  0
  5  6  2  0  0  0  0
  6  2  1  0  0  0  0
  6  3  1  0  0  0  0
  7 11  1  0  0  0  0
  9  8  1  0  0  0  0
 10  5  1  0  0  0  0
 10  9  2  0  0  0  0
 11 12  1  1  0  0  0
 12 13  2  0  0  0  0
 12 14  1  0  0  0  0
 14 16  1  0  0  0  0
 16 15  1  0  0  0  0
 17 18  1  0  0  0  0
 17  9  1  0  0  0  0
 18 19  1  1  0  0  0
 21 20  1  6  0  0  0
 21 18  1  0  0  0  0
 22 23  2  0  0  0  0
 23 21  1  0  0  0  0
 24 23  1  0  0  0  0
 25 24  1  0  0  0  0
 27 26  1  0  0  0  0
 27 25  1  0  0  0  0
 28 27  1  0  0  0  0
 29 27  2  0  0  0  0
 30 10  1  0  0  0  0
 31 30  1  0  0  0  0
 32 48  1  1  0  0  0
 32 31  1  0  0  0  0
 33 32  1  0  0  0  0
 34 35  2  0  0  0  0
 35 33  1  0  0  0  0
 36 35  1  0  0  0  0
 36 37  1  0  0  0  0
 37 44  1  0  0  0  0
 38 45  1  0  0  0  0
 41 44  2  0  0  0  0
 42 39  1  1  0  0  0
 42 46  1  0  0  0  0
 42 38  1  0  0  0  0
 43 45  1  0  0  0  0
 44 43  1  0  0  0  0
 46 43  1  0  0  0  0
 46 40  1  1  0  0  0
 48 47  1  0  0  0  0
M  END
>  <MODEL>
8

>  <REMARK>
 VINA RESULT:      -6.0      3.873     10.558
  Name = 
  18 active torsions:
  status: ('A' for Active; 'I' for Inactive)
    1  A    between atoms: C_4  and  C_27
    2  A    between atoms: C_4  and  C_45
    3  A    between atoms: S_9  and  C_44
    4  A    between atoms: S_9  and  C_47
    5  A    between atoms: N_10  and  C_47
    6  A    between atoms: C_11  and  O_23
    7  A    between atoms: C_11  and  C_46
    8  A    between atoms: C_12  and  N_22
    9  A    between atoms: C_12  and  C_27
   10  A    between atoms: C_17  and  O_23
   11  A    between atoms: N_22  and  C_39
   12  A    between atoms: C_28  and  C_29
   13  A    between atoms: C_28  and  C_41
   14  A    between atoms: O_30  and  P_34
   15  A    between atoms: O_30  and  C_45
   16  A    between atoms: C_33  and  C_41
   17  A    between atoms: C_43  and  C_44
   18  A    between atoms: C_47  and  C_48
                            x       y       z     vdW  Elec       q    Type
                         _______ _______ _______ _____ _____    ______ ____

>  <TORSDO>
F 18

$$$$
=
 OpenBabel10232412143D

 48 50  0  0  1  0  0  0  0  0999 V2000
  190.6310  176.9350  140.8620 N   0  0  0  0  0  2  0  0  0  0  0  0
  190.7810  177.3900  139.5090 C   0  0  0  0  0  2  0  0  0  0  0  0
  188.3090  177.6070  139.1990 C   0  0  2  0  0  3  0  0  0  0  0  0
  188.0580  178.4270  140.3900 C   0  0  0  0  0  3  0  0  0  0  0  0
  189.9000  177.4650  137.2270 C   0  0  0  0  0  3  0  0  0  0  0  0
  189.7310  177.6400  138.6950 C   0  0  0  0  0  0  0  0  0  0  0  0
  188.6090  178.1170  141.5450 C   0  0  0  0  0  3  0  0  0  0  0  0
  187.2690  177.8130  138.1580 C   0  0  0  0  0  2  0  0  0  0  0  0
  187.4390  177.4990  136.8930 C   0  0  0  0  0  0  0  0  0  0  0  0
  188.8580  177.4210  136.3440 C   0  0  0  0  0  0  0  0  0  0  0  0
  189.6080  177.0550  141.7020 C   0  0  2  0  0  3  0  0  0  0  0  0
  189.4870  176.1810  142.8740 C   0  0  0  0  0  0  0  0  0  0  0  0
  190.2050  175.1450  142.9740 O   0  0  0  0  0  0  0  0  0  0  0  0
  188.5950  176.4800  143.9270 O   0  0  0  0  0  0  0  0  0  0  0  0
  187.7390  177.7150  145.8150 C   0  0  0  0  0  1  0  0  0  0  0  0
  188.9480  177.3930  144.9640 C   0  0  0  0  0  2  0  0  0  0  0  0
  186.1900  177.5720  136.1130 N   0  0  0  0  0  2  0  0  0  0  0  0
  185.3560  176.6110  135.3530 C   0  0  1  0  0  3  0  0  0  0  0  0
  185.9230  175.1740  135.3310 C   0  0  0  0  0  1  0  0  0  0  0  0
  183.1060  175.7160  135.1840 O   0  0  0  0  0  1  0  0  0  0  0  0
  183.9120  176.5980  135.9150 C   0  0  1  0  0  3  0  0  0  0  0  0
  184.2450  175.0600  137.7380 O   0  0  0  0  0  0  0  0  0  0  0  0
  183.9440  176.1990  137.3660 C   0  0  0  0  0  0  0  0  0  0  0  0
  183.5430  177.2050  138.4080 C   0  0  0  0  0  2  0  0  0  0  0  0
  183.1160  178.3900  137.7860 O   0  0  0  0  0  0  0  0  0  0  0  0
  181.5030  180.3660  139.0370 O   0  0  0  0  0  1  0  0  0  0  0  0
  183.0010  179.5350  139.0540 P   0  0  0  0  0  0  0  0  0  0  0  0
  184.1120  180.5550  138.8560 O   0  0  0  0  0  0  0  0  0  0  0  0
  183.2120  178.7810  140.5700 O   0  0  0  0  0  1  0  0  0  0  0  0
  189.1040  177.0830  134.9000 C   0  0  0  0  0  2  0  0  0  0  0  0
  190.7090  176.2400  134.7090 S   0  0  0  0  0  0  0  0  0  0  0  0
  190.2790  174.5060  135.1590 C   0  0  2  0  0  3  0  0  0  0  0  0
  191.4330  173.6540  134.9230 N   0  0  0  0  0  2  0  0  0  0  0  0
  192.2500  173.9900  137.0790 O   0  0  0  0  0  0  0  0  0  0  0  0
  192.1910  173.2220  136.0640 C   0  0  0  0  0  0  0  0  0  0  0  0
  193.1670  172.1000  135.9240 C   0  0  0  0  0  2  0  0  0  0  0  0
  194.4570  172.6280  135.2750 C   0  0  0  0  0  2  0  0  0  0  0  0
  197.3010  175.6570  135.4580 C   0  0  0  0  0  2  0  0  0  0  0  0
  199.7090  174.6340  135.6400 C   0  0  0  0  0  1  0  0  0  0  0  0
  197.9450  174.6610  138.2720 C   0  0  0  0  0  1  0  0  0  0  0  0
  196.0830  171.5870  136.6720 O   0  0  0  0  0  0  0  0  0  0  0  0
  198.1820  174.4410  135.7170 C   0  0  1  0  0  3  0  0  0  0  0  0
  196.1620  173.9220  136.6880 N   0  0  0  0  0  0  0  0  0  0  0  0
  195.5730  172.6810  136.2730 C   0  0  0  0  0  0  0  0  0  0  0  0
  195.9210  175.1630  135.9060 C   0  0  0  0  0  2  0  0  0  0  0  0
  197.5870  173.8710  136.9900 C   0  0  2  0  0  3  0  0  0  0  0  0
  188.9180  172.5510  134.5960 N   0  0  0  0  0  1  0  0  0  0  0  0
  189.0810  173.9880  134.3470 C   0  0  0  0  0  2  0  0  0  0  0  0
  1 11  1  0  0  0  0
  2  1  1  0  0  0  0
  3  8  1  6  0  0  0
  3  4  1  0  0  0  0
  4  7  2  0  0  0  0
  5  6  2  0  0  0  0
  6  3  1  0  0  0  0
  6  2  1  0  0  0  0
  7 11  1  0  0  0  0
  9  8  1  0  0  0  0
 10  9  2  0  0  0  0
 10  5  1  0  0  0  0
 11 12  1  1  0  0  0
 12 13  2  0  0  0  0
 12 14  1  0  0  0  0
 14 16  1  0  0  0  0
 16 15  1  0  0  0  0
 17  9  1  0  0  0  0
 18 19  1  1  0  0  0
 18 21  1  0  0  0  0
 18 17  1  0  0  0  0
 21 20  1  6  0  0  0
 21 23  1  0  0  0  0
 23 22  2  0  0  0  0
 23 24  1  0  0  0  0
 25 24  1  0  0  0  0
 25 27  1  0  0  0  0
 26 27  1  0  0  0  0
 27 29  1  0  0  0  0
 28 27  2  0  0  0  0
 30 10  1  0  0  0  0
 31 30  1  0  0  0  0
 31 32  1  0  0  0  0
 32 48  1  6  0  0  0
 33 32  1  0  0  0  0
 33 35  1  0  0  0  0
 35 34  2  0  0  0  0
 36 35  1  0  0  0  0
 37 36  1  0  0  0  0
 37 44  1  0  0  0  0
 38 42  1  0  0  0  0
 38 45  1  0  0  0  0
 42 39  1  1  0  0  0
 42 46  1  0  0  0  0
 43 46  1  0  0  0  0
 44 41  2  0  0  0  0
 44 43  1  0  0  0  0
 45 43  1  0  0  0  0
 46 40  1  1  0  0  0
 48 47  1  0  0  0  0
M  END
>  <MODEL>
9

>  <REMARK>
 VINA RESULT:      -5.9      3.800     11.236
  Name = 
  18 active torsions:
  status: ('A' for Active; 'I' for Inactive)
    1  A    between atoms: C_4  and  C_27
    2  A    between atoms: C_4  and  C_45
    3  A    between atoms: S_9  and  C_44
    4  A    between atoms: S_9  and  C_47
    5  A    between atoms: N_10  and  C_47
    6  A    between atoms: C_11  and  O_23
    7  A    between atoms: C_11  and  C_46
    8  A    between atoms: C_12  and  N_22
    9  A    between atoms: C_12  and  C_27
   10  A    between atoms: C_17  and  O_23
   11  A    between atoms: N_22  and  C_39
   12  A    between atoms: C_28  and  C_29
   13  A    between atoms: C_28  and  C_41
   14  A    between atoms: O_30  and  P_34
   15  A    between atoms: O_30  and  C_45
   16  A    between atoms: C_33  and  C_41
   17  A    between atoms: C_43  and  C_44
   18  A    between atoms: C_47  and  C_48
                            x       y       z     vdW  Elec       q    Type
                         _______ _______ _______ _____ _____    ______ ____

>  <TORSDO>
F 18

$$$$
