=
 OpenBabel10232408243D

 30 33  0  0  1  0  0  0  0  0999 V2000
  188.3400  177.7930  141.4800 C   0  0  2  0  0  3  0  0  0  0  0  0
  185.0970  178.2330  141.8010 N   0  0  0  0  0  0  0  0  0  0  0  0
  186.7160  179.2180  140.6820 O   0  0  0  0  0  0  0  0  0  0  0  0
  187.3810  178.8450  141.8280 N   0  0  0  0  0  0  0  0  0  0  0  0
  185.4000  178.8300  140.7100 C   0  0  0  0  0  0  0  0  0  0  0  0
  186.3090  178.2040  142.6170 C   0  0  0  0  0  2  0  0  0  0  0  0
  184.3910  180.2040  139.0800 O   0  0  0  0  0  0  0  0  0  0  0  0
  184.4580  179.0640  139.6110 C   0  0  0  0  0  0  0  0  0  0  0  0
  183.5790  177.9680  139.1090 C   0  0  0  0  0  1  0  0  0  0  0  0
  188.2440  177.3520  140.1310 O   0  0  0  0  0  0  0  0  0  0  0  0
  189.3110  177.8060  139.3090 C   0  0  1  0  0  3  0  0  0  0  0  0
  191.5340  177.7790  140.1680 F   0  0  0  0  0  0  0  0  0  0  0  0
  190.6530  177.0670  139.3740 C   0  0  0  0  0  3  0  0  0  0  0  0
  191.2000  176.9610  138.1070 F   0  0  0  0  0  0  0  0  0  0  0  0
  189.0590  179.6850  137.9170 O   0  0  0  0  0  0  0  0  0  0  0  0
  188.8980  178.4780  138.0220 C   0  0  0  0  0  0  0  0  0  0  0  0
  186.7660  177.7160  137.0740 C   0  0  0  0  0  2  0  0  0  0  0  0
  188.2350  177.7290  136.8970 C   0  0  1  0  0  3  0  0  0  0  0  0
  187.3900  178.5880  136.1670 O   0  0  0  0  0  0  0  0  0  0  0  0
  188.3840  176.6430  142.4870 C   0  0  0  0  0  2  0  0  0  0  0  0
  189.4880  176.8740  143.5040 C   0  0  1  0  0  0  0  0  0  0  0  0
  190.8420  176.3730  143.1830 C   0  0  0  0  0  2  0  0  0  0  0  0
  190.4860  177.7280  143.0040 O   0  0  0  0  0  0  0  0  0  0  0  0
  187.8470  177.4340  145.3210 C   0  0  0  0  0  3  0  0  0  0  0  0
  188.5910  177.7320  147.5940 C   0  0  0  0  0  0  0  0  0  0  0  0
  189.8680  177.4810  147.2000 N   0  0  0  0  0  0  0  0  0  0  0  0
  188.2970  178.0400  149.0180 C   0  0  0  0  0  1  0  0  0  0  0  0
  189.1630  177.1590  144.9380 C   0  0  0  0  0  0  0  0  0  0  0  0
  190.1750  177.2000  145.9030 C   0  0  0  0  0  3  0  0  0  0  0  0
  187.5540  177.7180  146.6560 C   0  0  0  0  0  3  0  0  0  0  0  0
  1  4  1  0  0  0  0
  1 20  1  1  0  0  0
  2  6  1  0  0  0  0
  3  5  1  0  0  0  0
  3  4  1  0  0  0  0
  4  6  1  0  0  0  0
  5  2  2  0  0  0  0
  7  8  2  0  0  0  0
  8  5  1  0  0  0  0
  9  8  1  0  0  0  0
 10  1  1  0  0  0  0
 11 16  1  6  0  0  0
 11 13  1  0  0  0  0
 11 10  1  0  0  0  0
 13 12  1  0  0  0  0
 14 13  1  0  0  0  0
 15 16  2  0  0  0  0
 18 17  1  0  0  0  0
 18 16  1  1  0  0  0
 19 18  1  0  0  0  0
 19 17  1  0  0  0  0
 21 20  1  6  0  0  0
 21 28  1  0  0  0  0
 22 21  1  0  0  0  0
 23 22  1  0  0  0  0
 23 21  1  0  0  0  0
 24 30  1  0  0  0  0
 25 27  1  0  0  0  0
 26 25  1  0  0  0  0
 28 24  2  0  0  0  0
 28 29  1  0  0  0  0
 29 26  2  0  0  0  0
 30 25  2  0  0  0  0
M  END
>  <MODEL>
1

>  <REMARK>
 VINA RESULT:      -7.7      0.000      0.000
  Name = 
  10 active torsions:
  status: ('A' for Active; 'I' for Inactive)
    1  A    between atoms: O_3  and  C_23
    2  A    between atoms: O_3  and  C_26
    3  A    between atoms: C_8  and  C_23
    4  A    between atoms: C_10  and  C_19
    5  A    between atoms: C_10  and  C_22
    6  A    between atoms: N_13  and  C_26
    7  A    between atoms: C_14  and  C_15
    8  A    between atoms: C_16  and  C_29
    9  A    between atoms: C_19  and  C_26
   10  A    between atoms: C_23  and  C_29
                            x       y       z     vdW  Elec       q    Type
                         _______ _______ _______ _____ _____    ______ ____

>  <TORSDO>
F 10

$$$$
=
 OpenBabel10232408243D

 30 33  0  0  1  0  0  0  0  0999 V2000
  187.6690  177.7510  141.9430 C   0  0  2  0  0  3  0  0  0  0  0  0
  184.4510  178.1350  141.3860 N   0  0  0  0  0  0  0  0  0  0  0  0
  186.2800  179.2530  140.8860 O   0  0  0  0  0  0  0  0  0  0  0  0
  186.6120  178.7500  142.1240 N   0  0  0  0  0  0  0  0  0  0  0  0
  185.0240  178.8590  140.4990 C   0  0  0  0  0  0  0  0  0  0  0  0
  185.3870  178.0150  142.5010 C   0  0  0  0  0  2  0  0  0  0  0  0
  184.1070  180.4150  138.9830 O   0  0  0  0  0  0  0  0  0  0  0  0
  184.4180  179.2160  139.2120 C   0  0  0  0  0  0  0  0  0  0  0  0
  184.1680  178.1800  138.1690 C   0  0  0  0  0  1  0  0  0  0  0  0
  187.7740  176.8240  143.0170 O   0  0  0  0  0  0  0  0  0  0  0  0
  188.4920  177.3290  144.1340 C   0  0  1  0  0  3  0  0  0  0  0  0
  188.4030  176.9510  146.4860 F   0  0  0  0  0  0  0  0  0  0  0  0
  187.7340  177.5700  145.4450 C   0  0  0  0  0  3  0  0  0  0  0  0
  186.4620  177.0300  145.3660 F   0  0  0  0  0  0  0  0  0  0  0  0
  190.3010  175.8750  143.7580 O   0  0  0  0  0  0  0  0  0  0  0  0
  189.9570  176.9670  144.1820 C   0  0  0  0  0  0  0  0  0  0  0  0
  191.7860  178.5440  143.7410 C   0  0  0  0  0  2  0  0  0  0  0  0
  190.9920  177.8720  144.7950 C   0  0  1  0  0  3  0  0  0  0  0  0
  190.7550  179.2110  144.4230 O   0  0  0  0  0  0  0  0  0  0  0  0
  189.0150  178.3470  141.5300 C   0  0  0  0  0  2  0  0  0  0  0  0
  189.5490  177.6400  140.2960 C   0  0  1  0  0  0  0  0  0  0  0  0
  190.9630  177.2080  140.3010 C   0  0  0  0  0  2  0  0  0  0  0  0
  189.9080  176.3090  140.5730 O   0  0  0  0  0  0  0  0  0  0  0  0
  188.2000  176.6840  138.4040 C   0  0  0  0  0  3  0  0  0  0  0  0
  187.6280  178.0440  136.4990 C   0  0  0  0  0  0  0  0  0  0  0  0
  188.2890  179.0930  137.0590 N   0  0  0  0  0  0  0  0  0  0  0  0
  186.9740  178.1980  135.1730 C   0  0  0  0  0  1  0  0  0  0  0  0
  188.8600  177.7780  138.9740 C   0  0  0  0  0  0  0  0  0  0  0  0
  188.9030  178.9870  138.2700 C   0  0  0  0  0  3  0  0  0  0  0  0
  187.5760  176.8140  137.1630 C   0  0  0  0  0  3  0  0  0  0  0  0
  1 20  1  1  0  0  0
  1  4  1  0  0  0  0
  1 10  1  0  0  0  0
  2  6  1  0  0  0  0
  3  4  1  0  0  0  0
  4  6  1  0  0  0  0
  5  3  1  0  0  0  0
  5  2  2  0  0  0  0
  7  8  2  0  0  0  0
  8  5  1  0  0  0  0
  9  8  1  0  0  0  0
 11 10  1  1  0  0  0
 11 16  1  0  0  0  0
 11 13  1  0  0  0  0
 13 12  1  0  0  0  0
 14 13  1  0  0  0  0
 15 16  2  0  0  0  0
 17 19  1  0  0  0  0
 17 18  1  0  0  0  0
 18 16  1  6  0  0  0
 19 18  1  0  0  0  0
 21 22  1  0  0  0  0
 21 23  1  0  0  0  0
 21 20  1  1  0  0  0
 22 23  1  0  0  0  0
 24 28  1  0  0  0  0
 25 26  2  0  0  0  0
 25 30  1  0  0  0  0
 26 29  1  0  0  0  0
 27 25  1  0  0  0  0
 28 21  1  0  0  0  0
 29 28  2  0  0  0  0
 30 24  2  0  0  0  0
M  END
>  <MODEL>
2

>  <REMARK>
 VINA RESULT:      -7.4      2.871      6.370
  Name = 
  10 active torsions:
  status: ('A' for Active; 'I' for Inactive)
    1  A    between atoms: O_3  and  C_23
    2  A    between atoms: O_3  and  C_26
    3  A    between atoms: C_8  and  C_23
    4  A    between atoms: C_10  and  C_19
    5  A    between atoms: C_10  and  C_22
    6  A    between atoms: N_13  and  C_26
    7  A    between atoms: C_14  and  C_15
    8  A    between atoms: C_16  and  C_29
    9  A    between atoms: C_19  and  C_26
   10  A    between atoms: C_23  and  C_29
                            x       y       z     vdW  Elec       q    Type
                         _______ _______ _______ _____ _____    ______ ____

>  <TORSDO>
F 10

$$$$
=
 OpenBabel10232408243D

 30 33  0  0  1  0  0  0  0  0999 V2000
  189.3220  176.8320  143.3830 C   0  0  2  0  0  3  0  0  0  0  0  0
  191.4270  177.6880  141.0070 N   0  0  0  0  0  0  0  0  0  0  0  0
  190.2610  175.8880  141.5050 O   0  0  0  0  0  0  0  0  0  0  0  0
  190.5630  176.3600  142.7630 N   0  0  0  0  0  0  0  0  0  0  0  0
  190.7740  176.6980  140.5230 C   0  0  0  0  0  0  0  0  0  0  0  0
  191.3730  177.5580  142.4610 C   0  0  0  0  0  2  0  0  0  0  0  0
  190.9310  175.3580  138.5880 O   0  0  0  0  0  0  0  0  0  0  0  0
  190.5840  176.4610  139.0890 C   0  0  0  0  0  0  0  0  0  0  0  0
  189.9810  177.5080  138.2120 C   0  0  0  0  0  1  0  0  0  0  0  0
  189.1510  176.4030  144.7280 O   0  0  0  0  0  0  0  0  0  0  0  0
  189.5360  177.3770  145.6880 C   0  0  1  0  0  3  0  0  0  0  0  0
  188.9800  178.4930  147.7200 F   0  0  0  0  0  0  0  0  0  0  0  0
  188.4420  178.0550  146.5230 C   0  0  0  0  0  3  0  0  0  0  0  0
  187.4310  177.1530  146.8060 F   0  0  0  0  0  0  0  0  0  0  0  0
  191.8560  177.7530  145.7330 O   0  0  0  0  0  0  0  0  0  0  0  0
  190.9140  177.1990  146.2780 C   0  0  0  0  0  0  0  0  0  0  0  0
  192.3360  175.4300  147.2130 C   0  0  0  0  0  2  0  0  0  0  0  0
  191.1750  176.3120  147.4660 C   0  0  1  0  0  3  0  0  0  0  0  0
  192.4470  176.5810  148.0090 O   0  0  0  0  0  0  0  0  0  0  0  0
  188.0790  176.6120  142.5190 C   0  0  0  0  0  2  0  0  0  0  0  0
  187.4040  177.9380  142.2160 C   0  0  1  0  0  0  0  0  0  0  0  0
  188.2600  179.0790  141.8270 C   0  0  0  0  0  2  0  0  0  0  0  0
  187.5660  178.3080  140.8690 O   0  0  0  0  0  0  0  0  0  0  0  0
  185.7840  178.3180  144.0970 C   0  0  0  0  0  3  0  0  0  0  0  0
  183.4540  178.7290  143.6420 C   0  0  0  0  0  0  0  0  0  0  0  0
  183.7030  178.6240  142.3090 N   0  0  0  0  0  0  0  0  0  0  0  0
  182.0720  178.9930  144.1220 C   0  0  0  0  0  1  0  0  0  0  0  0
  186.0260  178.2310  142.7230 C   0  0  0  0  0  0  0  0  0  0  0  0
  184.9560  178.3770  141.8330 C   0  0  0  0  0  3  0  0  0  0  0  0
  184.4930  178.5720  144.5640 C   0  0  0  0  0  3  0  0  0  0  0  0
  1 20  1  6  0  0  0
  1 10  1  0  0  0  0
  2  6  1  0  0  0  0
  3  4  1  0  0  0  0
  4  1  1  0  0  0  0
  5  2  2  0  0  0  0
  5  3  1  0  0  0  0
  6  4  1  0  0  0  0
  7  8  2  0  0  0  0
  8  5  1  0  0  0  0
  9  8  1  0  0  0  0
 11 10  1  1  0  0  0
 11 16  1  0  0  0  0
 11 13  1  0  0  0  0
 13 14  1  0  0  0  0
 13 12  1  0  0  0  0
 15 16  2  0  0  0  0
 17 18  1  0  0  0  0
 17 19  1  0  0  0  0
 18 16  1  6  0  0  0
 18 19  1  0  0  0  0
 21 20  1  1  0  0  0
 21 28  1  0  0  0  0
 22 21  1  0  0  0  0
 23 22  1  0  0  0  0
 23 21  1  0  0  0  0
 24 30  1  0  0  0  0
 25 27  1  0  0  0  0
 25 30  2  0  0  0  0
 26 25  1  0  0  0  0
 28 24  2  0  0  0  0
 29 26  2  0  0  0  0
 29 28  1  0  0  0  0
M  END
>  <MODEL>
3

>  <REMARK>
 VINA RESULT:      -7.4      3.180      6.932
  Name = 
  10 active torsions:
  status: ('A' for Active; 'I' for Inactive)
    1  A    between atoms: O_3  and  C_23
    2  A    between atoms: O_3  and  C_26
    3  A    between atoms: C_8  and  C_23
    4  A    between atoms: C_10  and  C_19
    5  A    between atoms: C_10  and  C_22
    6  A    between atoms: N_13  and  C_26
    7  A    between atoms: C_14  and  C_15
    8  A    between atoms: C_16  and  C_29
    9  A    between atoms: C_19  and  C_26
   10  A    between atoms: C_23  and  C_29
                            x       y       z     vdW  Elec       q    Type
                         _______ _______ _______ _____ _____    ______ ____

>  <TORSDO>
F 10

$$$$
=
 OpenBabel10232408243D

 30 33  0  0  1  0  0  0  0  0999 V2000
  188.7280  177.5410  143.4100 C   0  0  2  0  0  3  0  0  0  0  0  0
  185.6990  178.7110  142.8900 N   0  0  0  0  0  0  0  0  0  0  0  0
  186.6320  177.3470  144.3450 O   0  0  0  0  0  0  0  0  0  0  0  0
  187.3590  177.0570  143.2120 N   0  0  0  0  0  0  0  0  0  0  0  0
  185.6920  178.3190  144.1090 C   0  0  0  0  0  0  0  0  0  0  0  0
  186.7350  177.9400  142.2050 C   0  0  0  0  0  2  0  0  0  0  0  0
  185.2710  179.2430  146.2380 O   0  0  0  0  0  0  0  0  0  0  0  0
  184.7950  178.8520  145.1380 C   0  0  0  0  0  0  0  0  0  0  0  0
  183.3240  178.9410  144.9020 C   0  0  0  0  0  1  0  0  0  0  0  0
  188.9670  178.0750  144.7060 O   0  0  0  0  0  0  0  0  0  0  0  0
  189.8600  177.2930  145.4870 C   0  0  1  0  0  3  0  0  0  0  0  0
  191.6070  178.5940  144.5180 F   0  0  0  0  0  0  0  0  0  0  0  0
  191.3680  177.4420  145.2450 C   0  0  0  0  0  3  0  0  0  0  0  0
  191.8420  176.3630  144.5180 F   0  0  0  0  0  0  0  0  0  0  0  0
  190.0670  176.2030  147.5600 O   0  0  0  0  0  0  0  0  0  0  0  0
  189.3650  176.9200  146.8630 C   0  0  0  0  0  0  0  0  0  0  0  0
  188.0890  177.6940  148.8120 C   0  0  0  0  0  2  0  0  0  0  0  0
  188.0140  177.3410  147.3770 C   0  0  1  0  0  3  0  0  0  0  0  0
  188.0510  178.6800  147.8130 O   0  0  0  0  0  0  0  0  0  0  0  0
  189.2300  178.4460  142.2850 C   0  0  0  0  0  2  0  0  0  0  0  0
  190.0060  177.6360  141.2610 C   0  0  1  0  0  0  0  0  0  0  0  0
  191.4080  177.2860  141.5730 C   0  0  0  0  0  2  0  0  0  0  0  0
  190.3520  176.3670  141.7570 O   0  0  0  0  0  0  0  0  0  0  0  0
  189.8730  176.4750  139.0370 C   0  0  0  0  0  3  0  0  0  0  0  0
  188.7880  177.5360  137.1650 C   0  0  0  0  0  0  0  0  0  0  0  0
  188.5170  178.6170  137.9450 N   0  0  0  0  0  0  0  0  0  0  0  0
  188.3680  177.5220  135.7400 C   0  0  0  0  0  1  0  0  0  0  0  0
  189.5680  177.5870  139.8300 C   0  0  0  0  0  0  0  0  0  0  0  0
  188.8910  178.6670  139.2540 C   0  0  0  0  0  3  0  0  0  0  0  0
  189.4790  176.4440  137.6980 C   0  0  0  0  0  3  0  0  0  0  0  0
  1 20  1  6  0  0  0
  1 10  1  0  0  0  0
  2  5  2  0  0  0  0
  4  1  1  0  0  0  0
  4  3  1  0  0  0  0
  5  3  1  0  0  0  0
  5  8  1  0  0  0  0
  6  2  1  0  0  0  0
  6  4  1  0  0  0  0
  8  7  2  0  0  0  0
  9  8  1  0  0  0  0
 11 10  1  1  0  0  0
 11 16  1  0  0  0  0
 12 13  1  0  0  0  0
 13 11  1  0  0  0  0
 14 13  1  0  0  0  0
 16 15  2  0  0  0  0
 18 16  1  6  0  0  0
 18 19  1  0  0  0  0
 18 17  1  0  0  0  0
 19 17  1  0  0  0  0
 21 22  1  0  0  0  0
 21 23  1  0  0  0  0
 21 20  1  1  0  0  0
 22 23  1  0  0  0  0
 24 28  1  0  0  0  0
 25 30  1  0  0  0  0
 25 26  2  0  0  0  0
 26 29  1  0  0  0  0
 27 25  1  0  0  0  0
 28 21  1  0  0  0  0
 29 28  2  0  0  0  0
 30 24  2  0  0  0  0
M  END
>  <MODEL>
4

>  <REMARK>
 VINA RESULT:      -7.4      3.120      7.033
  Name = 
  10 active torsions:
  status: ('A' for Active; 'I' for Inactive)
    1  A    between atoms: O_3  and  C_23
    2  A    between atoms: O_3  and  C_26
    3  A    between atoms: C_8  and  C_23
    4  A    between atoms: C_10  and  C_19
    5  A    between atoms: C_10  and  C_22
    6  A    between atoms: N_13  and  C_26
    7  A    between atoms: C_14  and  C_15
    8  A    between atoms: C_16  and  C_29
    9  A    between atoms: C_19  and  C_26
   10  A    between atoms: C_23  and  C_29
                            x       y       z     vdW  Elec       q    Type
                         _______ _______ _______ _____ _____    ______ ____

>  <TORSDO>
F 10

$$$$
=
 OpenBabel10232408243D

 30 33  0  0  1  0  0  0  0  0999 V2000
  188.5940  177.5620  143.1780 C   0  0  2  0  0  3  0  0  0  0  0  0
  185.5310  178.7110  143.5140 N   0  0  0  0  0  0  0  0  0  0  0  0
  186.7860  177.2410  144.5680 O   0  0  0  0  0  0  0  0  0  0  0  0
  187.2170  177.0690  143.2710 N   0  0  0  0  0  0  0  0  0  0  0  0
  185.8190  178.2100  144.6570 C   0  0  0  0  0  0  0  0  0  0  0  0
  186.3690  178.0270  142.5310 C   0  0  0  0  0  2  0  0  0  0  0  0
  183.9690  178.9030  145.9460 O   0  0  0  0  0  0  0  0  0  0  0  0
  185.1990  178.6290  145.9180 C   0  0  0  0  0  0  0  0  0  0  0  0
  186.0030  178.7310  147.1710 C   0  0  0  0  0  1  0  0  0  0  0  0
  189.0740  178.1580  144.3760 O   0  0  0  0  0  0  0  0  0  0  0  0
  190.3780  177.7290  144.7410 C   0  0  1  0  0  3  0  0  0  0  0  0
  191.1190  179.8230  143.8750 F   0  0  0  0  0  0  0  0  0  0  0  0
  191.5740  178.6080  144.3530 C   0  0  0  0  0  3  0  0  0  0  0  0
  192.3100  177.9970  143.3520 F   0  0  0  0  0  0  0  0  0  0  0  0
  189.4480  176.7280  146.6540 O   0  0  0  0  0  0  0  0  0  0  0  0
  190.4590  176.8780  145.9850 C   0  0  0  0  0  0  0  0  0  0  0  0
  192.0090  176.6370  147.8730 C   0  0  0  0  0  2  0  0  0  0  0  0
  191.7500  176.2680  146.4630 C   0  0  1  0  0  3  0  0  0  0  0  0
  191.5060  175.3730  147.5230 O   0  0  0  0  0  0  0  0  0  0  0  0
  188.8600  178.4110  141.9350 C   0  0  0  0  0  2  0  0  0  0  0  0
  189.4380  177.5520  140.8220 C   0  0  1  0  0  0  0  0  0  0  0  0
  190.8770  177.2170  140.8810 C   0  0  0  0  0  2  0  0  0  0  0  0
  189.8810  176.3080  141.3030 O   0  0  0  0  0  0  0  0  0  0  0  0
  189.1480  176.4750  138.5720 C   0  0  0  0  0  3  0  0  0  0  0  0
  187.4630  177.2670  137.0430 C   0  0  0  0  0  0  0  0  0  0  0  0
  187.0900  178.2070  137.9520 N   0  0  0  0  0  0  0  0  0  0  0  0
  186.7730  177.1880  135.7290 C   0  0  0  0  0  1  0  0  0  0  0  0
  188.7400  177.4350  139.5030 C   0  0  0  0  0  0  0  0  0  0  0  0
  187.7030  178.3120  139.1650 C   0  0  0  0  0  3  0  0  0  0  0  0
  188.5060  176.3840  137.3350 C   0  0  0  0  0  3  0  0  0  0  0  0
  1 20  1  6  0  0  0
  1  4  1  0  0  0  0
  1 10  1  0  0  0  0
  2  5  2  0  0  0  0
  3  5  1  0  0  0  0
  4  3  1  0  0  0  0
  5  8  1  0  0  0  0
  6  4  1  0  0  0  0
  6  2  1  0  0  0  0
  8  7  2  0  0  0  0
  8  9  1  0  0  0  0
 10 11  1  0  0  0  0
 11 13  1  1  0  0  0
 11 16  1  0  0  0  0
 12 13  1  0  0  0  0
 14 13  1  0  0  0  0
 16 15  2  0  0  0  0
 18 16  1  1  0  0  0
 18 19  1  0  0  0  0
 18 17  1  0  0  0  0
 19 17  1  0  0  0  0
 21 22  1  0  0  0  0
 21 23  1  0  0  0  0
 21 20  1  1  0  0  0
 22 23  1  0  0  0  0
 24 28  1  0  0  0  0
 25 30  1  0  0  0  0
 25 26  2  0  0  0  0
 26 29  1  0  0  0  0
 27 25  1  0  0  0  0
 28 21  1  0  0  0  0
 29 28  2  0  0  0  0
 30 24  2  0  0  0  0
M  END
>  <MODEL>
5

>  <REMARK>
 VINA RESULT:      -7.4      3.062      7.127
  Name = 
  10 active torsions:
  status: ('A' for Active; 'I' for Inactive)
    1  A    between atoms: O_3  and  C_23
    2  A    between atoms: O_3  and  C_26
    3  A    between atoms: C_8  and  C_23
    4  A    between atoms: C_10  and  C_19
    5  A    between atoms: C_10  and  C_22
    6  A    between atoms: N_13  and  C_26
    7  A    between atoms: C_14  and  C_15
    8  A    between atoms: C_16  and  C_29
    9  A    between atoms: C_19  and  C_26
   10  A    between atoms: C_23  and  C_29
                            x       y       z     vdW  Elec       q    Type
                         _______ _______ _______ _____ _____    ______ ____

>  <TORSDO>
F 10

$$$$
=
 OpenBabel10232408243D

 30 33  0  0  1  0  0  0  0  0999 V2000
  188.1370  178.0410  141.2220 C   0  0  2  0  0  3  0  0  0  0  0  0
  188.4000  178.9040  138.0600 N   0  0  0  0  0  0  0  0  0  0  0  0
  187.6970  177.1280  139.1550 O   0  0  0  0  0  0  0  0  0  0  0  0
  188.7220  177.5490  139.9720 N   0  0  0  0  0  0  0  0  0  0  0  0
  187.5440  177.9520  138.0680 C   0  0  0  0  0  0  0  0  0  0  0  0
  189.2360  178.7300  139.2460 C   0  0  0  0  0  2  0  0  0  0  0  0
  185.3350  177.4730  137.3930 O   0  0  0  0  0  0  0  0  0  0  0  0
  186.5100  177.7670  137.0450 C   0  0  0  0  0  0  0  0  0  0  0  0
  186.8290  177.9260  135.5960 C   0  0  0  0  0  1  0  0  0  0  0  0
  187.1700  179.0670  141.0400 O   0  0  0  0  0  0  0  0  0  0  0  0
  185.8760  178.7180  141.5130 C   0  0  1  0  0  3  0  0  0  0  0  0
  184.7930  177.8120  143.4340 F   0  0  0  0  0  0  0  0  0  0  0  0
  185.5780  178.8690  143.0100 C   0  0  0  0  0  3  0  0  0  0  0  0
  184.8830  180.0440  143.2410 F   0  0  0  0  0  0  0  0  0  0  0  0
  184.7950  179.8190  139.7390 O   0  0  0  0  0  0  0  0  0  0  0  0
  184.7550  178.8760  140.5150 C   0  0  0  0  0  0  0  0  0  0  0  0
  182.4030  178.5920  141.1590 C   0  0  0  0  0  2  0  0  0  0  0  0
  183.5610  177.9590  140.4910 C   0  0  1  0  0  3  0  0  0  0  0  0
  182.5080  178.5430  139.7600 O   0  0  0  0  0  0  0  0  0  0  0  0
  189.1730  178.3750  142.2970 C   0  0  0  0  0  2  0  0  0  0  0  0
  189.3220  177.2150  143.2660 C   0  0  1  0  0  0  0  0  0  0  0  0
  189.3570  175.8460  142.7090 C   0  0  0  0  0  2  0  0  0  0  0  0
  190.5360  176.5310  143.0770 O   0  0  0  0  0  0  0  0  0  0  0  0
  187.6470  177.4560  145.1230 C   0  0  0  0  0  3  0  0  0  0  0  0
  188.3770  177.7280  147.4030 C   0  0  0  0  0  0  0  0  0  0  0  0
  189.6710  177.6690  146.9870 N   0  0  0  0  0  0  0  0  0  0  0  0
  188.0660  177.9180  148.8440 C   0  0  0  0  0  1  0  0  0  0  0  0
  188.9830  177.3780  144.7150 C   0  0  0  0  0  0  0  0  0  0  0  0
  189.9940  177.5010  145.6740 C   0  0  0  0  0  3  0  0  0  0  0  0
  187.3380  177.6270  146.4730 C   0  0  0  0  0  3  0  0  0  0  0  0
  1 20  1  1  0  0  0
  2  5  2  0  0  0  0
  2  6  1  0  0  0  0
  3  4  1  0  0  0  0
  4  1  1  0  0  0  0
  5  3  1  0  0  0  0
  6  4  1  0  0  0  0
  8  7  2  0  0  0  0
  8  5  1  0  0  0  0
  9  8  1  0  0  0  0
 10  1  1  0  0  0  0
 10 11  1  0  0  0  0
 11 16  1  6  0  0  0
 11 13  1  0  0  0  0
 13 14  1  0  0  0  0
 13 12  1  0  0  0  0
 15 16  2  0  0  0  0
 18 16  1  1  0  0  0
 18 17  1  0  0  0  0
 19 18  1  0  0  0  0
 19 17  1  0  0  0  0
 21 20  1  6  0  0  0
 21 28  1  0  0  0  0
 22 23  1  0  0  0  0
 22 21  1  0  0  0  0
 23 21  1  0  0  0  0
 24 30  1  0  0  0  0
 25 27  1  0  0  0  0
 26 25  1  0  0  0  0
 28 24  2  0  0  0  0
 28 29  1  0  0  0  0
 29 26  2  0  0  0  0
 30 25  2  0  0  0  0
M  END
>  <MODEL>
6

>  <REMARK>
 VINA RESULT:      -7.4      2.517      3.990
  Name = 
  10 active torsions:
  status: ('A' for Active; 'I' for Inactive)
    1  A    between atoms: O_3  and  C_23
    2  A    between atoms: O_3  and  C_26
    3  A    between atoms: C_8  and  C_23
    4  A    between atoms: C_10  and  C_19
    5  A    between atoms: C_10  and  C_22
    6  A    between atoms: N_13  and  C_26
    7  A    between atoms: C_14  and  C_15
    8  A    between atoms: C_16  and  C_29
    9  A    between atoms: C_19  and  C_26
   10  A    between atoms: C_23  and  C_29
                            x       y       z     vdW  Elec       q    Type
                         _______ _______ _______ _____ _____    ______ ____

>  <TORSDO>
F 10

$$$$
=
 OpenBabel10232408243D

 30 33  0  0  1  0  0  0  0  0999 V2000
  187.8150  177.8280  144.7820 C   0  0  2  0  0  3  0  0  0  0  0  0
  188.7170  177.0540  141.7160 N   0  0  0  0  0  0  0  0  0  0  0  0
  189.4660  178.4060  143.2830 O   0  0  0  0  0  0  0  0  0  0  0  0
  188.1080  178.4790  143.5020 N   0  0  0  0  0  0  0  0  0  0  0  0
  189.7670  177.5590  142.2470 C   0  0  0  0  0  0  0  0  0  0  0  0
  187.5730  177.6000  142.4420 C   0  0  0  0  0  2  0  0  0  0  0  0
  192.0260  177.0240  142.6690 O   0  0  0  0  0  0  0  0  0  0  0  0
  191.1350  177.2600  141.8100 C   0  0  0  0  0  0  0  0  0  0  0  0
  191.4860  177.2280  140.3600 C   0  0  0  0  0  1  0  0  0  0  0  0
  188.8680  177.0000  145.2590 O   0  0  0  0  0  0  0  0  0  0  0  0
  189.5730  177.5570  146.3610 C   0  0  1  0  0  3  0  0  0  0  0  0
  189.6470  178.4490  148.5700 F   0  0  0  0  0  0  0  0  0  0  0  0
  188.7770  177.9800  147.6020 C   0  0  0  0  0  3  0  0  0  0  0  0
  188.0930  176.8950  148.1230 F   0  0  0  0  0  0  0  0  0  0  0  0
  191.8540  177.5760  145.7910 O   0  0  0  0  0  0  0  0  0  0  0  0
  191.0000  177.0930  146.5200 C   0  0  0  0  0  0  0  0  0  0  0  0
  192.3520  175.0740  146.8670 C   0  0  0  0  0  2  0  0  0  0  0  0
  191.3950  176.0140  147.4920 C   0  0  1  0  0  3  0  0  0  0  0  0
  192.7770  176.0730  147.7570 O   0  0  0  0  0  0  0  0  0  0  0  0
  186.4470  177.1470  144.8260 C   0  0  0  0  0  2  0  0  0  0  0  0
  185.3770  178.1380  145.2520 C   0  0  1  0  0  0  0  0  0  0  0  0
  185.2280  178.4200  146.6960 C   0  0  0  0  0  2  0  0  0  0  0  0
  185.9370  179.2880  145.8360 O   0  0  0  0  0  0  0  0  0  0  0  0
  182.9770  178.7840  144.8840 C   0  0  0  0  0  3  0  0  0  0  0  0
  182.1000  179.0160  142.6530 C   0  0  0  0  0  0  0  0  0  0  0  0
  183.3190  178.6850  142.1470 N   0  0  0  0  0  0  0  0  0  0  0  0
  180.9680  179.3080  141.7350 C   0  0  0  0  0  1  0  0  0  0  0  0
  184.2290  178.4630  144.3480 C   0  0  0  0  0  0  0  0  0  0  0  0
  184.3770  178.4070  142.9580 C   0  0  0  0  0  3  0  0  0  0  0  0
  181.9060  179.0670  144.0360 C   0  0  0  0  0  3  0  0  0  0  0  0
  1 20  1  6  0  0  0
  1 10  1  0  0  0  0
  2  5  2  0  0  0  0
  2  6  1  0  0  0  0
  3  4  1  0  0  0  0
  4  1  1  0  0  0  0
  5  3  1  0  0  0  0
  6  4  1  0  0  0  0
  8  5  1  0  0  0  0
  8  7  2  0  0  0  0
  9  8  1  0  0  0  0
 11 10  1  1  0  0  0
 11 16  1  0  0  0  0
 11 13  1  0  0  0  0
 13 14  1  0  0  0  0
 13 12  1  0  0  0  0
 15 16  2  0  0  0  0
 17 18  1  0  0  0  0
 17 19  1  0  0  0  0
 18 16  1  6  0  0  0
 18 19  1  0  0  0  0
 21 20  1  6  0  0  0
 21 23  1  0  0  0  0
 21 22  1  0  0  0  0
 23 22  1  0  0  0  0
 25 30  1  0  0  0  0
 26 25  2  0  0  0  0
 26 29  1  0  0  0  0
 27 25  1  0  0  0  0
 28 24  1  0  0  0  0
 28 21  1  0  0  0  0
 29 28  2  0  0  0  0
 30 24  2  0  0  0  0
M  END
>  <MODEL>
7

>  <REMARK>
 VINA RESULT:      -7.2      4.067      7.474
  Name = 
  10 active torsions:
  status: ('A' for Active; 'I' for Inactive)
    1  A    between atoms: O_3  and  C_23
    2  A    between atoms: O_3  and  C_26
    3  A    between atoms: C_8  and  C_23
    4  A    between atoms: C_10  and  C_19
    5  A    between atoms: C_10  and  C_22
    6  A    between atoms: N_13  and  C_26
    7  A    between atoms: C_14  and  C_15
    8  A    between atoms: C_16  and  C_29
    9  A    between atoms: C_19  and  C_26
   10  A    between atoms: C_23  and  C_29
                            x       y       z     vdW  Elec       q    Type
                         _______ _______ _______ _____ _____    ______ ____

>  <TORSDO>
F 10

$$$$
=
 OpenBabel10232408243D

 30 33  0  0  1  0  0  0  0  0999 V2000
  186.3770  178.2650  143.3710 C   0  0  2  0  0  3  0  0  0  0  0  0
  183.5210  178.6800  141.7960 N   0  0  0  0  0  0  0  0  0  0  0  0
  185.5420  179.5390  141.6450 O   0  0  0  0  0  0  0  0  0  0  0  0
  185.4470  179.3350  143.0030 N   0  0  0  0  0  0  0  0  0  0  0  0
  184.4070  179.1330  140.9900 C   0  0  0  0  0  0  0  0  0  0  0  0
  184.0830  178.7830  143.1410 C   0  0  0  0  0  2  0  0  0  0  0  0
  184.4760  180.2790  138.9290 O   0  0  0  0  0  0  0  0  0  0  0  0
  184.2370  179.2000  139.5350 C   0  0  0  0  0  0  0  0  0  0  0  0
  183.7890  178.0070  138.7600 C   0  0  0  0  0  1  0  0  0  0  0  0
  186.7710  177.4440  142.2790 O   0  0  0  0  0  0  0  0  0  0  0  0
  188.1740  177.4380  142.0510 C   0  0  1  0  0  3  0  0  0  0  0  0
  188.3260  175.5580  143.5100 F   0  0  0  0  0  0  0  0  0  0  0  0
  188.9800  176.2040  142.4760 C   0  0  0  0  0  3  0  0  0  0  0  0
  190.2320  176.5850  142.9270 F   0  0  0  0  0  0  0  0  0  0  0  0
  188.2880  179.4260  140.8010 O   0  0  0  0  0  0  0  0  0  0  0  0
  188.6460  178.2610  140.8770 C   0  0  0  0  0  0  0  0  0  0  0  0
  188.6230  177.2670  138.6320 C   0  0  0  0  0  2  0  0  0  0  0  0
  189.4800  177.6790  139.7670 C   0  0  1  0  0  3  0  0  0  0  0  0
  189.3600  178.4620  138.6010 O   0  0  0  0  0  0  0  0  0  0  0  0
  185.9390  177.4640  144.5980 C   0  0  0  0  0  2  0  0  0  0  0  0
  186.5540  178.0480  145.8580 C   0  0  1  0  0  0  0  0  0  0  0  0
  185.9820  179.3030  146.3920 C   0  0  0  0  0  2  0  0  0  0  0  0
  185.6460  178.0420  146.9310 O   0  0  0  0  0  0  0  0  0  0  0  0
  189.0420  178.0340  145.5060 C   0  0  0  0  0  3  0  0  0  0  0  0
  190.4930  176.9110  147.0680 C   0  0  0  0  0  0  0  0  0  0  0  0
  189.4080  176.5470  147.8030 N   0  0  0  0  0  0  0  0  0  0  0  0
  191.8550  176.4980  147.4960 C   0  0  0  0  0  1  0  0  0  0  0  0
  187.9390  177.6680  146.2840 C   0  0  0  0  0  0  0  0  0  0  0  0
  188.1450  176.9040  147.4380 C   0  0  0  0  0  3  0  0  0  0  0  0
  190.3280  177.6590  145.8990 C   0  0  0  0  0  3  0  0  0  0  0  0
  1 20  1  1  0  0  0
  2  6  1  0  0  0  0
  3  4  1  0  0  0  0
  4  6  1  0  0  0  0
  4  1  1  0  0  0  0
  5  3  1  0  0  0  0
  5  2  2  0  0  0  0
  7  8  2  0  0  0  0
  8  5  1  0  0  0  0
  9  8  1  0  0  0  0
 10  1  1  0  0  0  0
 11 16  1  6  0  0  0
 11 10  1  0  0  0  0
 11 13  1  0  0  0  0
 13 14  1  0  0  0  0
 13 12  1  0  0  0  0
 15 16  2  0  0  0  0
 17 18  1  0  0  0  0
 18 16  1  1  0  0  0
 19 17  1  0  0  0  0
 19 18  1  0  0  0  0
 21 20  1  6  0  0  0
 21 28  1  0  0  0  0
 21 22  1  0  0  0  0
 21 23  1  0  0  0  0
 22 23  1  0  0  0  0
 24 30  2  0  0  0  0
 24 28  1  0  0  0  0
 25 27  1  0  0  0  0
 25 26  2  0  0  0  0
 28 29  2  0  0  0  0
 29 26  1  0  0  0  0
 30 25  1  0  0  0  0
M  END
>  <MODEL>
8

>  <REMARK>
 VINA RESULT:      -7.2      2.060      3.159
  Name = 
  10 active torsions:
  status: ('A' for Active; 'I' for Inactive)
    1  A    between atoms: O_3  and  C_23
    2  A    between atoms: O_3  and  C_26
    3  A    between atoms: C_8  and  C_23
    4  A    between atoms: C_10  and  C_19
    5  A    between atoms: C_10  and  C_22
    6  A    between atoms: N_13  and  C_26
    7  A    between atoms: C_14  and  C_15
    8  A    between atoms: C_16  and  C_29
    9  A    between atoms: C_19  and  C_26
   10  A    between atoms: C_23  and  C_29
                            x       y       z     vdW  Elec       q    Type
                         _______ _______ _______ _____ _____    ______ ____

>  <TORSDO>
F 10

$$$$
=
 OpenBabel10232408243D

 30 33  0  0  1  0  0  0  0  0999 V2000
  189.4030  177.5010  141.4790 C   0  0  2  0  0  3  0  0  0  0  0  0
  192.3490  177.3520  140.0240 N   0  0  0  0  0  0  0  0  0  0  0  0
  190.4720  176.2080  139.9010 O   0  0  0  0  0  0  0  0  0  0  0  0
  190.4860  176.5430  141.2370 N   0  0  0  0  0  0  0  0  0  0  0  0
  191.5650  176.7100  139.2410 C   0  0  0  0  0  0  0  0  0  0  0  0
  191.7550  177.2910  141.3580 C   0  0  0  0  0  2  0  0  0  0  0  0
  192.9790  176.5300  137.3610 O   0  0  0  0  0  0  0  0  0  0  0  0
  191.7990  176.5380  137.8040 C   0  0  0  0  0  0  0  0  0  0  0  0
  190.6590  176.3690  136.8570 C   0  0  0  0  0  1  0  0  0  0  0  0
  189.0820  178.3030  140.3500 O   0  0  0  0  0  0  0  0  0  0  0  0
  187.7950  178.0330  139.8100 C   0  0  1  0  0  3  0  0  0  0  0  0
  185.5380  178.7990  139.7870 F   0  0  0  0  0  0  0  0  0  0  0  0
  186.5590  178.4130  140.6360 C   0  0  0  0  0  3  0  0  0  0  0  0
  186.8540  179.4770  141.4710 F   0  0  0  0  0  0  0  0  0  0  0  0
  188.0890  179.0310  137.7020 O   0  0  0  0  0  0  0  0  0  0  0  0
  187.7080  178.0390  138.3030 C   0  0  0  0  0  0  0  0  0  0  0  0
  185.7980  177.2890  136.9550 C   0  0  0  0  0  2  0  0  0  0  0  0
  187.1070  176.8980  137.5250 C   0  0  1  0  0  3  0  0  0  0  0  0
  186.9610  177.2520  136.1690 O   0  0  0  0  0  0  0  0  0  0  0  0
  189.5760  178.3120  142.7640 C   0  0  0  0  0  2  0  0  0  0  0  0
  189.0190  177.5460  143.9510 C   0  0  1  0  0  0  0  0  0  0  0  0
  187.5690  177.6470  144.2230 C   0  0  0  0  0  2  0  0  0  0  0  0
  188.1260  176.5390  143.5470 O   0  0  0  0  0  0  0  0  0  0  0  0
  189.5280  177.2740  146.3960 C   0  0  0  0  0  3  0  0  0  0  0  0
  191.6130  176.3000  147.1110 C   0  0  0  0  0  0  0  0  0  0  0  0
  191.9820  176.1530  145.8100 N   0  0  0  0  0  0  0  0  0  0  0  0
  192.5320  175.8720  148.1980 C   0  0  0  0  0  1  0  0  0  0  0  0
  189.9150  177.0970  145.0630 C   0  0  0  0  0  0  0  0  0  0  0  0
  191.1680  176.5380  144.7880 C   0  0  0  0  0  3  0  0  0  0  0  0
  190.3770  176.8710  147.4280 C   0  0  0  0  0  3  0  0  0  0  0  0
  1 20  1  1  0  0  0
  2  6  1  0  0  0  0
  3  4  1  0  0  0  0
  4  6  1  0  0  0  0
  4  1  1  0  0  0  0
  5  3  1  0  0  0  0
  5  2  2  0  0  0  0
  7  8  2  0  0  0  0
  8  5  1  0  0  0  0
  9  8  1  0  0  0  0
 10  1  1  0  0  0  0
 11 16  1  6  0  0  0
 11 10  1  0  0  0  0
 11 13  1  0  0  0  0
 12 13  1  0  0  0  0
 13 14  1  0  0  0  0
 15 16  2  0  0  0  0
 17 18  1  0  0  0  0
 18 16  1  1  0  0  0
 19 17  1  0  0  0  0
 19 18  1  0  0  0  0
 21 20  1  6  0  0  0
 21 22  1  0  0  0  0
 21 28  1  0  0  0  0
 23 21  1  0  0  0  0
 23 22  1  0  0  0  0
 24 30  1  0  0  0  0
 25 30  2  0  0  0  0
 25 27  1  0  0  0  0
 26 25  1  0  0  0  0
 28 24  2  0  0  0  0
 29 28  1  0  0  0  0
 29 26  2  0  0  0  0
M  END
>  <MODEL>
9

>  <REMARK>
 VINA RESULT:      -7.2      2.681      4.386
  Name = 
  10 active torsions:
  status: ('A' for Active; 'I' for Inactive)
    1  A    between atoms: O_3  and  C_23
    2  A    between atoms: O_3  and  C_26
    3  A    between atoms: C_8  and  C_23
    4  A    between atoms: C_10  and  C_19
    5  A    between atoms: C_10  and  C_22
    6  A    between atoms: N_13  and  C_26
    7  A    between atoms: C_14  and  C_15
    8  A    between atoms: C_16  and  C_29
    9  A    between atoms: C_19  and  C_26
   10  A    between atoms: C_23  and  C_29
                            x       y       z     vdW  Elec       q    Type
                         _______ _______ _______ _____ _____    ______ ____

>  <TORSDO>
F 10

$$$$
