=
 OpenBabel10232408503D

 25 30  0  0  1  0  0  0  0  0999 V2000
  190.3060  178.4120  144.8060 C   0  0  2  0  0  3  0  0  0  0  0  0
  185.3270  179.0230  145.7540 C   0  0  0  0  0  2  0  0  0  0  0  0
  187.9190  177.7090  142.1070 N   0  0  0  0  0  0  0  0  0  0  0  0
  189.2570  177.6460  144.1350 C   0  0  2  0  0  0  0  0  0  0  0  0
  189.1120  177.6100  142.6170 C   0  0  0  0  0  0  0  0  0  0  0  0
  190.2060  177.3270  141.7290 N   0  0  0  0  0  0  0  0  0  0  0  0
  191.1490  179.2270  143.8210 C   0  0  0  0  0  2  0  0  0  0  0  0
  184.5040  178.1270  143.6650 C   0  0  1  0  0  3  0  0  0  0  0  0
  183.9160  179.4960  143.9750 C   0  0  0  0  0  2  0  0  0  0  0  0
  191.9750  178.3950  142.9580 N   0  0  0  0  0  2  0  0  0  0  0  0
  192.4300  177.1020  140.8610 C   0  0  0  0  0  1  0  0  0  0  0  0
  185.3820  178.0800  142.3920 C   0  0  2  0  0  3  0  0  0  0  0  0
  186.7760  177.7310  144.2380 C   0  0  0  0  0  0  0  0  0  0  0  0
  191.4710  177.5970  141.8820 C   0  0  0  0  0  0  0  0  0  0  0  0
  185.4230  177.8170  144.8410 C   0  0  1  0  0  3  0  0  0  0  0  0
  188.0210  177.3480  144.9840 C   0  0  0  0  0  2  0  0  0  0  0  0
  190.4510  176.9490  144.6250 N   0  0  0  0  0  2  0  0  0  0  0  0
  184.1270  179.7610  145.3900 N   0  0  0  0  0  2  0  0  0  0  0  0
  186.7490  177.8630  142.9250 C   0  0  0  0  0  0  0  0  0  0  0  0
  185.3310  179.3180  141.6210 N   0  0  0  0  0  2  0  0  0  0  0  0
  182.7650  178.5390  139.2970 C   0  0  0  0  0  2  0  0  0  0  0  0
  183.6900  178.0430  140.3670 C   0  0  0  0  0  2  0  0  0  0  0  0
  183.4960  179.7180  138.7000 C   0  0  0  0  0  2  0  0  0  0  0  0
  184.4720  180.1430  139.6120 O   0  0  0  0  0  0  0  0  0  0  0  0
  184.8740  178.9790  140.2830 C   0  0  1  0  0  3  0  0  0  0  0  0
  1  7  1  6  0  0  0
  3  5  2  0  0  0  0
  3 19  1  0  0  0  0
  4 17  1  0  0  0  0
  4  1  1  0  0  0  0
  4 16  1  1  0  0  0
  5  4  1  0  0  0  0
  6 14  2  0  0  0  0
  6  5  1  0  0  0  0
  8  9  1  1  0  0  0
  8 15  1  0  0  0  0
  9 18  1  0  0  0  0
 10  7  1  0  0  0  0
 11 14  1  0  0  0  0
 12 20  1  1  0  0  0
 12 19  1  0  0  0  0
 12  8  1  0  0  0  0
 13 15  1  0  0  0  0
 13 16  1  0  0  0  0
 14 10  1  0  0  0  0
 15  2  1  1  0  0  0
 17  1  1  0  0  0  0
 18  2  1  0  0  0  0
 19 13  2  0  0  0  0
 21 22  1  0  0  0  0
 23 21  1  0  0  0  0
 23 24  1  0  0  0  0
 24 25  1  0  0  0  0
 25 22  1  0  0  0  0
 25 20  1  1  0  0  0
M  END
>  <MODEL>
1

>  <REMARK>
 VINA RESULT:      -8.4      0.000      0.000
  Name = 
  2 active torsions:
  status: ('A' for Active; 'I' for Inactive)
    1  A    between atoms: N_1  and  C_17
    2  A    between atoms: N_1  and  C_24
                            x       y       z     vdW  Elec       q    Type
                         _______ _______ _______ _____ _____    ______ ____

>  <TORSDO>
F 2

$$$$
=
 OpenBabel10232408503D

 25 30  0  0  1  0  0  0  0  0999 V2000
  190.9760  177.6030  143.9430 C   0  0  2  0  0  3  0  0  0  0  0  0
  186.6890  178.4490  146.5810 C   0  0  0  0  0  2  0  0  0  0  0  0
  187.7730  177.4580  142.1550 N   0  0  0  0  0  0  0  0  0  0  0  0
  189.6840  177.0170  143.5910 C   0  0  2  0  0  0  0  0  0  0  0  0
  189.0470  177.2000  142.2170 C   0  0  0  0  0  0  0  0  0  0  0  0
  189.7500  176.9600  140.9870 N   0  0  0  0  0  0  0  0  0  0  0  0
  191.5400  178.4790  142.8210 C   0  0  0  0  0  2  0  0  0  0  0  0
  185.1290  177.9130  144.8140 C   0  0  1  0  0  3  0  0  0  0  0  0
  184.8390  179.2670  145.4450 C   0  0  0  0  0  2  0  0  0  0  0  0
  191.9350  177.7140  141.6470 N   0  0  0  0  0  2  0  0  0  0  0  0
  191.5250  176.6900  139.3980 C   0  0  0  0  0  1  0  0  0  0  0  0
  185.5310  177.9750  143.3200 C   0  0  2  0  0  3  0  0  0  0  0  0
  187.4010  177.2730  144.5380 C   0  0  0  0  0  0  0  0  0  0  0  0
  191.0170  177.1110  140.7290 C   0  0  0  0  0  0  0  0  0  0  0  0
  186.3390  177.3760  145.5690 C   0  0  1  0  0  3  0  0  0  0  0  0
  188.7680  176.6990  144.7730 C   0  0  0  0  0  2  0  0  0  0  0  0
  190.8830  176.1720  143.5720 N   0  0  0  0  0  2  0  0  0  0  0  0
  185.5300  179.3180  146.7240 N   0  0  0  0  0  2  0  0  0  0  0  0
  186.9610  177.5850  143.3320 C   0  0  0  0  0  0  0  0  0  0  0  0
  185.3750  179.3080  142.7460 N   0  0  0  0  0  2  0  0  0  0  0  0
  184.3150  178.1360  139.5690 C   0  0  0  0  0  2  0  0  0  0  0  0
  185.0900  179.1610  140.3400 C   0  0  0  0  0  2  0  0  0  0  0  0
  183.2470  177.6820  140.5350 C   0  0  0  0  0  2  0  0  0  0  0  0
  183.6460  178.0310  141.8330 O   0  0  0  0  0  0  0  0  0  0  0  0
  184.3920  179.2090  141.6800 C   0  0  1  0  0  3  0  0  0  0  0  0
  1  7  1  6  0  0  0
  2 18  1  0  0  0  0
  3  5  2  0  0  0  0
  3 19  1  0  0  0  0
  4  1  1  0  0  0  0
  4 16  1  1  0  0  0
  5  4  1  0  0  0  0
  6  5  1  0  0  0  0
  8  9  1  1  0  0  0
  8 15  1  0  0  0  0
  9 18  1  0  0  0  0
 10  7  1  0  0  0  0
 11 14  1  0  0  0  0
 12 20  1  1  0  0  0
 12 19  1  0  0  0  0
 12  8  1  0  0  0  0
 13 16  1  0  0  0  0
 13 15  1  0  0  0  0
 14  6  2  0  0  0  0
 14 10  1  0  0  0  0
 15  2  1  1  0  0  0
 17  4  1  0  0  0  0
 17  1  1  0  0  0  0
 19 13  2  0  0  0  0
 21 22  1  0  0  0  0
 21 23  1  0  0  0  0
 22 25  1  0  0  0  0
 23 24  1  0  0  0  0
 25 24  1  0  0  0  0
 25 20  1  1  0  0  0
M  END
>  <MODEL>
2

>  <REMARK>
 VINA RESULT:      -8.0      1.310      1.521
  Name = 
  2 active torsions:
  status: ('A' for Active; 'I' for Inactive)
    1  A    between atoms: N_1  and  C_17
    2  A    between atoms: N_1  and  C_24
                            x       y       z     vdW  Elec       q    Type
                         _______ _______ _______ _____ _____    ______ ____

>  <TORSDO>
F 2

$$$$
=
 OpenBabel10232408503D

 25 30  0  0  1  0  0  0  0  0999 V2000
  188.5210  178.3550  148.1960 C   0  0  2  0  0  3  0  0  0  0  0  0
  184.9020  179.4020  144.7520 C   0  0  0  0  0  2  0  0  0  0  0  0
  188.8330  176.8950  144.8420 N   0  0  0  0  0  0  0  0  0  0  0  0
  188.1550  177.4480  147.1100 C   0  0  2  0  0  0  0  0  0  0  0  0
  189.1710  176.9270  146.0980 C   0  0  0  0  0  0  0  0  0  0  0  0
  190.4250  176.3360  146.4770 N   0  0  0  0  0  0  0  0  0  0  0  0
  189.9910  178.7790  148.1260 C   0  0  0  0  0  2  0  0  0  0  0  0
  185.6820  177.9060  143.0210 C   0  0  1  0  0  3  0  0  0  0  0  0
  185.4640  179.3200  142.5030 C   0  0  0  0  0  2  0  0  0  0  0  0
  190.9110  177.6860  148.4060 N   0  0  0  0  0  2  0  0  0  0  0  0
  192.3820  175.7700  147.7420 C   0  0  0  0  0  1  0  0  0  0  0  0
  187.1510  177.4200  142.9590 C   0  0  2  0  0  3  0  0  0  0  0  0
  186.5620  177.6430  145.2120 C   0  0  0  0  0  0  0  0  0  0  0  0
  191.1710  176.6000  147.5110 C   0  0  0  0  0  0  0  0  0  0  0  0
  185.3030  177.9630  144.4960 C   0  0  1  0  0  3  0  0  0  0  0  0
  186.6820  177.4810  146.7000 C   0  0  0  0  0  2  0  0  0  0  0  0
  188.3450  176.9080  148.4610 N   0  0  0  0  0  2  0  0  0  0  0  0
  184.6260  180.0210  143.4640 N   0  0  0  0  0  2  0  0  0  0  0  0
  187.5480  177.3430  144.3850 C   0  0  0  0  0  0  0  0  0  0  0  0
  188.0230  178.3440  142.2410 N   0  0  0  0  0  2  0  0  0  0  0  0
  189.4560  178.2410  138.9960 C   0  0  0  0  0  2  0  0  0  0  0  0
  188.2070  178.3150  139.8210 C   0  0  0  0  0  2  0  0  0  0  0  0
  190.4400  177.5200  139.8860 C   0  0  0  0  0  2  0  0  0  0  0  0
  189.9820  177.6020  141.2090 O   0  0  0  0  0  0  0  0  0  0  0  0
  188.5840  177.6220  141.1100 C   0  0  1  0  0  3  0  0  0  0  0  0
  1  7  1  6  0  0  0
  1 17  1  0  0  0  0
  3  5  2  0  0  0  0
  4 16  1  6  0  0  0
  4  1  1  0  0  0  0
  4 17  1  0  0  0  0
  5  6  1  0  0  0  0
  5  4  1  0  0  0  0
  6 14  2  0  0  0  0
  7 10  1  0  0  0  0
  8  9  1  1  0  0  0
  8 15  1  0  0  0  0
  9 18  1  0  0  0  0
 12 20  1  6  0  0  0
 12  8  1  0  0  0  0
 12 19  1  0  0  0  0
 13 16  1  0  0  0  0
 14 11  1  0  0  0  0
 14 10  1  0  0  0  0
 15  2  1  1  0  0  0
 15 13  1  0  0  0  0
 18  2  1  0  0  0  0
 19  3  1  0  0  0  0
 19 13  2  0  0  0  0
 21 22  1  0  0  0  0
 21 23  1  0  0  0  0
 22 25  1  0  0  0  0
 23 24  1  0  0  0  0
 25 24  1  0  0  0  0
 25 20  1  1  0  0  0
M  END
>  <MODEL>
3

>  <REMARK>
 VINA RESULT:      -8.0      2.725      4.154
  Name = 
  2 active torsions:
  status: ('A' for Active; 'I' for Inactive)
    1  A    between atoms: N_1  and  C_17
    2  A    between atoms: N_1  and  C_24
                            x       y       z     vdW  Elec       q    Type
                         _______ _______ _______ _____ _____    ______ ____

>  <TORSDO>
F 2

$$$$
=
 OpenBabel10232408503D

 25 30  0  0  1  0  0  0  0  0999 V2000
  191.2670  177.3410  143.8180 C   0  0  2  0  0  3  0  0  0  0  0  0
  187.9640  178.1930  147.6150 C   0  0  0  0  0  2  0  0  0  0  0  0
  187.7080  177.6840  142.9870 N   0  0  0  0  0  0  0  0  0  0  0  0
  189.8710  176.9110  143.7830 C   0  0  2  0  0  0  0  0  0  0  0  0
  188.9150  177.3180  142.6660 C   0  0  0  0  0  0  0  0  0  0  0  0
  189.2320  177.1790  141.2710 N   0  0  0  0  0  0  0  0  0  0  0  0
  191.6060  178.3030  142.6760 C   0  0  0  0  0  2  0  0  0  0  0  0
  185.9390  178.0130  146.3070 C   0  0  1  0  0  3  0  0  0  0  0  0
  185.9820  179.2950  147.1250 C   0  0  0  0  0  2  0  0  0  0  0  0
  191.5850  177.6630  141.3690 N   0  0  0  0  0  2  0  0  0  0  0  0
  190.4770  176.9690  139.2330 C   0  0  0  0  0  1  0  0  0  0  0  0
  185.9320  178.2310  144.7750 C   0  0  2  0  0  3  0  0  0  0  0  0
  187.9670  177.2300  145.3480 C   0  0  0  0  0  0  0  0  0  0  0  0
  190.3930  177.2580  140.6870 C   0  0  0  0  0  0  0  0  0  0  0  0
  187.2370  177.2880  146.6390 C   0  0  1  0  0  3  0  0  0  0  0  0
  189.2730  176.5220  145.1360 C   0  0  0  0  0  2  0  0  0  0  0  0
  190.9180  175.9810  143.3480 N   0  0  0  0  0  2  0  0  0  0  0  0
  186.9910  179.1280  148.1600 N   0  0  0  0  0  2  0  0  0  0  0  0
  187.2600  177.7270  144.3500 C   0  0  0  0  0  0  0  0  0  0  0  0
  185.7790  179.6330  144.4020 N   0  0  0  0  0  2  0  0  0  0  0  0
  183.1140  178.4130  142.4030 C   0  0  0  0  0  2  0  0  0  0  0  0
  184.4580  179.0750  142.4450 C   0  0  0  0  0  2  0  0  0  0  0  0
  182.4800  178.7890  143.7220 C   0  0  0  0  0  2  0  0  0  0  0  0
  183.4940  179.1950  144.6000 O   0  0  0  0  0  0  0  0  0  0  0  0
  184.4720  179.7790  143.7820 C   0  0  1  0  0  3  0  0  0  0  0  0
  1  7  1  6  0  0  0
  2 18  1  0  0  0  0
  3 19  1  0  0  0  0
  4  1  1  0  0  0  0
  4 16  1  1  0  0  0
  5  3  2  0  0  0  0
  5  4  1  0  0  0  0
  6  5  1  0  0  0  0
  8 15  1  0  0  0  0
  8  9  1  1  0  0  0
  9 18  1  0  0  0  0
 10  7  1  0  0  0  0
 11 14  1  0  0  0  0
 12 20  1  1  0  0  0
 12  8  1  0  0  0  0
 13 15  1  0  0  0  0
 14  6  2  0  0  0  0
 14 10  1  0  0  0  0
 15  2  1  1  0  0  0
 16 13  1  0  0  0  0
 17  4  1  0  0  0  0
 17  1  1  0  0  0  0
 19 12  1  0  0  0  0
 19 13  2  0  0  0  0
 21 22  1  0  0  0  0
 21 23  1  0  0  0  0
 22 25  1  0  0  0  0
 23 24  1  0  0  0  0
 25 20  1  1  0  0  0
 25 24  1  0  0  0  0
M  END
>  <MODEL>
4

>  <REMARK>
 VINA RESULT:      -7.5      2.025      2.723
  Name = 
  2 active torsions:
  status: ('A' for Active; 'I' for Inactive)
    1  A    between atoms: N_1  and  C_17
    2  A    between atoms: N_1  and  C_24
                            x       y       z     vdW  Elec       q    Type
                         _______ _______ _______ _____ _____    ______ ____

>  <TORSDO>
F 2

$$$$
=
 OpenBabel10232408503D

 25 30  0  0  1  0  0  0  0  0999 V2000
  188.9990  176.6310  138.1850 C   0  0  2  0  0  3  0  0  0  0  0  0
  186.8030  177.6470  142.6800 C   0  0  0  0  0  2  0  0  0  0  0  0
  191.1660  177.2420  141.0840 N   0  0  0  0  0  0  0  0  0  0  0  0
  189.6230  177.4550  139.2190 C   0  0  2  0  0  0  0  0  0  0  0  0
  190.9990  177.1420  139.7970 C   0  0  0  0  0  0  0  0  0  0  0  0
  192.1540  176.8850  138.9830 N   0  0  0  0  0  0  0  0  0  0  0  0
  189.8390  175.3970  137.8430 C   0  0  0  0  0  2  0  0  0  0  0  0
  188.8240  178.1710  143.8980 C   0  0  1  0  0  3  0  0  0  0  0  0
  187.9710  177.1360  144.6180 C   0  0  0  0  0  2  0  0  0  0  0  0
  191.0850  175.7270  137.1670 N   0  0  0  0  0  2  0  0  0  0  0  0
  193.5290  176.2740  137.1160 C   0  0  0  0  0  1  0  0  0  0  0  0
  190.2110  177.6540  143.4440 C   0  0  2  0  0  3  0  0  0  0  0  0
  188.9370  178.0710  141.5270 C   0  0  0  0  0  0  0  0  0  0  0  0
  192.2140  176.3320  137.8050 C   0  0  0  0  0  0  0  0  0  0  0  0
  188.0490  178.5100  142.6310 C   0  0  1  0  0  3  0  0  0  0  0  0
  188.6550  178.2800  140.0670 C   0  0  0  0  0  2  0  0  0  0  0  0
  189.6630  177.9040  137.8230 N   0  0  0  0  0  2  0  0  0  0  0  0
  186.6320  177.1920  144.0520 N   0  0  0  0  0  2  0  0  0  0  0  0
  190.0990  177.6230  141.9660 C   0  0  0  0  0  0  0  0  0  0  0  0
  190.5160  176.3220  143.9570 N   0  0  0  0  0  2  0  0  0  0  0  0
  191.5810  176.3280  147.3420 C   0  0  0  0  0  2  0  0  0  0  0  0
  190.9400  177.0890  146.2210 C   0  0  0  0  0  2  0  0  0  0  0  0
  192.4860  175.3410  146.6440 C   0  0  0  0  0  2  0  0  0  0  0  0
  192.0620  175.2150  145.3130 O   0  0  0  0  0  0  0  0  0  0  0  0
  191.5410  176.4740  144.9770 C   0  0  1  0  0  3  0  0  0  0  0  0
  1  7  1  6  0  0  0
  1  4  1  0  0  0  0
  2 18  1  0  0  0  0
  3 19  1  0  0  0  0
  4  5  1  0  0  0  0
  4 16  1  1  0  0  0
  5  3  2  0  0  0  0
  6  5  1  0  0  0  0
  8  9  1  6  0  0  0
 10 14  1  0  0  0  0
 10  7  1  0  0  0  0
 11 14  1  0  0  0  0
 12  8  1  0  0  0  0
 12 20  1  1  0  0  0
 13 19  2  0  0  0  0
 13 15  1  0  0  0  0
 14  6  2  0  0  0  0
 15  2  1  1  0  0  0
 15  8  1  0  0  0  0
 16 13  1  0  0  0  0
 17  1  1  0  0  0  0
 17  4  1  0  0  0  0
 18  9  1  0  0  0  0
 19 12  1  0  0  0  0
 22 21  1  0  0  0  0
 23 21  1  0  0  0  0
 24 23  1  0  0  0  0
 25 20  1  6  0  0  0
 25 24  1  0  0  0  0
 25 22  1  0  0  0  0
M  END
>  <MODEL>
5

>  <REMARK>
 VINA RESULT:      -7.1      3.492      6.532
  Name = 
  2 active torsions:
  status: ('A' for Active; 'I' for Inactive)
    1  A    between atoms: N_1  and  C_17
    2  A    between atoms: N_1  and  C_24
                            x       y       z     vdW  Elec       q    Type
                         _______ _______ _______ _____ _____    ______ ____

>  <TORSDO>
F 2

$$$$
=
 OpenBabel10232408503D

 25 30  0  0  1  0  0  0  0  0999 V2000
  188.6810  175.9950  136.8120 C   0  0  2  0  0  3  0  0  0  0  0  0
  186.4770  178.5290  140.6570 C   0  0  0  0  0  2  0  0  0  0  0  0
  190.5040  176.2750  139.9860 N   0  0  0  0  0  0  0  0  0  0  0  0
  189.4320  176.7030  137.8470 C   0  0  2  0  0  0  0  0  0  0  0  0
  190.4850  176.0160  138.7110 C   0  0  0  0  0  0  0  0  0  0  0  0
  191.5450  175.2120  138.1680 N   0  0  0  0  0  0  0  0  0  0  0  0
  189.0070  174.5000  136.7790 C   0  0  0  0  0  2  0  0  0  0  0  0
  188.3590  178.4830  142.1740 C   0  0  1  0  0  3  0  0  0  0  0  0
  187.0810  177.9790  142.8290 C   0  0  0  0  0  2  0  0  0  0  0  0
  190.3620  174.2240  136.3230 N   0  0  0  0  0  2  0  0  0  0  0  0
  192.8070  173.8170  136.6810 C   0  0  0  0  0  1  0  0  0  0  0  0
  189.4800  177.4220  142.0570 C   0  0  2  0  0  3  0  0  0  0  0  0
  188.7410  177.9280  139.8960 C   0  0  0  0  0  0  0  0  0  0  0  0
  191.5410  174.4750  137.0940 C   0  0  0  0  0  0  0  0  0  0  0  0
  187.9560  178.8510  140.7520 C   0  0  1  0  0  3  0  0  0  0  0  0
  188.7610  177.9630  138.3950 C   0  0  0  0  0  2  0  0  0  0  0  0
  189.8330  176.8500  136.4430 N   0  0  0  0  0  2  0  0  0  0  0  0
  185.9600  178.4210  142.0130 N   0  0  0  0  0  2  0  0  0  0  0  0
  189.5640  177.1710  140.5980 C   0  0  0  0  0  0  0  0  0  0  0  0
  189.1660  176.1850  142.7660 N   0  0  0  0  0  2  0  0  0  0  0  0
  191.5580  177.6180  144.9600 C   0  0  0  0  0  2  0  0  0  0  0  0
  191.3050  176.8670  143.6880 C   0  0  0  0  0  2  0  0  0  0  0  0
  190.3810  177.2600  145.8360 C   0  0  0  0  0  2  0  0  0  0  0  0
  189.3530  176.7700  145.0180 O   0  0  0  0  0  0  0  0  0  0  0  0
  190.0070  176.1390  143.9510 C   0  0  1  0  0  3  0  0  0  0  0  0
  1  7  1  1  0  0  0
  1  4  1  0  0  0  0
  2 18  1  0  0  0  0
  3 19  1  0  0  0  0
  4 16  1  1  0  0  0
  4  5  1  0  0  0  0
  5  3  2  0  0  0  0
  6  5  1  0  0  0  0
  8  9  1  1  0  0  0
 10  7  1  0  0  0  0
 10 14  1  0  0  0  0
 11 14  1  0  0  0  0
 12  8  1  0  0  0  0
 12 20  1  1  0  0  0
 13 19  2  0  0  0  0
 13 15  1  0  0  0  0
 14  6  2  0  0  0  0
 15  2  1  1  0  0  0
 15  8  1  0  0  0  0
 16 13  1  0  0  0  0
 17  1  1  0  0  0  0
 17  4  1  0  0  0  0
 18  9  1  0  0  0  0
 19 12  1  0  0  0  0
 21 23  1  0  0  0  0
 22 25  1  0  0  0  0
 22 21  1  0  0  0  0
 24 23  1  0  0  0  0
 25 20  1  6  0  0  0
 25 24  1  0  0  0  0
M  END
>  <MODEL>
6

>  <REMARK>
 VINA RESULT:      -7.0      3.781      6.494
  Name = 
  2 active torsions:
  status: ('A' for Active; 'I' for Inactive)
    1  A    between atoms: N_1  and  C_17
    2  A    between atoms: N_1  and  C_24
                            x       y       z     vdW  Elec       q    Type
                         _______ _______ _______ _____ _____    ______ ____

>  <TORSDO>
F 2

$$$$
=
 OpenBabel10232408503D

 25 30  0  0  1  0  0  0  0  0999 V2000
  188.1450  176.4090  137.2240 C   0  0  2  0  0  3  0  0  0  0  0  0
  184.0530  178.0460  139.8000 C   0  0  0  0  0  2  0  0  0  0  0  0
  188.6580  177.9400  140.5200 N   0  0  0  0  0  0  0  0  0  0  0  0
  188.1810  177.5180  138.1750 C   0  0  2  0  0  0  0  0  0  0  0  0
  189.1250  177.5410  139.3730 C   0  0  0  0  0  0  0  0  0  0  0  0
  190.5340  177.2820  139.2680 N   0  0  0  0  0  0  0  0  0  0  0  0
  189.0770  175.2650  137.6320 C   0  0  0  0  0  2  0  0  0  0  0  0
  185.2390  179.1070  141.6190 C   0  0  1  0  0  3  0  0  0  0  0  0
  184.1730  178.1410  142.1140 C   0  0  0  0  0  2  0  0  0  0  0  0
  190.4850  175.6170  137.5350 N   0  0  0  0  0  2  0  0  0  0  0  0
  192.6460  176.4870  138.4570 C   0  0  0  0  0  1  0  0  0  0  0  0
  186.6870  178.7110  141.9940 C   0  0  2  0  0  3  0  0  0  0  0  0
  186.4670  178.5140  139.6730 C   0  0  0  0  0  0  0  0  0  0  0  0
  191.1610  176.5020  138.4350 C   0  0  0  0  0  0  0  0  0  0  0  0
  185.1500  179.0480  140.0990 C   0  0  1  0  0  3  0  0  0  0  0  0
  186.9060  178.3590  138.2460 C   0  0  0  0  0  2  0  0  0  0  0  0
  188.8680  177.6560  136.8860 N   0  0  0  0  0  2  0  0  0  0  0  0
  183.2620  177.8790  141.0100 N   0  0  0  0  0  2  0  0  0  0  0  0
  187.2920  178.3440  140.6910 C   0  0  0  0  0  0  0  0  0  0  0  0
  186.7450  177.5800  142.9150 N   0  0  0  0  0  2  0  0  0  0  0  0
  187.1760  177.5500  146.4370 C   0  0  0  0  0  2  0  0  0  0  0  0
  186.4010  178.0740  145.2660 C   0  0  0  0  0  2  0  0  0  0  0  0
  188.5440  177.2570  145.8680 C   0  0  0  0  0  2  0  0  0  0  0  0
  188.4330  177.1610  144.4730 O   0  0  0  0  0  0  0  0  0  0  0  0
  187.3970  178.0420  144.1290 C   0  0  1  0  0  3  0  0  0  0  0  0
  1  7  1  1  0  0  0
  1  4  1  0  0  0  0
  2 18  1  0  0  0  0
  3 19  1  0  0  0  0
  4 16  1  1  0  0  0
  4  5  1  0  0  0  0
  5  3  2  0  0  0  0
  6  5  1  0  0  0  0
  8 12  1  0  0  0  0
  8  9  1  1  0  0  0
 10  7  1  0  0  0  0
 10 14  1  0  0  0  0
 12 20  1  1  0  0  0
 13 15  1  0  0  0  0
 13 19  2  0  0  0  0
 14 11  1  0  0  0  0
 14  6  2  0  0  0  0
 15  2  1  1  0  0  0
 15  8  1  0  0  0  0
 16 13  1  0  0  0  0
 17  1  1  0  0  0  0
 17  4  1  0  0  0  0
 18  9  1  0  0  0  0
 19 12  1  0  0  0  0
 22 21  1  0  0  0  0
 23 21  1  0  0  0  0
 24 23  1  0  0  0  0
 25 20  1  6  0  0  0
 25 24  1  0  0  0  0
 25 22  1  0  0  0  0
M  END
>  <MODEL>
7

>  <REMARK>
 VINA RESULT:      -7.0      3.062      5.436
  Name = 
  2 active torsions:
  status: ('A' for Active; 'I' for Inactive)
    1  A    between atoms: N_1  and  C_17
    2  A    between atoms: N_1  and  C_24
                            x       y       z     vdW  Elec       q    Type
                         _______ _______ _______ _____ _____    ______ ____

>  <TORSDO>
F 2

$$$$
=
 OpenBabel10232408503D

 25 30  0  0  1  0  0  0  0  0999 V2000
  186.9710  176.1720  136.8500 C   0  0  2  0  0  3  0  0  0  0  0  0
  183.9150  178.1910  140.4050 C   0  0  0  0  0  2  0  0  0  0  0  0
  188.5130  177.6850  139.8180 N   0  0  0  0  0  0  0  0  0  0  0  0
  187.3640  177.2830  137.7140 C   0  0  2  0  0  0  0  0  0  0  0  0
  188.6040  177.2340  138.6000 C   0  0  0  0  0  0  0  0  0  0  0  0
  189.9010  176.8510  138.1160 N   0  0  0  0  0  0  0  0  0  0  0  0
  187.8820  174.9540  137.0210 C   0  0  0  0  0  2  0  0  0  0  0  0
  185.6470  179.1620  141.7840 C   0  0  1  0  0  3  0  0  0  0  0  0
  184.6860  178.2990  142.5900 C   0  0  0  0  0  2  0  0  0  0  0  0
  189.2310  175.1790  136.5230 N   0  0  0  0  0  2  0  0  0  0  0  0
  191.6280  175.8630  136.7770 C   0  0  0  0  0  1  0  0  0  0  0  0
  187.1040  178.6420  141.7550 C   0  0  2  0  0  3  0  0  0  0  0  0
  186.2270  178.4430  139.5950 C   0  0  0  0  0  0  0  0  0  0  0  0
  190.2020  176.0090  137.1690 C   0  0  0  0  0  0  0  0  0  0  0  0
  185.1300  179.0960  140.3520 C   0  0  1  0  0  3  0  0  0  0  0  0
  186.2330  178.2350  138.1090 C   0  0  0  0  0  2  0  0  0  0  0  0
  187.6710  177.3470  136.2810 N   0  0  0  0  0  2  0  0  0  0  0  0
  183.4840  178.1080  141.7930 N   0  0  0  0  0  2  0  0  0  0  0  0
  187.2870  178.2100  140.3480 C   0  0  0  0  0  0  0  0  0  0  0  0
  187.3250  177.5200  142.6610 N   0  0  0  0  0  2  0  0  0  0  0  0
  188.8730  177.1720  145.8350 C   0  0  0  0  0  2  0  0  0  0  0  0
  187.6800  177.6400  145.0590 C   0  0  0  0  0  2  0  0  0  0  0  0
  190.0120  177.2670  144.8470 C   0  0  0  0  0  2  0  0  0  0  0  0
  189.4730  177.3140  143.5530 O   0  0  0  0  0  0  0  0  0  0  0  0
  188.2420  177.9710  143.6950 C   0  0  1  0  0  3  0  0  0  0  0  0
  1  7  1  1  0  0  0
  1  4  1  0  0  0  0
  2 18  1  0  0  0  0
  3 19  1  0  0  0  0
  4 16  1  1  0  0  0
  4  5  1  0  0  0  0
  5  3  2  0  0  0  0
  6  5  1  0  0  0  0
  8  9  1  1  0  0  0
 10  7  1  0  0  0  0
 10 14  1  0  0  0  0
 11 14  1  0  0  0  0
 12  8  1  0  0  0  0
 12 20  1  1  0  0  0
 13 19  2  0  0  0  0
 13 15  1  0  0  0  0
 14  6  2  0  0  0  0
 15  2  1  1  0  0  0
 15  8  1  0  0  0  0
 16 13  1  0  0  0  0
 17  1  1  0  0  0  0
 17  4  1  0  0  0  0
 18  9  1  0  0  0  0
 19 12  1  0  0  0  0
 22 21  1  0  0  0  0
 23 21  1  0  0  0  0
 24 25  1  0  0  0  0
 24 23  1  0  0  0  0
 25 20  1  6  0  0  0
 25 22  1  0  0  0  0
M  END
>  <MODEL>
8

>  <REMARK>
 VINA RESULT:      -6.9      3.438      5.891
  Name = 
  2 active torsions:
  status: ('A' for Active; 'I' for Inactive)
    1  A    between atoms: N_1  and  C_17
    2  A    between atoms: N_1  and  C_24
                            x       y       z     vdW  Elec       q    Type
                         _______ _______ _______ _____ _____    ______ ____

>  <TORSDO>
F 2

$$$$
=
 OpenBabel10232408503D

 25 30  0  0  1  0  0  0  0  0999 V2000
  182.8690  177.8150  141.8140 C   0  0  2  0  0  3  0  0  0  0  0  0
  187.4370  176.5540  143.7110 C   0  0  0  0  0  2  0  0  0  0  0  0
  185.8680  179.1330  140.1570 N   0  0  0  0  0  0  0  0  0  0  0  0
  184.0510  178.6670  141.7030 C   0  0  2  0  0  0  0  0  0  0  0  0
  184.5830  179.1620  140.3620 C   0  0  0  0  0  0  0  0  0  0  0  0
  183.7540  179.7910  139.3710 N   0  0  0  0  0  0  0  0  0  0  0  0
  182.3130  177.4150  140.4440 C   0  0  0  0  0  2  0  0  0  0  0  0
  188.7670  177.9870  142.2900 C   0  0  1  0  0  3  0  0  0  0  0  0
  189.2620  176.5480  142.2790 C   0  0  0  0  0  2  0  0  0  0  0  0
  181.7330  178.5350  139.7180 N   0  0  0  0  0  2  0  0  0  0  0  0
  181.8280  180.4470  138.1020 C   0  0  0  0  0  1  0  0  0  0  0  0
  188.2470  178.4960  140.9240 C   0  0  2  0  0  3  0  0  0  0  0  0
  186.4220  178.3610  142.3820 C   0  0  0  0  0  0  0  0  0  0  0  0
  182.4940  179.5860  139.1130 C   0  0  0  0  0  0  0  0  0  0  0  0
  187.5750  177.9880  143.2380 C   0  0  1  0  0  3  0  0  0  0  0  0
  185.0250  178.5890  142.8800 C   0  0  0  0  0  2  0  0  0  0  0  0
  182.7670  179.2680  142.0810 N   0  0  0  0  0  2  0  0  0  0  0  0
  188.6940  175.8740  143.4370 N   0  0  0  0  0  2  0  0  0  0  0  0
  186.7880  178.6430  141.1440 C   0  0  0  0  0  0  0  0  0  0  0  0
  188.5020  177.5580  139.8350 N   0  0  0  0  0  2  0  0  0  0  0  0
  189.7020  177.9060  136.5130 C   0  0  0  0  0  2  0  0  0  0  0  0
  189.8970  177.2930  137.8670 C   0  0  0  0  0  2  0  0  0  0  0  0
  188.9440  179.1810  136.7960 C   0  0  0  0  0  2  0  0  0  0  0  0
  188.3590  179.0760  138.0660 O   0  0  0  0  0  0  0  0  0  0  0  0
  189.2400  178.2760  138.8080 C   0  0  1  0  0  3  0  0  0  0  0  0
  1  7  1  6  0  0  0
  1 17  1  0  0  0  0
  3  5  2  0  0  0  0
  3 19  1  0  0  0  0
  4  1  1  0  0  0  0
  4 17  1  0  0  0  0
  4 16  1  1  0  0  0
  5  4  1  0  0  0  0
  6  5  1  0  0  0  0
  8  9  1  6  0  0  0
  8 15  1  0  0  0  0
  9 18  1  0  0  0  0
 10  7  1  0  0  0  0
 11 14  1  0  0  0  0
 12 20  1  6  0  0  0
 12 19  1  0  0  0  0
 12  8  1  0  0  0  0
 13 16  1  0  0  0  0
 13 15  1  0  0  0  0
 14  6  2  0  0  0  0
 14 10  1  0  0  0  0
 15  2  1  6  0  0  0
 18  2  1  0  0  0  0
 19 13  2  0  0  0  0
 21 23  1  0  0  0  0
 21 22  1  0  0  0  0
 22 25  1  0  0  0  0
 23 24  1  0  0  0  0
 24 25  1  0  0  0  0
 25 20  1  1  0  0  0
M  END
>  <MODEL>
9

>  <REMARK>
 VINA RESULT:      -6.9      2.657      6.448
  Name = 
  2 active torsions:
  status: ('A' for Active; 'I' for Inactive)
    1  A    between atoms: N_1  and  C_17
    2  A    between atoms: N_1  and  C_24
                            x       y       z     vdW  Elec       q    Type
                         _______ _______ _______ _____ _____    ______ ____

>  <TORSDO>
F 2

$$$$
