=
 OpenBabel10232412423D

 37 41  0  0  1  0  0  0  0  0999 V2000
  186.1040  178.3600  140.5910 C   0  0  0  0  0  0  0  0  0  0  0  0
  188.4360  177.1900  144.6460 C   0  0  2  0  0  3  0  0  0  0  0  0
  188.1980  177.8030  141.5940 C   0  0  1  0  0  0  0  0  0  0  0  0
  189.1900  176.6430  141.5040 C   0  0  2  0  0  3  0  0  0  0  0  0
  190.0050  176.3680  142.7840 C   0  0  1  0  0  3  0  0  0  0  0  0
  184.5990  178.3570  142.4720 C   0  0  0  0  0  2  0  0  0  0  0  0
  190.1210  176.8950  140.3150 C   0  0  0  0  0  2  0  0  0  0  0  0
  187.0580  177.5290  142.5930 C   0  0  2  0  0  3  0  0  0  0  0  0
  182.2280  179.0830  142.1530 C   0  0  0  0  0  1  0  0  0  0  0  0
  188.8550  178.9920  141.8840 F   0  0  0  0  0  0  0  0  0  0  0  0
  183.5910  178.8300  141.6170 C   0  0  0  0  0  0  0  0  0  0  0  0
  187.4760  177.9890  140.3000 C   0  0  0  0  0  0  0  0  0  0  0  0
  185.8680  178.1520  141.9320 C   0  0  0  0  0  0  0  0  0  0  0  0
  185.2820  178.9970  138.5240 O   0  0  0  0  0  0  0  0  0  0  0  0
  189.8050  177.3290  143.9690 C   0  0  0  0  0  2  0  0  0  0  0  0
  183.8490  179.0390  140.2900 N   0  0  0  0  0  0  0  0  0  0  0  0
  187.3680  178.0620  143.9830 C   0  0  0  0  0  2  0  0  0  0  0  0
  185.0810  178.8070  139.7530 C   0  0  0  0  0  0  0  0  0  0  0  0
  187.9810  177.6560  139.1100 C   0  0  0  0  0  3  0  0  0  0  0  0
  189.3380  177.0020  138.9870 C   0  0  1  0  0  3  0  0  0  0  0  0
  189.8290  175.0450  143.1890 O   0  0  0  0  0  1  0  0  0  0  0  0
  187.3920  177.9160  146.7940 C   0  0  0  0  0  3  0  0  0  0  0  0
  189.8310  177.7160  148.1490 C   0  0  0  0  0  3  0  0  0  0  0  0
  188.5390  177.5100  146.1030 C   0  0  0  0  0  0  0  0  0  0  0  0
  187.4630  178.2200  148.1570 C   0  0  0  0  0  3  0  0  0  0  0  0
  189.7620  177.4100  146.7860 C   0  0  0  0  0  3  0  0  0  0  0  0
  188.6820  178.1200  148.8340 C   0  0  0  0  0  3  0  0  0  0  0  0
  190.1640  177.7170  137.9270 C   0  0  0  0  0  2  0  0  0  0  0  0
  191.5810  177.2490  137.9360 C   0  0  0  0  0  3  0  0  0  0  0  0
  191.9630  176.2190  137.1900 C   0  0  0  0  0  3  0  0  0  0  0  0
  193.3480  175.7390  137.1820 C   0  0  0  0  0  0  0  0  0  0  0  0
  194.2500  176.3870  136.5830 O   0  0  0  0  0  0  0  0  0  0  0  0
  193.6630  174.5250  137.8640 N   0  0  0  0  0  2  0  0  0  0  0  0
  195.7340  173.3560  136.2800 C   0  0  0  0  0  1  0  0  0  0  0  0
  195.3130  172.6970  138.8400 O   0  0  0  0  0  0  0  0  0  0  0  0
  195.2690  173.8790  137.9130 S   0  0  0  0  0  0  0  0  0  0  0  0
  196.2280  174.9350  138.3830 O   0  0  0  0  0  0  0  0  0  0  0  0
  1 13  2  0  0  0  0
  2 24  1  1  0  0  0
  3 10  1  1  0  0  0
  3  8  1  0  0  0  0
  4  7  1  6  0  0  0
  4  3  1  0  0  0  0
  4  5  1  0  0  0  0
  5 21  1  1  0  0  0
  5 15  1  0  0  0  0
  8 17  1  1  0  0  0
 11  9  1  0  0  0  0
 11  6  1  0  0  0  0
 12  1  1  0  0  0  0
 12  3  1  0  0  0  0
 13  6  1  0  0  0  0
 13  8  1  0  0  0  0
 14 18  2  0  0  0  0
 15  2  1  0  0  0  0
 16 11  2  0  0  0  0
 17  2  1  0  0  0  0
 18 16  1  0  0  0  0
 18  1  1  0  0  0  0
 19 12  2  0  0  0  0
 20 28  1  6  0  0  0
 20 19  1  0  0  0  0
 20  7  1  0  0  0  0
 22 25  1  0  0  0  0
 23 27  1  0  0  0  0
 24 26  1  0  0  0  0
 24 22  2  0  0  0  0
 25 27  2  0  0  0  0
 26 23  2  0  0  0  0
 28 29  1  0  0  0  0
 30 29  2  0  0  0  0
 31 30  1  0  0  0  0
 31 33  1  0  0  0  0
 32 31  2  0  0  0  0
 33 36  1  0  0  0  0
 34 36  1  0  0  0  0
 36 37  2  0  0  0  0
 36 35  2  0  0  0  0
M  END
>  <MODEL>
1

>  <REMARK>
 VINA RESULT:      -9.9      0.000      0.000
  Name = 
  5 active torsions:
  status: ('A' for Active; 'I' for Inactive)
    1  A    between atoms: C_3  and  C_20
    2  A    between atoms: C_6  and  C_22
    3  A    between atoms: C_8  and  C_26
    4  A    between atoms: C_26  and  C_34
    5  A    between atoms: S_30  and  N_32
                            x       y       z     vdW  Elec       q    Type
                         _______ _______ _______ _____ _____    ______ ____

>  <TORSDO>
F 5

$$$$
=
 OpenBabel10232412423D

 37 41  0  0  1  0  0  0  0  0999 V2000
  185.7020  178.5190  140.8180 C   0  0  0  0  0  0  0  0  0  0  0  0
  188.2740  177.3230  144.7170 C   0  0  2  0  0  3  0  0  0  0  0  0
  187.8610  178.0100  141.6980 C   0  0  1  0  0  0  0  0  0  0  0  0
  188.8860  176.8880  141.5260 C   0  0  2  0  0  3  0  0  0  0  0  0
  189.7740  176.6080  142.7560 C   0  0  1  0  0  3  0  0  0  0  0  0
  184.2950  178.4130  142.7700 C   0  0  0  0  0  2  0  0  0  0  0  0
  189.7470  177.2050  140.3010 C   0  0  0  0  0  2  0  0  0  0  0  0
  186.7830  177.6690  142.7440 C   0  0  2  0  0  3  0  0  0  0  0  0
  181.8880  179.0640  142.5900 C   0  0  0  0  0  1  0  0  0  0  0  0
  188.4920  179.2130  141.9900 F   0  0  0  0  0  0  0  0  0  0  0  0
  183.2290  178.8730  141.9800 C   0  0  0  0  0  0  0  0  0  0  0  0
  187.0690  178.2050  140.4480 C   0  0  0  0  0  0  0  0  0  0  0  0
  185.5410  178.2680  142.1610 C   0  0  0  0  0  0  0  0  0  0  0  0
  184.7550  179.1830  138.8130 O   0  0  0  0  0  0  0  0  0  0  0  0
  189.6010  177.5290  143.9760 C   0  0  0  0  0  2  0  0  0  0  0  0
  183.4130  179.1270  140.6480 N   0  0  0  0  0  0  0  0  0  0  0  0
  187.1450  178.1750  144.1330 C   0  0  0  0  0  2  0  0  0  0  0  0
  184.6230  178.9530  140.0440 C   0  0  0  0  0  0  0  0  0  0  0  0
  187.5250  177.9220  139.2260 C   0  0  0  0  0  3  0  0  0  0  0  0
  188.8940  177.3200  139.0170 C   0  0  1  0  0  3  0  0  0  0  0  0
  189.6630  175.2690  143.1310 O   0  0  0  0  0  1  0  0  0  0  0  0
  189.6990  177.4440  146.7630 C   0  0  0  0  0  3  0  0  0  0  0  0
  187.5370  178.2900  148.3240 C   0  0  0  0  0  3  0  0  0  0  0  0
  188.4390  177.6070  146.1750 C   0  0  0  0  0  0  0  0  0  0  0  0
  189.8780  177.7040  148.1250 C   0  0  0  0  0  3  0  0  0  0  0  0
  187.3560  178.0310  146.9620 C   0  0  0  0  0  3  0  0  0  0  0  0
  188.7980  178.1260  148.9050 C   0  0  0  0  0  3  0  0  0  0  0  0
  189.6410  178.0920  137.9380 C   0  0  0  0  0  2  0  0  0  0  0  0
  190.6800  177.2430  137.2830 C   0  0  0  0  0  3  0  0  0  0  0  0
  191.7820  176.8910  137.9360 C   0  0  0  0  0  3  0  0  0  0  0  0
  192.8180  176.0600  137.3160 C   0  0  0  0  0  0  0  0  0  0  0  0
  192.7660  175.7790  136.0880 O   0  0  0  0  0  0  0  0  0  0  0  0
  193.8900  175.5740  138.1230 N   0  0  0  0  0  2  0  0  0  0  0  0
  196.1560  173.9800  138.8220 C   0  0  0  0  0  1  0  0  0  0  0  0
  196.0230  175.4070  136.5610 O   0  0  0  0  0  0  0  0  0  0  0  0
  195.1610  174.5890  137.4820 S   0  0  0  0  0  0  0  0  0  0  0  0
  194.5750  173.4250  136.7350 O   0  0  0  0  0  0  0  0  0  0  0  0
  1 13  2  0  0  0  0
  2 24  1  1  0  0  0
  3 10  1  1  0  0  0
  3  8  1  0  0  0  0
  4  7  1  6  0  0  0
  4  3  1  0  0  0  0
  4  5  1  0  0  0  0
  5 21  1  1  0  0  0
  5 15  1  0  0  0  0
  8 17  1  1  0  0  0
 11  9  1  0  0  0  0
 11  6  1  0  0  0  0
 12  1  1  0  0  0  0
 12  3  1  0  0  0  0
 13  8  1  0  0  0  0
 13  6  1  0  0  0  0
 14 18  2  0  0  0  0
 15  2  1  0  0  0  0
 16 11  2  0  0  0  0
 17  2  1  0  0  0  0
 18 16  1  0  0  0  0
 18  1  1  0  0  0  0
 19 12  2  0  0  0  0
 20 28  1  6  0  0  0
 20 19  1  0  0  0  0
 20  7  1  0  0  0  0
 22 25  1  0  0  0  0
 23 27  1  0  0  0  0
 24 22  2  0  0  0  0
 24 26  1  0  0  0  0
 25 27  2  0  0  0  0
 26 23  2  0  0  0  0
 29 30  2  0  0  0  0
 29 28  1  0  0  0  0
 31 30  1  0  0  0  0
 31 33  1  0  0  0  0
 32 31  2  0  0  0  0
 35 36  2  0  0  0  0
 36 33  1  0  0  0  0
 36 34  1  0  0  0  0
 37 36  2  0  0  0  0
M  END
>  <MODEL>
2

>  <REMARK>
 VINA RESULT:      -9.8      0.857      1.310
  Name = 
  5 active torsions:
  status: ('A' for Active; 'I' for Inactive)
    1  A    between atoms: C_3  and  C_20
    2  A    between atoms: C_6  and  C_22
    3  A    between atoms: C_8  and  C_26
    4  A    between atoms: C_26  and  C_34
    5  A    between atoms: S_30  and  N_32
                            x       y       z     vdW  Elec       q    Type
                         _______ _______ _______ _____ _____    ______ ____

>  <TORSDO>
F 5

$$$$
=
 OpenBabel10232412423D

 37 41  0  0  1  0  0  0  0  0999 V2000
  185.8860  178.5980  141.3230 C   0  0  0  0  0  0  0  0  0  0  0  0
  189.1340  177.1670  144.5870 C   0  0  2  0  0  3  0  0  0  0  0  0
  188.1740  178.0740  141.7570 C   0  0  1  0  0  0  0  0  0  0  0  0
  189.1610  176.9940  141.3140 C   0  0  2  0  0  3  0  0  0  0  0  0
  190.2600  176.6420  142.3370 C   0  0  1  0  0  3  0  0  0  0  0  0
  184.8580  178.3090  143.4820 C   0  0  0  0  0  2  0  0  0  0  0  0
  189.7830  177.4240  139.9830 C   0  0  0  0  0  2  0  0  0  0  0  0
  187.3070  177.6290  142.9490 C   0  0  2  0  0  3  0  0  0  0  0  0
  182.4520  178.9130  143.7910 C   0  0  0  0  0  1  0  0  0  0  0  0
  188.8350  179.2660  142.0250 F   0  0  0  0  0  0  0  0  0  0  0  0
  183.6620  178.8020  142.9360 C   0  0  0  0  0  0  0  0  0  0  0  0
  187.1660  178.3460  140.6890 C   0  0  0  0  0  0  0  0  0  0  0  0
  185.9730  178.2400  142.6490 C   0  0  0  0  0  0  0  0  0  0  0  0
  184.5850  179.3910  139.5810 O   0  0  0  0  0  0  0  0  0  0  0  0
  190.3030  177.4620  143.6380 C   0  0  0  0  0  2  0  0  0  0  0  0
  183.5980  179.1620  141.6180 N   0  0  0  0  0  0  0  0  0  0  0  0
  187.9100  178.0340  144.2860 C   0  0  0  0  0  2  0  0  0  0  0  0
  184.6800  179.0640  140.7930 C   0  0  0  0  0  0  0  0  0  0  0  0
  187.3950  178.1690  139.3860 C   0  0  0  0  0  3  0  0  0  0  0  0
  188.7100  177.6180  138.8870 C   0  0  1  0  0  3  0  0  0  0  0  0
  190.2320  175.2750  142.6180 O   0  0  0  0  0  1  0  0  0  0  0  0
  188.6740  177.9370  146.9170 C   0  0  0  0  0  3  0  0  0  0  0  0
  191.1980  177.0980  147.7850 C   0  0  0  0  0  3  0  0  0  0  0  0
  189.5580  177.3420  146.0100 C   0  0  0  0  0  0  0  0  0  0  0  0
  189.0490  178.1100  148.2520 C   0  0  0  0  0  3  0  0  0  0  0  0
  190.8250  176.9220  146.4490 C   0  0  0  0  0  3  0  0  0  0  0  0
  190.3090  177.6920  148.6860 C   0  0  0  0  0  3  0  0  0  0  0  0
  189.2410  178.4880  137.7560 C   0  0  0  0  0  2  0  0  0  0  0  0
  190.0270  177.6840  136.7750 C   0  0  0  0  0  3  0  0  0  0  0  0
  189.9170  176.3600  136.7360 C   0  0  0  0  0  3  0  0  0  0  0  0
  190.6790  175.5470  135.7830 C   0  0  0  0  0  0  0  0  0  0  0  0
  190.4450  175.6190  134.5460 O   0  0  0  0  0  0  0  0  0  0  0  0
  191.6920  174.6710  136.2760 N   0  0  0  0  0  2  0  0  0  0  0  0
  193.6780  172.6180  136.2190 C   0  0  0  0  0  1  0  0  0  0  0  0
  193.5140  174.5360  134.3580 O   0  0  0  0  0  0  0  0  0  0  0  0
  192.6450  173.6740  135.2310 S   0  0  0  0  0  0  0  0  0  0  0  0
  191.7460  172.8250  134.3780 O   0  0  0  0  0  0  0  0  0  0  0  0
  1 13  2  0  0  0  0
  2 24  1  1  0  0  0
  3 10  1  1  0  0  0
  3  8  1  0  0  0  0
  4  7  1  6  0  0  0
  4  3  1  0  0  0  0
  4  5  1  0  0  0  0
  5 21  1  1  0  0  0
  5 15  1  0  0  0  0
  8 17  1  1  0  0  0
 11  6  1  0  0  0  0
 11  9  1  0  0  0  0
 12  1  1  0  0  0  0
 12  3  1  0  0  0  0
 13  8  1  0  0  0  0
 13  6  1  0  0  0  0
 14 18  2  0  0  0  0
 15  2  1  0  0  0  0
 16 11  2  0  0  0  0
 17  2  1  0  0  0  0
 18  1  1  0  0  0  0
 18 16  1  0  0  0  0
 19 12  2  0  0  0  0
 20 28  1  6  0  0  0
 20 19  1  0  0  0  0
 20  7  1  0  0  0  0
 22 25  1  0  0  0  0
 23 27  1  0  0  0  0
 24 26  1  0  0  0  0
 24 22  2  0  0  0  0
 25 27  2  0  0  0  0
 26 23  2  0  0  0  0
 29 28  1  0  0  0  0
 30 29  2  0  0  0  0
 31 33  1  0  0  0  0
 31 30  1  0  0  0  0
 32 31  2  0  0  0  0
 35 36  2  0  0  0  0
 36 34  1  0  0  0  0
 36 33  1  0  0  0  0
 37 36  2  0  0  0  0
M  END
>  <MODEL>
3

>  <REMARK>
 VINA RESULT:      -9.5      1.849      2.076
  Name = 
  5 active torsions:
  status: ('A' for Active; 'I' for Inactive)
    1  A    between atoms: C_3  and  C_20
    2  A    between atoms: C_6  and  C_22
    3  A    between atoms: C_8  and  C_26
    4  A    between atoms: C_26  and  C_34
    5  A    between atoms: S_30  and  N_32
                            x       y       z     vdW  Elec       q    Type
                         _______ _______ _______ _____ _____    ______ ____

>  <TORSDO>
F 5

$$$$
=
 OpenBabel10232412423D

 37 41  0  0  1  0  0  0  0  0999 V2000
  188.8310  177.4450  145.3120 C   0  0  0  0  0  0  0  0  0  0  0  0
  184.7370  178.7280  143.1120 C   0  0  2  0  0  3  0  0  0  0  0  0
  187.6590  177.6350  143.2410 C   0  0  1  0  0  0  0  0  0  0  0  0
  187.7980  178.4710  141.9680 C   0  0  2  0  0  3  0  0  0  0  0  0
  186.4800  178.7660  141.2230 C   0  0  1  0  0  3  0  0  0  0  0  0
  187.1910  178.1760  146.9170 C   0  0  0  0  0  2  0  0  0  0  0  0
  188.7970  177.7760  141.0400 C   0  0  0  0  0  2  0  0  0  0  0  0
  186.8760  178.3680  144.3470 C   0  0  2  0  0  3  0  0  0  0  0  0
  187.7050  178.0230  149.3590 C   0  0  0  0  0  1  0  0  0  0  0  0
  187.1010  176.3950  142.9580 F   0  0  0  0  0  0  0  0  0  0  0  0
  188.0880  177.8210  147.9380 C   0  0  0  0  0  0  0  0  0  0  0  0
  188.9920  177.3980  143.8710 C   0  0  0  0  0  0  0  0  0  0  0  0
  187.5840  177.9520  145.5990 C   0  0  0  0  0  0  0  0  0  0  0  0
  190.8630  176.6610  146.0930 O   0  0  0  0  0  0  0  0  0  0  0  0
  185.1960  178.1240  141.7780 C   0  0  0  0  0  2  0  0  0  0  0  0
  189.3190  177.3100  147.6320 N   0  0  0  0  0  0  0  0  0  0  0  0
  185.3900  178.0440  144.3140 C   0  0  0  0  0  2  0  0  0  0  0  0
  189.7180  177.1210  146.3410 C   0  0  0  0  0  0  0  0  0  0  0  0
  190.1410  177.3660  143.1930 C   0  0  0  0  0  3  0  0  0  0  0  0
  190.1840  177.6230  141.7050 C   0  0  1  0  0  3  0  0  0  0  0  0
  186.3140  180.1430  141.0690 O   0  0  0  0  0  1  0  0  0  0  0  0
  182.4800  178.4950  142.0690 C   0  0  0  0  0  3  0  0  0  0  0  0
  181.2130  178.7310  144.5520 C   0  0  0  0  0  3  0  0  0  0  0  0
  183.2470  178.6700  143.2260 C   0  0  0  0  0  0  0  0  0  0  0  0
  181.0860  178.4370  142.1510 C   0  0  0  0  0  3  0  0  0  0  0  0
  182.6070  178.7880  144.4720 C   0  0  0  0  0  3  0  0  0  0  0  0
  180.4530  178.5560  143.3920 C   0  0  0  0  0  3  0  0  0  0  0  0
  190.9990  176.5390  141.0140 C   0  0  0  0  0  2  0  0  0  0  0  0
  190.6130  176.4000  139.5790 C   0  0  0  0  0  3  0  0  0  0  0  0
  191.5320  176.4410  138.6200 C   0  0  0  0  0  3  0  0  0  0  0  0
  191.1790  176.3090  137.2030 C   0  0  0  0  0  0  0  0  0  0  0  0
  192.0760  176.1630  136.3290 O   0  0  0  0  0  0  0  0  0  0  0  0
  189.8030  176.3460  136.8270 N   0  0  0  0  0  2  0  0  0  0  0  0
  187.5160  176.3160  135.1140 C   0  0  0  0  0  1  0  0  0  0  0  0
  189.7120  174.8620  134.6340 O   0  0  0  0  0  0  0  0  0  0  0  0
  189.2880  176.1960  135.1810 S   0  0  0  0  0  0  0  0  0  0  0  0
  189.8870  177.3000  134.3570 O   0  0  0  0  0  0  0  0  0  0  0  0
  1 13  2  0  0  0  0
  1 18  1  0  0  0  0
  2 24  1  1  0  0  0
  2 17  1  0  0  0  0
  3 10  1  6  0  0  0
  3 12  1  0  0  0  0
  3  8  1  0  0  0  0
  4  7  1  6  0  0  0
  4  3  1  0  0  0  0
  5 21  1  1  0  0  0
  5 15  1  0  0  0  0
  5  4  1  0  0  0  0
  6 11  1  0  0  0  0
  7 20  1  0  0  0  0
  8 17  1  1  0  0  0
  8 13  1  0  0  0  0
 11  9  1  0  0  0  0
 12  1  1  0  0  0  0
 13  6  1  0  0  0  0
 14 18  2  0  0  0  0
 15  2  1  0  0  0  0
 16 11  2  0  0  0  0
 18 16  1  0  0  0  0
 19 12  2  0  0  0  0
 20 28  1  6  0  0  0
 20 19  1  0  0  0  0
 22 25  2  0  0  0  0
 22 24  1  0  0  0  0
 24 26  2  0  0  0  0
 25 27  1  0  0  0  0
 26 23  1  0  0  0  0
 27 23  2  0  0  0  0
 29 28  1  0  0  0  0
 30 29  2  0  0  0  0
 31 30  1  0  0  0  0
 32 31  2  0  0  0  0
 33 31  1  0  0  0  0
 34 36  1  0  0  0  0
 35 36  2  0  0  0  0
 36 33  1  0  0  0  0
 37 36  2  0  0  0  0
M  END
>  <MODEL>
4

>  <REMARK>
 VINA RESULT:      -8.9      2.858      6.030
  Name = 
  5 active torsions:
  status: ('A' for Active; 'I' for Inactive)
    1  A    between atoms: C_3  and  C_20
    2  A    between atoms: C_6  and  C_22
    3  A    between atoms: C_8  and  C_26
    4  A    between atoms: C_26  and  C_34
    5  A    between atoms: S_30  and  N_32
                            x       y       z     vdW  Elec       q    Type
                         _______ _______ _______ _____ _____    ______ ____

>  <TORSDO>
F 5

$$$$
=
 OpenBabel10232412423D

 37 41  0  0  1  0  0  0  0  0999 V2000
  186.6400  178.3640  142.7740 C   0  0  0  0  0  0  0  0  0  0  0  0
  190.3460  176.5400  145.2620 C   0  0  2  0  0  3  0  0  0  0  0  0
  188.9100  177.6260  142.7110 C   0  0  1  0  0  0  0  0  0  0  0  0
  189.6800  176.4800  142.0530 C   0  0  2  0  0  3  0  0  0  0  0  0
  190.9290  175.9970  142.8180 C   0  0  1  0  0  3  0  0  0  0  0  0
  186.0590  178.0890  145.0950 C   0  0  0  0  0  2  0  0  0  0  0  0
  190.0490  176.9020  140.6280 C   0  0  0  0  0  2  0  0  0  0  0  0
  188.2710  177.2170  144.0510 C   0  0  2  0  0  3  0  0  0  0  0  0
  183.8360  178.8900  145.9100 C   0  0  0  0  0  1  0  0  0  0  0  0
  189.7210  178.7460  142.8540 F   0  0  0  0  0  0  0  0  0  0  0  0
  184.8270  178.7040  144.8190 C   0  0  0  0  0  0  0  0  0  0  0  0
  187.7330  178.0230  141.8820 C   0  0  0  0  0  0  0  0  0  0  0  0
  186.9670  177.9520  144.0460 C   0  0  0  0  0  0  0  0  0  0  0  0
  185.0870  179.3280  141.3560 O   0  0  0  0  0  0  0  0  0  0  0  0
  191.3160  176.7640  144.0940 C   0  0  0  0  0  2  0  0  0  0  0  0
  184.5260  179.1150  143.5500 N   0  0  0  0  0  0  0  0  0  0  0  0
  189.1720  177.5200  145.2380 C   0  0  0  0  0  2  0  0  0  0  0  0
  185.4000  178.9510  142.5160 C   0  0  0  0  0  0  0  0  0  0  0  0
  187.6700  177.8730  140.5570 C   0  0  0  0  0  3  0  0  0  0  0  0
  188.7950  177.2270  139.7850 C   0  0  1  0  0  3  0  0  0  0  0  0
  190.8330  174.6290  143.0760 O   0  0  0  0  0  1  0  0  0  0  0  0
  190.6260  177.5340  147.5340 C   0  0  0  0  0  3  0  0  0  0  0  0
  192.8450  175.9160  148.0650 C   0  0  0  0  0  3  0  0  0  0  0  0
  191.0700  176.6260  146.5670 C   0  0  0  0  0  0  0  0  0  0  0  0
  191.2860  177.6330  148.7620 C   0  0  0  0  0  3  0  0  0  0  0  0
  192.1850  175.8150  146.8360 C   0  0  0  0  0  3  0  0  0  0  0  0
  192.3950  176.8250  149.0270 C   0  0  0  0  0  3  0  0  0  0  0  0
  189.1600  178.0860  138.5820 C   0  0  0  0  0  2  0  0  0  0  0  0
  190.4640  177.6680  137.9900 C   0  0  0  0  0  3  0  0  0  0  0  0
  190.5530  176.5700  137.2470 C   0  0  0  0  0  3  0  0  0  0  0  0
  191.8230  176.1350  136.6560 C   0  0  0  0  0  0  0  0  0  0  0  0
  191.9750  176.1180  135.4040 O   0  0  0  0  0  0  0  0  0  0  0  0
  192.8850  175.7320  137.5180 N   0  0  0  0  0  2  0  0  0  0  0  0
  194.1700  173.8440  135.8020 C   0  0  0  0  0  1  0  0  0  0  0  0
  195.2890  174.7560  138.0570 O   0  0  0  0  0  0  0  0  0  0  0  0
  194.4210  175.2060  136.9150 S   0  0  0  0  0  0  0  0  0  0  0  0
  195.0890  176.3290  136.1760 O   0  0  0  0  0  0  0  0  0  0  0  0
  1 13  2  0  0  0  0
  2 24  1  1  0  0  0
  3 10  1  1  0  0  0
  3  8  1  0  0  0  0
  4  7  1  6  0  0  0
  4  3  1  0  0  0  0
  4  5  1  0  0  0  0
  5 21  1  1  0  0  0
  5 15  1  0  0  0  0
  8 17  1  1  0  0  0
 11  6  1  0  0  0  0
 11  9  1  0  0  0  0
 12  3  1  0  0  0  0
 12  1  1  0  0  0  0
 13  8  1  0  0  0  0
 13  6  1  0  0  0  0
 14 18  2  0  0  0  0
 15  2  1  0  0  0  0
 16 11  2  0  0  0  0
 17  2  1  0  0  0  0
 18  1  1  0  0  0  0
 18 16  1  0  0  0  0
 19 12  2  0  0  0  0
 20 28  1  6  0  0  0
 20 19  1  0  0  0  0
 20  7  1  0  0  0  0
 22 25  1  0  0  0  0
 23 27  1  0  0  0  0
 24 26  1  0  0  0  0
 24 22  2  0  0  0  0
 25 27  2  0  0  0  0
 26 23  2  0  0  0  0
 29 28  1  0  0  0  0
 30 29  2  0  0  0  0
 31 30  1  0  0  0  0
 31 33  1  0  0  0  0
 32 31  2  0  0  0  0
 34 36  1  0  0  0  0
 36 33  1  0  0  0  0
 36 35  2  0  0  0  0
 37 36  2  0  0  0  0
M  END
>  <MODEL>
5

>  <REMARK>
 VINA RESULT:      -8.7      1.745      2.381
  Name = 
  5 active torsions:
  status: ('A' for Active; 'I' for Inactive)
    1  A    between atoms: C_3  and  C_20
    2  A    between atoms: C_6  and  C_22
    3  A    between atoms: C_8  and  C_26
    4  A    between atoms: C_26  and  C_34
    5  A    between atoms: S_30  and  N_32
                            x       y       z     vdW  Elec       q    Type
                         _______ _______ _______ _____ _____    ______ ____

>  <TORSDO>
F 5

$$$$
=
 OpenBabel10232412423D

 37 41  0  0  1  0  0  0  0  0999 V2000
  185.8100  178.4130  140.3850 C   0  0  0  0  0  0  0  0  0  0  0  0
  187.6460  178.2080  144.8390 C   0  0  2  0  0  3  0  0  0  0  0  0
  185.3520  178.2190  142.7200 C   0  0  1  0  0  0  0  0  0  0  0  0
  184.6670  179.0770  143.7840 C   0  0  2  0  0  3  0  0  0  0  0  0
  185.2010  178.9010  145.2200 C   0  0  1  0  0  3  0  0  0  0  0  0
  188.2170  178.4820  140.3210 C   0  0  0  0  0  2  0  0  0  0  0  0
  183.1620  178.8010  143.7310 C   0  0  0  0  0  2  0  0  0  0  0  0
  186.8300  178.6040  142.5130 C   0  0  2  0  0  3  0  0  0  0  0  0
  189.3910  178.4680  138.1140 C   0  0  0  0  0  1  0  0  0  0  0  0
  185.2130  176.8680  143.0110 F   0  0  0  0  0  0  0  0  0  0  0  0
  188.1430  178.4460  138.9200 C   0  0  0  0  0  0  0  0  0  0  0  0
  184.7500  178.4570  141.3740 C   0  0  0  0  0  0  0  0  0  0  0  0
  187.0220  178.4390  141.0380 C   0  0  0  0  0  0  0  0  0  0  0  0
  184.6560  178.3830  138.3800 O   0  0  0  0  0  0  0  0  0  0  0  0
  186.2870  177.8350  145.4450 C   0  0  0  0  0  2  0  0  0  0  0  0
  186.9290  178.4110  138.2910 N   0  0  0  0  0  0  0  0  0  0  0  0
  187.7680  177.7750  143.3770 C   0  0  0  0  0  2  0  0  0  0  0  0
  185.7580  178.4020  138.9890 C   0  0  0  0  0  0  0  0  0  0  0  0
  183.4890  178.8480  141.1810 C   0  0  0  0  0  3  0  0  0  0  0  0
  182.5680  179.1350  142.3440 C   0  0  1  0  0  3  0  0  0  0  0  0
  185.6080  180.1330  145.7340 O   0  0  0  0  0  1  0  0  0  0  0  0
  189.9660  177.3030  145.0200 C   0  0  0  0  0  3  0  0  0  0  0  0
  189.6660  176.8430  147.7630 C   0  0  0  0  0  3  0  0  0  0  0  0
  188.7580  177.6240  145.6500 C   0  0  0  0  0  0  0  0  0  0  0  0
  191.0200  176.7570  145.7570 C   0  0  0  0  0  3  0  0  0  0  0  0
  188.6110  177.3910  147.0270 C   0  0  0  0  0  3  0  0  0  0  0  0
  190.8700  176.5260  147.1280 C   0  0  0  0  0  3  0  0  0  0  0  0
  181.2370  178.4250  142.1390 C   0  0  0  0  0  2  0  0  0  0  0  0
  181.0700  177.9800  140.7250 C   0  0  0  0  0  3  0  0  0  0  0  0
  180.9350  176.6920  140.4280 C   0  0  0  0  0  3  0  0  0  0  0  0
  180.7720  176.2280  139.0470 C   0  0  0  0  0  0  0  0  0  0  0  0
  179.9970  176.8290  138.2540 O   0  0  0  0  0  0  0  0  0  0  0  0
  181.5060  175.0840  138.6110 N   0  0  0  0  0  2  0  0  0  0  0  0
  182.5090  173.1010  136.8150 C   0  0  0  0  0  1  0  0  0  0  0  0
  181.7400  175.5360  136.0110 O   0  0  0  0  0  0  0  0  0  0  0  0
  181.3820  174.4620  137.0000 S   0  0  0  0  0  0  0  0  0  0  0  0
  179.9820  173.9790  136.7470 O   0  0  0  0  0  0  0  0  0  0  0  0
  1 13  2  0  0  0  0
  1 12  1  0  0  0  0
  2 15  1  0  0  0  0
  2 24  1  1  0  0  0
  3 10  1  1  0  0  0
  3  4  1  0  0  0  0
  4  7  1  1  0  0  0
  4  5  1  0  0  0  0
  5 15  1  0  0  0  0
  5 21  1  6  0  0  0
  6 13  1  0  0  0  0
  8  3  1  0  0  0  0
  8 17  1  1  0  0  0
  9 11  1  0  0  0  0
 11  6  1  0  0  0  0
 12  3  1  0  0  0  0
 13  8  1  0  0  0  0
 14 18  2  0  0  0  0
 16 11  2  0  0  0  0
 16 18  1  0  0  0  0
 17  2  1  0  0  0  0
 18  1  1  0  0  0  0
 19 12  2  0  0  0  0
 19 20  1  0  0  0  0
 20 28  1  6  0  0  0
 20  7  1  0  0  0  0
 22 24  2  0  0  0  0
 22 25  1  0  0  0  0
 24 26  1  0  0  0  0
 25 27  2  0  0  0  0
 26 23  2  0  0  0  0
 27 23  1  0  0  0  0
 29 28  1  0  0  0  0
 30 29  2  0  0  0  0
 31 30  1  0  0  0  0
 32 31  2  0  0  0  0
 33 31  1  0  0  0  0
 34 36  1  0  0  0  0
 35 36  2  0  0  0  0
 36 33  1  0  0  0  0
 37 36  2  0  0  0  0
M  END
>  <MODEL>
6

>  <REMARK>
 VINA RESULT:      -8.7      4.895      7.716
  Name = 
  5 active torsions:
  status: ('A' for Active; 'I' for Inactive)
    1  A    between atoms: C_3  and  C_20
    2  A    between atoms: C_6  and  C_22
    3  A    between atoms: C_8  and  C_26
    4  A    between atoms: C_26  and  C_34
    5  A    between atoms: S_30  and  N_32
                            x       y       z     vdW  Elec       q    Type
                         _______ _______ _______ _____ _____    ______ ____

>  <TORSDO>
F 5

$$$$
=
 OpenBabel10232412423D

 37 41  0  0  1  0  0  0  0  0999 V2000
  186.5440  178.3240  142.1110 C   0  0  0  0  0  0  0  0  0  0  0  0
  189.2860  177.5510  146.0010 C   0  0  2  0  0  3  0  0  0  0  0  0
  186.5950  177.9520  144.4690 C   0  0  1  0  0  0  0  0  0  0  0  0
  186.2530  178.7600  145.7210 C   0  0  2  0  0  3  0  0  0  0  0  0
  187.0690  178.4070  146.9800 C   0  0  1  0  0  3  0  0  0  0  0  0
  188.8710  178.1980  141.5040 C   0  0  0  0  0  2  0  0  0  0  0  0
  184.7530  178.6170  145.9930 C   0  0  0  0  0  2  0  0  0  0  0  0
  188.0220  178.2290  143.9580 C   0  0  2  0  0  3  0  0  0  0  0  0
  189.5220  178.2930  139.0920 C   0  0  0  0  0  1  0  0  0  0  0  0
  186.3860  176.5950  144.6850 F   0  0  0  0  0  0  0  0  0  0  0  0
  188.4860  178.3000  140.1580 C   0  0  0  0  0  0  0  0  0  0  0  0
  185.7380  178.3640  143.3170 C   0  0  0  0  0  0  0  0  0  0  0  0
  187.8660  178.1880  142.4700 C   0  0  0  0  0  0  0  0  0  0  0  0
  184.9790  178.5780  140.4260 O   0  0  0  0  0  0  0  0  0  0  0  0
  188.0640  177.2380  146.8730 C   0  0  0  0  0  2  0  0  0  0  0  0
  187.1660  178.4240  139.8220 N   0  0  0  0  0  0  0  0  0  0  0  0
  189.0380  177.2480  144.5220 C   0  0  0  0  0  2  0  0  0  0  0  0
  186.1840  178.4490  140.7670 C   0  0  0  0  0  0  0  0  0  0  0  0
  184.5120  178.8750  143.4460 C   0  0  0  0  0  3  0  0  0  0  0  0
  183.9050  179.1280  144.8060 C   0  0  1  0  0  3  0  0  0  0  0  0
  187.7030  179.5470  147.4750 O   0  0  0  0  0  1  0  0  0  0  0  0
  190.8800  176.9490  147.8260 C   0  0  0  0  0  3  0  0  0  0  0  0
  192.3330  175.2720  146.1230 C   0  0  0  0  0  3  0  0  0  0  0  0
  190.4840  176.8030  146.4920 C   0  0  0  0  0  0  0  0  0  0  0  0
  191.9960  176.2600  148.3080 C   0  0  0  0  0  3  0  0  0  0  0  0
  191.2160  175.9600  145.6390 C   0  0  0  0  0  3  0  0  0  0  0  0
  192.7220  175.4220  147.4570 C   0  0  0  0  0  3  0  0  0  0  0  0
  182.4960  178.5530  144.8600 C   0  0  0  0  0  2  0  0  0  0  0  0
  181.9930  178.2170  143.4960 C   0  0  0  0  0  3  0  0  0  0  0  0
  181.5370  179.1660  142.6860 C   0  0  0  0  0  3  0  0  0  0  0  0
  181.0360  178.8630  141.3420 C   0  0  0  0  0  0  0  0  0  0  0  0
  180.0030  179.4340  140.8970 O   0  0  0  0  0  0  0  0  0  0  0  0
  181.7360  177.9120  140.5410 N   0  0  0  0  0  2  0  0  0  0  0  0
  182.5130  176.5630  138.1450 C   0  0  0  0  0  1  0  0  0  0  0  0
  180.9520  178.7370  138.1490 O   0  0  0  0  0  0  0  0  0  0  0  0
  181.2240  177.4900  138.9420 S   0  0  0  0  0  0  0  0  0  0  0  0
  179.9820  176.6470  139.0110 O   0  0  0  0  0  0  0  0  0  0  0  0
  1 13  2  0  0  0  0
  1 12  1  0  0  0  0
  2 24  1  1  0  0  0
  2 15  1  0  0  0  0
  3 10  1  1  0  0  0
  3  4  1  0  0  0  0
  4  7  1  1  0  0  0
  4  5  1  0  0  0  0
  5 21  1  6  0  0  0
  6 13  1  0  0  0  0
  8  3  1  0  0  0  0
  8 17  1  1  0  0  0
  9 11  1  0  0  0  0
 11  6  1  0  0  0  0
 12 19  2  0  0  0  0
 12  3  1  0  0  0  0
 13  8  1  0  0  0  0
 14 18  2  0  0  0  0
 15  5  1  0  0  0  0
 16 11  2  0  0  0  0
 16 18  1  0  0  0  0
 17  2  1  0  0  0  0
 18  1  1  0  0  0  0
 19 20  1  0  0  0  0
 20 28  1  6  0  0  0
 20  7  1  0  0  0  0
 22 25  1  0  0  0  0
 23 27  1  0  0  0  0
 24 22  2  0  0  0  0
 26 23  2  0  0  0  0
 26 24  1  0  0  0  0
 27 25  2  0  0  0  0
 29 28  1  0  0  0  0
 30 29  2  0  0  0  0
 31 30  1  0  0  0  0
 32 31  2  0  0  0  0
 33 31  1  0  0  0  0
 34 36  1  0  0  0  0
 35 36  2  0  0  0  0
 36 37  2  0  0  0  0
 36 33  1  0  0  0  0
M  END
>  <MODEL>
7

>  <REMARK>
 VINA RESULT:      -8.7      4.919      8.081
  Name = 
  5 active torsions:
  status: ('A' for Active; 'I' for Inactive)
    1  A    between atoms: C_3  and  C_20
    2  A    between atoms: C_6  and  C_22
    3  A    between atoms: C_8  and  C_26
    4  A    between atoms: C_26  and  C_34
    5  A    between atoms: S_30  and  N_32
                            x       y       z     vdW  Elec       q    Type
                         _______ _______ _______ _____ _____    ______ ____

>  <TORSDO>
F 5

$$$$
=
 OpenBabel10232412423D

 37 41  0  0  1  0  0  0  0  0999 V2000
  186.8370  178.3850  140.3310 C   0  0  0  0  0  0  0  0  0  0  0  0
  182.4000  178.8950  138.5140 C   0  0  2  0  0  3  0  0  0  0  0  0
  184.5330  178.8040  140.7930 C   0  0  1  0  0  0  0  0  0  0  0  0
  183.4050  178.0750  141.5240 C   0  0  2  0  0  3  0  0  0  0  0  0
  181.9840  178.3510  140.9910 C   0  0  1  0  0  3  0  0  0  0  0  0
  186.8710  178.2000  137.9300 C   0  0  0  0  0  2  0  0  0  0  0  0
  183.4970  178.4150  143.0140 C   0  0  0  0  0  2  0  0  0  0  0  0
  184.6910  178.3350  139.3340 C   0  0  2  0  0  3  0  0  0  0  0  0
  189.0590  177.9650  136.7440 C   0  0  0  0  0  1  0  0  0  0  0  0
  184.3630  180.1800  140.8700 F   0  0  0  0  0  0  0  0  0  0  0  0
  188.2710  178.1160  137.9940 C   0  0  0  0  0  0  0  0  0  0  0  0
  185.8590  178.4770  141.3980 C   0  0  0  0  0  0  0  0  0  0  0  0
  186.1730  178.3600  139.1260 C   0  0  0  0  0  0  0  0  0  0  0  0
  188.8490  178.2920  141.4710 O   0  0  0  0  0  0  0  0  0  0  0  0
  181.8430  179.3820  139.8570 C   0  0  0  0  0  2  0  0  0  0  0  0
  188.9130  178.1520  139.2020 N   0  0  0  0  0  0  0  0  0  0  0  0
  183.8930  179.1920  138.3630 C   0  0  0  0  0  2  0  0  0  0  0  0
  188.2290  178.2750  140.3750 C   0  0  0  0  0  0  0  0  0  0  0  0
  186.0290  178.1290  142.6750 C   0  0  0  0  0  3  0  0  0  0  0  0
  184.8550  177.9880  143.6150 C   0  0  1  0  0  3  0  0  0  0  0  0
  181.3610  177.1520  140.6460 O   0  0  0  0  0  1  0  0  0  0  0  0
  181.1770  180.8140  137.4890 C   0  0  0  0  0  3  0  0  0  0  0  0
  180.6420  179.3470  135.1680 C   0  0  0  0  0  3  0  0  0  0  0  0
  181.6330  179.4960  137.3800 C   0  0  0  0  0  0  0  0  0  0  0  0
  180.4580  181.3980  136.4420 C   0  0  0  0  0  3  0  0  0  0  0  0
  181.3620  178.7610  136.2140 C   0  0  0  0  0  3  0  0  0  0  0  0
  180.1900  180.6650  135.2820 C   0  0  0  0  0  3  0  0  0  0  0  0
  185.1340  178.7380  144.9100 C   0  0  0  0  0  2  0  0  0  0  0  0
  186.5870  178.7160  145.2490 C   0  0  0  0  0  3  0  0  0  0  0  0
  187.1610  177.6110  145.7140 C   0  0  0  0  0  3  0  0  0  0  0  0
  188.5850  177.5620  146.0560 C   0  0  0  0  0  0  0  0  0  0  0  0
  189.0080  178.0860  147.1230 O   0  0  0  0  0  0  0  0  0  0  0  0
  189.4890  176.9100  145.1650 N   0  0  0  0  0  2  0  0  0  0  0  0
  191.4290  176.2680  147.1610 C   0  0  0  0  0  1  0  0  0  0  0  0
  191.8290  178.1450  145.2960 O   0  0  0  0  0  0  0  0  0  0  0  0
  191.1870  176.7990  145.4830 S   0  0  0  0  0  0  0  0  0  0  0  0
  191.8150  175.7990  144.5550 O   0  0  0  0  0  0  0  0  0  0  0  0
  1 18  1  0  0  0  0
  1 12  1  0  0  0  0
  2 24  1  6  0  0  0
  2 15  1  0  0  0  0
  3 10  1  1  0  0  0
  3 12  1  0  0  0  0
  3  4  1  0  0  0  0
  4  7  1  1  0  0  0
  5 21  1  6  0  0  0
  5  4  1  0  0  0  0
  6 11  1  0  0  0  0
  6 13  1  0  0  0  0
  7 20  1  0  0  0  0
  8 17  1  6  0  0  0
  8  3  1  0  0  0  0
  9 11  1  0  0  0  0
 11 16  2  0  0  0  0
 12 19  2  0  0  0  0
 13  8  1  0  0  0  0
 13  1  2  0  0  0  0
 15  5  1  0  0  0  0
 16 18  1  0  0  0  0
 17  2  1  0  0  0  0
 18 14  2  0  0  0  0
 19 20  1  0  0  0  0
 20 28  1  1  0  0  0
 23 27  2  0  0  0  0
 23 26  1  0  0  0  0
 24 22  1  0  0  0  0
 25 22  2  0  0  0  0
 26 24  2  0  0  0  0
 27 25  1  0  0  0  0
 28 29  1  0  0  0  0
 29 30  2  0  0  0  0
 30 31  1  0  0  0  0
 31 32  2  0  0  0  0
 33 36  1  0  0  0  0
 33 31  1  0  0  0  0
 35 36  2  0  0  0  0
 36 34  1  0  0  0  0
 37 36  2  0  0  0  0
M  END
>  <MODEL>
8

>  <REMARK>
 VINA RESULT:      -8.1      3.859      8.823
  Name = 
  5 active torsions:
  status: ('A' for Active; 'I' for Inactive)
    1  A    between atoms: C_3  and  C_20
    2  A    between atoms: C_6  and  C_22
    3  A    between atoms: C_8  and  C_26
    4  A    between atoms: C_26  and  C_34
    5  A    between atoms: S_30  and  N_32
                            x       y       z     vdW  Elec       q    Type
                         _______ _______ _______ _____ _____    ______ ____

>  <TORSDO>
F 5

$$$$
=
 OpenBabel10232412423D

 37 41  0  0  1  0  0  0  0  0999 V2000
  186.7060  178.2000  143.1250 C   0  0  0  0  0  0  0  0  0  0  0  0
  190.5110  176.5330  145.5730 C   0  0  2  0  0  3  0  0  0  0  0  0
  189.0140  177.5930  143.0460 C   0  0  1  0  0  0  0  0  0  0  0  0
  189.8470  176.5080  142.3640 C   0  0  2  0  0  3  0  0  0  0  0  0
  191.1210  176.0790  143.1180 C   0  0  1  0  0  3  0  0  0  0  0  0
  186.1430  177.8410  145.4390 C   0  0  0  0  0  2  0  0  0  0  0  0
  190.1910  176.9810  140.9490 C   0  0  0  0  0  2  0  0  0  0  0  0
  188.3990  177.1180  144.3770 C   0  0  2  0  0  3  0  0  0  0  0  0
  183.8780  178.4970  146.2700 C   0  0  0  0  0  1  0  0  0  0  0  0
  189.7600  178.7530  143.2150 F   0  0  0  0  0  0  0  0  0  0  0  0
  184.8780  178.3910  145.1760 C   0  0  0  0  0  0  0  0  0  0  0  0
  187.8160  177.9420  142.2260 C   0  0  0  0  0  0  0  0  0  0  0  0
  187.0560  177.7790  144.3880 C   0  0  0  0  0  0  0  0  0  0  0  0
  185.1000  179.1070  141.7270 O   0  0  0  0  0  0  0  0  0  0  0  0
  191.4650  176.8370  144.4120 C   0  0  0  0  0  2  0  0  0  0  0  0
  184.5530  178.8120  143.9160 N   0  0  0  0  0  0  0  0  0  0  0  0
  189.2830  177.4460  145.5710 C   0  0  0  0  0  2  0  0  0  0  0  0
  185.4340  178.7220  142.8790 C   0  0  0  0  0  0  0  0  0  0  0  0
  187.7600  177.8180  140.8980 C   0  0  0  0  0  3  0  0  0  0  0  0
  188.9210  177.2530  140.1120 C   0  0  1  0  0  3  0  0  0  0  0  0
  191.1030  174.7020  143.3460 O   0  0  0  0  0  1  0  0  0  0  0  0
  192.2650  175.7310  147.1590 C   0  0  0  0  0  3  0  0  0  0  0  0
  191.5710  177.6760  149.0460 C   0  0  0  0  0  3  0  0  0  0  0  0
  191.2290  176.6310  146.8810 C   0  0  0  0  0  0  0  0  0  0  0  0
  192.9510  175.8040  148.3740 C   0  0  0  0  0  3  0  0  0  0  0  0
  190.8830  177.6060  147.8310 C   0  0  0  0  0  3  0  0  0  0  0  0
  192.6050  176.7750  149.3170 C   0  0  0  0  0  3  0  0  0  0  0  0
  189.2350  178.1590  138.9300 C   0  0  0  0  0  2  0  0  0  0  0  0
  188.1000  178.2040  137.9620 C   0  0  0  0  0  3  0  0  0  0  0  0
  187.2340  177.2000  137.8820 C   0  0  0  0  0  3  0  0  0  0  0  0
  186.1110  177.2180  136.9390 C   0  0  0  0  0  0  0  0  0  0  0  0
  186.0730  178.0600  136.0020 O   0  0  0  0  0  0  0  0  0  0  0  0
  185.0610  176.2650  137.0970 N   0  0  0  0  0  2  0  0  0  0  0  0
  184.2710  176.0410  134.3600 C   0  0  0  0  0  1  0  0  0  0  0  0
  182.8980  177.4730  136.1570 O   0  0  0  0  0  0  0  0  0  0  0  0
  183.6950  176.2050  136.0330 S   0  0  0  0  0  0  0  0  0  0  0  0
  182.8340  175.0240  136.3760 O   0  0  0  0  0  0  0  0  0  0  0  0
  1 13  2  0  0  0  0
  2 24  1  1  0  0  0
  3 10  1  1  0  0  0
  3  8  1  0  0  0  0
  4  7  1  6  0  0  0
  4  3  1  0  0  0  0
  4  5  1  0  0  0  0
  5 21  1  1  0  0  0
  5 15  1  0  0  0  0
  8 13  1  0  0  0  0
  8 17  1  1  0  0  0
 11  6  1  0  0  0  0
 11  9  1  0  0  0  0
 12  3  1  0  0  0  0
 12  1  1  0  0  0  0
 13  6  1  0  0  0  0
 14 18  2  0  0  0  0
 15  2  1  0  0  0  0
 16 11  2  0  0  0  0
 17  2  1  0  0  0  0
 18  1  1  0  0  0  0
 18 16  1  0  0  0  0
 19 12  2  0  0  0  0
 20 28  1  6  0  0  0
 20 19  1  0  0  0  0
 20  7  1  0  0  0  0
 22 25  1  0  0  0  0
 23 27  1  0  0  0  0
 24 22  2  0  0  0  0
 24 26  1  0  0  0  0
 25 27  2  0  0  0  0
 26 23  2  0  0  0  0
 29 28  1  0  0  0  0
 30 29  2  0  0  0  0
 31 33  1  0  0  0  0
 31 30  1  0  0  0  0
 32 31  2  0  0  0  0
 34 36  1  0  0  0  0
 36 35  2  0  0  0  0
 36 37  2  0  0  0  0
 36 33  1  0  0  0  0
M  END
>  <MODEL>
9

>  <REMARK>
 VINA RESULT:      -7.8      3.943      5.513
  Name = 
  5 active torsions:
  status: ('A' for Active; 'I' for Inactive)
    1  A    between atoms: C_3  and  C_20
    2  A    between atoms: C_6  and  C_22
    3  A    between atoms: C_8  and  C_26
    4  A    between atoms: C_26  and  C_34
    5  A    between atoms: S_30  and  N_32
                            x       y       z     vdW  Elec       q    Type
                         _______ _______ _______ _____ _____    ______ ____

>  <TORSDO>
F 5

$$$$
