=
 OpenBabel10232412193D

 56 68  0  0  1  0  0  0  0  0999 V2000
  187.0920  177.7830  137.0990 C   0  0  2  0  0  3  0  0  0  0  0  0
  188.0800  178.2530  139.4680 C   0  0  0  0  0  2  0  0  0  0  0  0
  190.6200  177.2720  138.3520 C   0  0  0  0  0  3  0  0  0  0  0  0
  189.2660  177.8900  140.4070 C   0  0  2  0  0  3  0  0  0  0  0  0
  188.2520  177.6930  138.0620 C   0  0  1  0  0  0  0  0  0  0  0  0
  190.3260  176.9400  139.8000 C   0  0  2  0  0  3  0  0  0  0  0  0
  185.9710  176.8930  137.6010 C   0  0  2  0  0  3  0  0  0  0  0  0
  187.4120  176.4680  137.7870 C   0  0  1  0  0  3  0  0  0  0  0  0
  189.6360  177.6070  137.5140 C   0  0  0  0  0  3  0  0  0  0  0  0
  187.6620  178.1400  142.5410 C   0  0  2  0  0  0  0  0  0  0  0  0
  189.0700  178.6930  142.6160 C   0  0  2  0  0  3  0  0  0  0  0  0
  187.4570  176.9710  141.6920 N   0  0  0  0  0  2  0  0  0  0  0  0
  187.1460  177.6870  143.9370 C   0  0  1  0  0  3  0  0  0  0  0  0
  188.8400  177.4380  141.8180 C   0  0  2  0  0  0  0  0  0  0  0  0
  189.5000  177.6240  144.8320 C   0  0  0  0  0  0  0  0  0  0  0  0
  188.1590  177.1720  144.8470 N   0  0  0  0  0  2  0  0  0  0  0  0
  189.9310  178.3520  143.8060 C   0  0  0  0  0  3  0  0  0  0  0  0
  186.2800  178.6670  144.6170 N   0  0  0  0  0  0  0  0  0  0  0  0
  186.2630  178.3610  146.0430 C   0  0  0  0  0  2  0  0  0  0  0  0
  184.9040  178.5920  144.1440 C   0  0  0  0  0  2  0  0  0  0  0  0
  184.0050  178.7780  145.3420 C   0  0  0  0  0  2  0  0  0  0  0  0
  184.8260  178.3180  146.5130 C   0  0  0  0  0  2  0  0  0  0  0  0
  190.3960  177.2930  145.9850 C   0  0  0  0  0  3  0  0  0  0  0  0
  191.5550  176.4190  145.5450 C   0  0  0  0  0  1  0  0  0  0  0  0
  189.6490  176.6340  147.1350 C   0  0  0  0  0  1  0  0  0  0  0  0
  185.3510  176.1360  136.4430 C   0  0  0  0  0  2  0  0  0  0  0  0
  183.3230  175.9260  135.2770 C   0  0  0  0  0  2  0  0  0  0  0  0
  183.9080  176.0820  136.6060 N   0  0  0  0  0  0  0  0  0  0  0  0
  181.2090  176.2390  137.4120 O   0  0  0  0  0  0  0  0  0  0  0  0
  183.4750  177.3960  137.0920 C   0  0  1  0  0  3  0  0  0  0  0  0
  180.9900  176.0260  136.0340 C   0  0  0  0  0  2  0  0  0  0  0  0
  182.3940  177.9120  136.1450 C   0  0  2  0  0  3  0  0  0  0  0  0
  181.9980  177.4050  137.5080 C   0  0  1  0  0  0  0  0  0  0  0  0
  182.0630  176.7620  135.2550 C   0  0  1  0  0  3  0  0  0  0  0  0
  181.1910  179.6650  137.8970 C   0  0  0  0  0  2  0  0  0  0  0  0
  180.7650  180.6920  138.7370 C   0  0  0  0  0  0  0  0  0  0  0  0
  180.7180  180.4820  140.0770 N   0  0  0  0  0  0  0  0  0  0  0  0
  181.0810  179.2890  140.6130 C   0  0  0  0  0  2  0  0  0  0  0  0
  181.8700  177.1640  140.2830 O   0  0  0  0  0  0  0  0  0  0  0  0
  180.3060  182.2420  138.0680 Cl  0  0  0  0  0  0  0  0  0  0  0  0
  181.5370  178.4540  138.4200 N   0  0  0  0  0  0  0  0  0  0  0  0
  181.5030  178.2580  139.7760 C   0  0  0  0  0  0  0  0  0  0  0  0
  191.6080  176.9870  140.6320 C   0  0  0  0  0  2  0  0  0  0  0  0
  192.7670  177.5880  139.8560 C   0  0  0  0  0  2  0  0  0  0  0  0
  194.0070  176.7370  140.0540 C   0  0  0  0  0  2  0  0  0  0  0  0
  193.6950  176.2510  137.7480 O   0  0  0  0  0  0  0  0  0  0  0  0
  195.3400  174.9860  138.8190 N   0  0  0  0  0  2  0  0  0  0  0  0
  194.3240  175.9880  138.8090 C   0  0  0  0  0  0  0  0  0  0  0  0
  195.4790  172.8470  137.9280 C   0  0  2  0  0  0  0  0  0  0  0  0
  196.8350  173.5070  137.9560 C   0  0  2  0  0  3  0  0  0  0  0  0
  195.5770  171.9680  136.8030 O   0  0  0  0  0  0  0  0  0  0  0  0
  195.6730  174.2980  137.6470 N   0  0  0  0  0  0  0  0  0  0  0  0
  194.3660  172.5990  136.9420 C   0  0  0  0  0  2  0  0  0  0  0  0
  197.7190  173.4260  136.7030 C   0  0  0  0  0  2  0  0  0  0  0  0
  199.1590  174.3600  138.2900 C   0  0  0  0  0  1  0  0  0  0  0  0
  199.1160  173.5680  137.0730 N   0  0  0  0  0  2  0  0  0  0  0  0
  1  7  1  0  0  0  0
  1  8  1  0  0  0  0
  1  5  1  0  0  0  0
  2  4  1  0  0  0  0
  3  6  1  0  0  0  0
  4 14  1  0  0  0  0
  5  2  1  0  0  0  0
  6  4  1  0  0  0  0
  6 43  1  0  0  0  0
  7  8  1  0  0  0  0
  8  5  1  0  0  0  0
  9  5  1  0  0  0  0
  9  3  2  0  0  0  0
 10 11  1  0  0  0  0
 10 13  1  0  0  0  0
 11 17  1  0  0  0  0
 12 14  1  0  0  0  0
 12 10  1  0  0  0  0
 13 18  1  0  0  0  0
 13 16  1  0  0  0  0
 14 10  1  0  0  0  0
 14 11  1  0  0  0  0
 15 16  1  0  0  0  0
 15 23  1  0  0  0  0
 17 15  2  0  0  0  0
 18 19  1  0  0  0  0
 19 22  1  0  0  0  0
 20 18  1  0  0  0  0
 20 21  1  0  0  0  0
 21 22  1  0  0  0  0
 23 25  1  0  0  0  0
 24 23  1  0  0  0  0
 26 28  1  0  0  0  0
 26  7  1  0  0  0  0
 27 28  1  0  0  0  0
 28 30  1  0  0  0  0
 29 33  1  0  0  0  0
 30 33  1  0  0  0  0
 31 29  1  0  0  0  0
 32 30  1  0  0  0  0
 32 33  1  0  0  0  0
 33 41  1  0  0  0  0
 34 27  1  0  0  0  0
 34 31  1  0  0  0  0
 34 32  1  0  0  0  0
 35 41  1  0  0  0  0
 35 36  1  0  0  0  0
 36 37  2  0  0  0  0
 37 38  1  0  0  0  0
 40 36  1  0  0  0  0
 41 42  1  0  0  0  0
 42 39  2  0  0  0  0
 42 38  1  0  0  0  0
 44 45  1  0  0  0  0
 44 43  1  0  0  0  0
 46 48  2  0  0  0  0
 48 47  1  0  0  0  0
 48 45  1  0  0  0  0
 49 50  1  0  0  0  0
 51 53  1  0  0  0  0
 51 49  1  0  0  0  0
 52 49  1  0  0  0  0
 52 50  1  0  0  0  0
 52 47  1  0  0  0  0
 53 49  1  0  0  0  0
 54 56  1  0  0  0  0
 54 50  1  0  0  0  0
 56 55  1  0  0  0  0
M  END
>  <MODEL>
1

>  <REMARK>
 VINA RESULT:      -7.4      0.000      0.000
  Name = 
  13 active torsions:
  status: ('A' for Active; 'I' for Inactive)
    1  A    between atoms: C_4  and  C_25
    2  A    between atoms: N_6  and  C_13
    3  A    between atoms: N_7  and  C_8
    4  A    between atoms: C_8  and  C_53
    5  A    between atoms: C_19  and  C_27
    6  A    between atoms: C_26  and  C_45
    7  A    between atoms: C_35  and  N_43
    8  A    between atoms: N_36  and  N_38
    9  A    between atoms: C_37  and  C_42
   10  A    between atoms: C_37  and  C_51
   11  A    between atoms: C_42  and  C_52
   12  A    between atoms: C_45  and  N_47
   13  A    between atoms: C_48  and  C_52
                            x       y       z     vdW  Elec       q    Type
                         _______ _______ _______ _____ _____    ______ ____

>  <TORSDO>
F 13

$$$$
=
 OpenBabel10232412193D

 56 68  0  0  1  0  0  0  0  0999 V2000
  187.1080  178.5880  137.1340 C   0  0  2  0  0  3  0  0  0  0  0  0
  188.6820  178.3800  139.2050 C   0  0  0  0  0  2  0  0  0  0  0  0
  190.5330  177.0090  137.3730 C   0  0  0  0  0  3  0  0  0  0  0  0
  189.8920  177.5770  139.7620 C   0  0  2  0  0  3  0  0  0  0  0  0
  188.3760  178.0480  137.7500 C   0  0  1  0  0  0  0  0  0  0  0  0
  190.4810  176.5140  138.8040 C   0  0  2  0  0  3  0  0  0  0  0  0
  185.9190  177.9300  137.8090 C   0  0  2  0  0  3  0  0  0  0  0  0
  187.1860  177.1360  137.5700 C   0  0  1  0  0  3  0  0  0  0  0  0
  189.5260  177.7190  136.8580 C   0  0  0  0  0  3  0  0  0  0  0  0
  188.7170  177.7160  142.1690 C   0  0  2  0  0  0  0  0  0  0  0  0
  190.1640  178.1420  142.0360 C   0  0  2  0  0  3  0  0  0  0  0  0
  188.2520  176.6700  141.2640 N   0  0  0  0  0  2  0  0  0  0  0  0
  188.4090  177.1540  143.5850 C   0  0  1  0  0  3  0  0  0  0  0  0
  189.6750  177.0070  141.1790 C   0  0  2  0  0  0  0  0  0  0  0  0
  190.8650  176.8010  144.0240 C   0  0  0  0  0  0  0  0  0  0  0  0
  189.5080  176.4600  144.2420 N   0  0  0  0  0  2  0  0  0  0  0  0
  191.1800  177.6020  143.0100 C   0  0  0  0  0  3  0  0  0  0  0  0
  187.7760  178.1190  144.5030 N   0  0  0  0  0  0  0  0  0  0  0  0
  188.1120  177.7460  145.8720 C   0  0  0  0  0  2  0  0  0  0  0  0
  186.3230  178.0950  144.3940 C   0  0  0  0  0  2  0  0  0  0  0  0
  185.7650  178.2440  145.7880 C   0  0  0  0  0  2  0  0  0  0  0  0
  186.8410  177.7120  146.6920 C   0  0  0  0  0  2  0  0  0  0  0  0
  191.9090  176.2720  144.9560 C   0  0  0  0  0  3  0  0  0  0  0  0
  192.1580  174.7950  144.7190 C   0  0  0  0  0  1  0  0  0  0  0  0
  191.5670  176.5180  146.4180 C   0  0  0  0  0  1  0  0  0  0  0  0
  184.8740  177.5630  136.7740 C   0  0  0  0  0  2  0  0  0  0  0  0
  182.7580  176.6170  136.3910 C   0  0  0  0  0  2  0  0  0  0  0  0
  183.6990  177.0160  137.4330 N   0  0  0  0  0  0  0  0  0  0  0  0
  181.6010  176.2540  139.1560 O   0  0  0  0  0  0  0  0  0  0  0  0
  183.0590  178.1140  138.1640 C   0  0  1  0  0  3  0  0  0  0  0  0
  180.9780  175.9270  137.9330 C   0  0  0  0  0  2  0  0  0  0  0  0
  181.6010  178.1870  137.7170 C   0  0  2  0  0  3  0  0  0  0  0  0
  181.9270  177.6240  139.0770 C   0  0  1  0  0  0  0  0  0  0  0  0
  181.3750  176.9610  136.8970 C   0  0  1  0  0  3  0  0  0  0  0  0
  182.0600  178.2670  141.4180 C   0  0  0  0  0  3  0  0  0  0  0  0
  181.6710  179.0490  142.5020 C   0  0  0  0  0  0  0  0  0  0  0  0
  180.7260  180.0090  142.3280 N   0  0  0  0  0  0  0  0  0  0  0  0
  180.1530  180.2170  141.1170 C   0  0  0  0  0  3  0  0  0  0  0  0
  179.9820  179.6150  138.9130 O   0  0  0  0  0  0  0  0  0  0  0  0
  182.3870  178.7890  144.0770 Cl  0  0  0  0  0  0  0  0  0  0  0  0
  181.5080  178.4790  140.1890 N   0  0  0  0  0  0  0  0  0  0  0  0
  180.5420  179.4380  140.0270 C   0  0  0  0  0  0  0  0  0  0  0  0
  191.8730  176.0980  139.2780 C   0  0  0  0  0  2  0  0  0  0  0  0
  192.9190  176.2700  138.1900 C   0  0  0  0  0  2  0  0  0  0  0  0
  193.1350  174.9470  137.4780 C   0  0  0  0  0  2  0  0  0  0  0  0
  194.4730  173.0300  137.9040 O   0  0  0  0  0  0  0  0  0  0  0  0
  195.4180  175.0670  138.5450 N   0  0  0  0  0  2  0  0  0  0  0  0
  194.3660  174.2840  137.9830 C   0  0  0  0  0  0  0  0  0  0  0  0
  197.5390  175.5570  139.3520 C   0  0  2  0  0  0  0  0  0  0  0  0
  197.6210  174.8110  138.0440 C   0  0  2  0  0  3  0  0  0  0  0  0
  198.7420  175.1640  140.0190 O   0  0  0  0  0  0  0  0  0  0  0  0
  196.5970  174.4600  138.9920 N   0  0  0  0  0  0  0  0  0  0  0  0
  197.6370  175.2620  140.8270 C   0  0  0  0  0  2  0  0  0  0  0  0
  198.6030  173.6370  137.9270 C   0  0  0  0  0  2  0  0  0  0  0  0
  199.1320  173.9140  135.6670 C   0  0  0  0  0  1  0  0  0  0  0  0
  198.4880  173.0230  136.6160 N   0  0  0  0  0  2  0  0  0  0  0  0
  1  8  1  0  0  0  0
  1  5  1  0  0  0  0
  1  7  1  0  0  0  0
  2  4  1  0  0  0  0
  3  6  1  0  0  0  0
  4 14  1  0  0  0  0
  5  2  1  0  0  0  0
  6 43  1  0  0  0  0
  6  4  1  0  0  0  0
  8  5  1  0  0  0  0
  8  7  1  0  0  0  0
  9  3  2  0  0  0  0
  9  5  1  0  0  0  0
 10 13  1  0  0  0  0
 11 10  1  0  0  0  0
 11 17  1  0  0  0  0
 12 10  1  0  0  0  0
 13 16  1  0  0  0  0
 13 18  1  0  0  0  0
 14 12  1  0  0  0  0
 14 11  1  0  0  0  0
 14 10  1  0  0  0  0
 15 16  1  0  0  0  0
 15 23  1  0  0  0  0
 17 15  2  0  0  0  0
 18 19  1  0  0  0  0
 19 22  1  0  0  0  0
 20 18  1  0  0  0  0
 20 21  1  0  0  0  0
 21 22  1  0  0  0  0
 23 25  1  0  0  0  0
 24 23  1  0  0  0  0
 26 28  1  0  0  0  0
 26  7  1  0  0  0  0
 27 34  1  0  0  0  0
 27 28  1  0  0  0  0
 28 30  1  0  0  0  0
 30 33  1  0  0  0  0
 31 29  1  0  0  0  0
 32 30  1  0  0  0  0
 32 33  1  0  0  0  0
 33 29  1  0  0  0  0
 33 41  1  0  0  0  0
 34 32  1  0  0  0  0
 34 31  1  0  0  0  0
 35 36  2  0  0  0  0
 36 40  1  0  0  0  0
 37 36  1  0  0  0  0
 38 37  2  0  0  0  0
 39 42  2  0  0  0  0
 41 35  1  0  0  0  0
 42 41  1  0  0  0  0
 42 38  1  0  0  0  0
 44 43  1  0  0  0  0
 45 48  1  0  0  0  0
 45 44  1  0  0  0  0
 46 48  2  0  0  0  0
 47 52  1  0  0  0  0
 48 47  1  0  0  0  0
 49 51  1  0  0  0  0
 49 53  1  0  0  0  0
 50 52  1  0  0  0  0
 50 49  1  0  0  0  0
 51 53  1  0  0  0  0
 52 49  1  0  0  0  0
 54 50  1  0  0  0  0
 55 56  1  0  0  0  0
 56 54  1  0  0  0  0
M  END
>  <MODEL>
2

>  <REMARK>
 VINA RESULT:      -7.3      1.891      2.351
  Name = 
  13 active torsions:
  status: ('A' for Active; 'I' for Inactive)
    1  A    between atoms: C_4  and  C_25
    2  A    between atoms: N_6  and  C_13
    3  A    between atoms: N_7  and  C_8
    4  A    between atoms: C_8  and  C_53
    5  A    between atoms: C_19  and  C_27
    6  A    between atoms: C_26  and  C_45
    7  A    between atoms: C_35  and  N_43
    8  A    between atoms: N_36  and  N_38
    9  A    between atoms: C_37  and  C_42
   10  A    between atoms: C_37  and  C_51
   11  A    between atoms: C_42  and  C_52
   12  A    between atoms: C_45  and  N_47
   13  A    between atoms: C_48  and  C_52
                            x       y       z     vdW  Elec       q    Type
                         _______ _______ _______ _____ _____    ______ ____

>  <TORSDO>
F 13

$$$$
=
 OpenBabel10232412193D

 56 68  0  0  1  0  0  0  0  0999 V2000
  190.3960  176.2410  138.2930 C   0  0  2  0  0  3  0  0  0  0  0  0
  189.1820  176.5150  140.5870 C   0  0  0  0  0  2  0  0  0  0  0  0
  187.2540  178.1750  139.1090 C   0  0  0  0  0  3  0  0  0  0  0  0
  188.1710  177.4160  141.3500 C   0  0  2  0  0  3  0  0  0  0  0  0
  189.3050  176.8860  139.1140 C   0  0  1  0  0  0  0  0  0  0  0  0
  187.5750  178.5860  140.5310 C   0  0  2  0  0  3  0  0  0  0  0  0
  191.7400  176.7280  138.7990 C   0  0  2  0  0  3  0  0  0  0  0  0
  190.5540  177.6690  138.7860 C   0  0  1  0  0  3  0  0  0  0  0  0
  188.0830  177.3870  138.4210 C   0  0  0  0  0  3  0  0  0  0  0  0
  190.0450  177.4350  143.2680 C   0  0  2  0  0  0  0  0  0  0  0  0
  188.8130  176.5740  143.4570 C   0  0  2  0  0  3  0  0  0  0  0  0
  189.8810  178.6580  142.4910 N   0  0  0  0  0  2  0  0  0  0  0  0
  190.6200  177.9240  144.6270 C   0  0  1  0  0  3  0  0  0  0  0  0
  188.6610  177.8850  142.7360 C   0  0  2  0  0  0  0  0  0  0  0  0
  188.4410  177.4100  145.7820 C   0  0  0  0  0  0  0  0  0  0  0  0
  189.6410  178.1530  145.6810 N   0  0  0  0  0  2  0  0  0  0  0  0
  188.0550  176.6530  144.7580 C   0  0  0  0  0  3  0  0  0  0  0  0
  191.7590  177.1350  145.1310 N   0  0  0  0  0  0  0  0  0  0  0  0
  191.7290  175.8220  144.4990 C   0  0  0  0  0  2  0  0  0  0  0  0
  191.6750  176.9230  146.5700 C   0  0  0  0  0  2  0  0  0  0  0  0
  192.1350  175.5130  146.8450 C   0  0  0  0  0  2  0  0  0  0  0  0
  191.8590  174.7640  145.5730 C   0  0  0  0  0  2  0  0  0  0  0  0
  187.6470  177.4730  147.0480 C   0  0  0  0  0  3  0  0  0  0  0  0
  186.4890  178.4450  146.9210 C   0  0  0  0  0  1  0  0  0  0  0  0
  188.5000  177.8300  148.2570 C   0  0  0  0  0  1  0  0  0  0  0  0
  192.6570  177.0300  137.6300 C   0  0  0  0  0  2  0  0  0  0  0  0
  192.6000  174.6920  137.8490 C   0  0  0  0  0  2  0  0  0  0  0  0
  193.1410  175.7880  137.0500 N   0  0  0  0  0  0  0  0  0  0  0  0
  194.4850  173.7050  135.7050 O   0  0  0  0  0  0  0  0  0  0  0  0
  194.5940  175.7560  137.2400 C   0  0  1  0  0  3  0  0  0  0  0  0
  193.7600  172.9120  136.6190 C   0  0  0  0  0  2  0  0  0  0  0  0
  194.9430  174.4500  137.9510 C   0  0  2  0  0  3  0  0  0  0  0  0
  195.2550  174.5960  136.4840 C   0  0  1  0  0  0  0  0  0  0  0  0
  193.6880  173.6450  137.9450 C   0  0  1  0  0  3  0  0  0  0  0  0
  197.5650  174.0790  137.0370 C   0  0  0  0  0  3  0  0  0  0  0  0
  198.9340  174.1570  136.7950 C   0  0  0  0  0  0  0  0  0  0  0  0
  199.3840  174.8530  135.7200 N   0  0  0  0  0  0  0  0  0  0  0  0
  198.5230  175.4780  134.8790 C   0  0  0  0  0  3  0  0  0  0  0  0
  196.3580  176.0090  134.3480 O   0  0  0  0  0  0  0  0  0  0  0  0
  200.0640  173.3720  137.8760 Cl  0  0  0  0  0  0  0  0  0  0  0  0
  196.6860  174.6830  136.1870 N   0  0  0  0  0  0  0  0  0  0  0  0
  197.1510  175.3990  135.1140 C   0  0  0  0  0  0  0  0  0  0  0  0
  186.3270  179.1290  141.2270 C   0  0  0  0  0  2  0  0  0  0  0  0
  185.6050  178.0550  142.0220 C   0  0  0  0  0  2  0  0  0  0  0  0
  184.8610  178.6920  143.1800 C   0  0  0  0  0  2  0  0  0  0  0  0
  182.5950  179.0770  143.7860 O   0  0  0  0  0  0  0  0  0  0  0  0
  182.9550  178.5920  141.5300 N   0  0  0  0  0  2  0  0  0  0  0  0
  183.4110  178.7980  142.8670 C   0  0  0  0  0  0  0  0  0  0  0  0
  181.3560  177.8940  139.9980 C   0  0  2  0  0  0  0  0  0  0  0  0
  181.5410  179.3900  139.9380 C   0  0  2  0  0  3  0  0  0  0  0  0
  179.9890  177.7270  139.6100 O   0  0  0  0  0  0  0  0  0  0  0  0
  181.5980  178.7240  141.2130 N   0  0  0  0  0  0  0  0  0  0  0  0
  180.4110  176.8990  140.6200 C   0  0  0  0  0  2  0  0  0  0  0  0
  180.2940  180.2850  139.9100 C   0  0  0  0  0  2  0  0  0  0  0  0
  181.8660  181.3140  138.5200 C   0  0  0  0  0  1  0  0  0  0  0  0
  180.4850  181.3720  138.9660 N   0  0  0  0  0  2  0  0  0  0  0  0
  1  8  1  0  0  0  0
  1  7  1  0  0  0  0
  1  5  1  0  0  0  0
  2  4  1  0  0  0  0
  3  6  1  0  0  0  0
  4 14  1  0  0  0  0
  5  2  1  0  0  0  0
  6 43  1  0  0  0  0
  6  4  1  0  0  0  0
  8  7  1  0  0  0  0
  8  5  1  0  0  0  0
  9  3  2  0  0  0  0
  9  5  1  0  0  0  0
 10 11  1  0  0  0  0
 10 13  1  0  0  0  0
 11 17  1  0  0  0  0
 12 14  1  0  0  0  0
 12 10  1  0  0  0  0
 13 18  1  0  0  0  0
 13 16  1  0  0  0  0
 14 10  1  0  0  0  0
 14 11  1  0  0  0  0
 15 23  1  0  0  0  0
 16 15  1  0  0  0  0
 17 15  2  0  0  0  0
 18 20  1  0  0  0  0
 19 18  1  0  0  0  0
 19 22  1  0  0  0  0
 20 21  1  0  0  0  0
 22 21  1  0  0  0  0
 23 25  1  0  0  0  0
 24 23  1  0  0  0  0
 26  7  1  0  0  0  0
 27 34  1  0  0  0  0
 28 30  1  0  0  0  0
 28 26  1  0  0  0  0
 28 27  1  0  0  0  0
 29 33  1  0  0  0  0
 29 31  1  0  0  0  0
 30 32  1  0  0  0  0
 31 34  1  0  0  0  0
 33 30  1  0  0  0  0
 33 32  1  0  0  0  0
 34 32  1  0  0  0  0
 36 35  2  0  0  0  0
 36 40  1  0  0  0  0
 37 36  1  0  0  0  0
 38 42  1  0  0  0  0
 38 37  2  0  0  0  0
 39 42  2  0  0  0  0
 41 33  1  0  0  0  0
 41 35  1  0  0  0  0
 42 41  1  0  0  0  0
 43 44  1  0  0  0  0
 44 45  1  0  0  0  0
 47 48  1  0  0  0  0
 48 45  1  0  0  0  0
 48 46  2  0  0  0  0
 49 53  1  0  0  0  0
 49 52  1  0  0  0  0
 50 49  1  0  0  0  0
 50 52  1  0  0  0  0
 51 49  1  0  0  0  0
 51 53  1  0  0  0  0
 52 47  1  0  0  0  0
 54 50  1  0  0  0  0
 55 56  1  0  0  0  0
 56 54  1  0  0  0  0
M  END
>  <MODEL>
3

>  <REMARK>
 VINA RESULT:      -7.0      3.723     11.488
  Name = 
  13 active torsions:
  status: ('A' for Active; 'I' for Inactive)
    1  A    between atoms: C_4  and  C_25
    2  A    between atoms: N_6  and  C_13
    3  A    between atoms: N_7  and  C_8
    4  A    between atoms: C_8  and  C_53
    5  A    between atoms: C_19  and  C_27
    6  A    between atoms: C_26  and  C_45
    7  A    between atoms: C_35  and  N_43
    8  A    between atoms: N_36  and  N_38
    9  A    between atoms: C_37  and  C_42
   10  A    between atoms: C_37  and  C_51
   11  A    between atoms: C_42  and  C_52
   12  A    between atoms: C_45  and  N_47
   13  A    between atoms: C_48  and  C_52
                            x       y       z     vdW  Elec       q    Type
                         _______ _______ _______ _____ _____    ______ ____

>  <TORSDO>
F 13

$$$$
=
 OpenBabel10232412193D

 56 68  0  0  1  0  0  0  0  0999 V2000
  181.8350  177.8140  140.2720 C   0  0  2  0  0  3  0  0  0  0  0  0
  184.1300  177.6870  141.5080 C   0  0  0  0  0  2  0  0  0  0  0  0
  182.8260  179.2770  143.6130 C   0  0  0  0  0  3  0  0  0  0  0  0
  184.9780  178.3770  142.6150 C   0  0  2  0  0  3  0  0  0  0  0  0
  182.7110  178.2350  141.4290 C   0  0  1  0  0  0  0  0  0  0  0  0
  184.2890  179.5580  143.3390 C   0  0  2  0  0  3  0  0  0  0  0  0
  182.4100  178.3880  138.9920 C   0  0  2  0  0  3  0  0  0  0  0  0
  182.4880  179.1850  140.2760 C   0  0  1  0  0  3  0  0  0  0  0  0
  182.0630  178.6700  142.7000 C   0  0  0  0  0  3  0  0  0  0  0  0
  186.9480  178.2830  140.7980 C   0  0  2  0  0  0  0  0  0  0  0  0
  187.0240  177.3730  142.0070 C   0  0  2  0  0  3  0  0  0  0  0  0
  186.2750  179.5640  140.9790 N   0  0  0  0  0  2  0  0  0  0  0  0
  188.3620  178.6690  140.2790 C   0  0  1  0  0  3  0  0  0  0  0  0
  186.4130  178.7370  142.1800 C   0  0  2  0  0  0  0  0  0  0  0  0
  189.3980  177.9920  142.4730 C   0  0  0  0  0  0  0  0  0  0  0  0
  189.4000  178.7760  141.2950 N   0  0  0  0  0  2  0  0  0  0  0  0
  188.3020  177.3160  142.8040 C   0  0  0  0  0  3  0  0  0  0  0  0
  188.8320  177.8730  139.1300 N   0  0  0  0  0  0  0  0  0  0  0  0
  189.5460  178.7550  138.2150 C   0  0  0  0  0  2  0  0  0  0  0  0
  187.7230  177.2870  138.3890 C   0  0  0  0  0  2  0  0  0  0  0  0
  188.0670  177.3740  136.9220 C   0  0  0  0  0  2  0  0  0  0  0  0
  189.0080  178.5400  136.8170 C   0  0  0  0  0  2  0  0  0  0  0  0
  190.6400  177.9220  143.3050 C   0  0  0  0  0  3  0  0  0  0  0  0
  190.8720  179.2190  144.0550 C   0  0  0  0  0  1  0  0  0  0  0  0
  191.8720  177.5610  142.4880 C   0  0  0  0  0  1  0  0  0  0  0  0
  181.2940  178.9220  138.1160 C   0  0  0  0  0  2  0  0  0  0  0  0
  179.9830  177.8120  136.5130 C   0  0  0  0  0  2  0  0  0  0  0  0
  181.3350  178.2740  136.8160 N   0  0  0  0  0  0  0  0  0  0  0  0
  181.9660  176.9590  134.4010 O   0  0  0  0  0  0  0  0  0  0  0  0
  182.1580  177.0690  136.9550 C   0  0  1  0  0  3  0  0  0  0  0  0
  180.5760  176.7180  134.3970 C   0  0  0  0  0  2  0  0  0  0  0  0
  181.3350  175.8810  136.4620 C   0  0  2  0  0  3  0  0  0  0  0  0
  182.4570  176.4070  135.6040 C   0  0  1  0  0  0  0  0  0  0  0  0
  180.1240  176.4730  135.8240 C   0  0  1  0  0  3  0  0  0  0  0  0
  183.4390  174.1990  135.8690 C   0  0  0  0  0  3  0  0  0  0  0  0
  184.5130  173.3150  135.8080 C   0  0  0  0  0  0  0  0  0  0  0  0
  185.7280  173.7690  135.4060 N   0  0  0  0  0  0  0  0  0  0  0  0
  185.9140  175.0690  135.0660 C   0  0  0  0  0  3  0  0  0  0  0  0
  185.0270  177.1690  134.8350 O   0  0  0  0  0  0  0  0  0  0  0  0
  184.3000  171.6380  136.2560 Cl  0  0  0  0  0  0  0  0  0  0  0  0
  183.6050  175.5040  135.5080 N   0  0  0  0  0  0  0  0  0  0  0  0
  184.8400  175.9560  135.1210 C   0  0  0  0  0  0  0  0  0  0  0  0
  185.0260  179.8750  144.6410 C   0  0  0  0  0  2  0  0  0  0  0  0
  184.7270  178.8560  145.7260 C   0  0  0  0  0  2  0  0  0  0  0  0
  185.5850  177.6220  145.5160 C   0  0  0  0  0  2  0  0  0  0  0  0
  186.2560  177.8290  147.7870 O   0  0  0  0  0  0  0  0  0  0  0  0
  187.8780  176.9690  146.3430 N   0  0  0  0  0  2  0  0  0  0  0  0
  186.5760  177.4880  146.6160 C   0  0  0  0  0  0  0  0  0  0  0  0
  189.4850  178.1200  147.5610 C   0  0  2  0  0  0  0  0  0  0  0  0
  190.1080  176.9890  146.7830 C   0  0  2  0  0  3  0  0  0  0  0  0
  190.3430  178.2330  148.7000 O   0  0  0  0  0  0  0  0  0  0  0  0
  188.8090  176.8040  147.3740 N   0  0  0  0  0  0  0  0  0  0  0  0
  189.0050  178.3940  148.9630 C   0  0  0  0  0  2  0  0  0  0  0  0
  191.1070  176.0660  147.4970 C   0  0  0  0  0  2  0  0  0  0  0  0
  191.9580  175.4670  145.4040 C   0  0  0  0  0  1  0  0  0  0  0  0
  192.3280  175.9620  146.7200 N   0  0  0  0  0  2  0  0  0  0  0  0
  1  8  1  0  0  0  0
  1  5  1  0  0  0  0
  2  4  1  0  0  0  0
  4  6  1  0  0  0  0
  5  2  1  0  0  0  0
  5  9  1  0  0  0  0
  6  3  1  0  0  0  0
  6 43  1  0  0  0  0
  7  1  1  0  0  0  0
  7  8  1  0  0  0  0
  8  5  1  0  0  0  0
  9  3  2  0  0  0  0
 10 12  1  0  0  0  0
 10 11  1  0  0  0  0
 10 14  1  0  0  0  0
 11 14  1  0  0  0  0
 11 17  1  0  0  0  0
 12 14  1  0  0  0  0
 13 10  1  0  0  0  0
 13 16  1  0  0  0  0
 14  4  1  0  0  0  0
 15 17  2  0  0  0  0
 15 23  1  0  0  0  0
 16 15  1  0  0  0  0
 18 13  1  0  0  0  0
 19 18  1  0  0  0  0
 20 18  1  0  0  0  0
 21 20  1  0  0  0  0
 22 21  1  0  0  0  0
 22 19  1  0  0  0  0
 23 24  1  0  0  0  0
 25 23  1  0  0  0  0
 26  7  1  0  0  0  0
 27 28  1  0  0  0  0
 28 30  1  0  0  0  0
 28 26  1  0  0  0  0
 29 33  1  0  0  0  0
 31 29  1  0  0  0  0
 31 34  1  0  0  0  0
 32 30  1  0  0  0  0
 33 32  1  0  0  0  0
 33 30  1  0  0  0  0
 34 32  1  0  0  0  0
 34 27  1  0  0  0  0
 36 35  2  0  0  0  0
 36 40  1  0  0  0  0
 37 36  1  0  0  0  0
 38 42  1  0  0  0  0
 38 37  2  0  0  0  0
 39 42  2  0  0  0  0
 41 33  1  0  0  0  0
 41 35  1  0  0  0  0
 42 41  1  0  0  0  0
 43 44  1  0  0  0  0
 45 44  1  0  0  0  0
 45 48  1  0  0  0  0
 47 48  1  0  0  0  0
 47 52  1  0  0  0  0
 48 46  2  0  0  0  0
 49 51  1  0  0  0  0
 49 53  1  0  0  0  0
 50 52  1  0  0  0  0
 50 54  1  0  0  0  0
 50 49  1  0  0  0  0
 51 53  1  0  0  0  0
 52 49  1  0  0  0  0
 55 56  1  0  0  0  0
 56 54  1  0  0  0  0
M  END
>  <MODEL>
4

>  <REMARK>
 VINA RESULT:      -6.9      4.481      7.808
  Name = 
  13 active torsions:
  status: ('A' for Active; 'I' for Inactive)
    1  A    between atoms: C_4  and  C_25
    2  A    between atoms: N_6  and  C_13
    3  A    between atoms: N_7  and  C_8
    4  A    between atoms: C_8  and  C_53
    5  A    between atoms: C_19  and  C_27
    6  A    between atoms: C_26  and  C_45
    7  A    between atoms: C_35  and  N_43
    8  A    between atoms: N_36  and  N_38
    9  A    between atoms: C_37  and  C_42
   10  A    between atoms: C_37  and  C_51
   11  A    between atoms: C_42  and  C_52
   12  A    between atoms: C_45  and  N_47
   13  A    between atoms: C_48  and  C_52
                            x       y       z     vdW  Elec       q    Type
                         _______ _______ _______ _____ _____    ______ ____

>  <TORSDO>
F 13

$$$$
=
 OpenBabel10232412193D

 56 68  0  0  1  0  0  0  0  0999 V2000
  186.9850  178.5290  136.7860 C   0  0  2  0  0  3  0  0  0  0  0  0
  188.4600  178.4570  138.9380 C   0  0  0  0  0  2  0  0  0  0  0  0
  190.5300  177.2880  137.2040 C   0  0  0  0  0  3  0  0  0  0  0  0
  189.7110  177.7710  139.5570 C   0  0  2  0  0  3  0  0  0  0  0  0
  188.2660  178.1090  137.4680 C   0  0  1  0  0  0  0  0  0  0  0  0
  190.4500  176.7790  138.6290 C   0  0  2  0  0  3  0  0  0  0  0  0
  185.8330  177.7530  137.3940 C   0  0  2  0  0  3  0  0  0  0  0  0
  187.1810  177.0870  137.2210 C   0  0  1  0  0  3  0  0  0  0  0  0
  189.4880  177.9010  136.6380 C   0  0  0  0  0  3  0  0  0  0  0  0
  188.4910  177.8490  141.9440 C   0  0  2  0  0  0  0  0  0  0  0  0
  189.9350  178.2940  141.8460 C   0  0  2  0  0  3  0  0  0  0  0  0
  188.0550  176.8150  141.0110 N   0  0  0  0  0  2  0  0  0  0  0  0
  188.1640  177.2560  143.3440 C   0  0  1  0  0  3  0  0  0  0  0  0
  189.4750  177.1700  140.9580 C   0  0  2  0  0  0  0  0  0  0  0  0
  190.6160  176.9220  143.8200 C   0  0  0  0  0  0  0  0  0  0  0  0
  189.2600  176.5610  144.0060 N   0  0  0  0  0  2  0  0  0  0  0  0
  190.9400  177.7470  142.8280 C   0  0  0  0  0  3  0  0  0  0  0  0
  187.5030  178.1940  144.2680 N   0  0  0  0  0  0  0  0  0  0  0  0
  187.8760  177.8410  145.6330 C   0  0  0  0  0  2  0  0  0  0  0  0
  186.0520  178.1070  144.1810 C   0  0  0  0  0  2  0  0  0  0  0  0
  185.5080  178.2360  145.5830 C   0  0  0  0  0  2  0  0  0  0  0  0
  186.6190  177.7540  146.4710 C   0  0  0  0  0  2  0  0  0  0  0  0
  191.6500  176.3880  144.7600 C   0  0  0  0  0  3  0  0  0  0  0  0
  192.0030  174.9510  144.4270 C   0  0  0  0  0  1  0  0  0  0  0  0
  191.2280  176.4990  146.2180 C   0  0  0  0  0  1  0  0  0  0  0  0
  184.8840  177.2950  136.3040 C   0  0  0  0  0  2  0  0  0  0  0  0
  183.7650  176.9690  138.3430 C   0  0  0  0  0  2  0  0  0  0  0  0
  183.6510  176.8050  136.8970 N   0  0  0  0  0  0  0  0  0  0  0  0
  181.2070  175.5650  137.5650 O   0  0  0  0  0  0  0  0  0  0  0  0
  183.5940  175.3610  136.6520 C   0  0  1  0  0  3  0  0  0  0  0  0
  181.6100  175.9200  138.8700 C   0  0  0  0  0  2  0  0  0  0  0  0
  183.4000  174.6660  137.9980 C   0  0  2  0  0  3  0  0  0  0  0  0
  182.2390  174.7570  137.0420 C   0  0  1  0  0  0  0  0  0  0  0  0
  183.1140  175.7580  138.9720 C   0  0  1  0  0  3  0  0  0  0  0  0
  182.6720  172.3990  136.6380 C   0  0  0  0  0  2  0  0  0  0  0  0
  182.3450  171.1670  136.0780 C   0  0  0  0  0  0  0  0  0  0  0  0
  181.2170  171.0500  135.3330 N   0  0  0  0  0  0  0  0  0  0  0  0
  180.4030  172.1150  135.1220 C   0  0  0  0  0  2  0  0  0  0  0  0
  179.9820  174.3420  135.4580 O   0  0  0  0  0  0  0  0  0  0  0  0
  183.3880  169.7830  136.3250 Cl  0  0  0  0  0  0  0  0  0  0  0  0
  181.8520  173.4730  136.4540 N   0  0  0  0  0  0  0  0  0  0  0  0
  180.7250  173.3500  135.6840 C   0  0  0  0  0  0  0  0  0  0  0  0
  191.8500  176.4950  139.1750 C   0  0  0  0  0  2  0  0  0  0  0  0
  192.8950  176.4640  138.0740 C   0  0  0  0  0  2  0  0  0  0  0  0
  193.1710  175.0270  137.6740 C   0  0  0  0  0  2  0  0  0  0  0  0
  195.2240  175.1500  138.8650 O   0  0  0  0  0  0  0  0  0  0  0  0
  195.2880  173.8950  136.8960 N   0  0  0  0  0  2  0  0  0  0  0  0
  194.6110  174.7070  137.8560 C   0  0  0  0  0  0  0  0  0  0  0  0
  197.2560  173.5380  135.7180 C   0  0  2  0  0  0  0  0  0  0  0  0
  196.8200  172.2820  136.4300 C   0  0  2  0  0  3  0  0  0  0  0  0
  198.6800  173.4040  135.6790 O   0  0  0  0  0  0  0  0  0  0  0  0
  196.6340  173.5560  137.0730 N   0  0  0  0  0  0  0  0  0  0  0  0
  198.2240  174.6740  135.9270 C   0  0  0  0  0  2  0  0  0  0  0  0
  197.8660  171.4830  137.2210 C   0  0  0  0  0  2  0  0  0  0  0  0
  196.5230  169.9140  136.1260 C   0  0  0  0  0  1  0  0  0  0  0  0
  197.6700  170.0610  137.0060 N   0  0  0  0  0  2  0  0  0  0  0  0
  1  8  1  0  0  0  0
  1  7  1  0  0  0  0
  1  5  1  0  0  0  0
  2  4  1  0  0  0  0
  3  6  1  0  0  0  0
  4 14  1  0  0  0  0
  5  2  1  0  0  0  0
  6 43  1  0  0  0  0
  6  4  1  0  0  0  0
  8  7  1  0  0  0  0
  8  5  1  0  0  0  0
  9  3  2  0  0  0  0
  9  5  1  0  0  0  0
 10 13  1  0  0  0  0
 11 10  1  0  0  0  0
 11 17  1  0  0  0  0
 12 10  1  0  0  0  0
 13 16  1  0  0  0  0
 13 18  1  0  0  0  0
 14 12  1  0  0  0  0
 14 11  1  0  0  0  0
 14 10  1  0  0  0  0
 15 16  1  0  0  0  0
 15 23  1  0  0  0  0
 17 15  2  0  0  0  0
 18 19  1  0  0  0  0
 19 22  1  0  0  0  0
 20 18  1  0  0  0  0
 20 21  1  0  0  0  0
 21 22  1  0  0  0  0
 23 25  1  0  0  0  0
 24 23  1  0  0  0  0
 26 28  1  0  0  0  0
 26  7  1  0  0  0  0
 27 34  1  0  0  0  0
 28 27  1  0  0  0  0
 29 31  1  0  0  0  0
 30 28  1  0  0  0  0
 30 33  1  0  0  0  0
 30 32  1  0  0  0  0
 31 34  1  0  0  0  0
 32 34  1  0  0  0  0
 33 29  1  0  0  0  0
 33 32  1  0  0  0  0
 36 40  1  0  0  0  0
 36 35  1  0  0  0  0
 37 36  2  0  0  0  0
 38 37  1  0  0  0  0
 38 42  1  0  0  0  0
 39 42  2  0  0  0  0
 41 35  1  0  0  0  0
 41 33  1  0  0  0  0
 42 41  1  0  0  0  0
 44 43  1  0  0  0  0
 45 48  1  0  0  0  0
 45 44  1  0  0  0  0
 47 52  1  0  0  0  0
 47 48  1  0  0  0  0
 48 46  2  0  0  0  0
 49 53  1  0  0  0  0
 49 50  1  0  0  0  0
 49 52  1  0  0  0  0
 50 52  1  0  0  0  0
 50 54  1  0  0  0  0
 51 49  1  0  0  0  0
 51 53  1  0  0  0  0
 55 56  1  0  0  0  0
 56 54  1  0  0  0  0
M  END
>  <MODEL>
5

>  <REMARK>
 VINA RESULT:      -6.9      2.719      3.915
  Name = 
  13 active torsions:
  status: ('A' for Active; 'I' for Inactive)
    1  A    between atoms: C_4  and  C_25
    2  A    between atoms: N_6  and  C_13
    3  A    between atoms: N_7  and  C_8
    4  A    between atoms: C_8  and  C_53
    5  A    between atoms: C_19  and  C_27
    6  A    between atoms: C_26  and  C_45
    7  A    between atoms: C_35  and  N_43
    8  A    between atoms: N_36  and  N_38
    9  A    between atoms: C_37  and  C_42
   10  A    between atoms: C_37  and  C_51
   11  A    between atoms: C_42  and  C_52
   12  A    between atoms: C_45  and  N_47
   13  A    between atoms: C_48  and  C_52
                            x       y       z     vdW  Elec       q    Type
                         _______ _______ _______ _____ _____    ______ ____

>  <TORSDO>
F 13

$$$$
=
 OpenBabel10232412193D

 56 68  0  0  1  0  0  0  0  0999 V2000
  189.8540  176.4540  139.1360 C   0  0  2  0  0  3  0  0  0  0  0  0
  187.4090  176.6200  138.2400 C   0  0  0  0  0  2  0  0  0  0  0  0
  188.6470  177.1470  135.6230 C   0  0  0  0  0  3  0  0  0  0  0  0
  186.5590  177.1800  137.0640 C   0  0  2  0  0  3  0  0  0  0  0  0
  188.9070  176.7600  138.0000 C   0  0  1  0  0  0  0  0  0  0  0  0
  187.3600  177.8800  135.9410 C   0  0  2  0  0  3  0  0  0  0  0  0
  189.6640  177.4940  140.2240 C   0  0  2  0  0  3  0  0  0  0  0  0
  189.5430  177.8940  138.7680 C   0  0  1  0  0  3  0  0  0  0  0  0
  189.4000  176.6330  136.5980 C   0  0  0  0  0  3  0  0  0  0  0  0
  184.6270  177.7170  138.8450 C   0  0  2  0  0  0  0  0  0  0  0  0
  184.2640  176.9790  137.5730 C   0  0  2  0  0  3  0  0  0  0  0  0
  185.7360  178.6620  138.7650 N   0  0  0  0  0  2  0  0  0  0  0  0
  183.4400  178.5710  139.3730 C   0  0  1  0  0  3  0  0  0  0  0  0
  185.3450  178.0230  137.5060 C   0  0  2  0  0  0  0  0  0  0  0  0
  182.3110  178.4700  137.1230 C   0  0  0  0  0  0  0  0  0  0  0  0
  182.5560  179.1220  138.3550 N   0  0  0  0  0  2  0  0  0  0  0  0
  183.0890  177.4550  136.7570 C   0  0  0  0  0  3  0  0  0  0  0  0
  182.6630  177.9390  140.4550 N   0  0  0  0  0  0  0  0  0  0  0  0
  181.7380  176.9800  139.8630 C   0  0  0  0  0  2  0  0  0  0  0  0
  181.8650  178.9130  141.1880 C   0  0  0  0  0  2  0  0  0  0  0  0
  180.5380  178.2640  141.4990 C   0  0  0  0  0  2  0  0  0  0  0  0
  180.3560  177.2300  140.4250 C   0  0  0  0  0  2  0  0  0  0  0  0
  181.1650  178.9220  136.2730 C   0  0  0  0  0  3  0  0  0  0  0  0
  181.4430  178.6750  134.8030 C   0  0  0  0  0  1  0  0  0  0  0  0
  180.8080  180.3830  136.5010 C   0  0  0  0  0  1  0  0  0  0  0  0
  191.0100  177.9240  140.7710 C   0  0  0  0  0  2  0  0  0  0  0  0
  191.8370  176.6330  142.5510 C   0  0  0  0  0  2  0  0  0  0  0  0
  191.0170  177.7950  142.2190 N   0  0  0  0  0  0  0  0  0  0  0  0
  190.5560  177.8480  145.0010 O   0  0  0  0  0  0  0  0  0  0  0  0
  189.6510  177.4640  142.6340 C   0  0  1  0  0  3  0  0  0  0  0  0
  191.4390  176.7470  144.9700 C   0  0  0  0  0  2  0  0  0  0  0  0
  189.7120  176.1890  143.4710 C   0  0  2  0  0  3  0  0  0  0  0  0
  189.4770  177.5110  144.1570 C   0  0  1  0  0  0  0  0  0  0  0  0
  191.1620  175.9420  143.7150 C   0  0  1  0  0  3  0  0  0  0  0  0
  187.1040  177.9290  143.8390 C   0  0  0  0  0  3  0  0  0  0  0  0
  185.8090  178.1000  144.3230 C   0  0  0  0  0  0  0  0  0  0  0  0
  185.5800  178.0210  145.6580 N   0  0  0  0  0  0  0  0  0  0  0  0
  186.5910  177.7810  146.5300 C   0  0  0  0  0  3  0  0  0  0  0  0
  188.8280  177.4150  146.8670 O   0  0  0  0  0  0  0  0  0  0  0  0
  184.4920  178.4250  143.2180 Cl  0  0  0  0  0  0  0  0  0  0  0  0
  188.1270  177.6650  144.7010 N   0  0  0  0  0  0  0  0  0  0  0  0
  187.8880  177.6050  146.0500 C   0  0  0  0  0  0  0  0  0  0  0  0
  186.4950  178.0130  134.6870 C   0  0  0  0  0  2  0  0  0  0  0  0
  185.6190  176.7920  134.4680 C   0  0  0  0  0  2  0  0  0  0  0  0
  186.4900  175.5550  134.3460 C   0  0  0  0  0  2  0  0  0  0  0  0
  186.2790  173.2160  134.7070 O   0  0  0  0  0  0  0  0  0  0  0  0
  184.3000  174.4370  134.9140 N   0  0  0  0  0  2  0  0  0  0  0  0
  185.7010  174.3350  134.6600 C   0  0  0  0  0  0  0  0  0  0  0  0
  182.4570  173.7560  136.1510 C   0  0  2  0  0  0  0  0  0  0  0  0
  183.7180  173.1050  136.6620 C   0  0  2  0  0  3  0  0  0  0  0  0
  181.4510  172.7870  136.4590 O   0  0  0  0  0  0  0  0  0  0  0  0
  183.5510  173.3030  135.2460 N   0  0  0  0  0  0  0  0  0  0  0  0
  181.2980  173.4170  135.2500 C   0  0  0  0  0  2  0  0  0  0  0  0
  183.7020  171.5970  136.9500 C   0  0  0  0  0  2  0  0  0  0  0  0
  183.7990  169.4990  135.9220 C   0  0  0  0  0  1  0  0  0  0  0  0
  184.2680  170.8720  135.8260 N   0  0  0  0  0  2  0  0  0  0  0  0
  1  7  1  0  0  0  0
  3  6  1  0  0  0  0
  3  9  2  0  0  0  0
  4 14  1  0  0  0  0
  4  2  1  0  0  0  0
  5  2  1  0  0  0  0
  5  8  1  0  0  0  0
  5  1  1  0  0  0  0
  6  4  1  0  0  0  0
  7 26  1  0  0  0  0
  8  1  1  0  0  0  0
  8  7  1  0  0  0  0
  9  5  1  0  0  0  0
 10 13  1  0  0  0  0
 11 10  1  0  0  0  0
 12 10  1  0  0  0  0
 13 18  1  0  0  0  0
 14 11  1  0  0  0  0
 14 12  1  0  0  0  0
 14 10  1  0  0  0  0
 15 16  1  0  0  0  0
 16 13  1  0  0  0  0
 17 15  2  0  0  0  0
 17 11  1  0  0  0  0
 18 20  1  0  0  0  0
 19 22  1  0  0  0  0
 19 18  1  0  0  0  0
 20 21  1  0  0  0  0
 22 21  1  0  0  0  0
 23 25  1  0  0  0  0
 23 15  1  0  0  0  0
 24 23  1  0  0  0  0
 26 28  1  0  0  0  0
 27 34  1  0  0  0  0
 28 27  1  0  0  0  0
 28 30  1  0  0  0  0
 30 32  1  0  0  0  0
 30 33  1  0  0  0  0
 31 29  1  0  0  0  0
 32 34  1  0  0  0  0
 32 33  1  0  0  0  0
 33 41  1  0  0  0  0
 33 29  1  0  0  0  0
 34 31  1  0  0  0  0
 35 36  2  0  0  0  0
 35 41  1  0  0  0  0
 36 37  1  0  0  0  0
 37 38  2  0  0  0  0
 40 36  1  0  0  0  0
 41 42  1  0  0  0  0
 42 38  1  0  0  0  0
 42 39  2  0  0  0  0
 43  6  1  0  0  0  0
 44 43  1  0  0  0  0
 45 44  1  0  0  0  0
 45 48  1  0  0  0  0
 47 52  1  0  0  0  0
 48 46  2  0  0  0  0
 48 47  1  0  0  0  0
 49 51  1  0  0  0  0
 49 50  1  0  0  0  0
 50 54  1  0  0  0  0
 52 49  1  0  0  0  0
 52 50  1  0  0  0  0
 53 49  1  0  0  0  0
 53 51  1  0  0  0  0
 56 55  1  0  0  0  0
 56 54  1  0  0  0  0
M  END
>  <MODEL>
6

>  <REMARK>
 VINA RESULT:      -6.9      3.987      9.521
  Name = 
  13 active torsions:
  status: ('A' for Active; 'I' for Inactive)
    1  A    between atoms: C_4  and  C_25
    2  A    between atoms: N_6  and  C_13
    3  A    between atoms: N_7  and  C_8
    4  A    between atoms: C_8  and  C_53
    5  A    between atoms: C_19  and  C_27
    6  A    between atoms: C_26  and  C_45
    7  A    between atoms: C_35  and  N_43
    8  A    between atoms: N_36  and  N_38
    9  A    between atoms: C_37  and  C_42
   10  A    between atoms: C_37  and  C_51
   11  A    between atoms: C_42  and  C_52
   12  A    between atoms: C_45  and  N_47
   13  A    between atoms: C_48  and  C_52
                            x       y       z     vdW  Elec       q    Type
                         _______ _______ _______ _____ _____    ______ ____

>  <TORSDO>
F 13

$$$$
=
 OpenBabel10232412193D

 56 68  0  0  1  0  0  0  0  0999 V2000
  190.2050  176.3120  143.9400 C   0  0  2  0  0  3  0  0  0  0  0  0
  189.8540  176.2990  141.3540 C   0  0  0  0  0  2  0  0  0  0  0  0
  192.7300  176.9030  141.1920 C   0  0  0  0  0  3  0  0  0  0  0  0
  190.4820  176.7920  140.0200 C   0  0  2  0  0  3  0  0  0  0  0  0
  190.7590  176.5450  142.5550 C   0  0  1  0  0  0  0  0  0  0  0  0
  191.8280  177.5430  140.1560 C   0  0  2  0  0  3  0  0  0  0  0  0
  189.1230  177.3400  144.2120 C   0  0  2  0  0  3  0  0  0  0  0  0
  190.3420  177.7250  143.4010 C   0  0  1  0  0  3  0  0  0  0  0  0
  192.2330  176.4480  142.3440 C   0  0  0  0  0  3  0  0  0  0  0  0
  187.9850  177.5680  139.4230 C   0  0  2  0  0  0  0  0  0  0  0  0
  188.6060  176.4320  138.6360 C   0  0  2  0  0  3  0  0  0  0  0  0
  188.8930  178.5910  139.9300 N   0  0  0  0  0  2  0  0  0  0  0  0
  186.9570  178.3640  138.5700 C   0  0  1  0  0  3  0  0  0  0  0  0
  189.5010  177.5480  139.1010 C   0  0  2  0  0  0  0  0  0  0  0  0
  187.9250  177.4190  136.4450 C   0  0  0  0  0  0  0  0  0  0  0  0
  187.2470  178.4450  137.1450 N   0  0  0  0  0  2  0  0  0  0  0  0
  188.5450  176.4620  137.1300 C   0  0  0  0  0  3  0  0  0  0  0  0
  185.5500  177.9890  138.7990 N   0  0  0  0  0  0  0  0  0  0  0  0
  185.1190  177.1170  137.7120 C   0  0  0  0  0  2  0  0  0  0  0  0
  184.6720  179.1520  138.7910 C   0  0  0  0  0  2  0  0  0  0  0  0
  183.4010  178.7520  138.0820 C   0  0  0  0  0  2  0  0  0  0  0  0
  183.8090  177.6360  137.1630 C   0  0  0  0  0  2  0  0  0  0  0  0
  187.9060  177.4210  134.9480 C   0  0  0  0  0  3  0  0  0  0  0  0
  189.3100  177.5100  134.3820 C   0  0  0  0  0  1  0  0  0  0  0  0
  187.0380  178.5320  134.3760 C   0  0  0  0  0  1  0  0  0  0  0  0
  189.2530  177.8680  145.6270 C   0  0  0  0  0  2  0  0  0  0  0  0
  187.6930  178.1000  147.3680 C   0  0  0  0  0  2  0  0  0  0  0  0
  188.0250  178.5410  146.0160 N   0  0  0  0  0  0  0  0  0  0  0  0
  185.5650  179.9070  146.2150 O   0  0  0  0  0  0  0  0  0  0  0  0
  186.9580  178.0380  145.1470 C   0  0  1  0  0  3  0  0  0  0  0  0
  185.5800  179.3410  147.5070 C   0  0  0  0  0  2  0  0  0  0  0  0
  185.8330  177.5190  146.0390 C   0  0  2  0  0  3  0  0  0  0  0  0
  185.6520  178.8260  145.3120 C   0  0  1  0  0  0  0  0  0  0  0  0
  186.1880  177.9550  147.4210 C   0  0  1  0  0  3  0  0  0  0  0  0
  183.3400  178.8110  144.5600 C   0  0  0  0  0  3  0  0  0  0  0  0
  182.3720  178.7430  143.5610 C   0  0  0  0  0  0  0  0  0  0  0  0
  182.7570  178.6190  142.2660 N   0  0  0  0  0  0  0  0  0  0  0  0
  184.0690  178.5570  141.9270 C   0  0  0  0  0  3  0  0  0  0  0  0
  186.2580  178.5380  142.6060 O   0  0  0  0  0  0  0  0  0  0  0  0
  180.6730  178.8060  143.9760 Cl  0  0  0  0  0  0  0  0  0  0  0  0
  184.6630  178.7720  144.2330 N   0  0  0  0  0  0  0  0  0  0  0  0
  185.0420  178.6290  142.9240 C   0  0  0  0  0  0  0  0  0  0  0  0
  192.5300  177.6090  138.8000 C   0  0  0  0  0  2  0  0  0  0  0  0
  192.6430  176.2400  138.1520 C   0  0  0  0  0  2  0  0  0  0  0  0
  192.9260  176.4010  136.6690 C   0  0  0  0  0  2  0  0  0  0  0  0
  194.9610  177.0440  135.6240 O   0  0  0  0  0  0  0  0  0  0  0  0
  195.1050  175.1800  137.0240 N   0  0  0  0  0  2  0  0  0  0  0  0
  194.3790  176.2380  136.4000 C   0  0  0  0  0  0  0  0  0  0  0  0
  196.7260  173.5910  136.5380 C   0  0  2  0  0  0  0  0  0  0  0  0
  196.9790  174.2220  137.8850 C   0  0  2  0  0  3  0  0  0  0  0  0
  198.0430  173.2460  136.0970 O   0  0  0  0  0  0  0  0  0  0  0  0
  196.4800  175.0360  136.8080 N   0  0  0  0  0  0  0  0  0  0  0  0
  197.2110  173.7310  135.1190 C   0  0  0  0  0  2  0  0  0  0  0  0
  198.4030  174.6820  138.2260 C   0  0  0  0  0  2  0  0  0  0  0  0
  197.3860  175.2090  140.2640 C   0  0  0  0  0  1  0  0  0  0  0  0
  198.3640  175.6680  139.2920 N   0  0  0  0  0  2  0  0  0  0  0  0
  1  7  1  0  0  0  0
  2  5  1  0  0  0  0
  3  9  2  0  0  0  0
  4  6  1  0  0  0  0
  4  2  1  0  0  0  0
  5  8  1  0  0  0  0
  5  1  1  0  0  0  0
  6  3  1  0  0  0  0
  7 26  1  0  0  0  0
  8  1  1  0  0  0  0
  8  7  1  0  0  0  0
  9  5  1  0  0  0  0
 10 12  1  0  0  0  0
 11 14  1  0  0  0  0
 11 10  1  0  0  0  0
 13 18  1  0  0  0  0
 13 10  1  0  0  0  0
 14 10  1  0  0  0  0
 14 12  1  0  0  0  0
 14  4  1  0  0  0  0
 15 17  2  0  0  0  0
 15 16  1  0  0  0  0
 16 13  1  0  0  0  0
 17 11  1  0  0  0  0
 19 18  1  0  0  0  0
 20 18  1  0  0  0  0
 21 20  1  0  0  0  0
 22 19  1  0  0  0  0
 22 21  1  0  0  0  0
 23 15  1  0  0  0  0
 24 23  1  0  0  0  0
 25 23  1  0  0  0  0
 26 28  1  0  0  0  0
 27 34  1  0  0  0  0
 28 27  1  0  0  0  0
 29 31  1  0  0  0  0
 30 33  1  0  0  0  0
 30 28  1  0  0  0  0
 30 32  1  0  0  0  0
 32 34  1  0  0  0  0
 33 32  1  0  0  0  0
 33 29  1  0  0  0  0
 34 31  1  0  0  0  0
 36 40  1  0  0  0  0
 36 35  2  0  0  0  0
 37 36  1  0  0  0  0
 38 37  2  0  0  0  0
 38 42  1  0  0  0  0
 39 42  2  0  0  0  0
 41 35  1  0  0  0  0
 41 33  1  0  0  0  0
 42 41  1  0  0  0  0
 43  6  1  0  0  0  0
 44 43  1  0  0  0  0
 45 44  1  0  0  0  0
 46 48  2  0  0  0  0
 48 45  1  0  0  0  0
 48 47  1  0  0  0  0
 49 52  1  0  0  0  0
 49 50  1  0  0  0  0
 50 54  1  0  0  0  0
 51 49  1  0  0  0  0
 52 47  1  0  0  0  0
 52 50  1  0  0  0  0
 53 51  1  0  0  0  0
 53 49  1  0  0  0  0
 54 56  1  0  0  0  0
 56 55  1  0  0  0  0
M  END
>  <MODEL>
7

>  <REMARK>
 VINA RESULT:      -6.7      2.487      6.854
  Name = 
  13 active torsions:
  status: ('A' for Active; 'I' for Inactive)
    1  A    between atoms: C_4  and  C_25
    2  A    between atoms: N_6  and  C_13
    3  A    between atoms: N_7  and  C_8
    4  A    between atoms: C_8  and  C_53
    5  A    between atoms: C_19  and  C_27
    6  A    between atoms: C_26  and  C_45
    7  A    between atoms: C_35  and  N_43
    8  A    between atoms: N_36  and  N_38
    9  A    between atoms: C_37  and  C_42
   10  A    between atoms: C_37  and  C_51
   11  A    between atoms: C_42  and  C_52
   12  A    between atoms: C_45  and  N_47
   13  A    between atoms: C_48  and  C_52
                            x       y       z     vdW  Elec       q    Type
                         _______ _______ _______ _____ _____    ______ ____

>  <TORSDO>
F 13

$$$$
=
 OpenBabel10232412193D

 56 68  0  0  1  0  0  0  0  0999 V2000
  191.1490  176.6710  141.3660 C   0  0  2  0  0  3  0  0  0  0  0  0
  189.6600  176.1320  139.2910 C   0  0  0  0  0  2  0  0  0  0  0  0
  192.1550  176.3110  137.7410 C   0  0  0  0  0  3  0  0  0  0  0  0
  189.6190  176.2340  137.7400 C   0  0  2  0  0  3  0  0  0  0  0  0
  191.0150  176.5190  139.8690 C   0  0  1  0  0  0  0  0  0  0  0  0
  190.8900  176.8170  137.0790 C   0  0  2  0  0  3  0  0  0  0  0  0
  190.3240  177.8640  141.8100 C   0  0  2  0  0  3  0  0  0  0  0  0
  191.0460  177.9000  140.4800 C   0  0  1  0  0  3  0  0  0  0  0  0
  192.2300  176.1890  139.0680 C   0  0  0  0  0  3  0  0  0  0  0  0
  187.1740  177.2650  138.1350 C   0  0  2  0  0  0  0  0  0  0  0  0
  187.2950  175.8700  137.5560 C   0  0  2  0  0  3  0  0  0  0  0  0
  188.2460  178.2030  137.8200 N   0  0  0  0  0  2  0  0  0  0  0  0
  185.8870  177.9830  137.6420 C   0  0  1  0  0  3  0  0  0  0  0  0
  188.3370  176.8880  137.1830 C   0  0  2  0  0  0  0  0  0  0  0  0
  185.6610  176.3570  135.7310 C   0  0  0  0  0  0  0  0  0  0  0  0
  185.4450  177.6350  136.2980 N   0  0  0  0  0  2  0  0  0  0  0  0
  186.5070  175.5160  136.3210 C   0  0  0  0  0  3  0  0  0  0  0  0
  184.7600  177.9420  138.5910 N   0  0  0  0  0  0  0  0  0  0  0  0
  183.5160  177.8660  137.8330 C   0  0  0  0  0  2  0  0  0  0  0  0
  184.6950  179.1480  139.4060 C   0  0  0  0  0  2  0  0  0  0  0  0
  183.2380  179.5080  139.5630 C   0  0  0  0  0  2  0  0  0  0  0  0
  182.5650  178.9210  138.3550 C   0  0  0  0  0  2  0  0  0  0  0  0
  184.9130  175.9710  134.4940 C   0  0  0  0  0  3  0  0  0  0  0  0
  183.6410  176.7840  134.3470 C   0  0  0  0  0  1  0  0  0  0  0  0
  184.5940  174.4840  134.4430 C   0  0  0  0  0  1  0  0  0  0  0  0
  191.0910  178.6700  142.8390 C   0  0  0  0  0  2  0  0  0  0  0  0
  191.2160  177.0850  144.5690 C   0  0  0  0  0  2  0  0  0  0  0  0
  190.6080  178.3520  144.1730 N   0  0  0  0  0  0  0  0  0  0  0  0
  189.2460  178.0850  146.6290 O   0  0  0  0  0  0  0  0  0  0  0  0
  189.1680  178.0990  144.0660 C   0  0  1  0  0  3  0  0  0  0  0  0
  190.0380  176.9200  146.7160 C   0  0  0  0  0  2  0  0  0  0  0  0
  188.8880  176.7260  144.6710 C   0  0  2  0  0  3  0  0  0  0  0  0
  188.4970  177.9620  145.4390 C   0  0  1  0  0  0  0  0  0  0  0  0
  190.1610  176.3150  145.3310 C   0  0  1  0  0  3  0  0  0  0  0  0
  186.3230  178.2110  144.3800 C   0  0  0  0  0  3  0  0  0  0  0  0
  184.9480  178.4250  144.4300 C   0  0  0  0  0  0  0  0  0  0  0  0
  184.3450  178.6110  145.6320 N   0  0  0  0  0  0  0  0  0  0  0  0
  185.0590  178.5940  146.7850 C   0  0  0  0  0  3  0  0  0  0  0  0
  187.0980  178.3950  147.8120 O   0  0  0  0  0  0  0  0  0  0  0  0
  184.0090  178.4650  142.9540 Cl  0  0  0  0  0  0  0  0  0  0  0  0
  187.0510  178.1700  145.5330 N   0  0  0  0  0  0  0  0  0  0  0  0
  186.4350  178.3760  146.7400 C   0  0  0  0  0  0  0  0  0  0  0  0
  190.8990  176.4910  135.5850 C   0  0  0  0  0  2  0  0  0  0  0  0
  191.0000  174.9970  135.3300 C   0  0  0  0  0  2  0  0  0  0  0  0
  192.2630  174.6990  134.5430 C   0  0  0  0  0  2  0  0  0  0  0  0
  192.9050  172.9180  135.9790 O   0  0  0  0  0  0  0  0  0  0  0  0
  194.5700  174.4970  135.5440 N   0  0  0  0  0  2  0  0  0  0  0  0
  193.2460  173.9820  135.3960 C   0  0  0  0  0  0  0  0  0  0  0  0
  195.7060  174.6040  137.5650 C   0  0  2  0  0  0  0  0  0  0  0  0
  196.6670  174.6760  136.4040 C   0  0  2  0  0  3  0  0  0  0  0  0
  196.4920  173.9860  138.5890 O   0  0  0  0  0  0  0  0  0  0  0  0
  195.5170  173.8140  136.3150 N   0  0  0  0  0  0  0  0  0  0  0  0
  195.1840  173.5740  138.5340 C   0  0  0  0  0  2  0  0  0  0  0  0
  197.9300  173.8040  136.4390 C   0  0  0  0  0  2  0  0  0  0  0  0
  199.1690  175.0200  134.8740 C   0  0  0  0  0  1  0  0  0  0  0  0
  199.1100  174.6340  136.2730 N   0  0  0  0  0  2  0  0  0  0  0  0
  1  7  1  0  0  0  0
  2  5  1  0  0  0  0
  3  9  2  0  0  0  0
  4  2  1  0  0  0  0
  5  8  1  0  0  0  0
  5  1  1  0  0  0  0
  6  4  1  0  0  0  0
  6  3  1  0  0  0  0
  7 26  1  0  0  0  0
  8  1  1  0  0  0  0
  8  7  1  0  0  0  0
  9  5  1  0  0  0  0
 11 10  1  0  0  0  0
 12 10  1  0  0  0  0
 13 10  1  0  0  0  0
 13 18  1  0  0  0  0
 14 11  1  0  0  0  0
 14  4  1  0  0  0  0
 14 12  1  0  0  0  0
 14 10  1  0  0  0  0
 15 16  1  0  0  0  0
 15 17  2  0  0  0  0
 16 13  1  0  0  0  0
 17 11  1  0  0  0  0
 18 20  1  0  0  0  0
 19 22  1  0  0  0  0
 19 18  1  0  0  0  0
 20 21  1  0  0  0  0
 22 21  1  0  0  0  0
 23 15  1  0  0  0  0
 24 23  1  0  0  0  0
 25 23  1  0  0  0  0
 26 28  1  0  0  0  0
 27 34  1  0  0  0  0
 28 27  1  0  0  0  0
 29 31  1  0  0  0  0
 30 28  1  0  0  0  0
 30 32  1  0  0  0  0
 30 33  1  0  0  0  0
 32 34  1  0  0  0  0
 32 33  1  0  0  0  0
 33 41  1  0  0  0  0
 33 29  1  0  0  0  0
 34 31  1  0  0  0  0
 35 36  2  0  0  0  0
 35 41  1  0  0  0  0
 36 37  1  0  0  0  0
 37 38  2  0  0  0  0
 40 36  1  0  0  0  0
 41 42  1  0  0  0  0
 42 38  1  0  0  0  0
 42 39  2  0  0  0  0
 43  6  1  0  0  0  0
 44 43  1  0  0  0  0
 45 44  1  0  0  0  0
 45 48  1  0  0  0  0
 47 52  1  0  0  0  0
 48 47  1  0  0  0  0
 48 46  2  0  0  0  0
 49 53  1  0  0  0  0
 49 51  1  0  0  0  0
 50 54  1  0  0  0  0
 50 49  1  0  0  0  0
 52 50  1  0  0  0  0
 52 49  1  0  0  0  0
 53 51  1  0  0  0  0
 55 56  1  0  0  0  0
 56 54  1  0  0  0  0
M  END
>  <MODEL>
8

>  <REMARK>
 VINA RESULT:      -6.5      2.929      7.533
  Name = 
  13 active torsions:
  status: ('A' for Active; 'I' for Inactive)
    1  A    between atoms: C_4  and  C_25
    2  A    between atoms: N_6  and  C_13
    3  A    between atoms: N_7  and  C_8
    4  A    between atoms: C_8  and  C_53
    5  A    between atoms: C_19  and  C_27
    6  A    between atoms: C_26  and  C_45
    7  A    between atoms: C_35  and  N_43
    8  A    between atoms: N_36  and  N_38
    9  A    between atoms: C_37  and  C_42
   10  A    between atoms: C_37  and  C_51
   11  A    between atoms: C_42  and  C_52
   12  A    between atoms: C_45  and  N_47
   13  A    between atoms: C_48  and  C_52
                            x       y       z     vdW  Elec       q    Type
                         _______ _______ _______ _____ _____    ______ ____

>  <TORSDO>
F 13

$$$$
=
 OpenBabel10232412193D

 56 68  0  0  1  0  0  0  0  0999 V2000
  190.4250  176.1820  138.6010 C   0  0  2  0  0  3  0  0  0  0  0  0
  189.1380  176.5210  140.8470 C   0  0  0  0  0  2  0  0  0  0  0  0
  187.4280  178.3670  139.3220 C   0  0  0  0  0  3  0  0  0  0  0  0
  188.1750  177.4940  141.5840 C   0  0  2  0  0  3  0  0  0  0  0  0
  189.3580  176.9050  139.3890 C   0  0  1  0  0  0  0  0  0  0  0  0
  187.7200  178.7250  140.7650 C   0  0  2  0  0  3  0  0  0  0  0  0
  191.7820  176.5420  139.1750 C   0  0  2  0  0  3  0  0  0  0  0  0
  190.6830  177.5820  139.1300 C   0  0  1  0  0  3  0  0  0  0  0  0
  188.2160  177.5210  138.6540 C   0  0  0  0  0  3  0  0  0  0  0  0
  189.5300  176.9360  143.8300 C   0  0  2  0  0  0  0  0  0  0  0  0
  188.0210  176.8120  143.8360 C   0  0  2  0  0  3  0  0  0  0  0  0
  190.1050  177.9410  142.9420 N   0  0  0  0  0  2  0  0  0  0  0  0
  190.0840  177.3100  145.2340 C   0  0  1  0  0  3  0  0  0  0  0  0
  188.6420  177.8950  142.9980 C   0  0  2  0  0  0  0  0  0  0  0  0
  187.8050  178.0980  145.9670 C   0  0  0  0  0  0  0  0  0  0  0  0
  189.2170  178.1500  146.0500 N   0  0  0  0  0  2  0  0  0  0  0  0
  187.2360  177.4580  144.9490 C   0  0  0  0  0  3  0  0  0  0  0  0
  190.5970  176.1700  146.0150 N   0  0  0  0  0  0  0  0  0  0  0  0
  190.7100  176.5770  147.4110 C   0  0  0  0  0  2  0  0  0  0  0  0
  191.9250  175.7670  145.5740 C   0  0  0  0  0  2  0  0  0  0  0  0
  192.7200  175.4110  146.8070 C   0  0  0  0  0  2  0  0  0  0  0  0
  192.0870  176.2050  147.9140 C   0  0  0  0  0  2  0  0  0  0  0  0
  186.9870  178.7420  147.0410 C   0  0  0  0  0  3  0  0  0  0  0  0
  187.5040  178.3760  148.4190 C   0  0  0  0  0  1  0  0  0  0  0  0
  185.5070  178.4060  146.9290 C   0  0  0  0  0  1  0  0  0  0  0  0
  192.7720  176.7820  138.0530 C   0  0  0  0  0  2  0  0  0  0  0  0
  194.6090  175.8120  136.9560 C   0  0  0  0  0  2  0  0  0  0  0  0
  193.3420  175.5170  137.6190 N   0  0  0  0  0  0  0  0  0  0  0  0
  193.9140  172.8760  136.8100 O   0  0  0  0  0  0  0  0  0  0  0  0
  192.4560  174.9730  136.5850 C   0  0  1  0  0  3  0  0  0  0  0  0
  195.0830  173.4910  136.3120 C   0  0  0  0  0  2  0  0  0  0  0  0
  193.3020  174.6900  135.3460 C   0  0  2  0  0  3  0  0  0  0  0  0
  192.8300  173.5370  136.1950 C   0  0  1  0  0  0  0  0  0  0  0  0
  194.7180  174.8640  135.7820 C   0  0  1  0  0  3  0  0  0  0  0  0
  190.5180  173.1240  135.5680 C   0  0  0  0  0  3  0  0  0  0  0  0
  189.5220  172.3470  134.9810 C   0  0  0  0  0  0  0  0  0  0  0  0
  189.8520  171.1610  134.4090 N   0  0  0  0  0  0  0  0  0  0  0  0
  191.1350  170.7180  134.4020 C   0  0  0  0  0  3  0  0  0  0  0  0
  193.3180  171.0630  135.0050 O   0  0  0  0  0  0  0  0  0  0  0  0
  187.8600  172.8920  134.9900 Cl  0  0  0  0  0  0  0  0  0  0  0  0
  191.8140  172.7030  135.5500 N   0  0  0  0  0  0  0  0  0  0  0  0
  192.1340  171.4950  134.9860 C   0  0  0  0  0  0  0  0  0  0  0  0
  186.4930  179.3630  141.4170 C   0  0  0  0  0  2  0  0  0  0  0  0
  185.1960  178.7820  140.8810 C   0  0  0  0  0  2  0  0  0  0  0  0
  184.2850  178.4170  142.0380 C   0  0  0  0  0  2  0  0  0  0  0  0
  181.9670  178.9340  142.1270 O   0  0  0  0  0  0  0  0  0  0  0  0
  182.5830  177.4000  140.4780 N   0  0  0  0  0  2  0  0  0  0  0  0
  182.8830  178.2740  141.5660 C   0  0  0  0  0  0  0  0  0  0  0  0
  181.2870  176.2100  138.9630 C   0  0  2  0  0  0  0  0  0  0  0  0
  181.3080  177.6780  138.6160 C   0  0  2  0  0  3  0  0  0  0  0  0
  180.0100  175.7870  138.4760 O   0  0  0  0  0  0  0  0  0  0  0  0
  181.2730  177.2820  139.9990 N   0  0  0  0  0  0  0  0  0  0  0  0
  180.3870  175.2320  139.6730 C   0  0  0  0  0  2  0  0  0  0  0  0
  179.9820  178.3720  138.2730 C   0  0  0  0  0  2  0  0  0  0  0  0
  181.1930  180.3540  138.5360 C   0  0  0  0  0  1  0  0  0  0  0  0
  180.2420  179.6700  137.6770 N   0  0  0  0  0  2  0  0  0  0  0  0
  1  8  1  0  0  0  0
  1  7  1  0  0  0  0
  1  5  1  0  0  0  0
  2  4  1  0  0  0  0
  3  6  1  0  0  0  0
  4 14  1  0  0  0  0
  5  2  1  0  0  0  0
  6 43  1  0  0  0  0
  6  4  1  0  0  0  0
  8  7  1  0  0  0  0
  8  5  1  0  0  0  0
  9  3  2  0  0  0  0
  9  5  1  0  0  0  0
 10 11  1  0  0  0  0
 10 13  1  0  0  0  0
 11 17  1  0  0  0  0
 12 14  1  0  0  0  0
 12 10  1  0  0  0  0
 13 18  1  0  0  0  0
 13 16  1  0  0  0  0
 14 10  1  0  0  0  0
 14 11  1  0  0  0  0
 15 16  1  0  0  0  0
 15 23  1  0  0  0  0
 17 15  2  0  0  0  0
 18 19  1  0  0  0  0
 19 22  1  0  0  0  0
 20 18  1  0  0  0  0
 20 21  1  0  0  0  0
 21 22  1  0  0  0  0
 23 24  1  0  0  0  0
 25 23  1  0  0  0  0
 26  7  1  0  0  0  0
 27 28  1  0  0  0  0
 28 26  1  0  0  0  0
 30 28  1  0  0  0  0
 31 29  1  0  0  0  0
 32 34  1  0  0  0  0
 32 33  1  0  0  0  0
 32 30  1  0  0  0  0
 33 30  1  0  0  0  0
 33 29  1  0  0  0  0
 34 31  1  0  0  0  0
 34 27  1  0  0  0  0
 36 40  1  0  0  0  0
 36 35  2  0  0  0  0
 37 36  1  0  0  0  0
 38 37  2  0  0  0  0
 38 42  1  0  0  0  0
 41 35  1  0  0  0  0
 41 33  1  0  0  0  0
 42 39  2  0  0  0  0
 42 41  1  0  0  0  0
 44 43  1  0  0  0  0
 44 45  1  0  0  0  0
 47 48  1  0  0  0  0
 48 45  1  0  0  0  0
 48 46  2  0  0  0  0
 49 53  1  0  0  0  0
 49 52  1  0  0  0  0
 50 49  1  0  0  0  0
 50 52  1  0  0  0  0
 51 49  1  0  0  0  0
 51 53  1  0  0  0  0
 52 47  1  0  0  0  0
 54 50  1  0  0  0  0
 56 54  1  0  0  0  0
 56 55  1  0  0  0  0
M  END
>  <MODEL>
9

>  <REMARK>
 VINA RESULT:      -6.5      2.947     10.327
  Name = 
  13 active torsions:
  status: ('A' for Active; 'I' for Inactive)
    1  A    between atoms: C_4  and  C_25
    2  A    between atoms: N_6  and  C_13
    3  A    between atoms: N_7  and  C_8
    4  A    between atoms: C_8  and  C_53
    5  A    between atoms: C_19  and  C_27
    6  A    between atoms: C_26  and  C_45
    7  A    between atoms: C_35  and  N_43
    8  A    between atoms: N_36  and  N_38
    9  A    between atoms: C_37  and  C_42
   10  A    between atoms: C_37  and  C_51
   11  A    between atoms: C_42  and  C_52
   12  A    between atoms: C_45  and  N_47
   13  A    between atoms: C_48  and  C_52
                            x       y       z     vdW  Elec       q    Type
                         _______ _______ _______ _____ _____    ______ ____

>  <TORSDO>
F 13

$$$$
