=
 OpenBabel10232411473D

 47 51  0  0  1  0  0  0  0  0999 V2000
  192.1400  177.6020  140.6680 O   0  0  0  0  0  0  0  0  0  0  0  0
  185.2790  175.8690  136.1810 S   0  0  0  0  0  0  0  0  0  0  0  0
  190.8570  176.0960  139.3940 C   0  0  0  0  0  2  0  0  0  0  0  0
  184.2710  178.7830  142.3820 C   0  0  2  0  0  3  0  0  0  0  0  0
  185.9020  177.1170  143.1900 N   0  0  0  0  0  2  0  0  0  0  0  0
  181.5700  175.7430  139.2710 C   0  0  0  0  0  0  0  0  0  0  0  0
  183.5040  174.1770  137.5930 C   0  0  0  0  0  0  0  0  0  0  0  0
  184.3470  178.1900  137.6190 S   0  0  0  0  0  0  0  0  0  0  0  0
  187.2920  177.0130  143.1420 N   0  0  0  0  0  0  0  0  0  0  0  0
  191.1640  176.4520  137.9750 C   0  0  0  0  0  3  0  0  0  0  0  0
  188.8440  177.1210  137.3620 C   0  0  0  0  0  0  0  0  0  0  0  0
  190.2880  176.9370  137.0880 C   0  0  0  0  0  0  0  0  0  0  0  0
  183.1220  178.7780  140.2620 N   0  0  0  0  0  0  0  0  0  0  0  0
  189.2210  177.4540  141.8570 N   0  0  0  0  0  2  0  0  0  0  0  0
  185.3190  177.7310  142.0100 C   0  0  2  0  0  3  0  0  0  0  0  0
  184.4650  173.0600  137.3650 C   0  0  0  0  0  1  0  0  0  0  0  0
  182.8570  177.4050  140.3620 N   0  0  0  0  0  2  0  0  0  0  0  0
  183.5130  176.6530  138.0290 C   0  0  0  0  0  0  0  0  0  0  0  0
  183.7350  179.4190  141.1800 N   0  0  0  0  0  0  0  0  0  0  0  0
  180.7830  175.6990  140.3770 F   0  0  0  0  0  0  0  0  0  0  0  0
  182.6040  176.5880  139.2150 C   0  0  0  0  0  0  0  0  0  0  0  0
  188.0810  177.9930  136.5080 N   0  0  0  0  0  0  0  0  0  0  0  0
  187.8250  177.5780  142.1210 C   0  0  0  0  0  0  0  0  0  0  0  0
  185.8380  177.2450  137.2170 C   0  0  2  0  0  3  0  0  0  0  0  0
  182.2890  173.8710  137.9420 N   0  0  0  0  0  0  0  0  0  0  0  0
  186.7850  178.0990  136.4420 C   0  0  0  0  0  3  0  0  0  0  0  0
  181.2260  174.8470  138.1270 C   0  0  0  0  0  2  0  0  0  0  0  0
  186.6950  178.4090  141.0130 S   0  0  0  0  0  0  0  0  0  0  0  0
  189.8360  178.0780  140.7000 C   0  0  0  0  0  2  0  0  0  0  0  0
  188.2910  176.5230  138.3250 O   0  0  0  0  0  0  0  0  0  0  0  0
  183.9350  175.5750  137.3340 C   0  0  0  0  0  0  0  0  0  0  0  0
  191.0270  177.2870  140.2770 C   0  0  0  0  0  0  0  0  0  0  0  0
  190.8090  177.2950  135.7310 C   0  0  0  0  0  2  0  0  0  0  0  0
  190.4500  176.2230  134.7060 C   0  0  0  0  0  2  0  0  0  0  0  0
  191.6660  175.3780  134.3460 C   0  0  0  0  0  3  0  0  0  0  0  0
  192.9200  176.1680  134.6640 C   0  0  0  0  0  1  0  0  0  0  0  0
  191.6620  174.0980  135.1710 C   0  0  0  0  0  1  0  0  0  0  0  0
  184.8510  179.8510  143.3070 C   0  0  0  0  0  2  0  0  0  0  0  0
  184.4070  179.6190  144.7420 C   0  0  0  0  0  2  0  0  0  0  0  0
  185.6090  179.6360  145.6740 C   0  0  0  0  0  2  0  0  0  0  0  0
  185.6770  178.3530  146.5000 C   0  0  0  0  0  2  0  0  0  0  0  0
  189.3180  177.2720  146.4410 C   0  0  0  0  0  3  0  0  0  0  0  0
  187.4540  178.2760  148.2760 C   0  0  0  0  0  3  0  0  0  0  0  0
  187.0710  178.0450  146.9500 C   0  0  0  0  0  0  0  0  0  0  0  0
  189.7010  177.5060  147.7650 C   0  0  0  0  0  3  0  0  0  0  0  0
  188.7690  178.0080  148.6840 C   0  0  0  0  0  3  0  0  0  0  0  0
  188.0050  177.5400  146.0350 C   0  0  0  0  0  3  0  0  0  0  0  0
  2 24  1  0  0  0  0
  2 31  1  0  0  0  0
  3 32  1  0  0  0  0
  4 38  1  1  0  0  0
  6 20  1  0  0  0  0
  7 25  2  0  0  0  0
  8 18  1  0  0  0  0
  9  5  1  0  0  0  0
 10  3  1  0  0  0  0
 11 30  2  0  0  0  0
 12 11  1  0  0  0  0
 12 10  2  0  0  0  0
 13 17  1  0  0  0  0
 13 19  2  0  0  0  0
 14 23  1  0  0  0  0
 15 28  1  1  0  0  0
 15  4  1  0  0  0  0
 15  5  1  0  0  0  0
 16  7  1  0  0  0  0
 18 21  1  0  0  0  0
 19  4  1  0  0  0  0
 21  6  2  0  0  0  0
 21 17  1  0  0  0  0
 22 11  1  0  0  0  0
 23  9  2  0  0  0  0
 24 26  1  6  0  0  0
 24  8  1  0  0  0  0
 25 27  1  0  0  0  0
 26 22  2  0  0  0  0
 27  6  1  0  0  0  0
 28 23  1  0  0  0  0
 29 14  1  0  0  0  0
 31  7  1  0  0  0  0
 31 18  2  0  0  0  0
 32  1  2  0  0  0  0
 32 29  1  0  0  0  0
 33 12  1  0  0  0  0
 34 33  1  0  0  0  0
 35 36  1  0  0  0  0
 35 34  1  0  0  0  0
 35 37  1  0  0  0  0
 38 39  1  0  0  0  0
 39 40  1  0  0  0  0
 40 41  1  0  0  0  0
 41 44  1  0  0  0  0
 42 45  1  0  0  0  0
 43 46  1  0  0  0  0
 44 43  2  0  0  0  0
 45 46  2  0  0  0  0
 47 42  2  0  0  0  0
 47 44  1  0  0  0  0
M  END
>  <MODEL>
1

>  <REMARK>
 VINA RESULT:      -7.4      0.000      0.000
  Name = 
  8 active torsions:
  status: ('A' for Active; 'I' for Inactive)
    1  A    between atoms: C_3  and  C_6
    2  A    between atoms: C_3  and  C_25
    3  A    between atoms: C_5  and  C_40
    4  A    between atoms: C_10  and  C_33
    5  A    between atoms: C_10  and  C_40
    6  A    between atoms: C_19  and  C_25
    7  A    between atoms: C_23  and  C_46
    8  A    between atoms: C_33  and  C_46
                            x       y       z     vdW  Elec       q    Type
                         _______ _______ _______ _____ _____    ______ ____

>  <TORSDO>
F 8

$$$$
=
 OpenBabel10232411473D

 47 51  0  0  1  0  0  0  0  0999 V2000
  179.9820  174.2480  137.5500 O   0  0  0  0  0  0  0  0  0  0  0  0
  185.8210  179.0630  141.1480 S   0  0  0  0  0  0  0  0  0  0  0  0
  181.0240  175.1010  139.4810 C   0  0  0  0  0  2  0  0  0  0  0  0
  187.9930  174.7430  136.1900 C   0  0  2  0  0  3  0  0  0  0  0  0
  186.6200  173.0570  137.3580 N   0  0  0  0  0  2  0  0  0  0  0  0
  190.0910  176.9760  140.2920 C   0  0  0  0  0  0  0  0  0  0  0  0
  187.9050  177.5160  142.2770 C   0  0  0  0  0  0  0  0  0  0  0  0
  186.9530  178.8170  138.5060 S   0  0  0  0  0  0  0  0  0  0  0  0
  185.2540  172.7780  137.4060 N   0  0  0  0  0  0  0  0  0  0  0  0
  180.4180  176.4560  139.6640 C   0  0  0  0  0  3  0  0  0  0  0  0
  182.5380  177.7340  139.3800 C   0  0  0  0  0  0  0  0  0  0  0  0
  181.0760  177.6180  139.5850 C   0  0  0  0  0  0  0  0  0  0  0  0
  188.6770  176.8940  137.0360 N   0  0  0  0  0  0  0  0  0  0  0  0
  183.0880  173.7120  137.3840 N   0  0  0  0  0  2  0  0  0  0  0  0
  186.9260  174.4730  137.2540 C   0  0  2  0  0  3  0  0  0  0  0  0
  186.9550  177.1090  143.3510 C   0  0  0  0  0  1  0  0  0  0  0  0
  189.0040  176.3450  138.2850 N   0  0  0  0  0  2  0  0  0  0  0  0
  187.9040  178.0430  139.8180 C   0  0  0  0  0  0  0  0  0  0  0  0
  188.2470  176.1770  136.0720 N   0  0  0  0  0  0  0  0  0  0  0  0
  191.0900  176.1190  139.9580 F   0  0  0  0  0  0  0  0  0  0  0  0
  189.0400  177.1300  139.4800 C   0  0  0  0  0  0  0  0  0  0  0  0
  183.0790  178.9880  138.9250 N   0  0  0  0  0  0  0  0  0  0  0  0
  184.5030  173.8040  137.2360 C   0  0  0  0  0  0  0  0  0  0  0  0
  185.4430  178.5240  139.4610 C   0  0  2  0  0  3  0  0  0  0  0  0
  189.1760  177.3330  142.4870 N   0  0  0  0  0  0  0  0  0  0  0  0
  184.3280  179.3510  138.9130 C   0  0  0  0  0  3  0  0  0  0  0  0
  190.2210  177.7470  141.5640 C   0  0  0  0  0  2  0  0  0  0  0  0
  185.3520  175.3480  136.9310 S   0  0  0  0  0  0  0  0  0  0  0  0
  182.2260  174.8670  137.2060 C   0  0  0  0  0  2  0  0  0  0  0  0
  183.2980  176.7520  139.6030 O   0  0  0  0  0  0  0  0  0  0  0  0
  187.3840  178.1840  141.0550 C   0  0  0  0  0  0  0  0  0  0  0  0
  181.0000  174.7120  138.0400 C   0  0  0  0  0  0  0  0  0  0  0  0
  180.2730  178.8740  139.7330 C   0  0  0  0  0  2  0  0  0  0  0  0
  180.7450  179.6870  140.9350 C   0  0  0  0  0  2  0  0  0  0  0  0
  180.7960  178.8290  142.1930 C   0  0  0  0  0  3  0  0  0  0  0  0
  182.2380  178.7100  142.6440 C   0  0  0  0  0  1  0  0  0  0  0  0
  179.9820  179.4920  143.2970 C   0  0  0  0  0  1  0  0  0  0  0  0
  187.5810  174.1850  134.8290 C   0  0  0  0  0  2  0  0  0  0  0  0
  188.5820  173.1490  134.3460 C   0  0  0  0  0  2  0  0  0  0  0  0
  189.8120  173.1500  135.2400 C   0  0  0  0  0  2  0  0  0  0  0  0
  190.8840  174.0910  134.6920 C   0  0  0  0  0  2  0  0  0  0  0  0
  193.0090  175.9750  137.2140 C   0  0  0  0  0  3  0  0  0  0  0  0
  192.8170  173.3940  136.1390 C   0  0  0  0  0  3  0  0  0  0  0  0
  191.9400  174.3960  135.7080 C   0  0  0  0  0  0  0  0  0  0  0  0
  193.8830  174.9740  137.6470 C   0  0  0  0  0  3  0  0  0  0  0  0
  193.7880  173.6830  137.1100 C   0  0  0  0  0  3  0  0  0  0  0  0
  192.0390  175.6860  136.2450 C   0  0  0  0  0  3  0  0  0  0  0  0
  1 32  2  0  0  0  0
  3 10  1  0  0  0  0
  4 38  1  6  0  0  0
  4 15  1  0  0  0  0
  5  9  1  0  0  0  0
  6 27  1  0  0  0  0
  7 25  2  0  0  0  0
  7 16  1  0  0  0  0
  8 24  1  0  0  0  0
  8 18  1  0  0  0  0
 11 12  1  0  0  0  0
 11 30  2  0  0  0  0
 12 10  2  0  0  0  0
 12 33  1  0  0  0  0
 13 17  1  0  0  0  0
 15 28  1  6  0  0  0
 15  5  1  0  0  0  0
 17 21  1  0  0  0  0
 18 31  2  0  0  0  0
 19  4  1  0  0  0  0
 19 13  2  0  0  0  0
 20  6  1  0  0  0  0
 21 18  1  0  0  0  0
 21  6  2  0  0  0  0
 22 11  1  0  0  0  0
 23 14  1  0  0  0  0
 23  9  2  0  0  0  0
 24 26  1  6  0  0  0
 24  2  1  0  0  0  0
 26 22  2  0  0  0  0
 27 25  1  0  0  0  0
 28 23  1  0  0  0  0
 29 14  1  0  0  0  0
 29 32  1  0  0  0  0
 31  2  1  0  0  0  0
 31  7  1  0  0  0  0
 32  3  1  0  0  0  0
 33 34  1  0  0  0  0
 34 35  1  0  0  0  0
 35 36  1  0  0  0  0
 35 37  1  0  0  0  0
 39 38  1  0  0  0  0
 39 40  1  0  0  0  0
 41 40  1  0  0  0  0
 41 44  1  0  0  0  0
 42 45  1  0  0  0  0
 43 46  1  0  0  0  0
 44 43  2  0  0  0  0
 44 47  1  0  0  0  0
 46 45  2  0  0  0  0
 47 42  2  0  0  0  0
M  END
>  <MODEL>
2

>  <REMARK>
 VINA RESULT:      -6.5      3.243      9.575
  Name = 
  8 active torsions:
  status: ('A' for Active; 'I' for Inactive)
    1  A    between atoms: C_3  and  C_6
    2  A    between atoms: C_3  and  C_25
    3  A    between atoms: C_5  and  C_40
    4  A    between atoms: C_10  and  C_33
    5  A    between atoms: C_10  and  C_40
    6  A    between atoms: C_19  and  C_25
    7  A    between atoms: C_23  and  C_46
    8  A    between atoms: C_33  and  C_46
                            x       y       z     vdW  Elec       q    Type
                         _______ _______ _______ _____ _____    ______ ____

>  <TORSDO>
F 8

$$$$
=
 OpenBabel10232411473D

 47 51  0  0  1  0  0  0  0  0999 V2000
  183.5780  173.2250  135.1450 O   0  0  0  0  0  0  0  0  0  0  0  0
  186.8650  178.6080  140.6620 S   0  0  0  0  0  0  0  0  0  0  0  0
  183.7160  174.0810  137.3330 C   0  0  0  0  0  2  0  0  0  0  0  0
  191.3440  175.0740  136.7360 C   0  0  2  0  0  3  0  0  0  0  0  0
  189.9660  173.1090  137.3110 N   0  0  0  0  0  2  0  0  0  0  0  0
  191.4590  177.2890  141.3510 C   0  0  0  0  0  0  0  0  0  0  0  0
  188.6600  177.3260  142.4340 C   0  0  0  0  0  0  0  0  0  0  0  0
  188.8710  178.7450  138.5920 S   0  0  0  0  0  0  0  0  0  0  0  0
  188.7400  172.6170  136.8660 N   0  0  0  0  0  0  0  0  0  0  0  0
  182.8590  175.3060  137.3090 C   0  0  0  0  0  3  0  0  0  0  0  0
  184.6880  176.9190  137.8200 C   0  0  0  0  0  0  0  0  0  0  0  0
  183.2900  176.5590  137.4880 C   0  0  0  0  0  0  0  0  0  0  0  0
  191.3060  177.2350  137.8040 N   0  0  0  0  0  0  0  0  0  0  0  0
  186.5900  173.1980  136.0870 N   0  0  0  0  0  2  0  0  0  0  0  0
  190.0380  174.5600  137.3460 C   0  0  2  0  0  3  0  0  0  0  0  0
  187.4820  176.6940  143.0930 C   0  0  0  0  0  1  0  0  0  0  0  0
  191.2670  176.6500  139.0780 N   0  0  0  0  0  2  0  0  0  0  0  0
  189.4250  178.0320  140.1450 C   0  0  0  0  0  0  0  0  0  0  0  0
  191.3690  176.5350  136.7390 N   0  0  0  0  0  0  0  0  0  0  0  0
  192.6450  176.6270  141.3810 F   0  0  0  0  0  0  0  0  0  0  0  0
  190.7470  177.3380  140.2200 C   0  0  0  0  0  0  0  0  0  0  0  0
  185.1270  178.2730  137.6060 N   0  0  0  0  0  0  0  0  0  0  0  0
  187.9280  173.5220  136.4550 C   0  0  0  0  0  0  0  0  0  0  0  0
  187.1990  178.1470  138.9430 C   0  0  2  0  0  3  0  0  0  0  0  0
  189.7890  177.3300  143.0810 N   0  0  0  0  0  0  0  0  0  0  0  0
  186.2190  178.8280  138.0460 C   0  0  0  0  0  3  0  0  0  0  0  0
  191.0020  177.9720  142.5970 C   0  0  0  0  0  2  0  0  0  0  0  0
  188.5480  175.1990  136.4970 S   0  0  0  0  0  0  0  0  0  0  0  0
  185.6570  174.2130  135.6320 C   0  0  0  0  0  2  0  0  0  0  0  0
  185.4820  176.0540  138.2830 O   0  0  0  0  0  0  0  0  0  0  0  0
  188.4900  177.9950  141.1180 C   0  0  0  0  0  0  0  0  0  0  0  0
  184.2650  173.8040  135.9730 C   0  0  0  0  0  0  0  0  0  0  0  0
  182.2810  177.6580  137.3600 C   0  0  0  0  0  2  0  0  0  0  0  0
  181.3340  177.6740  138.5560 C   0  0  0  0  0  2  0  0  0  0  0  0
  181.6100  178.8700  139.4590 C   0  0  0  0  0  3  0  0  0  0  0  0
  182.6030  178.4550  140.5280 C   0  0  0  0  0  1  0  0  0  0  0  0
  182.2100  180.0040  138.6370 C   0  0  0  0  0  1  0  0  0  0  0  0
  191.5360  174.5640  135.3090 C   0  0  0  0  0  2  0  0  0  0  0  0
  192.6270  173.5070  135.2560 C   0  0  0  0  0  2  0  0  0  0  0  0
  193.5290  173.6230  136.4750 C   0  0  0  0  0  2  0  0  0  0  0  0
  194.9820  173.8480  136.0590 C   0  0  0  0  0  2  0  0  0  0  0  0
  196.1010  174.6640  139.5960 C   0  0  0  0  0  3  0  0  0  0  0  0
  197.2340  174.3570  137.0510 C   0  0  0  0  0  3  0  0  0  0  0  0
  195.8540  174.2010  137.2230 C   0  0  0  0  0  0  0  0  0  0  0  0
  197.4800  174.8170  139.4250 C   0  0  0  0  0  3  0  0  0  0  0  0
  198.0470  174.6630  138.1520 C   0  0  0  0  0  3  0  0  0  0  0  0
  195.2890  174.3570  138.4960 C   0  0  0  0  0  3  0  0  0  0  0  0
  1 32  2  0  0  0  0
  2 31  1  0  0  0  0
  4 38  1  6  0  0  0
  4 19  1  0  0  0  0
  4 15  1  0  0  0  0
  5 15  1  0  0  0  0
  6 20  1  0  0  0  0
  6 27  1  0  0  0  0
  7 25  2  0  0  0  0
  7 16  1  0  0  0  0
  8 24  1  0  0  0  0
  8 18  1  0  0  0  0
  9  5  1  0  0  0  0
 10  3  1  0  0  0  0
 10 12  2  0  0  0  0
 11 30  2  0  0  0  0
 12 11  1  0  0  0  0
 13 17  1  0  0  0  0
 14 23  1  0  0  0  0
 15 28  1  6  0  0  0
 17 21  1  0  0  0  0
 18 21  1  0  0  0  0
 18 31  2  0  0  0  0
 19 13  2  0  0  0  0
 21  6  2  0  0  0  0
 22 11  1  0  0  0  0
 22 26  2  0  0  0  0
 23 28  1  0  0  0  0
 23  9  2  0  0  0  0
 24 26  1  6  0  0  0
 24  2  1  0  0  0  0
 27 25  1  0  0  0  0
 29 32  1  0  0  0  0
 29 14  1  0  0  0  0
 31  7  1  0  0  0  0
 32  3  1  0  0  0  0
 33 12  1  0  0  0  0
 33 34  1  0  0  0  0
 34 35  1  0  0  0  0
 35 36  1  0  0  0  0
 37 35  1  0  0  0  0
 39 38  1  0  0  0  0
 39 40  1  0  0  0  0
 41 40  1  0  0  0  0
 41 44  1  0  0  0  0
 43 44  2  0  0  0  0
 43 46  1  0  0  0  0
 44 47  1  0  0  0  0
 45 42  1  0  0  0  0
 46 45  2  0  0  0  0
 47 42  2  0  0  0  0
M  END
>  <MODEL>
3

>  <REMARK>
 VINA RESULT:      -5.7      3.664      9.493
  Name = 
  8 active torsions:
  status: ('A' for Active; 'I' for Inactive)
    1  A    between atoms: C_3  and  C_6
    2  A    between atoms: C_3  and  C_25
    3  A    between atoms: C_5  and  C_40
    4  A    between atoms: C_10  and  C_33
    5  A    between atoms: C_10  and  C_40
    6  A    between atoms: C_19  and  C_25
    7  A    between atoms: C_23  and  C_46
    8  A    between atoms: C_33  and  C_46
                            x       y       z     vdW  Elec       q    Type
                         _______ _______ _______ _____ _____    ______ ____

>  <TORSDO>
F 8

$$$$
=
 OpenBabel10232411473D

 47 51  0  0  1  0  0  0  0  0999 V2000
  190.2530  177.4470  140.5880 O   0  0  0  0  0  0  0  0  0  0  0  0
  182.2100  179.7830  140.3340 S   0  0  0  0  0  0  0  0  0  0  0  0
  188.5980  179.1070  140.8050 C   0  0  0  0  0  2  0  0  0  0  0  0
  184.5780  176.2330  134.8800 C   0  0  2  0  0  3  0  0  0  0  0  0
  186.5060  177.7720  134.9890 N   0  0  0  0  0  2  0  0  0  0  0  0
  180.8480  179.6420  135.7030 C   0  0  0  0  0  0  0  0  0  0  0  0
  181.6450  181.3450  138.0430 C   0  0  0  0  0  0  0  0  0  0  0  0
  182.0550  177.3370  138.8120 S   0  0  0  0  0  0  0  0  0  0  0  0
  187.6400  177.8540  135.7940 N   0  0  0  0  0  0  0  0  0  0  0  0
  188.0420  178.9010  142.1780 C   0  0  0  0  0  3  0  0  0  0  0  0
  185.7260  178.3450  141.4450 C   0  0  0  0  0  0  0  0  0  0  0  0
  186.7880  178.5310  142.4610 C   0  0  0  0  0  0  0  0  0  0  0  0
  182.4540  176.4890  135.9920 N   0  0  0  0  0  0  0  0  0  0  0  0
  188.4980  177.5200  137.9670 N   0  0  0  0  0  2  0  0  0  0  0  0
  185.3220  177.3000  135.6880 C   0  0  2  0  0  3  0  0  0  0  0  0
  182.4010  182.4620  138.6770 C   0  0  0  0  0  1  0  0  0  0  0  0
  182.3930  177.8480  135.6510 N   0  0  0  0  0  2  0  0  0  0  0  0
  181.7060  178.8360  137.8850 C   0  0  0  0  0  0  0  0  0  0  0  0
  183.4220  175.7410  135.6260 N   0  0  0  0  0  0  0  0  0  0  0  0
  180.8100  179.5800  134.3470 F   0  0  0  0  0  0  0  0  0  0  0  0
  181.6120  178.7880  136.3930 C   0  0  0  0  0  0  0  0  0  0  0  0
  184.5560  177.5850  141.7950 N   0  0  0  0  0  0  0  0  0  0  0  0
  187.4760  177.3930  136.9810 C   0  0  0  0  0  0  0  0  0  0  0  0
  183.1420  178.2930  139.8990 C   0  0  2  0  0  3  0  0  0  0  0  0
  180.8520  181.6330  137.0520 N   0  0  0  0  0  0  0  0  0  0  0  0
  183.4350  177.5110  141.1360 C   0  0  0  0  0  3  0  0  0  0  0  0
  179.9980  180.6620  136.3850 C   0  0  0  0  0  2  0  0  0  0  0  0
  185.8620  176.7090  137.3330 S   0  0  0  0  0  0  0  0  0  0  0  0
  188.3220  177.0130  139.3160 C   0  0  0  0  0  2  0  0  0  0  0  0
  185.8450  178.8450  140.2930 O   0  0  0  0  0  0  0  0  0  0  0  0
  181.7530  179.9750  138.6080 C   0  0  0  0  0  0  0  0  0  0  0  0
  189.1370  177.8230  140.2660 C   0  0  0  0  0  0  0  0  0  0  0  0
  186.4440  178.3130  143.9020 C   0  0  0  0  0  2  0  0  0  0  0  0
  187.6690  177.8680  144.6960 C   0  0  0  0  0  2  0  0  0  0  0  0
  187.3080  177.5850  146.1490 C   0  0  0  0  0  3  0  0  0  0  0  0
  188.5840  177.5390  146.9670 C   0  0  0  0  0  1  0  0  0  0  0  0
  186.4160  178.6990  146.6810 C   0  0  0  0  0  1  0  0  0  0  0  0
  185.4910  175.0610  134.5240 C   0  0  0  0  0  2  0  0  0  0  0  0
  184.8550  173.7410  134.9290 C   0  0  0  0  0  2  0  0  0  0  0  0
  185.9270  172.6800  135.1250 C   0  0  0  0  0  2  0  0  0  0  0  0
  185.4950  171.6540  136.1720 C   0  0  0  0  0  2  0  0  0  0  0  0
  181.7940  171.8090  137.0160 C   0  0  0  0  0  3  0  0  0  0  0  0
  183.4760  170.5460  135.1640 C   0  0  0  0  0  3  0  0  0  0  0  0
  184.0200  171.3970  136.1330 C   0  0  0  0  0  0  0  0  0  0  0  0
  181.2500  170.9620  136.0470 C   0  0  0  0  0  3  0  0  0  0  0  0
  182.0910  170.3300  135.1200 C   0  0  0  0  0  3  0  0  0  0  0  0
  183.1780  172.0250  137.0600 C   0  0  0  0  0  3  0  0  0  0  0  0
  3 10  1  0  0  0  0
  4 38  1  1  0  0  0
  4 19  1  0  0  0  0
  4 15  1  0  0  0  0
  5  9  1  0  0  0  0
  6 27  1  0  0  0  0
  6 21  2  0  0  0  0
  7 31  1  0  0  0  0
  7 16  1  0  0  0  0
  8 24  1  0  0  0  0
  9 23  2  0  0  0  0
 10 12  2  0  0  0  0
 11 22  1  0  0  0  0
 11 12  1  0  0  0  0
 12 33  1  0  0  0  0
 14 29  1  0  0  0  0
 15  5  1  6  0  0  0
 15 28  1  0  0  0  0
 17 13  1  0  0  0  0
 17 21  1  0  0  0  0
 18 31  2  0  0  0  0
 18  8  1  0  0  0  0
 19 13  2  0  0  0  0
 20  6  1  0  0  0  0
 21 18  1  0  0  0  0
 23 28  1  0  0  0  0
 23 14  1  0  0  0  0
 24  2  1  0  0  0  0
 24 26  1  1  0  0  0
 25  7  2  0  0  0  0
 26 22  2  0  0  0  0
 27 25  1  0  0  0  0
 29 32  1  0  0  0  0
 30 11  2  0  0  0  0
 31  2  1  0  0  0  0
 32  1  2  0  0  0  0
 32  3  1  0  0  0  0
 33 34  1  0  0  0  0
 34 35  1  0  0  0  0
 35 37  1  0  0  0  0
 35 36  1  0  0  0  0
 38 39  1  0  0  0  0
 39 40  1  0  0  0  0
 40 41  1  0  0  0  0
 42 47  1  0  0  0  0
 43 44  1  0  0  0  0
 44 41  1  0  0  0  0
 44 47  2  0  0  0  0
 45 42  2  0  0  0  0
 46 43  2  0  0  0  0
 46 45  1  0  0  0  0
M  END
>  <MODEL>
4

>  <REMARK>
 VINA RESULT:      -5.6      3.070      8.710
  Name = 
  8 active torsions:
  status: ('A' for Active; 'I' for Inactive)
    1  A    between atoms: C_3  and  C_6
    2  A    between atoms: C_3  and  C_25
    3  A    between atoms: C_5  and  C_40
    4  A    between atoms: C_10  and  C_33
    5  A    between atoms: C_10  and  C_40
    6  A    between atoms: C_19  and  C_25
    7  A    between atoms: C_23  and  C_46
    8  A    between atoms: C_33  and  C_46
                            x       y       z     vdW  Elec       q    Type
                         _______ _______ _______ _____ _____    ______ ____

>  <TORSDO>
F 8

$$$$
=
 OpenBabel10232411473D

 47 51  0  0  1  0  0  0  0  0999 V2000
  185.8010  178.9720  144.3870 O   0  0  0  0  0  0  0  0  0  0  0  0
  188.8750  175.6080  137.3550 S   0  0  0  0  0  0  0  0  0  0  0  0
  186.9900  177.2640  143.2870 C   0  0  0  0  0  2  0  0  0  0  0  0
  182.2100  177.4840  137.2350 C   0  0  2  0  0  3  0  0  0  0  0  0
  182.0730  176.3420  139.4190 N   0  0  0  0  0  2  0  0  0  0  0  0
  185.1030  174.0520  134.7720 C   0  0  0  0  0  0  0  0  0  0  0  0
  187.4050  173.3260  136.5560 C   0  0  0  0  0  0  0  0  0  0  0  0
  186.9020  177.3820  136.2240 S   0  0  0  0  0  0  0  0  0  0  0  0
  182.4450  176.6800  140.7190 N   0  0  0  0  0  0  0  0  0  0  0  0
  188.3630  177.8260  143.1000 C   0  0  0  0  0  3  0  0  0  0  0  0
  188.3250  177.7930  140.6090 C   0  0  0  0  0  0  0  0  0  0  0  0
  188.9390  178.0930  141.9230 C   0  0  0  0  0  0  0  0  0  0  0  0
  183.9930  177.3160  135.6200 N   0  0  0  0  0  0  0  0  0  0  0  0
  184.0350  177.8150  142.0420 N   0  0  0  0  0  2  0  0  0  0  0  0
  182.9750  176.8490  138.3990 C   0  0  2  0  0  3  0  0  0  0  0  0
  188.0220  172.5890  137.6950 C   0  0  0  0  0  1  0  0  0  0  0  0
  184.0650  175.9250  135.7840 N   0  0  0  0  0  2  0  0  0  0  0  0
  186.5770  175.6310  135.9880 C   0  0  0  0  0  0  0  0  0  0  0  0
  183.1400  178.0290  136.2490 N   0  0  0  0  0  0  0  0  0  0  0  0
  183.8720  173.6660  134.3470 F   0  0  0  0  0  0  0  0  0  0  0  0
  185.2460  175.1790  135.4770 C   0  0  0  0  0  0  0  0  0  0  0  0
  188.8310  178.4590  139.4380 N   0  0  0  0  0  0  0  0  0  0  0  0
  183.4500  177.4740  140.7870 C   0  0  0  0  0  0  0  0  0  0  0  0
  187.7760  176.9880  137.7590 C   0  0  2  0  0  3  0  0  0  0  0  0
  186.8500  172.6270  135.6090 N   0  0  0  0  0  0  0  0  0  0  0  0
  188.5900  178.1620  138.1940 C   0  0  0  0  0  3  0  0  0  0  0  0
  186.2740  173.2030  134.4040 C   0  0  0  0  0  2  0  0  0  0  0  0
  184.1270  178.0100  139.2210 S   0  0  0  0  0  0  0  0  0  0  0  0
  185.1800  178.7030  142.1340 C   0  0  0  0  0  2  0  0  0  0  0  0
  187.3760  176.9680  140.5170 O   0  0  0  0  0  0  0  0  0  0  0  0
  187.5170  174.8060  136.4960 C   0  0  0  0  0  0  0  0  0  0  0  0
  185.9820  178.3630  143.3440 C   0  0  0  0  0  0  0  0  0  0  0  0
  190.3010  178.7180  141.9500 C   0  0  0  0  0  2  0  0  0  0  0  0
  191.3350  177.7520  142.5200 C   0  0  0  0  0  2  0  0  0  0  0  0
  191.7690  178.1750  143.9190 C   0  0  0  0  0  3  0  0  0  0  0  0
  191.3480  179.6140  144.1450 C   0  0  0  0  0  1  0  0  0  0  0  0
  191.0900  177.2880  144.9550 C   0  0  0  0  0  1  0  0  0  0  0  0
  181.2730  178.5910  137.7160 C   0  0  0  0  0  2  0  0  0  0  0  0
  180.0810  178.7300  136.7850 C   0  0  0  0  0  2  0  0  0  0  0  0
  179.9850  180.1560  136.2640 C   0  0  0  0  0  2  0  0  0  0  0  0
  181.0830  181.0310  136.8650 C   0  0  0  0  0  2  0  0  0  0  0  0
  181.0550  184.8150  137.2020 C   0  0  0  0  0  3  0  0  0  0  0  0
  180.4010  182.8700  135.2930 C   0  0  0  0  0  3  0  0  0  0  0  0
  180.8880  182.4810  136.5460 C   0  0  0  0  0  0  0  0  0  0  0  0
  180.5720  185.2040  135.9490 C   0  0  0  0  0  3  0  0  0  0  0  0
  180.2450  184.2310  134.9940 C   0  0  0  0  0  3  0  0  0  0  0  0
  181.2120  183.4550  137.5000 C   0  0  0  0  0  3  0  0  0  0  0  0
  2 24  1  0  0  0  0
  3 32  1  0  0  0  0
  4 38  1  1  0  0  0
  4 15  1  0  0  0  0
  5  9  1  0  0  0  0
  6 21  2  0  0  0  0
  7 16  1  0  0  0  0
  8 24  1  0  0  0  0
  9 23  2  0  0  0  0
 10  3  1  0  0  0  0
 11 12  1  0  0  0  0
 12 33  1  0  0  0  0
 12 10  2  0  0  0  0
 13 17  1  0  0  0  0
 13 19  2  0  0  0  0
 14 29  1  0  0  0  0
 15 28  1  1  0  0  0
 15  5  1  0  0  0  0
 18  8  1  0  0  0  0
 18 31  2  0  0  0  0
 19  4  1  0  0  0  0
 20  6  1  0  0  0  0
 21 17  1  0  0  0  0
 21 18  1  0  0  0  0
 22 11  1  0  0  0  0
 23 14  1  0  0  0  0
 24 26  1  6  0  0  0
 25  7  2  0  0  0  0
 26 22  2  0  0  0  0
 27  6  1  0  0  0  0
 27 25  1  0  0  0  0
 28 23  1  0  0  0  0
 29 32  1  0  0  0  0
 30 11  2  0  0  0  0
 31  7  1  0  0  0  0
 31  2  1  0  0  0  0
 32  1  2  0  0  0  0
 33 34  1  0  0  0  0
 34 35  1  0  0  0  0
 35 36  1  0  0  0  0
 35 37  1  0  0  0  0
 39 38  1  0  0  0  0
 40 39  1  0  0  0  0
 40 41  1  0  0  0  0
 42 47  1  0  0  0  0
 43 44  1  0  0  0  0
 44 41  1  0  0  0  0
 44 47  2  0  0  0  0
 45 42  2  0  0  0  0
 46 43  2  0  0  0  0
 46 45  1  0  0  0  0
M  END
>  <MODEL>
5

>  <REMARK>
 VINA RESULT:      -5.6      4.137      7.839
  Name = 
  8 active torsions:
  status: ('A' for Active; 'I' for Inactive)
    1  A    between atoms: C_3  and  C_6
    2  A    between atoms: C_3  and  C_25
    3  A    between atoms: C_5  and  C_40
    4  A    between atoms: C_10  and  C_33
    5  A    between atoms: C_10  and  C_40
    6  A    between atoms: C_19  and  C_25
    7  A    between atoms: C_23  and  C_46
    8  A    between atoms: C_33  and  C_46
                            x       y       z     vdW  Elec       q    Type
                         _______ _______ _______ _____ _____    ______ ____

>  <TORSDO>
F 8

$$$$
=
 OpenBabel10232411473D

 47 51  0  0  1  0  0  0  0  0999 V2000
  183.3860  173.1810  135.1860 O   0  0  0  0  0  0  0  0  0  0  0  0
  186.8500  178.6320  140.5260 S   0  0  0  0  0  0  0  0  0  0  0  0
  183.5780  174.0800  137.3530 C   0  0  0  0  0  2  0  0  0  0  0  0
  191.2050  174.9570  136.5910 C   0  0  2  0  0  3  0  0  0  0  0  0
  189.8120  173.0230  137.2330 N   0  0  0  0  0  2  0  0  0  0  0  0
  191.4390  177.2650  141.1550 C   0  0  0  0  0  0  0  0  0  0  0  0
  188.6610  177.3620  142.2900 C   0  0  0  0  0  0  0  0  0  0  0  0
  188.8170  178.6990  138.4160 S   0  0  0  0  0  0  0  0  0  0  0  0
  188.5720  172.5380  136.8220 N   0  0  0  0  0  0  0  0  0  0  0  0
  182.7370  175.3160  137.3200 C   0  0  0  0  0  3  0  0  0  0  0  0
  184.5970  176.9140  137.7610 C   0  0  0  0  0  0  0  0  0  0  0  0
  183.1880  176.5670  137.4640 C   0  0  0  0  0  0  0  0  0  0  0  0
  191.2160  177.1400  137.6140 N   0  0  0  0  0  0  0  0  0  0  0  0
  186.4150  173.1320  136.0720 N   0  0  0  0  0  2  0  0  0  0  0  0
  189.9040  174.4730  137.2360 C   0  0  2  0  0  3  0  0  0  0  0  0
  187.4880  176.7600  142.9850 C   0  0  0  0  0  1  0  0  0  0  0  0
  191.1940  176.5820  138.9000 N   0  0  0  0  0  2  0  0  0  0  0  0
  189.3910  178.0110  139.9730 C   0  0  0  0  0  0  0  0  0  0  0  0
  191.2500  176.4170  136.5620 N   0  0  0  0  0  0  0  0  0  0  0  0
  192.6160  176.5880  141.1770 F   0  0  0  0  0  0  0  0  0  0  0  0
  190.7060  177.3000  140.0370 C   0  0  0  0  0  0  0  0  0  0  0  0
  185.0490  178.2570  137.5110 N   0  0  0  0  0  0  0  0  0  0  0  0
  187.7640  173.4460  136.4080 C   0  0  0  0  0  0  0  0  0  0  0  0
  187.1440  178.1310  138.8110 C   0  0  2  0  0  3  0  0  0  0  0  0
  189.8030  177.3640  142.9150 N   0  0  0  0  0  0  0  0  0  0  0  0
  186.1560  178.8070  137.9180 C   0  0  0  0  0  3  0  0  0  0  0  0
  191.0140  177.9800  142.3950 C   0  0  0  0  0  2  0  0  0  0  0  0
  188.4070  175.1140  136.4020 S   0  0  0  0  0  0  0  0  0  0  0  0
  185.4870  174.1510  135.6130 C   0  0  0  0  0  2  0  0  0  0  0  0
  185.3870  176.0480  138.2270 O   0  0  0  0  0  0  0  0  0  0  0  0
  188.4750  178.0060  140.9640 C   0  0  0  0  0  0  0  0  0  0  0  0
  184.0960  173.7680  135.9890 C   0  0  0  0  0  0  0  0  0  0  0  0
  182.1910  177.6770  137.3320 C   0  0  0  0  0  2  0  0  0  0  0  0
  180.9670  177.4200  138.2060 C   0  0  0  0  0  2  0  0  0  0  0  0
  180.7430  178.5640  139.1870 C   0  0  0  0  0  3  0  0  0  0  0  0
  180.7410  178.0050  140.5960 C   0  0  0  0  0  1  0  0  0  0  0  0
  181.8710  179.5790  139.0560 C   0  0  0  0  0  1  0  0  0  0  0  0
  191.3630  174.4140  135.1710 C   0  0  0  0  0  2  0  0  0  0  0  0
  192.8110  174.0460  134.8930 C   0  0  0  0  0  2  0  0  0  0  0  0
  193.0710  172.6010  135.2900 C   0  0  0  0  0  2  0  0  0  0  0  0
  194.0150  172.5270  136.4890 C   0  0  0  0  0  2  0  0  0  0  0  0
  193.9620  168.7300  136.6050 C   0  0  0  0  0  3  0  0  0  0  0  0
  195.4180  170.8460  137.7240 C   0  0  0  0  0  3  0  0  0  0  0  0
  194.3600  171.1150  136.8490 C   0  0  0  0  0  0  0  0  0  0  0  0
  195.0210  168.4620  137.4770 C   0  0  0  0  0  3  0  0  0  0  0  0
  195.7500  169.5200  138.0370 C   0  0  0  0  0  3  0  0  0  0  0  0
  193.6310  170.0550  136.2930 C   0  0  0  0  0  3  0  0  0  0  0  0
  1 32  2  0  0  0  0
  2 31  1  0  0  0  0
  4 38  1  6  0  0  0
  4 15  1  0  0  0  0
  5 15  1  0  0  0  0
  6 20  1  0  0  0  0
  6 27  1  0  0  0  0
  7 25  2  0  0  0  0
  7 16  1  0  0  0  0
  8 24  1  0  0  0  0
  8 18  1  0  0  0  0
  9  5  1  0  0  0  0
 10  3  1  0  0  0  0
 10 12  2  0  0  0  0
 11 30  2  0  0  0  0
 12 11  1  0  0  0  0
 13 17  1  0  0  0  0
 14 23  1  0  0  0  0
 15 28  1  6  0  0  0
 17 21  1  0  0  0  0
 18 21  1  0  0  0  0
 18 31  2  0  0  0  0
 19  4  1  0  0  0  0
 19 13  2  0  0  0  0
 21  6  2  0  0  0  0
 22 11  1  0  0  0  0
 22 26  2  0  0  0  0
 23  9  2  0  0  0  0
 24 26  1  6  0  0  0
 24  2  1  0  0  0  0
 27 25  1  0  0  0  0
 28 23  1  0  0  0  0
 29 32  1  0  0  0  0
 29 14  1  0  0  0  0
 31  7  1  0  0  0  0
 32  3  1  0  0  0  0
 33 12  1  0  0  0  0
 33 34  1  0  0  0  0
 34 35  1  0  0  0  0
 35 36  1  0  0  0  0
 37 35  1  0  0  0  0
 39 38  1  0  0  0  0
 39 40  1  0  0  0  0
 40 41  1  0  0  0  0
 41 44  1  0  0  0  0
 42 45  1  0  0  0  0
 43 46  1  0  0  0  0
 44 43  2  0  0  0  0
 45 46  2  0  0  0  0
 47 42  2  0  0  0  0
 47 44  1  0  0  0  0
M  END
>  <MODEL>
6

>  <REMARK>
 VINA RESULT:      -5.1      3.708      9.891
  Name = 
  8 active torsions:
  status: ('A' for Active; 'I' for Inactive)
    1  A    between atoms: C_3  and  C_6
    2  A    between atoms: C_3  and  C_25
    3  A    between atoms: C_5  and  C_40
    4  A    between atoms: C_10  and  C_33
    5  A    between atoms: C_10  and  C_40
    6  A    between atoms: C_19  and  C_25
    7  A    between atoms: C_23  and  C_46
    8  A    between atoms: C_33  and  C_46
                            x       y       z     vdW  Elec       q    Type
                         _______ _______ _______ _____ _____    ______ ____

>  <TORSDO>
F 8

$$$$
=
 OpenBabel10232411473D

 47 51  0  0  1  0  0  0  0  0999 V2000
  190.0290  177.5790  141.0560 O   0  0  0  0  0  0  0  0  0  0  0  0
  181.9410  179.6750  140.4150 S   0  0  0  0  0  0  0  0  0  0  0  0
  188.3010  179.1590  141.2950 C   0  0  0  0  0  2  0  0  0  0  0  0
  184.8220  176.7070  134.8600 C   0  0  2  0  0  3  0  0  0  0  0  0
  186.6770  178.2890  135.2450 N   0  0  0  0  0  2  0  0  0  0  0  0
  180.9160  179.9080  135.7010 C   0  0  0  0  0  0  0  0  0  0  0  0
  181.4810  181.4180  138.2340 C   0  0  0  0  0  0  0  0  0  0  0  0
  181.9870  177.3720  138.6770 S   0  0  0  0  0  0  0  0  0  0  0  0
  187.7480  178.3340  136.1360 N   0  0  0  0  0  0  0  0  0  0  0  0
  187.6570  178.8130  142.5990 C   0  0  0  0  0  3  0  0  0  0  0  0
  185.4220  178.2530  141.6520 C   0  0  0  0  0  0  0  0  0  0  0  0
  186.4020  178.3810  142.7550 C   0  0  0  0  0  0  0  0  0  0  0  0
  182.6160  176.7940  135.8300 N   0  0  0  0  0  0  0  0  0  0  0  0
  188.4620  177.8320  138.3280 N   0  0  0  0  0  2  0  0  0  0  0  0
  185.4660  177.7190  135.8110 C   0  0  2  0  0  3  0  0  0  0  0  0
  182.1470  182.4960  139.0170 C   0  0  0  0  0  1  0  0  0  0  0  0
  182.5280  178.1760  135.6060 N   0  0  0  0  0  2  0  0  0  0  0  0
  181.6470  178.9360  137.8620 C   0  0  0  0  0  0  0  0  0  0  0  0
  183.6350  176.1130  135.4730 N   0  0  0  0  0  0  0  0  0  0  0  0
  180.9760  179.9670  134.3460 F   0  0  0  0  0  0  0  0  0  0  0  0
  181.6610  179.0200  136.3680 C   0  0  0  0  0  0  0  0  0  0  0  0
  184.2590  177.4280  141.8460 N   0  0  0  0  0  0  0  0  0  0  0  0
  187.5180  177.7630  137.2620 C   0  0  0  0  0  0  0  0  0  0  0  0
  182.9580  178.2600  139.9210 C   0  0  2  0  0  3  0  0  0  0  0  0
  180.7490  181.7690  137.2160 N   0  0  0  0  0  0  0  0  0  0  0  0
  183.1920  177.3790  141.1030 C   0  0  0  0  0  3  0  0  0  0  0  0
  179.9820  180.8360  136.4060 C   0  0  0  0  0  2  0  0  0  0  0  0
  185.9100  176.9990  137.4330 S   0  0  0  0  0  0  0  0  0  0  0  0
  188.2110  177.2010  139.6110 C   0  0  0  0  0  2  0  0  0  0  0  0
  185.6030  178.8580  140.5590 O   0  0  0  0  0  0  0  0  0  0  0  0
  181.6010  180.0060  138.6830 C   0  0  0  0  0  0  0  0  0  0  0  0
  188.9250  177.9480  140.6860 C   0  0  0  0  0  0  0  0  0  0  0  0
  185.9650  178.0230  144.1430 C   0  0  0  0  0  2  0  0  0  0  0  0
  187.0410  177.2170  144.8640 C   0  0  0  0  0  2  0  0  0  0  0  0
  186.9740  177.4360  146.3710 C   0  0  0  0  0  3  0  0  0  0  0  0
  188.3590  177.8000  146.8710 C   0  0  0  0  0  1  0  0  0  0  0  0
  186.0170  178.5800  146.6790 C   0  0  0  0  0  1  0  0  0  0  0  0
  185.8010  175.6000  134.4710 C   0  0  0  0  0  2  0  0  0  0  0  0
  185.4230  174.2870  135.1370 C   0  0  0  0  0  2  0  0  0  0  0  0
  186.5740  173.7820  135.9940 C   0  0  0  0  0  2  0  0  0  0  0  0
  187.8310  173.5760  135.1520 C   0  0  0  0  0  2  0  0  0  0  0  0
  190.4540  176.1430  136.1320 C   0  0  0  0  0  3  0  0  0  0  0  0
  189.8610  173.4490  136.6290 C   0  0  0  0  0  3  0  0  0  0  0  0
  189.0390  174.1990  135.7790 C   0  0  0  0  0  0  0  0  0  0  0  0
  191.2730  175.3950  136.9830 C   0  0  0  0  0  3  0  0  0  0  0  0
  190.9770  174.0480  137.2320 C   0  0  0  0  0  3  0  0  0  0  0  0
  189.3390  175.5450  135.5300 C   0  0  0  0  0  3  0  0  0  0  0  0
  3 10  1  0  0  0  0
  4 38  1  1  0  0  0
  4 19  1  0  0  0  0
  4 15  1  0  0  0  0
  5  9  1  0  0  0  0
  6 21  2  0  0  0  0
  6 27  1  0  0  0  0
  7 31  1  0  0  0  0
  7 16  1  0  0  0  0
  8 24  1  0  0  0  0
  9 23  2  0  0  0  0
 10 12  2  0  0  0  0
 11 22  1  0  0  0  0
 11 12  1  0  0  0  0
 12 33  1  0  0  0  0
 14 29  1  0  0  0  0
 15  5  1  6  0  0  0
 15 28  1  0  0  0  0
 17 13  1  0  0  0  0
 17 21  1  0  0  0  0
 18  8  1  0  0  0  0
 18 31  2  0  0  0  0
 19 13  2  0  0  0  0
 20  6  1  0  0  0  0
 21 18  1  0  0  0  0
 23 28  1  0  0  0  0
 23 14  1  0  0  0  0
 24  2  1  0  0  0  0
 24 26  1  1  0  0  0
 25  7  2  0  0  0  0
 26 22  2  0  0  0  0
 27 25  1  0  0  0  0
 29 32  1  0  0  0  0
 30 11  2  0  0  0  0
 31  2  1  0  0  0  0
 32  1  2  0  0  0  0
 32  3  1  0  0  0  0
 33 34  1  0  0  0  0
 34 35  1  0  0  0  0
 35 37  1  0  0  0  0
 35 36  1  0  0  0  0
 38 39  1  0  0  0  0
 39 40  1  0  0  0  0
 41 44  1  0  0  0  0
 41 40  1  0  0  0  0
 42 45  1  0  0  0  0
 43 46  1  0  0  0  0
 44 43  2  0  0  0  0
 45 46  2  0  0  0  0
 47 44  1  0  0  0  0
 47 42  2  0  0  0  0
M  END
>  <MODEL>
7

>  <REMARK>
 VINA RESULT:      -4.9      3.039      8.150
  Name = 
  8 active torsions:
  status: ('A' for Active; 'I' for Inactive)
    1  A    between atoms: C_3  and  C_6
    2  A    between atoms: C_3  and  C_25
    3  A    between atoms: C_5  and  C_40
    4  A    between atoms: C_10  and  C_33
    5  A    between atoms: C_10  and  C_40
    6  A    between atoms: C_19  and  C_25
    7  A    between atoms: C_23  and  C_46
    8  A    between atoms: C_33  and  C_46
                            x       y       z     vdW  Elec       q    Type
                         _______ _______ _______ _____ _____    ______ ____

>  <TORSDO>
F 8

$$$$
