=
 OpenBabel10232408213D

 30 35  0  0  1  0  0  0  0  0999 V2000
  190.3780  176.8970  138.7260 C   0  0  1  0  0  3  0  0  0  0  0  0
  190.7790  176.5950  142.2470 C   0  0  0  0  0  0  0  0  0  0  0  0
  191.7990  177.6890  140.6290 N   0  0  0  0  0  0  0  0  0  0  0  0
  190.7700  176.9490  140.1670 C   0  0  0  0  0  0  0  0  0  0  0  0
  190.1180  176.2640  141.1240 N   0  0  0  0  0  0  0  0  0  0  0  0
  191.8090  177.4690  141.9580 C   0  0  0  0  0  2  0  0  0  0  0  0
  188.7330  177.9680  146.0240 C   0  0  0  0  0  3  0  0  0  0  0  0
  189.0600  176.5720  144.0200 C   0  0  0  0  0  0  0  0  0  0  0  0
  187.3520  177.9340  145.7030 C   0  0  0  0  0  3  0  0  0  0  0  0
  191.2900  176.8670  144.8620 S   0  0  0  0  0  0  0  0  0  0  0  0
  186.8570  177.2350  144.5590 C   0  0  0  0  0  3  0  0  0  0  0  0
  189.5520  177.2710  145.1540 C   0  0  0  0  0  0  0  0  0  0  0  0
  190.3980  176.0770  143.6040 C   0  0  2  0  0  3  0  0  0  0  0  0
  187.7170  176.5300  143.6840 C   0  0  0  0  0  3  0  0  0  0  0  0
  189.6210  178.0900  138.3730 N   0  0  0  0  0  2  0  0  0  0  0  0
  189.1570  177.9380  137.0040 C   0  0  0  0  0  2  0  0  0  0  0  0
  187.7410  178.4710  136.8770 C   0  0  1  0  0  0  0  0  0  0  0  0
  187.1530  178.2390  135.5010 C   0  0  0  0  0  2  0  0  0  0  0  0
  186.8390  177.2730  136.6240 C   0  0  2  0  0  3  0  0  0  0  0  0
  186.8320  177.9590  137.9740 C   0  0  2  0  0  3  0  0  0  0  0  0
  185.6740  178.8290  138.0840 N   0  0  0  0  0  2  0  0  0  0  0  0
  183.8690  179.3870  139.5160 C   0  0  2  0  0  3  0  0  0  0  0  0
  184.9840  178.4710  139.3100 C   0  0  2  0  0  3  0  0  0  0  0  0
  185.1280  178.9310  141.6110 C   0  0  0  0  0  1  0  0  0  0  0  0
  185.1350  179.5600  140.2910 N   0  0  0  0  0  0  0  0  0  0  0  0
  181.9160  178.1490  140.7800 N   0  0  0  0  0  0  0  0  0  0  0  0
  182.7750  178.6960  140.2270 C   0  0  0  0  0  0  0  0  0  0  0  0
  191.5260  176.8180  137.9340 O   0  0  0  0  0  0  0  0  0  0  0  0
  190.7670  174.6950  137.1780 C   0  0  0  0  0  1  0  0  0  0  0  0
  191.8500  175.4610  137.9090 C   0  0  0  0  0  2  0  0  0  0  0  0
  1 28  1  6  0  0  0
  1  4  1  0  0  0  0
  3  6  1  0  0  0  0
  4  3  2  0  0  0  0
  4  5  1  0  0  0  0
  5  2  2  0  0  0  0
  6  2  1  0  0  0  0
  8 12  1  0  0  0  0
  9  7  1  0  0  0  0
 10 12  1  0  0  0  0
 11  9  2  0  0  0  0
 12  7  2  0  0  0  0
 13  2  1  6  0  0  0
 13  8  1  0  0  0  0
 13 10  1  0  0  0  0
 14  8  2  0  0  0  0
 14 11  1  0  0  0  0
 15  1  1  0  0  0  0
 16 15  1  0  0  0  0
 17 16  1  1  0  0  0
 17 20  1  0  0  0  0
 18 17  1  0  0  0  0
 19 18  1  6  0  0  0
 19 17  1  0  0  0  0
 19 20  1  0  0  0  0
 20 21  1  6  0  0  0
 22 27  1  1  0  0  0
 22 25  1  0  0  0  0
 23 21  1  6  0  0  0
 23 22  1  0  0  0  0
 23 25  1  0  0  0  0
 25 24  1  0  0  0  0
 27 26  3  0  0  0  0
 29 30  1  0  0  0  0
 30 28  1  0  0  0  0
M  END
>  <MODEL>
1

>  <REMARK>
 VINA RESULT:      -7.4      0.000      0.000
  Name = 
  10 active torsions:
  status: ('A' for Active; 'I' for Inactive)
    1  A    between atoms: C_1  and  C_18
    2  A    between atoms: C_3  and  N_21
    3  A    between atoms: C_7  and  C_24
    4  A    between atoms: C_8  and  C_28
    5  A    between atoms: N_11  and  C_28
    6  A    between atoms: N_11  and  C_29
    7  A    between atoms: C_14  and  C_29
    8  A    between atoms: N_21  and  C_27
    9  A    between atoms: O_23  and  C_29
   10  A    between atoms: O_23  and  C_30
                            x       y       z     vdW  Elec       q    Type
                         _______ _______ _______ _____ _____    ______ ____

>  <TORSDO>
F 10

$$$$
=
 OpenBabel10232408213D

 30 35  0  0  1  0  0  0  0  0999 V2000
  190.3230  177.3560  141.9930 C   0  0  1  0  0  3  0  0  0  0  0  0
  189.4240  177.6730  138.5670 C   0  0  0  0  0  0  0  0  0  0  0  0
  190.6740  176.2980  139.7510 N   0  0  0  0  0  0  0  0  0  0  0  0
  190.1150  177.2580  140.5170 C   0  0  0  0  0  0  0  0  0  0  0  0
  189.3410  178.1200  139.8320 N   0  0  0  0  0  0  0  0  0  0  0  0
  190.2350  176.5560  138.5050 C   0  0  0  0  0  2  0  0  0  0  0  0
  186.0900  176.8120  135.6550 C   0  0  0  0  0  3  0  0  0  0  0  0
  187.2430  178.0260  137.4620 C   0  0  0  0  0  0  0  0  0  0  0  0
  184.9080  177.0010  136.4140 C   0  0  0  0  0  3  0  0  0  0  0  0
  189.0140  177.5030  135.9250 S   0  0  0  0  0  0  0  0  0  0  0  0
  184.9150  177.6840  137.6700 C   0  0  0  0  0  3  0  0  0  0  0  0
  187.2370  177.3420  136.2180 C   0  0  0  0  0  0  0  0  0  0  0  0
  188.7000  178.3190  137.4220 C   0  0  2  0  0  3  0  0  0  0  0  0
  186.1030  178.2170  138.2240 C   0  0  0  0  0  3  0  0  0  0  0  0
  190.0320  176.0750  142.6230 N   0  0  0  0  0  2  0  0  0  0  0  0
  188.5930  175.9810  142.8050 C   0  0  0  0  0  2  0  0  0  0  0  0
  188.0840  177.2150  143.5290 C   0  0  1  0  0  0  0  0  0  0  0  0
  186.8640  177.8170  142.8640 C   0  0  0  0  0  2  0  0  0  0  0  0
  186.6910  176.8820  144.0420 C   0  0  2  0  0  3  0  0  0  0  0  0
  187.8580  176.9650  145.0050 C   0  0  2  0  0  3  0  0  0  0  0  0
  187.8320  178.2350  145.7080 N   0  0  0  0  0  2  0  0  0  0  0  0
  189.3110  176.8500  146.9390 C   0  0  2  0  0  3  0  0  0  0  0  0
  188.9440  178.2290  146.6430 C   0  0  2  0  0  3  0  0  0  0  0  0
  189.2910  178.2880  148.9670 C   0  0  0  0  0  1  0  0  0  0  0  0
  188.5060  177.6380  147.9200 N   0  0  0  0  0  0  0  0  0  0  0  0
  191.8930  176.7030  147.4510 N   0  0  0  0  0  0  0  0  0  0  0  0
  190.7580  176.7650  147.2240 C   0  0  0  0  0  0  0  0  0  0  0  0
  191.6460  177.7170  142.2540 O   0  0  0  0  0  0  0  0  0  0  0  0
  191.3180  179.2710  144.0240 C   0  0  0  0  0  1  0  0  0  0  0  0
  191.7120  177.8590  143.6400 C   0  0  0  0  0  2  0  0  0  0  0  0
  1 28  1  6  0  0  0
  1 15  1  0  0  0  0
  2  5  2  0  0  0  0
  3  4  2  0  0  0  0
  4  1  1  0  0  0  0
  5  4  1  0  0  0  0
  6  2  1  0  0  0  0
  6  3  1  0  0  0  0
  7 12  2  0  0  0  0
  7  9  1  0  0  0  0
  8 14  2  0  0  0  0
  9 11  2  0  0  0  0
 10 12  1  0  0  0  0
 10 13  1  0  0  0  0
 11 14  1  0  0  0  0
 12  8  1  0  0  0  0
 13  8  1  0  0  0  0
 13  2  1  1  0  0  0
 15 16  1  0  0  0  0
 17 16  1  6  0  0  0
 17 19  1  0  0  0  0
 17 20  1  0  0  0  0
 18 17  1  0  0  0  0
 19 18  1  1  0  0  0
 19 20  1  0  0  0  0
 20 21  1  1  0  0  0
 22 27  1  1  0  0  0
 22 25  1  0  0  0  0
 23 21  1  6  0  0  0
 23 22  1  0  0  0  0
 23 25  1  0  0  0  0
 25 24  1  0  0  0  0
 27 26  3  0  0  0  0
 28 30  1  0  0  0  0
 30 29  1  0  0  0  0
M  END
>  <MODEL>
2

>  <REMARK>
 VINA RESULT:      -7.3      3.087      7.391
  Name = 
  10 active torsions:
  status: ('A' for Active; 'I' for Inactive)
    1  A    between atoms: C_1  and  C_18
    2  A    between atoms: C_3  and  N_21
    3  A    between atoms: C_7  and  C_24
    4  A    between atoms: C_8  and  C_28
    5  A    between atoms: N_11  and  C_28
    6  A    between atoms: N_11  and  C_29
    7  A    between atoms: C_14  and  C_29
    8  A    between atoms: N_21  and  C_27
    9  A    between atoms: O_23  and  C_29
   10  A    between atoms: O_23  and  C_30
                            x       y       z     vdW  Elec       q    Type
                         _______ _______ _______ _____ _____    ______ ____

>  <TORSDO>
F 10

$$$$
=
 OpenBabel10232408213D

 30 35  0  0  1  0  0  0  0  0999 V2000
  187.1550  177.5940  145.7480 C   0  0  1  0  0  3  0  0  0  0  0  0
  184.7900  178.9010  143.4360 C   0  0  0  0  0  0  0  0  0  0  0  0
  184.8180  178.4820  145.5990 N   0  0  0  0  0  0  0  0  0  0  0  0
  185.9870  178.1600  145.0070 C   0  0  0  0  0  0  0  0  0  0  0  0
  186.0130  178.4020  143.6830 N   0  0  0  0  0  0  0  0  0  0  0  0
  184.0500  178.9590  144.6010 C   0  0  0  0  0  2  0  0  0  0  0  0
  182.7640  177.2570  139.7570 C   0  0  0  0  0  3  0  0  0  0  0  0
  183.0360  178.7440  141.7030 C   0  0  0  0  0  0  0  0  0  0  0  0
  181.3920  177.2100  140.1080 C   0  0  0  0  0  3  0  0  0  0  0  0
  185.2640  178.5700  140.8210 S   0  0  0  0  0  0  0  0  0  0  0  0
  180.8740  177.9150  141.2390 C   0  0  0  0  0  3  0  0  0  0  0  0
  183.5520  178.0390  140.5830 C   0  0  0  0  0  0  0  0  0  0  0  0
  184.3460  179.3420  142.0710 C   0  0  2  0  0  3  0  0  0  0  0  0
  181.7010  178.7070  142.0680 C   0  0  0  0  0  3  0  0  0  0  0  0
  188.3960  177.9850  145.0940 N   0  0  0  0  0  2  0  0  0  0  0  0
  188.9130  176.8260  144.3850 C   0  0  0  0  0  2  0  0  0  0  0  0
  190.2700  177.1520  143.7850 C   0  0  1  0  0  0  0  0  0  0  0  0
  191.4170  176.7480  144.6880 C   0  0  0  0  0  2  0  0  0  0  0  0
  190.9850  175.8270  143.5670 C   0  0  2  0  0  3  0  0  0  0  0  0
  190.4290  176.5970  142.3860 C   0  0  2  0  0  3  0  0  0  0  0  0
  191.4990  177.3060  141.7070 N   0  0  0  0  0  2  0  0  0  0  0  0
  189.6370  177.5050  140.2530 C   0  0  2  0  0  3  0  0  0  0  0  0
  191.0930  177.4690  140.3230 C   0  0  2  0  0  3  0  0  0  0  0  0
  190.6440  176.1220  138.4490 C   0  0  0  0  0  1  0  0  0  0  0  0
  190.3750  176.2610  139.8790 N   0  0  0  0  0  0  0  0  0  0  0  0
  188.8680  179.0230  138.2390 N   0  0  0  0  0  0  0  0  0  0  0  0
  189.2090  178.3570  139.1250 C   0  0  0  0  0  0  0  0  0  0  0  0
  187.1470  178.0690  147.0620 O   0  0  0  0  0  0  0  0  0  0  0  0
  189.0530  178.1890  148.4780 C   0  0  0  0  0  1  0  0  0  0  0  0
  188.0920  177.2890  147.7290 C   0  0  0  0  0  2  0  0  0  0  0  0
  1 15  1  6  0  0  0
  1 28  1  0  0  0  0
  2  5  2  0  0  0  0
  2  6  1  0  0  0  0
  4  3  2  0  0  0  0
  4  1  1  0  0  0  0
  5  4  1  0  0  0  0
  6  3  1  0  0  0  0
  7  9  2  0  0  0  0
  7 12  1  0  0  0  0
  8 14  1  0  0  0  0
  8 13  1  0  0  0  0
  9 11  1  0  0  0  0
 10 13  1  0  0  0  0
 11 14  2  0  0  0  0
 12 10  1  0  0  0  0
 12  8  2  0  0  0  0
 13  2  1  1  0  0  0
 16 15  1  0  0  0  0
 17 16  1  1  0  0  0
 17 18  1  0  0  0  0
 19 17  1  0  0  0  0
 19 18  1  6  0  0  0
 20 21  1  6  0  0  0
 20 19  1  0  0  0  0
 20 17  1  0  0  0  0
 22 27  1  6  0  0  0
 22 23  1  0  0  0  0
 23 21  1  1  0  0  0
 24 25  1  0  0  0  0
 25 22  1  0  0  0  0
 25 23  1  0  0  0  0
 26 27  3  0  0  0  0
 28 30  1  0  0  0  0
 30 29  1  0  0  0  0
M  END
>  <MODEL>
3

>  <REMARK>
 VINA RESULT:      -7.2      3.110      7.749
  Name = 
  10 active torsions:
  status: ('A' for Active; 'I' for Inactive)
    1  A    between atoms: C_1  and  C_18
    2  A    between atoms: C_3  and  N_21
    3  A    between atoms: C_7  and  C_24
    4  A    between atoms: C_8  and  C_28
    5  A    between atoms: N_11  and  C_28
    6  A    between atoms: N_11  and  C_29
    7  A    between atoms: C_14  and  C_29
    8  A    between atoms: N_21  and  C_27
    9  A    between atoms: O_23  and  C_29
   10  A    between atoms: O_23  and  C_30
                            x       y       z     vdW  Elec       q    Type
                         _______ _______ _______ _____ _____    ______ ____

>  <TORSDO>
F 10

$$$$
=
 OpenBabel10232408213D

 30 35  0  0  1  0  0  0  0  0999 V2000
  185.4720  178.7650  141.1760 C   0  0  1  0  0  3  0  0  0  0  0  0
  188.5290  178.2430  139.4350 C   0  0  0  0  0  0  0  0  0  0  0  0
  187.9060  178.3110  141.5470 N   0  0  0  0  0  0  0  0  0  0  0  0
  186.8700  178.5230  140.7090 C   0  0  0  0  0  0  0  0  0  0  0  0
  187.2080  178.4880  139.4060 N   0  0  0  0  0  0  0  0  0  0  0  0
  188.9680  178.1290  140.7390 C   0  0  0  0  0  2  0  0  0  0  0  0
  188.6550  175.8530  135.6110 C   0  0  0  0  0  3  0  0  0  0  0  0
  188.5140  177.8910  136.9890 C   0  0  0  0  0  0  0  0  0  0  0  0
  187.6680  176.4570  134.7920 C   0  0  0  0  0  3  0  0  0  0  0  0
  190.1550  176.5590  138.1320 S   0  0  0  0  0  0  0  0  0  0  0  0
  187.1240  177.7460  135.0850 C   0  0  0  0  0  3  0  0  0  0  0  0
  189.0500  176.6080  136.7020 C   0  0  0  0  0  0  0  0  0  0  0  0
  189.3610  178.0980  138.1930 C   0  0  2  0  0  3  0  0  0  0  0  0
  187.5460  178.4980  136.2070 C   0  0  0  0  0  3  0  0  0  0  0  0
  185.4880  179.4430  142.4650 N   0  0  0  0  0  2  0  0  0  0  0  0
  185.1770  178.4630  143.4910 C   0  0  0  0  0  2  0  0  0  0  0  0
  186.1100  178.6420  144.6750 C   0  0  1  0  0  0  0  0  0  0  0  0
  185.3680  178.9290  145.9640 C   0  0  0  0  0  2  0  0  0  0  0  0
  185.8070  177.5140  145.6500 C   0  0  2  0  0  3  0  0  0  0  0  0
  187.0770  177.4870  144.8250 C   0  0  2  0  0  3  0  0  0  0  0  0
  188.2060  177.9090  145.6370 N   0  0  0  0  0  2  0  0  0  0  0  0
  190.5500  177.5820  145.7740 C   0  0  2  0  0  3  0  0  0  0  0  0
  189.2840  176.9680  145.3920 C   0  0  2  0  0  3  0  0  0  0  0  0
  190.7040  176.3360  143.6280 C   0  0  0  0  0  1  0  0  0  0  0  0
  190.1630  177.4960  144.3330 N   0  0  0  0  0  0  0  0  0  0  0  0
  192.2270  175.7280  146.6090 N   0  0  0  0  0  0  0  0  0  0  0  0
  191.4910  176.5450  146.2440 C   0  0  0  0  0  0  0  0  0  0  0  0
  184.7980  179.5520  140.2400 O   0  0  0  0  0  0  0  0  0  0  0  0
  183.4000  177.6300  140.1440 C   0  0  0  0  0  1  0  0  0  0  0  0
  183.4690  179.1340  140.3120 C   0  0  0  0  0  2  0  0  0  0  0  0
  1 28  1  6  0  0  0
  1 15  1  0  0  0  0
  2  6  1  0  0  0  0
  4  1  1  0  0  0  0
  4  3  2  0  0  0  0
  5  2  2  0  0  0  0
  5  4  1  0  0  0  0
  6  3  1  0  0  0  0
  7 12  1  0  0  0  0
  8 13  1  0  0  0  0
  9 11  1  0  0  0  0
  9  7  2  0  0  0  0
 10 13  1  0  0  0  0
 11 14  2  0  0  0  0
 12  8  2  0  0  0  0
 12 10  1  0  0  0  0
 13  2  1  1  0  0  0
 14  8  1  0  0  0  0
 15 16  1  0  0  0  0
 17 16  1  6  0  0  0
 17 20  1  0  0  0  0
 17 19  1  0  0  0  0
 17 18  1  0  0  0  0
 19 18  1  1  0  0  0
 20 21  1  1  0  0  0
 20 19  1  0  0  0  0
 22 27  1  6  0  0  0
 23 21  1  1  0  0  0
 23 22  1  0  0  0  0
 24 25  1  0  0  0  0
 25 23  1  0  0  0  0
 25 22  1  0  0  0  0
 27 26  3  0  0  0  0
 28 30  1  0  0  0  0
 29 30  1  0  0  0  0
M  END
>  <MODEL>
4

>  <REMARK>
 VINA RESULT:      -7.1      2.882      7.912
  Name = 
  10 active torsions:
  status: ('A' for Active; 'I' for Inactive)
    1  A    between atoms: C_1  and  C_18
    2  A    between atoms: C_3  and  N_21
    3  A    between atoms: C_7  and  C_24
    4  A    between atoms: C_8  and  C_28
    5  A    between atoms: N_11  and  C_28
    6  A    between atoms: N_11  and  C_29
    7  A    between atoms: C_14  and  C_29
    8  A    between atoms: N_21  and  C_27
    9  A    between atoms: O_23  and  C_29
   10  A    between atoms: O_23  and  C_30
                            x       y       z     vdW  Elec       q    Type
                         _______ _______ _______ _____ _____    ______ ____

>  <TORSDO>
F 10

$$$$
=
 OpenBabel10232408213D

 30 35  0  0  1  0  0  0  0  0999 V2000
  185.3540  179.3920  141.7800 C   0  0  1  0  0  3  0  0  0  0  0  0
  188.1190  177.2360  142.3780 C   0  0  0  0  0  0  0  0  0  0  0  0
  187.5750  178.7180  140.8400 N   0  0  0  0  0  0  0  0  0  0  0  0
  186.6210  178.5990  141.7860 C   0  0  0  0  0  0  0  0  0  0  0  0
  186.9140  177.7030  142.7470 N   0  0  0  0  0  0  0  0  0  0  0  0
  188.5360  177.8520  141.2140 C   0  0  0  0  0  2  0  0  0  0  0  0
  191.5160  176.9490  145.3300 C   0  0  0  0  0  3  0  0  0  0  0  0
  189.1980  176.6960  144.5330 C   0  0  0  0  0  0  0  0  0  0  0  0
  190.9450  177.3660  146.5590 C   0  0  0  0  0  3  0  0  0  0  0  0
  190.5150  176.0640  142.6250 S   0  0  0  0  0  0  0  0  0  0  0  0
  189.5300  177.4460  146.7480 C   0  0  0  0  0  3  0  0  0  0  0  0
  190.6040  176.6220  144.3430 C   0  0  0  0  0  0  0  0  0  0  0  0
  188.8750  176.2070  143.1670 C   0  0  2  0  0  3  0  0  0  0  0  0
  188.6180  177.1060  145.7210 C   0  0  0  0  0  3  0  0  0  0  0  0
  184.8570  179.5240  140.4170 N   0  0  0  0  0  2  0  0  0  0  0  0
  183.6410  178.7360  140.3050 C   0  0  0  0  0  2  0  0  0  0  0  0
  183.8670  177.5690  139.3600 C   0  0  1  0  0  0  0  0  0  0  0  0
  182.5860  176.8320  139.0290 C   0  0  0  0  0  2  0  0  0  0  0  0
  183.1120  177.8870  138.0780 C   0  0  2  0  0  3  0  0  0  0  0  0
  184.6230  177.9760  138.1140 C   0  0  2  0  0  3  0  0  0  0  0  0
  185.2050  176.7950  137.4990 N   0  0  0  0  0  2  0  0  0  0  0  0
  186.8710  178.2030  136.5700 C   0  0  2  0  0  3  0  0  0  0  0  0
  186.6350  177.0260  137.3980 C   0  0  2  0  0  3  0  0  0  0  0  0
  188.4380  176.3450  136.0520 C   0  0  0  0  0  1  0  0  0  0  0  0
  187.0630  176.8360  136.0000 N   0  0  0  0  0  0  0  0  0  0  0  0
  189.0720  179.4250  137.3530 N   0  0  0  0  0  0  0  0  0  0  0  0
  188.1020  178.8890  137.0110 C   0  0  0  0  0  0  0  0  0  0  0  0
  184.3980  178.7480  142.5680 O   0  0  0  0  0  0  0  0  0  0  0  0
  184.4120  178.8630  144.9430 C   0  0  0  0  0  1  0  0  0  0  0  0
  184.1840  179.6090  143.6450 C   0  0  0  0  0  2  0  0  0  0  0  0
  1 15  1  6  0  0  0
  1  4  1  0  0  0  0
  1 28  1  0  0  0  0
  2  5  2  0  0  0  0
  3  6  1  0  0  0  0
  3  4  2  0  0  0  0
  4  5  1  0  0  0  0
  6  2  1  0  0  0  0
  7  9  1  0  0  0  0
  8 14  2  0  0  0  0
  9 11  2  0  0  0  0
 10 13  1  0  0  0  0
 10 12  1  0  0  0  0
 12  8  1  0  0  0  0
 12  7  2  0  0  0  0
 13  2  1  6  0  0  0
 13  8  1  0  0  0  0
 14 11  1  0  0  0  0
 16 15  1  0  0  0  0
 17 16  1  1  0  0  0
 18 17  1  0  0  0  0
 19 20  1  0  0  0  0
 19 18  1  6  0  0  0
 19 17  1  0  0  0  0
 20 21  1  6  0  0  0
 20 17  1  0  0  0  0
 22 27  1  1  0  0  0
 22 23  1  0  0  0  0
 23 21  1  6  0  0  0
 25 24  1  0  0  0  0
 25 22  1  0  0  0  0
 25 23  1  0  0  0  0
 27 26  3  0  0  0  0
 28 30  1  0  0  0  0
 30 29  1  0  0  0  0
M  END
>  <MODEL>
5

>  <REMARK>
 VINA RESULT:      -7.1      2.634      5.273
  Name = 
  10 active torsions:
  status: ('A' for Active; 'I' for Inactive)
    1  A    between atoms: C_1  and  C_18
    2  A    between atoms: C_3  and  N_21
    3  A    between atoms: C_7  and  C_24
    4  A    between atoms: C_8  and  C_28
    5  A    between atoms: N_11  and  C_28
    6  A    between atoms: N_11  and  C_29
    7  A    between atoms: C_14  and  C_29
    8  A    between atoms: N_21  and  C_27
    9  A    between atoms: O_23  and  C_29
   10  A    between atoms: O_23  and  C_30
                            x       y       z     vdW  Elec       q    Type
                         _______ _______ _______ _____ _____    ______ ____

>  <TORSDO>
F 10

$$$$
=
 OpenBabel10232408213D

 30 35  0  0  1  0  0  0  0  0999 V2000
  185.3660  178.1690  144.1980 C   0  0  1  0  0  3  0  0  0  0  0  0
  182.9640  178.6420  141.6190 C   0  0  0  0  0  0  0  0  0  0  0  0
  182.9590  178.7430  143.8190 N   0  0  0  0  0  0  0  0  0  0  0  0
  184.1740  178.4190  143.3320 C   0  0  0  0  0  0  0  0  0  0  0  0
  184.2220  178.3480  141.9890 N   0  0  0  0  0  0  0  0  0  0  0  0
  182.1820  178.8890  142.7300 C   0  0  0  0  0  2  0  0  0  0  0  0
  184.2610  177.2140  137.5420 C   0  0  0  0  0  3  0  0  0  0  0  0
  182.7600  177.4120  139.4860 C   0  0  0  0  0  0  0  0  0  0  0  0
  183.8930  175.8450  137.5200 C   0  0  0  0  0  3  0  0  0  0  0  0
  183.6240  179.6380  139.2210 S   0  0  0  0  0  0  0  0  0  0  0  0
  182.9830  175.2900  138.4720 C   0  0  0  0  0  3  0  0  0  0  0  0
  183.6700  177.9620  138.5440 C   0  0  0  0  0  0  0  0  0  0  0  0
  182.5270  178.7040  140.1830 C   0  0  2  0  0  3  0  0  0  0  0  0
  182.3910  176.0780  139.4870 C   0  0  0  0  0  3  0  0  0  0  0  0
  186.5780  178.1750  143.3900 N   0  0  0  0  0  2  0  0  0  0  0  0
  187.4300  177.0920  143.8500 C   0  0  0  0  0  2  0  0  0  0  0  0
  188.8890  177.4560  143.6390 C   0  0  1  0  0  0  0  0  0  0  0  0
  189.7420  177.1730  144.8570 C   0  0  0  0  0  2  0  0  0  0  0  0
  189.6840  176.1630  143.7310 C   0  0  2  0  0  3  0  0  0  0  0  0
  189.4640  176.8270  142.3880 C   0  0  2  0  0  3  0  0  0  0  0  0
  190.6570  177.5530  141.9900 N   0  0  0  0  0  2  0  0  0  0  0  0
  189.2430  177.6230  140.0890 C   0  0  2  0  0  3  0  0  0  0  0  0
  190.6280  177.6650  140.5430 C   0  0  2  0  0  3  0  0  0  0  0  0
  190.7540  176.2570  138.6650 C   0  0  0  0  0  1  0  0  0  0  0  0
  190.1080  176.4120  139.9660 N   0  0  0  0  0  0  0  0  0  0  0  0
  188.9810  179.0590  137.8940 N   0  0  0  0  0  0  0  0  0  0  0  0
  189.0930  178.4270  138.8590 C   0  0  0  0  0  0  0  0  0  0  0  0
  185.4490  179.1640  145.1750 O   0  0  0  0  0  0  0  0  0  0  0  0
  186.6220  178.4120  147.1020 C   0  0  0  0  0  1  0  0  0  0  0  0
  185.2900  178.4900  146.3860 C   0  0  0  0  0  2  0  0  0  0  0  0
  1 15  1  6  0  0  0
  1 28  1  0  0  0  0
  2  5  2  0  0  0  0
  2  6  1  0  0  0  0
  4  3  2  0  0  0  0
  4  1  1  0  0  0  0
  5  4  1  0  0  0  0
  6  3  1  0  0  0  0
  7 12  1  0  0  0  0
  8 14  1  0  0  0  0
  8 13  1  0  0  0  0
  9  7  2  0  0  0  0
  9 11  1  0  0  0  0
 10 13  1  0  0  0  0
 11 14  2  0  0  0  0
 12 10  1  0  0  0  0
 12  8  2  0  0  0  0
 13  2  1  1  0  0  0
 15 16  1  0  0  0  0
 17 19  1  0  0  0  0
 17 16  1  1  0  0  0
 17 18  1  0  0  0  0
 19 18  1  1  0  0  0
 20 21  1  1  0  0  0
 20 17  1  0  0  0  0
 20 19  1  0  0  0  0
 22 27  1  6  0  0  0
 22 23  1  0  0  0  0
 23 21  1  1  0  0  0
 24 25  1  0  0  0  0
 25 22  1  0  0  0  0
 25 23  1  0  0  0  0
 26 27  3  0  0  0  0
 28 30  1  0  0  0  0
 30 29  1  0  0  0  0
M  END
>  <MODEL>
6

>  <REMARK>
 VINA RESULT:      -7.0      3.200      8.072
  Name = 
  10 active torsions:
  status: ('A' for Active; 'I' for Inactive)
    1  A    between atoms: C_1  and  C_18
    2  A    between atoms: C_3  and  N_21
    3  A    between atoms: C_7  and  C_24
    4  A    between atoms: C_8  and  C_28
    5  A    between atoms: N_11  and  C_28
    6  A    between atoms: N_11  and  C_29
    7  A    between atoms: C_14  and  C_29
    8  A    between atoms: N_21  and  C_27
    9  A    between atoms: O_23  and  C_29
   10  A    between atoms: O_23  and  C_30
                            x       y       z     vdW  Elec       q    Type
                         _______ _______ _______ _____ _____    ______ ____

>  <TORSDO>
F 10

$$$$
=
 OpenBabel10232408213D

 30 35  0  0  1  0  0  0  0  0999 V2000
  190.4940  177.1200  138.9090 C   0  0  1  0  0  3  0  0  0  0  0  0
  190.8320  176.6440  142.4170 C   0  0  0  0  0  0  0  0  0  0  0  0
  191.9880  177.6640  140.8430 N   0  0  0  0  0  0  0  0  0  0  0  0
  190.8800  177.0720  140.3520 C   0  0  0  0  0  0  0  0  0  0  0  0
  190.1430  176.4370  141.2820 N   0  0  0  0  0  0  0  0  0  0  0  0
  191.9620  177.3960  142.1630 C   0  0  0  0  0  2  0  0  0  0  0  0
  188.5960  178.0210  146.0840 C   0  0  0  0  0  3  0  0  0  0  0  0
  189.0240  176.6230  144.1010 C   0  0  0  0  0  0  0  0  0  0  0  0
  187.2340  177.9880  145.6940 C   0  0  0  0  0  3  0  0  0  0  0  0
  191.2090  176.9180  145.0550 S   0  0  0  0  0  0  0  0  0  0  0  0
  186.7980  177.2880  144.5260 C   0  0  0  0  0  3  0  0  0  0  0  0
  189.4580  177.3230  145.2570 C   0  0  0  0  0  0  0  0  0  0  0  0
  190.3820  176.1280  143.7530 C   0  0  2  0  0  3  0  0  0  0  0  0
  187.7000  176.5820  143.6970 C   0  0  0  0  0  3  0  0  0  0  0  0
  190.6170  175.7950  138.3170 N   0  0  0  0  0  2  0  0  0  0  0  0
  191.7710  175.8050  137.4320 C   0  0  0  0  0  2  0  0  0  0  0  0
  192.4840  174.4660  137.5000 C   0  0  1  0  0  0  0  0  0  0  0  0
  192.1030  173.5450  136.3610 C   0  0  0  0  0  2  0  0  0  0  0  0
  193.3670  174.3740  136.2640 C   0  0  2  0  0  3  0  0  0  0  0  0
  193.9850  174.6200  137.6250 C   0  0  2  0  0  3  0  0  0  0  0  0
  194.5520  173.3870  138.1440 N   0  0  0  0  0  2  0  0  0  0  0  0
  195.8960  175.0010  139.2440 C   0  0  2  0  0  3  0  0  0  0  0  0
  195.8960  173.6930  138.6000 C   0  0  2  0  0  3  0  0  0  0  0  0
  197.8620  174.6710  137.7590 C   0  0  0  0  0  1  0  0  0  0  0  0
  196.4140  174.8520  137.8510 N   0  0  0  0  0  0  0  0  0  0  0  0
  197.7250  175.0740  141.1400 N   0  0  0  0  0  0  0  0  0  0  0  0
  196.9210  175.0390  140.3060 C   0  0  0  0  0  0  0  0  0  0  0  0
  189.1750  177.5640  138.7940 O   0  0  0  0  0  0  0  0  0  0  0  0
  188.2730  178.2230  136.6950 C   0  0  0  0  0  1  0  0  0  0  0  0
  189.2190  178.5680  137.8270 C   0  0  0  0  0  2  0  0  0  0  0  0
  1 15  1  1  0  0  0
  1  4  1  0  0  0  0
  3  6  1  0  0  0  0
  4  3  2  0  0  0  0
  4  5  1  0  0  0  0
  5  2  2  0  0  0  0
  6  2  1  0  0  0  0
  8 12  1  0  0  0  0
  9  7  1  0  0  0  0
 10 12  1  0  0  0  0
 11  9  2  0  0  0  0
 12  7  2  0  0  0  0
 13  2  1  6  0  0  0
 13  8  1  0  0  0  0
 13 10  1  0  0  0  0
 14  8  2  0  0  0  0
 14 11  1  0  0  0  0
 16 15  1  0  0  0  0
 17 16  1  1  0  0  0
 17 20  1  0  0  0  0
 18 17  1  0  0  0  0
 19 18  1  1  0  0  0
 19 17  1  0  0  0  0
 19 20  1  0  0  0  0
 20 21  1  1  0  0  0
 22 27  1  1  0  0  0
 23 21  1  6  0  0  0
 23 22  1  0  0  0  0
 24 25  1  0  0  0  0
 25 23  1  0  0  0  0
 25 22  1  0  0  0  0
 27 26  3  0  0  0  0
 28  1  1  0  0  0  0
 29 30  1  0  0  0  0
 30 28  1  0  0  0  0
M  END
>  <MODEL>
7

>  <REMARK>
 VINA RESULT:      -7.0      2.969      7.068
  Name = 
  10 active torsions:
  status: ('A' for Active; 'I' for Inactive)
    1  A    between atoms: C_1  and  C_18
    2  A    between atoms: C_3  and  N_21
    3  A    between atoms: C_7  and  C_24
    4  A    between atoms: C_8  and  C_28
    5  A    between atoms: N_11  and  C_28
    6  A    between atoms: N_11  and  C_29
    7  A    between atoms: C_14  and  C_29
    8  A    between atoms: N_21  and  C_27
    9  A    between atoms: O_23  and  C_29
   10  A    between atoms: O_23  and  C_30
                            x       y       z     vdW  Elec       q    Type
                         _______ _______ _______ _____ _____    ______ ____

>  <TORSDO>
F 10

$$$$
=
 OpenBabel10232408213D

 30 35  0  0  1  0  0  0  0  0999 V2000
  189.9820  177.3070  140.4100 C   0  0  1  0  0  3  0  0  0  0  0  0
  189.5330  177.1050  143.9320 C   0  0  0  0  0  0  0  0  0  0  0  0
  190.8220  178.2590  142.5680 N   0  0  0  0  0  0  0  0  0  0  0  0
  190.0030  177.4210  141.9000 C   0  0  0  0  0  0  0  0  0  0  0  0
  189.1970  176.6960  142.6970 N   0  0  0  0  0  0  0  0  0  0  0  0
  190.5250  178.0650  143.8670 C   0  0  0  0  0  2  0  0  0  0  0  0
  187.3280  178.5930  147.5750 C   0  0  0  0  0  3  0  0  0  0  0  0
  187.6250  177.3190  145.4870 C   0  0  0  0  0  0  0  0  0  0  0  0
  186.0260  178.8840  147.0970 C   0  0  0  0  0  3  0  0  0  0  0  0
  189.7360  177.0570  146.6030 S   0  0  0  0  0  0  0  0  0  0  0  0
  185.5540  178.4000  145.8370 C   0  0  0  0  0  3  0  0  0  0  0  0
  188.0950  177.8050  146.7350 C   0  0  0  0  0  0  0  0  0  0  0  0
  188.8760  176.5790  145.1760 C   0  0  2  0  0  3  0  0  0  0  0  0
  186.3590  177.5950  144.9980 C   0  0  0  0  0  3  0  0  0  0  0  0
  189.0090  178.2380  139.8540 N   0  0  0  0  0  2  0  0  0  0  0  0
  188.1840  177.5110  138.9040 C   0  0  0  0  0  2  0  0  0  0  0  0
  187.0800  178.4130  138.3820 C   0  0  1  0  0  0  0  0  0  0  0  0
  186.9970  178.4160  136.8700 C   0  0  0  0  0  2  0  0  0  0  0  0
  186.0780  177.5170  137.6700 C   0  0  2  0  0  3  0  0  0  0  0  0
  185.7410  178.1140  139.0210 C   0  0  2  0  0  3  0  0  0  0  0  0
  184.8630  179.2590  138.8530 N   0  0  0  0  0  2  0  0  0  0  0  0
  184.3070  178.2890  140.9440 C   0  0  2  0  0  3  0  0  0  0  0  0
  183.8380  179.1650  139.8770 C   0  0  2  0  0  3  0  0  0  0  0  0
  181.9300  177.8750  140.3450 C   0  0  0  0  0  1  0  0  0  0  0  0
  183.3290  177.7830  139.9340 N   0  0  0  0  0  0  0  0  0  0  0  0
  183.2720  179.0420  143.2480 N   0  0  0  0  0  0  0  0  0  0  0  0
  183.7280  178.7140  142.2350 C   0  0  0  0  0  0  0  0  0  0  0  0
  191.2500  177.5960  139.9020 O   0  0  0  0  0  0  0  0  0  0  0  0
  192.9710  176.6590  138.5550 C   0  0  0  0  0  1  0  0  0  0  0  0
  191.5460  176.5310  139.0510 C   0  0  0  0  0  2  0  0  0  0  0  0
  1 15  1  6  0  0  0
  1  4  1  0  0  0  0
  3  6  1  0  0  0  0
  4  3  2  0  0  0  0
  4  5  1  0  0  0  0
  5  2  2  0  0  0  0
  6  2  1  0  0  0  0
  8 12  1  0  0  0  0
  9  7  1  0  0  0  0
 10 12  1  0  0  0  0
 11  9  2  0  0  0  0
 12  7  2  0  0  0  0
 13  2  1  6  0  0  0
 13  8  1  0  0  0  0
 13 10  1  0  0  0  0
 14  8  2  0  0  0  0
 14 11  1  0  0  0  0
 16 15  1  0  0  0  0
 17 16  1  1  0  0  0
 17 20  1  0  0  0  0
 18 17  1  0  0  0  0
 19 18  1  6  0  0  0
 19 17  1  0  0  0  0
 19 20  1  0  0  0  0
 20 21  1  6  0  0  0
 22 27  1  1  0  0  0
 23 21  1  6  0  0  0
 23 25  1  0  0  0  0
 23 22  1  0  0  0  0
 25 24  1  0  0  0  0
 25 22  1  0  0  0  0
 27 26  3  0  0  0  0
 28  1  1  0  0  0  0
 29 30  1  0  0  0  0
 30 28  1  0  0  0  0
M  END
>  <MODEL>
8

>  <REMARK>
 VINA RESULT:      -6.8      1.537      2.150
  Name = 
  10 active torsions:
  status: ('A' for Active; 'I' for Inactive)
    1  A    between atoms: C_1  and  C_18
    2  A    between atoms: C_3  and  N_21
    3  A    between atoms: C_7  and  C_24
    4  A    between atoms: C_8  and  C_28
    5  A    between atoms: N_11  and  C_28
    6  A    between atoms: N_11  and  C_29
    7  A    between atoms: C_14  and  C_29
    8  A    between atoms: N_21  and  C_27
    9  A    between atoms: O_23  and  C_29
   10  A    between atoms: O_23  and  C_30
                            x       y       z     vdW  Elec       q    Type
                         _______ _______ _______ _____ _____    ______ ____

>  <TORSDO>
F 10

$$$$
=
 OpenBabel10232408213D

 30 35  0  0  1  0  0  0  0  0999 V2000
  188.8650  178.1660  138.4190 C   0  0  1  0  0  3  0  0  0  0  0  0
  188.7930  177.2050  141.8420 C   0  0  0  0  0  0  0  0  0  0  0  0
  188.0300  178.9010  140.6620 N   0  0  0  0  0  0  0  0  0  0  0  0
  188.6900  178.0090  139.8950 C   0  0  0  0  0  0  0  0  0  0  0  0
  189.1720  176.9540  140.5770 N   0  0  0  0  0  0  0  0  0  0  0  0
  188.0900  178.3920  141.9070 C   0  0  0  0  0  2  0  0  0  0  0  0
  190.1320  177.3470  146.1470 C   0  0  0  0  0  3  0  0  0  0  0  0
  188.6110  176.8320  144.2780 C   0  0  0  0  0  0  0  0  0  0  0  0
  188.9680  177.7310  146.8600 C   0  0  0  0  0  3  0  0  0  0  0  0
  190.7800  176.2980  143.3940 S   0  0  0  0  0  0  0  0  0  0  0  0
  187.6650  177.6650  146.2750 C   0  0  0  0  0  3  0  0  0  0  0  0
  189.9060  176.9030  144.8560 C   0  0  0  0  0  0  0  0  0  0  0  0
  189.0960  176.2800  142.9860 C   0  0  2  0  0  3  0  0  0  0  0  0
  187.4620  177.2070  144.9530 C   0  0  0  0  0  3  0  0  0  0  0  0
  189.0570  176.8610  137.8000 N   0  0  0  0  0  2  0  0  0  0  0  0
  190.3750  176.8450  137.1870 C   0  0  0  0  0  2  0  0  0  0  0  0
  191.0760  175.5370  137.5060 C   0  0  1  0  0  0  0  0  0  0  0  0
  190.3840  174.3400  136.8870 C   0  0  0  0  0  2  0  0  0  0  0  0
  191.5690  174.9670  136.1840 C   0  0  2  0  0  3  0  0  0  0  0  0
  192.5500  175.5760  137.1650 C   0  0  2  0  0  3  0  0  0  0  0  0
  193.2400  174.5250  137.8940 N   0  0  0  0  0  2  0  0  0  0  0  0
  195.4160  174.2220  137.0040 C   0  0  2  0  0  3  0  0  0  0  0  0
  194.6300  174.9270  138.0100 C   0  0  2  0  0  3  0  0  0  0  0  0
  196.5490  174.3020  139.2160 C   0  0  0  0  0  1  0  0  0  0  0  0
  195.4400  173.7680  138.4280 N   0  0  0  0  0  0  0  0  0  0  0  0
  197.4530  175.7140  136.2460 N   0  0  0  0  0  0  0  0  0  0  0  0
  196.5580  175.0590  136.5820 C   0  0  0  0  0  0  0  0  0  0  0  0
  187.7330  178.7800  137.8780 O   0  0  0  0  0  0  0  0  0  0  0  0
  185.4480  178.1320  137.9950 C   0  0  0  0  0  1  0  0  0  0  0  0
  186.8550  177.7310  137.6030 C   0  0  0  0  0  2  0  0  0  0  0  0
  1 15  1  6  0  0  0
  1  4  1  0  0  0  0
  2  6  1  0  0  0  0
  3  6  1  0  0  0  0
  4  5  1  0  0  0  0
  4  3  2  0  0  0  0
  5  2  2  0  0  0  0
  7  9  1  0  0  0  0
  8 12  1  0  0  0  0
  8 14  2  0  0  0  0
 10 12  1  0  0  0  0
 11  9  2  0  0  0  0
 12  7  2  0  0  0  0
 13  2  1  6  0  0  0
 13 10  1  0  0  0  0
 13  8  1  0  0  0  0
 14 11  1  0  0  0  0
 16 15  1  0  0  0  0
 17 16  1  6  0  0  0
 18 17  1  0  0  0  0
 19 18  1  1  0  0  0
 19 20  1  0  0  0  0
 19 17  1  0  0  0  0
 20 17  1  0  0  0  0
 20 21  1  1  0  0  0
 22 27  1  1  0  0  0
 22 23  1  0  0  0  0
 22 25  1  0  0  0  0
 23 21  1  6  0  0  0
 23 25  1  0  0  0  0
 25 24  1  0  0  0  0
 26 27  3  0  0  0  0
 28  1  1  0  0  0  0
 30 28  1  0  0  0  0
 30 29  1  0  0  0  0
M  END
>  <MODEL>
9

>  <REMARK>
 VINA RESULT:      -6.8      2.863      6.849
  Name = 
  10 active torsions:
  status: ('A' for Active; 'I' for Inactive)
    1  A    between atoms: C_1  and  C_18
    2  A    between atoms: C_3  and  N_21
    3  A    between atoms: C_7  and  C_24
    4  A    between atoms: C_8  and  C_28
    5  A    between atoms: N_11  and  C_28
    6  A    between atoms: N_11  and  C_29
    7  A    between atoms: C_14  and  C_29
    8  A    between atoms: N_21  and  C_27
    9  A    between atoms: O_23  and  C_29
   10  A    between atoms: O_23  and  C_30
                            x       y       z     vdW  Elec       q    Type
                         _______ _______ _______ _____ _____    ______ ____

>  <TORSDO>
F 10

$$$$
