=
 OpenBabel10232410023D

 26 29  0  0  1  0  0  0  0  0999 V2000
  182.9700  179.3010  144.4790 C   0  0  0  0  0  2  0  0  0  0  0  0
  185.6710  180.0150  143.8240 F   0  0  0  0  0  0  0  0  0  0  0  0
  187.5210  177.6610  145.5490 C   0  0  2  0  0  3  0  0  0  0  0  0
  185.5180  178.6470  143.6120 C   0  0  2  0  0  0  0  0  0  0  0  0
  183.0250  178.8510  143.0140 C   0  0  0  0  0  2  0  0  0  0  0  0
  184.4230  178.3990  142.5630 C   0  0  1  0  0  3  0  0  0  0  0  0
  184.7990  179.0220  141.2210 C   0  0  0  0  0  2  0  0  0  0  0  0
  185.1120  177.9540  144.9190 C   0  0  1  0  0  3  0  0  0  0  0  0
  187.9570  178.2130  144.1710 C   0  0  2  0  0  3  0  0  0  0  0  0
  186.1560  178.2040  145.9960 C   0  0  0  0  0  2  0  0  0  0  0  0
  187.2320  178.6960  141.7790 C   0  0  0  0  0  2  0  0  0  0  0  0
  186.1360  178.4580  140.7400 C   0  0  0  0  0  2  0  0  0  0  0  0
  186.8440  178.0530  143.1160 C   0  0  2  0  0  3  0  0  0  0  0  0
  183.7040  178.3290  145.4090 C   0  0  0  0  0  2  0  0  0  0  0  0
  190.4790  175.6230  142.9860 C   0  0  0  0  0  3  0  0  0  0  0  0
  191.5800  177.7170  143.1860 C   0  0  0  0  0  3  0  0  0  0  0  0
  189.2310  177.5570  143.7130 C   0  0  0  0  0  0  0  0  0  0  0  0
  191.5970  176.3900  142.8880 N   0  0  0  0  0  0  0  0  0  0  0  0
  189.2740  176.1920  143.4020 C   0  0  0  0  0  3  0  0  0  0  0  0
  190.3930  178.3250  143.6050 C   0  0  0  0  0  3  0  0  0  0  0  0
  188.5920  177.8960  146.6250 C   0  0  1  0  0  3  0  0  0  0  0  0
  188.0090  178.5100  147.8930 C   0  0  0  0  0  2  0  0  0  0  0  0
  187.8720  177.4920  148.9200 N   0  0  0  0  0  1  0  0  0  0  0  0
  189.2480  176.6980  146.9240 O   0  0  0  0  0  0  0  0  0  0  0  0
  191.4140  176.2390  146.3900 O   0  0  0  0  0  1  0  0  0  0  0  0
  190.5780  177.0610  147.1420 C   0  0  0  0  0  2  0  0  0  0  0  0
  1 14  1  0  0  0  0
  3 10  1  0  0  0  0
  3 21  1  1  0  0  0
  4  2  1  1  0  0  0
  4  8  1  0  0  0  0
  5  1  1  0  0  0  0
  6  7  1  6  0  0  0
  6  5  1  0  0  0  0
  6  4  1  0  0  0  0
  8 14  1  1  0  0  0
  8 10  1  0  0  0  0
  9 17  1  6  0  0  0
  9  3  1  0  0  0  0
 12  7  1  0  0  0  0
 12 11  1  0  0  0  0
 13 11  1  6  0  0  0
 13  4  1  0  0  0  0
 13  9  1  0  0  0  0
 15 19  1  0  0  0  0
 16 20  2  0  0  0  0
 18 15  2  0  0  0  0
 18 16  1  0  0  0  0
 19 17  2  0  0  0  0
 20 17  1  0  0  0  0
 21 24  1  0  0  0  0
 21 22  1  1  0  0  0
 22 23  1  0  0  0  0
 24 26  1  0  0  0  0
 25 26  1  0  0  0  0
M  END
>  <MODEL>
1

>  <REMARK>
 VINA RESULT:      -8.0      0.000      0.000
  Name = 
  5 active torsions:
  status: ('A' for Active; 'I' for Inactive)
    1  A    between atoms: C_4  and  C_18
    2  A    between atoms: C_7  and  C_18
    3  A    between atoms: C_13  and  C_14
    4  A    between atoms: C_18  and  O_22
    5  A    between atoms: C_21  and  O_22
                            x       y       z     vdW  Elec       q    Type
                         _______ _______ _______ _____ _____    ______ ____

>  <TORSDO>
F 5

$$$$
=
 OpenBabel10232410023D

 26 29  0  0  1  0  0  0  0  0999 V2000
  183.0730  178.8810  143.1690 C   0  0  0  0  0  2  0  0  0  0  0  0
  185.1960  177.0100  143.6430 F   0  0  0  0  0  0  0  0  0  0  0  0
  187.7850  178.3010  141.7550 C   0  0  2  0  0  3  0  0  0  0  0  0
  185.6940  178.2950  143.8440 C   0  0  2  0  0  0  0  0  0  0  0  0
  183.4280  179.2320  144.6190 C   0  0  0  0  0  2  0  0  0  0  0  0
  184.9070  178.9940  144.9630 C   0  0  1  0  0  3  0  0  0  0  0  0
  185.0530  178.2440  146.2850 C   0  0  0  0  0  2  0  0  0  0  0  0
  185.5560  179.1190  142.5580 C   0  0  1  0  0  3  0  0  0  0  0  0
  188.0200  177.5870  143.1070 C   0  0  2  0  0  3  0  0  0  0  0  0
  186.2950  178.4420  141.4140 C   0  0  0  0  0  2  0  0  0  0  0  0
  187.3240  177.4420  145.5520 C   0  0  0  0  0  2  0  0  0  0  0  0
  186.5300  178.1320  146.6610 C   0  0  0  0  0  2  0  0  0  0  0  0
  187.1770  178.2150  144.2350 C   0  0  2  0  0  3  0  0  0  0  0  0
  184.1000  179.4320  142.1740 C   0  0  0  0  0  2  0  0  0  0  0  0
  191.5490  176.4330  143.9350 C   0  0  0  0  0  3  0  0  0  0  0  0
  191.4890  178.8060  144.0100 C   0  0  0  0  0  3  0  0  0  0  0  0
  189.4810  177.5860  143.4630 C   0  0  0  0  0  0  0  0  0  0  0  0
  192.1630  177.6300  144.1330 N   0  0  0  0  0  0  0  0  0  0  0  0
  190.1950  176.3890  143.5960 C   0  0  0  0  0  3  0  0  0  0  0  0
  190.1330  178.8040  143.6730 C   0  0  0  0  0  3  0  0  0  0  0  0
  188.5560  177.6250  140.6100 C   0  0  1  0  0  3  0  0  0  0  0  0
  187.7560  177.6060  139.3110 C   0  0  0  0  0  2  0  0  0  0  0  0
  188.1650  178.7100  138.4610 N   0  0  0  0  0  1  0  0  0  0  0  0
  189.7850  178.2610  140.4130 O   0  0  0  0  0  0  0  0  0  0  0  0
  191.9460  177.5630  140.5900 O   0  0  0  0  0  1  0  0  0  0  0  0
  190.6780  177.2310  140.1150 C   0  0  0  0  0  2  0  0  0  0  0  0
  1  5  1  0  0  0  0
  3 21  1  6  0  0  0
  3  9  1  0  0  0  0
  4  2  1  6  0  0  0
  4 13  1  0  0  0  0
  4  6  1  0  0  0  0
  6  5  1  6  0  0  0
  6  7  1  0  0  0  0
  7 12  1  0  0  0  0
  8 10  1  6  0  0  0
  8  4  1  0  0  0  0
  9 17  1  1  0  0  0
  9 13  1  0  0  0  0
 10  3  1  0  0  0  0
 11 12  1  0  0  0  0
 13 11  1  1  0  0  0
 14  8  1  0  0  0  0
 14  1  1  0  0  0  0
 15 18  1  0  0  0  0
 16 18  2  0  0  0  0
 17 19  1  0  0  0  0
 17 20  2  0  0  0  0
 19 15  2  0  0  0  0
 20 16  1  0  0  0  0
 21 22  1  6  0  0  0
 23 22  1  0  0  0  0
 24 21  1  0  0  0  0
 26 24  1  0  0  0  0
 26 25  1  0  0  0  0
M  END
>  <MODEL>
2

>  <REMARK>
 VINA RESULT:      -7.4      2.536      4.460
  Name = 
  5 active torsions:
  status: ('A' for Active; 'I' for Inactive)
    1  A    between atoms: C_4  and  C_18
    2  A    between atoms: C_7  and  C_18
    3  A    between atoms: C_13  and  C_14
    4  A    between atoms: C_18  and  O_22
    5  A    between atoms: C_21  and  O_22
                            x       y       z     vdW  Elec       q    Type
                         _______ _______ _______ _____ _____    ______ ____

>  <TORSDO>
F 5

$$$$
=
 OpenBabel10232410023D

 26 29  0  0  1  0  0  0  0  0999 V2000
  189.6040  177.2650  145.2770 C   0  0  0  0  0  2  0  0  0  0  0  0
  189.2810  178.8950  142.9370 F   0  0  0  0  0  0  0  0  0  0  0  0
  190.5000  176.8660  140.4210 C   0  0  2  0  0  3  0  0  0  0  0  0
  188.7450  177.6380  142.6700 C   0  0  2  0  0  0  0  0  0  0  0  0
  188.0800  177.2180  145.1190 C   0  0  0  0  0  2  0  0  0  0  0  0
  187.6100  177.3310  143.6590 C   0  0  1  0  0  3  0  0  0  0  0  0
  186.4750  178.3420  143.5210 C   0  0  0  0  0  2  0  0  0  0  0  0
  189.8280  176.5620  142.8170 C   0  0  1  0  0  3  0  0  0  0  0  0
  189.3160  177.8380  140.2030 C   0  0  2  0  0  3  0  0  0  0  0  0
  190.9880  176.8480  141.8760 C   0  0  0  0  0  2  0  0  0  0  0  0
  187.0690  178.6410  141.0930 C   0  0  0  0  0  2  0  0  0  0  0  0
  185.9470  178.3410  142.0870 C   0  0  0  0  0  2  0  0  0  0  0  0
  188.1950  177.6090  141.2370 C   0  0  2  0  0  3  0  0  0  0  0  0
  190.3170  176.3650  144.2610 C   0  0  0  0  0  2  0  0  0  0  0  0
  187.6640  176.5040  137.0470 C   0  0  0  0  0  3  0  0  0  0  0  0
  188.4640  178.6980  136.6160 C   0  0  0  0  0  3  0  0  0  0  0  0
  188.7850  177.7270  138.8010 C   0  0  0  0  0  0  0  0  0  0  0  0
  187.8360  177.5610  136.2090 N   0  0  0  0  0  0  0  0  0  0  0  0
  188.1360  176.5670  138.3590 C   0  0  0  0  0  3  0  0  0  0  0  0
  188.9500  178.8000  137.9210 C   0  0  0  0  0  3  0  0  0  0  0  0
  191.6560  177.1460  139.4490 C   0  0  1  0  0  3  0  0  0  0  0  0
  192.9280  177.5690  140.1760 C   0  0  0  0  0  2  0  0  0  0  0  0
  194.0510  176.7730  139.7140 N   0  0  0  0  0  1  0  0  0  0  0  0
  191.9030  176.0230  138.6530 O   0  0  0  0  0  0  0  0  0  0  0  0
  190.9850  175.5890  136.6150 O   0  0  0  0  0  1  0  0  0  0  0  0
  191.7740  176.4780  137.3400 C   0  0  0  0  0  2  0  0  0  0  0  0
  3 21  1  6  0  0  0
  3 10  1  0  0  0  0
  4  8  1  0  0  0  0
  4  2  1  1  0  0  0
  4  6  1  0  0  0  0
  5  1  1  0  0  0  0
  6  7  1  1  0  0  0
  6  5  1  0  0  0  0
  8 10  1  6  0  0  0
  8 14  1  0  0  0  0
  9 17  1  6  0  0  0
  9  3  1  0  0  0  0
  9 13  1  0  0  0  0
 11 12  1  0  0  0  0
 12  7  1  0  0  0  0
 13 11  1  1  0  0  0
 13  4  1  0  0  0  0
 14  1  1  0  0  0  0
 15 19  1  0  0  0  0
 16 20  2  0  0  0  0
 18 16  1  0  0  0  0
 18 15  2  0  0  0  0
 19 17  2  0  0  0  0
 20 17  1  0  0  0  0
 21 22  1  1  0  0  0
 23 22  1  0  0  0  0
 24 21  1  0  0  0  0
 25 26  1  0  0  0  0
 26 24  1  0  0  0  0
M  END
>  <MODEL>
3

>  <REMARK>
 VINA RESULT:      -6.9      4.030      6.487
  Name = 
  5 active torsions:
  status: ('A' for Active; 'I' for Inactive)
    1  A    between atoms: C_4  and  C_18
    2  A    between atoms: C_7  and  C_18
    3  A    between atoms: C_13  and  C_14
    4  A    between atoms: C_18  and  O_22
    5  A    between atoms: C_21  and  O_22
                            x       y       z     vdW  Elec       q    Type
                         _______ _______ _______ _____ _____    ______ ____

>  <TORSDO>
F 5

$$$$
=
 OpenBabel10232410023D

 26 29  0  0  1  0  0  0  0  0999 V2000
  182.6770  179.1480  140.1310 C   0  0  0  0  0  2  0  0  0  0  0  0
  185.3590  179.9150  140.8010 F   0  0  0  0  0  0  0  0  0  0  0  0
  186.0630  177.9210  143.5330 C   0  0  2  0  0  3  0  0  0  0  0  0
  185.3060  178.5250  140.7400 C   0  0  2  0  0  0  0  0  0  0  0  0
  183.4430  178.5090  138.9670 C   0  0  0  0  0  2  0  0  0  0  0  0
  184.8720  178.0780  139.3360 C   0  0  1  0  0  3  0  0  0  0  0  0
  185.8760  178.5360  138.2810 C   0  0  0  0  0  2  0  0  0  0  0  0
  184.2920  177.9930  141.7600 C   0  0  1  0  0  3  0  0  0  0  0  0
  187.1370  178.3050  142.4870 C   0  0  2  0  0  3  0  0  0  0  0  0
  184.6680  178.4420  143.1640 C   0  0  0  0  0  2  0  0  0  0  0  0
  187.7040  178.4220  140.0080 C   0  0  0  0  0  2  0  0  0  0  0  0
  187.2640  177.9870  138.6100 C   0  0  0  0  0  2  0  0  0  0  0  0
  186.6920  177.9440  141.0550 C   0  0  2  0  0  3  0  0  0  0  0  0
  182.8330  178.3510  141.4320 C   0  0  0  0  0  2  0  0  0  0  0  0
  189.8450  175.7200  143.1600 C   0  0  0  0  0  3  0  0  0  0  0  0
  190.7810  177.8860  143.4260 C   0  0  0  0  0  3  0  0  0  0  0  0
  188.4570  177.6660  142.8180 C   0  0  0  0  0  0  0  0  0  0  0  0
  190.9000  176.5320  143.4430 N   0  0  0  0  0  0  0  0  0  0  0  0
  188.6030  176.2730  142.8420 C   0  0  0  0  0  3  0  0  0  0  0  0
  189.5550  178.4780  143.1120 C   0  0  0  0  0  3  0  0  0  0  0  0
  186.4630  178.3560  144.9510 C   0  0  1  0  0  3  0  0  0  0  0  0
  185.3980  179.2300  145.6060 C   0  0  0  0  0  2  0  0  0  0  0  0
  184.7670  178.5080  146.6960 N   0  0  0  0  0  1  0  0  0  0  0  0
  186.7280  177.2360  145.7440 O   0  0  0  0  0  0  0  0  0  0  0  0
  187.9700  177.0650  147.6450 O   0  0  0  0  0  1  0  0  0  0  0  0
  187.9740  177.4890  146.3180 C   0  0  0  0  0  2  0  0  0  0  0  0
  1 14  1  0  0  0  0
  3 21  1  1  0  0  0
  4  2  1  1  0  0  0
  4 13  1  0  0  0  0
  4  8  1  0  0  0  0
  5  6  1  0  0  0  0
  5  1  1  0  0  0  0
  6  7  1  6  0  0  0
  6  4  1  0  0  0  0
  7 12  1  0  0  0  0
  8 14  1  6  0  0  0
  8 10  1  0  0  0  0
  9 17  1  1  0  0  0
  9  3  1  0  0  0  0
 10  3  1  0  0  0  0
 12 11  1  0  0  0  0
 13 11  1  6  0  0  0
 13  9  1  0  0  0  0
 15 18  1  0  0  0  0
 16 18  2  0  0  0  0
 17 19  1  0  0  0  0
 17 20  2  0  0  0  0
 19 15  2  0  0  0  0
 20 16  1  0  0  0  0
 21 22  1  1  0  0  0
 21 24  1  0  0  0  0
 22 23  1  0  0  0  0
 24 26  1  0  0  0  0
 26 25  1  0  0  0  0
M  END
>  <MODEL>
4

>  <REMARK>
 VINA RESULT:      -6.6      1.777      2.813
  Name = 
  5 active torsions:
  status: ('A' for Active; 'I' for Inactive)
    1  A    between atoms: C_4  and  C_18
    2  A    between atoms: C_7  and  C_18
    3  A    between atoms: C_13  and  C_14
    4  A    between atoms: C_18  and  O_22
    5  A    between atoms: C_21  and  O_22
                            x       y       z     vdW  Elec       q    Type
                         _______ _______ _______ _____ _____    ______ ____

>  <TORSDO>
F 5

$$$$
=
 OpenBabel10232410023D

 26 29  0  0  1  0  0  0  0  0999 V2000
  184.7180  178.6090  146.3360 C   0  0  0  0  0  2  0  0  0  0  0  0
  186.3490  179.7400  144.2640 F   0  0  0  0  0  0  0  0  0  0  0  0
  188.8290  177.3700  143.8660 C   0  0  2  0  0  3  0  0  0  0  0  0
  186.0670  178.4200  143.9250 C   0  0  2  0  0  0  0  0  0  0  0  0
  183.7940  178.4200  145.1270 C   0  0  0  0  0  2  0  0  0  0  0  0
  184.5480  178.2220  143.8030 C   0  0  1  0  0  3  0  0  0  0  0  0
  183.9680  179.1020  142.6990 C   0  0  0  0  0  2  0  0  0  0  0  0
  186.6000  177.4730  145.0080 C   0  0  1  0  0  3  0  0  0  0  0  0
  188.2700  178.1930  142.6810 C   0  0  2  0  0  3  0  0  0  0  0  0
  188.0990  177.6620  145.1830 C   0  0  0  0  0  2  0  0  0  0  0  0
  186.1680  178.9810  141.4800 C   0  0  0  0  0  2  0  0  0  0  0  0
  184.6550  178.7920  141.3690 C   0  0  0  0  0  2  0  0  0  0  0  0
  186.7350  178.0810  142.5840 C   0  0  2  0  0  3  0  0  0  0  0  0
  185.8620  177.5890  146.3520 C   0  0  0  0  0  2  0  0  0  0  0  0
  190.4880  176.4350  140.1390 C   0  0  0  0  0  3  0  0  0  0  0  0
  189.1540  178.0380  139.0030 C   0  0  0  0  0  3  0  0  0  0  0  0
  188.9220  177.7810  141.3900 C   0  0  0  0  0  0  0  0  0  0  0  0
  190.1050  177.0650  138.9960 N   0  0  0  0  0  0  0  0  0  0  0  0
  189.9040  176.7830  141.3580 C   0  0  0  0  0  3  0  0  0  0  0  0
  188.5450  178.4140  140.2020 C   0  0  0  0  0  3  0  0  0  0  0  0
  190.3480  177.5470  144.0200 C   0  0  1  0  0  3  0  0  0  0  0  0
  190.7030  178.7910  144.8270 C   0  0  0  0  0  2  0  0  0  0  0  0
  191.2310  179.8180  143.9480 N   0  0  0  0  0  1  0  0  0  0  0  0
  190.9100  176.4100  144.6070 O   0  0  0  0  0  0  0  0  0  0  0  0
  192.1020  175.8050  146.4520 O   0  0  0  0  0  1  0  0  0  0  0  0
  191.5440  176.8780  145.7590 C   0  0  0  0  0  2  0  0  0  0  0  0
  1 14  1  0  0  0  0
  3 21  1  1  0  0  0
  3 10  1  0  0  0  0
  4  2  1  1  0  0  0
  4  8  1  0  0  0  0
  5  1  1  0  0  0  0
  6  7  1  6  0  0  0
  6  4  1  0  0  0  0
  6  5  1  0  0  0  0
  8 10  1  1  0  0  0
  8 14  1  0  0  0  0
  9 17  1  6  0  0  0
  9  3  1  0  0  0  0
 12 11  1  0  0  0  0
 12  7  1  0  0  0  0
 13 11  1  6  0  0  0
 13  9  1  0  0  0  0
 13  4  1  0  0  0  0
 15 19  1  0  0  0  0
 16 20  2  0  0  0  0
 18 16  1  0  0  0  0
 18 15  2  0  0  0  0
 19 17  2  0  0  0  0
 20 17  1  0  0  0  0
 21 24  1  0  0  0  0
 21 22  1  1  0  0  0
 23 22  1  0  0  0  0
 24 26  1  0  0  0  0
 26 25  1  0  0  0  0
M  END
>  <MODEL>
5

>  <REMARK>
 VINA RESULT:      -6.4      1.934      2.759
  Name = 
  5 active torsions:
  status: ('A' for Active; 'I' for Inactive)
    1  A    between atoms: C_4  and  C_18
    2  A    between atoms: C_7  and  C_18
    3  A    between atoms: C_13  and  C_14
    4  A    between atoms: C_18  and  O_22
    5  A    between atoms: C_21  and  O_22
                            x       y       z     vdW  Elec       q    Type
                         _______ _______ _______ _____ _____    ______ ____

>  <TORSDO>
F 5

$$$$
=
 OpenBabel10232410023D

 26 29  0  0  1  0  0  0  0  0999 V2000
  184.5190  178.5280  142.2700 C   0  0  0  0  0  2  0  0  0  0  0  0
  185.8520  176.7500  144.0860 F   0  0  0  0  0  0  0  0  0  0  0  0
  189.1580  177.7090  143.8020 C   0  0  2  0  0  3  0  0  0  0  0  0
  186.2750  178.0480  144.3570 C   0  0  2  0  0  0  0  0  0  0  0  0
  184.0530  179.1070  143.6110 C   0  0  0  0  0  2  0  0  0  0  0  0
  185.0730  178.9220  144.7470 C   0  0  1  0  0  3  0  0  0  0  0  0
  184.4010  178.3950  146.0120 C   0  0  0  0  0  2  0  0  0  0  0  0
  186.9410  178.6550  143.1150 C   0  0  1  0  0  3  0  0  0  0  0  0
  188.5470  177.2220  145.1370 C   0  0  2  0  0  3  0  0  0  0  0  0
  188.1190  177.8000  142.6760 C   0  0  0  0  0  2  0  0  0  0  0  0
  186.6160  177.4770  146.7770 C   0  0  0  0  0  2  0  0  0  0  0  0
  185.4130  178.3400  147.1560 C   0  0  0  0  0  2  0  0  0  0  0  0
  187.2870  178.0270  145.5120 C   0  0  2  0  0  3  0  0  0  0  0  0
  185.9700  178.9070  141.9500 C   0  0  0  0  0  2  0  0  0  0  0  0
  191.6300  176.5410  147.2600 C   0  0  0  0  0  3  0  0  0  0  0  0
  190.3060  178.1830  148.3500 C   0  0  0  0  0  3  0  0  0  0  0  0
  189.5670  177.2740  146.2410 C   0  0  0  0  0  0  0  0  0  0  0  0
  191.4100  177.3910  148.2990 N   0  0  0  0  0  0  0  0  0  0  0  0
  190.7120  176.4670  146.2110 C   0  0  0  0  0  3  0  0  0  0  0  0
  189.3630  178.1380  147.3200 C   0  0  0  0  0  3  0  0  0  0  0  0
  190.3640  176.8550  143.3790 C   0  0  1  0  0  3  0  0  0  0  0  0
  189.9840  175.7930  142.3530 C   0  0  0  0  0  2  0  0  0  0  0  0
  190.4890  176.1650  141.0440 N   0  0  0  0  0  1  0  0  0  0  0  0
  191.3830  177.6700  142.8790 O   0  0  0  0  0  0  0  0  0  0  0  0
  192.3080  179.0430  144.4430 O   0  0  0  0  0  1  0  0  0  0  0  0
  191.2420  178.8800  143.5600 C   0  0  0  0  0  2  0  0  0  0  0  0
  1  5  1  0  0  0  0
  3 21  1  6  0  0  0
  3  9  1  0  0  0  0
  4  2  1  6  0  0  0
  4  6  1  0  0  0  0
  4 13  1  0  0  0  0
  6  5  1  6  0  0  0
  6  7  1  0  0  0  0
  7 12  1  0  0  0  0
  8 14  1  6  0  0  0
  8  4  1  0  0  0  0
  9 13  1  0  0  0  0
  9 17  1  1  0  0  0
 10  8  1  0  0  0  0
 10  3  1  0  0  0  0
 11 12  1  0  0  0  0
 13 11  1  1  0  0  0
 14  1  1  0  0  0  0
 15 18  1  0  0  0  0
 17 20  2  0  0  0  0
 18 16  2  0  0  0  0
 19 17  1  0  0  0  0
 19 15  2  0  0  0  0
 20 16  1  0  0  0  0
 21 22  1  6  0  0  0
 23 22  1  0  0  0  0
 24 21  1  0  0  0  0
 24 26  1  0  0  0  0
 26 25  1  0  0  0  0
M  END
>  <MODEL>
6

>  <REMARK>
 VINA RESULT:      -6.4      1.828      4.214
  Name = 
  5 active torsions:
  status: ('A' for Active; 'I' for Inactive)
    1  A    between atoms: C_4  and  C_18
    2  A    between atoms: C_7  and  C_18
    3  A    between atoms: C_13  and  C_14
    4  A    between atoms: C_18  and  O_22
    5  A    between atoms: C_21  and  O_22
                            x       y       z     vdW  Elec       q    Type
                         _______ _______ _______ _____ _____    ______ ____

>  <TORSDO>
F 5

$$$$
=
 OpenBabel10232410023D

 26 29  0  0  1  0  0  0  0  0999 V2000
  185.8620  178.1790  147.5460 C   0  0  0  0  0  2  0  0  0  0  0  0
  186.7060  176.5230  145.3600 F   0  0  0  0  0  0  0  0  0  0  0  0
  186.2820  178.5920  142.6270 C   0  0  2  0  0  3  0  0  0  0  0  0
  187.3520  177.7510  145.2510 C   0  0  2  0  0  0  0  0  0  0  0  0
  187.3750  178.1530  147.7910 C   0  0  0  0  0  2  0  0  0  0  0  0
  188.2030  178.0100  146.5030 C   0  0  1  0  0  3  0  0  0  0  0  0
  189.2860  176.9460  146.6580 C   0  0  0  0  0  2  0  0  0  0  0  0
  186.3200  178.8780  145.1170 C   0  0  1  0  0  3  0  0  0  0  0  0
  187.4350  177.5650  142.7190 C   0  0  2  0  0  3  0  0  0  0  0  0
  185.4330  178.6410  143.9040 C   0  0  0  0  0  2  0  0  0  0  0  0
  189.3320  176.6620  144.1580 C   0  0  0  0  0  2  0  0  0  0  0  0
  190.1700  176.9150  145.4110 C   0  0  0  0  0  2  0  0  0  0  0  0
  188.2580  177.7470  144.0100 C   0  0  2  0  0  3  0  0  0  0  0  0
  185.4810  179.1060  146.3860 C   0  0  0  0  0  2  0  0  0  0  0  0
  190.1110  176.7970  140.1270 C   0  0  0  0  0  3  0  0  0  0  0  0
  188.9700  178.7740  139.4750 C   0  0  0  0  0  3  0  0  0  0  0  0
  188.3170  177.6430  141.5030 C   0  0  0  0  0  0  0  0  0  0  0  0
  189.9260  177.8310  139.2630 N   0  0  0  0  0  0  0  0  0  0  0  0
  189.3100  176.6830  141.2640 C   0  0  0  0  0  3  0  0  0  0  0  0
  188.1470  178.6960  140.6020 C   0  0  0  0  0  3  0  0  0  0  0  0
  185.4070  178.3610  141.3850 C   0  0  1  0  0  3  0  0  0  0  0  0
  184.0690  177.7200  141.7360 C   0  0  0  0  0  2  0  0  0  0  0  0
  183.0670  178.7490  141.9500 N   0  0  0  0  0  1  0  0  0  0  0  0
  185.2040  179.5660  140.7050 O   0  0  0  0  0  0  0  0  0  0  0  0
  184.0680  180.2680  138.8610 O   0  0  0  0  0  1  0  0  0  0  0  0
  184.7310  179.1920  139.4470 C   0  0  0  0  0  2  0  0  0  0  0  0
  1  5  1  0  0  0  0
  3 21  1  6  0  0  0
  3  9  1  0  0  0  0
  3 10  1  0  0  0  0
  4  2  1  1  0  0  0
  4  6  1  0  0  0  0
  6  7  1  1  0  0  0
  6  5  1  0  0  0  0
  8 10  1  6  0  0  0
  8  4  1  0  0  0  0
  8 14  1  0  0  0  0
  9 17  1  6  0  0  0
  9 13  1  0  0  0  0
 11 12  1  0  0  0  0
 12  7  1  0  0  0  0
 13 11  1  1  0  0  0
 13  4  1  0  0  0  0
 14  1  1  0  0  0  0
 15 19  1  0  0  0  0
 16 20  2  0  0  0  0
 18 16  1  0  0  0  0
 18 15  2  0  0  0  0
 19 17  2  0  0  0  0
 20 17  1  0  0  0  0
 21 22  1  1  0  0  0
 22 23  1  0  0  0  0
 24 21  1  0  0  0  0
 25 26  1  0  0  0  0
 26 24  1  0  0  0  0
M  END
>  <MODEL>
7

>  <REMARK>
 VINA RESULT:      -6.3      3.513      5.472
  Name = 
  5 active torsions:
  status: ('A' for Active; 'I' for Inactive)
    1  A    between atoms: C_4  and  C_18
    2  A    between atoms: C_7  and  C_18
    3  A    between atoms: C_13  and  C_14
    4  A    between atoms: C_18  and  O_22
    5  A    between atoms: C_21  and  O_22
                            x       y       z     vdW  Elec       q    Type
                         _______ _______ _______ _____ _____    ______ ____

>  <TORSDO>
F 5

$$$$
=
 OpenBabel10232410023D

 26 29  0  0  1  0  0  0  0  0999 V2000
  185.9950  178.0200  144.2450 C   0  0  0  0  0  2  0  0  0  0  0  0
  187.6690  176.1770  142.8190 F   0  0  0  0  0  0  0  0  0  0  0  0
  188.6010  177.9930  140.0320 C   0  0  2  0  0  3  0  0  0  0  0  0
  188.3410  177.3930  142.9140 C   0  0  2  0  0  0  0  0  0  0  0  0
  187.2340  178.0200  145.1490 C   0  0  0  0  0  2  0  0  0  0  0  0
  188.5460  177.7650  144.3910 C   0  0  1  0  0  3  0  0  0  0  0  0
  189.4020  176.7210  145.1040 C   0  0  0  0  0  2  0  0  0  0  0  0
  187.5240  178.5010  142.2380 C   0  0  1  0  0  3  0  0  0  0  0  0
  189.5480  176.9810  140.7180 C   0  0  2  0  0  3  0  0  0  0  0  0
  187.2700  178.1540  140.7790 C   0  0  0  0  0  2  0  0  0  0  0  0
  190.5580  176.2150  142.9260 C   0  0  0  0  0  2  0  0  0  0  0  0
  190.7500  176.5800  144.3980 C   0  0  0  0  0  2  0  0  0  0  0  0
  189.7070  177.2790  142.2220 C   0  0  2  0  0  3  0  0  0  0  0  0
  186.2130  178.8390  142.9680 C   0  0  0  0  0  2  0  0  0  0  0  0
  192.3400  176.2160  138.2490 C   0  0  0  0  0  3  0  0  0  0  0  0
  193.1990  177.6300  139.9520 C   0  0  0  0  0  3  0  0  0  0  0  0
  190.8860  176.9520  140.0310 C   0  0  0  0  0  0  0  0  0  0  0  0
  193.3650  176.9150  138.8070 N   0  0  0  0  0  0  0  0  0  0  0  0
  191.0800  176.2210  138.8510 C   0  0  0  0  0  3  0  0  0  0  0  0
  191.9540  177.6610  140.5850 C   0  0  0  0  0  3  0  0  0  0  0  0
  188.3700  177.6500  138.5520 C   0  0  1  0  0  3  0  0  0  0  0  0
  187.3390  176.5410  138.3730 C   0  0  0  0  0  2  0  0  0  0  0  0
  186.3250  176.9560  137.4210 N   0  0  0  0  0  1  0  0  0  0  0  0
  187.9820  178.7920  137.8450 O   0  0  0  0  0  0  0  0  0  0  0  0
  189.3520  178.1840  136.1310 O   0  0  0  0  0  1  0  0  0  0  0  0
  189.1060  179.1530  137.1010 C   0  0  0  0  0  2  0  0  0  0  0  0
  1  5  1  0  0  0  0
  3 21  1  6  0  0  0
  3  9  1  0  0  0  0
  3 10  1  0  0  0  0
  4  2  1  6  0  0  0
  4  6  1  0  0  0  0
  6  7  1  1  0  0  0
  6  5  1  0  0  0  0
  8 10  1  6  0  0  0
  8  4  1  0  0  0  0
  8 14  1  0  0  0  0
  9 17  1  6  0  0  0
  9 13  1  0  0  0  0
 11 12  1  0  0  0  0
 12  7  1  0  0  0  0
 13  4  1  0  0  0  0
 13 11  1  1  0  0  0
 14  1  1  0  0  0  0
 15 18  2  0  0  0  0
 15 19  1  0  0  0  0
 16 20  2  0  0  0  0
 17 20  1  0  0  0  0
 18 16  1  0  0  0  0
 19 17  2  0  0  0  0
 21 22  1  1  0  0  0
 23 22  1  0  0  0  0
 24 21  1  0  0  0  0
 25 26  1  0  0  0  0
 26 24  1  0  0  0  0
M  END
>  <MODEL>
8

>  <REMARK>
 VINA RESULT:      -6.3      4.140      6.234
  Name = 
  5 active torsions:
  status: ('A' for Active; 'I' for Inactive)
    1  A    between atoms: C_4  and  C_18
    2  A    between atoms: C_7  and  C_18
    3  A    between atoms: C_13  and  C_14
    4  A    between atoms: C_18  and  O_22
    5  A    between atoms: C_21  and  O_22
                            x       y       z     vdW  Elec       q    Type
                         _______ _______ _______ _____ _____    ______ ____

>  <TORSDO>
F 5

$$$$
=
 OpenBabel10232410023D

 26 29  0  0  1  0  0  0  0  0999 V2000
  184.6540  178.3920  146.7040 C   0  0  0  0  0  2  0  0  0  0  0  0
  186.3530  176.5890  145.2570 F   0  0  0  0  0  0  0  0  0  0  0  0
  187.1570  178.4040  142.4290 C   0  0  2  0  0  3  0  0  0  0  0  0
  186.9870  177.8270  145.3230 C   0  0  2  0  0  0  0  0  0  0  0  0
  185.9130  178.4420  147.5780 C   0  0  0  0  0  2  0  0  0  0  0  0
  187.2150  178.2220  146.7910 C   0  0  1  0  0  3  0  0  0  0  0  0
  188.1210  177.2140  147.4940 C   0  0  0  0  0  2  0  0  0  0  0  0
  186.1170  178.9000  144.6560 C   0  0  1  0  0  3  0  0  0  0  0  0
  188.1540  177.4310  143.1020 C   0  0  2  0  0  3  0  0  0  0  0  0
  185.8400  178.5300  143.2070 C   0  0  0  0  0  2  0  0  0  0  0  0
  189.2400  176.7220  145.2930 C   0  0  0  0  0  2  0  0  0  0  0  0
  189.4560  177.1100  146.7560 C   0  0  0  0  0  2  0  0  0  0  0  0
  188.3390  177.7500  144.5990 C   0  0  2  0  0  3  0  0  0  0  0  0
  184.8140  179.2030  145.4130 C   0  0  0  0  0  2  0  0  0  0  0  0
  190.9810  176.5740  140.7050 C   0  0  0  0  0  3  0  0  0  0  0  0
  191.6870  178.3580  142.1050 C   0  0  0  0  0  3  0  0  0  0  0  0
  189.4750  177.4370  142.3830 C   0  0  0  0  0  0  0  0  0  0  0  0
  191.9210  177.4760  141.0970 N   0  0  0  0  0  0  0  0  0  0  0  0
  189.7390  176.5380  141.3420 C   0  0  0  0  0  3  0  0  0  0  0  0
  190.4570  178.3540  142.7670 C   0  0  0  0  0  3  0  0  0  0  0  0
  186.9030  178.0370  140.9590 C   0  0  1  0  0  3  0  0  0  0  0  0
  185.4350  178.1920  140.5740 C   0  0  0  0  0  2  0  0  0  0  0  0
  185.1890  179.5380  140.0890 N   0  0  0  0  0  1  0  0  0  0  0  0
  187.7090  178.8130  140.1210 O   0  0  0  0  0  0  0  0  0  0  0  0
  188.0780  178.7920  137.8730 O   0  0  0  0  0  1  0  0  0  0  0  0
  187.9610  178.0000  139.0140 C   0  0  0  0  0  2  0  0  0  0  0  0
  1  5  1  0  0  0  0
  3 21  1  6  0  0  0
  3  9  1  0  0  0  0
  3 10  1  0  0  0  0
  4  2  1  6  0  0  0
  4  6  1  0  0  0  0
  6  7  1  1  0  0  0
  6  5  1  0  0  0  0
  8 10  1  6  0  0  0
  8  4  1  0  0  0  0
  8 14  1  0  0  0  0
  9 17  1  6  0  0  0
  9 13  1  0  0  0  0
 11 12  1  0  0  0  0
 12  7  1  0  0  0  0
 13 11  1  1  0  0  0
 13  4  1  0  0  0  0
 14  1  1  0  0  0  0
 15 18  2  0  0  0  0
 15 19  1  0  0  0  0
 16 20  2  0  0  0  0
 17 20  1  0  0  0  0
 18 16  1  0  0  0  0
 19 17  2  0  0  0  0
 21 22  1  6  0  0  0
 23 22  1  0  0  0  0
 24 21  1  0  0  0  0
 25 26  1  0  0  0  0
 26 24  1  0  0  0  0
M  END
>  <MODEL>
9

>  <REMARK>
 VINA RESULT:      -6.2      3.165      5.025
  Name = 
  5 active torsions:
  status: ('A' for Active; 'I' for Inactive)
    1  A    between atoms: C_4  and  C_18
    2  A    between atoms: C_7  and  C_18
    3  A    between atoms: C_13  and  C_14
    4  A    between atoms: C_18  and  O_22
    5  A    between atoms: C_21  and  O_22
                            x       y       z     vdW  Elec       q    Type
                         _______ _______ _______ _____ _____    ______ ____

>  <TORSDO>
F 5

$$$$
