=
 OpenBabel10232412003D

 41 45  0  0  1  0  0  0  0  0999 V2000
  187.8780  177.0160  137.4910 C   0  0  0  0  0  0  0  0  0  0  0  0
  189.0530  176.9390  139.6420 C   0  0  0  0  0  0  0  0  0  0  0  0
  189.6990  177.1900  135.7810 C   0  0  0  0  0  2  0  0  0  0  0  0
  188.6970  178.0530  134.9930 C   0  0  0  0  0  2  0  0  0  0  0  0
  190.0240  175.7220  137.7950 C   0  0  0  0  0  0  0  0  0  0  0  0
  185.5780  176.5530  136.6530 C   0  0  0  0  0  1  0  0  0  0  0  0
  189.0310  176.2990  136.8370 C   0  0  0  0  0  0  0  0  0  0  0  0
  189.3240  177.3450  140.9010 C   0  0  2  0  0  3  0  0  0  0  0  0
  186.7820  177.4740  136.5480 C   0  0  2  0  0  3  0  0  0  0  0  0
  187.3820  178.8860  141.5100 C   0  0  0  0  0  3  0  0  0  0  0  0
  186.4150  178.3540  134.3460 O   0  0  0  0  0  1  0  0  0  0  0  0
  187.8830  177.3550  138.8040 C   0  0  0  0  0  0  0  0  0  0  0  0
  187.2610  177.5290  135.0890 C   0  0  1  0  0  3  0  0  0  0  0  0
  188.5860  178.3590  141.6780 C   0  0  0  0  0  3  0  0  0  0  0  0
  186.6550  177.9890  139.3210 C   0  0  0  0  0  3  0  0  0  0  0  0
  186.4050  178.6090  140.4670 C   0  0  0  0  0  0  0  0  0  0  0  0
  191.0130  174.8150  137.3200 N   0  0  0  0  0  1  0  0  0  0  0  0
  190.0090  176.0440  139.0500 N   0  0  0  0  0  0  0  0  0  0  0  0
  190.4960  176.7990  141.5280 N   0  0  0  0  0  2  0  0  0  0  0  0
  191.6700  176.2570  143.5990 C   0  0  1  0  0  3  0  0  0  0  0  0
  189.2260  176.2010  143.4970 C   0  0  0  0  0  2  0  0  0  0  0  0
  192.1620  175.0800  144.1650 O   0  0  0  0  0  1  0  0  0  0  0  0
  190.4840  175.9240  142.6930 C   0  0  1  0  0  3  0  0  0  0  0  0
  189.6840  177.0480  144.6270 C   0  0  0  0  0  0  0  0  0  0  0  0
  188.8730  177.6010  145.5320 C   0  0  0  0  0  3  0  0  0  0  0  0
  191.1600  177.1700  144.7010 C   0  0  2  0  0  3  0  0  0  0  0  0
  191.5890  178.6000  144.4120 C   0  0  0  0  0  1  0  0  0  0  0  0
  187.4020  177.5180  145.4840 C   0  0  0  0  0  3  0  0  0  0  0  0
  186.5470  177.9540  146.4210 C   0  0  0  0  0  3  0  0  0  0  0  0
  187.8380  178.0560  148.5370 C   0  0  0  0  0  2  0  0  0  0  0  0
  186.8650  178.5070  147.7540 C   0  0  0  0  0  3  0  0  0  0  0  0
  185.0360  179.1700  140.6680 C   0  0  0  0  0  2  0  0  0  0  0  0
  182.9840  177.8960  140.3910 N   0  0  0  0  0  0  0  0  0  0  0  0
  184.0960  178.1470  141.3000 C   0  0  2  0  0  3  0  0  0  0  0  0
  181.8730  178.2380  140.9080 N   0  0  0  0  0  0  0  0  0  0  0  0
  182.0930  178.7510  142.2130 C   0  0  0  0  0  0  0  0  0  0  0  0
  183.3900  178.7160  142.4910 C   0  0  0  0  0  0  0  0  0  0  0  0
  184.0350  179.0940  143.7840 C   0  0  0  0  0  1  0  0  0  0  0  0
  180.6460  178.5240  144.0910 O   0  0  0  0  0  0  0  0  0  0  0  0
  181.0000  179.2040  143.0910 C   0  0  0  0  0  0  0  0  0  0  0  0
  180.3260  180.4250  142.8070 N   0  0  0  0  0  1  0  0  0  0  0  0
  1 12  1  0  0  0  0
  2  8  1  0  0  0  0
  3  7  1  0  0  0  0
  4 13  1  0  0  0  0
  4  3  1  0  0  0  0
  5 18  2  0  0  0  0
  7  1  2  0  0  0  0
  7  5  1  0  0  0  0
  8 19  1  6  0  0  0
  8 14  1  0  0  0  0
  9  6  1  6  0  0  0
  9  1  1  0  0  0  0
 10 14  2  0  0  0  0
 12 15  1  0  0  0  0
 12  2  2  0  0  0  0
 13 11  1  6  0  0  0
 13  9  1  0  0  0  0
 15 16  2  0  0  0  0
 16 32  1  0  0  0  0
 16 10  1  0  0  0  0
 17  5  1  0  0  0  0
 18  2  1  0  0  0  0
 20 22  1  1  0  0  0
 20 26  1  0  0  0  0
 21 24  1  0  0  0  0
 23 19  1  6  0  0  0
 23 21  1  0  0  0  0
 23 20  1  0  0  0  0
 24 26  1  0  0  0  0
 24 25  2  0  0  0  0
 26 27  1  6  0  0  0
 28 25  1  0  0  0  0
 28 29  2  0  0  0  0
 29 31  1  0  0  0  0
 31 30  2  0  0  0  0
 33 35  2  0  0  0  0
 33 34  1  0  0  0  0
 34 32  1  6  0  0  0
 34 37  1  0  0  0  0
 35 36  1  0  0  0  0
 36 37  2  0  0  0  0
 36 40  1  0  0  0  0
 37 38  1  0  0  0  0
 40 39  2  0  0  0  0
 41 40  1  0  0  0  0
M  END
>  <MODEL>
1

>  <REMARK>
 VINA RESULT:     -10.4      0.000      0.000
  Name = 
  7 active torsions:
  status: ('A' for Active; 'I' for Inactive)
    1  A    between atoms: C_10  and  C_25
    2  A    between atoms: C_12  and  C_17
    3  A    between atoms: C_16  and  N_21
    4  A    between atoms: N_21  and  C_23
    5  A    between atoms: C_25  and  C_37
    6  A    between atoms: C_32  and  C_35
    7  A    between atoms: C_34  and  C_38
                            x       y       z     vdW  Elec       q    Type
                         _______ _______ _______ _____ _____    ______ ____

>  <TORSDO>
F 7

$$$$
=
 OpenBabel10232412003D

 41 45  0  0  1  0  0  0  0  0999 V2000
  188.1510  176.8200  137.6080 C   0  0  0  0  0  0  0  0  0  0  0  0
  189.2490  176.8640  139.8010 C   0  0  0  0  0  0  0  0  0  0  0  0
  190.0320  176.9140  135.9580 C   0  0  0  0  0  2  0  0  0  0  0  0
  189.0560  177.7280  135.0900 C   0  0  0  0  0  2  0  0  0  0  0  0
  190.2910  175.5560  138.0570 C   0  0  0  0  0  0  0  0  0  0  0  0
  185.8860  176.3000  136.7150 C   0  0  0  0  0  1  0  0  0  0  0  0
  189.3310  176.0770  137.0340 C   0  0  0  0  0  0  0  0  0  0  0  0
  189.4730  177.3370  141.0450 C   0  0  2  0  0  3  0  0  0  0  0  0
  187.0880  177.2210  136.6040 C   0  0  2  0  0  3  0  0  0  0  0  0
  187.5050  178.8950  141.5020 C   0  0  0  0  0  3  0  0  0  0  0  0
  186.7980  177.9820  134.3470 O   0  0  0  0  0  1  0  0  0  0  0  0
  188.1080  177.2280  138.9010 C   0  0  0  0  0  0  0  0  0  0  0  0
  187.6190  177.2020  135.1620 C   0  0  1  0  0  3  0  0  0  0  0  0
  188.7030  178.3860  141.7410 C   0  0  0  0  0  3  0  0  0  0  0  0
  186.8600  177.8810  139.3400 C   0  0  0  0  0  3  0  0  0  0  0  0
  186.5670  178.5580  140.4420 C   0  0  0  0  0  0  0  0  0  0  0  0
  191.3000  174.6310  137.6650 N   0  0  0  0  0  1  0  0  0  0  0  0
  190.2290  175.9440  139.2910 N   0  0  0  0  0  0  0  0  0  0  0  0
  190.6240  176.8310  141.7420 N   0  0  0  0  0  2  0  0  0  0  0  0
  191.5030  176.5920  144.0070 C   0  0  1  0  0  3  0  0  0  0  0  0
  189.1670  176.0610  143.5100 C   0  0  0  0  0  2  0  0  0  0  0  0
  192.0990  175.5510  144.7200 O   0  0  0  0  0  1  0  0  0  0  0  0
  190.5730  176.0070  142.9430 C   0  0  1  0  0  3  0  0  0  0  0  0
  189.2570  177.0150  144.6440 C   0  0  0  0  0  0  0  0  0  0  0  0
  188.2130  177.4290  145.3670 C   0  0  0  0  0  3  0  0  0  0  0  0
  190.6490  177.4230  144.9510 C   0  0  2  0  0  3  0  0  0  0  0  0
  190.8490  178.8990  144.6460 C   0  0  0  0  0  1  0  0  0  0  0  0
  186.8140  177.0600  145.0850 C   0  0  0  0  0  3  0  0  0  0  0  0
  185.7270  177.8010  145.3420 C   0  0  0  0  0  3  0  0  0  0  0  0
  186.1150  179.2820  147.2940 C   0  0  0  0  0  2  0  0  0  0  0  0
  185.6540  179.0880  146.0640 C   0  0  0  0  0  3  0  0  0  0  0  0
  185.1890  179.1210  140.5640 C   0  0  0  0  0  2  0  0  0  0  0  0
  183.9970  180.4140  138.8850 N   0  0  0  0  0  0  0  0  0  0  0  0
  184.4400  179.0690  139.2350 C   0  0  2  0  0  3  0  0  0  0  0  0
  182.7280  180.4860  138.8290 N   0  0  0  0  0  0  0  0  0  0  0  0
  182.1650  179.2180  139.1260 C   0  0  0  0  0  0  0  0  0  0  0  0
  183.1360  178.3470  139.3710 C   0  0  0  0  0  0  0  0  0  0  0  0
  182.9760  176.8890  139.6500 C   0  0  0  0  0  1  0  0  0  0  0  0
  180.0700  178.8150  140.1840 O   0  0  0  0  0  0  0  0  0  0  0  0
  180.7140  178.9620  139.1110 C   0  0  0  0  0  0  0  0  0  0  0  0
  180.0250  178.8710  137.8690 N   0  0  0  0  0  1  0  0  0  0  0  0
  1 12  1  0  0  0  0
  2  8  1  0  0  0  0
  3  7  1  0  0  0  0
  4 13  1  0  0  0  0
  4  3  1  0  0  0  0
  5 18  2  0  0  0  0
  7  1  2  0  0  0  0
  7  5  1  0  0  0  0
  8 14  1  0  0  0  0
  8 19  1  6  0  0  0
  9  6  1  6  0  0  0
  9  1  1  0  0  0  0
 10 14  2  0  0  0  0
 12 15  1  0  0  0  0
 12  2  2  0  0  0  0
 13 11  1  6  0  0  0
 13  9  1  0  0  0  0
 15 16  2  0  0  0  0
 16 32  1  0  0  0  0
 16 10  1  0  0  0  0
 17  5  1  0  0  0  0
 18  2  1  0  0  0  0
 20 22  1  1  0  0  0
 20 26  1  0  0  0  0
 21 24  1  0  0  0  0
 23 19  1  6  0  0  0
 23 21  1  0  0  0  0
 23 20  1  0  0  0  0
 24 26  1  0  0  0  0
 24 25  2  0  0  0  0
 26 27  1  6  0  0  0
 28 29  2  0  0  0  0
 28 25  1  0  0  0  0
 29 31  1  0  0  0  0
 31 30  2  0  0  0  0
 33 34  1  0  0  0  0
 34 37  1  0  0  0  0
 34 32  1  1  0  0  0
 35 33  2  0  0  0  0
 35 36  1  0  0  0  0
 36 37  2  0  0  0  0
 37 38  1  0  0  0  0
 40 36  1  0  0  0  0
 40 39  2  0  0  0  0
 41 40  1  0  0  0  0
M  END
>  <MODEL>
2

>  <REMARK>
 VINA RESULT:      -9.8      1.666      1.879
  Name = 
  7 active torsions:
  status: ('A' for Active; 'I' for Inactive)
    1  A    between atoms: C_10  and  C_25
    2  A    between atoms: C_12  and  C_17
    3  A    between atoms: C_16  and  N_21
    4  A    between atoms: N_21  and  C_23
    5  A    between atoms: C_25  and  C_37
    6  A    between atoms: C_32  and  C_35
    7  A    between atoms: C_34  and  C_38
                            x       y       z     vdW  Elec       q    Type
                         _______ _______ _______ _____ _____    ______ ____

>  <TORSDO>
F 7

$$$$
=
 OpenBabel10232412003D

 41 45  0  0  1  0  0  0  0  0999 V2000
  184.4800  178.9110  140.2810 C   0  0  0  0  0  0  0  0  0  0  0  0
  186.7070  178.4370  141.1910 C   0  0  0  0  0  0  0  0  0  0  0  0
  182.8920  178.0130  141.9960 C   0  0  0  0  0  2  0  0  0  0  0  0
  181.9920  177.6750  140.7950 C   0  0  0  0  0  2  0  0  0  0  0  0
  185.0010  179.1620  142.7390 C   0  0  0  0  0  0  0  0  0  0  0  0
  183.5130  180.3260  138.4740 C   0  0  0  0  0  1  0  0  0  0  0  0
  183.9460  179.0820  141.6810 C   0  0  1  0  0  3  0  0  0  0  0  0
  187.9580  177.9300  141.1570 C   0  0  0  0  0  0  0  0  0  0  0  0
  183.4400  178.9830  139.1790 C   0  0  2  0  0  3  0  0  0  0  0  0
  188.3480  177.3510  138.7010 C   0  0  0  0  0  3  0  0  0  0  0  0
  181.1740  178.3870  138.6640 O   0  0  0  0  0  1  0  0  0  0  0  0
  185.7700  178.5760  140.0310 C   0  0  0  0  0  0  0  0  0  0  0  0
  182.0170  178.7580  139.7120 C   0  0  1  0  0  3  0  0  0  0  0  0
  188.6270  177.3110  139.9950 C   0  0  0  0  0  3  0  0  0  0  0  0
  186.1670  178.5150  138.6110 C   0  0  0  0  0  3  0  0  0  0  0  0
  187.2570  178.0380  138.0260 C   0  0  0  0  0  0  0  0  0  0  0  0
  184.6440  179.5710  144.0550 N   0  0  0  0  0  1  0  0  0  0  0  0
  186.2320  178.8520  142.4820 N   0  0  0  0  0  0  0  0  0  0  0  0
  188.6930  177.9120  142.3910 N   0  0  0  0  0  2  0  0  0  0  0  0
  191.1230  177.7720  142.5880 C   0  0  1  0  0  3  0  0  0  0  0  0
  189.6700  176.5390  144.1240 C   0  0  0  0  0  2  0  0  0  0  0  0
  192.1000  176.9300  142.0580 O   0  0  0  0  0  1  0  0  0  0  0  0
  189.7990  177.0110  142.6870 C   0  0  1  0  0  3  0  0  0  0  0  0
  190.6520  177.3590  144.8770 C   0  0  0  0  0  0  0  0  0  0  0  0
  190.7980  177.3310  146.2040 C   0  0  0  0  0  3  0  0  0  0  0  0
  191.5210  178.1790  143.9980 C   0  0  2  0  0  3  0  0  0  0  0  0
  191.2320  179.6580  144.1980 C   0  0  0  0  0  1  0  0  0  0  0  0
  189.9460  176.5430  147.1130 C   0  0  0  0  0  3  0  0  0  0  0  0
  188.6870  176.8290  147.4730 C   0  0  0  0  0  3  0  0  0  0  0  0
  186.8730  178.0580  146.3110 C   0  0  0  0  0  2  0  0  0  0  0  0
  187.9020  178.0380  147.1500 C   0  0  0  0  0  3  0  0  0  0  0  0
  187.3330  178.1100  136.5360 C   0  0  0  0  0  2  0  0  0  0  0  0
  186.0390  176.0740  136.8330 N   0  0  0  0  0  0  0  0  0  0  0  0
  186.8660  176.8110  135.8860 C   0  0  2  0  0  3  0  0  0  0  0  0
  186.5590  174.9520  137.1310 N   0  0  0  0  0  0  0  0  0  0  0  0
  187.7810  174.7920  136.4280 C   0  0  0  0  0  0  0  0  0  0  0  0
  188.0060  175.8630  135.6780 C   0  0  0  0  0  0  0  0  0  0  0  0
  189.1410  176.0650  134.7300 C   0  0  0  0  0  1  0  0  0  0  0  0
  188.3050  172.5260  135.9130 O   0  0  0  0  0  0  0  0  0  0  0  0
  188.6130  173.5790  136.5310 C   0  0  0  0  0  0  0  0  0  0  0  0
  189.7800  173.5920  137.3460 N   0  0  0  0  0  1  0  0  0  0  0  0
  1  7  1  0  0  0  0
  2 18  1  0  0  0  0
  4  3  1  0  0  0  0
  5 17  1  0  0  0  0
  7  3  1  1  0  0  0
  7  5  1  0  0  0  0
  8  2  2  0  0  0  0
  8 19  1  0  0  0  0
  9  6  1  1  0  0  0
  9 13  1  0  0  0  0
  9  1  1  0  0  0  0
 10 14  2  0  0  0  0
 12  1  2  0  0  0  0
 12  2  1  0  0  0  0
 13 11  1  6  0  0  0
 13  4  1  0  0  0  0
 14  8  1  0  0  0  0
 15 12  1  0  0  0  0
 16 15  2  0  0  0  0
 16 10  1  0  0  0  0
 18  5  2  0  0  0  0
 20 22  1  1  0  0  0
 20 23  1  0  0  0  0
 20 26  1  0  0  0  0
 21 24  1  0  0  0  0
 23 19  1  1  0  0  0
 23 21  1  0  0  0  0
 24 25  2  0  0  0  0
 25 28  1  0  0  0  0
 26 27  1  6  0  0  0
 26 24  1  0  0  0  0
 28 29  2  0  0  0  0
 30 31  2  0  0  0  0
 31 29  1  0  0  0  0
 32 16  1  0  0  0  0
 33 35  2  0  0  0  0
 34 32  1  1  0  0  0
 34 33  1  0  0  0  0
 36 40  1  0  0  0  0
 36 35  1  0  0  0  0
 37 34  1  0  0  0  0
 37 36  2  0  0  0  0
 38 37  1  0  0  0  0
 39 40  2  0  0  0  0
 40 41  1  0  0  0  0
M  END
>  <MODEL>
3

>  <REMARK>
 VINA RESULT:      -8.5      2.365      6.151
  Name = 
  7 active torsions:
  status: ('A' for Active; 'I' for Inactive)
    1  A    between atoms: C_10  and  C_25
    2  A    between atoms: C_12  and  C_17
    3  A    between atoms: C_16  and  N_21
    4  A    between atoms: N_21  and  C_23
    5  A    between atoms: C_25  and  C_37
    6  A    between atoms: C_32  and  C_35
    7  A    between atoms: C_34  and  C_38
                            x       y       z     vdW  Elec       q    Type
                         _______ _______ _______ _____ _____    ______ ____

>  <TORSDO>
F 7

$$$$
=
 OpenBabel10232412003D

 41 45  0  0  1  0  0  0  0  0999 V2000
  188.5230  177.2490  138.5930 C   0  0  0  0  0  0  0  0  0  0  0  0
  186.4740  178.3320  139.3930 C   0  0  0  0  0  0  0  0  0  0  0  0
  187.7430  175.6340  136.8450 C   0  0  0  0  0  2  0  0  0  0  0  0
  188.8990  174.7460  137.3370 C   0  0  0  0  0  2  0  0  0  0  0  0
  186.6510  177.8910  137.0250 C   0  0  0  0  0  0  0  0  0  0  0  0
  190.9760  177.6460  138.7540 C   0  0  0  0  0  1  0  0  0  0  0  0
  187.9120  177.1120  137.2210 C   0  0  0  0  0  0  0  0  0  0  0  0
  185.5880  178.7280  140.3320 C   0  0  2  0  0  3  0  0  0  0  0  0
  189.8800  176.5950  138.7650 C   0  0  2  0  0  3  0  0  0  0  0  0
  186.8160  178.4070  142.5470 C   0  0  0  0  0  3  0  0  0  0  0  0
  191.1620  174.6780  138.1050 O   0  0  0  0  0  1  0  0  0  0  0  0
  187.8490  177.7920  139.6370 C   0  0  0  0  0  0  0  0  0  0  0  0
  190.1590  175.5470  137.6760 C   0  0  1  0  0  3  0  0  0  0  0  0
  185.7450  178.6150  141.7950 C   0  0  0  0  0  3  0  0  0  0  0  0
  188.5990  177.9260  140.9010 C   0  0  0  0  0  3  0  0  0  0  0  0
  188.1970  178.2180  142.1310 C   0  0  0  0  0  0  0  0  0  0  0  0
  186.1180  178.0460  135.7140 N   0  0  0  0  0  1  0  0  0  0  0  0
  186.0250  178.4160  138.0300 N   0  0  0  0  0  0  0  0  0  0  0  0
  184.3260  179.2380  139.8710 N   0  0  0  0  0  2  0  0  0  0  0  0
  181.9200  179.5950  139.6610 C   0  0  1  0  0  3  0  0  0  0  0  0
  182.8320  177.3380  139.9050 C   0  0  0  0  0  2  0  0  0  0  0  0
  180.8790  179.8020  140.5670 O   0  0  0  0  0  1  0  0  0  0  0  0
  183.0240  178.7800  140.3370 C   0  0  1  0  0  3  0  0  0  0  0  0
  181.9420  177.4170  138.7190 C   0  0  0  0  0  0  0  0  0  0  0  0
  181.5940  176.3710  137.9660 C   0  0  0  0  0  3  0  0  0  0  0  0
  181.4080  178.7810  138.4840 C   0  0  2  0  0  3  0  0  0  0  0  0
  181.9670  179.3530  137.1920 C   0  0  0  0  0  1  0  0  0  0  0  0
  182.1150  175.0060  138.1560 C   0  0  0  0  0  3  0  0  0  0  0  0
  183.2240  174.4910  137.6070 C   0  0  0  0  0  3  0  0  0  0  0  0
  183.7470  175.4120  135.3640 C   0  0  0  0  0  2  0  0  0  0  0  0
  184.1140  175.1130  136.6050 C   0  0  0  0  0  3  0  0  0  0  0  0
  189.2300  178.2490  143.2090 C   0  0  0  0  0  2  0  0  0  0  0  0
  188.4380  177.3960  145.3430 N   0  0  0  0  0  0  0  0  0  0  0  0
  189.1330  177.0260  144.1160 C   0  0  2  0  0  3  0  0  0  0  0  0
  189.1870  177.2590  146.3620 N   0  0  0  0  0  0  0  0  0  0  0  0
  190.4600  176.7810  145.9570 C   0  0  0  0  0  0  0  0  0  0  0  0
  190.4770  176.6260  144.6390 C   0  0  0  0  0  0  0  0  0  0  0  0
  191.5980  176.0730  143.8220 C   0  0  0  0  0  1  0  0  0  0  0  0
  191.7910  177.2560  147.8740 O   0  0  0  0  0  0  0  0  0  0  0  0
  191.5460  176.4850  146.9080 C   0  0  0  0  0  0  0  0  0  0  0  0
  192.3390  175.3160  146.7340 N   0  0  0  0  0  1  0  0  0  0  0  0
  1  9  1  0  0  0  0
  1 12  1  0  0  0  0
  2 12  2  0  0  0  0
  2  8  1  0  0  0  0
  3  7  1  0  0  0  0
  3  4  1  0  0  0  0
  4 13  1  0  0  0  0
  5  7  1  0  0  0  0
  5 18  2  0  0  0  0
  7  1  2  0  0  0  0
  8 19  1  6  0  0  0
  8 14  1  0  0  0  0
  9  6  1  6  0  0  0
 12 15  1  0  0  0  0
 13 11  1  1  0  0  0
 13  9  1  0  0  0  0
 14 10  2  0  0  0  0
 15 16  2  0  0  0  0
 16 10  1  0  0  0  0
 16 32  1  0  0  0  0
 17  5  1  0  0  0  0
 18  2  1  0  0  0  0
 20 23  1  0  0  0  0
 20 22  1  1  0  0  0
 21 23  1  0  0  0  0
 23 19  1  6  0  0  0
 24 21  1  0  0  0  0
 25 28  1  0  0  0  0
 25 24  2  0  0  0  0
 26 27  1  6  0  0  0
 26 24  1  0  0  0  0
 26 20  1  0  0  0  0
 29 28  2  0  0  0  0
 30 31  2  0  0  0  0
 31 29  1  0  0  0  0
 33 35  2  0  0  0  0
 34 32  1  6  0  0  0
 34 37  1  0  0  0  0
 34 33  1  0  0  0  0
 36 35  1  0  0  0  0
 36 40  1  0  0  0  0
 37 36  2  0  0  0  0
 38 37  1  0  0  0  0
 40 39  2  0  0  0  0
 41 40  1  0  0  0  0
M  END
>  <MODEL>
4

>  <REMARK>
 VINA RESULT:      -8.4      2.898      7.986
  Name = 
  7 active torsions:
  status: ('A' for Active; 'I' for Inactive)
    1  A    between atoms: C_10  and  C_25
    2  A    between atoms: C_12  and  C_17
    3  A    between atoms: C_16  and  N_21
    4  A    between atoms: N_21  and  C_23
    5  A    between atoms: C_25  and  C_37
    6  A    between atoms: C_32  and  C_35
    7  A    between atoms: C_34  and  C_38
                            x       y       z     vdW  Elec       q    Type
                         _______ _______ _______ _____ _____    ______ ____

>  <TORSDO>
F 7

$$$$
=
 OpenBabel10232412003D

 41 45  0  0  1  0  0  0  0  0999 V2000
  188.4870  177.2580  143.5930 C   0  0  0  0  0  0  0  0  0  0  0  0
  186.4450  178.0960  142.5250 C   0  0  0  0  0  0  0  0  0  0  0  0
  188.5420  178.3900  145.8260 C   0  0  0  0  0  2  0  0  0  0  0  0
  190.0710  178.3790  145.6470 C   0  0  0  0  0  2  0  0  0  0  0  0
  186.3470  177.6040  144.8880 C   0  0  0  0  0  0  0  0  0  0  0  0
  190.1080  175.4040  143.2230 C   0  0  0  0  0  1  0  0  0  0  0  0
  187.8230  177.3630  144.9420 C   0  0  1  0  0  3  0  0  0  0  0  0
  185.7360  178.6790  141.5350 C   0  0  0  0  0  0  0  0  0  0  0  0
  189.9500  176.8600  143.6220 C   0  0  2  0  0  3  0  0  0  0  0  0
  187.3310  178.7240  139.5430 C   0  0  0  0  0  3  0  0  0  0  0  0
  191.9720  177.1470  144.8820 O   0  0  0  0  0  1  0  0  0  0  0  0
  187.8660  177.6280  142.4460 C   0  0  0  0  0  0  0  0  0  0  0  0
  190.5830  177.0870  145.0040 C   0  0  1  0  0  3  0  0  0  0  0  0
  186.2380  179.0730  140.2050 C   0  0  0  0  0  3  0  0  0  0  0  0
  188.6140  177.4020  141.1940 C   0  0  0  0  0  3  0  0  0  0  0  0
  188.3940  177.8190  139.9550 C   0  0  0  0  0  0  0  0  0  0  0  0
  185.5700  177.4730  146.0730 N   0  0  0  0  0  1  0  0  0  0  0  0
  185.7650  177.9440  143.7820 N   0  0  0  0  0  0  0  0  0  0  0  0
  184.3720  179.0300  141.8240 N   0  0  0  0  0  2  0  0  0  0  0  0
  182.1280  179.1540  140.8700 C   0  0  1  0  0  3  0  0  0  0  0  0
  183.6160  177.2880  140.3280 C   0  0  0  0  0  2  0  0  0  0  0  0
  180.8740  178.6820  141.2560 O   0  0  0  0  0  1  0  0  0  0  0  0
  183.2110  178.2370  141.4410 C   0  0  1  0  0  3  0  0  0  0  0  0
  183.1000  177.9230  139.0890 C   0  0  0  0  0  0  0  0  0  0  0  0
  183.3220  177.4620  137.8560 C   0  0  0  0  0  3  0  0  0  0  0  0
  182.2400  179.1020  139.3550 C   0  0  2  0  0  3  0  0  0  0  0  0
  182.9110  180.3710  138.8540 C   0  0  0  0  0  1  0  0  0  0  0  0
  184.1820  176.3040  137.5490 C   0  0  0  0  0  3  0  0  0  0  0  0
  185.3910  176.3410  136.9710 C   0  0  0  0  0  3  0  0  0  0  0  0
  187.2870  177.4590  135.8260 C   0  0  0  0  0  2  0  0  0  0  0  0
  186.0920  177.5110  136.4040 C   0  0  0  0  0  3  0  0  0  0  0  0
  189.3780  177.4230  138.9050 C   0  0  0  0  0  2  0  0  0  0  0  0
  191.4630  177.3710  140.1540 N   0  0  0  0  0  0  0  0  0  0  0  0
  190.4820  176.5350  139.4730 C   0  0  2  0  0  3  0  0  0  0  0  0
  192.6070  177.2880  139.6020 N   0  0  0  0  0  0  0  0  0  0  0  0
  192.5420  176.3970  138.5010 C   0  0  0  0  0  0  0  0  0  0  0  0
  191.3070  175.9250  138.3840 C   0  0  0  0  0  0  0  0  0  0  0  0
  190.8320  174.9040  137.4030 C   0  0  0  0  0  1  0  0  0  0  0  0
  193.9320  176.6570  136.5840 O   0  0  0  0  0  0  0  0  0  0  0  0
  193.7120  176.0600  137.6710 C   0  0  0  0  0  0  0  0  0  0  0  0
  194.6080  175.0380  138.0960 N   0  0  0  0  0  1  0  0  0  0  0  0
  1  9  1  0  0  0  0
  1  7  1  0  0  0  0
  2 18  1  0  0  0  0
  4  3  1  0  0  0  0
  5  7  1  0  0  0  0
  5 17  1  0  0  0  0
  7  3  1  1  0  0  0
  8 19  1  0  0  0  0
  8  2  2  0  0  0  0
  9  6  1  1  0  0  0
  9 13  1  0  0  0  0
 10 16  1  0  0  0  0
 10 14  2  0  0  0  0
 12  2  1  0  0  0  0
 12  1  2  0  0  0  0
 13 11  1  6  0  0  0
 13  4  1  0  0  0  0
 14  8  1  0  0  0  0
 15 12  1  0  0  0  0
 16 15  2  0  0  0  0
 18  5  2  0  0  0  0
 20 22  1  6  0  0  0
 20 23  1  0  0  0  0
 21 23  1  0  0  0  0
 23 19  1  6  0  0  0
 24 26  1  0  0  0  0
 24 21  1  0  0  0  0
 25 24  2  0  0  0  0
 26 27  1  1  0  0  0
 26 20  1  0  0  0  0
 28 25  1  0  0  0  0
 29 28  2  0  0  0  0
 30 31  2  0  0  0  0
 31 29  1  0  0  0  0
 32 16  1  0  0  0  0
 34 32  1  6  0  0  0
 34 33  1  0  0  0  0
 35 33  2  0  0  0  0
 36 35  1  0  0  0  0
 37 36  2  0  0  0  0
 37 34  1  0  0  0  0
 38 37  1  0  0  0  0
 39 40  2  0  0  0  0
 40 41  1  0  0  0  0
 40 36  1  0  0  0  0
M  END
>  <MODEL>
5

>  <REMARK>
 VINA RESULT:      -8.4      2.466      9.265
  Name = 
  7 active torsions:
  status: ('A' for Active; 'I' for Inactive)
    1  A    between atoms: C_10  and  C_25
    2  A    between atoms: C_12  and  C_17
    3  A    between atoms: C_16  and  N_21
    4  A    between atoms: N_21  and  C_23
    5  A    between atoms: C_25  and  C_37
    6  A    between atoms: C_32  and  C_35
    7  A    between atoms: C_34  and  C_38
                            x       y       z     vdW  Elec       q    Type
                         _______ _______ _______ _____ _____    ______ ____

>  <TORSDO>
F 7

$$$$
=
 OpenBabel10232412003D

 41 45  0  0  1  0  0  0  0  0999 V2000
  188.0550  178.3940  140.5480 C   0  0  0  0  0  0  0  0  0  0  0  0
  185.8350  178.4710  139.5080 C   0  0  0  0  0  0  0  0  0  0  0  0
  189.3070  176.6660  139.2370 C   0  0  0  0  0  2  0  0  0  0  0  0
  189.9930  176.3380  140.5750 C   0  0  0  0  0  2  0  0  0  0  0  0
  187.7440  178.2340  138.0470 C   0  0  0  0  0  0  0  0  0  0  0  0
  189.3750  179.7920  142.1300 C   0  0  0  0  0  1  0  0  0  0  0  0
  188.6670  178.0600  139.2110 C   0  0  0  0  0  0  0  0  0  0  0  0
  184.4860  178.4160  139.5030 C   0  0  0  0  0  0  0  0  0  0  0  0
  189.0140  178.3750  141.7220 C   0  0  2  0  0  3  0  0  0  0  0  0
  183.8300  178.5680  141.9650 C   0  0  0  0  0  3  0  0  0  0  0  0
  190.9210  177.2120  142.5970 O   0  0  0  0  0  1  0  0  0  0  0  0
  186.7190  178.5590  140.7140 C   0  0  2  0  0  3  0  0  0  0  0  0
  190.2960  177.5870  141.4080 C   0  0  1  0  0  3  0  0  0  0  0  0
  183.6030  178.3280  140.6820 C   0  0  0  0  0  3  0  0  0  0  0  0
  186.2710  178.9540  142.0630 C   0  0  0  0  0  3  0  0  0  0  0  0
  185.0620  179.0010  142.6060 C   0  0  0  0  0  0  0  0  0  0  0  0
  188.2680  178.1960  136.7240 N   0  0  0  0  0  1  0  0  0  0  0  0
  186.4720  178.4050  138.2210 N   0  0  0  0  0  0  0  0  0  0  0  0
  183.8360  178.3570  138.2230 N   0  0  0  0  0  2  0  0  0  0  0  0
  182.2510  177.7600  136.4650 C   0  0  1  0  0  3  0  0  0  0  0  0
  183.0130  176.0890  138.0820 C   0  0  0  0  0  2  0  0  0  0  0  0
  180.8590  177.7450  136.3670 O   0  0  0  0  0  1  0  0  0  0  0  0
  182.6560  177.5560  137.9260 C   0  0  1  0  0  3  0  0  0  0  0  0
  183.2100  175.6020  136.6940 C   0  0  0  0  0  0  0  0  0  0  0  0
  183.6310  174.3750  136.3770 C   0  0  0  0  0  3  0  0  0  0  0  0
  182.8230  176.6000  135.6670 C   0  0  2  0  0  3  0  0  0  0  0  0
  184.0460  177.0700  134.8970 C   0  0  0  0  0  1  0  0  0  0  0  0
  184.0400  173.3610  137.3660 C   0  0  0  0  0  3  0  0  0  0  0  0
  185.2970  173.0210  137.6860 C   0  0  0  0  0  3  0  0  0  0  0  0
  186.9880  174.7360  137.0930 C   0  0  0  0  0  2  0  0  0  0  0  0
  186.5510  173.4830  137.0570 C   0  0  0  0  0  3  0  0  0  0  0  0
  184.9580  179.4290  144.0330 C   0  0  0  0  0  2  0  0  0  0  0  0
  184.3000  178.6060  146.2240 N   0  0  0  0  0  0  0  0  0  0  0  0
  184.9680  178.2340  144.9820 C   0  0  2  0  0  3  0  0  0  0  0  0
  185.0950  178.5450  147.2150 N   0  0  0  0  0  0  0  0  0  0  0  0
  186.3770  178.1260  146.7740 C   0  0  0  0  0  0  0  0  0  0  0  0
  186.3520  177.9280  145.4620 C   0  0  0  0  0  0  0  0  0  0  0  0
  187.4700  177.4130  144.6170 C   0  0  0  0  0  1  0  0  0  0  0  0
  187.8850  178.8370  148.4750 O   0  0  0  0  0  0  0  0  0  0  0  0
  187.5140  177.9250  147.6890 C   0  0  0  0  0  0  0  0  0  0  0  0
  188.2130  176.6850  147.6840 N   0  0  0  0  0  1  0  0  0  0  0  0
  1 12  1  0  0  0  0
  1  9  1  0  0  0  0
  2 12  1  0  0  0  0
  3  4  1  0  0  0  0
  4 13  1  0  0  0  0
  5 18  2  0  0  0  0
  5  7  1  0  0  0  0
  7  3  1  0  0  0  0
  7  1  2  0  0  0  0
  8  2  2  0  0  0  0
  8 14  1  0  0  0  0
  9  6  1  6  0  0  0
 10 16  1  0  0  0  0
 12 15  1  6  0  0  0
 13  9  1  0  0  0  0
 13 11  1  1  0  0  0
 14 10  2  0  0  0  0
 15 16  2  0  0  0  0
 16 32  1  0  0  0  0
 17  5  1  0  0  0  0
 18  2  1  0  0  0  0
 19  8  1  0  0  0  0
 20 22  1  1  0  0  0
 20 23  1  0  0  0  0
 23 21  1  0  0  0  0
 23 19  1  6  0  0  0
 24 21  1  0  0  0  0
 25 24  2  0  0  0  0
 25 28  1  0  0  0  0
 26 27  1  1  0  0  0
 26 20  1  0  0  0  0
 26 24  1  0  0  0  0
 28 29  2  0  0  0  0
 31 30  2  0  0  0  0
 31 29  1  0  0  0  0
 33 35  2  0  0  0  0
 34 32  1  6  0  0  0
 34 37  1  0  0  0  0
 34 33  1  0  0  0  0
 36 35  1  0  0  0  0
 36 40  1  0  0  0  0
 37 36  2  0  0  0  0
 38 37  1  0  0  0  0
 40 39  2  0  0  0  0
 41 40  1  0  0  0  0
M  END
>  <MODEL>
6

>  <REMARK>
 VINA RESULT:      -8.0      3.047      7.691
  Name = 
  7 active torsions:
  status: ('A' for Active; 'I' for Inactive)
    1  A    between atoms: C_10  and  C_25
    2  A    between atoms: C_12  and  C_17
    3  A    between atoms: C_16  and  N_21
    4  A    between atoms: N_21  and  C_23
    5  A    between atoms: C_25  and  C_37
    6  A    between atoms: C_32  and  C_35
    7  A    between atoms: C_34  and  C_38
                            x       y       z     vdW  Elec       q    Type
                         _______ _______ _______ _____ _____    ______ ____

>  <TORSDO>
F 7

$$$$
=
 OpenBabel10232412003D

 41 45  0  0  1  0  0  0  0  0999 V2000
  188.4860  177.2310  143.5770 C   0  0  0  0  0  0  0  0  0  0  0  0
  186.4410  178.0630  142.5080 C   0  0  0  0  0  0  0  0  0  0  0  0
  188.5690  178.4100  145.7850 C   0  0  0  0  0  2  0  0  0  0  0  0
  190.0960  178.3840  145.5920 C   0  0  0  0  0  2  0  0  0  0  0  0
  186.3600  177.6230  144.8820 C   0  0  0  0  0  0  0  0  0  0  0  0
  190.0880  175.3570  143.2330 C   0  0  0  0  0  1  0  0  0  0  0  0
  187.8340  177.3710  144.9290 C   0  0  1  0  0  3  0  0  0  0  0  0
  185.7270  178.6310  141.5130 C   0  0  0  0  0  0  0  0  0  0  0  0
  189.9460  176.8230  143.6020 C   0  0  2  0  0  3  0  0  0  0  0  0
  187.3050  178.6190  139.5070 C   0  0  0  0  0  3  0  0  0  0  0  0
  191.9800  177.1200  144.8380 O   0  0  0  0  0  1  0  0  0  0  0  0
  187.8570  177.5820  142.4280 C   0  0  0  0  0  0  0  0  0  0  0  0
  190.5930  177.0740  144.9730 C   0  0  1  0  0  3  0  0  0  0  0  0
  186.2210  178.9920  140.1700 C   0  0  0  0  0  3  0  0  0  0  0  0
  188.5920  177.3220  141.1750 C   0  0  0  0  0  3  0  0  0  0  0  0
  188.3650  177.7150  139.9290 C   0  0  0  0  0  0  0  0  0  0  0  0
  185.5930  177.5240  146.0770 N   0  0  0  0  0  1  0  0  0  0  0  0
  185.7710  177.9440  143.7750 N   0  0  0  0  0  0  0  0  0  0  0  0
  184.3690  178.9990  141.8060 N   0  0  0  0  0  2  0  0  0  0  0  0
  182.1090  179.1190  140.8900 C   0  0  1  0  0  3  0  0  0  0  0  0
  183.5800  177.2420  140.3450 C   0  0  0  0  0  2  0  0  0  0  0  0
  180.8600  178.6570  141.3050 O   0  0  0  0  0  1  0  0  0  0  0  0
  183.1990  178.2050  141.4540 C   0  0  1  0  0  3  0  0  0  0  0  0
  183.0450  177.8640  139.1080 C   0  0  0  0  0  0  0  0  0  0  0  0
  183.2430  177.3860  137.8770 C   0  0  0  0  0  3  0  0  0  0  0  0
  182.1940  179.0490  139.3740 C   0  0  2  0  0  3  0  0  0  0  0  0
  182.8600  180.3090  138.8460 C   0  0  0  0  0  1  0  0  0  0  0  0
  184.0930  176.2220  137.5680 C   0  0  0  0  0  3  0  0  0  0  0  0
  183.6740  174.9790  137.2930 C   0  0  0  0  0  3  0  0  0  0  0  0
  181.5130  174.2960  136.2840 C   0  0  0  0  0  2  0  0  0  0  0  0
  182.2950  174.4530  137.3460 C   0  0  0  0  0  3  0  0  0  0  0  0
  189.3360  177.2890  138.8780 C   0  0  0  0  0  2  0  0  0  0  0  0
  191.4040  177.3260  140.1560 N   0  0  0  0  0  0  0  0  0  0  0  0
  190.4670  176.4480  139.4650 C   0  0  2  0  0  3  0  0  0  0  0  0
  192.5580  177.2890  139.6210 N   0  0  0  0  0  0  0  0  0  0  0  0
  192.5450  176.3920  138.5220 C   0  0  0  0  0  0  0  0  0  0  0  0
  191.3320  175.8680  138.3900 C   0  0  0  0  0  0  0  0  0  0  0  0
  190.9130  174.8260  137.4070 C   0  0  0  0  0  1  0  0  0  0  0  0
  194.0050  176.7750  136.6800 O   0  0  0  0  0  0  0  0  0  0  0  0
  193.7390  176.1000  137.7100 C   0  0  0  0  0  0  0  0  0  0  0  0
  194.6060  175.0350  138.0870 N   0  0  0  0  0  1  0  0  0  0  0  0
  1  9  1  0  0  0  0
  1  7  1  0  0  0  0
  2 18  1  0  0  0  0
  4  3  1  0  0  0  0
  5  7  1  0  0  0  0
  5 17  1  0  0  0  0
  7  3  1  6  0  0  0
  8 19  1  0  0  0  0
  8  2  2  0  0  0  0
  9  6  1  1  0  0  0
  9 13  1  0  0  0  0
 10 16  1  0  0  0  0
 10 14  2  0  0  0  0
 12  2  1  0  0  0  0
 12  1  2  0  0  0  0
 13 11  1  6  0  0  0
 13  4  1  0  0  0  0
 14  8  1  0  0  0  0
 15 12  1  0  0  0  0
 16 15  2  0  0  0  0
 18  5  2  0  0  0  0
 20 22  1  6  0  0  0
 20 23  1  0  0  0  0
 21 23  1  0  0  0  0
 23 19  1  6  0  0  0
 24 26  1  0  0  0  0
 24 21  1  0  0  0  0
 25 24  2  0  0  0  0
 26 27  1  1  0  0  0
 26 20  1  0  0  0  0
 28 25  1  0  0  0  0
 29 31  1  0  0  0  0
 29 28  2  0  0  0  0
 30 31  2  0  0  0  0
 32 16  1  0  0  0  0
 34 32  1  6  0  0  0
 34 33  1  0  0  0  0
 35 33  2  0  0  0  0
 36 35  1  0  0  0  0
 37 36  2  0  0  0  0
 37 34  1  0  0  0  0
 38 37  1  0  0  0  0
 39 40  2  0  0  0  0
 40 41  1  0  0  0  0
 40 36  1  0  0  0  0
M  END
>  <MODEL>
7

>  <REMARK>
 VINA RESULT:      -7.8      2.666      9.349
  Name = 
  7 active torsions:
  status: ('A' for Active; 'I' for Inactive)
    1  A    between atoms: C_10  and  C_25
    2  A    between atoms: C_12  and  C_17
    3  A    between atoms: C_16  and  N_21
    4  A    between atoms: N_21  and  C_23
    5  A    between atoms: C_25  and  C_37
    6  A    between atoms: C_32  and  C_35
    7  A    between atoms: C_34  and  C_38
                            x       y       z     vdW  Elec       q    Type
                         _______ _______ _______ _____ _____    ______ ____

>  <TORSDO>
F 7

$$$$
