=
 OpenBabel10232411593D

 41 44  0  0  1  0  0  0  0  0999 V2000
  190.1480  177.3350  139.2460 F   0  0  0  0  0  0  0  0  0  0  0  0
  188.1840  178.2650  140.9370 C   0  0  0  0  0  3  0  0  0  0  0  0
  186.3380  178.1040  137.6710 C   0  0  0  0  0  3  0  0  0  0  0  0
  189.0610  177.9380  138.6210 C   0  0  0  0  0  0  0  0  0  0  0  0
  184.7740  178.5220  142.1750 C   0  0  0  0  0  0  0  0  0  0  0  0
  189.4750  179.1060  137.9950 F   0  0  0  0  0  0  0  0  0  0  0  0
  187.9650  178.2500  139.6150 C   0  0  0  0  0  0  0  0  0  0  0  0
  186.7290  177.8420  142.9130 C   0  0  2  0  0  3  0  0  0  0  0  0
  187.2440  177.4890  136.9710 N   0  0  0  0  0  0  0  0  0  0  0  0
  185.3160  177.8420  143.1310 N   0  0  0  0  0  0  0  0  0  0  0  0
  185.5760  178.7080  139.8560 N   0  0  0  0  0  0  0  0  0  0  0  0
  188.4770  176.9680  137.5690 C   0  0  1  0  0  3  0  0  0  0  0  0
  185.7770  179.1210  141.2510 C   0  0  2  0  0  3  0  0  0  0  0  0
  187.0240  178.5170  141.8100 C   0  0  2  0  0  3  0  0  0  0  0  0
  186.5780  178.3970  139.0850 C   0  0  0  0  0  0  0  0  0  0  0  0
  187.6690  176.9370  143.6450 C   0  0  0  0  0  2  0  0  0  0  0  0
  187.6670  177.2660  145.1350 C   0  0  0  0  0  2  0  0  0  0  0  0
  188.9420  178.0100  145.5360 C   0  0  0  0  0  2  0  0  0  0  0  0
  189.7010  177.2970  146.6130 C   0  0  0  0  0  0  0  0  0  0  0  0
  189.0990  176.9790  147.7200 N   0  0  0  0  0  2  0  0  0  0  0  0
  191.5630  176.5020  145.0130 C   0  0  0  0  0  1  0  0  0  0  0  0
  191.0920  176.8710  146.3800 C   0  0  0  0  0  0  0  0  0  0  0  0
  191.9000  176.7990  147.3400 O   0  0  0  0  0  0  0  0  0  0  0  0
  189.4600  176.5500  136.4690 C   0  0  0  0  0  2  0  0  0  0  0  0
  189.3120  175.1880  136.1690 O   0  0  0  0  0  0  0  0  0  0  0  0
  190.7650  174.3410  137.7380 O   0  0  0  0  0  1  0  0  0  0  0  0
  190.5810  174.6240  136.3780 C   0  0  0  0  0  2  0  0  0  0  0  0
  183.3010  178.7510  142.0870 C   0  0  0  0  0  2  0  0  0  0  0  0
  181.8590  179.3340  139.9580 C   0  0  1  0  0  3  0  0  0  0  0  0
  180.5660  178.6090  139.5110 C   0  0  0  0  0  2  0  0  0  0  0  0
  180.8000  177.1800  138.9620 C   0  0  0  0  0  2  0  0  0  0  0  0
  182.7520  178.3880  140.7350 C   0  0  0  0  0  0  0  0  0  0  0  0
  182.9280  177.1430  140.2790 C   0  0  0  0  0  3  0  0  0  0  0  0
  182.2800  176.7330  138.9730 C   0  0  1  0  0  3  0  0  0  0  0  0
  181.2730  174.6660  138.2030 O   0  0  0  0  0  1  0  0  0  0  0  0
  182.4560  175.2250  138.7190 C   0  0  1  0  0  3  0  0  0  0  0  0
  183.4960  173.5600  137.0990 C   0  0  0  0  0  1  0  0  0  0  0  0
  183.6050  174.9310  137.7440 C   0  0  1  0  0  3  0  0  0  0  0  0
  183.6230  175.9060  136.7420 O   0  0  0  0  0  1  0  0  0  0  0  0
  182.5500  179.8010  138.8360 O   0  0  0  0  0  0  0  0  0  0  0  0
  181.7350  180.7960  138.2930 C   0  0  0  0  0  1  0  0  0  0  0  0
  3 15  1  0  0  0  0
  4  1  1  0  0  0  0
  4  7  1  0  0  0  0
  5 10  2  0  0  0  0
  6  4  1  0  0  0  0
  7  2  2  0  0  0  0
  8 10  1  0  0  0  0
  8 16  1  6  0  0  0
  9 12  1  0  0  0  0
  9  3  2  0  0  0  0
 12 24  1  6  0  0  0
 12  4  1  0  0  0  0
 13 11  1  6  0  0  0
 13 14  1  0  0  0  0
 13  5  1  0  0  0  0
 14  2  1  6  0  0  0
 14  8  1  0  0  0  0
 15  7  1  0  0  0  0
 15 11  2  0  0  0  0
 16 17  1  0  0  0  0
 17 18  1  0  0  0  0
 18 19  1  0  0  0  0
 19 20  2  0  0  0  0
 21 22  1  0  0  0  0
 22 19  1  0  0  0  0
 22 23  2  0  0  0  0
 25 27  1  0  0  0  0
 25 24  1  0  0  0  0
 27 26  1  0  0  0  0
 28  5  1  0  0  0  0
 29 40  1  6  0  0  0
 29 32  1  0  0  0  0
 30 29  1  0  0  0  0
 31 34  1  0  0  0  0
 31 30  1  0  0  0  0
 32 28  1  0  0  0  0
 33 32  2  0  0  0  0
 34 36  1  1  0  0  0
 34 33  1  0  0  0  0
 36 35  1  6  0  0  0
 38 37  1  6  0  0  0
 38 36  1  0  0  0  0
 39 38  1  0  0  0  0
 41 40  1  0  0  0  0
M  END
>  <MODEL>
1

>  <REMARK>
 VINA RESULT:      -7.7      0.000      0.000
  Name = 
  13 active torsions:
  status: ('A' for Active; 'I' for Inactive)
    1  A    between atoms: C_1  and  C_5
    2  A    between atoms: C_1  and  C_25
    3  A    between atoms: C_4  and  O_10
    4  A    between atoms: C_5  and  C_40
    5  A    between atoms: C_8  and  O_28
    6  A    between atoms: C_8  and  C_31
    7  A    between atoms: C_13  and  O_28
    8  A    between atoms: C_14  and  C_19
    9  A    between atoms: C_14  and  C_33
   10  A    between atoms: C_18  and  C_23
   11  A    between atoms: C_21  and  C_36
   12  A    between atoms: C_23  and  C_40
   13  A    between atoms: C_36  and  C_39
                            x       y       z     vdW  Elec       q    Type
                         _______ _______ _______ _____ _____    ______ ____

>  <TORSDO>
F 13

$$$$
=
 OpenBabel10232411593D

 41 44  0  0  1  0  0  0  0  0999 V2000
  188.1070  177.5750  145.7410 F   0  0  0  0  0  0  0  0  0  0  0  0
  186.9980  177.5510  143.2200 C   0  0  0  0  0  3  0  0  0  0  0  0
  184.1760  178.9530  145.2620 C   0  0  0  0  0  3  0  0  0  0  0  0
  186.7190  177.6560  145.7010 C   0  0  0  0  0  0  0  0  0  0  0  0
  184.9280  178.8680  140.5360 C   0  0  0  0  0  0  0  0  0  0  0  0
  186.1710  176.5110  146.2640 F   0  0  0  0  0  0  0  0  0  0  0  0
  186.2230  177.8160  144.2810 C   0  0  0  0  0  0  0  0  0  0  0  0
  187.0500  178.4160  140.8860 C   0  0  2  0  0  3  0  0  0  0  0  0
  184.8140  179.1150  146.3820 N   0  0  0  0  0  0  0  0  0  0  0  0
  186.1050  179.0860  140.0480 N   0  0  0  0  0  0  0  0  0  0  0  0
  184.3450  178.5660  142.9070 N   0  0  0  0  0  0  0  0  0  0  0  0
  186.2590  178.8950  146.5010 C   0  0  1  0  0  3  0  0  0  0  0  0
  184.9510  177.9590  141.7150 C   0  0  2  0  0  3  0  0  0  0  0  0
  186.4280  177.8080  141.8870 C   0  0  2  0  0  3  0  0  0  0  0  0
  184.8760  178.4280  144.0880 C   0  0  0  0  0  0  0  0  0  0  0  0
  188.5250  178.6570  140.8100 C   0  0  0  0  0  2  0  0  0  0  0  0
  189.2640  177.3420  140.5800 C   0  0  0  0  0  2  0  0  0  0  0  0
  190.6180  177.3400  141.2920 C   0  0  0  0  0  2  0  0  0  0  0  0
  190.5440  176.7130  142.6510 C   0  0  0  0  0  0  0  0  0  0  0  0
  190.2540  175.4510  142.7610 N   0  0  0  0  0  2  0  0  0  0  0  0
  190.8610  178.9890  143.8260 C   0  0  0  0  0  1  0  0  0  0  0  0
  190.8970  177.4970  143.8470 C   0  0  0  0  0  0  0  0  0  0  0  0
  191.2500  176.9140  144.9040 O   0  0  0  0  0  0  0  0  0  0  0  0
  186.6720  178.8930  147.9770 C   0  0  0  0  0  2  0  0  0  0  0  0
  187.5330  177.8180  148.2440 O   0  0  0  0  0  0  0  0  0  0  0  0
  189.8300  177.6950  148.1840 O   0  0  0  0  0  1  0  0  0  0  0  0
  188.7300  178.4060  148.6840 C   0  0  0  0  0  2  0  0  0  0  0  0
  183.6850  179.4030  139.9050 C   0  0  0  0  0  2  0  0  0  0  0  0
  181.4520  178.0510  139.5360 C   0  0  1  0  0  3  0  0  0  0  0  0
  181.2460  176.5420  139.8190 C   0  0  0  0  0  2  0  0  0  0  0  0
  181.9770  175.6080  138.8240 C   0  0  0  0  0  2  0  0  0  0  0  0
  182.9020  178.3310  139.1990 C   0  0  0  0  0  0  0  0  0  0  0  0
  183.5440  177.5050  138.3650 C   0  0  0  0  0  3  0  0  0  0  0  0
  182.7910  176.3500  137.7390 C   0  0  1  0  0  3  0  0  0  0  0  0
  185.0850  175.7260  137.2640 O   0  0  0  0  0  1  0  0  0  0  0  0
  183.7440  175.4250  136.9610 C   0  0  1  0  0  3  0  0  0  0  0  0
  182.9390  173.1800  136.0760 C   0  0  0  0  0  1  0  0  0  0  0  0
  183.4930  173.9420  137.2670 C   0  0  1  0  0  3  0  0  0  0  0  0
  184.6900  173.3430  137.6740 O   0  0  0  0  0  1  0  0  0  0  0  0
  180.6460  178.4440  138.4620 O   0  0  0  0  0  0  0  0  0  0  0  0
  180.1030  179.6720  138.8440 C   0  0  0  0  0  1  0  0  0  0  0  0
  2  7  2  0  0  0  0
  3  9  2  0  0  0  0
  4  1  1  0  0  0  0
  4  6  1  0  0  0  0
  4 12  1  0  0  0  0
  7  4  1  0  0  0  0
  8 16  1  1  0  0  0
  8 14  1  0  0  0  0
  9 12  1  0  0  0  0
 10  5  2  0  0  0  0
 10  8  1  0  0  0  0
 11 15  2  0  0  0  0
 12 24  1  1  0  0  0
 13  5  1  6  0  0  0
 13 14  1  0  0  0  0
 13 11  1  0  0  0  0
 14  2  1  1  0  0  0
 15  7  1  0  0  0  0
 15  3  1  0  0  0  0
 17 16  1  0  0  0  0
 17 18  1  0  0  0  0
 18 19  1  0  0  0  0
 19 20  2  0  0  0  0
 19 22  1  0  0  0  0
 21 22  1  0  0  0  0
 22 23  2  0  0  0  0
 24 25  1  0  0  0  0
 25 27  1  0  0  0  0
 26 27  1  0  0  0  0
 28  5  1  0  0  0  0
 29 40  1  6  0  0  0
 29 30  1  0  0  0  0
 31 30  1  0  0  0  0
 32 29  1  0  0  0  0
 32 28  1  0  0  0  0
 33 32  2  0  0  0  0
 34 36  1  1  0  0  0
 34 33  1  0  0  0  0
 34 31  1  0  0  0  0
 36 35  1  1  0  0  0
 36 38  1  0  0  0  0
 38 37  1  6  0  0  0
 38 39  1  0  0  0  0
 40 41  1  0  0  0  0
M  END
>  <MODEL>
2

>  <REMARK>
 VINA RESULT:      -7.4      2.926      5.655
  Name = 
  13 active torsions:
  status: ('A' for Active; 'I' for Inactive)
    1  A    between atoms: C_1  and  C_5
    2  A    between atoms: C_1  and  C_25
    3  A    between atoms: C_4  and  O_10
    4  A    between atoms: C_5  and  C_40
    5  A    between atoms: C_8  and  O_28
    6  A    between atoms: C_8  and  C_31
    7  A    between atoms: C_13  and  O_28
    8  A    between atoms: C_14  and  C_19
    9  A    between atoms: C_14  and  C_33
   10  A    between atoms: C_18  and  C_23
   11  A    between atoms: C_21  and  C_36
   12  A    between atoms: C_23  and  C_40
   13  A    between atoms: C_36  and  C_39
                            x       y       z     vdW  Elec       q    Type
                         _______ _______ _______ _____ _____    ______ ____

>  <TORSDO>
F 13

$$$$
=
 OpenBabel10232411593D

 41 44  0  0  1  0  0  0  0  0999 V2000
  186.9030  178.1000  144.6560 F   0  0  0  0  0  0  0  0  0  0  0  0
  188.6150  177.2050  142.6920 C   0  0  0  0  0  3  0  0  0  0  0  0
  185.9840  178.9430  140.6520 C   0  0  0  0  0  3  0  0  0  0  0  0
  186.3650  178.0540  143.3740 C   0  0  0  0  0  0  0  0  0  0  0  0
  190.3920  177.4530  139.5290 C   0  0  0  0  0  0  0  0  0  0  0  0
  185.3570  177.1000  143.3280 F   0  0  0  0  0  0  0  0  0  0  0  0
  187.4270  177.7240  142.3490 C   0  0  0  0  0  0  0  0  0  0  0  0
  190.8810  177.3030  141.6670 C   0  0  2  0  0  3  0  0  0  0  0  0
  185.3230  179.4960  141.6250 N   0  0  0  0  0  0  0  0  0  0  0  0
  191.3730  177.6020  140.3580 N   0  0  0  0  0  0  0  0  0  0  0  0
  188.0070  177.8580  139.9780 N   0  0  0  0  0  0  0  0  0  0  0  0
  185.7820  179.4390  143.0160 C   0  0  1  0  0  3  0  0  0  0  0  0
  189.1500  176.9610  140.1870 C   0  0  2  0  0  3  0  0  0  0  0  0
  189.5940  176.9890  141.6140 C   0  0  2  0  0  3  0  0  0  0  0  0
  187.1720  178.1360  140.9380 C   0  0  0  0  0  0  0  0  0  0  0  0
  191.6370  177.6260  142.9170 C   0  0  0  0  0  2  0  0  0  0  0  0
  191.0670  176.8440  144.0970 C   0  0  0  0  0  2  0  0  0  0  0  0
  190.7410  177.7720  145.2670 C   0  0  0  0  0  2  0  0  0  0  0  0
  190.5180  177.0210  146.5440 C   0  0  0  0  0  0  0  0  0  0  0  0
  189.3070  176.7210  146.9090 N   0  0  0  0  0  2  0  0  0  0  0  0
  192.3220  175.2340  147.0080 C   0  0  0  0  0  1  0  0  0  0  0  0
  191.6680  176.5370  147.3270 C   0  0  0  0  0  0  0  0  0  0  0  0
  192.1050  177.2150  148.2920 O   0  0  0  0  0  0  0  0  0  0  0  0
  184.6760  179.9290  143.9570 C   0  0  0  0  0  2  0  0  0  0  0  0
  183.4270  179.4440  143.5410 O   0  0  0  0  0  0  0  0  0  0  0  0
  183.7130  179.0130  145.7830 O   0  0  0  0  0  1  0  0  0  0  0  0
  182.8810  178.8150  144.6720 C   0  0  0  0  0  2  0  0  0  0  0  0
  190.5430  177.6640  138.0590 C   0  0  0  0  0  2  0  0  0  0  0  0
  190.3240  175.4680  136.6170 C   0  0  1  0  0  3  0  0  0  0  0  0
  190.6430  174.0310  137.0970 C   0  0  0  0  0  2  0  0  0  0  0  0
  192.1540  173.7520  137.2940 C   0  0  0  0  0  2  0  0  0  0  0  0
  191.1620  176.4760  137.3770 C   0  0  0  0  0  0  0  0  0  0  0  0
  192.4590  176.2200  137.5770 C   0  0  0  0  0  3  0  0  0  0  0  0
  193.0660  174.9620  136.9900 C   0  0  1  0  0  3  0  0  0  0  0  0
  194.7490  175.5210  138.6440 O   0  0  0  0  0  1  0  0  0  0  0  0
  194.5120  174.7660  137.4800 C   0  0  1  0  0  3  0  0  0  0  0  0
  195.7750  172.6780  136.7580 C   0  0  0  0  0  1  0  0  0  0  0  0
  194.8310  173.2940  137.7760 C   0  0  1  0  0  3  0  0  0  0  0  0
  195.4020  173.1900  139.0480 O   0  0  0  0  0  1  0  0  0  0  0  0
  190.5970  175.5810  135.2500 O   0  0  0  0  0  0  0  0  0  0  0  0
  189.5760  174.8740  134.6140 C   0  0  0  0  0  1  0  0  0  0  0  0
  3 15  1  0  0  0  0
  3  9  2  0  0  0  0
  4  1  1  0  0  0  0
  5 10  2  0  0  0  0
  6  4  1  0  0  0  0
  7  2  2  0  0  0  0
  7  4  1  0  0  0  0
  8 16  1  1  0  0  0
  9 12  1  0  0  0  0
 10  8  1  0  0  0  0
 11 13  1  0  0  0  0
 11 15  2  0  0  0  0
 12  4  1  0  0  0  0
 12 24  1  1  0  0  0
 13  5  1  6  0  0  0
 13 14  1  0  0  0  0
 14  8  1  0  0  0  0
 14  2  1  1  0  0  0
 15  7  1  0  0  0  0
 16 17  1  0  0  0  0
 17 18  1  0  0  0  0
 18 19  1  0  0  0  0
 19 20  2  0  0  0  0
 19 22  1  0  0  0  0
 21 22  1  0  0  0  0
 22 23  2  0  0  0  0
 25 24  1  0  0  0  0
 25 27  1  0  0  0  0
 27 26  1  0  0  0  0
 28  5  1  0  0  0  0
 29 40  1  6  0  0  0
 29 30  1  0  0  0  0
 29 32  1  0  0  0  0
 30 31  1  0  0  0  0
 32 33  2  0  0  0  0
 32 28  1  0  0  0  0
 34 31  1  0  0  0  0
 34 36  1  1  0  0  0
 34 33  1  0  0  0  0
 36 38  1  0  0  0  0
 36 35  1  1  0  0  0
 38 37  1  6  0  0  0
 38 39  1  0  0  0  0
 41 40  1  0  0  0  0
M  END
>  <MODEL>
3

>  <REMARK>
 VINA RESULT:      -7.4      3.692      7.949
  Name = 
  13 active torsions:
  status: ('A' for Active; 'I' for Inactive)
    1  A    between atoms: C_1  and  C_5
    2  A    between atoms: C_1  and  C_25
    3  A    between atoms: C_4  and  O_10
    4  A    between atoms: C_5  and  C_40
    5  A    between atoms: C_8  and  O_28
    6  A    between atoms: C_8  and  C_31
    7  A    between atoms: C_13  and  O_28
    8  A    between atoms: C_14  and  C_19
    9  A    between atoms: C_14  and  C_33
   10  A    between atoms: C_18  and  C_23
   11  A    between atoms: C_21  and  C_36
   12  A    between atoms: C_23  and  C_40
   13  A    between atoms: C_36  and  C_39
                            x       y       z     vdW  Elec       q    Type
                         _______ _______ _______ _____ _____    ______ ____

>  <TORSDO>
F 13

$$$$
=
 OpenBabel10232411593D

 41 44  0  0  1  0  0  0  0  0999 V2000
  191.5030  175.0250  135.5530 F   0  0  0  0  0  0  0  0  0  0  0  0
  189.5560  175.8930  137.2960 C   0  0  0  0  0  3  0  0  0  0  0  0
  192.6870  176.8210  139.1530 C   0  0  0  0  0  3  0  0  0  0  0  0
  191.9270  175.2350  136.8600 C   0  0  0  0  0  0  0  0  0  0  0  0
  188.1320  178.1650  139.7540 C   0  0  0  0  0  0  0  0  0  0  0  0
  192.2980  174.0230  137.4280 F   0  0  0  0  0  0  0  0  0  0  0  0
  190.8380  175.8770  137.6900 C   0  0  0  0  0  0  0  0  0  0  0  0
  187.6570  177.4410  137.7340 C   0  0  2  0  0  3  0  0  0  0  0  0
  193.5470  176.5660  138.2130 N   0  0  0  0  0  0  0  0  0  0  0  0
  187.3770  178.4210  138.7360 N   0  0  0  0  0  0  0  0  0  0  0  0
  190.3880  177.1830  139.7070 N   0  0  0  0  0  0  0  0  0  0  0  0
  193.1380  176.1940  136.8550 C   0  0  1  0  0  3  0  0  0  0  0  0
  188.9470  176.9320  139.5710 C   0  0  2  0  0  3  0  0  0  0  0  0
  188.5960  176.6060  138.1550 C   0  0  2  0  0  3  0  0  0  0  0  0
  191.2550  176.6340  138.9070 C   0  0  0  0  0  0  0  0  0  0  0  0
  187.1880  177.5650  136.3180 C   0  0  0  0  0  2  0  0  0  0  0  0
  185.8190  176.9120  136.1550 C   0  0  0  0  0  2  0  0  0  0  0  0
  185.9470  175.3970  135.9930 C   0  0  0  0  0  2  0  0  0  0  0  0
  185.1970  174.6460  137.0510 C   0  0  0  0  0  0  0  0  0  0  0  0
  184.1830  175.2070  137.6400 N   0  0  0  0  0  2  0  0  0  0  0  0
  186.9580  172.7750  137.2920 C   0  0  0  0  0  1  0  0  0  0  0  0
  185.5440  173.2460  137.3510 C   0  0  0  0  0  0  0  0  0  0  0  0
  184.6420  172.4210  137.6480 O   0  0  0  0  0  0  0  0  0  0  0  0
  194.3480  175.6920  136.0590 C   0  0  0  0  0  2  0  0  0  0  0  0
  195.4030  175.3640  136.9240 O   0  0  0  0  0  0  0  0  0  0  0  0
  197.6840  175.6180  136.7520 O   0  0  0  0  0  1  0  0  0  0  0  0
  196.5220  175.1940  136.0920 C   0  0  0  0  0  2  0  0  0  0  0  0
  188.0980  178.9770  141.0060 C   0  0  0  0  0  2  0  0  0  0  0  0
  185.5280  178.9180  141.5920 C   0  0  1  0  0  3  0  0  0  0  0  0
  184.8570  179.6090  142.8050 C   0  0  0  0  0  2  0  0  0  0  0  0
  185.1840  178.9500  144.1670 C   0  0  0  0  0  2  0  0  0  0  0  0
  186.9680  178.5730  141.9120 C   0  0  0  0  0  0  0  0  0  0  0  0
  187.2560  178.0340  143.1020 C   0  0  0  0  0  3  0  0  0  0  0  0
  186.1310  177.7320  144.0700 C   0  0  1  0  0  3  0  0  0  0  0  0
  188.0770  177.1000  145.3730 O   0  0  0  0  0  1  0  0  0  0  0  0
  186.6840  177.2870  145.4370 C   0  0  1  0  0  3  0  0  0  0  0  0
  184.9610  178.1710  147.0880 C   0  0  0  0  0  1  0  0  0  0  0  0
  186.3740  178.3000  146.5470 C   0  0  1  0  0  3  0  0  0  0  0  0
  187.2810  178.1290  147.5970 O   0  0  0  0  0  1  0  0  0  0  0  0
  184.8350  177.7460  141.2730 O   0  0  0  0  0  0  0  0  0  0  0  0
  183.7080  178.1690  140.5670 C   0  0  0  0  0  1  0  0  0  0  0  0
  1  4  1  0  0  0  0
  2  7  2  0  0  0  0
  4  6  1  0  0  0  0
  4  7  1  0  0  0  0
  5 28  1  0  0  0  0
  7 15  1  0  0  0  0
  8 16  1  6  0  0  0
  8 14  1  0  0  0  0
  8 10  1  0  0  0  0
  9  3  2  0  0  0  0
 10  5  2  0  0  0  0
 12 24  1  1  0  0  0
 12  4  1  0  0  0  0
 12  9  1  0  0  0  0
 13 11  1  6  0  0  0
 13  5  1  0  0  0  0
 14  2  1  6  0  0  0
 14 13  1  0  0  0  0
 15  3  1  0  0  0  0
 15 11  2  0  0  0  0
 17 16  1  0  0  0  0
 18 17  1  0  0  0  0
 18 19  1  0  0  0  0
 19 22  1  0  0  0  0
 19 20  2  0  0  0  0
 21 22  1  0  0  0  0
 22 23  2  0  0  0  0
 24 25  1  0  0  0  0
 27 26  1  0  0  0  0
 27 25  1  0  0  0  0
 28 32  1  0  0  0  0
 29 40  1  1  0  0  0
 29 32  1  0  0  0  0
 29 30  1  0  0  0  0
 30 31  1  0  0  0  0
 32 33  2  0  0  0  0
 33 34  1  0  0  0  0
 34 31  1  0  0  0  0
 34 36  1  1  0  0  0
 36 35  1  6  0  0  0
 36 38  1  0  0  0  0
 38 37  1  1  0  0  0
 38 39  1  0  0  0  0
 41 40  1  0  0  0  0
M  END
>  <MODEL>
4

>  <REMARK>
 VINA RESULT:      -7.3      3.194      7.279
  Name = 
  13 active torsions:
  status: ('A' for Active; 'I' for Inactive)
    1  A    between atoms: C_1  and  C_5
    2  A    between atoms: C_1  and  C_25
    3  A    between atoms: C_4  and  O_10
    4  A    between atoms: C_5  and  C_40
    5  A    between atoms: C_8  and  O_28
    6  A    between atoms: C_8  and  C_31
    7  A    between atoms: C_13  and  O_28
    8  A    between atoms: C_14  and  C_19
    9  A    between atoms: C_14  and  C_33
   10  A    between atoms: C_18  and  C_23
   11  A    between atoms: C_21  and  C_36
   12  A    between atoms: C_23  and  C_40
   13  A    between atoms: C_36  and  C_39
                            x       y       z     vdW  Elec       q    Type
                         _______ _______ _______ _____ _____    ______ ____

>  <TORSDO>
F 13

$$$$
=
 OpenBabel10232411593D

 41 44  0  0  1  0  0  0  0  0999 V2000
  187.2690  177.7480  142.2800 F   0  0  0  0  0  0  0  0  0  0  0  0
  187.3940  178.1060  139.5520 C   0  0  0  0  0  3  0  0  0  0  0  0
  190.9330  177.1260  140.3390 C   0  0  0  0  0  3  0  0  0  0  0  0
  188.5480  177.9200  141.7610 C   0  0  0  0  0  0  0  0  0  0  0  0
  188.5500  177.3270  136.1930 C   0  0  0  0  0  0  0  0  0  0  0  0
  189.0820  179.1130  142.2290 F   0  0  0  0  0  0  0  0  0  0  0  0
  188.5260  177.9280  140.2490 C   0  0  0  0  0  0  0  0  0  0  0  0
  186.6480  177.3720  137.2930 C   0  0  2  0  0  3  0  0  0  0  0  0
  190.7660  176.7920  141.5830 N   0  0  0  0  0  0  0  0  0  0  0  0
  187.3230  176.9280  136.1140 N   0  0  0  0  0  0  0  0  0  0  0  0
  189.8830  177.6010  138.2420 N   0  0  0  0  0  0  0  0  0  0  0  0
  189.4420  176.7430  142.2100 C   0  0  1  0  0  3  0  0  0  0  0  0
  188.8110  178.1530  137.4040 C   0  0  2  0  0  3  0  0  0  0  0  0
  187.4870  178.0270  138.0840 C   0  0  2  0  0  3  0  0  0  0  0  0
  189.7920  177.5790  139.5410 C   0  0  0  0  0  0  0  0  0  0  0  0
  185.2950  176.8740  137.6970 C   0  0  0  0  0  2  0  0  0  0  0  0
  184.2140  177.8410  137.2250 C   0  0  0  0  0  2  0  0  0  0  0  0
  183.1620  178.0650  138.3120 C   0  0  0  0  0  2  0  0  0  0  0  0
  183.6810  178.9030  139.4410 C   0  0  0  0  0  0  0  0  0  0  0  0
  184.2960  180.0180  139.1820 N   0  0  0  0  0  2  0  0  0  0  0  0
  182.0480  178.6950  141.4290 C   0  0  0  0  0  1  0  0  0  0  0  0
  183.4050  178.5160  140.8350 C   0  0  0  0  0  0  0  0  0  0  0  0
  184.3230  178.0400  141.5520 O   0  0  0  0  0  0  0  0  0  0  0  0
  189.5830  176.5910  143.7290 C   0  0  0  0  0  2  0  0  0  0  0  0
  190.7400  177.2440  144.1820 O   0  0  0  0  0  0  0  0  0  0  0  0
  191.8620  176.8960  146.1600 O   0  0  0  0  0  1  0  0  0  0  0  0
  190.6340  177.2490  145.5830 C   0  0  0  0  0  2  0  0  0  0  0  0
  189.5530  177.0590  135.1200 C   0  0  0  0  0  2  0  0  0  0  0  0
  189.9010  174.4940  135.6230 C   0  0  1  0  0  3  0  0  0  0  0  0
  190.3700  173.8890  136.9690 C   0  0  0  0  0  2  0  0  0  0  0  0
  191.8600  174.1560  137.2970 C   0  0  0  0  0  2  0  0  0  0  0  0
  190.4470  175.8980  135.4580 C   0  0  0  0  0  0  0  0  0  0  0  0
  191.7250  176.1370  135.7730 C   0  0  0  0  0  3  0  0  0  0  0  0
  192.6030  174.9910  136.2290 C   0  0  1  0  0  3  0  0  0  0  0  0
  193.8420  176.7450  137.3540 O   0  0  0  0  0  1  0  0  0  0  0  0
  193.9740  175.5020  136.7080 C   0  0  1  0  0  3  0  0  0  0  0  0
  195.8010  173.7590  137.0200 C   0  0  0  0  0  1  0  0  0  0  0  0
  194.6570  174.5190  137.6680 C   0  0  1  0  0  3  0  0  0  0  0  0
  195.1460  175.2170  138.7770 O   0  0  0  0  0  1  0  0  0  0  0  0
  190.3510  173.6990  134.5650 O   0  0  0  0  0  0  0  0  0  0  0  0
  189.6830  172.4830  134.7130 C   0  0  0  0  0  1  0  0  0  0  0  0
  2  7  2  0  0  0  0
  3  9  2  0  0  0  0
  4 12  1  0  0  0  0
  4  6  1  0  0  0  0
  4  1  1  0  0  0  0
  7  4  1  0  0  0  0
  8 16  1  1  0  0  0
  8 14  1  0  0  0  0
  9 12  1  0  0  0  0
 10  5  2  0  0  0  0
 10  8  1  0  0  0  0
 11 15  2  0  0  0  0
 12 24  1  1  0  0  0
 13  5  1  6  0  0  0
 13 14  1  0  0  0  0
 13 11  1  0  0  0  0
 14  2  1  1  0  0  0
 15  7  1  0  0  0  0
 15  3  1  0  0  0  0
 17 16  1  0  0  0  0
 17 18  1  0  0  0  0
 18 19  1  0  0  0  0
 19 22  1  0  0  0  0
 20 19  2  0  0  0  0
 22 21  1  0  0  0  0
 22 23  2  0  0  0  0
 24 25  1  0  0  0  0
 25 27  1  0  0  0  0
 27 26  1  0  0  0  0
 28 32  1  0  0  0  0
 28  5  1  0  0  0  0
 29 40  1  6  0  0  0
 29 30  1  0  0  0  0
 30 31  1  0  0  0  0
 32 29  1  0  0  0  0
 32 33  2  0  0  0  0
 33 34  1  0  0  0  0
 34 36  1  1  0  0  0
 34 31  1  0  0  0  0
 36 35  1  1  0  0  0
 36 38  1  0  0  0  0
 38 37  1  6  0  0  0
 38 39  1  0  0  0  0
 40 41  1  0  0  0  0
M  END
>  <MODEL>
5

>  <REMARK>
 VINA RESULT:      -7.2      2.680      8.649
  Name = 
  13 active torsions:
  status: ('A' for Active; 'I' for Inactive)
    1  A    between atoms: C_1  and  C_5
    2  A    between atoms: C_1  and  C_25
    3  A    between atoms: C_4  and  O_10
    4  A    between atoms: C_5  and  C_40
    5  A    between atoms: C_8  and  O_28
    6  A    between atoms: C_8  and  C_31
    7  A    between atoms: C_13  and  O_28
    8  A    between atoms: C_14  and  C_19
    9  A    between atoms: C_14  and  C_33
   10  A    between atoms: C_18  and  C_23
   11  A    between atoms: C_21  and  C_36
   12  A    between atoms: C_23  and  C_40
   13  A    between atoms: C_36  and  C_39
                            x       y       z     vdW  Elec       q    Type
                         _______ _______ _______ _____ _____    ______ ____

>  <TORSDO>
F 13

$$$$
=
 OpenBabel10232411593D

 41 44  0  0  1  0  0  0  0  0999 V2000
  191.5990  174.5950  135.6340 F   0  0  0  0  0  0  0  0  0  0  0  0
  189.8200  175.6350  137.4610 C   0  0  0  0  0  3  0  0  0  0  0  0
  193.0900  176.9080  138.7980 C   0  0  0  0  0  3  0  0  0  0  0  0
  192.1550  174.9970  136.8430 C   0  0  0  0  0  0  0  0  0  0  0  0
  188.5730  178.1790  139.7410 C   0  0  0  0  0  0  0  0  0  0  0  0
  192.6440  173.8880  137.5210 F   0  0  0  0  0  0  0  0  0  0  0  0
  191.1360  175.7130  137.7010 C   0  0  0  0  0  0  0  0  0  0  0  0
  187.9100  177.1690  137.9060 C   0  0  2  0  0  3  0  0  0  0  0  0
  193.8520  176.5530  137.8070 N   0  0  0  0  0  0  0  0  0  0  0  0
  187.6980  178.2680  138.7940 N   0  0  0  0  0  0  0  0  0  0  0  0
  190.8530  177.2710  139.5640 N   0  0  0  0  0  0  0  0  0  0  0  0
  193.3120  175.9840  136.5680 C   0  0  1  0  0  3  0  0  0  0  0  0
  189.4190  176.9590  139.6310 C   0  0  2  0  0  3  0  0  0  0  0  0
  188.9280  176.4290  138.3230 C   0  0  2  0  0  3  0  0  0  0  0  0
  191.6510  176.6440  138.7480 C   0  0  0  0  0  0  0  0  0  0  0  0
  187.2810  177.0800  136.5500 C   0  0  0  0  0  2  0  0  0  0  0  0
  186.0980  176.1170  136.5790 C   0  0  0  0  0  2  0  0  0  0  0  0
  184.7700  176.8760  136.5910 C   0  0  0  0  0  2  0  0  0  0  0  0
  183.8810  176.4480  137.7180 C   0  0  0  0  0  0  0  0  0  0  0  0
  183.5840  175.1900  137.8600 N   0  0  0  0  0  2  0  0  0  0  0  0
  184.0980  178.7590  138.8460 C   0  0  0  0  0  1  0  0  0  0  0  0
  183.4290  177.4310  138.7170 C   0  0  0  0  0  0  0  0  0  0  0  0
  182.4760  177.1550  139.4900 O   0  0  0  0  0  0  0  0  0  0  0  0
  194.4480  175.4140  135.7110 C   0  0  0  0  0  2  0  0  0  0  0  0
  195.6620  176.0470  136.0200 O   0  0  0  0  0  0  0  0  0  0  0  0
  195.7540  178.2790  135.4690 O   0  0  0  0  0  1  0  0  0  0  0  0
  195.8700  176.9700  134.9820 C   0  0  0  0  0  2  0  0  0  0  0  0
  188.6400  179.1560  140.8680 C   0  0  0  0  0  2  0  0  0  0  0  0
  189.3870  177.5750  142.8420 C   0  0  1  0  0  3  0  0  0  0  0  0
  188.7110  176.2410  143.2420 C   0  0  0  0  0  2  0  0  0  0  0  0
  187.3210  176.4100  143.9030 C   0  0  0  0  0  2  0  0  0  0  0  0
  188.3780  178.5050  142.1980 C   0  0  0  0  0  0  0  0  0  0  0  0
  187.1650  178.6260  142.7490 C   0  0  0  0  0  3  0  0  0  0  0  0
  186.8550  177.8780  144.0290 C   0  0  1  0  0  3  0  0  0  0  0  0
  185.2180  178.3740  145.7480 O   0  0  0  0  0  1  0  0  0  0  0  0
  185.3650  178.0090  144.3980 C   0  0  1  0  0  3  0  0  0  0  0  0
  183.6800  178.4130  142.5340 C   0  0  0  0  0  1  0  0  0  0  0  0
  184.6410  179.0440  143.5270 C   0  0  1  0  0  3  0  0  0  0  0  0
  183.9310  179.9260  144.3480 O   0  0  0  0  0  1  0  0  0  0  0  0
  189.9210  178.1930  143.9770 O   0  0  0  0  0  0  0  0  0  0  0  0
  190.9550  177.3540  144.3960 C   0  0  0  0  0  1  0  0  0  0  0  0
  1  4  1  0  0  0  0
  2  7  2  0  0  0  0
  4  6  1  0  0  0  0
  4  7  1  0  0  0  0
  5 28  1  0  0  0  0
  7 15  1  0  0  0  0
  8 16  1  6  0  0  0
  8 14  1  0  0  0  0
  8 10  1  0  0  0  0
  9  3  2  0  0  0  0
 10  5  2  0  0  0  0
 12 24  1  1  0  0  0
 12  4  1  0  0  0  0
 12  9  1  0  0  0  0
 13 11  1  6  0  0  0
 13  5  1  0  0  0  0
 14  2  1  6  0  0  0
 14 13  1  0  0  0  0
 15  3  1  0  0  0  0
 15 11  2  0  0  0  0
 16 17  1  0  0  0  0
 17 18  1  0  0  0  0
 18 19  1  0  0  0  0
 19 20  2  0  0  0  0
 19 22  1  0  0  0  0
 22 21  1  0  0  0  0
 22 23  2  0  0  0  0
 24 25  1  0  0  0  0
 27 26  1  0  0  0  0
 27 25  1  0  0  0  0
 28 32  1  0  0  0  0
 29 30  1  0  0  0  0
 29 40  1  1  0  0  0
 30 31  1  0  0  0  0
 31 34  1  0  0  0  0
 32 33  2  0  0  0  0
 32 29  1  0  0  0  0
 33 34  1  0  0  0  0
 34 36  1  6  0  0  0
 36 35  1  1  0  0  0
 38 37  1  6  0  0  0
 38 39  1  0  0  0  0
 38 36  1  0  0  0  0
 40 41  1  0  0  0  0
M  END
>  <MODEL>
6

>  <REMARK>
 VINA RESULT:      -7.0      3.330      7.475
  Name = 
  13 active torsions:
  status: ('A' for Active; 'I' for Inactive)
    1  A    between atoms: C_1  and  C_5
    2  A    between atoms: C_1  and  C_25
    3  A    between atoms: C_4  and  O_10
    4  A    between atoms: C_5  and  C_40
    5  A    between atoms: C_8  and  O_28
    6  A    between atoms: C_8  and  C_31
    7  A    between atoms: C_13  and  O_28
    8  A    between atoms: C_14  and  C_19
    9  A    between atoms: C_14  and  C_33
   10  A    between atoms: C_18  and  C_23
   11  A    between atoms: C_21  and  C_36
   12  A    between atoms: C_23  and  C_40
   13  A    between atoms: C_36  and  C_39
                            x       y       z     vdW  Elec       q    Type
                         _______ _______ _______ _____ _____    ______ ____

>  <TORSDO>
F 13

$$$$
=
 OpenBabel10232411593D

 41 44  0  0  1  0  0  0  0  0999 V2000
  192.0340  176.2090  142.9060 F   0  0  0  0  0  0  0  0  0  0  0  0
  190.8380  176.2220  140.4250 C   0  0  0  0  0  3  0  0  0  0  0  0
  188.4380  178.3110  142.4200 C   0  0  0  0  0  3  0  0  0  0  0  0
  190.6890  176.5640  142.8960 C   0  0  0  0  0  0  0  0  0  0  0  0
  188.9600  177.7260  137.6980 C   0  0  0  0  0  0  0  0  0  0  0  0
  189.9490  175.5980  143.5640 F   0  0  0  0  0  0  0  0  0  0  0  0
  190.1760  176.7150  141.4820 C   0  0  0  0  0  0  0  0  0  0  0  0
  190.9620  176.8830  138.0290 C   0  0  2  0  0  3  0  0  0  0  0  0
  189.1420  178.4240  143.5060 N   0  0  0  0  0  0  0  0  0  0  0  0
  190.1360  177.6660  137.1640 N   0  0  0  0  0  0  0  0  0  0  0  0
  188.4290  177.7240  140.1010 N   0  0  0  0  0  0  0  0  0  0  0  0
  190.5180  177.9270  143.6050 C   0  0  1  0  0  3  0  0  0  0  0  0
  188.8510  176.9210  138.9460 C   0  0  2  0  0  3  0  0  0  0  0  0
  190.2740  176.4890  139.0910 C   0  0  2  0  0  3  0  0  0  0  0  0
  188.9700  177.5700  141.2750 C   0  0  0  0  0  0  0  0  0  0  0  0
  192.4520  176.8170  137.8950 C   0  0  0  0  0  2  0  0  0  0  0  0
  192.8430  175.7660  136.8590 C   0  0  0  0  0  2  0  0  0  0  0  0
  192.5180  174.3570  137.3550 C   0  0  0  0  0  2  0  0  0  0  0  0
  191.6420  173.6060  136.3990 C   0  0  0  0  0  0  0  0  0  0  0  0
  192.1600  172.6840  135.6420 N   0  0  0  0  0  2  0  0  0  0  0  0
  189.5330  174.5630  135.2600 C   0  0  0  0  0  1  0  0  0  0  0  0
  190.1870  173.8400  136.3890 C   0  0  0  0  0  0  0  0  0  0  0  0
  189.4770  173.4420  137.3470 O   0  0  0  0  0  0  0  0  0  0  0  0
  190.9840  177.9510  145.0650 C   0  0  0  0  0  2  0  0  0  0  0  0
  189.9030  177.7250  145.9300 O   0  0  0  0  0  0  0  0  0  0  0  0
  191.8160  176.9140  146.9190 O   0  0  0  0  0  1  0  0  0  0  0  0
  190.4140  176.9090  146.9520 C   0  0  0  0  0  2  0  0  0  0  0  0
  187.8230  178.4520  137.0590 C   0  0  0  0  0  2  0  0  0  0  0  0
  186.1620  176.5380  136.3320 C   0  0  1  0  0  3  0  0  0  0  0  0
  184.7590  176.7410  135.7080 C   0  0  0  0  0  2  0  0  0  0  0  0
  183.7000  177.2850  136.6990 C   0  0  0  0  0  2  0  0  0  0  0  0
  186.5220  177.7150  137.2150 C   0  0  0  0  0  0  0  0  0  0  0  0
  185.5970  178.2060  138.0480 C   0  0  0  0  0  3  0  0  0  0  0  0
  184.2390  177.5390  138.1250 C   0  0  1  0  0  3  0  0  0  0  0  0
  182.0530  178.5680  138.3270 O   0  0  0  0  0  1  0  0  0  0  0  0
  183.2710  178.3560  138.9990 C   0  0  1  0  0  3  0  0  0  0  0  0
  183.9100  178.1230  141.4510 C   0  0  0  0  0  1  0  0  0  0  0  0
  182.9790  177.6690  140.3400 C   0  0  1  0  0  3  0  0  0  0  0  0
  181.6580  177.9320  140.7180 O   0  0  0  0  0  1  0  0  0  0  0  0
  186.1730  175.3680  137.0980 O   0  0  0  0  0  0  0  0  0  0  0  0
  185.9420  174.3340  136.1890 C   0  0  0  0  0  1  0  0  0  0  0  0
  2  7  2  0  0  0  0
  3  9  2  0  0  0  0
  4  1  1  0  0  0  0
  4  6  1  0  0  0  0
  4 12  1  0  0  0  0
  7  4  1  0  0  0  0
  8 16  1  1  0  0  0
  8 14  1  0  0  0  0
  9 12  1  0  0  0  0
 10  5  2  0  0  0  0
 10  8  1  0  0  0  0
 11 15  2  0  0  0  0
 12 24  1  1  0  0  0
 13  5  1  6  0  0  0
 13 14  1  0  0  0  0
 13 11  1  0  0  0  0
 14  2  1  1  0  0  0
 15  7  1  0  0  0  0
 15  3  1  0  0  0  0
 17 18  1  0  0  0  0
 17 16  1  0  0  0  0
 19 18  1  0  0  0  0
 20 19  2  0  0  0  0
 21 22  1  0  0  0  0
 22 19  1  0  0  0  0
 22 23  2  0  0  0  0
 24 25  1  0  0  0  0
 25 27  1  0  0  0  0
 26 27  1  0  0  0  0
 28 32  1  0  0  0  0
 28  5  1  0  0  0  0
 29 40  1  1  0  0  0
 29 32  1  0  0  0  0
 30 29  1  0  0  0  0
 30 31  1  0  0  0  0
 31 34  1  0  0  0  0
 32 33  2  0  0  0  0
 33 34  1  0  0  0  0
 34 36  1  1  0  0  0
 36 35  1  6  0  0  0
 36 38  1  0  0  0  0
 38 39  1  0  0  0  0
 38 37  1  1  0  0  0
 41 40  1  0  0  0  0
M  END
>  <MODEL>
7

>  <REMARK>
 VINA RESULT:      -6.9      2.513      7.105
  Name = 
  13 active torsions:
  status: ('A' for Active; 'I' for Inactive)
    1  A    between atoms: C_1  and  C_5
    2  A    between atoms: C_1  and  C_25
    3  A    between atoms: C_4  and  O_10
    4  A    between atoms: C_5  and  C_40
    5  A    between atoms: C_8  and  O_28
    6  A    between atoms: C_8  and  C_31
    7  A    between atoms: C_13  and  O_28
    8  A    between atoms: C_14  and  C_19
    9  A    between atoms: C_14  and  C_33
   10  A    between atoms: C_18  and  C_23
   11  A    between atoms: C_21  and  C_36
   12  A    between atoms: C_23  and  C_40
   13  A    between atoms: C_36  and  C_39
                            x       y       z     vdW  Elec       q    Type
                         _______ _______ _______ _____ _____    ______ ____

>  <TORSDO>
F 13

$$$$
=
 OpenBabel10232411593D

 41 44  0  0  1  0  0  0  0  0999 V2000
  188.8920  173.6490  136.3840 F   0  0  0  0  0  0  0  0  0  0  0  0
  188.1750  176.1730  137.2230 C   0  0  0  0  0  3  0  0  0  0  0  0
  184.8590  174.7730  136.1510 C   0  0  0  0  0  3  0  0  0  0  0  0
  187.6590  174.1000  135.9250 C   0  0  0  0  0  0  0  0  0  0  0  0
  185.9740  178.6020  138.7980 C   0  0  0  0  0  0  0  0  0  0  0  0
  187.7080  174.2620  134.5470 F   0  0  0  0  0  0  0  0  0  0  0  0
  187.2790  175.4090  136.5810 C   0  0  0  0  0  0  0  0  0  0  0  0
  187.9970  177.7990  139.0990 C   0  0  2  0  0  3  0  0  0  0  0  0
  185.2270  173.5430  135.9520 N   0  0  0  0  0  0  0  0  0  0  0  0
  186.9240  178.5490  139.6730 N   0  0  0  0  0  0  0  0  0  0  0  0
  185.4100  176.8870  137.1260 N   0  0  0  0  0  0  0  0  0  0  0  0
  186.5720  173.0630  136.2850 C   0  0  1  0  0  3  0  0  0  0  0  0
  186.3420  177.9560  137.5070 C   0  0  2  0  0  3  0  0  0  0  0  0
  187.6750  177.3920  137.8790 C   0  0  2  0  0  3  0  0  0  0  0  0
  185.8300  175.7620  136.6230 C   0  0  0  0  0  0  0  0  0  0  0  0
  189.1550  177.2880  139.8980 C   0  0  0  0  0  2  0  0  0  0  0  0
  189.1490  177.9060  141.2930 C   0  0  0  0  0  2  0  0  0  0  0  0
  188.6650  176.8990  142.3380 C   0  0  0  0  0  2  0  0  0  0  0  0
  189.7660  176.4560  143.2520 C   0  0  0  0  0  0  0  0  0  0  0  0
  190.4770  175.4120  142.9430 N   0  0  0  0  0  2  0  0  0  0  0  0
  189.0490  177.7130  145.3890 C   0  0  0  0  0  1  0  0  0  0  0  0
  190.1070  177.2550  144.4420 C   0  0  0  0  0  0  0  0  0  0  0  0
  191.3020  177.5760  144.6660 O   0  0  0  0  0  0  0  0  0  0  0  0
  186.7970  171.6690  135.6900 C   0  0  0  0  0  2  0  0  0  0  0  0
  185.5690  171.0330  135.4490 O   0  0  0  0  0  0  0  0  0  0  0  0
  184.7860  168.9430  134.8910 O   0  0  0  0  0  1  0  0  0  0  0  0
  185.9020  169.7910  134.8850 C   0  0  0  0  0  2  0  0  0  0  0  0
  184.6930  179.3270  139.0450 C   0  0  0  0  0  2  0  0  0  0  0  0
  182.6840  177.8860  139.9620 C   0  0  1  0  0  3  0  0  0  0  0  0
  181.5040  178.4130  140.8150 C   0  0  0  0  0  2  0  0  0  0  0  0
  181.8930  178.7940  142.2650 C   0  0  0  0  0  2  0  0  0  0  0  0
  183.9190  178.7350  140.1900 C   0  0  0  0  0  0  0  0  0  0  0  0
  184.2370  179.0930  141.4390 C   0  0  0  0  0  3  0  0  0  0  0  0
  183.3900  178.5940  142.5920 C   0  0  1  0  0  3  0  0  0  0  0  0
  182.9810  178.8390  144.9690 O   0  0  0  0  0  1  0  0  0  0  0  0
  183.8130  179.2580  143.9150 C   0  0  1  0  0  3  0  0  0  0  0  0
  185.5310  179.0190  145.7770 C   0  0  0  0  0  1  0  0  0  0  0  0
  185.2700  178.9440  144.2830 C   0  0  1  0  0  3  0  0  0  0  0  0
  185.5960  177.6620  143.8280 O   0  0  0  0  0  1  0  0  0  0  0  0
  182.9660  176.5620  140.3120 O   0  0  0  0  0  0  0  0  0  0  0  0
  182.3990  175.7880  139.2990 C   0  0  0  0  0  1  0  0  0  0  0  0
  3 15  1  0  0  0  0
  4 12  1  0  0  0  0
  4  1  1  0  0  0  0
  4  7  1  0  0  0  0
  5 28  1  0  0  0  0
  5 10  2  0  0  0  0
  6  4  1  0  0  0  0
  7 15  1  0  0  0  0
  7  2  2  0  0  0  0
  8 10  1  0  0  0  0
  8 16  1  1  0  0  0
  9  3  2  0  0  0  0
  9 12  1  0  0  0  0
 12 24  1  6  0  0  0
 13 11  1  1  0  0  0
 13 14  1  0  0  0  0
 13  5  1  0  0  0  0
 14  2  1  1  0  0  0
 14  8  1  0  0  0  0
 15 11  2  0  0  0  0
 16 17  1  0  0  0  0
 17 18  1  0  0  0  0
 18 19  1  0  0  0  0
 19 22  1  0  0  0  0
 20 19  2  0  0  0  0
 22 23  2  0  0  0  0
 22 21  1  0  0  0  0
 25 24  1  0  0  0  0
 27 26  1  0  0  0  0
 27 25  1  0  0  0  0
 28 32  1  0  0  0  0
 29 32  1  0  0  0  0
 29 40  1  1  0  0  0
 29 30  1  0  0  0  0
 30 31  1  0  0  0  0
 31 34  1  0  0  0  0
 32 33  2  0  0  0  0
 33 34  1  0  0  0  0
 34 36  1  1  0  0  0
 36 38  1  0  0  0  0
 36 35  1  1  0  0  0
 38 37  1  1  0  0  0
 39 38  1  0  0  0  0
 41 40  1  0  0  0  0
M  END
>  <MODEL>
8

>  <REMARK>
 VINA RESULT:      -6.8      3.185      4.953
  Name = 
  13 active torsions:
  status: ('A' for Active; 'I' for Inactive)
    1  A    between atoms: C_1  and  C_5
    2  A    between atoms: C_1  and  C_25
    3  A    between atoms: C_4  and  O_10
    4  A    between atoms: C_5  and  C_40
    5  A    between atoms: C_8  and  O_28
    6  A    between atoms: C_8  and  C_31
    7  A    between atoms: C_13  and  O_28
    8  A    between atoms: C_14  and  C_19
    9  A    between atoms: C_14  and  C_33
   10  A    between atoms: C_18  and  C_23
   11  A    between atoms: C_21  and  C_36
   12  A    between atoms: C_23  and  C_40
   13  A    between atoms: C_36  and  C_39
                            x       y       z     vdW  Elec       q    Type
                         _______ _______ _______ _____ _____    ______ ____

>  <TORSDO>
F 13

$$$$
=
 OpenBabel10232411593D

 41 44  0  0  1  0  0  0  0  0999 V2000
  192.0170  176.2180  142.6150 F   0  0  0  0  0  0  0  0  0  0  0  0
  190.7500  176.1650  140.1700 C   0  0  0  0  0  3  0  0  0  0  0  0
  188.5260  178.4870  142.1110 C   0  0  0  0  0  3  0  0  0  0  0  0
  190.6940  176.6460  142.6210 C   0  0  0  0  0  0  0  0  0  0  0  0
  188.8760  177.6230  137.4150 C   0  0  0  0  0  0  0  0  0  0  0  0
  189.9220  175.7590  143.3610 F   0  0  0  0  0  0  0  0  0  0  0  0
  190.1480  176.7500  141.2150 C   0  0  0  0  0  0  0  0  0  0  0  0
  190.8390  176.6890  137.7380 C   0  0  2  0  0  3  0  0  0  0  0  0
  189.2670  178.6190  143.1700 N   0  0  0  0  0  0  0  0  0  0  0  0
  190.0310  177.4690  136.8540 N   0  0  0  0  0  0  0  0  0  0  0  0
  188.4170  177.7790  139.8280 N   0  0  0  0  0  0  0  0  0  0  0  0
  190.6170  178.0520  143.2580 C   0  0  1  0  0  3  0  0  0  0  0  0
  188.7610  176.8930  138.7080 C   0  0  2  0  0  3  0  0  0  0  0  0
  190.1630  176.3910  138.8390 C   0  0  2  0  0  3  0  0  0  0  0  0
  188.9840  177.6570  140.9940 C   0  0  0  0  0  0  0  0  0  0  0  0
  192.3180  176.5330  137.5680 C   0  0  0  0  0  2  0  0  0  0  0  0
  192.6300  175.8890  136.2210 C   0  0  0  0  0  2  0  0  0  0  0  0
  193.5030  174.6450  136.3950 C   0  0  0  0  0  2  0  0  0  0  0  0
  194.8690  174.9760  136.9110 C   0  0  0  0  0  0  0  0  0  0  0  0
  195.6440  175.7590  136.2210 N   0  0  0  0  0  2  0  0  0  0  0  0
  195.6480  173.0680  138.4650 C   0  0  0  0  0  1  0  0  0  0  0  0
  195.2940  174.5000  138.2390 C   0  0  0  0  0  0  0  0  0  0  0  0
  195.3480  175.2980  139.2090 O   0  0  0  0  0  0  0  0  0  0  0  0
  191.1270  178.1280  144.7020 C   0  0  0  0  0  2  0  0  0  0  0  0
  190.0740  177.9230  145.6060 O   0  0  0  0  0  0  0  0  0  0  0  0
  191.9280  176.8780  146.4810 O   0  0  0  0  0  1  0  0  0  0  0  0
  190.5270  176.9160  146.4750 C   0  0  0  0  0  2  0  0  0  0  0  0
  187.7610  178.3750  136.7680 C   0  0  0  0  0  2  0  0  0  0  0  0
  186.0790  176.4810  136.0390 C   0  0  1  0  0  3  0  0  0  0  0  0
  184.6930  176.7010  135.3820 C   0  0  0  0  0  2  0  0  0  0  0  0
  183.6250  177.2820  136.3400 C   0  0  0  0  0  2  0  0  0  0  0  0
  186.4430  177.6670  136.9090 C   0  0  0  0  0  0  0  0  0  0  0  0
  185.5110  178.1900  137.7130 C   0  0  0  0  0  3  0  0  0  0  0  0
  184.1390  177.5510  137.7730 C   0  0  1  0  0  3  0  0  0  0  0  0
  182.0950  178.8540  137.8250 O   0  0  0  0  0  1  0  0  0  0  0  0
  183.1690  178.4020  138.6130 C   0  0  1  0  0  3  0  0  0  0  0  0
  182.6070  176.1250  139.5990 C   0  0  0  0  0  1  0  0  0  0  0  0
  182.6070  177.6280  139.8130 C   0  0  1  0  0  3  0  0  0  0  0  0
  183.3640  177.9250  140.9520 O   0  0  0  0  0  1  0  0  0  0  0  0
  186.0510  175.3250  136.8250 O   0  0  0  0  0  0  0  0  0  0  0  0
  185.8780  174.2740  135.9230 C   0  0  0  0  0  1  0  0  0  0  0  0
  1  4  1  0  0  0  0
  2  7  2  0  0  0  0
  3  9  2  0  0  0  0
  4 12  1  0  0  0  0
  4  6  1  0  0  0  0
  7  4  1  0  0  0  0
  8 16  1  1  0  0  0
  8 14  1  0  0  0  0
  9 12  1  0  0  0  0
 10  5  2  0  0  0  0
 10  8  1  0  0  0  0
 11 15  2  0  0  0  0
 12 24  1  1  0  0  0
 13  5  1  6  0  0  0
 13 14  1  0  0  0  0
 13 11  1  0  0  0  0
 14  2  1  1  0  0  0
 15  7  1  0  0  0  0
 15  3  1  0  0  0  0
 17 18  1  0  0  0  0
 17 16  1  0  0  0  0
 18 19  1  0  0  0  0
 19 22  1  0  0  0  0
 20 19  2  0  0  0  0
 22 21  1  0  0  0  0
 22 23  2  0  0  0  0
 24 25  1  0  0  0  0
 25 27  1  0  0  0  0
 27 26  1  0  0  0  0
 28 32  1  0  0  0  0
 28  5  1  0  0  0  0
 29 40  1  1  0  0  0
 29 32  1  0  0  0  0
 30 29  1  0  0  0  0
 30 31  1  0  0  0  0
 31 34  1  0  0  0  0
 32 33  2  0  0  0  0
 33 34  1  0  0  0  0
 34 36  1  6  0  0  0
 36 35  1  6  0  0  0
 36 38  1  0  0  0  0
 38 37  1  6  0  0  0
 38 39  1  0  0  0  0
 41 40  1  0  0  0  0
M  END
>  <MODEL>
9

>  <REMARK>
 VINA RESULT:      -6.8      3.039      6.931
  Name = 
  13 active torsions:
  status: ('A' for Active; 'I' for Inactive)
    1  A    between atoms: C_1  and  C_5
    2  A    between atoms: C_1  and  C_25
    3  A    between atoms: C_4  and  O_10
    4  A    between atoms: C_5  and  C_40
    5  A    between atoms: C_8  and  O_28
    6  A    between atoms: C_8  and  C_31
    7  A    between atoms: C_13  and  O_28
    8  A    between atoms: C_14  and  C_19
    9  A    between atoms: C_14  and  C_33
   10  A    between atoms: C_18  and  C_23
   11  A    between atoms: C_21  and  C_36
   12  A    between atoms: C_23  and  C_40
   13  A    between atoms: C_36  and  C_39
                            x       y       z     vdW  Elec       q    Type
                         _______ _______ _______ _____ _____    ______ ____

>  <TORSDO>
F 13

$$$$
