=
 OpenBabel10222422083D

 47 50  0  0  1  0  0  0  0  0999 V2000
  184.7620  178.8280  142.4930 C   0  0  1  0  0  3  0  0  0  0  0  0
  186.8450  178.6390  141.0770 C   0  0  0  0  0  3  0  0  0  0  0  0
  186.6510  177.3020  143.0860 C   0  0  0  0  0  3  0  0  0  0  0  0
  188.6410  177.1370  141.7110 C   0  0  0  0  0  0  0  0  0  0  0  0
  187.9120  176.7510  142.8400 C   0  0  0  0  0  3  0  0  0  0  0  0
  188.1070  178.0910  140.8320 C   0  0  0  0  0  3  0  0  0  0  0  0
  186.1130  178.2480  142.2070 C   0  0  0  0  0  0  0  0  0  0  0  0
  190.0100  176.5820  141.4960 C   0  0  0  0  0  2  0  0  0  0  0  0
  191.0930  177.6690  141.5950 C   0  0  1  0  0  3  0  0  0  0  0  0
  191.8910  177.4590  142.8200 N   0  0  0  0  0  0  0  0  0  0  0  0
  191.5510  177.7680  145.0750 C   0  0  0  0  0  2  0  0  0  0  0  0
  191.5270  178.4290  143.7740 N   0  0  0  0  0  2  0  0  0  0  0  0
  191.6360  176.3350  144.8660 N   0  0  0  0  0  2  0  0  0  0  0  0
  191.5150  176.1860  143.4300 C   0  0  0  0  0  2  0  0  0  0  0  0
  191.3840  176.7370  139.2640 C   0  0  0  0  0  1  0  0  0  0  0  0
  193.2660  177.1440  140.6310 O   0  0  0  0  0  1  0  0  0  0  0  0
  191.9870  177.6270  140.3330 C   0  0  2  0  0  3  0  0  0  0  0  0
  183.7780  178.4740  141.4170 C   0  0  0  0  0  0  0  0  0  0  0  0
  182.9800  179.4840  140.7870 N   0  0  0  0  0  2  0  0  0  0  0  0
  183.6340  177.2640  141.0930 O   0  0  0  0  0  0  0  0  0  0  0  0
  181.8970  179.1660  139.8630 C   0  0  0  0  0  2  0  0  0  0  0  0
  182.3350  179.4140  138.4240 C   0  0  0  0  0  2  0  0  0  0  0  0
  182.2890  177.1090  137.4530 C   0  0  0  0  0  3  0  0  0  0  0  0
  184.3590  175.9400  136.9530 C   0  0  0  0  0  0  0  0  0  0  0  0
  186.5630  177.1570  137.4250 C   0  0  0  0  0  1  0  0  0  0  0  0
  184.3870  178.1640  137.8660 N   0  0  0  0  0  0  0  0  0  0  0  0
  182.9610  175.9800  136.9810 C   0  0  0  0  0  3  0  0  0  0  0  0
  183.0270  178.2040  137.9000 C   0  0  0  0  0  0  0  0  0  0  0  0
  185.0730  177.0800  137.4130 C   0  0  0  0  0  0  0  0  0  0  0  0
  184.9730  174.7260  136.4840 N   0  0  0  0  0  0  0  0  0  0  0  0
  185.8070  174.0000  137.1540 C   0  0  0  0  0  3  0  0  0  0  0  0
  186.3640  172.7470  136.5720 C   0  0  0  0  0  2  0  0  0  0  0  0
  187.6560  172.3550  137.2790 C   0  0  0  0  0  2  0  0  0  0  0  0
  188.7820  172.6690  136.4660 O   0  0  0  0  0  0  0  0  0  0  0  0
  189.5730  173.7960  136.6960 C   0  0  0  0  0  0  0  0  0  0  0  0
  190.5010  173.7730  137.5490 O   0  0  0  0  0  0  0  0  0  0  0  0
  189.3270  175.0320  135.9010 C   0  0  0  0  0  1  0  0  0  0  0  0
  184.3050  178.3910  143.8050 N   0  0  0  0  0  2  0  0  0  0  0  0
  184.1940  179.5770  144.6350 C   0  0  0  0  0  2  0  0  0  0  0  0
  183.8880  179.1980  145.9420 O   0  0  0  0  0  0  0  0  0  0  0  0
  184.8340  178.2190  146.2640 C   0  0  0  0  0  2  0  0  0  0  0  0
  185.9320  178.8250  147.1270 C   0  0  0  0  0  2  0  0  0  0  0  0
  187.2260  178.0910  146.9380 C   0  0  0  0  0  0  0  0  0  0  0  0
  187.7410  178.0490  145.8310 O   0  0  0  0  0  0  0  0  0  0  0  0
  187.9150  177.4530  148.1040 C   0  0  0  0  0  3  0  0  0  0  0  0
  188.9810  178.3910  148.6490 C   0  0  0  0  0  2  0  0  0  0  0  0
  189.3850  177.2160  147.7920 C   0  0  0  0  0  2  0  0  0  0  0  0
  1 18  1  6  0  0  0
  1 38  1  0  0  0  0
  2  7  1  0  0  0  0
  4  5  2  0  0  0  0
  5  3  1  0  0  0  0
  6  2  2  0  0  0  0
  6  4  1  0  0  0  0
  7  1  1  0  0  0  0
  7  3  2  0  0  0  0
  8  4  1  0  0  0  0
  9  8  1  6  0  0  0
  9 10  1  0  0  0  0
 10 14  1  0  0  0  0
 10 12  1  0  0  0  0
 12 11  1  0  0  0  0
 13 11  1  0  0  0  0
 14 13  1  0  0  0  0
 17 15  1  6  0  0  0
 17 16  1  0  0  0  0
 17  9  1  0  0  0  0
 19 18  1  0  0  0  0
 20 18  2  0  0  0  0
 21 19  1  0  0  0  0
 22 21  1  0  0  0  0
 23 28  1  0  0  0  0
 24 27  1  0  0  0  0
 24 29  2  0  0  0  0
 26 28  2  0  0  0  0
 27 23  2  0  0  0  0
 28 22  1  0  0  0  0
 29 25  1  0  0  0  0
 29 26  1  0  0  0  0
 30 24  1  0  0  0  0
 30 31  2  0  0  0  0
 32 31  1  0  0  0  0
 32 33  1  0  0  0  0
 34 35  1  0  0  0  0
 34 33  1  0  0  0  0
 35 36  2  0  0  0  0
 37 35  1  0  0  0  0
 38 39  1  0  0  0  0
 39 40  1  0  0  0  0
 40 41  1  0  0  0  0
 41 42  1  0  0  0  0
 43 42  1  0  0  0  0
 43 45  1  0  0  0  0
 44 43  2  0  0  0  0
 45 46  1  0  0  0  0
 47 45  1  0  0  0  0
 47 46  1  0  0  0  0
M  END
>  <MODEL>
1

>  <REMARK>
 VINA RESULT:      -6.9      0.000      0.000
  Name = 
  21 active torsions:
  status: ('A' for Active; 'I' for Inactive)
    1  A    between atoms: C_3  and  C_13
    2  A    between atoms: C_3  and  C_32
    3  A    between atoms: C_6  and  C_33
    4  A    between atoms: C_7  and  N_18
    5  A    between atoms: N_8  and  C_29
    6  A    between atoms: C_9  and  C_38
    7  A    between atoms: C_13  and  N_26
    8  A    between atoms: C_15  and  C_20
    9  A    between atoms: C_15  and  O_37
   10  A    between atoms: C_16  and  C_28
   11  A    between atoms: C_20  and  C_36
   12  A    between atoms: C_22  and  O_37
   13  A    between atoms: C_28  and  C_34
   14  A    between atoms: C_29  and  C_31
   15  A    between atoms: C_29  and  C_33
   16  A    between atoms: C_34  and  C_42
   17  A    between atoms: C_35  and  C_38
   18  A    between atoms: C_38  and  N_46
   19  A    between atoms: O_41  and  C_42
   20  A    between atoms: O_41  and  C_47
   21  A    between atoms: N_46  and  C_47
                            x       y       z     vdW  Elec       q    Type
                         _______ _______ _______ _____ _____    ______ ____

>  <TORSDO>
F 21

$$$$
=
 OpenBabel10222422083D

 47 50  0  0  1  0  0  0  0  0999 V2000
  191.0210  177.1590  142.0770 C   0  0  1  0  0  3  0  0  0  0  0  0
  188.8660  176.3400  143.1100 C   0  0  0  0  0  3  0  0  0  0  0  0
  188.8430  178.3370  141.7420 C   0  0  0  0  0  3  0  0  0  0  0  0
  186.7860  177.5330  142.7430 C   0  0  0  0  0  0  0  0  0  0  0  0
  187.4670  178.4670  141.9570 C   0  0  0  0  0  3  0  0  0  0  0  0
  187.4920  176.4710  143.3280 C   0  0  0  0  0  3  0  0  0  0  0  0
  189.5470  177.2750  142.3170 C   0  0  0  0  0  0  0  0  0  0  0  0
  185.3300  177.7210  143.0100 C   0  0  0  0  0  2  0  0  0  0  0  0
  184.8680  179.1540  142.6970 C   0  0  1  0  0  3  0  0  0  0  0  0
  184.0300  179.1470  141.4810 N   0  0  0  0  0  0  0  0  0  0  0  0
  184.3940  178.7960  139.2370 C   0  0  0  0  0  2  0  0  0  0  0  0
  184.8020  179.5900  140.3910 N   0  0  0  0  0  2  0  0  0  0  0  0
  183.5940  177.6790  139.7020 N   0  0  0  0  0  2  0  0  0  0  0  0
  183.6760  177.7700  141.1450 C   0  0  0  0  0  2  0  0  0  0  0  0
  184.5490  179.0850  145.2040 C   0  0  0  0  0  1  0  0  0  0  0  0
  182.7150  179.5070  143.7780 O   0  0  0  0  0  1  0  0  0  0  0  0
  184.0910  179.7250  143.9070 C   0  0  2  0  0  3  0  0  0  0  0  0
  191.3260  177.0430  140.6120 C   0  0  0  0  0  0  0  0  0  0  0  0
  190.5100  176.2390  139.7500 N   0  0  0  0  0  2  0  0  0  0  0  0
  192.3350  177.6390  140.1470 O   0  0  0  0  0  0  0  0  0  0  0  0
  190.8660  175.9640  138.3620 C   0  0  0  0  0  2  0  0  0  0  0  0
  189.9070  176.6760  137.4160 C   0  0  0  0  0  2  0  0  0  0  0  0
  187.4230  176.4070  137.2760 C   0  0  0  0  0  3  0  0  0  0  0  0
  186.4410  174.2250  136.8580 C   0  0  0  0  0  0  0  0  0  0  0  0
  188.0290  172.2400  136.5410 C   0  0  0  0  0  1  0  0  0  0  0  0
  188.8270  174.5030  136.9730 N   0  0  0  0  0  0  0  0  0  0  0  0
  186.3020  175.5960  137.0980 C   0  0  0  0  0  3  0  0  0  0  0  0
  188.6940  175.8360  137.2120 C   0  0  0  0  0  0  0  0  0  0  0  0
  187.7540  173.6840  136.7960 C   0  0  0  0  0  0  0  0  0  0  0  0
  185.2330  173.4550  136.7200 N   0  0  0  0  0  0  0  0  0  0  0  0
  184.0320  173.9270  136.7860 C   0  0  0  0  0  3  0  0  0  0  0  0
  182.8530  173.0340  136.6070 C   0  0  0  0  0  2  0  0  0  0  0  0
  183.1670  171.6240  137.0940 C   0  0  0  0  0  2  0  0  0  0  0  0
  182.6690  170.6580  136.1740 O   0  0  0  0  0  0  0  0  0  0  0  0
  183.4980  169.7120  135.5700 C   0  0  0  0  0  0  0  0  0  0  0  0
  183.0780  168.5490  135.3190 O   0  0  0  0  0  0  0  0  0  0  0  0
  184.8890  170.0930  135.1960 C   0  0  0  0  0  1  0  0  0  0  0  0
  191.7100  178.2890  142.6810 N   0  0  0  0  0  2  0  0  0  0  0  0
  191.7960  178.0240  144.1070 C   0  0  0  0  0  2  0  0  0  0  0  0
  192.0060  176.6600  144.3100 O   0  0  0  0  0  0  0  0  0  0  0  0
  191.5960  176.4260  145.6270 C   0  0  0  0  0  2  0  0  0  0  0  0
  190.3490  177.2430  145.9340 C   0  0  0  0  0  2  0  0  0  0  0  0
  190.2080  177.4660  147.4100 C   0  0  0  0  0  0  0  0  0  0  0  0
  191.1350  177.1880  148.1560 O   0  0  0  0  0  0  0  0  0  0  0  0
  188.9590  178.0710  147.9710 C   0  0  0  0  0  3  0  0  0  0  0  0
  187.9450  176.9770  148.2700 C   0  0  0  0  0  2  0  0  0  0  0  0
  187.7820  177.8320  147.0370 C   0  0  0  0  0  2  0  0  0  0  0  0
  1 18  1  6  0  0  0
  1  7  1  0  0  0  0
  1 38  1  0  0  0  0
  2  6  1  0  0  0  0
  3  5  2  0  0  0  0
  3  7  1  0  0  0  0
  4  8  1  0  0  0  0
  4  6  2  0  0  0  0
  5  4  1  0  0  0  0
  7  2  2  0  0  0  0
  9  8  1  1  0  0  0
  9 17  1  0  0  0  0
 10  9  1  0  0  0  0
 11 13  1  0  0  0  0
 11 12  1  0  0  0  0
 12 10  1  0  0  0  0
 13 14  1  0  0  0  0
 14 10  1  0  0  0  0
 16 17  1  0  0  0  0
 17 15  1  1  0  0  0
 19 18  1  0  0  0  0
 20 18  2  0  0  0  0
 21 19  1  0  0  0  0
 22 21  1  0  0  0  0
 24 27  1  0  0  0  0
 25 29  1  0  0  0  0
 26 28  2  0  0  0  0
 27 23  2  0  0  0  0
 28 23  1  0  0  0  0
 28 22  1  0  0  0  0
 29 24  2  0  0  0  0
 29 26  1  0  0  0  0
 30 31  2  0  0  0  0
 30 24  1  0  0  0  0
 32 31  1  0  0  0  0
 32 33  1  0  0  0  0
 34 33  1  0  0  0  0
 35 34  1  0  0  0  0
 36 35  2  0  0  0  0
 37 35  1  0  0  0  0
 38 39  1  0  0  0  0
 39 40  1  0  0  0  0
 40 41  1  0  0  0  0
 41 42  1  0  0  0  0
 42 43  1  0  0  0  0
 43 45  1  0  0  0  0
 43 44  2  0  0  0  0
 45 46  1  0  0  0  0
 47 45  1  0  0  0  0
 47 46  1  0  0  0  0
M  END
>  <MODEL>
2

>  <REMARK>
 VINA RESULT:      -6.9      2.376      6.395
  Name = 
  21 active torsions:
  status: ('A' for Active; 'I' for Inactive)
    1  A    between atoms: C_3  and  C_13
    2  A    between atoms: C_3  and  C_32
    3  A    between atoms: C_6  and  C_33
    4  A    between atoms: C_7  and  N_18
    5  A    between atoms: N_8  and  C_29
    6  A    between atoms: C_9  and  C_38
    7  A    between atoms: C_13  and  N_26
    8  A    between atoms: C_15  and  C_20
    9  A    between atoms: C_15  and  O_37
   10  A    between atoms: C_16  and  C_28
   11  A    between atoms: C_20  and  C_36
   12  A    between atoms: C_22  and  O_37
   13  A    between atoms: C_28  and  C_34
   14  A    between atoms: C_29  and  C_31
   15  A    between atoms: C_29  and  C_33
   16  A    between atoms: C_34  and  C_42
   17  A    between atoms: C_35  and  C_38
   18  A    between atoms: C_38  and  N_46
   19  A    between atoms: O_41  and  C_42
   20  A    between atoms: O_41  and  C_47
   21  A    between atoms: N_46  and  C_47
                            x       y       z     vdW  Elec       q    Type
                         _______ _______ _______ _____ _____    ______ ____

>  <TORSDO>
F 21

$$$$
=
 OpenBabel10222422083D

 47 50  0  0  1  0  0  0  0  0999 V2000
  190.3540  176.9330  141.9600 C   0  0  1  0  0  3  0  0  0  0  0  0
  188.0550  177.3370  142.9230 C   0  0  0  0  0  3  0  0  0  0  0  0
  188.5800  178.1750  140.7130 C   0  0  0  0  0  3  0  0  0  0  0  0
  186.3790  178.5510  141.6570 C   0  0  0  0  0  0  0  0  0  0  0  0
  187.2910  178.7060  140.6080 C   0  0  0  0  0  3  0  0  0  0  0  0
  186.7670  177.8720  142.8200 C   0  0  0  0  0  3  0  0  0  0  0  0
  188.9670  177.4900  141.8690 C   0  0  0  0  0  0  0  0  0  0  0  0
  185.0270  179.1760  141.5520 C   0  0  0  0  0  2  0  0  0  0  0  0
  184.0540  178.3090  140.7360 C   0  0  1  0  0  3  0  0  0  0  0  0
  182.8160  178.0950  141.5120 N   0  0  0  0  0  0  0  0  0  0  0  0
  181.6730  179.2580  143.1360 C   0  0  0  0  0  2  0  0  0  0  0  0
  182.9660  178.6810  142.7830 N   0  0  0  0  0  2  0  0  0  0  0  0
  180.8360  179.2790  141.9500 N   0  0  0  0  0  2  0  0  0  0  0  0
  181.7220  178.8400  140.8920 C   0  0  0  0  0  2  0  0  0  0  0  0
  184.0920  178.0870  138.2190 C   0  0  0  0  0  1  0  0  0  0  0  0
  184.4870  180.1790  139.2390 O   0  0  0  0  0  1  0  0  0  0  0  0
  183.7530  178.9970  139.3830 C   0  0  2  0  0  3  0  0  0  0  0  0
  191.0360  176.9490  140.6230 C   0  0  0  0  0  0  0  0  0  0  0  0
  190.6360  176.0490  139.5810 N   0  0  0  0  0  2  0  0  0  0  0  0
  191.9940  177.7470  140.4330 O   0  0  0  0  0  0  0  0  0  0  0  0
  191.3780  175.9150  138.3320 C   0  0  0  0  0  2  0  0  0  0  0  0
  190.6340  176.6040  137.1940 C   0  0  0  0  0  2  0  0  0  0  0  0
  188.1390  176.7760  137.1120 C   0  0  0  0  0  3  0  0  0  0  0  0
  186.7770  174.7950  136.7680 C   0  0  0  0  0  0  0  0  0  0  0  0
  187.9800  172.5530  136.4690 C   0  0  0  0  0  1  0  0  0  0  0  0
  189.1760  174.6470  136.8290 N   0  0  0  0  0  0  0  0  0  0  0  0
  186.8880  176.1740  136.9770 C   0  0  0  0  0  3  0  0  0  0  0  0
  189.2870  175.9880  137.0370 C   0  0  0  0  0  0  0  0  0  0  0  0
  187.9720  174.0290  136.6930 C   0  0  0  0  0  0  0  0  0  0  0  0
  185.4480  174.2490  136.6750 N   0  0  0  0  0  0  0  0  0  0  0  0
  184.5590  174.5850  135.7990 C   0  0  0  0  0  3  0  0  0  0  0  0
  183.2200  173.9340  135.7860 C   0  0  0  0  0  2  0  0  0  0  0  0
  182.7010  173.7410  137.2060 C   0  0  0  0  0  2  0  0  0  0  0  0
  182.4810  175.0020  137.8300 O   0  0  0  0  0  0  0  0  0  0  0  0
  181.2180  175.4030  138.2710 C   0  0  0  0  0  0  0  0  0  0  0  0
  181.0010  175.6280  139.4920 O   0  0  0  0  0  0  0  0  0  0  0  0
  180.1250  175.5890  137.2770 C   0  0  0  0  0  1  0  0  0  0  0  0
  191.1160  177.6670  142.9600 N   0  0  0  0  0  2  0  0  0  0  0  0
  191.4240  176.7350  144.0300 C   0  0  0  0  0  2  0  0  0  0  0  0
  191.7540  177.4480  145.1820 O   0  0  0  0  0  0  0  0  0  0  0  0
  190.9570  176.8940  146.1890 C   0  0  0  0  0  2  0  0  0  0  0  0
  189.5280  177.4000  146.0560 C   0  0  0  0  0  2  0  0  0  0  0  0
  188.9290  177.6690  147.4040 C   0  0  0  0  0  0  0  0  0  0  0  0
  189.6200  178.1510  148.2880 O   0  0  0  0  0  0  0  0  0  0  0  0
  187.4790  177.3960  147.6590 C   0  0  0  0  0  3  0  0  0  0  0  0
  186.6860  177.5790  146.3740 C   0  0  0  0  0  2  0  0  0  0  0  0
  186.6510  178.6520  147.4340 C   0  0  0  0  0  2  0  0  0  0  0  0
  1 18  1  6  0  0  0
  1 38  1  0  0  0  0
  3  7  1  0  0  0  0
  4  6  2  0  0  0  0
  5  3  2  0  0  0  0
  5  4  1  0  0  0  0
  6  2  1  0  0  0  0
  7  1  1  0  0  0  0
  7  2  2  0  0  0  0
  8  4  1  0  0  0  0
  9 10  1  0  0  0  0
  9  8  1  1  0  0  0
 10 12  1  0  0  0  0
 12 11  1  0  0  0  0
 13 11  1  0  0  0  0
 14 10  1  0  0  0  0
 14 13  1  0  0  0  0
 16 17  1  0  0  0  0
 17 15  1  6  0  0  0
 17  9  1  0  0  0  0
 19 18  1  0  0  0  0
 20 18  2  0  0  0  0
 21 19  1  0  0  0  0
 22 21  1  0  0  0  0
 24 27  1  0  0  0  0
 25 29  1  0  0  0  0
 26 28  2  0  0  0  0
 27 23  2  0  0  0  0
 28 23  1  0  0  0  0
 28 22  1  0  0  0  0
 29 24  2  0  0  0  0
 29 26  1  0  0  0  0
 30 24  1  0  0  0  0
 31 30  2  0  0  0  0
 32 31  1  0  0  0  0
 32 33  1  0  0  0  0
 33 34  1  0  0  0  0
 34 35  1  0  0  0  0
 35 36  2  0  0  0  0
 37 35  1  0  0  0  0
 38 39  1  0  0  0  0
 39 40  1  0  0  0  0
 40 41  1  0  0  0  0
 42 41  1  0  0  0  0
 42 43  1  0  0  0  0
 43 45  1  0  0  0  0
 43 44  2  0  0  0  0
 46 47  1  0  0  0  0
 46 45  1  0  0  0  0
 47 45  1  0  0  0  0
M  END
>  <MODEL>
3

>  <REMARK>
 VINA RESULT:      -6.8      2.197      6.616
  Name = 
  21 active torsions:
  status: ('A' for Active; 'I' for Inactive)
    1  A    between atoms: C_3  and  C_13
    2  A    between atoms: C_3  and  C_32
    3  A    between atoms: C_6  and  C_33
    4  A    between atoms: C_7  and  N_18
    5  A    between atoms: N_8  and  C_29
    6  A    between atoms: C_9  and  C_38
    7  A    between atoms: C_13  and  N_26
    8  A    between atoms: C_15  and  C_20
    9  A    between atoms: C_15  and  O_37
   10  A    between atoms: C_16  and  C_28
   11  A    between atoms: C_20  and  C_36
   12  A    between atoms: C_22  and  O_37
   13  A    between atoms: C_28  and  C_34
   14  A    between atoms: C_29  and  C_31
   15  A    between atoms: C_29  and  C_33
   16  A    between atoms: C_34  and  C_42
   17  A    between atoms: C_35  and  C_38
   18  A    between atoms: C_38  and  N_46
   19  A    between atoms: O_41  and  C_42
   20  A    between atoms: O_41  and  C_47
   21  A    between atoms: N_46  and  C_47
                            x       y       z     vdW  Elec       q    Type
                         _______ _______ _______ _____ _____    ______ ____

>  <TORSDO>
F 21

$$$$
=
 OpenBabel10222422083D

 47 50  0  0  1  0  0  0  0  0999 V2000
  185.8720  177.9680  145.3830 C   0  0  1  0  0  3  0  0  0  0  0  0
  183.4720  178.5990  144.9140 C   0  0  0  0  0  3  0  0  0  0  0  0
  184.9840  178.2250  143.0610 C   0  0  0  0  0  3  0  0  0  0  0  0
  182.6760  178.8310  142.6340 C   0  0  0  0  0  0  0  0  0  0  0  0
  183.9520  178.5080  142.1610 C   0  0  0  0  0  3  0  0  0  0  0  0
  182.4400  178.8850  144.0160 C   0  0  0  0  0  3  0  0  0  0  0  0
  184.7490  178.2700  144.4390 C   0  0  0  0  0  0  0  0  0  0  0  0
  181.6020  179.1880  141.6610 C   0  0  0  0  0  2  0  0  0  0  0  0
  181.8830  178.6190  140.2600 C   0  0  1  0  0  3  0  0  0  0  0  0
  181.3050  177.2630  140.1550 N   0  0  0  0  0  0  0  0  0  0  0  0
  180.3420  176.0120  138.4810 C   0  0  0  0  0  2  0  0  0  0  0  0
  180.2700  177.2790  139.2010 N   0  0  0  0  0  2  0  0  0  0  0  0
  181.6030  175.3680  138.8010 N   0  0  0  0  0  2  0  0  0  0  0  0
  182.3040  176.3540  139.5980 C   0  0  0  0  0  2  0  0  0  0  0  0
  182.3850  180.2140  138.3660 C   0  0  0  0  0  1  0  0  0  0  0  0
  180.5210  180.5760  139.7690 O   0  0  0  0  0  1  0  0  0  0  0  0
  181.2890  179.5620  139.1870 C   0  0  2  0  0  3  0  0  0  0  0  0
  187.0460  177.3740  144.6610 C   0  0  0  0  0  0  0  0  0  0  0  0
  188.3610  177.9250  144.8150 N   0  0  0  0  0  2  0  0  0  0  0  0
  186.8590  176.3980  143.8850 O   0  0  0  0  0  0  0  0  0  0  0  0
  189.4940  177.4890  144.0060 C   0  0  0  0  0  2  0  0  0  0  0  0
  189.8740  178.5670  142.9980 C   0  0  0  0  0  2  0  0  0  0  0  0
  188.0890  178.6220  141.2450 C   0  0  0  0  0  3  0  0  0  0  0  0
  188.3960  177.4560  139.1360 C   0  0  0  0  0  0  0  0  0  0  0  0
  190.6030  176.2080  138.7700 C   0  0  0  0  0  1  0  0  0  0  0  0
  190.1110  177.4300  140.8210 N   0  0  0  0  0  0  0  0  0  0  0  0
  187.6170  178.2480  139.9860 C   0  0  0  0  0  3  0  0  0  0  0  0
  189.3530  178.1960  141.6520 C   0  0  0  0  0  0  0  0  0  0  0  0
  189.6810  177.0480  139.5880 C   0  0  0  0  0  0  0  0  0  0  0  0
  187.8210  177.0860  137.8700 N   0  0  0  0  0  0  0  0  0  0  0  0
  187.2280  177.8920  137.0520 C   0  0  0  0  0  3  0  0  0  0  0  0
  186.6880  177.3990  135.7540 C   0  0  0  0  0  2  0  0  0  0  0  0
  186.3220  175.9220  135.8510 C   0  0  0  0  0  2  0  0  0  0  0  0
  185.1780  175.7470  136.6800 O   0  0  0  0  0  0  0  0  0  0  0  0
  184.4800  174.5400  136.7390 C   0  0  0  0  0  0  0  0  0  0  0  0
  183.4650  174.3430  136.0170 O   0  0  0  0  0  0  0  0  0  0  0  0
  184.9600  173.4650  137.6510 C   0  0  0  0  0  1  0  0  0  0  0  0
  186.2430  179.1720  146.1110 N   0  0  0  0  0  2  0  0  0  0  0  0
  186.0840  178.8820  147.5250 C   0  0  0  0  0  2  0  0  0  0  0  0
  187.2510  179.2350  148.2020 O   0  0  0  0  0  0  0  0  0  0  0  0
  187.9070  178.0230  148.4440 C   0  0  0  0  0  2  0  0  0  0  0  0
  189.4110  178.2140  148.3170 C   0  0  0  0  0  2  0  0  0  0  0  0
  190.0550  176.9980  147.7210 C   0  0  0  0  0  0  0  0  0  0  0  0
  189.3580  176.0730  147.3340 O   0  0  0  0  0  0  0  0  0  0  0  0
  191.5410  176.9310  147.5520 C   0  0  0  0  0  3  0  0  0  0  0  0
  191.8790  176.3170  146.2020 C   0  0  0  0  0  2  0  0  0  0  0  0
  192.0040  175.4850  147.4550 C   0  0  0  0  0  2  0  0  0  0  0  0
  1 18  1  6  0  0  0
  1 38  1  0  0  0  0
  3  7  2  0  0  0  0
  4  6  1  0  0  0  0
  5  4  2  0  0  0  0
  5  3  1  0  0  0  0
  6  2  2  0  0  0  0
  7  2  1  0  0  0  0
  7  1  1  0  0  0  0
  8  4  1  0  0  0  0
  9  8  1  1  0  0  0
 10  9  1  0  0  0  0
 11 13  1  0  0  0  0
 11 12  1  0  0  0  0
 12 10  1  0  0  0  0
 13 14  1  0  0  0  0
 14 10  1  0  0  0  0
 17 15  1  1  0  0  0
 17 16  1  0  0  0  0
 17  9  1  0  0  0  0
 18 19  1  0  0  0  0
 20 18  2  0  0  0  0
 21 19  1  0  0  0  0
 22 21  1  0  0  0  0
 23 28  1  0  0  0  0
 24 29  2  0  0  0  0
 24 27  1  0  0  0  0
 25 29  1  0  0  0  0
 26 28  2  0  0  0  0
 27 23  2  0  0  0  0
 28 22  1  0  0  0  0
 29 26  1  0  0  0  0
 30 24  1  0  0  0  0
 31 30  2  0  0  0  0
 32 33  1  0  0  0  0
 32 31  1  0  0  0  0
 33 34  1  0  0  0  0
 34 35  1  0  0  0  0
 35 37  1  0  0  0  0
 36 35  2  0  0  0  0
 38 39  1  0  0  0  0
 39 40  1  0  0  0  0
 40 41  1  0  0  0  0
 42 41  1  0  0  0  0
 43 42  1  0  0  0  0
 44 43  2  0  0  0  0
 45 43  1  0  0  0  0
 46 47  1  0  0  0  0
 46 45  1  0  0  0  0
 47 45  1  0  0  0  0
M  END
>  <MODEL>
4

>  <REMARK>
 VINA RESULT:      -6.6      2.656      6.843
  Name = 
  21 active torsions:
  status: ('A' for Active; 'I' for Inactive)
    1  A    between atoms: C_3  and  C_13
    2  A    between atoms: C_3  and  C_32
    3  A    between atoms: C_6  and  C_33
    4  A    between atoms: C_7  and  N_18
    5  A    between atoms: N_8  and  C_29
    6  A    between atoms: C_9  and  C_38
    7  A    between atoms: C_13  and  N_26
    8  A    between atoms: C_15  and  C_20
    9  A    between atoms: C_15  and  O_37
   10  A    between atoms: C_16  and  C_28
   11  A    between atoms: C_20  and  C_36
   12  A    between atoms: C_22  and  O_37
   13  A    between atoms: C_28  and  C_34
   14  A    between atoms: C_29  and  C_31
   15  A    between atoms: C_29  and  C_33
   16  A    between atoms: C_34  and  C_42
   17  A    between atoms: C_35  and  C_38
   18  A    between atoms: C_38  and  N_46
   19  A    between atoms: O_41  and  C_42
   20  A    between atoms: O_41  and  C_47
   21  A    between atoms: N_46  and  C_47
                            x       y       z     vdW  Elec       q    Type
                         _______ _______ _______ _____ _____    ______ ____

>  <TORSDO>
F 21

$$$$
=
 OpenBabel10222422083D

 47 50  0  0  1  0  0  0  0  0999 V2000
  187.2520  178.1360  142.5650 C   0  0  1  0  0  3  0  0  0  0  0  0
  189.3220  177.1410  141.5150 C   0  0  0  0  0  3  0  0  0  0  0  0
  187.8200  178.4640  140.1530 C   0  0  0  0  0  3  0  0  0  0  0  0
  189.8130  177.5000  139.1660 C   0  0  0  0  0  0  0  0  0  0  0  0
  188.6450  178.2590  139.0430 C   0  0  0  0  0  3  0  0  0  0  0  0
  190.1460  176.9320  140.4050 C   0  0  0  0  0  3  0  0  0  0  0  0
  188.1540  177.9060  141.3920 C   0  0  0  0  0  0  0  0  0  0  0  0
  190.6500  177.2420  137.9580 C   0  0  0  0  0  2  0  0  0  0  0  0
  191.5590  176.0140  138.1390 C   0  0  1  0  0  3  0  0  0  0  0  0
  191.2320  175.0040  137.1120 N   0  0  0  0  0  0  0  0  0  0  0  0
  189.4470  173.6180  136.6810 C   0  0  0  0  0  2  0  0  0  0  0  0
  190.4240  174.0070  137.6920 N   0  0  0  0  0  2  0  0  0  0  0  0
  189.4800  174.5900  135.6050 N   0  0  0  0  0  2  0  0  0  0  0  0
  190.3860  175.6110  136.0880 C   0  0  0  0  0  2  0  0  0  0  0  0
  193.9310  175.2740  137.6750 C   0  0  0  0  0  1  0  0  0  0  0  0
  193.4980  176.9740  139.2560 O   0  0  0  0  0  1  0  0  0  0  0  0
  193.0420  176.4470  138.0430 C   0  0  2  0  0  3  0  0  0  0  0  0
  185.9340  178.7090  142.1340 C   0  0  0  0  0  0  0  0  0  0  0  0
  184.9330  177.8810  141.5280 N   0  0  0  0  0  2  0  0  0  0  0  0
  185.7240  179.9440  142.2830 O   0  0  0  0  0  0  0  0  0  0  0  0
  183.7120  178.4250  140.9430 C   0  0  0  0  0  2  0  0  0  0  0  0
  183.9900  178.9810  139.5520 C   0  0  0  0  0  2  0  0  0  0  0  0
  185.2100  177.8300  137.6950 C   0  0  0  0  0  3  0  0  0  0  0  0
  184.3680  175.7470  136.7710 C   0  0  0  0  0  0  0  0  0  0  0  0
  182.2250  174.7720  137.7800 C   0  0  0  0  0  1  0  0  0  0  0  0
  183.2180  176.8530  138.5700 N   0  0  0  0  0  0  0  0  0  0  0  0
  185.3190  176.7730  136.7900 C   0  0  0  0  0  3  0  0  0  0  0  0
  184.1390  177.8560  138.5870 C   0  0  0  0  0  0  0  0  0  0  0  0
  183.2950  175.8100  137.7010 C   0  0  0  0  0  0  0  0  0  0  0  0
  184.5350  174.7140  135.7840 N   0  0  0  0  0  0  0  0  0  0  0  0
  185.6010  174.0030  135.6150 C   0  0  0  0  0  3  0  0  0  0  0  0
  185.6520  172.9430  134.5700 C   0  0  0  0  0  2  0  0  0  0  0  0
  185.8400  171.5700  135.2060 C   0  0  0  0  0  2  0  0  0  0  0  0
  184.9210  171.3890  136.2780 O   0  0  0  0  0  0  0  0  0  0  0  0
  183.6960  170.7410  136.1070 C   0  0  0  0  0  0  0  0  0  0  0  0
  183.6140  169.4850  136.1750 O   0  0  0  0  0  0  0  0  0  0  0  0
  182.4710  171.5510  135.8630 C   0  0  0  0  0  1  0  0  0  0  0  0
  187.0820  176.8950  143.3070 N   0  0  0  0  0  2  0  0  0  0  0  0
  186.7320  177.2580  144.6700 C   0  0  0  0  0  2  0  0  0  0  0  0
  187.5770  178.2780  145.1060 O   0  0  0  0  0  0  0  0  0  0  0  0
  188.0730  177.8340  146.3360 C   0  0  0  0  0  2  0  0  0  0  0  0
  189.0670  176.7030  146.1150 C   0  0  0  0  0  2  0  0  0  0  0  0
  190.3970  177.0360  146.7210 C   0  0  0  0  0  0  0  0  0  0  0  0
  190.4580  177.4030  147.8850 O   0  0  0  0  0  0  0  0  0  0  0  0
  191.6560  176.8760  145.9260 C   0  0  0  0  0  3  0  0  0  0  0  0
  191.6460  177.8350  144.7460 C   0  0  0  0  0  2  0  0  0  0  0  0
  191.3440  176.3730  144.5250 C   0  0  0  0  0  2  0  0  0  0  0  0
  1 18  1  6  0  0  0
  1 38  1  0  0  0  0
  3  7  2  0  0  0  0
  4  6  1  0  0  0  0
  5  4  2  0  0  0  0
  5  3  1  0  0  0  0
  6  2  2  0  0  0  0
  7  2  1  0  0  0  0
  7  1  1  0  0  0  0
  8  4  1  0  0  0  0
  9  8  1  6  0  0  0
 10 12  1  0  0  0  0
 10  9  1  0  0  0  0
 11 12  1  0  0  0  0
 13 14  1  0  0  0  0
 13 11  1  0  0  0  0
 14 10  1  0  0  0  0
 17 15  1  1  0  0  0
 17  9  1  0  0  0  0
 17 16  1  0  0  0  0
 18 20  2  0  0  0  0
 19 18  1  0  0  0  0
 21 19  1  0  0  0  0
 22 21  1  0  0  0  0
 23 28  1  0  0  0  0
 24 27  1  0  0  0  0
 24 29  2  0  0  0  0
 26 28  2  0  0  0  0
 27 23  2  0  0  0  0
 28 22  1  0  0  0  0
 29 25  1  0  0  0  0
 29 26  1  0  0  0  0
 30 24  1  0  0  0  0
 31 30  2  0  0  0  0
 32 33  1  0  0  0  0
 32 31  1  0  0  0  0
 33 34  1  0  0  0  0
 35 36  2  0  0  0  0
 35 34  1  0  0  0  0
 37 35  1  0  0  0  0
 38 39  1  0  0  0  0
 39 40  1  0  0  0  0
 40 41  1  0  0  0  0
 42 41  1  0  0  0  0
 42 43  1  0  0  0  0
 43 44  2  0  0  0  0
 45 43  1  0  0  0  0
 46 45  1  0  0  0  0
 47 46  1  0  0  0  0
 47 45  1  0  0  0  0
M  END
>  <MODEL>
5

>  <REMARK>
 VINA RESULT:      -6.3      2.471      4.329
  Name = 
  21 active torsions:
  status: ('A' for Active; 'I' for Inactive)
    1  A    between atoms: C_3  and  C_13
    2  A    between atoms: C_3  and  C_32
    3  A    between atoms: C_6  and  C_33
    4  A    between atoms: C_7  and  N_18
    5  A    between atoms: N_8  and  C_29
    6  A    between atoms: C_9  and  C_38
    7  A    between atoms: C_13  and  N_26
    8  A    between atoms: C_15  and  C_20
    9  A    between atoms: C_15  and  O_37
   10  A    between atoms: C_16  and  C_28
   11  A    between atoms: C_20  and  C_36
   12  A    between atoms: C_22  and  O_37
   13  A    between atoms: C_28  and  C_34
   14  A    between atoms: C_29  and  C_31
   15  A    between atoms: C_29  and  C_33
   16  A    between atoms: C_34  and  C_42
   17  A    between atoms: C_35  and  C_38
   18  A    between atoms: C_38  and  N_46
   19  A    between atoms: O_41  and  C_42
   20  A    between atoms: O_41  and  C_47
   21  A    between atoms: N_46  and  C_47
                            x       y       z     vdW  Elec       q    Type
                         _______ _______ _______ _____ _____    ______ ____

>  <TORSDO>
F 21

$$$$
=
 OpenBabel10222422083D

 47 50  0  0  1  0  0  0  0  0999 V2000
  185.3570  178.9420  143.5660 C   0  0  1  0  0  3  0  0  0  0  0  0
  187.0780  178.4530  141.7840 C   0  0  0  0  0  3  0  0  0  0  0  0
  184.7950  178.9210  141.1300 C   0  0  0  0  0  3  0  0  0  0  0  0
  186.4640  178.4490  139.4370 C   0  0  0  0  0  0  0  0  0  0  0  0
  185.1460  178.7590  139.7870 C   0  0  0  0  0  3  0  0  0  0  0  0
  187.4300  178.2870  140.4410 C   0  0  0  0  0  3  0  0  0  0  0  0
  185.7580  178.7680  142.1330 C   0  0  0  0  0  0  0  0  0  0  0  0
  186.8080  178.2210  138.0020 C   0  0  0  0  0  2  0  0  0  0  0  0
  187.7960  177.0570  137.8250 C   0  0  1  0  0  3  0  0  0  0  0  0
  187.2370  176.0760  136.8730 N   0  0  0  0  0  0  0  0  0  0  0  0
  187.6600  175.4780  134.6920 C   0  0  0  0  0  2  0  0  0  0  0  0
  187.3350  176.5980  135.5690 N   0  0  0  0  0  2  0  0  0  0  0  0
  188.0500  174.3450  135.5110 N   0  0  0  0  0  2  0  0  0  0  0  0
  188.0790  174.8830  136.8550 C   0  0  0  0  0  2  0  0  0  0  0  0
  190.2650  177.2860  138.3180 C   0  0  0  0  0  1  0  0  0  0  0  0
  189.1170  178.9880  137.1510 O   0  0  0  0  0  1  0  0  0  0  0  0
  189.1570  177.6010  137.3300 C   0  0  2  0  0  3  0  0  0  0  0  0
  183.9640  179.4900  143.6780 C   0  0  0  0  0  0  0  0  0  0  0  0
  182.8310  178.7150  143.2650 N   0  0  0  0  0  2  0  0  0  0  0  0
  183.8000  180.6620  144.1140 O   0  0  0  0  0  0  0  0  0  0  0  0
  181.4830  179.2680  143.1980 C   0  0  0  0  0  2  0  0  0  0  0  0
  180.5680  178.3460  142.4020 C   0  0  0  0  0  2  0  0  0  0  0  0
  181.2860  177.0470  140.3870 C   0  0  0  0  0  3  0  0  0  0  0  0
  181.9420  178.1950  138.3490 C   0  0  0  0  0  0  0  0  0  0  0  0
  181.8420  180.7550  138.3340 C   0  0  0  0  0  1  0  0  0  0  0  0
  181.2290  179.4290  140.2860 N   0  0  0  0  0  0  0  0  0  0  0  0
  181.7390  177.0120  139.0680 C   0  0  0  0  0  3  0  0  0  0  0  0
  181.0360  178.2800  140.9890 C   0  0  0  0  0  0  0  0  0  0  0  0
  181.6690  179.4300  138.9990 C   0  0  0  0  0  0  0  0  0  0  0  0
  182.4430  178.0710  137.0060 N   0  0  0  0  0  0  0  0  0  0  0  0
  183.3700  177.2550  136.6240 C   0  0  0  0  0  3  0  0  0  0  0  0
  183.7950  177.2010  135.1970 C   0  0  0  0  0  2  0  0  0  0  0  0
  183.9080  175.7560  134.7250 C   0  0  0  0  0  2  0  0  0  0  0  0
  183.6950  174.8600  135.8110 O   0  0  0  0  0  0  0  0  0  0  0  0
  184.4790  173.7210  136.0000 C   0  0  0  0  0  0  0  0  0  0  0  0
  184.8590  173.3810  137.1530 O   0  0  0  0  0  0  0  0  0  0  0  0
  184.8500  172.8880  134.8220 C   0  0  0  0  0  1  0  0  0  0  0  0
  185.4950  177.6770  144.2740 N   0  0  0  0  0  2  0  0  0  0  0  0
  186.0440  177.9800  145.5840 C   0  0  0  0  0  2  0  0  0  0  0  0
  187.3650  178.4020  145.4440 O   0  0  0  0  0  0  0  0  0  0  0  0
  188.1340  177.3600  145.9740 C   0  0  0  0  0  2  0  0  0  0  0  0
  189.6010  177.5700  145.6270 C   0  0  0  0  0  2  0  0  0  0  0  0
  189.8100  177.5240  144.1430 C   0  0  0  0  0  0  0  0  0  0  0  0
  190.2830  178.4920  143.5680 O   0  0  0  0  0  0  0  0  0  0  0  0
  189.4890  176.2830  143.3690 C   0  0  0  0  0  3  0  0  0  0  0  0
  190.7640  175.4970  143.1020 C   0  0  0  0  0  2  0  0  0  0  0  0
  190.1480  176.3220  141.9990 C   0  0  0  0  0  2  0  0  0  0  0  0
  1 18  1  6  0  0  0
  1 38  1  0  0  0  0
  2  7  1  0  0  0  0
  3  7  2  0  0  0  0
  4  5  2  0  0  0  0
  4  6  1  0  0  0  0
  5  3  1  0  0  0  0
  6  2  2  0  0  0  0
  7  1  1  0  0  0  0
  8  4  1  0  0  0  0
  9  8  1  6  0  0  0
 10  9  1  0  0  0  0
 11 13  1  0  0  0  0
 11 12  1  0  0  0  0
 12 10  1  0  0  0  0
 13 14  1  0  0  0  0
 14 10  1  0  0  0  0
 16 17  1  0  0  0  0
 17  9  1  0  0  0  0
 17 15  1  1  0  0  0
 18 20  2  0  0  0  0
 19 18  1  0  0  0  0
 21 19  1  0  0  0  0
 22 21  1  0  0  0  0
 23 28  1  0  0  0  0
 24 29  2  0  0  0  0
 24 27  1  0  0  0  0
 25 29  1  0  0  0  0
 26 28  2  0  0  0  0
 27 23  2  0  0  0  0
 28 22  1  0  0  0  0
 29 26  1  0  0  0  0
 30 24  1  0  0  0  0
 31 30  2  0  0  0  0
 32 31  1  0  0  0  0
 33 32  1  0  0  0  0
 33 34  1  0  0  0  0
 34 35  1  0  0  0  0
 35 36  2  0  0  0  0
 37 35  1  0  0  0  0
 38 39  1  0  0  0  0
 40 39  1  0  0  0  0
 40 41  1  0  0  0  0
 42 41  1  0  0  0  0
 43 42  1  0  0  0  0
 44 43  2  0  0  0  0
 45 43  1  0  0  0  0
 46 45  1  0  0  0  0
 47 46  1  0  0  0  0
 47 45  1  0  0  0  0
M  END
>  <MODEL>
6

>  <REMARK>
 VINA RESULT:      -5.9      2.618      4.963
  Name = 
  21 active torsions:
  status: ('A' for Active; 'I' for Inactive)
    1  A    between atoms: C_3  and  C_13
    2  A    between atoms: C_3  and  C_32
    3  A    between atoms: C_6  and  C_33
    4  A    between atoms: C_7  and  N_18
    5  A    between atoms: N_8  and  C_29
    6  A    between atoms: C_9  and  C_38
    7  A    between atoms: C_13  and  N_26
    8  A    between atoms: C_15  and  C_20
    9  A    between atoms: C_15  and  O_37
   10  A    between atoms: C_16  and  C_28
   11  A    between atoms: C_20  and  C_36
   12  A    between atoms: C_22  and  O_37
   13  A    between atoms: C_28  and  C_34
   14  A    between atoms: C_29  and  C_31
   15  A    between atoms: C_29  and  C_33
   16  A    between atoms: C_34  and  C_42
   17  A    between atoms: C_35  and  C_38
   18  A    between atoms: C_38  and  N_46
   19  A    between atoms: O_41  and  C_42
   20  A    between atoms: O_41  and  C_47
   21  A    between atoms: N_46  and  C_47
                            x       y       z     vdW  Elec       q    Type
                         _______ _______ _______ _____ _____    ______ ____

>  <TORSDO>
F 21

$$$$
=
 OpenBabel10222422083D

 47 50  0  0  1  0  0  0  0  0999 V2000
  190.7700  177.1140  139.8640 C   0  0  1  0  0  3  0  0  0  0  0  0
  193.0120  176.9010  138.7190 C   0  0  0  0  0  3  0  0  0  0  0  0
  191.2400  175.3510  138.1550 C   0  0  0  0  0  3  0  0  0  0  0  0
  193.3990  175.1660  137.0690 C   0  0  0  0  0  0  0  0  0  0  0  0
  192.0890  174.7110  137.2480 C   0  0  0  0  0  3  0  0  0  0  0  0
  193.8630  176.2590  137.8150 C   0  0  0  0  0  3  0  0  0  0  0  0
  191.6970  176.4470  138.8940 C   0  0  0  0  0  0  0  0  0  0  0  0
  194.3090  174.4330  136.1410 C   0  0  0  0  0  2  0  0  0  0  0  0
  195.7530  174.3880  136.6670 C   0  0  1  0  0  3  0  0  0  0  0  0
  196.1560  172.9830  136.8810 N   0  0  0  0  0  0  0  0  0  0  0  0
  195.3280  171.2000  138.0770 C   0  0  0  0  0  2  0  0  0  0  0  0
  195.7680  172.5880  138.1750 N   0  0  0  0  0  2  0  0  0  0  0  0
  195.1700  170.8620  136.6750 N   0  0  0  0  0  2  0  0  0  0  0  0
  195.3880  172.1180  135.9880 C   0  0  0  0  0  2  0  0  0  0  0  0
  198.1240  174.6050  135.8180 C   0  0  0  0  0  1  0  0  0  0  0  0
  196.6870  176.4780  135.8390 O   0  0  0  0  0  1  0  0  0  0  0  0
  196.6960  175.0910  135.6610 C   0  0  2  0  0  3  0  0  0  0  0  0
  189.5280  177.6060  139.1790 C   0  0  0  0  0  0  0  0  0  0  0  0
  189.5960  178.2330  137.8910 N   0  0  0  0  0  2  0  0  0  0  0  0
  188.4190  177.4920  139.7660 O   0  0  0  0  0  0  0  0  0  0  0  0
  188.4430  178.8740  137.2690 C   0  0  0  0  0  2  0  0  0  0  0  0
  187.6610  177.8670  136.4320 C   0  0  0  0  0  2  0  0  0  0  0  0
  185.4470  176.7050  136.5290 C   0  0  0  0  0  3  0  0  0  0  0  0
  183.7070  177.4910  138.0300 C   0  0  0  0  0  0  0  0  0  0  0  0
  184.2300  179.5140  139.5130 C   0  0  0  0  0  1  0  0  0  0  0  0
  185.8460  178.5850  137.9420 N   0  0  0  0  0  0  0  0  0  0  0  0
  184.1590  176.5970  137.0540 C   0  0  0  0  0  3  0  0  0  0  0  0
  186.2870  177.7200  136.9880 C   0  0  0  0  0  0  0  0  0  0  0  0
  184.5970  178.5070  138.4740 C   0  0  0  0  0  0  0  0  0  0  0  0
  182.3530  177.3310  138.4930 N   0  0  0  0  0  0  0  0  0  0  0  0
  182.0030  176.7990  139.6170 C   0  0  0  0  0  3  0  0  0  0  0  0
  180.5670  176.7050  140.0010 C   0  0  0  0  0  2  0  0  0  0  0  0
  180.2070  177.7940  141.0050 C   0  0  0  0  0  2  0  0  0  0  0  0
  181.3450  178.6000  141.2930 O   0  0  0  0  0  0  0  0  0  0  0  0
  181.8510  178.7370  142.5870 C   0  0  0  0  0  0  0  0  0  0  0  0
  183.0940  178.7800  142.7950 O   0  0  0  0  0  0  0  0  0  0  0  0
  180.9040  178.8570  143.7310 C   0  0  0  0  0  1  0  0  0  0  0  0
  190.4570  176.2030  140.9540 N   0  0  0  0  0  2  0  0  0  0  0  0
  190.7490  176.9030  142.1930 C   0  0  0  0  0  2  0  0  0  0  0  0
  190.3110  176.1350  143.2710 O   0  0  0  0  0  0  0  0  0  0  0  0
  190.9260  176.7030  144.3910 C   0  0  0  0  0  2  0  0  0  0  0  0
  190.0570  177.8220  144.9470 C   0  0  0  0  0  2  0  0  0  0  0  0
  188.7880  177.2730  145.5280 C   0  0  0  0  0  0  0  0  0  0  0  0
  187.8300  177.0650  144.8000 O   0  0  0  0  0  0  0  0  0  0  0  0
  188.7030  176.9330  146.9840 C   0  0  0  0  0  3  0  0  0  0  0  0
  187.9720  178.0400  147.7300 C   0  0  0  0  0  2  0  0  0  0  0  0
  189.4760  177.9460  147.8150 C   0  0  0  0  0  2  0  0  0  0  0  0
  1 18  1  6  0  0  0
  1 38  1  0  0  0  0
  2  7  1  0  0  0  0
  3  7  2  0  0  0  0
  4  5  2  0  0  0  0
  4  6  1  0  0  0  0
  5  3  1  0  0  0  0
  6  2  2  0  0  0  0
  7  1  1  0  0  0  0
  8  4  1  0  0  0  0
  9  8  1  6  0  0  0
  9 10  1  0  0  0  0
 10 12  1  0  0  0  0
 11 12  1  0  0  0  0
 13 11  1  0  0  0  0
 14 13  1  0  0  0  0
 14 10  1  0  0  0  0
 17 15  1  1  0  0  0
 17 16  1  0  0  0  0
 17  9  1  0  0  0  0
 18 20  2  0  0  0  0
 19 18  1  0  0  0  0
 21 19  1  0  0  0  0
 22 28  1  0  0  0  0
 22 21  1  0  0  0  0
 23 28  2  0  0  0  0
 23 27  1  0  0  0  0
 24 29  1  0  0  0  0
 24 30  1  0  0  0  0
 26 29  2  0  0  0  0
 27 24  2  0  0  0  0
 28 26  1  0  0  0  0
 29 25  1  0  0  0  0
 30 31  2  0  0  0  0
 31 32  1  0  0  0  0
 32 33  1  0  0  0  0
 33 34  1  0  0  0  0
 34 35  1  0  0  0  0
 35 36  2  0  0  0  0
 35 37  1  0  0  0  0
 38 39  1  0  0  0  0
 39 40  1  0  0  0  0
 40 41  1  0  0  0  0
 41 42  1  0  0  0  0
 42 43  1  0  0  0  0
 43 45  1  0  0  0  0
 44 43  2  0  0  0  0
 45 46  1  0  0  0  0
 45 47  1  0  0  0  0
 46 47  1  0  0  0  0
M  END
>  <MODEL>
7

>  <REMARK>
 VINA RESULT:      -5.9      3.868      6.897
  Name = 
  21 active torsions:
  status: ('A' for Active; 'I' for Inactive)
    1  A    between atoms: C_3  and  C_13
    2  A    between atoms: C_3  and  C_32
    3  A    between atoms: C_6  and  C_33
    4  A    between atoms: C_7  and  N_18
    5  A    between atoms: N_8  and  C_29
    6  A    between atoms: C_9  and  C_38
    7  A    between atoms: C_13  and  N_26
    8  A    between atoms: C_15  and  C_20
    9  A    between atoms: C_15  and  O_37
   10  A    between atoms: C_16  and  C_28
   11  A    between atoms: C_20  and  C_36
   12  A    between atoms: C_22  and  O_37
   13  A    between atoms: C_28  and  C_34
   14  A    between atoms: C_29  and  C_31
   15  A    between atoms: C_29  and  C_33
   16  A    between atoms: C_34  and  C_42
   17  A    between atoms: C_35  and  C_38
   18  A    between atoms: C_38  and  N_46
   19  A    between atoms: O_41  and  C_42
   20  A    between atoms: O_41  and  C_47
   21  A    between atoms: N_46  and  C_47
                            x       y       z     vdW  Elec       q    Type
                         _______ _______ _______ _____ _____    ______ ____

>  <TORSDO>
F 21

$$$$
=
 OpenBabel10222422083D

 47 50  0  0  1  0  0  0  0  0999 V2000
  190.0210  175.9050  138.1490 C   0  0  1  0  0  3  0  0  0  0  0  0
  191.4400  174.0960  137.1040 C   0  0  0  0  0  3  0  0  0  0  0  0
  192.3790  176.3050  137.4240 C   0  0  0  0  0  3  0  0  0  0  0  0
  193.7230  174.5530  136.4230 C   0  0  0  0  0  0  0  0  0  0  0  0
  193.5850  175.8740  136.8610 C   0  0  0  0  0  3  0  0  0  0  0  0
  192.6440  173.6650  136.5380 C   0  0  0  0  0  3  0  0  0  0  0  0
  191.3040  175.4190  137.5470 C   0  0  0  0  0  0  0  0  0  0  0  0
  194.9960  174.1270  135.7710 C   0  0  0  0  0  2  0  0  0  0  0  0
  195.8140  173.1820  136.6670 C   0  0  1  0  0  3  0  0  0  0  0  0
  197.2530  173.4800  136.5140 N   0  0  0  0  0  0  0  0  0  0  0  0
  199.0200  172.5210  135.3960 C   0  0  0  0  0  2  0  0  0  0  0  0
  197.9570  172.2710  136.3640 N   0  0  0  0  0  2  0  0  0  0  0  0
  198.7650  173.7930  134.7460 N   0  0  0  0  0  2  0  0  0  0  0  0
  197.4690  174.1890  135.2560 C   0  0  0  0  0  2  0  0  0  0  0  0
  196.2780  174.2920  138.8900 C   0  0  0  0  0  1  0  0  0  0  0  0
  195.3680  172.1150  138.8090 O   0  0  0  0  0  1  0  0  0  0  0  0
  195.3640  173.3420  138.1390 C   0  0  2  0  0  3  0  0  0  0  0  0
  190.2780  176.8460  139.2900 C   0  0  0  0  0  0  0  0  0  0  0  0
  190.9740  176.4080  140.4640 N   0  0  0  0  0  2  0  0  0  0  0  0
  189.8430  178.0280  139.2200 O   0  0  0  0  0  0  0  0  0  0  0  0
  191.0950  177.2360  141.6600 C   0  0  0  0  0  2  0  0  0  0  0  0
  190.8860  176.3940  142.9130 C   0  0  0  0  0  2  0  0  0  0  0  0
  188.4220  176.7800  142.7180 C   0  0  0  0  0  3  0  0  0  0  0  0
  187.1060  177.3640  144.6740 C   0  0  0  0  0  0  0  0  0  0  0  0
  188.3200  177.5370  146.9240 C   0  0  0  0  0  1  0  0  0  0  0  0
  189.4710  176.9680  144.8510 N   0  0  0  0  0  0  0  0  0  0  0  0
  187.1970  177.1030  143.3030 C   0  0  0  0  0  3  0  0  0  0  0  0
  189.5630  176.7200  143.5160 C   0  0  0  0  0  0  0  0  0  0  0  0
  188.2930  177.2860  145.4530 C   0  0  0  0  0  0  0  0  0  0  0  0
  185.8120  177.7230  145.1920 N   0  0  0  0  0  0  0  0  0  0  0  0
  185.0060  178.5850  144.6640 C   0  0  0  0  0  3  0  0  0  0  0  0
  183.6780  178.8610  145.2780 C   0  0  0  0  0  2  0  0  0  0  0  0
  182.7720  179.5940  144.2950 C   0  0  0  0  0  2  0  0  0  0  0  0
  181.7850  178.7100  143.7750 O   0  0  0  0  0  0  0  0  0  0  0  0
  180.7600  179.1500  142.9360 C   0  0  0  0  0  0  0  0  0  0  0  0
  180.4900  180.3770  142.8320 O   0  0  0  0  0  0  0  0  0  0  0  0
  179.9950  178.1530  142.1360 C   0  0  0  0  0  1  0  0  0  0  0  0
  189.1950  176.5210  137.1210 N   0  0  0  0  0  2  0  0  0  0  0  0
  188.0110  175.6940  136.9740 C   0  0  0  0  0  2  0  0  0  0  0  0
  186.9770  176.4600  136.4360 O   0  0  0  0  0  0  0  0  0  0  0  0
  186.0360  176.5690  137.4660 C   0  0  0  0  0  2  0  0  0  0  0  0
  185.1210  177.7570  137.2070 C   0  0  0  0  0  2  0  0  0  0  0  0
  184.7080  178.4030  138.4950 C   0  0  0  0  0  0  0  0  0  0  0  0
  185.5200  179.0540  139.1340 O   0  0  0  0  0  0  0  0  0  0  0  0
  183.2950  178.2960  138.9790 C   0  0  0  0  0  3  0  0  0  0  0  0
  183.2800  178.1040  140.4880 C   0  0  0  0  0  2  0  0  0  0  0  0
  183.0370  176.9230  139.5800 C   0  0  0  0  0  2  0  0  0  0  0  0
  1 38  1  6  0  0  0
  1 18  1  0  0  0  0
  2  7  1  0  0  0  0
  3  7  2  0  0  0  0
  4  6  1  0  0  0  0
  4  5  2  0  0  0  0
  5  3  1  0  0  0  0
  6  2  2  0  0  0  0
  7  1  1  0  0  0  0
  8  4  1  0  0  0  0
  9  8  1  6  0  0  0
  9 17  1  0  0  0  0
 10  9  1  0  0  0  0
 11 12  1  0  0  0  0
 12 10  1  0  0  0  0
 13 14  1  0  0  0  0
 13 11  1  0  0  0  0
 14 10  1  0  0  0  0
 17 16  1  0  0  0  0
 17 15  1  1  0  0  0
 18 19  1  0  0  0  0
 19 21  1  0  0  0  0
 20 18  2  0  0  0  0
 21 22  1  0  0  0  0
 22 28  1  0  0  0  0
 23 27  2  0  0  0  0
 23 28  1  0  0  0  0
 24 30  1  0  0  0  0
 24 29  2  0  0  0  0
 26 29  1  0  0  0  0
 27 24  1  0  0  0  0
 28 26  2  0  0  0  0
 29 25  1  0  0  0  0
 31 30  2  0  0  0  0
 31 32  1  0  0  0  0
 33 32  1  0  0  0  0
 34 33  1  0  0  0  0
 35 34  1  0  0  0  0
 36 35  2  0  0  0  0
 37 35  1  0  0  0  0
 39 38  1  0  0  0  0
 40 39  1  0  0  0  0
 40 41  1  0  0  0  0
 42 41  1  0  0  0  0
 42 43  1  0  0  0  0
 43 45  1  0  0  0  0
 43 44  2  0  0  0  0
 45 47  1  0  0  0  0
 45 46  1  0  0  0  0
 47 46  1  0  0  0  0
M  END
>  <MODEL>
8

>  <REMARK>
 VINA RESULT:      -5.9      4.241      9.315
  Name = 
  21 active torsions:
  status: ('A' for Active; 'I' for Inactive)
    1  A    between atoms: C_3  and  C_13
    2  A    between atoms: C_3  and  C_32
    3  A    between atoms: C_6  and  C_33
    4  A    between atoms: C_7  and  N_18
    5  A    between atoms: N_8  and  C_29
    6  A    between atoms: C_9  and  C_38
    7  A    between atoms: C_13  and  N_26
    8  A    between atoms: C_15  and  C_20
    9  A    between atoms: C_15  and  O_37
   10  A    between atoms: C_16  and  C_28
   11  A    between atoms: C_20  and  C_36
   12  A    between atoms: C_22  and  O_37
   13  A    between atoms: C_28  and  C_34
   14  A    between atoms: C_29  and  C_31
   15  A    between atoms: C_29  and  C_33
   16  A    between atoms: C_34  and  C_42
   17  A    between atoms: C_35  and  C_38
   18  A    between atoms: C_38  and  N_46
   19  A    between atoms: O_41  and  C_42
   20  A    between atoms: O_41  and  C_47
   21  A    between atoms: N_46  and  C_47
                            x       y       z     vdW  Elec       q    Type
                         _______ _______ _______ _____ _____    ______ ____

>  <TORSDO>
F 21

$$$$
=
 OpenBabel10222422083D

 47 50  0  0  1  0  0  0  0  0999 V2000
  184.7510  178.6240  140.0910 C   0  0  1  0  0  3  0  0  0  0  0  0
  187.2590  178.3670  140.2310 C   0  0  0  0  0  3  0  0  0  0  0  0
  186.1610  178.1440  138.0850 C   0  0  0  0  0  3  0  0  0  0  0  0
  188.5680  177.9010  138.2420 C   0  0  0  0  0  0  0  0  0  0  0  0
  187.3980  177.9040  137.4770 C   0  0  0  0  0  3  0  0  0  0  0  0
  188.4960  178.1240  139.6250 C   0  0  0  0  0  3  0  0  0  0  0  0
  186.0870  178.3750  139.4620 C   0  0  0  0  0  0  0  0  0  0  0  0
  189.8710  177.5850  137.5870 C   0  0  0  0  0  2  0  0  0  0  0  0
  190.2950  176.1250  137.8230 C   0  0  1  0  0  3  0  0  0  0  0  0
  189.9210  175.3090  136.6500 N   0  0  0  0  0  0  0  0  0  0  0  0
  190.2910  173.1420  135.9710 C   0  0  0  0  0  2  0  0  0  0  0  0
  190.9440  174.3750  136.3970 N   0  0  0  0  0  2  0  0  0  0  0  0
  188.8720  173.2450  136.2570 N   0  0  0  0  0  2  0  0  0  0  0  0
  188.7540  174.4940  136.9800 C   0  0  0  0  0  2  0  0  0  0  0  0
  192.2010  176.8860  139.2980 C   0  0  0  0  0  1  0  0  0  0  0  0
  192.5430  176.5430  136.9870 O   0  0  0  0  0  1  0  0  0  0  0  0
  191.8190  176.0620  138.0830 C   0  0  2  0  0  3  0  0  0  0  0  0
  184.8950  179.2520  141.4470 C   0  0  0  0  0  0  0  0  0  0  0  0
  183.8460  179.1540  142.4190 N   0  0  0  0  0  2  0  0  0  0  0  0
  185.9430  179.8990  141.7140 O   0  0  0  0  0  0  0  0  0  0  0  0
  183.8740  179.8880  143.6800 C   0  0  0  0  0  2  0  0  0  0  0  0
  183.5950  178.9500  144.8480 C   0  0  0  0  0  2  0  0  0  0  0  0
  185.1980  178.5110  146.7190 C   0  0  0  0  0  3  0  0  0  0  0  0
  187.3140  177.3970  146.2940 C   0  0  0  0  0  0  0  0  0  0  0  0
  187.8210  176.6710  143.8900 C   0  0  0  0  0  1  0  0  0  0  0  0
  185.7540  177.8050  144.5100 N   0  0  0  0  0  0  0  0  0  0  0  0
  186.4160  178.0060  147.1760 C   0  0  0  0  0  3  0  0  0  0  0  0
  184.8810  178.4040  145.3650 C   0  0  0  0  0  0  0  0  0  0  0  0
  186.9490  177.3030  144.9230 C   0  0  0  0  0  0  0  0  0  0  0  0
  188.5620  176.9340  146.8410 N   0  0  0  0  0  0  0  0  0  0  0  0
  189.6390  177.6390  146.9520 C   0  0  0  0  0  3  0  0  0  0  0  0
  190.8710  177.0580  147.5550 C   0  0  0  0  0  2  0  0  0  0  0  0
  191.7190  176.3720  146.4910 C   0  0  0  0  0  2  0  0  0  0  0  0
  191.9840  177.2650  145.4150 O   0  0  0  0  0  0  0  0  0  0  0  0
  191.6130  176.9770  144.1000 C   0  0  0  0  0  0  0  0  0  0  0  0
  191.5690  175.7870  143.6860 O   0  0  0  0  0  0  0  0  0  0  0  0
  191.2430  178.0930  143.1870 C   0  0  0  0  0  1  0  0  0  0  0  0
  183.9330  179.4410  139.2050 N   0  0  0  0  0  2  0  0  0  0  0  0
  182.6260  178.8120  139.1310 C   0  0  0  0  0  2  0  0  0  0  0  0
  182.5740  177.9910  138.0050 O   0  0  0  0  0  0  0  0  0  0  0  0
  181.9140  176.8340  138.4330 C   0  0  0  0  0  2  0  0  0  0  0  0
  182.9300  175.8100  138.9180 C   0  0  0  0  0  2  0  0  0  0  0  0
  183.3180  174.8770  137.8100 C   0  0  0  0  0  0  0  0  0  0  0  0
  182.4550  174.2430  137.2230 O   0  0  0  0  0  0  0  0  0  0  0  0
  184.7490  174.7560  137.3850 C   0  0  0  0  0  3  0  0  0  0  0  0
  184.8230  174.1490  135.9920 C   0  0  0  0  0  2  0  0  0  0  0  0
  185.1290  173.2950  137.1980 C   0  0  0  0  0  2  0  0  0  0  0  0
  1 38  1  6  0  0  0
  1 18  1  0  0  0  0
  3  7  1  0  0  0  0
  4  6  2  0  0  0  0
  5  3  2  0  0  0  0
  5  4  1  0  0  0  0
  6  2  1  0  0  0  0
  7  1  1  0  0  0  0
  7  2  2  0  0  0  0
  8  4  1  0  0  0  0
  9  8  1  6  0  0  0
  9 17  1  0  0  0  0
 10 14  1  0  0  0  0
 10  9  1  0  0  0  0
 11 13  1  0  0  0  0
 11 12  1  0  0  0  0
 12 10  1  0  0  0  0
 13 14  1  0  0  0  0
 16 17  1  0  0  0  0
 17 15  1  1  0  0  0
 18 20  2  0  0  0  0
 18 19  1  0  0  0  0
 19 21  1  0  0  0  0
 21 22  1  0  0  0  0
 22 28  1  0  0  0  0
 23 27  1  0  0  0  0
 24 30  1  0  0  0  0
 24 27  2  0  0  0  0
 25 29  1  0  0  0  0
 26 29  2  0  0  0  0
 26 28  1  0  0  0  0
 28 23  2  0  0  0  0
 29 24  1  0  0  0  0
 30 31  2  0  0  0  0
 31 32  1  0  0  0  0
 33 32  1  0  0  0  0
 34 33  1  0  0  0  0
 35 34  1  0  0  0  0
 36 35  2  0  0  0  0
 37 35  1  0  0  0  0
 39 38  1  0  0  0  0
 40 41  1  0  0  0  0
 40 39  1  0  0  0  0
 41 42  1  0  0  0  0
 43 42  1  0  0  0  0
 44 43  2  0  0  0  0
 45 43  1  0  0  0  0
 46 47  1  0  0  0  0
 46 45  1  0  0  0  0
 47 45  1  0  0  0  0
M  END
>  <MODEL>
9

>  <REMARK>
 VINA RESULT:      -5.9      2.374      7.862
  Name = 
  21 active torsions:
  status: ('A' for Active; 'I' for Inactive)
    1  A    between atoms: C_3  and  C_13
    2  A    between atoms: C_3  and  C_32
    3  A    between atoms: C_6  and  C_33
    4  A    between atoms: C_7  and  N_18
    5  A    between atoms: N_8  and  C_29
    6  A    between atoms: C_9  and  C_38
    7  A    between atoms: C_13  and  N_26
    8  A    between atoms: C_15  and  C_20
    9  A    between atoms: C_15  and  O_37
   10  A    between atoms: C_16  and  C_28
   11  A    between atoms: C_20  and  C_36
   12  A    between atoms: C_22  and  O_37
   13  A    between atoms: C_28  and  C_34
   14  A    between atoms: C_29  and  C_31
   15  A    between atoms: C_29  and  C_33
   16  A    between atoms: C_34  and  C_42
   17  A    between atoms: C_35  and  C_38
   18  A    between atoms: C_38  and  N_46
   19  A    between atoms: O_41  and  C_42
   20  A    between atoms: O_41  and  C_47
   21  A    between atoms: N_46  and  C_47
                            x       y       z     vdW  Elec       q    Type
                         _______ _______ _______ _____ _____    ______ ____

>  <TORSDO>
F 21

$$$$
