=
 OpenBabel10232409333D

 33 36  0  0  1  0  0  0  0  0999 V2000
  186.3670  178.2330  145.0520 C   0  0  0  0  0  2  0  0  0  0  0  0
  186.9590  178.1710  142.2740 C   0  0  0  0  0  3  0  0  0  0  0  0
  189.3300  178.2070  142.9210 C   0  0  2  0  0  3  0  0  0  0  0  0
  187.6570  178.1170  144.7170 C   0  0  0  0  0  0  0  0  0  0  0  0
  188.1540  177.1500  146.9400 O   0  0  0  0  0  1  0  0  0  0  0  0
  183.6900  178.7130  145.6740 O   0  0  0  0  0  0  0  0  0  0  0  0
  188.0370  178.1830  143.2820 C   0  0  0  0  0  0  0  0  0  0  0  0
  190.5760  178.6810  144.1220 S   0  0  0  0  0  0  0  0  0  0  0  0
  185.6890  178.3010  142.6570 C   0  0  0  0  0  3  0  0  0  0  0  0
  188.6330  177.6530  145.7310 C   0  0  1  0  0  3  0  0  0  0  0  0
  183.9880  178.6440  144.4510 C   0  0  0  0  0  0  0  0  0  0  0  0
  189.9550  177.6470  145.4640 C   0  0  2  0  0  3  0  0  0  0  0  0
  185.3510  178.4280  144.0500 N   0  0  0  0  0  0  0  0  0  0  0  0
  192.7610  175.4830  147.8990 C   0  0  0  0  0  3  0  0  0  0  0  0
  191.6170  175.8030  145.7920 C   0  0  0  0  0  3  0  0  0  0  0  0
  192.0870  176.5840  148.4310 C   0  0  0  0  0  3  0  0  0  0  0  0
  191.1790  177.2950  147.6410 C   0  0  0  0  0  3  0  0  0  0  0  0
  192.5250  175.0910  146.5800 C   0  0  0  0  0  3  0  0  0  0  0  0
  190.9400  176.9200  146.3080 C   0  0  0  0  0  0  0  0  0  0  0  0
  190.3040  176.8410  141.0380 C   0  0  0  0  0  0  0  0  0  0  0  0
  190.3870  175.8080  141.7560 O   0  0  0  0  0  0  0  0  0  0  0  0
  189.7370  178.0480  141.5570 N   0  0  0  0  0  2  0  0  0  0  0  0
  190.7500  176.7900  139.6170 C   0  0  0  0  0  2  0  0  0  0  0  0
  190.0160  176.4260  137.3710 O   0  0  0  0  0  0  0  0  0  0  0  0
  189.5630  176.6130  138.6840 C   0  0  2  0  0  3  0  0  0  0  0  0
  188.9750  176.8910  136.5560 C   0  0  0  0  0  2  0  0  0  0  0  0
  188.6760  177.8390  138.7090 C   0  0  0  0  0  2  0  0  0  0  0  0
  188.2670  178.0140  137.2780 C   0  0  0  0  0  2  0  0  0  0  0  0
  182.8970  178.7670  143.4390 C   0  0  0  0  0  2  0  0  0  0  0  0
  181.5830  179.0730  144.1320 C   0  0  0  0  0  2  0  0  0  0  0  0
  179.9850  180.4110  142.7140 N   0  0  0  0  0  1  0  0  0  0  0  0
  180.4870  179.1460  143.1280 C   0  0  0  0  0  0  0  0  0  0  0  0
  179.9840  178.0880  142.6670 O   0  0  0  0  0  0  0  0  0  0  0  0
  2  9  2  0  0  0  0
  2  7  1  0  0  0  0
  3 22  1  6  0  0  0
  3  7  1  0  0  0  0
  3  8  1  0  0  0  0
  4  1  1  0  0  0  0
  4 10  1  0  0  0  0
  7  4  2  0  0  0  0
  8 12  1  0  0  0  0
  9 13  1  0  0  0  0
 10  5  1  6  0  0  0
 11  6  2  0  0  0  0
 12 10  1  0  0  0  0
 12 19  1  1  0  0  0
 13 11  1  0  0  0  0
 13  1  1  0  0  0  0
 14 16  1  0  0  0  0
 15 19  2  0  0  0  0
 15 18  1  0  0  0  0
 17 16  2  0  0  0  0
 18 14  2  0  0  0  0
 19 17  1  0  0  0  0
 20 22  1  0  0  0  0
 20 21  2  0  0  0  0
 23 20  1  0  0  0  0
 24 25  1  0  0  0  0
 25 27  1  0  0  0  0
 25 23  1  1  0  0  0
 26 28  1  0  0  0  0
 26 24  1  0  0  0  0
 28 27  1  0  0  0  0
 29 30  1  0  0  0  0
 29 11  1  0  0  0  0
 31 32  1  0  0  0  0
 32 30  1  0  0  0  0
 33 32  2  0  0  0  0
M  END
>  <MODEL>
1

>  <REMARK>
 VINA RESULT:      -8.1      0.000      0.000
  Name = 
  7 active torsions:
  status: ('A' for Active; 'I' for Inactive)
    1  A    between atoms: C_2  and  C_18
    2  A    between atoms: C_8  and  N_30
    3  A    between atoms: C_9  and  C_21
    4  A    between atoms: C_9  and  C_28
    5  A    between atoms: C_15  and  C_21
    6  A    between atoms: C_18  and  C_19
    7  A    between atoms: C_25  and  C_31
                            x       y       z     vdW  Elec       q    Type
                         _______ _______ _______ _____ _____    ______ ____

>  <TORSDO>
F 7

$$$$
=
 OpenBabel10232409333D

 33 36  0  0  1  0  0  0  0  0999 V2000
  190.0630  177.0740  140.3420 C   0  0  0  0  0  2  0  0  0  0  0  0
  187.5480  178.3940  140.2790 C   0  0  0  0  0  3  0  0  0  0  0  0
  187.2630  177.6610  142.6070 C   0  0  2  0  0  3  0  0  0  0  0  0
  189.3870  177.1280  141.4950 C   0  0  0  0  0  0  0  0  0  0  0  0
  191.4890  176.7840  142.7540 O   0  0  0  0  0  1  0  0  0  0  0  0
  191.3080  176.7930  137.8610 O   0  0  0  0  0  0  0  0  0  0  0  0
  188.0210  177.7150  141.5010 C   0  0  0  0  0  0  0  0  0  0  0  0
  187.6480  176.4640  143.8880 S   0  0  0  0  0  0  0  0  0  0  0  0
  188.2530  178.3010  139.1510 C   0  0  0  0  0  3  0  0  0  0  0  0
  190.0980  176.8700  142.7700 C   0  0  1  0  0  3  0  0  0  0  0  0
  190.2040  177.4030  137.8800 C   0  0  0  0  0  0  0  0  0  0  0  0
  189.4220  176.7910  143.9330 C   0  0  2  0  0  3  0  0  0  0  0  0
  189.4890  177.5630  139.1160 N   0  0  0  0  0  0  0  0  0  0  0  0
  191.3720  176.8570  147.7650 C   0  0  0  0  0  3  0  0  0  0  0  0
  191.3610  176.2530  145.4220 C   0  0  0  0  0  3  0  0  0  0  0  0
  190.1090  177.4350  147.6190 C   0  0  0  0  0  3  0  0  0  0  0  0
  189.4740  177.4230  146.3750 C   0  0  0  0  0  3  0  0  0  0  0  0
  191.9980  176.2640  146.6660 C   0  0  0  0  0  3  0  0  0  0  0  0
  190.0960  176.8400  145.2570 C   0  0  0  0  0  0  0  0  0  0  0  0
  185.4740  178.7950  143.9770 C   0  0  0  0  0  0  0  0  0  0  0  0
  186.0880  178.5830  145.0560 O   0  0  0  0  0  0  0  0  0  0  0  0
  186.0420  178.4000  142.7240 N   0  0  0  0  0  2  0  0  0  0  0  0
  184.1690  179.5140  143.9980 C   0  0  0  0  0  2  0  0  0  0  0  0
  182.8310  179.0150  142.0810 O   0  0  0  0  0  0  0  0  0  0  0  0
  183.0650  178.6480  143.4130 C   0  0  2  0  0  3  0  0  0  0  0  0
  181.4930  178.6730  141.8380 C   0  0  0  0  0  2  0  0  0  0  0  0
  181.7770  178.8270  144.1870 C   0  0  0  0  0  2  0  0  0  0  0  0
  180.7190  178.8270  143.1260 C   0  0  0  0  0  2  0  0  0  0  0  0
  189.6770  177.9720  136.6040 C   0  0  0  0  0  2  0  0  0  0  0  0
  189.2650  176.8490  135.6710 C   0  0  0  0  0  2  0  0  0  0  0  0
  187.8250  175.0080  136.6150 N   0  0  0  0  0  1  0  0  0  0  0  0
  187.9350  176.3200  136.0730 C   0  0  0  0  0  0  0  0  0  0  0  0
  186.9020  177.0190  135.9070 O   0  0  0  0  0  0  0  0  0  0  0  0
  1  4  1  0  0  0  0
  2  7  1  0  0  0  0
  3 22  1  6  0  0  0
  3  8  1  0  0  0  0
  4  7  2  0  0  0  0
  4 10  1  0  0  0  0
  6 11  2  0  0  0  0
  7  3  1  0  0  0  0
  8 12  1  0  0  0  0
  9  2  2  0  0  0  0
 10  5  1  1  0  0  0
 10 12  1  0  0  0  0
 11 13  1  0  0  0  0
 12 19  1  1  0  0  0
 13  9  1  0  0  0  0
 13  1  1  0  0  0  0
 15 18  1  0  0  0  0
 16 14  1  0  0  0  0
 17 16  2  0  0  0  0
 18 14  2  0  0  0  0
 19 15  2  0  0  0  0
 19 17  1  0  0  0  0
 20 23  1  0  0  0  0
 20 21  2  0  0  0  0
 22 20  1  0  0  0  0
 24 25  1  0  0  0  0
 25 23  1  1  0  0  0
 25 27  1  0  0  0  0
 26 24  1  0  0  0  0
 26 28  1  0  0  0  0
 28 27  1  0  0  0  0
 29 11  1  0  0  0  0
 30 32  1  0  0  0  0
 30 29  1  0  0  0  0
 32 31  1  0  0  0  0
 33 32  2  0  0  0  0
M  END
>  <MODEL>
2

>  <REMARK>
 VINA RESULT:      -7.7      1.942      6.821
  Name = 
  7 active torsions:
  status: ('A' for Active; 'I' for Inactive)
    1  A    between atoms: C_2  and  C_18
    2  A    between atoms: C_8  and  N_30
    3  A    between atoms: C_9  and  C_21
    4  A    between atoms: C_9  and  C_28
    5  A    between atoms: C_15  and  C_21
    6  A    between atoms: C_18  and  C_19
    7  A    between atoms: C_25  and  C_31
                            x       y       z     vdW  Elec       q    Type
                         _______ _______ _______ _____ _____    ______ ____

>  <TORSDO>
F 7

$$$$
=
 OpenBabel10232409333D

 33 36  0  0  1  0  0  0  0  0999 V2000
  187.5030  177.2000  137.7330 C   0  0  0  0  0  2  0  0  0  0  0  0
  187.7990  178.3150  140.3300 C   0  0  0  0  0  3  0  0  0  0  0  0
  185.4490  179.0130  140.1450 C   0  0  2  0  0  3  0  0  0  0  0  0
  186.3970  177.6970  138.3010 C   0  0  0  0  0  0  0  0  0  0  0  0
  184.9970  176.2920  136.8220 O   0  0  0  0  0  1  0  0  0  0  0  0
  189.8820  176.4000  136.5170 O   0  0  0  0  0  0  0  0  0  0  0  0
  186.5100  178.3850  139.6140 C   0  0  0  0  0  0  0  0  0  0  0  0
  184.0750  179.4790  139.0900 S   0  0  0  0  0  0  0  0  0  0  0  0
  188.8740  177.8210  139.7160 C   0  0  0  0  0  3  0  0  0  0  0  0
  185.0690  177.3170  137.7640 C   0  0  1  0  0  3  0  0  0  0  0  0
  189.9680  176.8690  137.6840 C   0  0  0  0  0  0  0  0  0  0  0  0
  183.9450  177.8970  138.2310 C   0  0  2  0  0  3  0  0  0  0  0  0
  188.7890  177.3290  138.3660 N   0  0  0  0  0  0  0  0  0  0  0  0
  180.0530  176.2510  137.4360 C   0  0  0  0  0  3  0  0  0  0  0  0
  182.0420  176.3760  138.8070 C   0  0  0  0  0  3  0  0  0  0  0  0
  180.5880  177.2120  136.5760 C   0  0  0  0  0  3  0  0  0  0  0  0
  181.8500  177.7560  136.8330 C   0  0  0  0  0  3  0  0  0  0  0  0
  180.7810  175.8310  138.5510 C   0  0  0  0  0  3  0  0  0  0  0  0
  182.5890  177.3510  137.9590 C   0  0  0  0  0  0  0  0  0  0  0  0
  184.5760  178.9960  142.5120 C   0  0  0  0  0  0  0  0  0  0  0  0
  183.8060  178.0260  142.2790 O   0  0  0  0  0  0  0  0  0  0  0  0
  185.4530  179.4920  141.4950 N   0  0  0  0  0  2  0  0  0  0  0  0
  184.6160  179.5980  143.8740 C   0  0  0  0  0  2  0  0  0  0  0  0
  184.9640  179.1320  146.1930 O   0  0  0  0  0  0  0  0  0  0  0  0
  184.9640  178.5490  144.9190 C   0  0  2  0  0  3  0  0  0  0  0  0
  185.8510  178.3540  146.9500 C   0  0  0  0  0  2  0  0  0  0  0  0
  186.3390  177.9730  144.6610 C   0  0  0  0  0  2  0  0  0  0  0  0
  186.9280  177.8270  146.0310 C   0  0  0  0  0  2  0  0  0  0  0  0
  191.3070  176.9110  138.3450 C   0  0  0  0  0  2  0  0  0  0  0  0
  192.0640  175.6300  138.0560 C   0  0  0  0  0  2  0  0  0  0  0  0
  194.5240  175.2310  138.4360 N   0  0  0  0  0  1  0  0  0  0  0  0
  193.4890  175.9400  137.7630 C   0  0  0  0  0  0  0  0  0  0  0  0
  193.7800  176.8490  136.9440 O   0  0  0  0  0  0  0  0  0  0  0  0
  1  4  1  0  0  0  0
  1 13  1  0  0  0  0
  3 22  1  6  0  0  0
  4  7  2  0  0  0  0
  6 11  2  0  0  0  0
  7  3  1  0  0  0  0
  7  2  1  0  0  0  0
  8  3  1  0  0  0  0
  9  2  2  0  0  0  0
 10  5  1  1  0  0  0
 10 12  1  0  0  0  0
 10  4  1  0  0  0  0
 11 29  1  0  0  0  0
 11 13  1  0  0  0  0
 12 19  1  6  0  0  0
 12  8  1  0  0  0  0
 13  9  1  0  0  0  0
 14 18  1  0  0  0  0
 16 17  1  0  0  0  0
 16 14  2  0  0  0  0
 17 19  2  0  0  0  0
 18 15  2  0  0  0  0
 19 15  1  0  0  0  0
 20 23  1  0  0  0  0
 21 20  2  0  0  0  0
 22 20  1  0  0  0  0
 24 26  1  0  0  0  0
 25 23  1  6  0  0  0
 25 24  1  0  0  0  0
 27 25  1  0  0  0  0
 27 28  1  0  0  0  0
 28 26  1  0  0  0  0
 30 29  1  0  0  0  0
 32 30  1  0  0  0  0
 32 31  1  0  0  0  0
 33 32  2  0  0  0  0
M  END
>  <MODEL>
3

>  <REMARK>
 VINA RESULT:      -7.5      3.848     10.345
  Name = 
  7 active torsions:
  status: ('A' for Active; 'I' for Inactive)
    1  A    between atoms: C_2  and  C_18
    2  A    between atoms: C_8  and  N_30
    3  A    between atoms: C_9  and  C_21
    4  A    between atoms: C_9  and  C_28
    5  A    between atoms: C_15  and  C_21
    6  A    between atoms: C_18  and  C_19
    7  A    between atoms: C_25  and  C_31
                            x       y       z     vdW  Elec       q    Type
                         _______ _______ _______ _____ _____    ______ ____

>  <TORSDO>
F 7

$$$$
=
 OpenBabel10232409333D

 33 36  0  0  1  0  0  0  0  0999 V2000
  190.4760  177.3480  141.1300 C   0  0  0  0  0  2  0  0  0  0  0  0
  187.8120  178.3160  141.3290 C   0  0  0  0  0  3  0  0  0  0  0  0
  187.7520  178.2470  138.8720 C   0  0  2  0  0  3  0  0  0  0  0  0
  189.7820  177.4290  139.9880 C   0  0  0  0  0  0  0  0  0  0  0  0
  191.2830  175.7600  138.9470 O   0  0  0  0  0  1  0  0  0  0  0  0
  191.9370  177.4270  143.5040 O   0  0  0  0  0  0  0  0  0  0  0  0
  188.4200  178.0240  140.0160 C   0  0  0  0  0  0  0  0  0  0  0  0
  188.6520  178.3260  137.3220 S   0  0  0  0  0  0  0  0  0  0  0  0
  188.5490  178.2310  142.4360 C   0  0  0  0  0  3  0  0  0  0  0  0
  190.2520  176.6870  138.7950 C   0  0  1  0  0  3  0  0  0  0  0  0
  190.7390  177.8170  143.5580 C   0  0  0  0  0  0  0  0  0  0  0  0
  189.6490  176.8480  137.6000 C   0  0  2  0  0  3  0  0  0  0  0  0
  189.9310  177.8320  142.3710 N   0  0  0  0  0  0  0  0  0  0  0  0
  190.3120  174.1170  134.3460 C   0  0  0  0  0  3  0  0  0  0  0  0
  189.1120  174.7470  136.3500 C   0  0  0  0  0  3  0  0  0  0  0  0
  191.0840  175.2760  134.4460 C   0  0  0  0  0  3  0  0  0  0  0  0
  190.8680  176.1710  135.4980 C   0  0  0  0  0  3  0  0  0  0  0  0
  189.3270  173.8510  135.3000 C   0  0  0  0  0  3  0  0  0  0  0  0
  189.8720  175.9220  136.4580 C   0  0  0  0  0  0  0  0  0  0  0  0
  185.3750  177.9190  138.0950 C   0  0  0  0  0  0  0  0  0  0  0  0
  185.6720  176.8810  137.4450 O   0  0  0  0  0  0  0  0  0  0  0  0
  186.3660  178.6070  138.8640 N   0  0  0  0  0  2  0  0  0  0  0  0
  183.9670  178.4050  138.1080 C   0  0  0  0  0  2  0  0  0  0  0  0
  181.7200  177.6620  137.7630 O   0  0  0  0  0  0  0  0  0  0  0  0
  182.9930  177.2390  138.1690 C   0  0  2  0  0  3  0  0  0  0  0  0
  180.8240  176.8020  138.4130 C   0  0  0  0  0  2  0  0  0  0  0  0
  182.8860  176.7050  139.5810 C   0  0  0  0  0  2  0  0  0  0  0  0
  181.4280  176.3960  139.7380 C   0  0  0  0  0  2  0  0  0  0  0  0
  190.1800  178.2340  144.8790 C   0  0  0  0  0  2  0  0  0  0  0  0
  189.8320  177.0090  145.7010 C   0  0  0  0  0  2  0  0  0  0  0  0
  187.4890  177.8990  145.9750 N   0  0  0  0  0  1  0  0  0  0  0  0
  188.6410  177.2890  146.5470 C   0  0  0  0  0  0  0  0  0  0  0  0
  188.6620  177.0160  147.7750 O   0  0  0  0  0  0  0  0  0  0  0  0
  1 13  1  0  0  0  0
  2  9  2  0  0  0  0
  3 22  1  1  0  0  0
  3  7  1  0  0  0  0
  4  7  2  0  0  0  0
  4  1  1  0  0  0  0
  6 11  2  0  0  0  0
  7  2  1  0  0  0  0
  8 12  1  0  0  0  0
  8  3  1  0  0  0  0
 10  5  1  1  0  0  0
 10  4  1  0  0  0  0
 11 29  1  0  0  0  0
 12 19  1  6  0  0  0
 12 10  1  0  0  0  0
 13  9  1  0  0  0  0
 13 11  1  0  0  0  0
 14 16  2  0  0  0  0
 14 18  1  0  0  0  0
 15 19  1  0  0  0  0
 16 17  1  0  0  0  0
 17 19  2  0  0  0  0
 18 15  2  0  0  0  0
 20 23  1  0  0  0  0
 20 22  1  0  0  0  0
 21 20  2  0  0  0  0
 24 25  1  0  0  0  0
 24 26  1  0  0  0  0
 25 23  1  1  0  0  0
 25 27  1  0  0  0  0
 26 28  1  0  0  0  0
 27 28  1  0  0  0  0
 29 30  1  0  0  0  0
 30 32  1  0  0  0  0
 31 32  1  0  0  0  0
 32 33  2  0  0  0  0
M  END
>  <MODEL>
4

>  <REMARK>
 VINA RESULT:      -7.5      3.324      8.105
  Name = 
  7 active torsions:
  status: ('A' for Active; 'I' for Inactive)
    1  A    between atoms: C_2  and  C_18
    2  A    between atoms: C_8  and  N_30
    3  A    between atoms: C_9  and  C_21
    4  A    between atoms: C_9  and  C_28
    5  A    between atoms: C_15  and  C_21
    6  A    between atoms: C_18  and  C_19
    7  A    between atoms: C_25  and  C_31
                            x       y       z     vdW  Elec       q    Type
                         _______ _______ _______ _____ _____    ______ ____

>  <TORSDO>
F 7

$$$$
=
 OpenBabel10232409333D

 33 36  0  0  1  0  0  0  0  0999 V2000
  188.6200  177.7280  138.8860 C   0  0  0  0  0  2  0  0  0  0  0  0
  189.2190  176.9660  141.5570 C   0  0  0  0  0  3  0  0  0  0  0  0
  187.1700  178.1550  142.2080 C   0  0  2  0  0  3  0  0  0  0  0  0
  187.7030  178.0260  139.8140 C   0  0  0  0  0  0  0  0  0  0  0  0
  185.9600  178.1540  138.0620 O   0  0  0  0  0  1  0  0  0  0  0  0
  190.6720  177.2890  137.0480 O   0  0  0  0  0  0  0  0  0  0  0  0
  188.0060  177.7450  141.2420 C   0  0  0  0  0  0  0  0  0  0  0  0
  185.9880  179.4610  141.8620 S   0  0  0  0  0  0  0  0  0  0  0  0
  190.1090  176.7040  140.5990 C   0  0  0  0  0  3  0  0  0  0  0  0
  186.3220  178.3610  139.3920 C   0  0  1  0  0  3  0  0  0  0  0  0
  190.8860  176.9330  138.2380 C   0  0  0  0  0  0  0  0  0  0  0  0
  185.4110  178.7880  140.2900 C   0  0  2  0  0  3  0  0  0  0  0  0
  189.8890  177.1520  139.2490 N   0  0  0  0  0  0  0  0  0  0  0  0
  181.2090  178.8880  139.3840 C   0  0  0  0  0  3  0  0  0  0  0  0
  183.1080  177.8190  140.4350 C   0  0  0  0  0  3  0  0  0  0  0  0
  182.0420  179.9100  138.9240 C   0  0  0  0  0  3  0  0  0  0  0  0
  183.4070  179.8860  139.2210 C   0  0  0  0  0  3  0  0  0  0  0  0
  181.7420  177.8410  140.1390 C   0  0  0  0  0  3  0  0  0  0  0  0
  183.9560  178.8450  139.9890 C   0  0  0  0  0  0  0  0  0  0  0  0
  186.2350  177.7240  144.5110 C   0  0  0  0  0  0  0  0  0  0  0  0
  185.0670  178.0380  144.1560 O   0  0  0  0  0  0  0  0  0  0  0  0
  187.3080  177.7170  143.5640 N   0  0  0  0  0  2  0  0  0  0  0  0
  186.4920  177.3010  145.9160 C   0  0  0  0  0  2  0  0  0  0  0  0
  188.7920  176.9140  146.4400 O   0  0  0  0  0  0  0  0  0  0  0  0
  187.7940  177.8970  146.4300 C   0  0  2  0  0  3  0  0  0  0  0  0
  189.6860  177.3110  147.4450 C   0  0  0  0  0  2  0  0  0  0  0  0
  187.6240  178.4140  147.8430 C   0  0  0  0  0  2  0  0  0  0  0  0
  188.9060  178.0330  148.5190 C   0  0  0  0  0  2  0  0  0  0  0  0
  192.1800  176.2620  138.5640 C   0  0  0  0  0  2  0  0  0  0  0  0
  192.3990  175.0850  137.6340 C   0  0  0  0  0  2  0  0  0  0  0  0
  194.2320  176.5380  136.6920 N   0  0  0  0  0  1  0  0  0  0  0  0
  193.6960  175.2390  136.9210 C   0  0  0  0  0  0  0  0  0  0  0  0
  194.3040  174.2240  136.4940 O   0  0  0  0  0  0  0  0  0  0  0  0
  1 13  1  0  0  0  0
  1  4  1  0  0  0  0
  3 22  1  1  0  0  0
  4  7  2  0  0  0  0
  6 11  2  0  0  0  0
  7  2  1  0  0  0  0
  7  3  1  0  0  0  0
  8  3  1  0  0  0  0
  9  2  2  0  0  0  0
 10  5  1  1  0  0  0
 10  4  1  0  0  0  0
 10 12  1  0  0  0  0
 11 29  1  0  0  0  0
 11 13  1  0  0  0  0
 12 19  1  6  0  0  0
 12  8  1  0  0  0  0
 13  9  1  0  0  0  0
 14 18  1  0  0  0  0
 16 17  1  0  0  0  0
 16 14  2  0  0  0  0
 17 19  2  0  0  0  0
 18 15  2  0  0  0  0
 19 15  1  0  0  0  0
 20 23  1  0  0  0  0
 21 20  2  0  0  0  0
 22 20  1  0  0  0  0
 24 26  1  0  0  0  0
 25 23  1  1  0  0  0
 25 24  1  0  0  0  0
 25 27  1  0  0  0  0
 26 28  1  0  0  0  0
 27 28  1  0  0  0  0
 30 29  1  0  0  0  0
 31 32  1  0  0  0  0
 32 30  1  0  0  0  0
 33 32  2  0  0  0  0
M  END
>  <MODEL>
5

>  <REMARK>
 VINA RESULT:      -7.5      2.972      9.762
  Name = 
  7 active torsions:
  status: ('A' for Active; 'I' for Inactive)
    1  A    between atoms: C_2  and  C_18
    2  A    between atoms: C_8  and  N_30
    3  A    between atoms: C_9  and  C_21
    4  A    between atoms: C_9  and  C_28
    5  A    between atoms: C_15  and  C_21
    6  A    between atoms: C_18  and  C_19
    7  A    between atoms: C_25  and  C_31
                            x       y       z     vdW  Elec       q    Type
                         _______ _______ _______ _____ _____    ______ ____

>  <TORSDO>
F 7

$$$$
=
 OpenBabel10232409333D

 33 36  0  0  1  0  0  0  0  0999 V2000
  187.5420  177.9630  138.0900 C   0  0  0  0  0  2  0  0  0  0  0  0
  189.8910  176.9450  139.3220 C   0  0  0  0  0  3  0  0  0  0  0  0
  189.0840  177.9840  141.3980 C   0  0  2  0  0  3  0  0  0  0  0  0
  187.6430  178.1280  139.4140 C   0  0  0  0  0  0  0  0  0  0  0  0
  185.1870  178.3770  139.5780 O   0  0  0  0  0  1  0  0  0  0  0  0
  187.5060  177.7950  135.3060 O   0  0  0  0  0  0  0  0  0  0  0  0
  188.8950  177.7090  140.0980 C   0  0  0  0  0  0  0  0  0  0  0  0
  188.1140  179.2750  142.1810 S   0  0  0  0  0  0  0  0  0  0  0  0
  189.7520  176.8190  138.0030 C   0  0  0  0  0  3  0  0  0  0  0  0
  186.4310  178.4560  140.2020 C   0  0  1  0  0  3  0  0  0  0  0  0
  188.5180  177.3240  135.8930 C   0  0  0  0  0  0  0  0  0  0  0  0
  186.5210  178.7520  141.5140 C   0  0  2  0  0  3  0  0  0  0  0  0
  188.6230  177.3980  137.3240 N   0  0  0  0  0  0  0  0  0  0  0  0
  183.1120  178.7880  144.1350 C   0  0  0  0  0  3  0  0  0  0  0  0
  185.5080  178.7910  143.8030 C   0  0  0  0  0  3  0  0  0  0  0  0
  182.9230  178.7720  142.7510 C   0  0  0  0  0  3  0  0  0  0  0  0
  184.0270  178.7680  141.8950 C   0  0  0  0  0  3  0  0  0  0  0  0
  184.4060  178.7960  144.6620 C   0  0  0  0  0  3  0  0  0  0  0  0
  185.3350  178.7870  142.4100 C   0  0  0  0  0  0  0  0  0  0  0  0
  190.0090  176.3010  143.0330 C   0  0  0  0  0  0  0  0  0  0  0  0
  188.9020  175.7070  143.1330 O   0  0  0  0  0  0  0  0  0  0  0  0
  190.1640  177.4110  142.1430 N   0  0  0  0  0  2  0  0  0  0  0  0
  191.1830  175.8110  143.8080 C   0  0  0  0  0  2  0  0  0  0  0  0
  191.9800  175.8360  146.0620 O   0  0  0  0  0  0  0  0  0  0  0  0
  191.3720  176.6260  145.0780 C   0  0  2  0  0  3  0  0  0  0  0  0
  191.5580  176.3840  147.2820 C   0  0  0  0  0  2  0  0  0  0  0  0
  190.0380  177.1040  145.6110 C   0  0  0  0  0  2  0  0  0  0  0  0
  190.1720  176.9550  147.0950 C   0  0  0  0  0  2  0  0  0  0  0  0
  189.5820  176.6690  135.0750 C   0  0  0  0  0  2  0  0  0  0  0  0
  189.0080  175.4700  134.3460 C   0  0  0  0  0  2  0  0  0  0  0  0
  187.3170  174.0100  135.5140 N   0  0  0  0  0  1  0  0  0  0  0  0
  188.6730  174.3980  135.3220 C   0  0  0  0  0  0  0  0  0  0  0  0
  189.5850  173.8560  135.9990 O   0  0  0  0  0  0  0  0  0  0  0  0
  1  4  1  0  0  0  0
  2  7  1  0  0  0  0
  3 22  1  6  0  0  0
  3  8  1  0  0  0  0
  4  7  2  0  0  0  0
  4 10  1  0  0  0  0
  6 11  2  0  0  0  0
  7  3  1  0  0  0  0
  9  2  2  0  0  0  0
 10  5  1  1  0  0  0
 10 12  1  0  0  0  0
 11 13  1  0  0  0  0
 12  8  1  0  0  0  0
 12 19  1  6  0  0  0
 13  9  1  0  0  0  0
 13  1  1  0  0  0  0
 14 18  1  0  0  0  0
 15 18  2  0  0  0  0
 16 14  2  0  0  0  0
 17 19  2  0  0  0  0
 17 16  1  0  0  0  0
 19 15  1  0  0  0  0
 20 21  2  0  0  0  0
 20 23  1  0  0  0  0
 22 20  1  0  0  0  0
 24 26  1  0  0  0  0
 25 23  1  6  0  0  0
 25 27  1  0  0  0  0
 25 24  1  0  0  0  0
 27 28  1  0  0  0  0
 28 26  1  0  0  0  0
 29 11  1  0  0  0  0
 30 29  1  0  0  0  0
 30 32  1  0  0  0  0
 32 31  1  0  0  0  0
 32 33  2  0  0  0  0
M  END
>  <MODEL>
6

>  <REMARK>
 VINA RESULT:      -7.3      3.044      8.229
  Name = 
  7 active torsions:
  status: ('A' for Active; 'I' for Inactive)
    1  A    between atoms: C_2  and  C_18
    2  A    between atoms: C_8  and  N_30
    3  A    between atoms: C_9  and  C_21
    4  A    between atoms: C_9  and  C_28
    5  A    between atoms: C_15  and  C_21
    6  A    between atoms: C_18  and  C_19
    7  A    between atoms: C_25  and  C_31
                            x       y       z     vdW  Elec       q    Type
                         _______ _______ _______ _____ _____    ______ ____

>  <TORSDO>
F 7

$$$$
=
 OpenBabel10232409333D

 33 36  0  0  1  0  0  0  0  0999 V2000
  185.2810  178.4740  143.1320 C   0  0  0  0  0  2  0  0  0  0  0  0
  186.3290  178.2830  140.4980 C   0  0  0  0  0  3  0  0  0  0  0  0
  188.5580  178.4120  141.5250 C   0  0  2  0  0  3  0  0  0  0  0  0
  186.6110  178.3730  143.0230 C   0  0  0  0  0  0  0  0  0  0  0  0
  186.7470  177.5350  145.3470 O   0  0  0  0  0  1  0  0  0  0  0  0
  182.5310  178.9180  143.2760 O   0  0  0  0  0  0  0  0  0  0  0  0
  187.2240  178.3740  141.6680 C   0  0  0  0  0  0  0  0  0  0  0  0
  189.5790  178.9780  142.8880 S   0  0  0  0  0  0  0  0  0  0  0  0
  185.0110  178.4010  140.6580 C   0  0  0  0  0  3  0  0  0  0  0  0
  187.4130  177.9860  144.2080 C   0  0  1  0  0  3  0  0  0  0  0  0
  183.0300  178.7940  142.1240 C   0  0  0  0  0  0  0  0  0  0  0  0
  188.7600  177.9990  144.1640 C   0  0  2  0  0  3  0  0  0  0  0  0
  184.4440  178.5910  141.9670 N   0  0  0  0  0  0  0  0  0  0  0  0
  191.2030  176.1630  147.1880 C   0  0  0  0  0  3  0  0  0  0  0  0
  189.1930  177.3430  146.5410 C   0  0  0  0  0  3  0  0  0  0  0  0
  191.6290  176.1630  145.8580 C   0  0  0  0  0  3  0  0  0  0  0  0
  190.8360  176.7520  144.8700 C   0  0  0  0  0  3  0  0  0  0  0  0
  189.9850  176.7550  147.5300 C   0  0  0  0  0  3  0  0  0  0  0  0
  189.6020  177.3410  145.1980 C   0  0  0  0  0  0  0  0  0  0  0  0
  190.0950  177.1140  140.0040 C   0  0  0  0  0  0  0  0  0  0  0  0
  190.3120  176.2350  140.8810 O   0  0  0  0  0  0  0  0  0  0  0  0
  189.1890  178.1920  140.2590 N   0  0  0  0  0  2  0  0  0  0  0  0
  190.7470  177.0020  138.6690 C   0  0  0  0  0  2  0  0  0  0  0  0
  190.9030  174.6860  138.0960 O   0  0  0  0  0  0  0  0  0  0  0  0
  190.1540  175.8490  137.8730 C   0  0  2  0  0  3  0  0  0  0  0  0
  190.7260  173.9120  136.9400 C   0  0  0  0  0  2  0  0  0  0  0  0
  190.1790  176.1520  136.3910 C   0  0  0  0  0  2  0  0  0  0  0  0
  190.5480  174.8430  135.7640 C   0  0  0  0  0  2  0  0  0  0  0  0
  182.1200  178.8370  140.9400 C   0  0  0  0  0  2  0  0  0  0  0  0
  181.2900  177.5690  140.8820 C   0  0  0  0  0  2  0  0  0  0  0  0
  181.4790  177.5770  138.3680 N   0  0  0  0  0  1  0  0  0  0  0  0
  181.5390  176.8620  139.5970 C   0  0  0  0  0  0  0  0  0  0  0  0
  181.7730  175.6250  139.5940 O   0  0  0  0  0  0  0  0  0  0  0  0
  2  9  2  0  0  0  0
  2  7  1  0  0  0  0
  3 22  1  6  0  0  0
  3  7  1  0  0  0  0
  3  8  1  0  0  0  0
  4  1  1  0  0  0  0
  4 10  1  0  0  0  0
  7  4  2  0  0  0  0
  8 12  1  0  0  0  0
  9 13  1  0  0  0  0
 10  5  1  6  0  0  0
 11  6  2  0  0  0  0
 12 10  1  0  0  0  0
 12 19  1  1  0  0  0
 13 11  1  0  0  0  0
 13  1  1  0  0  0  0
 14 18  1  0  0  0  0
 15 18  2  0  0  0  0
 16 14  2  0  0  0  0
 17 19  2  0  0  0  0
 17 16  1  0  0  0  0
 19 15  1  0  0  0  0
 20 22  1  0  0  0  0
 20 21  2  0  0  0  0
 23 20  1  0  0  0  0
 25 24  1  0  0  0  0
 25 23  1  1  0  0  0
 26 24  1  0  0  0  0
 27 25  1  0  0  0  0
 28 27  1  0  0  0  0
 28 26  1  0  0  0  0
 29 11  1  0  0  0  0
 30 29  1  0  0  0  0
 31 32  1  0  0  0  0
 32 30  1  0  0  0  0
 33 32  2  0  0  0  0
M  END
>  <MODEL>
7

>  <REMARK>
 VINA RESULT:      -7.1      2.167      2.664
  Name = 
  7 active torsions:
  status: ('A' for Active; 'I' for Inactive)
    1  A    between atoms: C_2  and  C_18
    2  A    between atoms: C_8  and  N_30
    3  A    between atoms: C_9  and  C_21
    4  A    between atoms: C_9  and  C_28
    5  A    between atoms: C_15  and  C_21
    6  A    between atoms: C_18  and  C_19
    7  A    between atoms: C_25  and  C_31
                            x       y       z     vdW  Elec       q    Type
                         _______ _______ _______ _____ _____    ______ ____

>  <TORSDO>
F 7

$$$$
=
 OpenBabel10232409333D

 33 36  0  0  1  0  0  0  0  0999 V2000
  183.7540  178.8120  142.3670 C   0  0  0  0  0  2  0  0  0  0  0  0
  186.4160  178.8020  141.3750 C   0  0  0  0  0  3  0  0  0  0  0  0
  185.4380  178.4120  139.1540 C   0  0  2  0  0  3  0  0  0  0  0  0
  183.8970  178.7380  141.0390 C   0  0  0  0  0  0  0  0  0  0  0  0
  181.6000  179.6070  140.7350 O   0  0  0  0  0  1  0  0  0  0  0  0
  183.5330  178.7290  145.1470 O   0  0  0  0  0  0  0  0  0  0  0  0
  185.2650  178.6260  140.4680 C   0  0  0  0  0  0  0  0  0  0  0  0
  184.0840  177.7530  138.1780 S   0  0  0  0  0  0  0  0  0  0  0  0
  186.2210  178.8590  142.6930 C   0  0  0  0  0  3  0  0  0  0  0  0
  182.7410  179.0470  140.1630 C   0  0  1  0  0  3  0  0  0  0  0  0
  184.6990  178.7600  144.6680 C   0  0  0  0  0  0  0  0  0  0  0  0
  182.8170  178.8590  138.8310 C   0  0  2  0  0  3  0  0  0  0  0  0
  184.8950  178.7750  143.2440 N   0  0  0  0  0  0  0  0  0  0  0  0
  179.9830  180.4870  136.0360 C   0  0  0  0  0  3  0  0  0  0  0  0
  181.2540  178.6140  136.8900 C   0  0  0  0  0  3  0  0  0  0  0  0
  180.5470  181.3120  137.0120 C   0  0  0  0  0  3  0  0  0  0  0  0
  181.4630  180.7860  137.9270 C   0  0  0  0  0  3  0  0  0  0  0  0
  180.3380  179.1370  135.9740 C   0  0  0  0  0  3  0  0  0  0  0  0
  181.8210  179.4270  137.8840 C   0  0  0  0  0  0  0  0  0  0  0  0
  187.3610  177.4390  137.8440 C   0  0  0  0  0  0  0  0  0  0  0  0
  186.7600  176.3450  137.6690 O   0  0  0  0  0  0  0  0  0  0  0  0
  186.7240  178.5190  138.5340 N   0  0  0  0  0  2  0  0  0  0  0  0
  188.7260  177.6300  137.2800 C   0  0  0  0  0  2  0  0  0  0  0  0
  190.1450  177.2930  139.1750 O   0  0  0  0  0  0  0  0  0  0  0  0
  189.7280  176.7160  137.9680 C   0  0  2  0  0  3  0  0  0  0  0  0
  191.4280  176.7760  139.4040 C   0  0  0  0  0  2  0  0  0  0  0  0
  190.9480  176.5070  137.0970 C   0  0  0  0  0  2  0  0  0  0  0  0
  192.0890  176.5310  138.0670 C   0  0  0  0  0  2  0  0  0  0  0  0
  185.8600  178.8060  145.6060 C   0  0  0  0  0  2  0  0  0  0  0  0
  186.5190  177.4430  145.6780 C   0  0  0  0  0  2  0  0  0  0  0  0
  188.4110  177.5370  147.3420 N   0  0  0  0  0  1  0  0  0  0  0  0
  187.9650  177.5960  145.9910 C   0  0  0  0  0  0  0  0  0  0  0  0
  188.7910  177.8090  145.0660 O   0  0  0  0  0  0  0  0  0  0  0  0
  1 13  1  0  0  0  0
  2  9  2  0  0  0  0
  3 22  1  1  0  0  0
  3  7  1  0  0  0  0
  4  1  1  0  0  0  0
  7  4  2  0  0  0  0
  7  2  1  0  0  0  0
  8 12  1  0  0  0  0
  8  3  1  0  0  0  0
  9 13  1  0  0  0  0
 10  5  1  6  0  0  0
 10  4  1  0  0  0  0
 11  6  2  0  0  0  0
 11 29  1  0  0  0  0
 12 19  1  1  0  0  0
 12 10  1  0  0  0  0
 13 11  1  0  0  0  0
 14 16  1  0  0  0  0
 15 19  2  0  0  0  0
 16 17  2  0  0  0  0
 18 14  2  0  0  0  0
 18 15  1  0  0  0  0
 19 17  1  0  0  0  0
 20 22  1  0  0  0  0
 21 20  2  0  0  0  0
 23 20  1  0  0  0  0
 24 26  1  0  0  0  0
 25 23  1  6  0  0  0
 25 24  1  0  0  0  0
 27 25  1  0  0  0  0
 27 28  1  0  0  0  0
 28 26  1  0  0  0  0
 29 30  1  0  0  0  0
 30 32  1  0  0  0  0
 32 31  1  0  0  0  0
 33 32  2  0  0  0  0
M  END
>  <MODEL>
8

>  <REMARK>
 VINA RESULT:      -7.1      3.754      8.325
  Name = 
  7 active torsions:
  status: ('A' for Active; 'I' for Inactive)
    1  A    between atoms: C_2  and  C_18
    2  A    between atoms: C_8  and  N_30
    3  A    between atoms: C_9  and  C_21
    4  A    between atoms: C_9  and  C_28
    5  A    between atoms: C_15  and  C_21
    6  A    between atoms: C_18  and  C_19
    7  A    between atoms: C_25  and  C_31
                            x       y       z     vdW  Elec       q    Type
                         _______ _______ _______ _____ _____    ______ ____

>  <TORSDO>
F 7

$$$$
=
 OpenBabel10232409333D

 33 36  0  0  1  0  0  0  0  0999 V2000
  185.9220  178.1450  142.7670 C   0  0  0  0  0  2  0  0  0  0  0  0
  187.9520  178.3760  140.7940 C   0  0  0  0  0  3  0  0  0  0  0  0
  186.1400  178.4080  139.1340 C   0  0  2  0  0  3  0  0  0  0  0  0
  185.5130  178.3340  141.5070 C   0  0  0  0  0  0  0  0  0  0  0  0
  183.3480  179.2050  142.3310 O   0  0  0  0  0  1  0  0  0  0  0  0
  186.8350  177.5210  145.3280 O   0  0  0  0  0  0  0  0  0  0  0  0
  186.5250  178.3590  140.4190 C   0  0  0  0  0  0  0  0  0  0  0  0
  184.4690  177.9270  138.6900 S   0  0  0  0  0  0  0  0  0  0  0  0
  188.3090  178.1720  142.0620 C   0  0  0  0  0  3  0  0  0  0  0  0
  184.1250  178.7870  141.2520 C   0  0  1  0  0  3  0  0  0  0  0  0
  187.7080  177.6650  144.4300 C   0  0  0  0  0  0  0  0  0  0  0  0
  183.6450  178.8630  139.9940 C   0  0  2  0  0  3  0  0  0  0  0  0
  187.3150  177.9590  143.0800 N   0  0  0  0  0  0  0  0  0  0  0  0
  180.0440  181.0170  139.0550 C   0  0  0  0  0  3  0  0  0  0  0  0
  182.4370  180.7300  138.8440 C   0  0  0  0  0  3  0  0  0  0  0  0
  179.9830  179.8890  139.8760 C   0  0  0  0  0  3  0  0  0  0  0  0
  181.1490  179.1810  140.1790 C   0  0  0  0  0  3  0  0  0  0  0  0
  181.2720  181.4390  138.5400 C   0  0  0  0  0  3  0  0  0  0  0  0
  182.3900  179.5870  139.6580 C   0  0  0  0  0  0  0  0  0  0  0  0
  187.5620  177.6360  137.1990 C   0  0  0  0  0  0  0  0  0  0  0  0
  187.1130  176.4600  137.2660 O   0  0  0  0  0  0  0  0  0  0  0  0
  187.0710  178.6560  138.0750 N   0  0  0  0  0  2  0  0  0  0  0  0
  188.5750  177.9820  136.1620 C   0  0  0  0  0  2  0  0  0  0  0  0
  189.9080  176.0040  135.9990 O   0  0  0  0  0  0  0  0  0  0  0  0
  189.9110  177.3230  136.4700 C   0  0  2  0  0  3  0  0  0  0  0  0
  190.8160  175.3210  136.8200 C   0  0  0  0  0  2  0  0  0  0  0  0
  190.1610  177.2930  137.9620 C   0  0  0  0  0  2  0  0  0  0  0  0
  190.7860  175.9510  138.1920 C   0  0  0  0  0  2  0  0  0  0  0  0
  189.1490  177.5480  144.8060 C   0  0  0  0  0  2  0  0  0  0  0  0
  189.2740  177.2850  146.2940 C   0  0  0  0  0  2  0  0  0  0  0  0
  191.5810  176.5510  145.5910 N   0  0  0  0  0  1  0  0  0  0  0  0
  190.6780  176.9220  146.6260 C   0  0  0  0  0  0  0  0  0  0  0  0
  191.0590  176.9130  147.8250 O   0  0  0  0  0  0  0  0  0  0  0  0
  1 13  1  0  0  0  0
  2  9  2  0  0  0  0
  3 22  1  6  0  0  0
  3  7  1  0  0  0  0
  4  1  1  0  0  0  0
  7  2  1  0  0  0  0
  7  4  2  0  0  0  0
  8  3  1  0  0  0  0
  8 12  1  0  0  0  0
  9 13  1  0  0  0  0
 10  4  1  0  0  0  0
 10  5  1  6  0  0  0
 11 29  1  0  0  0  0
 11  6  2  0  0  0  0
 12 19  1  1  0  0  0
 12 10  1  0  0  0  0
 13 11  1  0  0  0  0
 14 16  1  0  0  0  0
 15 19  2  0  0  0  0
 16 17  2  0  0  0  0
 18 15  1  0  0  0  0
 18 14  2  0  0  0  0
 19 17  1  0  0  0  0
 20 21  2  0  0  0  0
 20 22  1  0  0  0  0
 23 20  1  0  0  0  0
 24 25  1  0  0  0  0
 24 26  1  0  0  0  0
 25 23  1  1  0  0  0
 25 27  1  0  0  0  0
 26 28  1  0  0  0  0
 27 28  1  0  0  0  0
 29 30  1  0  0  0  0
 30 32  1  0  0  0  0
 31 32  1  0  0  0  0
 32 33  2  0  0  0  0
M  END
>  <MODEL>
9

>  <REMARK>
 VINA RESULT:      -7.1      3.042      8.088
  Name = 
  7 active torsions:
  status: ('A' for Active; 'I' for Inactive)
    1  A    between atoms: C_2  and  C_18
    2  A    between atoms: C_8  and  N_30
    3  A    between atoms: C_9  and  C_21
    4  A    between atoms: C_9  and  C_28
    5  A    between atoms: C_15  and  C_21
    6  A    between atoms: C_18  and  C_19
    7  A    between atoms: C_25  and  C_31
                            x       y       z     vdW  Elec       q    Type
                         _______ _______ _______ _____ _____    ______ ____

>  <TORSDO>
F 7

$$$$
