=
 OpenBabel10232409033D

 57 61  0  0  1  0  0  0  0  0999 V2000
  188.0420  178.7220  138.5460 C   0  0  0  0  0  2  0  0  0  0  0  0
  182.9850  174.6380  137.4690 C   0  0  0  0  0  3  0  0  0  0  0  0
  190.1210  173.4750  135.9320 C   0  0  0  0  0  3  0  0  0  0  0  0
  185.2500  175.5180  137.3540 C   0  0  0  0  0  3  0  0  0  0  0  0
  194.7360  175.0930  136.1120 C   0  0  0  0  0  3  0  0  0  0  0  0
  183.2750  172.6140  136.4440 N   0  0  0  0  0  0  0  0  0  0  0  0
  192.1550  174.7910  136.4760 C   0  0  0  0  0  0  0  0  0  0  0  0
  185.6330  172.6260  136.0310 C   0  0  0  0  0  3  0  0  0  0  0  0
  187.3090  174.4070  136.5340 C   0  0  0  0  0  3  0  0  0  0  0  0
  192.1650  176.2390  138.5000 C   0  0  0  0  0  2  0  0  0  0  0  0
  191.3460  174.1520  135.3860 C   0  0  2  0  0  3  0  0  0  0  0  0
  188.0200  172.1790  135.6540 C   0  0  0  0  0  2  0  0  0  0  0  0
  189.2730  172.8280  135.1250 C   0  0  0  0  0  3  0  0  0  0  0  0
  186.6110  175.4840  137.0590 C   0  0  0  0  0  0  0  0  0  0  0  0
  187.0640  177.6470  138.1870 C   0  0  0  0  0  3  0  0  0  0  0  0
  189.1530  178.1650  139.3760 C   0  0  0  0  0  0  0  0  0  0  0  0
  182.4030  173.4520  137.0410 C   0  0  0  0  0  0  0  0  0  0  0  0
  191.5140  175.3410  137.5970 O   0  0  0  0  0  0  0  0  0  0  0  0
  190.9600  175.2310  134.3760 C   0  0  0  0  0  1  0  0  0  0  0  0
  190.1120  177.5300  138.7800 N   0  0  0  0  0  0  0  0  0  0  0  0
  184.3160  174.5310  137.1170 C   0  0  0  0  0  0  0  0  0  0  0  0
  191.1610  176.8200  139.4880 C   0  0  0  0  0  2  0  0  0  0  0  0
  186.9340  173.1370  136.0700 C   0  0  0  0  0  0  0  0  0  0  0  0
  187.4520  176.6270  137.4110 C   0  0  0  0  0  3  0  0  0  0  0  0
  184.4660  173.2390  136.4700 C   0  0  0  0  0  0  0  0  0  0  0  0
  193.4470  174.9210  136.2970 C   0  0  0  0  0  0  0  0  0  0  0  0
  196.8620  171.5020  137.2870 C   0  0  2  0  0  3  0  0  0  0  0  0
  195.7450  174.1040  136.6130 C   0  0  2  0  0  3  0  0  0  0  0  0
  196.0250  173.0410  135.5730 C   0  0  0  0  0  0  0  0  0  0  0  0
  195.3330  171.7500  138.2430 S   0  0  0  0  0  0  0  0  0  0  0  0
  196.5980  171.8240  135.9310 O   0  0  0  0  0  0  0  0  0  0  0  0
  195.8120  173.2740  134.3500 O   0  0  0  0  0  0  0  0  0  0  0  0
  195.3280  173.5710  138.0020 C   0  0  1  0  0  3  0  0  0  0  0  0
  195.2440  175.3480  139.6420 O   0  0  0  0  0  1  0  0  0  0  0  0
  197.2520  174.8440  138.6670 O   0  0  0  0  0  1  0  0  0  0  0  0
  196.0370  174.3220  139.1270 C   0  0  0  0  0  3  0  0  0  0  0  0
  197.3760  170.0610  137.4240 C   0  0  1  0  0  3  0  0  0  0  0  0
  196.3300  169.1380  137.3740 O   0  0  0  0  0  1  0  0  0  0  0  0
  197.9270  168.8480  135.4170 O   0  0  0  0  0  1  0  0  0  0  0  0
  198.4520  169.6900  136.4010 C   0  0  2  0  0  3  0  0  0  0  0  0
  200.2290  169.6510  138.2100 N   0  0  0  0  0  1  0  0  0  0  0  0
  200.2300  168.0750  136.4980 O   0  0  0  0  0  0  0  0  0  0  0  0
  199.6800  169.0860  137.0180 C   0  0  0  0  0  0  0  0  0  0  0  0
  180.9630  173.1290  137.2180 C   0  0  0  0  0  2  0  0  0  0  0  0
  180.4340  173.9710  134.9500 C   0  0  0  0  0  1  0  0  0  0  0  0
  180.1010  174.0970  136.4250 C   0  0  0  0  0  2  0  0  0  0  0  0
  188.9980  178.1720  140.8720 C   0  0  0  0  0  2  0  0  0  0  0  0
  188.9070  176.8620  141.3670 O   0  0  0  0  0  0  0  0  0  0  0  0
  189.1300  178.0210  144.7900 O   0  0  0  0  0  0  0  0  0  0  0  0
  189.6920  177.7750  143.5130 C   0  0  2  0  0  3  0  0  0  0  0  0
  188.6940  176.8870  142.7680 C   0  0  1  0  0  3  0  0  0  0  0  0
  187.7630  177.8170  144.8550 C   0  0  0  0  0  0  0  0  0  0  0  0
  187.1190  177.9470  145.9680 N   0  0  0  0  0  2  0  0  0  0  0  0
  186.9860  177.2130  143.3700 S   0  0  0  0  0  0  0  0  0  0  0  0
  191.2740  176.4380  144.7030 O   0  0  0  0  0  1  0  0  0  0  0  0
  191.9750  177.2350  142.6670 O   0  0  0  0  0  0  0  0  0  0  0  0
  191.0020  177.0630  143.6430 C   0  0  0  0  0  0  0  0  0  0  0  0
  1 16  1  0  0  0  0
  5 26  2  0  0  0  0
  6 25  2  0  0  0  0
  6 17  1  0  0  0  0
  7 18  1  0  0  0  0
  8 23  2  0  0  0  0
  8 25  1  0  0  0  0
  9 14  2  0  0  0  0
 10 22  1  0  0  0  0
 11 19  1  6  0  0  0
 11  3  1  0  0  0  0
 11  7  1  0  0  0  0
 12 23  1  0  0  0  0
 13 12  1  0  0  0  0
 13  3  2  0  0  0  0
 14  4  1  0  0  0  0
 14 24  1  0  0  0  0
 15  1  1  0  0  0  0
 16 47  1  0  0  0  0
 17 44  1  0  0  0  0
 17  2  2  0  0  0  0
 18 10  1  0  0  0  0
 20 16  2  0  0  0  0
 20 22  1  0  0  0  0
 21  4  2  0  0  0  0
 21  2  1  0  0  0  0
 23  9  1  0  0  0  0
 24 15  2  0  0  0  0
 25 21  1  0  0  0  0
 26  7  2  0  0  0  0
 27 37  1  6  0  0  0
 27 30  1  0  0  0  0
 28  5  1  6  0  0  0
 28 33  1  0  0  0  0
 29 31  1  0  0  0  0
 29 28  1  0  0  0  0
 31 27  1  0  0  0  0
 32 29  2  0  0  0  0
 33 30  1  0  0  0  0
 33 36  1  1  0  0  0
 35 36  1  0  0  0  0
 36 34  1  0  0  0  0
 37 38  1  6  0  0  0
 40 39  1  6  0  0  0
 40 43  1  0  0  0  0
 40 37  1  0  0  0  0
 42 43  2  0  0  0  0
 43 41  1  0  0  0  0
 45 46  1  0  0  0  0
 46 44  1  0  0  0  0
 47 48  1  0  0  0  0
 49 52  1  0  0  0  0
 50 57  1  1  0  0  0
 50 49  1  0  0  0  0
 51 48  1  6  0  0  0
 51 54  1  0  0  0  0
 51 50  1  0  0  0  0
 52 53  2  0  0  0  0
 54 52  1  0  0  0  0
 56 57  2  0  0  0  0
 57 55  1  0  0  0  0
M  END
>  <MODEL>
1

>  <REMARK>
 VINA RESULT:      -7.1      0.000      0.000
  Name = 
  11 active torsions:
  status: ('A' for Active; 'I' for Inactive)
    1  A    between atoms: C_4  and  C_22
    2  A    between atoms: C_5  and  C_51
    3  A    between atoms: C_12  and  C_16
    4  A    between atoms: C_17  and  C_39
    5  A    between atoms: C_17  and  C_46
    6  A    between atoms: C_22  and  C_56
    7  A    between atoms: C_27  and  O_36
    8  A    between atoms: C_30  and  C_54
    9  A    between atoms: C_31  and  C_56
   10  A    between atoms: C_35  and  C_40
   11  A    between atoms: O_36  and  C_40
                            x       y       z     vdW  Elec       q    Type
                         _______ _______ _______ _____ _____    ______ ____

>  <TORSDO>
F 11

$$$$
=
 OpenBabel10232409033D

 57 61  0  0  1  0  0  0  0  0999 V2000
  187.9900  178.8450  139.3960 C   0  0  0  0  0  2  0  0  0  0  0  0
  182.9180  175.3950  136.9890 C   0  0  0  0  0  3  0  0  0  0  0  0
  190.1090  174.4060  135.5890 C   0  0  0  0  0  3  0  0  0  0  0  0
  185.2060  176.1850  137.2380 C   0  0  0  0  0  3  0  0  0  0  0  0
  194.7380  175.7370  136.4500 C   0  0  0  0  0  3  0  0  0  0  0  0
  183.2260  173.7070  135.4750 N   0  0  0  0  0  0  0  0  0  0  0  0
  192.1340  175.4500  136.5770 C   0  0  0  0  0  0  0  0  0  0  0  0
  185.6050  173.7370  135.2110 C   0  0  0  0  0  3  0  0  0  0  0  0
  187.2860  175.2530  136.2640 C   0  0  0  0  0  3  0  0  0  0  0  0
  192.0490  176.3050  138.9130 C   0  0  0  0  0  2  0  0  0  0  0  0
  191.3810  175.1560  135.3130 C   0  0  2  0  0  3  0  0  0  0  0  0
  188.0010  173.3140  134.8590 C   0  0  0  0  0  2  0  0  0  0  0  0
  189.2990  174.0310  134.5930 C   0  0  0  0  0  3  0  0  0  0  0  0
  186.5810  176.1780  137.0190 C   0  0  0  0  0  0  0  0  0  0  0  0
  187.0110  177.9430  138.7090 C   0  0  0  0  0  3  0  0  0  0  0  0
  189.0320  178.0440  140.1060 C   0  0  0  0  0  0  0  0  0  0  0  0
  182.3370  174.3900  136.2260 C   0  0  0  0  0  0  0  0  0  0  0  0
  191.4360  175.7060  137.7670 O   0  0  0  0  0  0  0  0  0  0  0  0
  191.0850  176.4780  134.6090 C   0  0  0  0  0  1  0  0  0  0  0  0
  190.0120  177.5540  139.4150 N   0  0  0  0  0  0  0  0  0  0  0  0
  184.2660  175.3340  136.6940 C   0  0  0  0  0  0  0  0  0  0  0  0
  190.9980  176.6410  139.9630 C   0  0  0  0  0  2  0  0  0  0  0  0
  186.9130  174.1680  135.4570 C   0  0  0  0  0  0  0  0  0  0  0  0
  187.4240  177.1520  137.7110 C   0  0  0  0  0  3  0  0  0  0  0  0
  184.4280  174.2560  135.7340 C   0  0  0  0  0  0  0  0  0  0  0  0
  193.4370  175.5720  136.5100 C   0  0  0  0  0  0  0  0  0  0  0  0
  196.6090  171.8610  136.9760 C   0  0  2  0  0  3  0  0  0  0  0  0
  195.6910  174.6120  136.7210 C   0  0  2  0  0  3  0  0  0  0  0  0
  195.7560  173.6590  135.5470 C   0  0  0  0  0  0  0  0  0  0  0  0
  195.2190  172.1250  138.1210 S   0  0  0  0  0  0  0  0  0  0  0  0
  196.2400  172.3640  135.7020 O   0  0  0  0  0  0  0  0  0  0  0  0
  195.4420  174.0540  134.3890 O   0  0  0  0  0  0  0  0  0  0  0  0
  195.3690  173.9540  138.0820 C   0  0  1  0  0  3  0  0  0  0  0  0
  195.6030  175.4710  139.9540 O   0  0  0  0  0  1  0  0  0  0  0  0
  197.4340  175.0380  138.6510 O   0  0  0  0  0  1  0  0  0  0  0  0
  196.2610  174.5020  139.1950 C   0  0  0  0  0  3  0  0  0  0  0  0
  196.9890  170.3750  136.8960 C   0  0  1  0  0  3  0  0  0  0  0  0
  198.0820  170.0820  137.7130 O   0  0  0  0  0  1  0  0  0  0  0  0
  196.2600  168.3760  138.0270 O   0  0  0  0  0  1  0  0  0  0  0  0
  195.8310  169.4250  137.2070 C   0  0  2  0  0  3  0  0  0  0  0  0
  195.9210  168.3350  134.9190 N   0  0  0  0  0  1  0  0  0  0  0  0
  193.8870  168.9310  135.8810 O   0  0  0  0  0  0  0  0  0  0  0  0
  195.1470  168.8950  135.9810 C   0  0  0  0  0  0  0  0  0  0  0  0
  180.8820  174.0880  136.2310 C   0  0  0  0  0  2  0  0  0  0  0  0
  180.6850  171.9560  137.4770 C   0  0  0  0  0  1  0  0  0  0  0  0
  180.6500  172.5920  136.0990 C   0  0  0  0  0  2  0  0  0  0  0  0
  188.7830  177.6580  141.5380 C   0  0  0  0  0  2  0  0  0  0  0  0
  187.4330  177.8420  141.8740 O   0  0  0  0  0  0  0  0  0  0  0  0
  186.1890  177.6450  145.2690 O   0  0  0  0  0  0  0  0  0  0  0  0
  186.0010  177.6470  143.8640 C   0  0  2  0  0  3  0  0  0  0  0  0
  187.3140  178.1390  143.2550 C   0  0  1  0  0  3  0  0  0  0  0  0
  187.5170  177.6300  145.6610 C   0  0  0  0  0  0  0  0  0  0  0  0
  187.8470  177.6830  146.9090 N   0  0  0  0  0  2  0  0  0  0  0  0
  188.7240  177.7010  144.3520 S   0  0  0  0  0  0  0  0  0  0  0  0
  183.9950  178.1890  142.6840 O   0  0  0  0  0  0  0  0  0  0  0  0
  184.9370  179.9040  143.8850 O   0  0  0  0  0  1  0  0  0  0  0  0
  184.8880  178.5740  143.4850 C   0  0  0  0  0  0  0  0  0  0  0  0
  1 16  1  0  0  0  0
  5 26  2  0  0  0  0
  6 25  2  0  0  0  0
  6 17  1  0  0  0  0
  7 18  1  0  0  0  0
  8 23  2  0  0  0  0
  8 25  1  0  0  0  0
  9 14  2  0  0  0  0
 10 22  1  0  0  0  0
 11 19  1  1  0  0  0
 11  3  1  0  0  0  0
 11  7  1  0  0  0  0
 12 23  1  0  0  0  0
 13 12  1  0  0  0  0
 13  3  2  0  0  0  0
 14  4  1  0  0  0  0
 14 24  1  0  0  0  0
 15  1  1  0  0  0  0
 16 47  1  0  0  0  0
 17 44  1  0  0  0  0
 17  2  2  0  0  0  0
 18 10  1  0  0  0  0
 20 22  1  0  0  0  0
 20 16  2  0  0  0  0
 21  2  1  0  0  0  0
 21  4  2  0  0  0  0
 23  9  1  0  0  0  0
 24 15  2  0  0  0  0
 25 21  1  0  0  0  0
 26  7  2  0  0  0  0
 27 37  1  6  0  0  0
 27 30  1  0  0  0  0
 28  5  1  6  0  0  0
 28 33  1  0  0  0  0
 29 31  1  0  0  0  0
 29 28  1  0  0  0  0
 31 27  1  0  0  0  0
 32 29  2  0  0  0  0
 33 30  1  0  0  0  0
 33 36  1  1  0  0  0
 35 36  1  0  0  0  0
 36 34  1  0  0  0  0
 37 40  1  0  0  0  0
 37 38  1  1  0  0  0
 40 39  1  6  0  0  0
 41 43  1  0  0  0  0
 42 43  2  0  0  0  0
 43 40  1  0  0  0  0
 46 44  1  0  0  0  0
 46 45  1  0  0  0  0
 47 48  1  0  0  0  0
 49 52  1  0  0  0  0
 50 57  1  1  0  0  0
 50 49  1  0  0  0  0
 51 48  1  6  0  0  0
 51 50  1  0  0  0  0
 51 54  1  0  0  0  0
 52 53  2  0  0  0  0
 54 52  1  0  0  0  0
 55 57  2  0  0  0  0
 57 56  1  0  0  0  0
M  END
>  <MODEL>
2

>  <REMARK>
 VINA RESULT:      -7.0      1.747      2.489
  Name = 
  11 active torsions:
  status: ('A' for Active; 'I' for Inactive)
    1  A    between atoms: C_4  and  C_22
    2  A    between atoms: C_5  and  C_51
    3  A    between atoms: C_12  and  C_16
    4  A    between atoms: C_17  and  C_39
    5  A    between atoms: C_17  and  C_46
    6  A    between atoms: C_22  and  C_56
    7  A    between atoms: C_27  and  O_36
    8  A    between atoms: C_30  and  C_54
    9  A    between atoms: C_31  and  C_56
   10  A    between atoms: C_35  and  C_40
   11  A    between atoms: O_36  and  C_40
                            x       y       z     vdW  Elec       q    Type
                         _______ _______ _______ _____ _____    ______ ____

>  <TORSDO>
F 11

$$$$
=
 OpenBabel10232409033D

 57 61  0  0  1  0  0  0  0  0999 V2000
  188.1800  178.8160  138.1270 C   0  0  0  0  0  2  0  0  0  0  0  0
  182.4910  175.5090  137.7910 C   0  0  0  0  0  3  0  0  0  0  0  0
  189.2580  173.0080  136.1790 C   0  0  0  0  0  3  0  0  0  0  0  0
  184.8560  175.9850  137.4790 C   0  0  0  0  0  3  0  0  0  0  0  0
  194.0720  173.8610  135.9770 C   0  0  0  0  0  3  0  0  0  0  0  0
  182.4010  173.3500  137.0410 N   0  0  0  0  0  0  0  0  0  0  0  0
  191.5010  174.0340  136.4690 C   0  0  0  0  0  0  0  0  0  0  0  0
  184.7040  172.9240  136.5490 C   0  0  0  0  0  3  0  0  0  0  0  0
  186.6650  174.4570  136.7460 C   0  0  0  0  0  3  0  0  0  0  0  0
  191.8520  175.7080  138.2750 C   0  0  0  0  0  2  0  0  0  0  0  0
  190.5420  173.4010  135.5030 C   0  0  2  0  0  3  0  0  0  0  0  0
  186.9670  172.0480  136.1520 C   0  0  0  0  0  2  0  0  0  0  0  0
  188.2740  172.4110  135.4970 C   0  0  0  0  0  3  0  0  0  0  0  0
  186.1760  175.6920  137.1440 C   0  0  0  0  0  0  0  0  0  0  0  0
  187.0260  177.8780  137.9520 C   0  0  0  0  0  3  0  0  0  0  0  0
  189.2340  178.1970  138.9860 C   0  0  0  0  0  0  0  0  0  0  0  0
  181.7060  174.3890  137.5480 C   0  0  0  0  0  0  0  0  0  0  0  0
  191.0180  174.8200  137.5250 O   0  0  0  0  0  0  0  0  0  0  0  0
  190.2740  174.3890  134.3710 C   0  0  0  0  0  1  0  0  0  0  0  0
  190.0460  177.3420  138.4480 N   0  0  0  0  0  0  0  0  0  0  0  0
  183.7670  175.1420  137.4110 C   0  0  0  0  0  0  0  0  0  0  0  0
  191.0090  176.5670  139.2090 C   0  0  0  0  0  2  0  0  0  0  0  0
  186.0700  173.2160  136.4720 C   0  0  0  0  0  0  0  0  0  0  0  0
  187.2050  176.7180  137.3080 C   0  0  0  0  0  3  0  0  0  0  0  0
  183.6760  173.7710  136.9400 C   0  0  0  0  0  0  0  0  0  0  0  0
  192.7850  173.9260  136.2280 C   0  0  0  0  0  0  0  0  0  0  0  0
  197.3290  171.1830  136.9840 C   0  0  2  0  0  3  0  0  0  0  0  0
  194.9400  172.7930  136.5720 C   0  0  2  0  0  3  0  0  0  0  0  0
  196.2370  173.3730  137.0910 C   0  0  0  0  0  0  0  0  0  0  0  0
  196.7990  171.0140  135.2510 S   0  0  0  0  0  0  0  0  0  0  0  0
  197.3450  172.5620  137.3140 O   0  0  0  0  0  0  0  0  0  0  0  0
  196.3080  174.5950  137.4040 O   0  0  0  0  0  0  0  0  0  0  0  0
  195.0970  171.6180  135.5810 C   0  0  1  0  0  3  0  0  0  0  0  0
  194.3370  169.9400  137.1510 O   0  0  0  0  0  1  0  0  0  0  0  0
  194.2070  169.4910  134.9110 O   0  0  0  0  0  1  0  0  0  0  0  0
  194.1140  170.4890  135.8880 C   0  0  0  0  0  3  0  0  0  0  0  0
  198.7080  170.5430  137.2090 C   0  0  1  0  0  3  0  0  0  0  0  0
  199.6450  171.4850  137.6380 O   0  0  0  0  0  1  0  0  0  0  0  0
  199.8910  168.6450  138.1030 O   0  0  0  0  0  1  0  0  0  0  0  0
  198.6850  169.3500  138.1670 C   0  0  2  0  0  3  0  0  0  0  0  0
  196.6450  168.1180  139.0350 N   0  0  0  0  0  1  0  0  0  0  0  0
  197.2950  167.9360  136.8070 O   0  0  0  0  0  0  0  0  0  0  0  0
  197.5190  168.4310  137.9480 C   0  0  0  0  0  0  0  0  0  0  0  0
  180.2460  174.3310  137.8170 C   0  0  0  0  0  2  0  0  0  0  0  0
  179.9820  174.7900  140.2360 C   0  0  0  0  0  1  0  0  0  0  0  0
  179.9820  173.7050  139.1760 C   0  0  0  0  0  2  0  0  0  0  0  0
  189.1660  178.4200  140.4710 C   0  0  0  0  0  2  0  0  0  0  0  0
  188.2310  177.5560  141.0610 O   0  0  0  0  0  0  0  0  0  0  0  0
  186.7140  177.5790  144.3480 O   0  0  0  0  0  0  0  0  0  0  0  0
  186.6370  177.5240  142.9350 C   0  0  2  0  0  3  0  0  0  0  0  0
  188.0180  177.9230  142.4140 C   0  0  1  0  0  3  0  0  0  0  0  0
  188.0030  177.5190  144.8470 C   0  0  0  0  0  0  0  0  0  0  0  0
  188.2360  177.6150  146.1150 N   0  0  0  0  0  2  0  0  0  0  0  0
  189.3120  177.4710  143.6400 S   0  0  0  0  0  0  0  0  0  0  0  0
  185.9570  179.4530  141.7000 O   0  0  0  0  0  0  0  0  0  0  0  0
  184.3020  178.3990  142.8920 O   0  0  0  0  0  1  0  0  0  0  0  0
  185.6080  178.4840  142.4260 C   0  0  0  0  0  0  0  0  0  0  0  0
  1 16  1  0  0  0  0
  5 26  2  0  0  0  0
  6 17  2  0  0  0  0
  7 18  1  0  0  0  0
  8 25  2  0  0  0  0
  9 14  1  0  0  0  0
 10 22  1  0  0  0  0
 11 19  1  6  0  0  0
 11  3  1  0  0  0  0
 11  7  1  0  0  0  0
 12 23  1  0  0  0  0
 13 12  1  0  0  0  0
 13  3  2  0  0  0  0
 14 24  1  0  0  0  0
 14  4  2  0  0  0  0
 15  1  1  0  0  0  0
 16 47  1  0  0  0  0
 17  2  1  0  0  0  0
 17 44  1  0  0  0  0
 18 10  1  0  0  0  0
 20 16  2  0  0  0  0
 20 22  1  0  0  0  0
 21  4  1  0  0  0  0
 21  2  2  0  0  0  0
 23  8  1  0  0  0  0
 23  9  2  0  0  0  0
 24 15  2  0  0  0  0
 25  6  1  0  0  0  0
 25 21  1  0  0  0  0
 26  7  2  0  0  0  0
 27 37  1  6  0  0  0
 27 31  1  0  0  0  0
 28  5  1  6  0  0  0
 28 29  1  0  0  0  0
 29 31  1  0  0  0  0
 29 32  2  0  0  0  0
 30 33  1  0  0  0  0
 30 27  1  0  0  0  0
 33 36  1  1  0  0  0
 33 28  1  0  0  0  0
 35 36  1  0  0  0  0
 36 34  1  0  0  0  0
 37 38  1  1  0  0  0
 37 40  1  0  0  0  0
 40 39  1  6  0  0  0
 42 43  2  0  0  0  0
 43 40  1  0  0  0  0
 43 41  1  0  0  0  0
 44 46  1  0  0  0  0
 46 45  1  0  0  0  0
 47 48  1  0  0  0  0
 49 52  1  0  0  0  0
 50 57  1  6  0  0  0
 50 49  1  0  0  0  0
 51 48  1  6  0  0  0
 51 50  1  0  0  0  0
 51 54  1  0  0  0  0
 52 53  2  0  0  0  0
 54 52  1  0  0  0  0
 55 57  2  0  0  0  0
 57 56  1  0  0  0  0
M  END
>  <MODEL>
3

>  <REMARK>
 VINA RESULT:      -7.0      1.878      2.802
  Name = 
  11 active torsions:
  status: ('A' for Active; 'I' for Inactive)
    1  A    between atoms: C_4  and  C_22
    2  A    between atoms: C_5  and  C_51
    3  A    between atoms: C_12  and  C_16
    4  A    between atoms: C_17  and  C_39
    5  A    between atoms: C_17  and  C_46
    6  A    between atoms: C_22  and  C_56
    7  A    between atoms: C_27  and  O_36
    8  A    between atoms: C_30  and  C_54
    9  A    between atoms: C_31  and  C_56
   10  A    between atoms: C_35  and  C_40
   11  A    between atoms: O_36  and  C_40
                            x       y       z     vdW  Elec       q    Type
                         _______ _______ _______ _____ _____    ______ ____

>  <TORSDO>
F 11

$$$$
=
 OpenBabel10232409033D

 57 61  0  0  1  0  0  0  0  0999 V2000
  188.5480  178.7600  139.8650 C   0  0  0  0  0  2  0  0  0  0  0  0
  183.0520  175.9190  137.5980 C   0  0  0  0  0  3  0  0  0  0  0  0
  189.9830  174.8020  135.2860 C   0  0  0  0  0  3  0  0  0  0  0  0
  185.3970  176.5600  137.6950 C   0  0  0  0  0  3  0  0  0  0  0  0
  194.7500  175.7830  135.7960 C   0  0  0  0  0  3  0  0  0  0  0  0
  183.0960  174.4460  135.8480 N   0  0  0  0  0  0  0  0  0  0  0  0
  192.1600  175.6020  136.1740 C   0  0  0  0  0  0  0  0  0  0  0  0
  185.4320  174.4020  135.3270 C   0  0  0  0  0  3  0  0  0  0  0  0
  187.3030  175.6770  136.3790 C   0  0  0  0  0  3  0  0  0  0  0  0
  192.3710  176.1270  138.5970 C   0  0  0  0  0  2  0  0  0  0  0  0
  191.2640  175.5240  134.9730 C   0  0  2  0  0  3  0  0  0  0  0  0
  187.7480  173.9220  134.6570 C   0  0  0  0  0  2  0  0  0  0  0  0
  189.0530  174.6080  134.3460 C   0  0  0  0  0  3  0  0  0  0  0  0
  186.7390  176.5190  137.3250 C   0  0  0  0  0  0  0  0  0  0  0  0
  187.4490  178.0090  139.1770 C   0  0  0  0  0  3  0  0  0  0  0  0
  189.6070  177.8210  140.3410 C   0  0  0  0  0  0  0  0  0  0  0  0
  182.3340  175.0580  136.7780 C   0  0  0  0  0  0  0  0  0  0  0  0
  191.6070  175.7220  137.4570 O   0  0  0  0  0  0  0  0  0  0  0  0
  190.9770  176.9430  134.4900 C   0  0  0  0  0  1  0  0  0  0  0  0
  190.4780  177.3870  139.4850 N   0  0  0  0  0  0  0  0  0  0  0  0
  184.3550  175.8370  137.1500 C   0  0  0  0  0  0  0  0  0  0  0  0
  191.4580  176.3610  139.7930 C   0  0  0  0  0  2  0  0  0  0  0  0
  186.7820  174.7330  135.4800 C   0  0  0  0  0  0  0  0  0  0  0  0
  187.7070  177.3470  138.0420 C   0  0  0  0  0  3  0  0  0  0  0  0
  184.3490  174.8980  136.0420 C   0  0  0  0  0  0  0  0  0  0  0  0
  193.4540  175.6720  135.9780 C   0  0  0  0  0  0  0  0  0  0  0  0
  196.4960  171.8510  136.3270 C   0  0  2  0  0  3  0  0  0  0  0  0
  195.6550  174.5880  135.8060 C   0  0  2  0  0  3  0  0  0  0  0  0
  194.9820  173.3910  135.1700 C   0  0  0  0  0  0  0  0  0  0  0  0
  196.0850  172.6490  137.9100 S   0  0  0  0  0  0  0  0  0  0  0  0
  195.4410  172.1000  135.4130 O   0  0  0  0  0  0  0  0  0  0  0  0
  194.0390  173.5550  134.3460 O   0  0  0  0  0  0  0  0  0  0  0  0
  196.2100  174.3500  137.2290 C   0  0  1  0  0  3  0  0  0  0  0  0
  198.3410  174.8890  136.2160 O   0  0  0  0  0  1  0  0  0  0  0  0
  198.2890  174.3070  138.4280 O   0  0  0  0  0  1  0  0  0  0  0  0
  197.6020  174.9570  137.3970 C   0  0  0  0  0  3  0  0  0  0  0  0
  196.7270  170.3430  136.5080 C   0  0  1  0  0  3  0  0  0  0  0  0
  198.0860  170.0420  136.6100 O   0  0  0  0  0  1  0  0  0  0  0  0
  196.7730  168.8350  138.3870 O   0  0  0  0  0  1  0  0  0  0  0  0
  195.9660  169.7410  137.6920 C   0  0  2  0  0  3  0  0  0  0  0  0
  194.2430  169.1200  135.9370 N   0  0  0  0  0  1  0  0  0  0  0  0
  193.9370  168.5430  138.1710 O   0  0  0  0  0  0  0  0  0  0  0  0
  194.6640  169.1040  137.3020 C   0  0  0  0  0  0  0  0  0  0  0  0
  180.8720  174.8260  136.9050 C   0  0  0  0  0  2  0  0  0  0  0  0
  180.3830  172.5440  137.7320 C   0  0  0  0  0  1  0  0  0  0  0  0
  180.5710  173.9930  138.1400 C   0  0  0  0  0  2  0  0  0  0  0  0
  189.4850  177.2510  141.7270 C   0  0  0  0  0  2  0  0  0  0  0  0
  188.4660  177.8970  142.4420 O   0  0  0  0  0  0  0  0  0  0  0  0
  188.5030  176.8930  145.9200 O   0  0  0  0  0  0  0  0  0  0  0  0
  187.8460  177.0870  144.6800 C   0  0  2  0  0  3  0  0  0  0  0  0
  188.7870  177.9320  143.8220 C   0  0  1  0  0  3  0  0  0  0  0  0
  189.8730  177.0860  145.8700 C   0  0  0  0  0  0  0  0  0  0  0  0
  190.6010  177.0000  146.9330 N   0  0  0  0  0  2  0  0  0  0  0  0
  190.5350  177.6180  144.3030 S   0  0  0  0  0  0  0  0  0  0  0  0
  186.0070  178.4030  143.9070 O   0  0  0  0  0  0  0  0  0  0  0  0
  186.0500  177.9810  146.1640 O   0  0  0  0  0  1  0  0  0  0  0  0
  186.5530  177.8150  144.8800 C   0  0  0  0  0  0  0  0  0  0  0  0
  1 16  1  0  0  0  0
  5 26  2  0  0  0  0
  6 25  2  0  0  0  0
  6 17  1  0  0  0  0
  7 18  1  0  0  0  0
  8 23  2  0  0  0  0
  8 25  1  0  0  0  0
  9 14  2  0  0  0  0
 10 22  1  0  0  0  0
 11 19  1  1  0  0  0
 11  3  1  0  0  0  0
 11  7  1  0  0  0  0
 12 23  1  0  0  0  0
 13 12  1  0  0  0  0
 13  3  2  0  0  0  0
 14  4  1  0  0  0  0
 14 24  1  0  0  0  0
 15  1  1  0  0  0  0
 16 47  1  0  0  0  0
 17 44  1  0  0  0  0
 17  2  2  0  0  0  0
 18 10  1  0  0  0  0
 20 22  1  0  0  0  0
 20 16  2  0  0  0  0
 21  2  1  0  0  0  0
 21  4  2  0  0  0  0
 23  9  1  0  0  0  0
 24 15  2  0  0  0  0
 25 21  1  0  0  0  0
 26  7  2  0  0  0  0
 27 37  1  1  0  0  0
 27 30  1  0  0  0  0
 28  5  1  1  0  0  0
 28 33  1  0  0  0  0
 29 31  1  0  0  0  0
 29 28  1  0  0  0  0
 31 27  1  0  0  0  0
 32 29  2  0  0  0  0
 33 36  1  6  0  0  0
 33 30  1  0  0  0  0
 34 36  1  0  0  0  0
 36 35  1  0  0  0  0
 37 38  1  1  0  0  0
 37 40  1  0  0  0  0
 40 39  1  6  0  0  0
 41 43  1  0  0  0  0
 43 40  1  0  0  0  0
 43 42  2  0  0  0  0
 44 46  1  0  0  0  0
 45 46  1  0  0  0  0
 47 48  1  0  0  0  0
 50 57  1  1  0  0  0
 50 49  1  0  0  0  0
 51 48  1  6  0  0  0
 51 54  1  0  0  0  0
 51 50  1  0  0  0  0
 52 49  1  0  0  0  0
 52 53  2  0  0  0  0
 54 52  1  0  0  0  0
 55 57  2  0  0  0  0
 57 56  1  0  0  0  0
M  END
>  <MODEL>
4

>  <REMARK>
 VINA RESULT:      -6.2      1.920      2.606
  Name = 
  11 active torsions:
  status: ('A' for Active; 'I' for Inactive)
    1  A    between atoms: C_4  and  C_22
    2  A    between atoms: C_5  and  C_51
    3  A    between atoms: C_12  and  C_16
    4  A    between atoms: C_17  and  C_39
    5  A    between atoms: C_17  and  C_46
    6  A    between atoms: C_22  and  C_56
    7  A    between atoms: C_27  and  O_36
    8  A    between atoms: C_30  and  C_54
    9  A    between atoms: C_31  and  C_56
   10  A    between atoms: C_35  and  C_40
   11  A    between atoms: O_36  and  C_40
                            x       y       z     vdW  Elec       q    Type
                         _______ _______ _______ _____ _____    ______ ____

>  <TORSDO>
F 11

$$$$
=
 OpenBabel10232409033D

 57 61  0  0  1  0  0  0  0  0999 V2000
  187.9890  178.8020  139.6530 C   0  0  0  0  0  2  0  0  0  0  0  0
  182.7750  175.6940  137.0910 C   0  0  0  0  0  3  0  0  0  0  0  0
  189.8940  174.7380  135.3460 C   0  0  0  0  0  3  0  0  0  0  0  0
  185.0840  176.4190  137.3380 C   0  0  0  0  0  3  0  0  0  0  0  0
  194.5740  175.9020  136.1720 C   0  0  0  0  0  3  0  0  0  0  0  0
  182.9990  174.1630  135.4060 N   0  0  0  0  0  0  0  0  0  0  0  0
  191.9700  175.6450  136.3620 C   0  0  0  0  0  0  0  0  0  0  0  0
  185.3680  174.1820  135.0620 C   0  0  0  0  0  3  0  0  0  0  0  0
  187.1120  175.5580  136.2020 C   0  0  0  0  0  3  0  0  0  0  0  0
  191.9800  176.2610  138.7730 C   0  0  0  0  0  2  0  0  0  0  0  0
  191.1700  175.4930  135.1020 C   0  0  2  0  0  3  0  0  0  0  0  0
  187.7420  173.7590  134.5850 C   0  0  0  0  0  2  0  0  0  0  0  0
  189.0440  174.4790  134.3470 C   0  0  0  0  0  3  0  0  0  0  0  0
  186.4510  176.4120  137.0710 C   0  0  0  0  0  0  0  0  0  0  0  0
  186.9710  177.9900  138.9140 C   0  0  0  0  0  3  0  0  0  0  0  0
  189.0390  177.9180  140.2410 C   0  0  0  0  0  0  0  0  0  0  0  0
  182.1490  174.7810  136.2520 C   0  0  0  0  0  0  0  0  0  0  0  0
  191.3180  175.7900  137.5960 O   0  0  0  0  0  0  0  0  0  0  0  0
  190.8760  176.8840  134.5460 C   0  0  0  0  0  1  0  0  0  0  0  0
  189.9860  177.4850  139.4700 N   0  0  0  0  0  0  0  0  0  0  0  0
  184.1100  175.6420  136.7440 C   0  0  0  0  0  0  0  0  0  0  0  0
  190.9720  176.5050  139.8880 C   0  0  0  0  0  2  0  0  0  0  0  0
  186.6910  174.5650  135.3030 C   0  0  0  0  0  0  0  0  0  0  0  0
  187.3350  177.2980  137.8270 C   0  0  0  0  0  3  0  0  0  0  0  0
  184.2190  174.6650  135.6750 C   0  0  0  0  0  0  0  0  0  0  0  0
  193.2730  175.7530  136.2620 C   0  0  0  0  0  0  0  0  0  0  0  0
  197.5050  172.7870  135.4650 C   0  0  2  0  0  3  0  0  0  0  0  0
  195.5140  174.7400  136.2950 C   0  0  2  0  0  3  0  0  0  0  0  0
  196.9160  175.1290  135.8790 C   0  0  0  0  0  0  0  0  0  0  0  0
  196.0360  172.6140  134.4050 S   0  0  0  0  0  0  0  0  0  0  0  0
  197.8520  174.1610  135.5280 O   0  0  0  0  0  0  0  0  0  0  0  0
  197.2800  176.3380  135.9180 O   0  0  0  0  0  0  0  0  0  0  0  0
  194.9330  173.5040  135.5730 C   0  0  1  0  0  3  0  0  0  0  0  0
  194.8370  171.3200  136.6100 O   0  0  0  0  0  1  0  0  0  0  0  0
  192.8780  172.4190  136.1750 O   0  0  0  0  0  1  0  0  0  0  0  0
  194.2190  172.5690  136.5470 C   0  0  0  0  0  3  0  0  0  0  0  0
  198.6760  171.9440  134.9350 C   0  0  1  0  0  3  0  0  0  0  0  0
  199.8960  172.5970  135.1090 O   0  0  0  0  0  1  0  0  0  0  0  0
  198.2200  169.5970  134.6390 O   0  0  0  0  0  1  0  0  0  0  0  0
  198.7420  170.5370  135.5330 C   0  0  2  0  0  3  0  0  0  0  0  0
  197.1810  169.3420  137.1350 N   0  0  0  0  0  1  0  0  0  0  0  0
  198.3030  171.2780  137.7770 O   0  0  0  0  0  0  0  0  0  0  0  0
  198.0750  170.4260  136.8730 C   0  0  0  0  0  0  0  0  0  0  0  0
  180.6890  174.5030  136.2780 C   0  0  0  0  0  2  0  0  0  0  0  0
  180.4350  172.4170  137.5890 C   0  0  0  0  0  1  0  0  0  0  0  0
  180.4320  173.0080  136.1910 C   0  0  0  0  0  2  0  0  0  0  0  0
  188.8310  177.3930  141.6350 C   0  0  0  0  0  2  0  0  0  0  0  0
  187.5660  177.7590  142.1200 O   0  0  0  0  0  0  0  0  0  0  0  0
  186.7620  177.5460  145.6430 O   0  0  0  0  0  0  0  0  0  0  0  0
  186.3940  177.5860  144.2750 C   0  0  2  0  0  3  0  0  0  0  0  0
  187.6390  178.0320  143.5080 C   0  0  1  0  0  3  0  0  0  0  0  0
  188.1260  177.4640  145.8590 C   0  0  0  0  0  0  0  0  0  0  0  0
  188.6170  177.4760  147.0550 N   0  0  0  0  0  2  0  0  0  0  0  0
  189.1570  177.5090  144.4070 S   0  0  0  0  0  0  0  0  0  0  0  0
  184.9400  179.3410  144.9910 O   0  0  0  0  0  1  0  0  0  0  0  0
  184.5370  178.5100  142.8890 O   0  0  0  0  0  0  0  0  0  0  0  0
  185.2870  178.5680  144.0580 C   0  0  0  0  0  0  0  0  0  0  0  0
  1 16  1  0  0  0  0
  5 26  2  0  0  0  0
  6 25  2  0  0  0  0
  6 17  1  0  0  0  0
  7 18  1  0  0  0  0
  8 23  2  0  0  0  0
  8 25  1  0  0  0  0
  9 14  2  0  0  0  0
 10 22  1  0  0  0  0
 11 19  1  1  0  0  0
 11  3  1  0  0  0  0
 11  7  1  0  0  0  0
 12 23  1  0  0  0  0
 13 12  1  0  0  0  0
 13  3  2  0  0  0  0
 14  4  1  0  0  0  0
 14 24  1  0  0  0  0
 15  1  1  0  0  0  0
 16 47  1  0  0  0  0
 17 44  1  0  0  0  0
 17  2  2  0  0  0  0
 18 10  1  0  0  0  0
 20 22  1  0  0  0  0
 20 16  2  0  0  0  0
 21  2  1  0  0  0  0
 21  4  2  0  0  0  0
 23  9  1  0  0  0  0
 24 15  2  0  0  0  0
 25 21  1  0  0  0  0
 26  7  2  0  0  0  0
 27 37  1  6  0  0  0
 27 31  1  0  0  0  0
 28  5  1  6  0  0  0
 29 32  2  0  0  0  0
 29 28  1  0  0  0  0
 30 27  1  0  0  0  0
 30 33  1  0  0  0  0
 31 29  1  0  0  0  0
 33 28  1  0  0  0  0
 33 36  1  1  0  0  0
 35 36  1  0  0  0  0
 36 34  1  0  0  0  0
 37 38  1  1  0  0  0
 37 40  1  0  0  0  0
 40 39  1  6  0  0  0
 40 43  1  0  0  0  0
 43 41  1  0  0  0  0
 43 42  2  0  0  0  0
 46 44  1  0  0  0  0
 46 45  1  0  0  0  0
 47 48  1  0  0  0  0
 49 52  1  0  0  0  0
 50 57  1  1  0  0  0
 50 49  1  0  0  0  0
 51 48  1  6  0  0  0
 51 50  1  0  0  0  0
 51 54  1  0  0  0  0
 52 53  2  0  0  0  0
 54 52  1  0  0  0  0
 56 57  2  0  0  0  0
 57 55  1  0  0  0  0
M  END
>  <MODEL>
5

>  <REMARK>
 VINA RESULT:      -6.0      2.000      2.748
  Name = 
  11 active torsions:
  status: ('A' for Active; 'I' for Inactive)
    1  A    between atoms: C_4  and  C_22
    2  A    between atoms: C_5  and  C_51
    3  A    between atoms: C_12  and  C_16
    4  A    between atoms: C_17  and  C_39
    5  A    between atoms: C_17  and  C_46
    6  A    between atoms: C_22  and  C_56
    7  A    between atoms: C_27  and  O_36
    8  A    between atoms: C_30  and  C_54
    9  A    between atoms: C_31  and  C_56
   10  A    between atoms: C_35  and  C_40
   11  A    between atoms: O_36  and  C_40
                            x       y       z     vdW  Elec       q    Type
                         _______ _______ _______ _____ _____    ______ ____

>  <TORSDO>
F 11

$$$$
=
 OpenBabel10232409033D

 57 61  0  0  1  0  0  0  0  0999 V2000
  190.4990  176.1720  141.6700 C   0  0  0  0  0  2  0  0  0  0  0  0
  195.1840  175.7800  137.0540 C   0  0  0  0  0  3  0  0  0  0  0  0
  187.9540  176.9500  136.0480 C   0  0  0  0  0  3  0  0  0  0  0  0
  192.9490  175.8890  138.0110 C   0  0  0  0  0  3  0  0  0  0  0  0
  183.5280  177.6030  138.0300 C   0  0  0  0  0  3  0  0  0  0  0  0
  194.6870  175.9280  134.8250 N   0  0  0  0  0  0  0  0  0  0  0  0
  186.1140  177.3520  137.6670 C   0  0  0  0  0  0  0  0  0  0  0  0
  192.3120  176.2110  134.8880 C   0  0  0  0  0  3  0  0  0  0  0  0
  190.7850  176.2660  136.8630 C   0  0  0  0  0  3  0  0  0  0  0  0
  186.6310  178.3950  139.8660 C   0  0  0  0  0  2  0  0  0  0  0  0
  186.6000  176.5070  136.5250 C   0  0  2  0  0  3  0  0  0  0  0  0
  189.9340  176.7450  134.5620 C   0  0  0  0  0  2  0  0  0  0  0  0
  188.5590  176.3370  135.0250 C   0  0  0  0  0  3  0  0  0  0  0  0
  191.5630  176.0240  137.9840 C   0  0  0  0  0  0  0  0  0  0  0  0
  191.3730  176.1000  140.4570 C   0  0  0  0  0  3  0  0  0  0  0  0
  189.6940  177.4300  141.6640 C   0  0  0  0  0  0  0  0  0  0  0  0
  195.6620  175.8080  135.7500 C   0  0  0  0  0  0  0  0  0  0  0  0
  187.0280  177.8710  138.5960 O   0  0  0  0  0  0  0  0  0  0  0  0
  186.6400  175.0520  136.9850 C   0  0  0  0  0  1  0  0  0  0  0  0
  188.6290  177.4790  140.9290 N   0  0  0  0  0  0  0  0  0  0  0  0
  193.8120  175.8920  136.9350 C   0  0  0  0  0  0  0  0  0  0  0  0
  187.8530  178.6890  140.7260 C   0  0  0  0  0  2  0  0  0  0  0  0
  191.0570  176.3600  135.4890 C   0  0  0  0  0  0  0  0  0  0  0  0
  190.8170  176.0210  139.2410 C   0  0  0  0  0  3  0  0  0  0  0  0
  193.5310  175.9830  135.5120 C   0  0  0  0  0  0  0  0  0  0  0  0
  184.8210  177.4900  137.8300 C   0  0  0  0  0  0  0  0  0  0  0  0
  180.8790  180.9920  137.4890 C   0  0  2  0  0  3  0  0  0  0  0  0
  182.7420  178.7560  137.4820 C   0  0  2  0  0  3  0  0  0  0  0  0
  182.9710  180.0080  138.3000 C   0  0  0  0  0  0  0  0  0  0  0  0
  179.9880  179.4840  137.9850 S   0  0  0  0  0  0  0  0  0  0  0  0
  182.0770  181.0720  138.2440 O   0  0  0  0  0  0  0  0  0  0  0  0
  184.0220  180.1350  138.9890 O   0  0  0  0  0  0  0  0  0  0  0  0
  181.2610  178.3540  137.2970 C   0  0  1  0  0  3  0  0  0  0  0  0
  181.0350  176.5500  135.7010 O   0  0  0  0  0  1  0  0  0  0  0  0
  181.8670  178.5570  134.9830 O   0  0  0  0  0  1  0  0  0  0  0  0
  180.9690  177.9340  135.8580 C   0  0  0  0  0  3  0  0  0  0  0  0
  180.0100  182.2430  137.6930 C   0  0  1  0  0  3  0  0  0  0  0  0
  180.3590  182.9230  138.8610 O   0  0  0  0  0  1  0  0  0  0  0  0
  180.5790  182.5840  135.3770 O   0  0  0  0  0  1  0  0  0  0  0  0
  180.0240  183.2030  136.5020 C   0  0  2  0  0  3  0  0  0  0  0  0
  180.0190  185.7370  136.6170 N   0  0  0  0  0  1  0  0  0  0  0  0
  181.9150  184.5170  137.1940 O   0  0  0  0  0  0  0  0  0  0  0  0
  180.7180  184.5030  136.7900 C   0  0  0  0  0  0  0  0  0  0  0  0
  197.1030  175.7170  135.3990 C   0  0  0  0  0  2  0  0  0  0  0  0
  197.1520  173.2600  135.0950 C   0  0  0  0  0  1  0  0  0  0  0  0
  197.6940  174.4160  135.9150 C   0  0  0  0  0  2  0  0  0  0  0  0
  190.2710  178.6490  142.3310 C   0  0  0  0  0  2  0  0  0  0  0  0
  189.4890  179.0300  143.4320 O   0  0  0  0  0  0  0  0  0  0  0  0
  189.9450  176.5000  145.9810 O   0  0  0  0  0  0  0  0  0  0  0  0
  189.1400  177.2310  145.0730 C   0  0  2  0  0  3  0  0  0  0  0  0
  189.9830  178.4200  144.6120 C   0  0  1  0  0  3  0  0  0  0  0  0
  191.3010  176.7520  145.8640 C   0  0  0  0  0  0  0  0  0  0  0  0
  192.1560  176.2020  146.6620 N   0  0  0  0  0  2  0  0  0  0  0  0
  191.7700  177.9890  144.6710 S   0  0  0  0  0  0  0  0  0  0  0  0
  186.8680  177.9720  145.0670 O   0  0  0  0  0  0  0  0  0  0  0  0
  187.9390  178.0600  147.0960 O   0  0  0  0  0  1  0  0  0  0  0  0
  187.8980  177.7230  145.7490 C   0  0  0  0  0  0  0  0  0  0  0  0
  3 11  1  0  0  0  0
  6 25  2  0  0  0  0
  6 17  1  0  0  0  0
  7 26  2  0  0  0  0
  7 18  1  0  0  0  0
  8 23  2  0  0  0  0
  8 25  1  0  0  0  0
  9 14  2  0  0  0  0
 10 22  1  0  0  0  0
 11 19  1  1  0  0  0
 11  7  1  0  0  0  0
 12 13  1  0  0  0  0
 12 23  1  0  0  0  0
 13  3  2  0  0  0  0
 14  4  1  0  0  0  0
 14 24  1  0  0  0  0
 15  1  1  0  0  0  0
 16  1  1  0  0  0  0
 16 47  1  0  0  0  0
 17  2  2  0  0  0  0
 18 10  1  0  0  0  0
 20 16  2  0  0  0  0
 21  2  1  0  0  0  0
 21  4  2  0  0  0  0
 22 20  1  0  0  0  0
 23  9  1  0  0  0  0
 24 15  2  0  0  0  0
 25 21  1  0  0  0  0
 26  5  2  0  0  0  0
 27 37  1  1  0  0  0
 27 30  1  0  0  0  0
 27 31  1  0  0  0  0
 28  5  1  1  0  0  0
 28 29  1  0  0  0  0
 29 32  2  0  0  0  0
 31 29  1  0  0  0  0
 33 36  1  6  0  0  0
 33 28  1  0  0  0  0
 33 30  1  0  0  0  0
 34 36  1  0  0  0  0
 35 36  1  0  0  0  0
 37 38  1  1  0  0  0
 40 39  1  6  0  0  0
 40 43  1  0  0  0  0
 40 37  1  0  0  0  0
 41 43  1  0  0  0  0
 43 42  2  0  0  0  0
 44 17  1  0  0  0  0
 44 46  1  0  0  0  0
 45 46  1  0  0  0  0
 47 48  1  0  0  0  0
 50 57  1  1  0  0  0
 50 49  1  0  0  0  0
 51 48  1  6  0  0  0
 51 54  1  0  0  0  0
 51 50  1  0  0  0  0
 52 49  1  0  0  0  0
 52 53  2  0  0  0  0
 54 52  1  0  0  0  0
 55 57  2  0  0  0  0
 57 56  1  0  0  0  0
M  END
>  <MODEL>
6

>  <REMARK>
 VINA RESULT:      -5.9      5.440     12.364
  Name = 
  11 active torsions:
  status: ('A' for Active; 'I' for Inactive)
    1  A    between atoms: C_4  and  C_22
    2  A    between atoms: C_5  and  C_51
    3  A    between atoms: C_12  and  C_16
    4  A    between atoms: C_17  and  C_39
    5  A    between atoms: C_17  and  C_46
    6  A    between atoms: C_22  and  C_56
    7  A    between atoms: C_27  and  O_36
    8  A    between atoms: C_30  and  C_54
    9  A    between atoms: C_31  and  C_56
   10  A    between atoms: C_35  and  C_40
   11  A    between atoms: O_36  and  C_40
                            x       y       z     vdW  Elec       q    Type
                         _______ _______ _______ _____ _____    ______ ____

>  <TORSDO>
F 11

$$$$
=
 OpenBabel10232409033D

 57 61  0  0  1  0  0  0  0  0999 V2000
  188.2050  178.8660  139.8920 C   0  0  0  0  0  2  0  0  0  0  0  0
  182.7410  176.6240  136.9720 C   0  0  0  0  0  3  0  0  0  0  0  0
  189.7180  174.5610  135.6640 C   0  0  0  0  0  3  0  0  0  0  0  0
  185.1150  176.9750  137.3710 C   0  0  0  0  0  3  0  0  0  0  0  0
  194.4610  174.9710  136.7950 C   0  0  0  0  0  3  0  0  0  0  0  0
  182.8280  175.0800  135.2860 N   0  0  0  0  0  0  0  0  0  0  0  0
  191.8420  175.1270  136.8190 C   0  0  0  0  0  0  0  0  0  0  0  0
  185.1880  174.7260  135.0910 C   0  0  0  0  0  3  0  0  0  0  0  0
  187.0500  175.8070  136.3540 C   0  0  0  0  0  3  0  0  0  0  0  0
  191.7950  175.7290  139.2330 C   0  0  0  0  0  2  0  0  0  0  0  0
  191.1100  175.1050  135.5090 C   0  0  2  0  0  3  0  0  0  0  0  0
  187.4910  173.9350  134.7590 C   0  0  0  0  0  2  0  0  0  0  0  0
  188.9030  174.4410  134.6110 C   0  0  0  0  0  3  0  0  0  0  0  0
  186.4780  176.7540  137.1900 C   0  0  0  0  0  0  0  0  0  0  0  0
  187.1210  178.2260  139.0810 C   0  0  0  0  0  3  0  0  0  0  0  0
  189.0640  177.8260  140.5340 C   0  0  0  0  0  0  0  0  0  0  0  0
  182.0340  175.8220  136.0850 C   0  0  0  0  0  0  0  0  0  0  0  0
  191.1440  175.3710  138.0110 O   0  0  0  0  0  0  0  0  0  0  0  0
  191.0740  176.5270  134.9530 C   0  0  0  0  0  1  0  0  0  0  0  0
  189.9780  177.2510  139.8180 N   0  0  0  0  0  0  0  0  0  0  0  0
  184.0710  176.3630  136.7090 C   0  0  0  0  0  0  0  0  0  0  0  0
  190.7690  176.1270  140.2860 C   0  0  0  0  0  2  0  0  0  0  0  0
  186.5370  174.8950  135.4190 C   0  0  0  0  0  0  0  0  0  0  0  0
  187.4410  177.4880  138.0110 C   0  0  0  0  0  3  0  0  0  0  0  0
  184.0920  175.3820  135.6370 C   0  0  0  0  0  0  0  0  0  0  0  0
  193.1490  175.0280  136.8010 C   0  0  0  0  0  0  0  0  0  0  0  0
  197.4370  171.8200  136.8810 C   0  0  2  0  0  3  0  0  0  0  0  0
  195.1960  173.6760  136.9630 C   0  0  2  0  0  3  0  0  0  0  0  0
  196.4440  173.8640  137.7980 C   0  0  0  0  0  0  0  0  0  0  0  0
  197.1210  172.4330  135.1960 S   0  0  0  0  0  0  0  0  0  0  0  0
  197.4760  172.9310  137.7610 O   0  0  0  0  0  0  0  0  0  0  0  0
  196.5330  174.8340  138.6020 O   0  0  0  0  0  0  0  0  0  0  0  0
  195.4210  173.0060  135.5890 C   0  0  1  0  0  3  0  0  0  0  0  0
  193.2820  172.4840  134.5840 O   0  0  0  0  0  1  0  0  0  0  0  0
  193.8990  171.3850  136.4940 O   0  0  0  0  0  1  0  0  0  0  0  0
  194.3560  171.9510  135.2980 C   0  0  0  0  0  3  0  0  0  0  0  0
  198.7460  171.0170  136.9430 C   0  0  1  0  0  3  0  0  0  0  0  0
  199.8430  171.8450  137.1780 O   0  0  0  0  0  1  0  0  0  0  0  0
  200.0180  169.4440  138.2510 O   0  0  0  0  0  1  0  0  0  0  0  0
  198.7200  169.8760  137.9630 C   0  0  2  0  0  3  0  0  0  0  0  0
  197.9530  168.2020  136.2190 N   0  0  0  0  0  1  0  0  0  0  0  0
  197.0460  168.1980  138.3630 O   0  0  0  0  0  0  0  0  0  0  0  0
  197.8560  168.7220  137.5460 C   0  0  0  0  0  0  0  0  0  0  0  0
  180.5500  175.7780  136.0160 C   0  0  0  0  0  2  0  0  0  0  0  0
  180.8260  174.1810  137.8890 C   0  0  0  0  0  1  0  0  0  0  0  0
  180.0290  174.4920  136.6360 C   0  0  0  0  0  2  0  0  0  0  0  0
  188.6870  177.3380  141.9060 C   0  0  0  0  0  2  0  0  0  0  0  0
  189.3030  178.1170  142.8970 O   0  0  0  0  0  0  0  0  0  0  0  0
  189.4950  177.7010  146.4880 O   0  0  0  0  0  0  0  0  0  0  0  0
  190.0810  177.9650  145.2250 C   0  0  2  0  0  3  0  0  0  0  0  0
  189.0400  177.5700  144.1770 C   0  0  1  0  0  3  0  0  0  0  0  0
  188.1140  177.6160  146.4630 C   0  0  0  0  0  0  0  0  0  0  0  0
  187.4420  177.3240  147.5280 N   0  0  0  0  0  2  0  0  0  0  0  0
  187.3450  177.7670  144.8630 S   0  0  0  0  0  0  0  0  0  0  0  0
  192.0260  176.8410  146.0390 O   0  0  0  0  0  1  0  0  0  0  0  0
  191.7770  176.8740  143.7570 O   0  0  0  0  0  0  0  0  0  0  0  0
  191.3210  177.1470  145.0400 C   0  0  0  0  0  0  0  0  0  0  0  0
  1 16  1  0  0  0  0
  5 26  2  0  0  0  0
  6 25  2  0  0  0  0
  6 17  1  0  0  0  0
  7 18  1  0  0  0  0
  8 23  2  0  0  0  0
  8 25  1  0  0  0  0
  9 14  2  0  0  0  0
 10 22  1  0  0  0  0
 11 19  1  1  0  0  0
 11  3  1  0  0  0  0
 11  7  1  0  0  0  0
 12 23  1  0  0  0  0
 13 12  1  0  0  0  0
 13  3  2  0  0  0  0
 14  4  1  0  0  0  0
 14 24  1  0  0  0  0
 15  1  1  0  0  0  0
 16 47  1  0  0  0  0
 17  2  2  0  0  0  0
 18 10  1  0  0  0  0
 20 22  1  0  0  0  0
 20 16  2  0  0  0  0
 21  2  1  0  0  0  0
 21  4  2  0  0  0  0
 23  9  1  0  0  0  0
 24 15  2  0  0  0  0
 25 21  1  0  0  0  0
 26  7  2  0  0  0  0
 27 37  1  6  0  0  0
 27 31  1  0  0  0  0
 28  5  1  6  0  0  0
 28 29  1  0  0  0  0
 29 32  2  0  0  0  0
 30 33  1  0  0  0  0
 30 27  1  0  0  0  0
 31 29  1  0  0  0  0
 33 36  1  1  0  0  0
 33 28  1  0  0  0  0
 34 36  1  0  0  0  0
 36 35  1  0  0  0  0
 37 38  1  1  0  0  0
 37 40  1  0  0  0  0
 40 39  1  6  0  0  0
 41 43  1  0  0  0  0
 43 40  1  0  0  0  0
 43 42  2  0  0  0  0
 44 17  1  0  0  0  0
 44 46  1  0  0  0  0
 46 45  1  0  0  0  0
 47 48  1  0  0  0  0
 50 57  1  6  0  0  0
 50 49  1  0  0  0  0
 51 48  1  6  0  0  0
 51 54  1  0  0  0  0
 51 50  1  0  0  0  0
 52 49  1  0  0  0  0
 52 53  2  0  0  0  0
 54 52  1  0  0  0  0
 56 57  2  0  0  0  0
 57 55  1  0  0  0  0
M  END
>  <MODEL>
7

>  <REMARK>
 VINA RESULT:      -5.9      1.667      2.366
  Name = 
  11 active torsions:
  status: ('A' for Active; 'I' for Inactive)
    1  A    between atoms: C_4  and  C_22
    2  A    between atoms: C_5  and  C_51
    3  A    between atoms: C_12  and  C_16
    4  A    between atoms: C_17  and  C_39
    5  A    between atoms: C_17  and  C_46
    6  A    between atoms: C_22  and  C_56
    7  A    between atoms: C_27  and  O_36
    8  A    between atoms: C_30  and  C_54
    9  A    between atoms: C_31  and  C_56
   10  A    between atoms: C_35  and  C_40
   11  A    between atoms: O_36  and  C_40
                            x       y       z     vdW  Elec       q    Type
                         _______ _______ _______ _____ _____    ______ ____

>  <TORSDO>
F 11

$$$$
=
 OpenBabel10232409033D

 57 61  0  0  1  0  0  0  0  0999 V2000
  189.0250  179.3300  142.2610 C   0  0  0  0  0  2  0  0  0  0  0  0
  182.5320  178.7490  141.3080 C   0  0  0  0  0  3  0  0  0  0  0  0
  187.9610  176.5320  136.8080 C   0  0  0  0  0  3  0  0  0  0  0  0
  184.9090  178.7040  140.7960 C   0  0  0  0  0  3  0  0  0  0  0  0
  192.7630  176.0580  135.9990 C   0  0  0  0  0  3  0  0  0  0  0  0
  181.6770  177.8480  139.3870 N   0  0  0  0  0  0  0  0  0  0  0  0
  190.4240  176.4640  137.1150 C   0  0  0  0  0  0  0  0  0  0  0  0
  183.6760  177.3390  138.1730 C   0  0  0  0  0  3  0  0  0  0  0  0
  186.0540  177.7460  138.8160 C   0  0  0  0  0  3  0  0  0  0  0  0
  191.3620  176.2360  139.4090 C   0  0  0  0  0  2  0  0  0  0  0  0
  189.2940  176.9510  136.2560 C   0  0  2  0  0  3  0  0  0  0  0  0
  185.4790  176.4710  136.7450 C   0  0  0  0  0  2  0  0  0  0  0  0
  186.8230  176.8500  136.1810 C   0  0  0  0  0  3  0  0  0  0  0  0
  186.0360  178.4160  140.0300 C   0  0  0  0  0  0  0  0  0  0  0  0
  187.6120  179.1080  141.8170 C   0  0  0  0  0  3  0  0  0  0  0  0
  189.8000  178.0540  142.2030 C   0  0  0  0  0  0  0  0  0  0  0  0
  181.3990  178.3610  140.6030 C   0  0  0  0  0  0  0  0  0  0  0  0
  190.2610  176.3710  138.5050 O   0  0  0  0  0  0  0  0  0  0  0  0
  189.3820  178.4720  136.1590 C   0  0  0  0  0  1  0  0  0  0  0  0
  190.2530  177.6570  141.0560 N   0  0  0  0  0  0  0  0  0  0  0  0
  183.5920  178.4540  140.4730 C   0  0  0  0  0  0  0  0  0  0  0  0
  190.8860  176.3670  140.8500 C   0  0  0  0  0  2  0  0  0  0  0  0
  185.0560  177.2510  137.9620 C   0  0  0  0  0  0  0  0  0  0  0  0
  187.3630  178.7350  140.5550 C   0  0  0  0  0  3  0  0  0  0  0  0
  183.0170  177.8860  139.2660 C   0  0  0  0  0  0  0  0  0  0  0  0
  191.5850  176.2430  136.5470 C   0  0  0  0  0  0  0  0  0  0  0  0
  193.4530  171.8120  135.4560 C   0  0  2  0  0  3  0  0  0  0  0  0
  193.2030  174.7110  135.5070 C   0  0  2  0  0  3  0  0  0  0  0  0
  192.0170  173.7920  135.3080 C   0  0  0  0  0  0  0  0  0  0  0  0
  194.1300  172.4320  137.0280 S   0  0  0  0  0  0  0  0  0  0  0  0
  192.1840  172.4120  135.2480 O   0  0  0  0  0  0  0  0  0  0  0  0
  190.8650  174.2720  135.1150 O   0  0  0  0  0  0  0  0  0  0  0  0
  194.3230  174.1510  136.4120 C   0  0  1  0  0  3  0  0  0  0  0  0
  195.6670  174.5130  134.4310 O   0  0  0  0  0  1  0  0  0  0  0  0
  196.5980  173.4120  136.2080 O   0  0  0  0  0  1  0  0  0  0  0  0
  195.7070  174.4200  135.8230 C   0  0  0  0  0  3  0  0  0  0  0  0
  193.3460  170.2790  135.4630 C   0  0  1  0  0  3  0  0  0  0  0  0
  192.6450  169.8100  134.3510 O   0  0  0  0  0  1  0  0  0  0  0  0
  195.0240  168.9470  134.3620 O   0  0  0  0  0  1  0  0  0  0  0  0
  194.6970  169.5680  135.5710 C   0  0  2  0  0  3  0  0  0  0  0  0
  193.5650  168.1330  137.3300 N   0  0  0  0  0  1  0  0  0  0  0  0
  195.8830  168.1590  137.1170 O   0  0  0  0  0  0  0  0  0  0  0  0
  194.7670  168.5900  136.7080 C   0  0  0  0  0  0  0  0  0  0  0  0
  180.0160  178.4940  141.1290 C   0  0  0  0  0  2  0  0  0  0  0  0
  180.0690  179.8050  143.2290 C   0  0  0  0  0  1  0  0  0  0  0  0
  180.0130  178.4060  142.6460 C   0  0  0  0  0  2  0  0  0  0  0  0
  189.8300  177.1810  143.4280 C   0  0  0  0  0  2  0  0  0  0  0  0
  188.5510  177.0770  143.9940 O   0  0  0  0  0  0  0  0  0  0  0  0
  187.5250  177.7600  147.3980 O   0  0  0  0  0  0  0  0  0  0  0  0
  187.2450  177.4350  146.0480 C   0  0  2  0  0  3  0  0  0  0  0  0
  188.5320  177.7020  145.2670 C   0  0  1  0  0  3  0  0  0  0  0  0
  188.8730  177.7740  147.7090 C   0  0  0  0  0  0  0  0  0  0  0  0
  189.2860  178.1080  148.8870 N   0  0  0  0  0  2  0  0  0  0  0  0
  189.9940  177.4700  146.3580 S   0  0  0  0  0  0  0  0  0  0  0  0
  185.6640  179.2160  146.2360 O   0  0  0  0  0  1  0  0  0  0  0  0
  185.5430  177.9770  144.3060 O   0  0  0  0  0  0  0  0  0  0  0  0
  186.1430  178.2980  145.5170 C   0  0  0  0  0  0  0  0  0  0  0  0
  5 26  2  0  0  0  0
  6 17  2  0  0  0  0
  7 18  1  0  0  0  0
  8 25  2  0  0  0  0
  9 14  1  0  0  0  0
 10 22  1  0  0  0  0
 11 19  1  1  0  0  0
 11  3  1  0  0  0  0
 11  7  1  0  0  0  0
 12 23  1  0  0  0  0
 13 12  1  0  0  0  0
 13  3  2  0  0  0  0
 14 24  1  0  0  0  0
 14  4  2  0  0  0  0
 15  1  1  0  0  0  0
 16  1  1  0  0  0  0
 16 47  1  0  0  0  0
 17 44  1  0  0  0  0
 17  2  1  0  0  0  0
 18 10  1  0  0  0  0
 20 16  2  0  0  0  0
 21  4  1  0  0  0  0
 21  2  2  0  0  0  0
 22 20  1  0  0  0  0
 23  8  1  0  0  0  0
 23  9  2  0  0  0  0
 24 15  2  0  0  0  0
 25  6  1  0  0  0  0
 25 21  1  0  0  0  0
 26  7  2  0  0  0  0
 27 37  1  1  0  0  0
 27 30  1  0  0  0  0
 28  5  1  1  0  0  0
 28 33  1  0  0  0  0
 29 28  1  0  0  0  0
 31 29  1  0  0  0  0
 31 27  1  0  0  0  0
 32 29  2  0  0  0  0
 33 36  1  6  0  0  0
 33 30  1  0  0  0  0
 34 36  1  0  0  0  0
 36 35  1  0  0  0  0
 37 38  1  6  0  0  0
 37 40  1  0  0  0  0
 40 39  1  6  0  0  0
 40 43  1  0  0  0  0
 43 42  2  0  0  0  0
 43 41  1  0  0  0  0
 44 46  1  0  0  0  0
 46 45  1  0  0  0  0
 47 48  1  0  0  0  0
 49 52  1  0  0  0  0
 50 57  1  6  0  0  0
 50 49  1  0  0  0  0
 51 48  1  6  0  0  0
 51 50  1  0  0  0  0
 51 54  1  0  0  0  0
 52 53  2  0  0  0  0
 54 52  1  0  0  0  0
 56 57  2  0  0  0  0
 57 55  1  0  0  0  0
M  END
>  <MODEL>
8

>  <REMARK>
 VINA RESULT:      -5.2      3.249      4.510
  Name = 
  11 active torsions:
  status: ('A' for Active; 'I' for Inactive)
    1  A    between atoms: C_4  and  C_22
    2  A    between atoms: C_5  and  C_51
    3  A    between atoms: C_12  and  C_16
    4  A    between atoms: C_17  and  C_39
    5  A    between atoms: C_17  and  C_46
    6  A    between atoms: C_22  and  C_56
    7  A    between atoms: C_27  and  O_36
    8  A    between atoms: C_30  and  C_54
    9  A    between atoms: C_31  and  C_56
   10  A    between atoms: C_35  and  C_40
   11  A    between atoms: O_36  and  C_40
                            x       y       z     vdW  Elec       q    Type
                         _______ _______ _______ _____ _____    ______ ____

>  <TORSDO>
F 11

$$$$
=
 OpenBabel10232409033D

 57 61  0  0  1  0  0  0  0  0999 V2000
  188.5220  179.2170  141.4420 C   0  0  0  0  0  2  0  0  0  0  0  0
  182.7270  178.0580  138.5290 C   0  0  0  0  0  3  0  0  0  0  0  0
  189.3740  175.5400  136.4980 C   0  0  0  0  0  3  0  0  0  0  0  0
  185.1400  178.0950  138.8380 C   0  0  0  0  0  3  0  0  0  0  0  0
  194.1760  175.2710  137.3990 C   0  0  0  0  0  3  0  0  0  0  0  0
  182.5740  176.8140  136.6150 N   0  0  0  0  0  0  0  0  0  0  0  0
  191.5940  175.6870  137.6020 C   0  0  0  0  0  0  0  0  0  0  0  0
  184.8700  176.2580  136.2270 C   0  0  0  0  0  3  0  0  0  0  0  0
  186.8910  176.9200  137.5350 C   0  0  0  0  0  3  0  0  0  0  0  0
  191.7140  175.8830  140.0800 C   0  0  0  0  0  2  0  0  0  0  0  0
  190.8100  175.9570  136.3510 C   0  0  2  0  0  3  0  0  0  0  0  0
  187.0560  175.3030  135.6370 C   0  0  0  0  0  2  0  0  0  0  0  0
  188.5080  175.6790  135.4890 C   0  0  0  0  0  3  0  0  0  0  0  0
  186.4620  177.7680  138.5440 C   0  0  0  0  0  0  0  0  0  0  0  0
  187.3420  178.8340  140.6050 C   0  0  0  0  0  3  0  0  0  0  0  0
  189.2870  178.0030  141.8580 C   0  0  0  0  0  0  0  0  0  0  0  0
  181.9000  177.4910  137.5680 C   0  0  0  0  0  0  0  0  0  0  0  0
  190.9770  175.8010  138.8560 O   0  0  0  0  0  0  0  0  0  0  0  0
  190.9080  177.4470  136.0320 C   0  0  0  0  0  1  0  0  0  0  0  0
  190.1010  177.4640  141.0070 N   0  0  0  0  0  0  0  0  0  0  0  0
  184.0090  177.7100  138.1500 C   0  0  0  0  0  0  0  0  0  0  0  0
  190.7820  176.2040  141.2410 C   0  0  0  0  0  2  0  0  0  0  0  0
  186.2420  176.2320  136.4980 C   0  0  0  0  0  0  0  0  0  0  0  0
  187.5330  178.2540  139.4130 C   0  0  0  0  0  3  0  0  0  0  0  0
  183.8770  176.9240  136.9350 C   0  0  0  0  0  0  0  0  0  0  0  0
  192.8800  175.4600  137.4910 C   0  0  0  0  0  0  0  0  0  0  0  0
  196.7360  171.8480  136.6750 C   0  0  2  0  0  3  0  0  0  0  0  0
  194.7710  173.8970  137.3130 C   0  0  2  0  0  3  0  0  0  0  0  0
  196.1470  173.8610  137.9410 C   0  0  0  0  0  0  0  0  0  0  0  0
  196.2350  172.6800  135.1360 S   0  0  0  0  0  0  0  0  0  0  0  0
  197.0440  172.8400  137.6400 O   0  0  0  0  0  0  0  0  0  0  0  0
  196.4740  174.7180  138.8090 O   0  0  0  0  0  0  0  0  0  0  0  0
  194.6970  173.3720  135.8620 C   0  0  1  0  0  3  0  0  0  0  0  0
  193.8200  171.2990  134.9720 O   0  0  0  0  0  1  0  0  0  0  0  0
  192.4860  173.1590  134.9520 O   0  0  0  0  0  1  0  0  0  0  0  0
  193.4820  172.4700  135.6530 C   0  0  0  0  0  3  0  0  0  0  0  0
  197.9340  170.9150  136.4380 C   0  0  1  0  0  3  0  0  0  0  0  0
  198.8520  170.9850  137.4870 O   0  0  0  0  0  1  0  0  0  0  0  0
  197.3030  169.2480  134.8180 O   0  0  0  0  0  1  0  0  0  0  0  0
  197.5400  169.4590  136.1800 C   0  0  2  0  0  3  0  0  0  0  0  0
  196.5510  168.6730  138.3790 N   0  0  0  0  0  1  0  0  0  0  0  0
  195.2190  168.9160  136.4860 O   0  0  0  0  0  0  0  0  0  0  0  0
  196.3690  169.0030  137.0010 C   0  0  0  0  0  0  0  0  0  0  0  0
  180.4190  177.6100  137.5810 C   0  0  0  0  0  2  0  0  0  0  0  0
  180.3560  180.0650  137.2670 C   0  0  0  0  0  1  0  0  0  0  0  0
  179.9980  178.9290  138.2070 C   0  0  0  0  0  2  0  0  0  0  0  0
  188.9160  177.3350  143.1540 C   0  0  0  0  0  2  0  0  0  0  0  0
  188.7760  178.2840  144.1790 O   0  0  0  0  0  0  0  0  0  0  0  0
  190.0140  176.4610  147.0510 O   0  0  0  0  0  0  0  0  0  0  0  0
  188.9640  177.0100  146.2740 C   0  0  2  0  0  3  0  0  0  0  0  0
  189.6220  177.9510  145.2660 C   0  0  1  0  0  3  0  0  0  0  0  0
  191.2590  176.5380  146.4530 C   0  0  0  0  0  0  0  0  0  0  0  0
  192.3230  176.1300  147.0630 N   0  0  0  0  0  2  0  0  0  0  0  0
  191.3260  177.3760  144.8820 S   0  0  0  0  0  0  0  0  0  0  0  0
  188.4570  178.4400  148.1200 O   0  0  0  0  0  1  0  0  0  0  0  0
  186.6470  177.6260  146.9640 O   0  0  0  0  0  0  0  0  0  0  0  0
  188.0160  177.7790  147.1410 C   0  0  0  0  0  0  0  0  0  0  0  0
  1 16  1  0  0  0  0
  5 26  2  0  0  0  0
  6 25  2  0  0  0  0
  6 17  1  0  0  0  0
  7 18  1  0  0  0  0
  8 23  2  0  0  0  0
  8 25  1  0  0  0  0
  9 14  2  0  0  0  0
 10 22  1  0  0  0  0
 11 19  1  1  0  0  0
 11  3  1  0  0  0  0
 11  7  1  0  0  0  0
 12 23  1  0  0  0  0
 13 12  1  0  0  0  0
 13  3  2  0  0  0  0
 14  4  1  0  0  0  0
 14 24  1  0  0  0  0
 15  1  1  0  0  0  0
 16 47  1  0  0  0  0
 17 44  1  0  0  0  0
 17  2  2  0  0  0  0
 18 10  1  0  0  0  0
 20 22  1  0  0  0  0
 20 16  2  0  0  0  0
 21  2  1  0  0  0  0
 21  4  2  0  0  0  0
 23  9  1  0  0  0  0
 24 15  2  0  0  0  0
 25 21  1  0  0  0  0
 26  7  2  0  0  0  0
 27 37  1  6  0  0  0
 27 31  1  0  0  0  0
 28  5  1  6  0  0  0
 28 29  1  0  0  0  0
 29 32  2  0  0  0  0
 30 33  1  0  0  0  0
 30 27  1  0  0  0  0
 31 29  1  0  0  0  0
 33 36  1  1  0  0  0
 33 28  1  0  0  0  0
 34 36  1  0  0  0  0
 35 36  1  0  0  0  0
 37 38  1  1  0  0  0
 40 39  1  6  0  0  0
 40 37  1  0  0  0  0
 40 43  1  0  0  0  0
 42 43  2  0  0  0  0
 43 41  1  0  0  0  0
 44 46  1  0  0  0  0
 45 46  1  0  0  0  0
 47 48  1  0  0  0  0
 50 49  1  0  0  0  0
 50 57  1  1  0  0  0
 51 48  1  6  0  0  0
 51 50  1  0  0  0  0
 52 49  1  0  0  0  0
 52 53  2  0  0  0  0
 54 51  1  0  0  0  0
 54 52  1  0  0  0  0
 56 57  2  0  0  0  0
 57 55  1  0  0  0  0
M  END
>  <MODEL>
9

>  <REMARK>
 VINA RESULT:      -5.2      2.528      3.546
  Name = 
  11 active torsions:
  status: ('A' for Active; 'I' for Inactive)
    1  A    between atoms: C_4  and  C_22
    2  A    between atoms: C_5  and  C_51
    3  A    between atoms: C_12  and  C_16
    4  A    between atoms: C_17  and  C_39
    5  A    between atoms: C_17  and  C_46
    6  A    between atoms: C_22  and  C_56
    7  A    between atoms: C_27  and  O_36
    8  A    between atoms: C_30  and  C_54
    9  A    between atoms: C_31  and  C_56
   10  A    between atoms: C_35  and  C_40
   11  A    between atoms: O_36  and  C_40
                            x       y       z     vdW  Elec       q    Type
                         _______ _______ _______ _____ _____    ______ ____

>  <TORSDO>
F 11

$$$$
