=
 OpenBabel10232410493D

 35 39  0  0  1  0  0  0  0  0999 V2000
  186.0020  177.7420  145.7330 C   0  0  0  0  0  2  0  0  0  0  0  0
  187.6160  176.9940  144.1270 C   0  0  1  0  0  3  0  0  0  0  0  0
  186.0630  178.6930  137.3760 S   0  0  0  0  0  0  0  0  0  0  0  0
  188.0440  176.9390  141.6900 C   0  0  0  0  0  3  0  0  0  0  0  0
  189.6830  178.4690  141.4640 C   0  0  0  0  0  3  0  0  0  0  0  0
  189.6500  177.9680  138.4970 C   0  0  0  0  0  3  0  0  0  0  0  0
  184.1580  179.8380  143.2520 C   0  0  0  0  0  1  0  0  0  0  0  0
  185.0730  178.3230  138.8240 C   0  0  0  0  0  0  0  0  0  0  0  0
  188.1690  177.1570  135.2830 O   0  0  0  0  0  0  0  0  0  0  0  0
  183.5490  177.7610  141.1010 C   0  0  0  0  0  3  0  0  0  0  0  0
  189.3110  177.5300  147.4960 N   0  0  0  0  0  1  0  0  0  0  0  0
  187.0750  177.1640  137.4130 C   0  0  2  0  0  3  0  0  0  0  0  0
  185.4790  178.7940  140.0760 C   0  0  0  0  0  3  0  0  0  0  0  0
  188.5570  176.7290  145.3200 C   0  0  0  0  0  2  0  0  0  0  0  0
  187.5350  176.8820  138.7730 N   0  0  0  0  0  2  0  0  0  0  0  0
  189.4860  177.8560  137.0780 N   0  0  0  0  0  0  0  0  0  0  0  0
  186.5670  177.9930  144.4070 N   0  0  1  0  0  0  0  0  0  0  0  0
  188.8500  177.5960  140.7810 C   0  0  0  0  0  0  0  0  0  0  0  0
  185.2120  178.9750  142.5810 C   0  0  2  0  0  0  0  0  0  0  0  0
  183.1330  177.2990  139.8480 C   0  0  0  0  0  3  0  0  0  0  0  0
  188.7130  177.4890  139.3220 C   0  0  2  0  0  3  0  0  0  0  0  0
  188.4640  177.8410  146.3600 C   0  0  1  0  0  3  0  0  0  0  0  0
  189.3310  178.2940  142.7930 C   0  0  0  0  0  0  0  0  0  0  0  0
  184.7260  178.5180  141.2260 C   0  0  0  0  0  0  0  0  0  0  0  0
  188.3650  177.3610  142.9240 N   0  0  0  0  0  0  0  0  0  0  0  0
  185.4880  177.7490  143.4560 C   0  0  0  0  0  2  0  0  0  0  0  0
  186.3660  179.7340  142.4420 F   0  0  0  0  0  0  0  0  0  0  0  0
  188.2630  177.3620  136.5220 C   0  0  0  0  0  0  0  0  0  0  0  0
  183.8950  177.5790  138.7090 C   0  0  0  0  0  3  0  0  0  0  0  0
  187.0230  178.0530  146.8310 C   0  0  0  0  0  2  0  0  0  0  0  0
  189.8630  179.0080  143.8690 O   0  0  0  0  0  0  0  0  0  0  0  0
  191.2550  179.0050  144.1640 C   0  0  0  0  0  2  0  0  0  0  0  0
  191.9300  177.3020  145.7090 O   0  0  0  0  0  1  0  0  0  0  0  0
  191.9390  176.7060  143.4990 O   0  0  0  0  0  0  0  0  0  0  0  0
  191.7210  177.6300  144.5120 C   0  0  0  0  0  0  0  0  0  0  0  0
  1 30  1  0  0  0  0
  2 17  1  0  0  0  0
  2 14  1  1  0  0  0
  3 12  1  0  0  0  0
  3  8  1  0  0  0  0
  4 25  1  0  0  0  0
  5 23  2  0  0  0  0
  8 13  1  0  0  0  0
  9 28  2  0  0  0  0
 10 24  1  0  0  0  0
 12 28  1  6  0  0  0
 12 15  1  0  0  0  0
 13 24  2  0  0  0  0
 14 22  1  0  0  0  0
 15 21  1  0  0  0  0
 16  6  2  0  0  0  0
 17 26  1  6  0  0  0
 17  1  1  0  0  0  0
 18  5  1  0  0  0  0
 18  4  2  0  0  0  0
 19  7  1  1  0  0  0
 19 26  1  0  0  0  0
 20 10  2  0  0  0  0
 21  6  1  6  0  0  0
 21 18  1  0  0  0  0
 22 30  1  0  0  0  0
 22 11  1  1  0  0  0
 23 25  1  0  0  0  0
 23 31  1  0  0  0  0
 24 19  1  0  0  0  0
 25  2  1  0  0  0  0
 27 19  1  0  0  0  0
 28 16  1  0  0  0  0
 29  8  2  0  0  0  0
 29 20  1  0  0  0  0
 31 32  1  0  0  0  0
 32 35  1  0  0  0  0
 34 35  2  0  0  0  0
 35 33  1  0  0  0  0
M  END
>  <MODEL>
1

>  <REMARK>
 VINA RESULT:      -7.3      0.000      0.000
  Name = 
  3 active torsions:
  status: ('A' for Active; 'I' for Inactive)
    1  A    between atoms: C_1  and  C_15
    2  A    between atoms: C_1  and  O_34
    3  A    between atoms: C_27  and  O_34
                            x       y       z     vdW  Elec       q    Type
                         _______ _______ _______ _____ _____    ______ ____

>  <TORSDO>
F 3

$$$$
=
 OpenBabel10232410493D

 35 39  0  0  1  0  0  0  0  0999 V2000
  192.5990  176.7580  140.9800 C   0  0  0  0  0  2  0  0  0  0  0  0
  190.2100  176.5660  140.9480 C   0  0  1  0  0  3  0  0  0  0  0  0
  186.9850  178.9130  146.8610 S   0  0  0  0  0  0  0  0  0  0  0  0
  188.2160  176.9480  142.3630 C   0  0  0  0  0  3  0  0  0  0  0  0
  187.3020  178.7720  141.4070 C   0  0  0  0  0  3  0  0  0  0  0  0
  185.1490  178.7120  143.5090 C   0  0  0  0  0  3  0  0  0  0  0  0
  192.6270  178.8140  144.0980 C   0  0  0  0  0  1  0  0  0  0  0  0
  188.5770  178.1590  146.5300 C   0  0  0  0  0  0  0  0  0  0  0  0
  183.7390  178.1180  146.8020 O   0  0  0  0  0  0  0  0  0  0  0  0
  191.0630  176.9970  145.9860 C   0  0  0  0  0  3  0  0  0  0  0  0
  191.5170  176.9100  137.3870 N   0  0  0  0  0  1  0  0  0  0  0  0
  185.9630  177.6110  146.0730 C   0  0  2  0  0  3  0  0  0  0  0  0
  189.2790  178.5090  145.3730 C   0  0  0  0  0  3  0  0  0  0  0  0
  190.3350  176.3090  139.4330 C   0  0  0  0  0  2  0  0  0  0  0  0
  186.5260  177.2240  144.7800 N   0  0  0  0  0  2  0  0  0  0  0  0
  184.2500  178.7800  144.6230 N   0  0  0  0  0  2  0  0  0  0  0  0
  191.3540  177.3000  141.5230 N   0  0  1  0  0  0  0  0  0  0  0  0
  187.1900  177.8680  142.4540 C   0  0  0  0  0  0  0  0  0  0  0  0
  191.2410  178.2690  143.8000 C   0  0  2  0  0  0  0  0  0  0  0  0
  190.3680  176.6530  147.1500 C   0  0  0  0  0  3  0  0  0  0  0  0
  186.2470  177.9520  143.5760 C   0  0  0  0  0  0  0  0  0  0  0  0
  191.3800  177.2200  138.7980 C   0  0  1  0  0  3  0  0  0  0  0  0
  188.4220  178.3420  140.7140 C   0  0  0  0  0  0  0  0  0  0  0  0
  190.5250  177.9320  145.0860 C   0  0  0  0  0  0  0  0  0  0  0  0
  188.9520  177.2370  141.2780 N   0  0  0  0  0  0  0  0  0  0  0  0
  191.3720  177.0010  142.9510 C   0  0  0  0  0  2  0  0  0  0  0  0
  190.5360  179.2420  143.1030 F   0  0  0  0  0  0  0  0  0  0  0  0
  184.5820  178.1540  145.8670 C   0  0  0  0  0  0  0  0  0  0  0  0
  189.1250  177.2330  147.4230 C   0  0  0  0  0  3  0  0  0  0  0  0
  192.7370  177.0890  139.4910 C   0  0  0  0  0  2  0  0  0  0  0  0
  188.9730  178.9770  139.5990 O   0  0  0  0  0  0  0  0  0  0  0  0
  188.4780  178.7600  138.2830 C   0  0  0  0  0  2  0  0  0  0  0  0
  187.1760  176.7510  138.1780 O   0  0  0  0  0  0  0  0  0  0  0  0
  185.9990  178.6880  138.4950 O   0  0  0  0  0  1  0  0  0  0  0  0
  187.1920  178.0020  138.3180 C   0  0  0  0  0  0  0  0  0  0  0  0
  2 14  1  6  0  0  0
  2 25  1  0  0  0  0
  2 17  1  0  0  0  0
  4 18  2  0  0  0  0
  5 18  1  0  0  0  0
  6 21  2  0  0  0  0
  6 16  1  0  0  0  0
  8  3  1  0  0  0  0
  8 29  1  0  0  0  0
 10 20  1  0  0  0  0
 12 15  1  6  0  0  0
 12  3  1  0  0  0  0
 13  8  2  0  0  0  0
 16 28  1  0  0  0  0
 17  1  1  6  0  0  0
 17 26  1  0  0  0  0
 18 21  1  0  0  0  0
 19  7  1  1  0  0  0
 19 24  1  0  0  0  0
 20 29  2  0  0  0  0
 21 15  1  0  0  0  0
 22 11  1  6  0  0  0
 22 14  1  0  0  0  0
 22 30  1  0  0  0  0
 23 25  1  0  0  0  0
 23  5  2  0  0  0  0
 24 13  1  0  0  0  0
 24 10  2  0  0  0  0
 25  4  1  0  0  0  0
 26 19  1  0  0  0  0
 27 19  1  0  0  0  0
 28 12  1  0  0  0  0
 28  9  2  0  0  0  0
 30  1  1  0  0  0  0
 31 23  1  0  0  0  0
 32 35  1  0  0  0  0
 32 31  1  0  0  0  0
 33 35  2  0  0  0  0
 35 34  1  0  0  0  0
M  END
>  <MODEL>
2

>  <REMARK>
 VINA RESULT:      -6.7      3.096      7.431
  Name = 
  3 active torsions:
  status: ('A' for Active; 'I' for Inactive)
    1  A    between atoms: C_1  and  C_15
    2  A    between atoms: C_1  and  O_34
    3  A    between atoms: C_27  and  O_34
                            x       y       z     vdW  Elec       q    Type
                         _______ _______ _______ _____ _____    ______ ____

>  <TORSDO>
F 3

$$$$
=
 OpenBabel10232410493D

 35 39  0  0  1  0  0  0  0  0999 V2000
  190.9200  177.1510  146.5750 C   0  0  0  0  0  2  0  0  0  0  0  0
  189.2860  178.3940  145.3390 C   0  0  1  0  0  3  0  0  0  0  0  0
  189.0950  176.8960  138.3680 S   0  0  0  0  0  0  0  0  0  0  0  0
  188.4500  178.7410  143.0360 C   0  0  0  0  0  3  0  0  0  0  0  0
  186.4610  177.6830  143.0920 C   0  0  0  0  0  3  0  0  0  0  0  0
  186.0790  178.3900  140.1910 C   0  0  0  0  0  3  0  0  0  0  0  0
  191.6830  174.8660  143.7210 C   0  0  0  0  0  1  0  0  0  0  0  0
  190.3940  176.8970  139.6040 C   0  0  0  0  0  0  0  0  0  0  0  0
  187.1070  179.0590  136.7740 O   0  0  0  0  0  0  0  0  0  0  0  0
  192.4000  176.8900  141.5540 C   0  0  0  0  0  3  0  0  0  0  0  0
  188.1540  178.0310  148.9580 N   0  0  0  0  0  1  0  0  0  0  0  0
  188.5320  178.6180  138.6470 C   0  0  2  0  0  3  0  0  0  0  0  0
  190.1160  176.4450  140.8970 C   0  0  0  0  0  3  0  0  0  0  0  0
  188.6780  178.7890  146.7010 C   0  0  0  0  0  2  0  0  0  0  0  0
  188.4150  178.8980  140.0790 N   0  0  0  0  0  2  0  0  0  0  0  0
  186.0050  178.5680  138.7720 N   0  0  0  0  0  0  0  0  0  0  0  0
  190.0780  177.1500  145.3790 N   0  0  1  0  0  0  0  0  0  0  0  0
  187.3510  178.3760  142.2830 C   0  0  0  0  0  0  0  0  0  0  0  0
  190.7800  176.0110  143.2950 C   0  0  2  0  0  0  0  0  0  0  0  0
  192.6840  177.3320  140.2570 C   0  0  0  0  0  3  0  0  0  0  0  0
  187.2420  178.5580  140.8300 C   0  0  2  0  0  3  0  0  0  0  0  0
  188.6720  177.6100  147.6690 C   0  0  1  0  0  3  0  0  0  0  0  0
  187.0830  177.6620  144.3300 C   0  0  0  0  0  0  0  0  0  0  0  0
  191.1110  176.4380  141.8850 C   0  0  0  0  0  0  0  0  0  0  0  0
  188.2620  178.3170  144.2960 N   0  0  0  0  0  0  0  0  0  0  0  0
  190.9910  177.1950  144.2430 C   0  0  0  0  0  2  0  0  0  0  0  0
  189.4650  175.5700  143.3630 F   0  0  0  0  0  0  0  0  0  0  0  0
  187.1910  178.7880  138.0010 C   0  0  0  0  0  0  0  0  0  0  0  0
  191.6810  177.3370  139.2820 C   0  0  0  0  0  3  0  0  0  0  0  0
  190.0710  177.0160  147.8430 C   0  0  0  0  0  2  0  0  0  0  0  0
  186.5910  177.0200  145.4680 O   0  0  0  0  0  0  0  0  0  0  0  0
  185.2940  177.2880  145.9880 C   0  0  0  0  0  2  0  0  0  0  0  0
  185.6070  179.3900  147.0960 O   0  0  0  0  0  1  0  0  0  0  0  0
  184.2750  179.4310  145.2350 O   0  0  0  0  0  0  0  0  0  0  0  0
  185.0790  178.7580  146.1440 C   0  0  0  0  0  0  0  0  0  0  0  0
  1 30  1  0  0  0  0
  2 17  1  0  0  0  0
  2 14  1  1  0  0  0
  3 12  1  0  0  0  0
  3  8  1  0  0  0  0
  4 25  1  0  0  0  0
  5 23  2  0  0  0  0
  8 13  1  0  0  0  0
  9 28  2  0  0  0  0
 10 24  1  0  0  0  0
 12 28  1  6  0  0  0
 12 15  1  0  0  0  0
 13 24  2  0  0  0  0
 14 22  1  0  0  0  0
 15 21  1  0  0  0  0
 16  6  2  0  0  0  0
 17 26  1  6  0  0  0
 17  1  1  0  0  0  0
 18  4  2  0  0  0  0
 18  5  1  0  0  0  0
 19 27  1  0  0  0  0
 19  7  1  1  0  0  0
 19 26  1  0  0  0  0
 20 10  2  0  0  0  0
 21  6  1  6  0  0  0
 21 18  1  0  0  0  0
 22 30  1  0  0  0  0
 22 11  1  1  0  0  0
 23 31  1  0  0  0  0
 24 19  1  0  0  0  0
 25 23  1  0  0  0  0
 25  2  1  0  0  0  0
 28 16  1  0  0  0  0
 29  8  2  0  0  0  0
 29 20  1  0  0  0  0
 31 32  1  0  0  0  0
 32 35  1  0  0  0  0
 34 35  2  0  0  0  0
 35 33  1  0  0  0  0
M  END
>  <MODEL>
3

>  <REMARK>
 VINA RESULT:      -6.6      2.600      5.120
  Name = 
  3 active torsions:
  status: ('A' for Active; 'I' for Inactive)
    1  A    between atoms: C_1  and  C_15
    2  A    between atoms: C_1  and  O_34
    3  A    between atoms: C_27  and  O_34
                            x       y       z     vdW  Elec       q    Type
                         _______ _______ _______ _____ _____    ______ ____

>  <TORSDO>
F 3

$$$$
=
 OpenBabel10232410493D

 35 39  0  0  1  0  0  0  0  0999 V2000
  191.7670  177.6420  142.0460 C   0  0  0  0  0  2  0  0  0  0  0  0
  189.6630  178.6290  142.6330 C   0  0  1  0  0  3  0  0  0  0  0  0
  184.5890  177.9220  137.6690 S   0  0  0  0  0  0  0  0  0  0  0  0
  187.3970  179.0420  141.7290 C   0  0  0  0  0  3  0  0  0  0  0  0
  186.1480  177.5740  142.8960 C   0  0  0  0  0  3  0  0  0  0  0  0
  183.7350  178.5030  141.3550 C   0  0  0  0  0  3  0  0  0  0  0  0
  190.3840  175.9170  139.0360 C   0  0  0  0  0  1  0  0  0  0  0  0
  186.3750  178.0680  137.6100 C   0  0  0  0  0  0  0  0  0  0  0  0
  181.9190  179.7640  138.4750 O   0  0  0  0  0  0  0  0  0  0  0  0
  189.1640  178.2800  137.5420 C   0  0  0  0  0  3  0  0  0  0  0  0
  191.5320  177.6190  145.7940 N   0  0  0  0  0  1  0  0  0  0  0  0
  184.2840  179.4370  138.6570 C   0  0  2  0  0  3  0  0  0  0  0  0
  187.1530  177.4230  138.5750 C   0  0  0  0  0  3  0  0  0  0  0  0
  190.2040  178.7240  144.0740 C   0  0  0  0  0  2  0  0  0  0  0  0
  185.2200  179.5200  139.7780 N   0  0  0  0  0  2  0  0  0  0  0  0
  182.6440  178.8200  140.4830 N   0  0  0  0  0  0  0  0  0  0  0  0
  190.3230  177.5920  141.8170 N   0  0  1  0  0  0  0  0  0  0  0  0
  186.1240  178.5320  141.8930 C   0  0  0  0  0  0  0  0  0  0  0  0
  189.3760  176.8770  139.6430 C   0  0  2  0  0  0  0  0  0  0  0  0
  188.3890  178.9180  136.5680 C   0  0  0  0  0  3  0  0  0  0  0  0
  184.9840  178.8490  141.0230 C   0  0  2  0  0  3  0  0  0  0  0  0
  190.9840  177.4710  144.4590 C   0  0  1  0  0  3  0  0  0  0  0  0
  187.4720  177.5500  143.3030 C   0  0  0  0  0  0  0  0  0  0  0  0
  188.5520  177.5230  138.5550 C   0  0  0  0  0  0  0  0  0  0  0  0
  188.2100  178.4470  142.6160 N   0  0  0  0  0  0  0  0  0  0  0  0
  190.1230  177.9630  140.4210 C   0  0  0  0  0  2  0  0  0  0  0  0
  188.5540  176.1540  140.4980 F   0  0  0  0  0  0  0  0  0  0  0  0
  182.8840  179.3810  139.1880 C   0  0  0  0  0  0  0  0  0  0  0  0
  186.9940  178.8130  136.6010 C   0  0  0  0  0  3  0  0  0  0  0  0
  192.1120  177.1820  143.4660 C   0  0  0  0  0  2  0  0  0  0  0  0
  188.0050  176.6920  144.2660 O   0  0  0  0  0  0  0  0  0  0  0  0
  187.4000  176.5180  145.5430 C   0  0  0  0  0  2  0  0  0  0  0  0
  188.4770  178.0300  147.0590 O   0  0  0  0  0  1  0  0  0  0  0  0
  186.4180  178.6770  146.2980 O   0  0  0  0  0  0  0  0  0  0  0  0
  187.4740  177.7790  146.3400 C   0  0  0  0  0  0  0  0  0  0  0  0
  1 30  1  0  0  0  0
  2 14  1  1  0  0  0
  4 18  2  0  0  0  0
  4 25  1  0  0  0  0
  5 23  2  0  0  0  0
  8  3  1  0  0  0  0
  8 13  1  0  0  0  0
  9 28  2  0  0  0  0
 10 24  1  0  0  0  0
 12  3  1  1  0  0  0
 12 28  1  0  0  0  0
 12 15  1  0  0  0  0
 14 22  1  0  0  0  0
 15 21  1  0  0  0  0
 16  6  2  0  0  0  0
 17 26  1  6  0  0  0
 17  1  1  0  0  0  0
 17  2  1  0  0  0  0
 18  5  1  0  0  0  0
 19  7  1  6  0  0  0
 19 26  1  0  0  0  0
 19 27  1  0  0  0  0
 20 29  1  0  0  0  0
 20 10  2  0  0  0  0
 21  6  1  6  0  0  0
 21 18  1  0  0  0  0
 22 11  1  1  0  0  0
 23 31  1  0  0  0  0
 24 13  2  0  0  0  0
 24 19  1  0  0  0  0
 25  2  1  0  0  0  0
 25 23  1  0  0  0  0
 28 16  1  0  0  0  0
 29  8  2  0  0  0  0
 30 22  1  0  0  0  0
 31 32  1  0  0  0  0
 32 35  1  0  0  0  0
 34 35  2  0  0  0  0
 35 33  1  0  0  0  0
M  END
>  <MODEL>
4

>  <REMARK>
 VINA RESULT:      -6.6      2.521      4.849
  Name = 
  3 active torsions:
  status: ('A' for Active; 'I' for Inactive)
    1  A    between atoms: C_1  and  C_15
    2  A    between atoms: C_1  and  O_34
    3  A    between atoms: C_27  and  O_34
                            x       y       z     vdW  Elec       q    Type
                         _______ _______ _______ _____ _____    ______ ____

>  <TORSDO>
F 3

$$$$
=
 OpenBabel10232410493D

 35 39  0  0  1  0  0  0  0  0999 V2000
  185.9130  177.9120  144.5190 C   0  0  0  0  0  2  0  0  0  0  0  0
  187.8270  176.7990  143.6010 C   0  0  1  0  0  3  0  0  0  0  0  0
  188.8180  177.9120  136.6260 S   0  0  0  0  0  0  0  0  0  0  0  0
  189.0060  176.4210  141.4580 C   0  0  0  0  0  3  0  0  0  0  0  0
  190.8420  177.7050  141.6980 C   0  0  0  0  0  3  0  0  0  0  0  0
  191.6960  176.8850  138.9310 C   0  0  0  0  0  3  0  0  0  0  0  0
  185.3110  179.9270  141.4330 C   0  0  0  0  0  1  0  0  0  0  0  0
  187.3690  177.8290  137.6780 C   0  0  0  0  0  0  0  0  0  0  0  0
  191.2290  175.9070  135.4660 O   0  0  0  0  0  0  0  0  0  0  0  0
  185.1230  177.7140  139.3420 C   0  0  0  0  0  3  0  0  0  0  0  0
  188.4010  177.4960  147.3010 N   0  0  0  0  0  1  0  0  0  0  0  0
  189.5190  176.2850  137.0990 C   0  0  2  0  0  3  0  0  0  0  0  0
  187.4140  178.3840  138.9600 C   0  0  0  0  0  3  0  0  0  0  0  0
  188.2790  176.5550  145.0550 C   0  0  0  0  0  2  0  0  0  0  0  0
  189.4660  176.1030  138.5500 N   0  0  0  0  0  2  0  0  0  0  0  0
  191.9840  176.6360  137.5500 N   0  0  0  0  0  0  0  0  0  0  0  0
  186.9080  177.9430  143.4470 N   0  0  1  0  0  0  0  0  0  0  0  0
  190.1530  176.8690  140.8320 C   0  0  0  0  0  0  0  0  0  0  0  0
  186.3820  178.8730  141.2130 C   0  0  2  0  0  0  0  0  0  0  0  0
  185.0710  177.1690  138.0540 C   0  0  0  0  0  3  0  0  0  0  0  0
  190.4810  176.6180  139.4220 C   0  0  2  0  0  3  0  0  0  0  0  0
  188.0250  177.7790  145.9290 C   0  0  1  0  0  3  0  0  0  0  0  0
  190.0570  177.7240  142.8400 C   0  0  0  0  0  0  0  0  0  0  0  0
  186.2970  178.3310  139.8060 C   0  0  0  0  0  0  0  0  0  0  0  0
  188.9710  176.9350  142.6980 N   0  0  0  0  0  0  0  0  0  0  0  0
  186.1710  177.7280  142.2070 C   0  0  0  0  0  2  0  0  0  0  0  0
  187.6200  179.4660  141.4200 F   0  0  0  0  0  0  0  0  0  0  0  0
  190.9470  176.2360  136.6480 C   0  0  0  0  0  0  0  0  0  0  0  0
  186.1930  177.2260  137.2220 C   0  0  0  0  0  3  0  0  0  0  0  0
  186.5590  178.2160  145.8740 C   0  0  0  0  0  2  0  0  0  0  0  0
  190.3140  178.4820  143.9830 O   0  0  0  0  0  0  0  0  0  0  0  0
  191.5570  178.4140  144.6730 C   0  0  0  0  0  2  0  0  0  0  0  0
  191.7250  177.0820  146.6590 O   0  0  0  0  0  1  0  0  0  0  0  0
  191.7840  175.9350  144.6800 O   0  0  0  0  0  0  0  0  0  0  0  0
  191.6880  177.1160  145.4010 C   0  0  0  0  0  0  0  0  0  0  0  0
  1 30  1  0  0  0  0
  2 14  1  1  0  0  0
  3  8  1  0  0  0  0
  4 25  1  0  0  0  0
  5 23  2  0  0  0  0
  8 13  1  0  0  0  0
  9 28  2  0  0  0  0
 10 24  1  0  0  0  0
 12  3  1  1  0  0  0
 12 15  1  0  0  0  0
 13 24  2  0  0  0  0
 14 22  1  0  0  0  0
 15 21  1  0  0  0  0
 16  6  2  0  0  0  0
 17 26  1  6  0  0  0
 17  2  1  0  0  0  0
 17  1  1  0  0  0  0
 18  4  2  0  0  0  0
 18  5  1  0  0  0  0
 19 27  1  0  0  0  0
 19  7  1  1  0  0  0
 19 26  1  0  0  0  0
 20 10  2  0  0  0  0
 21  6  1  6  0  0  0
 21 18  1  0  0  0  0
 22 11  1  1  0  0  0
 23 31  1  0  0  0  0
 24 19  1  0  0  0  0
 25 23  1  0  0  0  0
 25  2  1  0  0  0  0
 28 12  1  0  0  0  0
 28 16  1  0  0  0  0
 29  8  2  0  0  0  0
 29 20  1  0  0  0  0
 30 22  1  0  0  0  0
 31 32  1  0  0  0  0
 32 35  1  0  0  0  0
 34 35  2  0  0  0  0
 35 33  1  0  0  0  0
M  END
>  <MODEL>
5

>  <REMARK>
 VINA RESULT:      -6.4      1.564      1.881
  Name = 
  3 active torsions:
  status: ('A' for Active; 'I' for Inactive)
    1  A    between atoms: C_1  and  C_15
    2  A    between atoms: C_1  and  O_34
    3  A    between atoms: C_27  and  O_34
                            x       y       z     vdW  Elec       q    Type
                         _______ _______ _______ _____ _____    ______ ____

>  <TORSDO>
F 3

$$$$
=
 OpenBabel10232410493D

 35 39  0  0  1  0  0  0  0  0999 V2000
  188.2980  174.2330  134.3460 C   0  0  0  0  0  2  0  0  0  0  0  0
  187.5590  176.3730  135.1330 C   0  0  1  0  0  3  0  0  0  0  0  0
  181.8450  176.1340  139.3950 S   0  0  0  0  0  0  0  0  0  0  0  0
  185.7760  177.4310  136.4840 C   0  0  0  0  0  3  0  0  0  0  0  0
  186.8800  177.9920  138.3660 C   0  0  0  0  0  3  0  0  0  0  0  0
  184.3000  179.0690  139.4800 C   0  0  0  0  0  3  0  0  0  0  0  0
  186.0290  172.3460  136.6350 C   0  0  0  0  0  1  0  0  0  0  0  0
  182.4150  175.1300  138.0230 C   0  0  0  0  0  0  0  0  0  0  0  0
  180.7070  179.2220  139.9790 O   0  0  0  0  0  0  0  0  0  0  0  0
  183.3340  173.5690  135.8920 C   0  0  0  0  0  3  0  0  0  0  0  0
  191.2970  176.4930  134.4110 N   0  0  0  0  0  1  0  0  0  0  0  0
  181.8970  177.7440  138.5190 C   0  0  2  0  0  3  0  0  0  0  0  0
  183.7790  174.8520  137.8920 C   0  0  0  0  0  3  0  0  0  0  0  0
  188.9090  176.9290  134.6350 C   0  0  0  0  0  2  0  0  0  0  0  0
  183.1400  177.8780  137.7590 N   0  0  0  0  0  2  0  0  0  0  0  0
  183.0330  179.3970  140.0620 N   0  0  0  0  0  2  0  0  0  0  0  0
  187.5800  174.9250  135.4160 N   0  0  1  0  0  0  0  0  0  0  0  0
  185.6410  177.9830  137.7430 C   0  0  0  0  0  0  0  0  0  0  0  0
  185.7360  173.8360  136.6600 C   0  0  2  0  0  0  0  0  0  0  0  0
  181.9680  173.8360  136.0270 C   0  0  0  0  0  3  0  0  0  0  0  0
  184.3570  178.3420  138.3590 C   0  0  0  0  0  0  0  0  0  0  0  0
  190.0540  175.9710  134.9470 C   0  0  1  0  0  3  0  0  0  0  0  0
  187.7300  177.4290  137.4270 C   0  0  0  0  0  0  0  0  0  0  0  0
  184.2540  174.0730  136.8270 C   0  0  0  0  0  0  0  0  0  0  0  0
  187.0680  177.1160  136.2940 N   0  0  0  0  0  0  0  0  0  0  0  0
  186.1990  174.4610  135.3410 C   0  0  0  0  0  2  0  0  0  0  0  0
  186.4300  174.3940  137.7250 F   0  0  0  0  0  0  0  0  0  0  0  0
  181.8230  178.8400  139.5380 C   0  0  0  0  0  0  0  0  0  0  0  0
  181.5070  174.6170  137.0920 C   0  0  0  0  0  3  0  0  0  0  0  0
  189.7910  174.5750  134.3790 C   0  0  0  0  0  2  0  0  0  0  0  0
  189.0890  177.1720  137.6210 O   0  0  0  0  0  0  0  0  0  0  0  0
  189.7940  177.6480  138.7610 C   0  0  0  0  0  2  0  0  0  0  0  0
  190.8500  175.5000  138.8750 O   0  0  0  0  0  0  0  0  0  0  0  0
  190.5900  176.5910  140.8700 O   0  0  0  0  0  1  0  0  0  0  0  0
  190.4440  176.5190  139.4920 C   0  0  0  0  0  0  0  0  0  0  0  0
  1 30  1  0  0  0  0
  2 14  1  1  0  0  0
  2 17  1  0  0  0  0
  2 25  1  0  0  0  0
  4 18  2  0  0  0  0
  6 16  1  0  0  0  0
  8  3  1  0  0  0  0
 10 20  2  0  0  0  0
 10 24  1  0  0  0  0
 12 15  1  1  0  0  0
 12  3  1  0  0  0  0
 12 28  1  0  0  0  0
 13  8  1  0  0  0  0
 14 22  1  0  0  0  0
 15 21  1  0  0  0  0
 17  1  1  6  0  0  0
 18 21  1  0  0  0  0
 18  5  1  0  0  0  0
 19  7  1  6  0  0  0
 19 24  1  0  0  0  0
 19 27  1  0  0  0  0
 20 29  1  0  0  0  0
 21  6  2  0  0  0  0
 22 11  1  6  0  0  0
 23 31  1  0  0  0  0
 23  5  2  0  0  0  0
 24 13  2  0  0  0  0
 25  4  1  0  0  0  0
 25 23  1  0  0  0  0
 26 17  1  0  0  0  0
 26 19  1  0  0  0  0
 28  9  2  0  0  0  0
 28 16  1  0  0  0  0
 29  8  2  0  0  0  0
 30 22  1  0  0  0  0
 31 32  1  0  0  0  0
 32 35  1  0  0  0  0
 33 35  2  0  0  0  0
 35 34  1  0  0  0  0
M  END
>  <MODEL>
6

>  <REMARK>
 VINA RESULT:      -6.2      4.492      7.585
  Name = 
  3 active torsions:
  status: ('A' for Active; 'I' for Inactive)
    1  A    between atoms: C_1  and  C_15
    2  A    between atoms: C_1  and  O_34
    3  A    between atoms: C_27  and  O_34
                            x       y       z     vdW  Elec       q    Type
                         _______ _______ _______ _____ _____    ______ ____

>  <TORSDO>
F 3

$$$$
=
 OpenBabel10232410493D

 35 39  0  0  1  0  0  0  0  0999 V2000
  191.4930  174.7430  136.1450 C   0  0  0  0  0  2  0  0  0  0  0  0
  190.6800  176.6830  137.2940 C   0  0  1  0  0  3  0  0  0  0  0  0
  183.5900  176.9130  138.0370 S   0  0  0  0  0  0  0  0  0  0  0  0
  188.5760  177.7810  137.9940 C   0  0  0  0  0  3  0  0  0  0  0  0
  188.5750  177.4240  140.2190 C   0  0  0  0  0  3  0  0  0  0  0  0
  185.9250  178.8410  140.3780 C   0  0  0  0  0  3  0  0  0  0  0  0
  188.1750  173.0300  136.2030 C   0  0  0  0  0  1  0  0  0  0  0  0
  184.6890  176.2270  136.7970 C   0  0  0  0  0  0  0  0  0  0  0  0
  182.6480  179.8930  139.2230 O   0  0  0  0  0  0  0  0  0  0  0  0
  186.4220  175.1500  134.8840 C   0  0  0  0  0  3  0  0  0  0  0  0
  194.2260  175.9020  138.4450 N   0  0  0  0  0  1  0  0  0  0  0  0
  184.2650  178.6180  138.0020 C   0  0  2  0  0  3  0  0  0  0  0  0
  185.8780  175.6110  137.1940 C   0  0  0  0  0  3  0  0  0  0  0  0
  192.1390  176.9370  137.7250 C   0  0  0  0  0  2  0  0  0  0  0  0
  185.7280  178.5940  138.0060 N   0  0  0  0  0  2  0  0  0  0  0  0
  184.5840  179.3450  140.4050 N   0  0  0  0  0  2  0  0  0  0  0  0
  190.3960  175.2760  136.9530 N   0  0  1  0  0  0  0  0  0  0  0  0
  187.8570  177.9600  139.1600 C   0  0  0  0  0  0  0  0  0  0  0  0
  188.0720  174.4660  136.6840 C   0  0  2  0  0  0  0  0  0  0  0  0
  185.2260  175.7560  134.4840 C   0  0  0  0  0  3  0  0  0  0  0  0
  186.4870  178.4860  139.2180 C   0  0  0  0  0  0  0  0  0  0  0  0
  192.8410  175.6370  138.1070 C   0  0  1  0  0  3  0  0  0  0  0  0
  189.7270  176.9320  139.6260 C   0  0  0  0  0  0  0  0  0  0  0  0
  186.7580  175.0690  136.2460 C   0  0  0  0  0  0  0  0  0  0  0  0
  189.7320  177.1690  138.2980 N   0  0  0  0  0  0  0  0  0  0  0  0
  189.2230  175.2800  136.0870 C   0  0  0  0  0  2  0  0  0  0  0  0
  188.1550  174.4630  138.0710 F   0  0  0  0  0  0  0  0  0  0  0  0
  183.7800  179.3430  139.2200 C   0  0  0  0  0  0  0  0  0  0  0  0
  184.3590  176.2960  135.4400 C   0  0  0  0  0  3  0  0  0  0  0  0
  192.7710  174.6070  136.9780 C   0  0  0  0  0  2  0  0  0  0  0  0
  190.7440  176.2430  140.2890 O   0  0  0  0  0  0  0  0  0  0  0  0
  191.4920  176.8310  141.3470 C   0  0  0  0  0  2  0  0  0  0  0  0
  190.1540  175.4190  142.7450 O   0  0  0  0  0  0  0  0  0  0  0  0
  191.5800  176.8390  143.8340 O   0  0  0  0  0  1  0  0  0  0  0  0
  191.0350  176.3140  142.6710 C   0  0  0  0  0  0  0  0  0  0  0  0
  1 17  1  0  0  0  0
  1 30  1  0  0  0  0
  2 14  1  1  0  0  0
  2 25  1  0  0  0  0
  4 25  1  0  0  0  0
  4 18  2  0  0  0  0
  6 16  1  0  0  0  0
  8 13  1  0  0  0  0
  8  3  1  0  0  0  0
 10 24  1  0  0  0  0
 12 15  1  1  0  0  0
 12  3  1  0  0  0  0
 12 28  1  0  0  0  0
 14 22  1  0  0  0  0
 15 21  1  0  0  0  0
 17 26  1  6  0  0  0
 17  2  1  0  0  0  0
 18 21  1  0  0  0  0
 18  5  1  0  0  0  0
 19  7  1  6  0  0  0
 19 27  1  0  0  0  0
 20 10  2  0  0  0  0
 20 29  1  0  0  0  0
 21  6  2  0  0  0  0
 22 11  1  6  0  0  0
 23  5  2  0  0  0  0
 23 31  1  0  0  0  0
 24 19  1  0  0  0  0
 24 13  2  0  0  0  0
 25 23  1  0  0  0  0
 26 19  1  0  0  0  0
 28  9  2  0  0  0  0
 28 16  1  0  0  0  0
 29  8  2  0  0  0  0
 30 22  1  0  0  0  0
 31 32  1  0  0  0  0
 32 35  1  0  0  0  0
 35 33  2  0  0  0  0
 35 34  1  0  0  0  0
M  END
>  <MODEL>
7

>  <REMARK>
 VINA RESULT:      -6.1      3.508      6.401
  Name = 
  3 active torsions:
  status: ('A' for Active; 'I' for Inactive)
    1  A    between atoms: C_1  and  C_15
    2  A    between atoms: C_1  and  O_34
    3  A    between atoms: C_27  and  O_34
                            x       y       z     vdW  Elec       q    Type
                         _______ _______ _______ _____ _____    ______ ____

>  <TORSDO>
F 3

$$$$
=
 OpenBabel10232410493D

 35 39  0  0  1  0  0  0  0  0999 V2000
  186.1290  179.0920  139.7850 C   0  0  0  0  0  2  0  0  0  0  0  0
  188.3520  178.8790  140.6530 C   0  0  1  0  0  3  0  0  0  0  0  0
  188.6720  176.6800  147.4300 S   0  0  0  0  0  0  0  0  0  0  0  0
  189.5770  178.3260  142.7310 C   0  0  0  0  0  3  0  0  0  0  0  0
  190.4030  176.2820  142.2620 C   0  0  0  0  0  3  0  0  0  0  0  0
  191.6070  176.2100  145.0190 C   0  0  0  0  0  3  0  0  0  0  0  0
  184.5650  177.4190  142.7350 C   0  0  0  0  0  1  0  0  0  0  0  0
  187.4910  177.6490  146.4920 C   0  0  0  0  0  0  0  0  0  0  0  0
  191.8040  176.9130  148.5750 O   0  0  0  0  0  0  0  0  0  0  0  0
  185.6530  179.1430  145.0040 C   0  0  0  0  0  3  0  0  0  0  0  0
  188.3960  178.3760  136.8780 N   0  0  0  0  0  1  0  0  0  0  0  0
  190.1440  177.7010  147.0410 C   0  0  2  0  0  3  0  0  0  0  0  0
  187.2060  177.2980  145.1700 C   0  0  0  0  0  3  0  0  0  0  0  0
  188.8430  178.9880  139.1950 C   0  0  0  0  0  2  0  0  0  0  0  0
  190.1790  178.0350  145.6160 N   0  0  0  0  0  2  0  0  0  0  0  0
  192.0050  176.1140  146.3920 N   0  0  0  0  0  2  0  0  0  0  0  0
  186.9590  178.4120  140.7790 N   0  0  1  0  0  0  0  0  0  0  0  0
  190.2980  177.2630  143.2380 C   0  0  0  0  0  0  0  0  0  0  0  0
  186.0420  177.6900  142.9630 C   0  0  2  0  0  0  0  0  0  0  0  0
  185.9270  179.4900  146.3310 C   0  0  0  0  0  3  0  0  0  0  0  0
  190.7310  177.1440  144.6370 C   0  0  0  0  0  0  0  0  0  0  0  0
  187.9450  178.2010  138.2460 C   0  0  1  0  0  3  0  0  0  0  0  0
  189.7200  176.8150  141.1800 C   0  0  0  0  0  0  0  0  0  0  0  0
  186.2890  178.0390  144.4110 C   0  0  0  0  0  0  0  0  0  0  0  0
  189.2470  178.0470  141.4590 N   0  0  0  0  0  0  0  0  0  0  0  0
  186.4790  178.8620  142.0810 C   0  0  0  0  0  2  0  0  0  0  0  0
  186.7480  176.5430  142.6220 F   0  0  0  0  0  0  0  0  0  0  0  0
  191.3710  176.9170  147.3930 C   0  0  0  0  0  0  0  0  0  0  0  0
  186.8460  178.7440  147.0760 C   0  0  0  0  0  3  0  0  0  0  0  0
  186.4820  178.6300  138.3680 C   0  0  0  0  0  2  0  0  0  0  0  0
  189.5020  176.1640  139.9640 O   0  0  0  0  0  0  0  0  0  0  0  0
  190.4810  176.1390  138.9330 C   0  0  0  0  0  2  0  0  0  0  0  0
  189.0890  175.0700  137.3010 O   0  0  0  0  0  0  0  0  0  0  0  0
  191.0960  174.0540  137.7210 O   0  0  0  0  0  1  0  0  0  0  0  0
  190.1750  175.0690  137.9370 C   0  0  0  0  0  0  0  0  0  0  0  0
  2 14  1  6  0  0  0
  2 17  1  0  0  0  0
  2 25  1  0  0  0  0
  4 18  2  0  0  0  0
  5 18  1  0  0  0  0
  6 16  1  0  0  0  0
  8 29  1  0  0  0  0
  8  3  1  0  0  0  0
 10 20  1  0  0  0  0
 12 15  1  6  0  0  0
 12 28  1  0  0  0  0
 12  3  1  0  0  0  0
 13  8  2  0  0  0  0
 16 28  1  0  0  0  0
 17  1  1  6  0  0  0
 17 26  1  0  0  0  0
 18 21  1  0  0  0  0
 19  7  1  6  0  0  0
 19 24  1  0  0  0  0
 20 29  2  0  0  0  0
 21  6  2  0  0  0  0
 21 15  1  0  0  0  0
 22 11  1  6  0  0  0
 22 30  1  0  0  0  0
 22 14  1  0  0  0  0
 23 25  1  0  0  0  0
 23  5  2  0  0  0  0
 24 10  2  0  0  0  0
 24 13  1  0  0  0  0
 25  4  1  0  0  0  0
 26 19  1  0  0  0  0
 27 19  1  0  0  0  0
 28  9  2  0  0  0  0
 30  1  1  0  0  0  0
 31 23  1  0  0  0  0
 32 31  1  0  0  0  0
 33 35  2  0  0  0  0
 34 35  1  0  0  0  0
 35 32  1  0  0  0  0
M  END
>  <MODEL>
8

>  <REMARK>
 VINA RESULT:      -6.1      2.816      6.930
  Name = 
  3 active torsions:
  status: ('A' for Active; 'I' for Inactive)
    1  A    between atoms: C_1  and  C_15
    2  A    between atoms: C_1  and  O_34
    3  A    between atoms: C_27  and  O_34
                            x       y       z     vdW  Elec       q    Type
                         _______ _______ _______ _____ _____    ______ ____

>  <TORSDO>
F 3

$$$$
=
 OpenBabel10232410493D

 35 39  0  0  1  0  0  0  0  0999 V2000
  190.4490  174.2040  136.1250 C   0  0  0  0  0  2  0  0  0  0  0  0
  189.3060  176.2850  136.4540 C   0  0  1  0  0  3  0  0  0  0  0  0
  182.2400  175.6780  137.2140 S   0  0  0  0  0  0  0  0  0  0  0  0
  187.0340  177.2260  136.7250 C   0  0  0  0  0  3  0  0  0  0  0  0
  187.0000  177.7570  138.9140 C   0  0  0  0  0  3  0  0  0  0  0  0
  184.1610  178.6960  138.5740 C   0  0  0  0  0  3  0  0  0  0  0  0
  187.4310  172.1510  136.9160 C   0  0  0  0  0  1  0  0  0  0  0  0
  183.4780  174.7480  136.3090 C   0  0  0  0  0  0  0  0  0  0  0  0
  180.8100  178.6990  137.1780 O   0  0  0  0  0  0  0  0  0  0  0  0
  185.4290  173.3010  134.9220 C   0  0  0  0  0  3  0  0  0  0  0  0
  192.8820  176.5680  137.7360 N   0  0  0  0  0  1  0  0  0  0  0  0
  182.6490  177.3200  136.5070 C   0  0  2  0  0  3  0  0  0  0  0  0
  184.7310  174.5240  136.8860 C   0  0  0  0  0  3  0  0  0  0  0  0
  190.6920  176.9080  136.7200 C   0  0  0  0  0  2  0  0  0  0  0  0
  184.0970  177.5280  136.4870 N   0  0  0  0  0  2  0  0  0  0  0  0
  182.7590  178.9560  138.4350 N   0  0  0  0  0  2  0  0  0  0  0  0
  189.2530  174.8290  136.6900 N   0  0  1  0  0  0  0  0  0  0  0  0
  186.2510  177.7260  137.7470 C   0  0  0  0  0  0  0  0  0  0  0  0
  187.0910  173.6280  136.8080 C   0  0  2  0  0  0  0  0  0  0  0  0
  184.1710  173.5130  134.3460 C   0  0  0  0  0  3  0  0  0  0  0  0
  184.8160  178.0140  137.6290 C   0  0  0  0  0  0  0  0  0  0  0  0
  191.5670  175.9810  137.5590 C   0  0  1  0  0  3  0  0  0  0  0  0
  188.2360  177.2600  138.5310 C   0  0  0  0  0  0  0  0  0  0  0  0
  185.7190  173.8030  136.2010 C   0  0  0  0  0  0  0  0  0  0  0  0
  188.2570  176.9650  137.2140 N   0  0  0  0  0  0  0  0  0  0  0  0
  188.1270  174.3170  135.9170 C   0  0  0  0  0  2  0  0  0  0  0  0
  187.1190  174.1710  138.0860 F   0  0  0  0  0  0  0  0  0  0  0  0
  182.0120  178.3740  137.3610 C   0  0  0  0  0  0  0  0  0  0  0  0
  183.1950  174.2370  135.0390 C   0  0  0  0  0  3  0  0  0  0  0  0
  191.7000  174.5990  136.9170 C   0  0  0  0  0  2  0  0  0  0  0  0
  189.3190  177.0460  139.3850 O   0  0  0  0  0  0  0  0  0  0  0  0
  189.2570  177.3420  140.7750 C   0  0  0  0  0  2  0  0  0  0  0  0
  191.6050  177.3660  141.2520 O   0  0  0  0  0  0  0  0  0  0  0  0
  190.3730  175.8020  142.3800 O   0  0  0  0  0  1  0  0  0  0  0  0
  190.4790  176.8500  141.4770 C   0  0  0  0  0  0  0  0  0  0  0  0
  1 17  1  0  0  0  0
  1 30  1  0  0  0  0
  2 17  1  0  0  0  0
  2 14  1  1  0  0  0
  2 25  1  0  0  0  0
  4 25  1  0  0  0  0
  4 18  2  0  0  0  0
  8 13  1  0  0  0  0
  8  3  1  0  0  0  0
  9 28  2  0  0  0  0
 10 24  1  0  0  0  0
 12 15  1  1  0  0  0
 12  3  1  0  0  0  0
 12 28  1  0  0  0  0
 14 22  1  0  0  0  0
 15 21  1  0  0  0  0
 16  6  1  0  0  0  0
 17 26  1  6  0  0  0
 18  5  1  0  0  0  0
 19  7  1  1  0  0  0
 19 27  1  0  0  0  0
 20 10  2  0  0  0  0
 20 29  1  0  0  0  0
 21 18  1  0  0  0  0
 21  6  2  0  0  0  0
 22 11  1  6  0  0  0
 23  5  2  0  0  0  0
 23 31  1  0  0  0  0
 24 19  1  0  0  0  0
 24 13  2  0  0  0  0
 25 23  1  0  0  0  0
 26 19  1  0  0  0  0
 28 16  1  0  0  0  0
 29  8  2  0  0  0  0
 30 22  1  0  0  0  0
 31 32  1  0  0  0  0
 32 35  1  0  0  0  0
 33 35  2  0  0  0  0
 35 34  1  0  0  0  0
M  END
>  <MODEL>
9

>  <REMARK>
 VINA RESULT:      -5.5      4.096      6.875
  Name = 
  3 active torsions:
  status: ('A' for Active; 'I' for Inactive)
    1  A    between atoms: C_1  and  C_15
    2  A    between atoms: C_1  and  O_34
    3  A    between atoms: C_27  and  O_34
                            x       y       z     vdW  Elec       q    Type
                         _______ _______ _______ _____ _____    ______ ____

>  <TORSDO>
F 3

$$$$
