=
 OpenBabel10232408163D

 32 35  0  0  1  0  0  0  0  0999 V2000
  184.3600  178.6040  142.6870 C   0  0  0  0  0  0  0  0  0  0  0  0
  188.4600  177.5160  146.4610 C   0  0  0  0  0  0  0  0  0  0  0  0
  185.8850  178.2690  145.5010 C   0  0  0  0  0  0  0  0  0  0  0  0
  191.3860  175.9880  143.7020 C   0  0  0  0  0  1  0  0  0  0  0  0
  188.3990  178.0150  145.0390 C   0  0  1  0  0  3  0  0  0  0  0  0
  190.4550  176.6660  144.6490 C   0  0  0  0  0  0  0  0  0  0  0  0
  189.7350  176.9960  146.9710 C   0  0  0  0  0  3  0  0  0  0  0  0
  184.5230  178.7290  145.2200 C   0  0  0  0  0  3  0  0  0  0  0  0
  189.3590  177.2530  144.1550 C   0  0  0  0  0  3  0  0  0  0  0  0
  183.8960  178.8710  144.0580 C   0  0  0  0  0  2  0  0  0  0  0  0
  186.8260  178.1770  143.1820 C   0  0  0  0  0  3  0  0  0  0  0  0
  187.4300  177.5900  147.2460 N   0  0  0  0  0  0  0  0  0  0  0  0
  186.1440  178.0310  146.7900 C   0  0  0  0  0  2  0  0  0  0  0  0
  190.7010  176.6240  146.1170 C   0  0  0  0  0  0  0  0  0  0  0  0
  185.6240  178.3250  142.3570 C   0  0  0  0  0  3  0  0  0  0  0  0
  186.9810  178.1190  144.5080 C   0  0  0  0  0  0  0  0  0  0  0  0
  183.6630  179.0750  140.2580 C   0  0  1  0  0  3  0  0  0  0  0  0
  181.4150  178.7890  140.4350 C   0  0  1  0  0  3  0  0  0  0  0  0
  182.4310  179.3370  139.6200 O   0  0  0  0  0  0  0  0  0  0  0  0
  181.9710  178.5610  141.8200 C   0  0  0  0  0  2  0  0  0  0  0  0
  183.3860  178.6900  141.6290 N   0  0  0  0  0  0  0  0  0  0  0  0
  180.2870  179.7020  140.5030 N   0  0  0  0  0  2  0  0  0  0  0  0
  180.0610  180.0010  141.9060 C   0  0  0  0  0  1  0  0  0  0  0  0
  184.3940  177.9490  139.5370 C   0  0  0  0  0  2  0  0  0  0  0  0
  185.0720  178.4660  138.2800 C   0  0  0  0  0  2  0  0  0  0  0  0
  186.5080  177.9820  138.2280 C   0  0  2  0  0  3  0  0  0  0  0  0
  187.2140  178.5190  139.3050 O   0  0  0  0  0  1  0  0  0  0  0  0
  187.1600  178.4200  136.9260 C   0  0  0  0  0  2  0  0  0  0  0  0
  188.8980  178.8670  137.2130 S   0  0  0  0  0  0  0  0  0  0  0  0
  189.4950  177.2830  136.5550 C   0  0  0  0  0  1  0  0  0  0  0  0
  192.1000  175.7320  147.8310 O   0  0  0  0  0  0  0  0  0  0  0  0
  191.9770  176.1080  146.6350 C   0  0  0  0  0  3  0  0  0  0  0  0
  1 10  1  0  0  0  0
  2  7  1  0  0  0  0
  2 12  2  0  0  0  0
  3 13  1  0  0  0  0
  4  6  1  0  0  0  0
  5  9  1  6  0  0  0
  5  2  1  0  0  0  0
  6 14  1  0  0  0  0
  8  3  2  0  0  0  0
  9  6  2  0  0  0  0
 10  8  1  0  0  0  0
 11 16  2  0  0  0  0
 13 12  1  0  0  0  0
 14 32  1  0  0  0  0
 14  7  2  0  0  0  0
 15  1  2  0  0  0  0
 15 11  1  0  0  0  0
 16  5  1  0  0  0  0
 16  3  1  0  0  0  0
 17 24  1  6  0  0  0
 17 21  1  0  0  0  0
 18 22  1  1  0  0  0
 18 20  1  0  0  0  0
 19 17  1  0  0  0  0
 19 18  1  0  0  0  0
 21 20  1  0  0  0  0
 21  1  1  0  0  0  0
 22 23  1  0  0  0  0
 25 24  1  0  0  0  0
 26 25  1  0  0  0  0
 26 27  1  1  0  0  0
 28 29  1  0  0  0  0
 28 26  1  0  0  0  0
 30 29  1  0  0  0  0
 32 31  2  0  0  0  0
M  END
>  <MODEL>
1

>  <REMARK>
 VINA RESULT:      -9.0      0.000      0.000
  Name = 
  8 active torsions:
  status: ('A' for Active; 'I' for Inactive)
    1  A    between atoms: C_1  and  N_25
    2  A    between atoms: C_5  and  C_31
    3  A    between atoms: S_7  and  C_17
    4  A    between atoms: C_9  and  N_27
    5  A    between atoms: C_14  and  C_28
    6  A    between atoms: C_16  and  C_17
    7  A    between atoms: C_16  and  C_20
    8  A    between atoms: C_20  and  C_31
                            x       y       z     vdW  Elec       q    Type
                         _______ _______ _______ _____ _____    ______ ____

>  <TORSDO>
F 8

$$$$
=
 OpenBabel10232408163D

 32 35  0  0  1  0  0  0  0  0999 V2000
  188.3470  177.3900  145.4070 C   0  0  0  0  0  0  0  0  0  0  0  0
  183.3250  178.8330  143.1850 C   0  0  0  0  0  0  0  0  0  0  0  0
  185.2700  178.3070  145.2010 C   0  0  0  0  0  0  0  0  0  0  0  0
  184.5100  178.8360  139.0500 C   0  0  0  0  0  1  0  0  0  0  0  0
  184.4670  177.9300  142.7910 C   0  0  1  0  0  3  0  0  0  0  0  0
  184.0380  178.6790  140.4540 C   0  0  0  0  0  0  0  0  0  0  0  0
  182.3610  179.2400  142.1550 C   0  0  0  0  0  3  0  0  0  0  0  0
  186.0930  178.0450  146.3830 C   0  0  0  0  0  3  0  0  0  0  0  0
  184.8870  178.1800  141.3600 C   0  0  0  0  0  3  0  0  0  0  0  0
  187.3620  177.6610  146.4670 C   0  0  0  0  0  2  0  0  0  0  0  0
  186.7890  177.4840  143.3890 C   0  0  0  0  0  3  0  0  0  0  0  0
  183.1540  179.2040  144.4160 N   0  0  0  0  0  0  0  0  0  0  0  0
  184.0930  178.8890  145.4530 C   0  0  0  0  0  2  0  0  0  0  0  0
  182.6790  179.1370  140.8560 C   0  0  0  0  0  0  0  0  0  0  0  0
  188.0560  177.3090  144.1060 C   0  0  0  0  0  3  0  0  0  0  0  0
  185.5990  177.9290  143.8010 C   0  0  0  0  0  0  0  0  0  0  0  0
  190.8470  177.0440  144.9190 C   0  0  1  0  0  3  0  0  0  0  0  0
  191.6020  176.6350  147.0230 C   0  0  1  0  0  3  0  0  0  0  0  0
  191.9300  176.5160  145.6530 O   0  0  0  0  0  0  0  0  0  0  0  0
  190.1120  176.8400  147.1520 C   0  0  0  0  0  2  0  0  0  0  0  0
  189.7090  177.1560  145.8120 N   0  0  0  0  0  0  0  0  0  0  0  0
  191.9950  175.4320  147.7350 N   0  0  0  0  0  2  0  0  0  0  0  0
  193.1070  175.7880  148.5990 C   0  0  0  0  0  1  0  0  0  0  0  0
  191.2130  178.4160  144.3650 C   0  0  0  0  0  2  0  0  0  0  0  0
  190.8530  178.5150  142.8930 C   0  0  0  0  0  2  0  0  0  0  0  0
  191.3460  177.2860  142.1540 C   0  0  2  0  0  3  0  0  0  0  0  0
  192.3520  177.6570  141.2610 O   0  0  0  0  0  1  0  0  0  0  0  0
  190.2010  176.6430  141.3870 C   0  0  0  0  0  2  0  0  0  0  0  0
  190.1460  177.2820  139.6870 S   0  0  0  0  0  0  0  0  0  0  0  0
  188.5330  178.0710  139.9530 C   0  0  0  0  0  1  0  0  0  0  0  0
  180.6780  180.2090  140.1220 O   0  0  0  0  0  0  0  0  0  0  0  0
  181.7070  179.5430  139.8300 C   0  0  0  0  0  3  0  0  0  0  0  0
  1 21  1  0  0  0  0
  1 10  1  0  0  0  0
  2 12  2  0  0  0  0
  3 13  1  0  0  0  0
  3  8  2  0  0  0  0
  4  6  1  0  0  0  0
  5  9  1  6  0  0  0
  5  2  1  0  0  0  0
  5 16  1  0  0  0  0
  6 14  1  0  0  0  0
  6  9  2  0  0  0  0
  7  2  1  0  0  0  0
  8 10  1  0  0  0  0
 11 16  2  0  0  0  0
 11 15  1  0  0  0  0
 12 13  1  0  0  0  0
 14  7  2  0  0  0  0
 15  1  2  0  0  0  0
 16  3  1  0  0  0  0
 17 24  1  1  0  0  0
 17 19  1  0  0  0  0
 17 21  1  0  0  0  0
 18 20  1  0  0  0  0
 18 22  1  1  0  0  0
 19 18  1  0  0  0  0
 21 20  1  0  0  0  0
 22 23  1  0  0  0  0
 25 24  1  0  0  0  0
 26 27  1  6  0  0  0
 26 25  1  0  0  0  0
 28 26  1  0  0  0  0
 29 30  1  0  0  0  0
 29 28  1  0  0  0  0
 32 31  2  0  0  0  0
 32 14  1  0  0  0  0
M  END
>  <MODEL>
2

>  <REMARK>
 VINA RESULT:      -8.9      2.127      8.086
  Name = 
  8 active torsions:
  status: ('A' for Active; 'I' for Inactive)
    1  A    between atoms: C_1  and  N_25
    2  A    between atoms: C_5  and  C_31
    3  A    between atoms: S_7  and  C_17
    4  A    between atoms: C_9  and  N_27
    5  A    between atoms: C_14  and  C_28
    6  A    between atoms: C_16  and  C_17
    7  A    between atoms: C_16  and  C_20
    8  A    between atoms: C_20  and  C_31
                            x       y       z     vdW  Elec       q    Type
                         _______ _______ _______ _____ _____    ______ ____

>  <TORSDO>
F 8

$$$$
=
 OpenBabel10232408163D

 32 35  0  0  1  0  0  0  0  0999 V2000
  189.0800  177.4560  139.6080 C   0  0  0  0  0  0  0  0  0  0  0  0
  190.0230  177.3420  145.2050 C   0  0  0  0  0  0  0  0  0  0  0  0
  190.6350  177.3270  142.4220 C   0  0  0  0  0  0  0  0  0  0  0  0
  185.9780  178.0570  146.4810 C   0  0  0  0  0  1  0  0  0  0  0  0
  188.9170  176.8970  144.2820 C   0  0  1  0  0  3  0  0  0  0  0  0
  187.3490  177.6440  146.0670 C   0  0  0  0  0  0  0  0  0  0  0  0
  189.7300  177.4900  146.6370 C   0  0  0  0  0  3  0  0  0  0  0  0
  191.1590  177.2570  141.0560 C   0  0  0  0  0  3  0  0  0  0  0  0
  187.5720  177.3820  144.7740 C   0  0  0  0  0  3  0  0  0  0  0  0
  190.5160  177.3060  139.8950 C   0  0  0  0  0  3  0  0  0  0  0  0
  188.1740  177.1920  141.9780 C   0  0  0  0  0  3  0  0  0  0  0  0
  191.2280  177.5390  144.7660 N   0  0  0  0  0  0  0  0  0  0  0  0
  191.5620  177.4690  143.3740 C   0  0  0  0  0  2  0  0  0  0  0  0
  188.4610  177.5980  147.0560 C   0  0  0  0  0  0  0  0  0  0  0  0
  188.1130  177.3870  140.5260 C   0  0  0  0  0  2  0  0  0  0  0  0
  189.2100  177.1880  142.8220 C   0  0  0  0  0  0  0  0  0  0  0  0
  187.3590  177.4770  137.6980 C   0  0  1  0  0  3  0  0  0  0  0  0
  188.7250  177.9590  135.9470 C   0  0  1  0  0  3  0  0  0  0  0  0
  187.4490  177.4560  136.2900 O   0  0  0  0  0  0  0  0  0  0  0  0
  189.6190  177.8910  137.1610 C   0  0  0  0  0  2  0  0  0  0  0  0
  188.6960  177.6510  138.2330 N   0  0  0  0  0  0  0  0  0  0  0  0
  189.2980  177.1690  134.8710 N   0  0  0  0  0  2  0  0  0  0  0  0
  190.2760  176.2760  135.4680 C   0  0  0  0  0  1  0  0  0  0  0  0
  186.4650  178.6280  138.1450 C   0  0  0  0  0  2  0  0  0  0  0  0
  185.0920  178.1170  138.5470 C   0  0  0  0  0  2  0  0  0  0  0  0
  184.4180  179.1130  139.4710 C   0  0  2  0  0  3  0  0  0  0  0  0
  184.4420  180.3770  138.8820 O   0  0  0  0  0  1  0  0  0  0  0  0
  185.1460  179.1620  140.8050 C   0  0  0  0  0  2  0  0  0  0  0  0
  184.2180  178.2340  142.0620 S   0  0  0  0  0  0  0  0  0  0  0  0
  184.7570  179.3450  143.3930 C   0  0  0  0  0  1  0  0  0  0  0  0
  188.9260  178.4110  149.2510 O   0  0  0  0  0  0  0  0  0  0  0  0
  188.1750  177.7420  148.4920 C   0  0  0  0  0  3  0  0  0  0  0  0
  1 10  2  0  0  0  0
  1 15  1  0  0  0  0
  2  7  1  0  0  0  0
  3 16  1  0  0  0  0
  3 13  1  0  0  0  0
  5  9  1  1  0  0  0
  5  2  1  0  0  0  0
  6  4  1  0  0  0  0
  6 14  1  0  0  0  0
  7 14  2  0  0  0  0
  8  3  2  0  0  0  0
  9  6  2  0  0  0  0
 10  8  1  0  0  0  0
 11 16  2  0  0  0  0
 12  2  2  0  0  0  0
 13 12  1  0  0  0  0
 14 32  1  0  0  0  0
 15 11  1  0  0  0  0
 16  5  1  0  0  0  0
 17 24  1  6  0  0  0
 17 21  1  0  0  0  0
 18 22  1  6  0  0  0
 18 19  1  0  0  0  0
 18 20  1  0  0  0  0
 19 17  1  0  0  0  0
 20 21  1  0  0  0  0
 21  1  1  0  0  0  0
 22 23  1  0  0  0  0
 24 25  1  0  0  0  0
 25 26  1  0  0  0  0
 26 27  1  6  0  0  0
 26 28  1  0  0  0  0
 28 29  1  0  0  0  0
 29 30  1  0  0  0  0
 32 31  2  0  0  0  0
M  END
>  <MODEL>
3

>  <REMARK>
 VINA RESULT:      -8.6      3.076      5.838
  Name = 
  8 active torsions:
  status: ('A' for Active; 'I' for Inactive)
    1  A    between atoms: C_1  and  N_25
    2  A    between atoms: C_5  and  C_31
    3  A    between atoms: S_7  and  C_17
    4  A    between atoms: C_9  and  N_27
    5  A    between atoms: C_14  and  C_28
    6  A    between atoms: C_16  and  C_17
    7  A    between atoms: C_16  and  C_20
    8  A    between atoms: C_20  and  C_31
                            x       y       z     vdW  Elec       q    Type
                         _______ _______ _______ _____ _____    ______ ____

>  <TORSDO>
F 8

$$$$
=
 OpenBabel10232408163D

 32 35  0  0  1  0  0  0  0  0999 V2000
  187.9280  177.6250  144.3490 C   0  0  0  0  0  0  0  0  0  0  0  0
  182.5500  178.9860  143.1420 C   0  0  0  0  0  0  0  0  0  0  0  0
  184.8420  178.4430  144.7470 C   0  0  0  0  0  0  0  0  0  0  0  0
  182.9610  179.2060  138.8660 C   0  0  0  0  0  1  0  0  0  0  0  0
  183.6240  178.1410  142.5060 C   0  0  1  0  0  3  0  0  0  0  0  0
  182.7570  178.9730  140.3240 C   0  0  0  0  0  0  0  0  0  0  0  0
  181.4040  179.4030  142.3240 C   0  0  0  0  0  3  0  0  0  0  0  0
  185.8740  178.1600  145.7460 C   0  0  0  0  0  3  0  0  0  0  0  0
  183.7700  178.4660  141.0360 C   0  0  0  0  0  3  0  0  0  0  0  0
  187.1460  177.8170  145.5810 C   0  0  0  0  0  2  0  0  0  0  0  0
  186.0270  177.7510  142.6530 C   0  0  0  0  0  3  0  0  0  0  0  0
  182.5960  179.2980  144.4010 N   0  0  0  0  0  0  0  0  0  0  0  0
  183.7150  178.9730  145.2350 C   0  0  0  0  0  2  0  0  0  0  0  0
  181.4820  179.3660  140.9860 C   0  0  0  0  0  0  0  0  0  0  0  0
  187.4070  177.5900  143.1200 C   0  0  0  0  0  3  0  0  0  0  0  0
  184.9200  178.1370  143.2940 C   0  0  0  0  0  0  0  0  0  0  0  0
  190.2200  176.8450  143.4850 C   0  0  1  0  0  3  0  0  0  0  0  0
  191.4820  177.2140  145.3380 C   0  0  1  0  0  3  0  0  0  0  0  0
  191.4510  176.5320  144.1010 O   0  0  0  0  0  0  0  0  0  0  0  0
  190.0750  177.6150  145.7110 C   0  0  0  0  0  2  0  0  0  0  0  0
  189.3470  177.4220  144.4900 N   0  0  0  0  0  0  0  0  0  0  0  0
  192.0350  176.3510  146.3670 N   0  0  0  0  0  2  0  0  0  0  0  0
  191.3850  176.7030  147.6170 C   0  0  0  0  0  1  0  0  0  0  0  0
  190.4420  177.8400  142.3530 C   0  0  0  0  0  2  0  0  0  0  0  0
  191.4160  177.2820  141.3290 C   0  0  0  0  0  2  0  0  0  0  0  0
  190.6770  176.9150  140.0570 C   0  0  2  0  0  3  0  0  0  0  0  0
  191.5760  176.8940  138.9910 O   0  0  0  0  0  1  0  0  0  0  0  0
  189.5830  177.9340  139.7760 C   0  0  0  0  0  2  0  0  0  0  0  0
  188.4520  177.3070  138.5000 S   0  0  0  0  0  0  0  0  0  0  0  0
  188.8310  178.6810  137.3770 C   0  0  0  0  0  1  0  0  0  0  0  0
  180.0250  180.9960  140.0320 O   0  0  0  0  0  0  0  0  0  0  0  0
  180.3300  179.7820  140.1730 C   0  0  0  0  0  3  0  0  0  0  0  0
  1 21  1  0  0  0  0
  1 10  1  0  0  0  0
  2 12  2  0  0  0  0
  3 13  1  0  0  0  0
  3  8  2  0  0  0  0
  4  6  1  0  0  0  0
  5  9  1  6  0  0  0
  5  2  1  0  0  0  0
  5 16  1  0  0  0  0
  6 14  1  0  0  0  0
  6  9  2  0  0  0  0
  7  2  1  0  0  0  0
 10  8  1  0  0  0  0
 11 15  1  0  0  0  0
 11 16  2  0  0  0  0
 12 13  1  0  0  0  0
 14  7  2  0  0  0  0
 15  1  2  0  0  0  0
 16  3  1  0  0  0  0
 17 24  1  6  0  0  0
 17 19  1  0  0  0  0
 17 21  1  0  0  0  0
 18 20  1  0  0  0  0
 18 22  1  1  0  0  0
 19 18  1  0  0  0  0
 21 20  1  0  0  0  0
 22 23  1  0  0  0  0
 25 24  1  0  0  0  0
 26 27  1  6  0  0  0
 26 25  1  0  0  0  0
 28 26  1  0  0  0  0
 29 28  1  0  0  0  0
 30 29  1  0  0  0  0
 31 32  2  0  0  0  0
 32 14  1  0  0  0  0
M  END
>  <MODEL>
4

>  <REMARK>
 VINA RESULT:      -8.4      2.208      7.859
  Name = 
  8 active torsions:
  status: ('A' for Active; 'I' for Inactive)
    1  A    between atoms: C_1  and  N_25
    2  A    between atoms: C_5  and  C_31
    3  A    between atoms: S_7  and  C_17
    4  A    between atoms: C_9  and  N_27
    5  A    between atoms: C_14  and  C_28
    6  A    between atoms: C_16  and  C_17
    7  A    between atoms: C_16  and  C_20
    8  A    between atoms: C_20  and  C_31
                            x       y       z     vdW  Elec       q    Type
                         _______ _______ _______ _____ _____    ______ ____

>  <TORSDO>
F 8

$$$$
=
 OpenBabel10232408163D

 32 35  0  0  1  0  0  0  0  0999 V2000
  184.4190  178.4390  141.5860 C   0  0  0  0  0  0  0  0  0  0  0  0
  189.4600  177.7090  144.0940 C   0  0  0  0  0  0  0  0  0  0  0  0
  187.6030  178.2180  141.9930 C   0  0  0  0  0  0  0  0  0  0  0  0
  188.0450  177.4130  148.1460 C   0  0  0  0  0  1  0  0  0  0  0  0
  188.0590  177.1910  144.3020 C   0  0  1  0  0  3  0  0  0  0  0  0
  188.5400  177.3460  146.7420 C   0  0  0  0  0  0  0  0  0  0  0  0
  190.4270  177.5880  145.1930 C   0  0  0  0  0  3  0  0  0  0  0  0
  186.8270  178.4520  140.7730 C   0  0  0  0  0  3  0  0  0  0  0  0
  187.6420  177.3230  145.7500 C   0  0  0  0  0  3  0  0  0  0  0  0
  185.5120  178.5380  140.6060 C   0  0  0  0  0  3  0  0  0  0  0  0
  185.7700  177.6610  143.6050 C   0  0  0  0  0  3  0  0  0  0  0  0
  189.8330  178.2030  142.9540 N   0  0  0  0  0  0  0  0  0  0  0  0
  188.9210  178.4030  141.8660 C   0  0  0  0  0  2  0  0  0  0  0  0
  189.9990  177.3800  146.4470 C   0  0  0  0  0  0  0  0  0  0  0  0
  184.5720  178.0470  142.8530 C   0  0  0  0  0  2  0  0  0  0  0  0
  187.0670  177.7420  143.2960 C   0  0  0  0  0  0  0  0  0  0  0  0
  182.7170  179.0520  139.7590 C   0  0  1  0  0  3  0  0  0  0  0  0
  180.8540  179.3110  141.0340 C   0  0  1  0  0  3  0  0  0  0  0  0
  181.4150  179.5970  139.7690 O   0  0  0  0  0  0  0  0  0  0  0  0
  181.9650  178.9630  141.9950 C   0  0  0  0  0  2  0  0  0  0  0  0
  183.0890  178.7500  141.1290 N   0  0  0  0  0  0  0  0  0  0  0  0
  180.1240  180.4660  141.5270 N   0  0  0  0  0  2  0  0  0  0  0  0
  179.9910  180.3090  142.9640 C   0  0  0  0  0  1  0  0  0  0  0  0
  182.7430  177.7810  138.9190 C   0  0  0  0  0  2  0  0  0  0  0  0
  182.7430  178.1160  137.4370 C   0  0  0  0  0  2  0  0  0  0  0  0
  183.2070  176.9160  136.6340 C   0  0  2  0  0  3  0  0  0  0  0  0
  182.2050  175.9460  136.6330 O   0  0  0  0  0  1  0  0  0  0  0  0
  184.4720  176.3360  137.2470 C   0  0  0  0  0  2  0  0  0  0  0  0
  185.9130  177.3410  136.7810 S   0  0  0  0  0  0  0  0  0  0  0  0
  187.0590  175.9550  137.0350 C   0  0  0  0  0  1  0  0  0  0  0  0
  192.0200  176.5650  147.4190 O   0  0  0  0  0  0  0  0  0  0  0  0
  190.9730  177.2560  147.5420 C   0  0  0  0  0  3  0  0  0  0  0  0
  1 15  1  0  0  0  0
  2  5  1  0  0  0  0
  2  7  1  0  0  0  0
  3 16  1  0  0  0  0
  5  9  1  1  0  0  0
  6  4  1  0  0  0  0
  7 14  2  0  0  0  0
  8  3  2  0  0  0  0
  9  6  2  0  0  0  0
 10  8  1  0  0  0  0
 10  1  2  0  0  0  0
 12  2  2  0  0  0  0
 13  3  1  0  0  0  0
 13 12  1  0  0  0  0
 14  6  1  0  0  0  0
 14 32  1  0  0  0  0
 15 11  1  0  0  0  0
 16 11  2  0  0  0  0
 16  5  1  0  0  0  0
 17 24  1  6  0  0  0
 17 19  1  0  0  0  0
 17 21  1  0  0  0  0
 18 22  1  1  0  0  0
 18 20  1  0  0  0  0
 19 18  1  0  0  0  0
 21  1  1  0  0  0  0
 21 20  1  0  0  0  0
 22 23  1  0  0  0  0
 25 24  1  0  0  0  0
 26 27  1  1  0  0  0
 26 28  1  0  0  0  0
 26 25  1  0  0  0  0
 29 30  1  0  0  0  0
 29 28  1  0  0  0  0
 31 32  2  0  0  0  0
M  END
>  <MODEL>
5

>  <REMARK>
 VINA RESULT:      -8.0      2.087      2.969
  Name = 
  8 active torsions:
  status: ('A' for Active; 'I' for Inactive)
    1  A    between atoms: C_1  and  N_25
    2  A    between atoms: C_5  and  C_31
    3  A    between atoms: S_7  and  C_17
    4  A    between atoms: C_9  and  N_27
    5  A    between atoms: C_14  and  C_28
    6  A    between atoms: C_16  and  C_17
    7  A    between atoms: C_16  and  C_20
    8  A    between atoms: C_20  and  C_31
                            x       y       z     vdW  Elec       q    Type
                         _______ _______ _______ _____ _____    ______ ____

>  <TORSDO>
F 8

$$$$
=
 OpenBabel10232408163D

 32 35  0  0  1  0  0  0  0  0999 V2000
  189.0580  177.7420  139.7980 C   0  0  0  0  0  0  0  0  0  0  0  0
  183.5130  178.7840  140.4260 C   0  0  0  0  0  0  0  0  0  0  0  0
  185.9580  178.2120  139.0780 C   0  0  0  0  0  0  0  0  0  0  0  0
  183.4150  178.7830  144.7260 C   0  0  0  0  0  1  0  0  0  0  0  0
  184.7790  179.1730  141.1470 C   0  0  1  0  0  3  0  0  0  0  0  0
  183.4550  178.9530  143.2460 C   0  0  0  0  0  0  0  0  0  0  0  0
  182.2290  178.9380  141.1220 C   0  0  0  0  0  3  0  0  0  0  0  0
  187.1000  177.9670  138.1940 C   0  0  0  0  0  3  0  0  0  0  0  0
  184.6460  178.9440  142.6360 C   0  0  0  0  0  3  0  0  0  0  0  0
  188.3800  177.7780  138.4920 C   0  0  0  0  0  3  0  0  0  0  0  0
  187.1310  178.5430  141.2650 C   0  0  0  0  0  3  0  0  0  0  0  0
  183.5380  178.3720  139.1960 N   0  0  0  0  0  0  0  0  0  0  0  0
  184.7620  178.1440  138.4850 C   0  0  0  0  0  2  0  0  0  0  0  0
  182.1960  179.0540  142.4570 C   0  0  0  0  0  0  0  0  0  0  0  0
  188.4910  178.0910  140.9550 C   0  0  0  0  0  2  0  0  0  0  0  0
  186.0260  178.5840  140.5160 C   0  0  0  0  0  0  0  0  0  0  0  0
  191.3960  177.6470  140.8640 C   0  0  1  0  0  3  0  0  0  0  0  0
  192.5310  176.5650  139.2200 C   0  0  1  0  0  3  0  0  0  0  0  0
  192.6890  177.3580  140.3790 O   0  0  0  0  0  0  0  0  0  0  0  0
  191.1170  176.7160  138.7140 C   0  0  0  0  0  2  0  0  0  0  0  0
  190.4420  177.3410  139.8150 N   0  0  0  0  0  0  0  0  0  0  0  0
  193.4670  176.9920  138.1940 N   0  0  0  0  0  2  0  0  0  0  0  0
  193.1900  176.2040  137.0060 C   0  0  0  0  0  1  0  0  0  0  0  0
  191.1020  176.8020  142.0980 C   0  0  0  0  0  2  0  0  0  0  0  0
  191.5630  177.5140  143.3590 C   0  0  0  0  0  2  0  0  0  0  0  0
  190.5270  178.5360  143.7860 C   0  0  2  0  0  3  0  0  0  0  0  0
  191.1430  179.7780  143.9440 O   0  0  0  0  0  1  0  0  0  0  0  0
  189.8910  178.1150  145.1010 C   0  0  0  0  0  2  0  0  0  0  0  0
  188.2520  177.3890  144.8030 S   0  0  0  0  0  0  0  0  0  0  0  0
  187.7940  177.5070  146.5550 C   0  0  0  0  0  1  0  0  0  0  0  0
  180.2250  180.2660  143.0380 O   0  0  0  0  0  0  0  0  0  0  0  0
  180.9070  179.2120  143.1470 C   0  0  0  0  0  3  0  0  0  0  0  0
  1 21  1  0  0  0  0
  1 15  1  0  0  0  0
  2  7  1  0  0  0  0
  2  5  1  0  0  0  0
  3 16  1  0  0  0  0
  5  9  1  1  0  0  0
  6  4  1  0  0  0  0
  7 14  2  0  0  0  0
  8 10  1  0  0  0  0
  8  3  2  0  0  0  0
  9  6  2  0  0  0  0
 10  1  2  0  0  0  0
 12  2  2  0  0  0  0
 13  3  1  0  0  0  0
 13 12  1  0  0  0  0
 14 32  1  0  0  0  0
 14  6  1  0  0  0  0
 15 11  1  0  0  0  0
 16  5  1  0  0  0  0
 16 11  2  0  0  0  0
 17 24  1  1  0  0  0
 18 22  1  6  0  0  0
 18 19  1  0  0  0  0
 19 17  1  0  0  0  0
 20 18  1  0  0  0  0
 20 21  1  0  0  0  0
 21 17  1  0  0  0  0
 23 22  1  0  0  0  0
 24 25  1  0  0  0  0
 25 26  1  0  0  0  0
 26 27  1  1  0  0  0
 26 28  1  0  0  0  0
 29 28  1  0  0  0  0
 29 30  1  0  0  0  0
 31 32  2  0  0  0  0
M  END
>  <MODEL>
6

>  <REMARK>
 VINA RESULT:      -7.9      3.617      8.701
  Name = 
  8 active torsions:
  status: ('A' for Active; 'I' for Inactive)
    1  A    between atoms: C_1  and  N_25
    2  A    between atoms: C_5  and  C_31
    3  A    between atoms: S_7  and  C_17
    4  A    between atoms: C_9  and  N_27
    5  A    between atoms: C_14  and  C_28
    6  A    between atoms: C_16  and  C_17
    7  A    between atoms: C_16  and  C_20
    8  A    between atoms: C_20  and  C_31
                            x       y       z     vdW  Elec       q    Type
                         _______ _______ _______ _____ _____    ______ ____

>  <TORSDO>
F 8

$$$$
=
 OpenBabel10232408163D

 32 35  0  0  1  0  0  0  0  0999 V2000
  190.1910  177.1840  139.5150 C   0  0  0  0  0  0  0  0  0  0  0  0
  187.9950  177.9350  144.6960 C   0  0  0  0  0  0  0  0  0  0  0  0
  188.0900  177.8860  141.8480 C   0  0  0  0  0  0  0  0  0  0  0  0
  191.3120  176.3830  146.9530 C   0  0  0  0  0  1  0  0  0  0  0  0
  189.3650  178.0360  144.0730 C   0  0  1  0  0  3  0  0  0  0  0  0
  190.2260  177.0750  146.2030 C   0  0  0  0  0  0  0  0  0  0  0  0
  187.8910  177.8290  146.1570 C   0  0  0  0  0  3  0  0  0  0  0  0
  187.9410  177.9750  140.3940 C   0  0  0  0  0  3  0  0  0  0  0  0
  190.3900  177.2850  144.8920 C   0  0  0  0  0  3  0  0  0  0  0  0
  188.8110  177.6900  139.4320 C   0  0  0  0  0  3  0  0  0  0  0  0
  190.5400  177.4030  142.0320 C   0  0  0  0  0  3  0  0  0  0  0  0
  186.9200  177.9950  143.9730 N   0  0  0  0  0  0  0  0  0  0  0  0
  186.9560  178.0380  142.5400 C   0  0  0  0  0  2  0  0  0  0  0  0
  188.9560  177.4560  146.8820 C   0  0  0  0  0  0  0  0  0  0  0  0
  190.8970  177.0920  140.6450 C   0  0  0  0  0  2  0  0  0  0  0  0
  189.3670  177.7140  142.5900 C   0  0  0  0  0  0  0  0  0  0  0  0
  190.1500  176.4510  137.0510 C   0  0  1  0  0  3  0  0  0  0  0  0
  192.3740  176.1370  136.7010 C   0  0  1  0  0  3  0  0  0  0  0  0
  191.0890  175.8480  136.1870 O   0  0  0  0  0  0  0  0  0  0  0  0
  192.2390  176.5580  138.1440 C   0  0  0  0  0  2  0  0  0  0  0  0
  190.8320  176.8020  138.2820 N   0  0  0  0  0  0  0  0  0  0  0  0
  193.2220  174.9620  136.6100 N   0  0  0  0  0  2  0  0  0  0  0  0
  193.9890  174.8900  137.8410 C   0  0  0  0  0  1  0  0  0  0  0  0
  189.5730  177.7020  136.4000 C   0  0  0  0  0  2  0  0  0  0  0  0
  188.3910  177.3500  135.5120 C   0  0  0  0  0  2  0  0  0  0  0  0
  187.1340  178.0180  136.0340 C   0  0  2  0  0  3  0  0  0  0  0  0
  187.4780  179.1970  136.6950 O   0  0  0  0  0  1  0  0  0  0  0  0
  186.4110  177.0900  136.9970 C   0  0  0  0  0  2  0  0  0  0  0  0
  184.6120  177.2820  136.8250 S   0  0  0  0  0  0  0  0  0  0  0  0
  184.4590  178.0540  138.4600 C   0  0  0  0  0  1  0  0  0  0  0  0
  187.8630  177.8390  148.9680 O   0  0  0  0  0  0  0  0  0  0  0  0
  188.8460  177.3550  148.3460 C   0  0  0  0  0  3  0  0  0  0  0  0
  1 15  1  0  0  0  0
  2  7  1  0  0  0  0
  3 13  1  0  0  0  0
  3 16  1  0  0  0  0
  5  2  1  0  0  0  0
  5  9  1  1  0  0  0
  6 14  1  0  0  0  0
  6  4  1  0  0  0  0
  7 14  2  0  0  0  0
  8  3  2  0  0  0  0
  9  6  2  0  0  0  0
 10  1  2  0  0  0  0
 10  8  1  0  0  0  0
 11 16  2  0  0  0  0
 12  2  2  0  0  0  0
 13 12  1  0  0  0  0
 14 32  1  0  0  0  0
 15 11  1  0  0  0  0
 16  5  1  0  0  0  0
 17 24  1  6  0  0  0
 17 21  1  0  0  0  0
 18 22  1  1  0  0  0
 18 20  1  0  0  0  0
 19 18  1  0  0  0  0
 19 17  1  0  0  0  0
 20 21  1  0  0  0  0
 21  1  1  0  0  0  0
 22 23  1  0  0  0  0
 25 26  1  0  0  0  0
 25 24  1  0  0  0  0
 26 27  1  1  0  0  0
 26 28  1  0  0  0  0
 29 28  1  0  0  0  0
 29 30  1  0  0  0  0
 32 31  2  0  0  0  0
M  END
>  <MODEL>
7

>  <REMARK>
 VINA RESULT:      -7.9      3.573      6.514
  Name = 
  8 active torsions:
  status: ('A' for Active; 'I' for Inactive)
    1  A    between atoms: C_1  and  N_25
    2  A    between atoms: C_5  and  C_31
    3  A    between atoms: S_7  and  C_17
    4  A    between atoms: C_9  and  N_27
    5  A    between atoms: C_14  and  C_28
    6  A    between atoms: C_16  and  C_17
    7  A    between atoms: C_16  and  C_20
    8  A    between atoms: C_20  and  C_31
                            x       y       z     vdW  Elec       q    Type
                         _______ _______ _______ _____ _____    ______ ____

>  <TORSDO>
F 8

$$$$
=
 OpenBabel10232408163D

 32 35  0  0  1  0  0  0  0  0999 V2000
  184.0150  178.5840  142.6120 C   0  0  0  0  0  0  0  0  0  0  0  0
  188.0370  177.7710  146.5360 C   0  0  0  0  0  0  0  0  0  0  0  0
  185.4710  178.4160  145.4760 C   0  0  0  0  0  0  0  0  0  0  0  0
  191.0700  176.1920  143.9270 C   0  0  0  0  0  1  0  0  0  0  0  0
  188.0020  178.2040  145.0920 C   0  0  1  0  0  3  0  0  0  0  0  0
  190.0990  176.8890  144.8170 C   0  0  0  0  0  0  0  0  0  0  0  0
  189.3100  177.3070  147.1020 C   0  0  0  0  0  3  0  0  0  0  0  0
  184.1070  178.8280  145.1400 C   0  0  0  0  0  3  0  0  0  0  0  0
  189.0030  177.4260  144.2680 C   0  0  0  0  0  3  0  0  0  0  0  0
  183.5080  178.9020  143.9570 C   0  0  0  0  0  2  0  0  0  0  0  0
  186.4760  178.2420  143.1900 C   0  0  0  0  0  3  0  0  0  0  0  0
  186.9850  177.8550  147.2900 N   0  0  0  0  0  0  0  0  0  0  0  0
  185.7020  178.2430  146.7820 C   0  0  0  0  0  2  0  0  0  0  0  0
  190.3060  176.9200  146.2920 C   0  0  0  0  0  0  0  0  0  0  0  0
  185.2930  178.3220  142.3280 C   0  0  0  0  0  3  0  0  0  0  0  0
  186.5970  178.2480  144.5200 C   0  0  0  0  0  0  0  0  0  0  0  0
  183.3910  178.8140  140.1290 C   0  0  1  0  0  3  0  0  0  0  0  0
  181.1290  178.6580  140.2800 C   0  0  1  0  0  3  0  0  0  0  0  0
  182.1870  179.0620  139.4350 O   0  0  0  0  0  0  0  0  0  0  0  0
  181.6440  178.5590  141.6950 C   0  0  0  0  0  2  0  0  0  0  0  0
  183.0680  178.5980  141.5270 N   0  0  0  0  0  0  0  0  0  0  0  0
  180.0470  179.6250  140.2180 N   0  0  0  0  0  2  0  0  0  0  0  0
  180.5460  180.7830  139.4980 C   0  0  0  0  0  1  0  0  0  0  0  0
  184.0790  177.5810  139.5560 C   0  0  0  0  0  2  0  0  0  0  0  0
  183.9240  177.5330  138.0450 C   0  0  0  0  0  2  0  0  0  0  0  0
  185.1360  176.8690  137.4210 C   0  0  2  0  0  3  0  0  0  0  0  0
  185.5580  177.6200  136.3240 O   0  0  0  0  0  1  0  0  0  0  0  0
  184.7840  175.4620  136.9650 C   0  0  0  0  0  2  0  0  0  0  0  0
  183.2610  175.4850  135.9730 S   0  0  0  0  0  0  0  0  0  0  0  0
  182.9830  173.7080  136.2150 C   0  0  0  0  0  1  0  0  0  0  0  0
  191.6730  175.3550  147.4630 O   0  0  0  0  0  0  0  0  0  0  0  0
  191.5800  176.4600  146.8650 C   0  0  0  0  0  3  0  0  0  0  0  0
  1 10  1  0  0  0  0
  2  7  1  0  0  0  0
  2 12  2  0  0  0  0
  3 13  1  0  0  0  0
  4  6  1  0  0  0  0
  5  9  1  6  0  0  0
  5  2  1  0  0  0  0
  6 14  1  0  0  0  0
  8  3  2  0  0  0  0
  9  6  2  0  0  0  0
 10  8  1  0  0  0  0
 11 16  2  0  0  0  0
 13 12  1  0  0  0  0
 14 32  1  0  0  0  0
 14  7  2  0  0  0  0
 15  1  2  0  0  0  0
 15 11  1  0  0  0  0
 16  5  1  0  0  0  0
 16  3  1  0  0  0  0
 17 24  1  6  0  0  0
 17 21  1  0  0  0  0
 18 22  1  1  0  0  0
 18 20  1  0  0  0  0
 19 17  1  0  0  0  0
 19 18  1  0  0  0  0
 21 20  1  0  0  0  0
 21  1  1  0  0  0  0
 23 22  1  0  0  0  0
 25 24  1  0  0  0  0
 26 27  1  6  0  0  0
 26 25  1  0  0  0  0
 28 26  1  0  0  0  0
 29 30  1  0  0  0  0
 29 28  1  0  0  0  0
 32 31  2  0  0  0  0
M  END
>  <MODEL>
8

>  <REMARK>
 VINA RESULT:      -7.9      1.897      2.126
  Name = 
  8 active torsions:
  status: ('A' for Active; 'I' for Inactive)
    1  A    between atoms: C_1  and  N_25
    2  A    between atoms: C_5  and  C_31
    3  A    between atoms: S_7  and  C_17
    4  A    between atoms: C_9  and  N_27
    5  A    between atoms: C_14  and  C_28
    6  A    between atoms: C_16  and  C_17
    7  A    between atoms: C_16  and  C_20
    8  A    between atoms: C_20  and  C_31
                            x       y       z     vdW  Elec       q    Type
                         _______ _______ _______ _____ _____    ______ ____

>  <TORSDO>
F 8

$$$$
=
 OpenBabel10232408163D

 32 35  0  0  1  0  0  0  0  0999 V2000
  182.5490  178.5700  141.2230 C   0  0  0  0  0  0  0  0  0  0  0  0
  185.9220  178.2860  145.7810 C   0  0  0  0  0  0  0  0  0  0  0  0
  183.5520  178.7700  144.2730 C   0  0  0  0  0  0  0  0  0  0  0  0
  189.3020  176.4300  143.8760 C   0  0  0  0  0  1  0  0  0  0  0  0
  186.1100  178.5380  144.3060 C   0  0  1  0  0  3  0  0  0  0  0  0
  188.2130  177.2210  144.5160 C   0  0  0  0  0  0  0  0  0  0  0  0
  187.0900  177.9080  146.5860 C   0  0  0  0  0  3  0  0  0  0  0  0
  182.2580  179.1240  143.6860 C   0  0  0  0  0  3  0  0  0  0  0  0
  187.2180  177.6750  143.7460 C   0  0  0  0  0  3  0  0  0  0  0  0
  181.8460  179.0450  142.4250 C   0  0  0  0  0  2  0  0  0  0  0  0
  184.8900  178.3260  142.2040 C   0  0  0  0  0  3  0  0  0  0  0  0
  184.7680  178.4520  146.3500 N   0  0  0  0  0  0  0  0  0  0  0  0
  183.5800  178.7610  145.6100 C   0  0  0  0  0  2  0  0  0  0  0  0
  188.1940  177.4350  145.9900 C   0  0  0  0  0  0  0  0  0  0  0  0
  183.8530  178.2880  141.1690 C   0  0  0  0  0  3  0  0  0  0  0  0
  184.8080  178.4970  143.5260 C   0  0  0  0  0  0  0  0  0  0  0  0
  182.1240  177.6070  138.8770 C   0  0  1  0  0  3  0  0  0  0  0  0
  180.2460  178.7580  138.3170 C   0  0  1  0  0  3  0  0  0  0  0  0
  181.3050  177.9840  137.7910 O   0  0  0  0  0  0  0  0  0  0  0  0
  180.6340  179.2450  139.6920 C   0  0  0  0  0  2  0  0  0  0  0  0
  181.7770  178.4400  140.0120 N   0  0  0  0  0  0  0  0  0  0  0  0
  179.9820  179.8930  137.4510 N   0  0  0  0  0  2  0  0  0  0  0  0
  180.0930  181.0900  138.2660 C   0  0  0  0  0  1  0  0  0  0  0  0
  181.8960  176.1400  139.2180 C   0  0  0  0  0  2  0  0  0  0  0  0
  183.0520  175.2870  138.7240 C   0  0  0  0  0  2  0  0  0  0  0  0
  182.7660  174.7860  137.3220 C   0  0  2  0  0  3  0  0  0  0  0  0
  181.9000  173.6940  137.3900 O   0  0  0  0  0  1  0  0  0  0  0  0
  184.0600  174.3640  136.6440 C   0  0  0  0  0  2  0  0  0  0  0  0
  184.8680  173.0450  137.5990 S   0  0  0  0  0  0  0  0  0  0  0  0
  186.0740  172.7230  136.2810 C   0  0  0  0  0  1  0  0  0  0  0  0
  189.5710  177.5760  147.9330 O   0  0  0  0  0  0  0  0  0  0  0  0
  189.3620  177.0620  146.8020 C   0  0  0  0  0  3  0  0  0  0  0  0
  1 10  1  0  0  0  0
  2 12  2  0  0  0  0
  2  7  1  0  0  0  0
  3 13  1  0  0  0  0
  4  6  1  0  0  0  0
  5  9  1  6  0  0  0
  5  2  1  0  0  0  0
  6 14  1  0  0  0  0
  8  3  2  0  0  0  0
  9  6  2  0  0  0  0
 10  8  1  0  0  0  0
 11 16  2  0  0  0  0
 13 12  1  0  0  0  0
 14  7  2  0  0  0  0
 14 32  1  0  0  0  0
 15  1  2  0  0  0  0
 15 11  1  0  0  0  0
 16  3  1  0  0  0  0
 16  5  1  0  0  0  0
 17 24  1  1  0  0  0
 17 21  1  0  0  0  0
 18 22  1  6  0  0  0
 18 20  1  0  0  0  0
 19 18  1  0  0  0  0
 19 17  1  0  0  0  0
 20 21  1  0  0  0  0
 21  1  1  0  0  0  0
 22 23  1  0  0  0  0
 25 24  1  0  0  0  0
 26 27  1  1  0  0  0
 26 25  1  0  0  0  0
 28 26  1  0  0  0  0
 28 29  1  0  0  0  0
 30 29  1  0  0  0  0
 32 31  2  0  0  0  0
M  END
>  <MODEL>
9

>  <REMARK>
 VINA RESULT:      -7.8      2.797      3.483
  Name = 
  8 active torsions:
  status: ('A' for Active; 'I' for Inactive)
    1  A    between atoms: C_1  and  N_25
    2  A    between atoms: C_5  and  C_31
    3  A    between atoms: S_7  and  C_17
    4  A    between atoms: C_9  and  N_27
    5  A    between atoms: C_14  and  C_28
    6  A    between atoms: C_16  and  C_17
    7  A    between atoms: C_16  and  C_20
    8  A    between atoms: C_20  and  C_31
                            x       y       z     vdW  Elec       q    Type
                         _______ _______ _______ _____ _____    ______ ____

>  <TORSDO>
F 8

$$$$
