=
 OpenBabel10232411273D

 36 38  0  0  1  0  0  0  0  0999 V2000
  187.4190  177.7880  144.0250 C   0  0  0  0  0  0  0  0  0  0  0  0
  187.5200  178.0070  142.6830 N   0  0  0  0  0  0  0  0  0  0  0  0
  188.6390  177.6730  141.9900 C   0  0  0  0  0  0  0  0  0  0  0  0
  189.6880  177.0940  142.6300 N   0  0  0  0  0  0  0  0  0  0  0  0
  188.4970  177.1890  144.6920 C   0  0  0  0  0  3  0  0  0  0  0  0
  189.6370  176.8460  143.9670 C   0  0  0  0  0  0  0  0  0  0  0  0
  184.8740  178.6450  146.7010 N   0  0  0  0  0  2  0  0  0  0  0  0
  187.0610  178.1140  146.8940 O   0  0  0  0  0  0  0  0  0  0  0  0
  186.1670  178.1690  144.7380 C   0  0  0  0  0  0  0  0  0  0  0  0
  185.0140  178.4040  143.9790 C   0  0  0  0  0  3  0  0  0  0  0  0
  186.0670  178.3020  146.1420 C   0  0  0  0  0  0  0  0  0  0  0  0
  183.7860  178.8620  145.9590 N   0  0  0  0  0  0  0  0  0  0  0  0
  183.8210  178.7520  144.6080 C   0  0  0  0  0  0  0  0  0  0  0  0
  182.6300  178.9740  143.8370 C   0  0  0  0  0  0  0  0  0  0  0  0
  181.6290  179.1720  143.1970 C   0  0  0  0  0  0  0  0  0  0  0  0
  180.4130  179.4300  142.4250 C   0  0  0  0  0  2  0  0  0  0  0  0
  180.8940  178.2250  140.4880 C   0  0  0  0  0  1  0  0  0  0  0  0
  180.7480  179.5720  141.0210 N   0  0  0  0  0  2  0  0  0  0  0  0
  188.7030  177.9050  140.5220 C   0  0  0  0  0  2  0  0  0  0  0  0
  189.9980  177.3470  139.9690 C   0  0  0  0  0  2  0  0  0  0  0  0
  189.9300  177.3190  138.4580 C   0  0  0  0  0  2  0  0  0  0  0  0
  188.9200  178.3440  137.9800 C   0  0  0  0  0  2  0  0  0  0  0  0
  187.0940  176.8170  137.5540 O   0  0  0  0  0  0  0  0  0  0  0  0
  186.5220  178.0030  137.1040 N   0  0  0  0  0  0  0  0  0  0  0  0
  187.9380  177.7140  136.9870 C   0  0  1  0  0  0  0  0  0  0  0  0
  184.7590  179.6130  139.9630 O   0  0  0  0  0  1  0  0  0  0  0  0
  186.2750  178.7860  138.2440 N   0  0  0  0  0  2  0  0  0  0  0  0
  184.9940  178.7850  138.8730 C   0  0  0  0  0  0  0  0  0  0  0  0
  184.0710  178.0470  138.4380 O   0  0  0  0  0  0  0  0  0  0  0  0
  188.6590  176.1510  135.3790 O   0  0  0  0  0  0  0  0  0  0  0  0
  188.3750  177.3130  135.6180 C   0  0  0  0  0  3  0  0  0  0  0  0
  190.7110  176.2450  144.6270 O   0  0  0  0  0  0  0  0  0  0  0  0
  191.6070  176.9910  145.4370 C   0  0  0  0  0  2  0  0  0  0  0  0
  190.4130  176.7910  147.4880 O   0  0  0  0  0  0  0  0  0  0  0  0
  191.4760  176.5620  146.8560 C   0  0  0  0  0  0  0  0  0  0  0  0
  192.5420  175.8650  147.4900 N   0  0  0  0  0  1  0  0  0  0  0  0
  1  5  2  0  0  0  0
  1  9  1  0  0  0  0
  2  1  1  0  0  0  0
  3  4  1  0  0  0  0
  3  2  2  0  0  0  0
  4  6  2  0  0  0  0
  6 32  1  0  0  0  0
  6  5  1  0  0  0  0
  9 11  1  0  0  0  0
 10 13  1  0  0  0  0
 10  9  2  0  0  0  0
 11  7  1  0  0  0  0
 11  8  2  0  0  0  0
 12  7  1  0  0  0  0
 13 12  2  0  0  0  0
 14 13  1  0  0  0  0
 15 14  3  0  0  0  0
 16 15  1  0  0  0  0
 17 18  1  0  0  0  0
 18 16  1  0  0  0  0
 19  3  1  0  0  0  0
 20 19  1  0  0  0  0
 21 20  1  0  0  0  0
 22 21  1  0  0  0  0
 24 23  1  0  0  0  0
 24 27  1  0  0  0  0
 25 31  1  6  0  0  0
 25 24  1  0  0  0  0
 25 23  1  0  0  0  0
 25 22  1  0  0  0  0
 27 28  1  0  0  0  0
 28 26  1  0  0  0  0
 29 28  2  0  0  0  0
 30 31  2  0  0  0  0
 32 33  1  0  0  0  0
 33 35  1  0  0  0  0
 35 34  2  0  0  0  0
 35 36  1  0  0  0  0
M  END
>  <MODEL>
1

>  <REMARK>
 VINA RESULT:      -8.3      0.000      0.000
  Name = 
  14 active torsions:
  status: ('A' for Active; 'I' for Inactive)
    1  A    between atoms: C_4  and  C_7
    2  A    between atoms: C_8  and  C_12
    3  A    between atoms: C_8  and  O_33
    4  A    between atoms: C_9  and  C_18
    5  A    between atoms: C_9  and  C_27
    6  A    between atoms: C_11  and  C_35
    7  A    between atoms: C_15  and  C_21
    8  A    between atoms: N_16  and  N_23
    9  A    between atoms: C_18  and  C_29
   10  A    between atoms: C_19  and  N_31
   11  A    between atoms: C_19  and  C_34
   12  A    between atoms: C_21  and  C_29
   13  A    between atoms: C_24  and  C_27
   14  A    between atoms: O_33  and  C_36
                            x       y       z     vdW  Elec       q    Type
                         _______ _______ _______ _____ _____    ______ ____

>  <TORSDO>
F 14

$$$$
=
 OpenBabel10232411273D

 36 38  0  0  1  0  0  0  0  0999 V2000
  187.8820  177.8950  144.4280 C   0  0  0  0  0  0  0  0  0  0  0  0
  187.9090  177.7000  143.0800 N   0  0  0  0  0  0  0  0  0  0  0  0
  189.0650  177.4140  142.4260 C   0  0  0  0  0  0  0  0  0  0  0  0
  190.2290  177.3050  143.1190 N   0  0  0  0  0  0  0  0  0  0  0  0
  189.0780  177.7820  145.1500 C   0  0  0  0  0  3  0  0  0  0  0  0
  190.2560  177.4830  144.4680 C   0  0  0  0  0  0  0  0  0  0  0  0
  185.1890  178.5480  147.0170 N   0  0  0  0  0  2  0  0  0  0  0  0
  187.3820  178.0820  147.2890 O   0  0  0  0  0  0  0  0  0  0  0  0
  186.5860  178.2030  145.0980 C   0  0  0  0  0  0  0  0  0  0  0  0
  185.4600  178.4320  144.2960 C   0  0  0  0  0  3  0  0  0  0  0  0
  186.4180  178.2700  146.5000 C   0  0  0  0  0  0  0  0  0  0  0  0
  184.1290  178.7600  146.2350 N   0  0  0  0  0  0  0  0  0  0  0  0
  184.2280  178.7120  144.8830 C   0  0  0  0  0  0  0  0  0  0  0  0
  183.0670  178.9270  144.0680 C   0  0  0  0  0  0  0  0  0  0  0  0
  182.0950  179.0960  143.3760 C   0  0  0  0  0  0  0  0  0  0  0  0
  180.9170  179.2860  142.5280 C   0  0  0  0  0  2  0  0  0  0  0  0
  181.6030  179.0330  140.3150 C   0  0  0  0  0  1  0  0  0  0  0  0
  180.9570  178.3460  141.4240 N   0  0  0  0  0  2  0  0  0  0  0  0
  189.0520  177.1820  140.9570 C   0  0  0  0  0  2  0  0  0  0  0  0
  190.4400  177.4040  140.3900 C   0  0  0  0  0  2  0  0  0  0  0  0
  190.6060  176.5800  139.1320 C   0  0  0  0  0  2  0  0  0  0  0  0
  192.0700  176.5550  138.7360 C   0  0  0  0  0  2  0  0  0  0  0  0
  193.2080  175.9330  136.6950 O   0  0  0  0  0  0  0  0  0  0  0  0
  193.6120  174.8880  137.5210 N   0  0  0  0  0  0  0  0  0  0  0  0
  192.3140  175.5240  137.6290 C   0  0  1  0  0  0  0  0  0  0  0  0
  196.2360  175.1710  140.1500 O   0  0  0  0  0  1  0  0  0  0  0  0
  194.5060  175.4380  138.4550 N   0  0  0  0  0  2  0  0  0  0  0  0
  195.4050  174.6080  139.1890 C   0  0  0  0  0  0  0  0  0  0  0  0
  195.4390  173.3670  138.9820 O   0  0  0  0  0  0  0  0  0  0  0  0
  190.6440  173.8630  137.7060 O   0  0  0  0  0  0  0  0  0  0  0  0
  191.1880  174.7350  137.0480 C   0  0  0  0  0  3  0  0  0  0  0  0
  191.4490  177.3640  145.1830 O   0  0  0  0  0  0  0  0  0  0  0  0
  191.7950  176.1700  145.8700 C   0  0  0  0  0  2  0  0  0  0  0  0
  190.8580  177.0570  147.8720 O   0  0  0  0  0  0  0  0  0  0  0  0
  191.8010  176.4190  147.3380 C   0  0  0  0  0  0  0  0  0  0  0  0
  192.8560  175.9060  148.1420 N   0  0  0  0  0  1  0  0  0  0  0  0
  1  9  1  0  0  0  0
  1  5  2  0  0  0  0
  2  1  1  0  0  0  0
  3  2  2  0  0  0  0
  3  4  1  0  0  0  0
  4  6  2  0  0  0  0
  6  5  1  0  0  0  0
  6 32  1  0  0  0  0
  9 11  1  0  0  0  0
 10 13  1  0  0  0  0
 10  9  2  0  0  0  0
 11  7  1  0  0  0  0
 11  8  2  0  0  0  0
 12  7  1  0  0  0  0
 13 12  2  0  0  0  0
 14 13  1  0  0  0  0
 15 14  3  0  0  0  0
 16 15  1  0  0  0  0
 17 18  1  0  0  0  0
 18 16  1  0  0  0  0
 19  3  1  0  0  0  0
 20 19  1  0  0  0  0
 21 20  1  0  0  0  0
 22 21  1  0  0  0  0
 23 24  1  0  0  0  0
 23 25  1  0  0  0  0
 24 25  1  0  0  0  0
 24 27  1  0  0  0  0
 25 31  1  6  0  0  0
 25 22  1  0  0  0  0
 27 28  1  0  0  0  0
 28 26  1  0  0  0  0
 29 28  2  0  0  0  0
 31 30  2  0  0  0  0
 32 33  1  0  0  0  0
 33 35  1  0  0  0  0
 35 34  2  0  0  0  0
 35 36  1  0  0  0  0
M  END
>  <MODEL>
2

>  <REMARK>
 VINA RESULT:      -8.0      2.980      4.385
  Name = 
  14 active torsions:
  status: ('A' for Active; 'I' for Inactive)
    1  A    between atoms: C_4  and  C_7
    2  A    between atoms: C_8  and  C_12
    3  A    between atoms: C_8  and  O_33
    4  A    between atoms: C_9  and  C_18
    5  A    between atoms: C_9  and  C_27
    6  A    between atoms: C_11  and  C_35
    7  A    between atoms: C_15  and  C_21
    8  A    between atoms: N_16  and  N_23
    9  A    between atoms: C_18  and  C_29
   10  A    between atoms: C_19  and  N_31
   11  A    between atoms: C_19  and  C_34
   12  A    between atoms: C_21  and  C_29
   13  A    between atoms: C_24  and  C_27
   14  A    between atoms: O_33  and  C_36
                            x       y       z     vdW  Elec       q    Type
                         _______ _______ _______ _____ _____    ______ ____

>  <TORSDO>
F 14

$$$$
=
 OpenBabel10232411273D

 36 38  0  0  1  0  0  0  0  0999 V2000
  187.7860  177.7760  144.4310 C   0  0  0  0  0  0  0  0  0  0  0  0
  187.8510  177.7860  143.0700 N   0  0  0  0  0  0  0  0  0  0  0  0
  188.9880  177.4420  142.4100 C   0  0  0  0  0  0  0  0  0  0  0  0
  190.0910  177.0650  143.1080 N   0  0  0  0  0  0  0  0  0  0  0  0
  188.9200  177.3870  145.1570 C   0  0  0  0  0  3  0  0  0  0  0  0
  190.0780  177.0310  144.4680 C   0  0  0  0  0  0  0  0  0  0  0  0
  185.1660  178.6470  147.0290 N   0  0  0  0  0  2  0  0  0  0  0  0
  187.3490  178.1290  147.2870 O   0  0  0  0  0  0  0  0  0  0  0  0
  186.5130  178.1580  145.1070 C   0  0  0  0  0  0  0  0  0  0  0  0
  185.3800  178.3800  144.3140 C   0  0  0  0  0  3  0  0  0  0  0  0
  186.3750  178.3050  146.5060 C   0  0  0  0  0  0  0  0  0  0  0  0
  184.0970  178.8510  146.2560 N   0  0  0  0  0  0  0  0  0  0  0  0
  184.1690  178.7280  144.9070 C   0  0  0  0  0  0  0  0  0  0  0  0
  182.9980  178.9360  144.1030 C   0  0  0  0  0  0  0  0  0  0  0  0
  182.0170  179.0970  143.4220 C   0  0  0  0  0  0  0  0  0  0  0  0
  180.8260  179.2760  142.5920 C   0  0  0  0  0  2  0  0  0  0  0  0
  180.3770  179.7650  140.3570 C   0  0  0  0  0  1  0  0  0  0  0  0
  181.1150  178.8640  141.2310 N   0  0  0  0  0  2  0  0  0  0  0  0
  189.0140  177.4400  140.9230 C   0  0  0  0  0  2  0  0  0  0  0  0
  190.4430  177.3230  140.4350 C   0  0  0  0  0  2  0  0  0  0  0  0
  190.4670  176.5630  139.1260 C   0  0  0  0  0  2  0  0  0  0  0  0
  189.0960  176.6270  138.4820 C   0  0  0  0  0  2  0  0  0  0  0  0
  190.0560  176.5650  136.2640 O   0  0  0  0  0  0  0  0  0  0  0  0
  188.7070  176.4510  135.9410 N   0  0  0  0  0  0  0  0  0  0  0  0
  189.1880  177.2210  137.0730 C   0  0  1  0  0  0  0  0  0  0  0  0
  187.9840  172.7970  135.9100 O   0  0  0  0  0  1  0  0  0  0  0  0
  188.3030  175.1710  136.3570 N   0  0  0  0  0  2  0  0  0  0  0  0
  188.4460  174.0410  135.4980 C   0  0  0  0  0  0  0  0  0  0  0  0
  188.9760  174.1660  134.3630 O   0  0  0  0  0  0  0  0  0  0  0  0
  188.8180  179.4500  137.7390 O   0  0  0  0  0  0  0  0  0  0  0  0
  189.1960  178.6970  136.8560 C   0  0  0  0  0  3  0  0  0  0  0  0
  191.2080  176.6370  145.1870 O   0  0  0  0  0  0  0  0  0  0  0  0
  191.2770  176.7550  146.6000 C   0  0  0  0  0  2  0  0  0  0  0  0
  192.6080  174.7850  146.4600 O   0  0  0  0  0  0  0  0  0  0  0  0
  192.2770  175.7920  147.1370 C   0  0  0  0  0  0  0  0  0  0  0  0
  192.8830  176.0270  148.4020 N   0  0  0  0  0  1  0  0  0  0  0  0
  1  9  1  0  0  0  0
  1  5  2  0  0  0  0
  2  1  1  0  0  0  0
  3  2  2  0  0  0  0
  3  4  1  0  0  0  0
  4  6  2  0  0  0  0
  6  5  1  0  0  0  0
  6 32  1  0  0  0  0
  9 11  1  0  0  0  0
 10 13  1  0  0  0  0
 10  9  2  0  0  0  0
 11  7  1  0  0  0  0
 11  8  2  0  0  0  0
 12  7  1  0  0  0  0
 13 12  2  0  0  0  0
 14 13  1  0  0  0  0
 15 14  3  0  0  0  0
 16 15  1  0  0  0  0
 17 18  1  0  0  0  0
 18 16  1  0  0  0  0
 19  3  1  0  0  0  0
 20 19  1  0  0  0  0
 21 20  1  0  0  0  0
 22 21  1  0  0  0  0
 23 25  1  0  0  0  0
 24 23  1  0  0  0  0
 24 27  1  0  0  0  0
 24 25  1  0  0  0  0
 25 31  1  6  0  0  0
 25 22  1  0  0  0  0
 28 26  1  0  0  0  0
 28 27  1  0  0  0  0
 29 28  2  0  0  0  0
 31 30  2  0  0  0  0
 32 33  1  0  0  0  0
 33 35  1  0  0  0  0
 34 35  2  0  0  0  0
 35 36  1  0  0  0  0
M  END
>  <MODEL>
3

>  <REMARK>
 VINA RESULT:      -7.7      1.910      2.711
  Name = 
  14 active torsions:
  status: ('A' for Active; 'I' for Inactive)
    1  A    between atoms: C_4  and  C_7
    2  A    between atoms: C_8  and  C_12
    3  A    between atoms: C_8  and  O_33
    4  A    between atoms: C_9  and  C_18
    5  A    between atoms: C_9  and  C_27
    6  A    between atoms: C_11  and  C_35
    7  A    between atoms: C_15  and  C_21
    8  A    between atoms: N_16  and  N_23
    9  A    between atoms: C_18  and  C_29
   10  A    between atoms: C_19  and  N_31
   11  A    between atoms: C_19  and  C_34
   12  A    between atoms: C_21  and  C_29
   13  A    between atoms: C_24  and  C_27
   14  A    between atoms: O_33  and  C_36
                            x       y       z     vdW  Elec       q    Type
                         _______ _______ _______ _____ _____    ______ ____

>  <TORSDO>
F 14

$$$$
=
 OpenBabel10232411273D

 36 38  0  0  1  0  0  0  0  0999 V2000
  185.1910  178.5550  143.0000 C   0  0  0  0  0  0  0  0  0  0  0  0
  183.8950  178.6230  142.5830 N   0  0  0  0  0  0  0  0  0  0  0  0
  183.5760  178.7160  141.2650 C   0  0  0  0  0  0  0  0  0  0  0  0
  184.5590  178.7310  140.3280 N   0  0  0  0  0  0  0  0  0  0  0  0
  186.2100  178.5680  142.0370 C   0  0  0  0  0  3  0  0  0  0  0  0
  185.8690  178.6580  140.6890 C   0  0  0  0  0  0  0  0  0  0  0  0
  184.9460  178.6920  146.7810 N   0  0  0  0  0  2  0  0  0  0  0  0
  183.4260  179.2510  145.2060 O   0  0  0  0  0  0  0  0  0  0  0  0
  185.4870  178.4490  144.4570 C   0  0  0  0  0  0  0  0  0  0  0  0
  186.7430  177.9680  144.8480 C   0  0  0  0  0  3  0  0  0  0  0  0
  184.5780  178.8140  145.4760 C   0  0  0  0  0  0  0  0  0  0  0  0
  186.1490  178.2330  147.1320 N   0  0  0  0  0  0  0  0  0  0  0  0
  187.0630  177.8640  146.2000 C   0  0  0  0  0  0  0  0  0  0  0  0
  188.3550  177.3910  146.6070 C   0  0  0  0  0  0  0  0  0  0  0  0
  189.4460  177.0010  146.9380 C   0  0  0  0  0  0  0  0  0  0  0  0
  190.7780  176.5360  147.3260 C   0  0  0  0  0  2  0  0  0  0  0  0
  191.5630  176.4260  145.1340 C   0  0  0  0  0  1  0  0  0  0  0  0
  191.7680  177.0820  146.4180 N   0  0  0  0  0  2  0  0  0  0  0  0
  182.1500  178.7620  140.8460 C   0  0  0  0  0  2  0  0  0  0  0  0
  182.0270  179.4890  139.5230 C   0  0  0  0  0  2  0  0  0  0  0  0
  181.3610  178.5820  138.5110 C   0  0  0  0  0  2  0  0  0  0  0  0
  182.3730  178.1690  137.4600 C   0  0  0  0  0  2  0  0  0  0  0  0
  182.8700  176.0560  136.3970 O   0  0  0  0  0  0  0  0  0  0  0  0
  184.0150  176.2050  137.1740 N   0  0  0  0  0  0  0  0  0  0  0  0
  182.7100  176.6800  137.5890 C   0  0  1  0  0  0  0  0  0  0  0  0
  186.8900  178.3080  136.0820 O   0  0  0  0  0  0  0  0  0  0  0  0
  184.7550  177.2520  136.5980 N   0  0  0  0  0  2  0  0  0  0  0  0
  186.1820  177.2320  136.6050 C   0  0  0  0  0  0  0  0  0  0  0  0
  186.8040  176.2530  137.0940 O   0  0  0  0  0  1  0  0  0  0  0  0
  182.5540  175.6350  139.6950 O   0  0  0  0  0  0  0  0  0  0  0  0
  182.0350  175.8210  138.6070 C   0  0  0  0  0  3  0  0  0  0  0  0
  186.8800  178.6660  139.7270 O   0  0  0  0  0  0  0  0  0  0  0  0
  188.1880  178.1910  140.0090 C   0  0  0  0  0  2  0  0  0  0  0  0
  188.9880  179.4950  138.1840 O   0  0  0  0  0  0  0  0  0  0  0  0
  189.0710  178.4210  138.8340 C   0  0  0  0  0  0  0  0  0  0  0  0
  190.0330  177.4410  138.4640 N   0  0  0  0  0  1  0  0  0  0  0  0
  1  9  1  0  0  0  0
  2  1  1  0  0  0  0
  3  2  2  0  0  0  0
  4  6  2  0  0  0  0
  4  3  1  0  0  0  0
  5  1  2  0  0  0  0
  6  5  1  0  0  0  0
  7 12  1  0  0  0  0
  8 11  2  0  0  0  0
  9 10  2  0  0  0  0
  9 11  1  0  0  0  0
 10 13  1  0  0  0  0
 11  7  1  0  0  0  0
 13 14  1  0  0  0  0
 13 12  2  0  0  0  0
 14 15  3  0  0  0  0
 15 16  1  0  0  0  0
 17 18  1  0  0  0  0
 18 16  1  0  0  0  0
 19  3  1  0  0  0  0
 20 19  1  0  0  0  0
 21 20  1  0  0  0  0
 22 21  1  0  0  0  0
 23 24  1  0  0  0  0
 23 25  1  0  0  0  0
 24 25  1  0  0  0  0
 25 22  1  1  0  0  0
 25 31  1  0  0  0  0
 26 28  2  0  0  0  0
 27 28  1  0  0  0  0
 27 24  1  0  0  0  0
 28 29  1  0  0  0  0
 31 30  2  0  0  0  0
 32 33  1  0  0  0  0
 32  6  1  0  0  0  0
 34 35  2  0  0  0  0
 35 33  1  0  0  0  0
 36 35  1  0  0  0  0
M  END
>  <MODEL>
4

>  <REMARK>
 VINA RESULT:      -7.7      2.710      6.500
  Name = 
  14 active torsions:
  status: ('A' for Active; 'I' for Inactive)
    1  A    between atoms: C_4  and  C_7
    2  A    between atoms: C_8  and  C_12
    3  A    between atoms: C_8  and  O_33
    4  A    between atoms: C_9  and  C_18
    5  A    between atoms: C_9  and  C_27
    6  A    between atoms: C_11  and  C_35
    7  A    between atoms: C_15  and  C_21
    8  A    between atoms: N_16  and  N_23
    9  A    between atoms: C_18  and  C_29
   10  A    between atoms: C_19  and  N_31
   11  A    between atoms: C_19  and  C_34
   12  A    between atoms: C_21  and  C_29
   13  A    between atoms: C_24  and  C_27
   14  A    between atoms: O_33  and  C_36
                            x       y       z     vdW  Elec       q    Type
                         _______ _______ _______ _____ _____    ______ ____

>  <TORSDO>
F 14

$$$$
=
 OpenBabel10232411273D

 36 38  0  0  1  0  0  0  0  0999 V2000
  184.5600  178.6010  143.0470 C   0  0  0  0  0  0  0  0  0  0  0  0
  185.3410  178.6280  141.9300 N   0  0  0  0  0  0  0  0  0  0  0  0
  184.8010  178.7290  140.6880 C   0  0  0  0  0  0  0  0  0  0  0  0
  183.4530  178.8170  140.5370 N   0  0  0  0  0  0  0  0  0  0  0  0
  183.1690  178.6930  142.8990 C   0  0  0  0  0  3  0  0  0  0  0  0
  182.6290  178.8010  141.6190 C   0  0  0  0  0  0  0  0  0  0  0  0
  185.2230  178.6700  146.7800 N   0  0  0  0  0  2  0  0  0  0  0  0
  183.3410  179.1580  145.6300 O   0  0  0  0  0  0  0  0  0  0  0  0
  185.2030  178.4930  144.3880 C   0  0  0  0  0  0  0  0  0  0  0  0
  186.5400  178.0830  144.4540 C   0  0  0  0  0  3  0  0  0  0  0  0
  184.5460  178.7880  145.6040 C   0  0  0  0  0  0  0  0  0  0  0  0
  186.4990  178.2800  146.8200 N   0  0  0  0  0  0  0  0  0  0  0  0
  187.1810  177.9800  145.6860 C   0  0  0  0  0  0  0  0  0  0  0  0
  188.5570  177.5810  145.7600 C   0  0  0  0  0  0  0  0  0  0  0  0
  189.7090  177.2330  145.8240 C   0  0  0  0  0  0  0  0  0  0  0  0
  191.1020  176.7930  145.9050 C   0  0  0  0  0  2  0  0  0  0  0  0
  192.4100  175.6890  147.4880 C   0  0  0  0  0  1  0  0  0  0  0  0
  191.5500  176.8460  147.2840 N   0  0  0  0  0  2  0  0  0  0  0  0
  185.6860  178.7820  139.4940 C   0  0  0  0  0  2  0  0  0  0  0  0
  185.0120  178.0940  138.3240 C   0  0  0  0  0  2  0  0  0  0  0  0
  186.0240  177.8700  137.2210 C   0  0  0  0  0  2  0  0  0  0  0  0
  187.2470  177.1800  137.7920 C   0  0  0  0  0  2  0  0  0  0  0  0
  188.6590  179.1400  137.8950 O   0  0  0  0  0  0  0  0  0  0  0  0
  189.5590  178.1750  138.3410 N   0  0  0  0  0  0  0  0  0  0  0  0
  188.5270  177.9010  137.3590 C   0  0  1  0  0  0  0  0  0  0  0  0
  189.6110  176.9470  141.8570 O   0  0  0  0  0  1  0  0  0  0  0  0
  189.1300  177.7890  139.6220 N   0  0  0  0  0  2  0  0  0  0  0  0
  190.0660  177.3820  140.6180 C   0  0  0  0  0  0  0  0  0  0  0  0
  191.3020  177.4000  140.3770 O   0  0  0  0  0  0  0  0  0  0  0  0
  188.8240  176.8200  135.2870 O   0  0  0  0  0  0  0  0  0  0  0  0
  189.0190  177.8240  135.9520 C   0  0  0  0  0  3  0  0  0  0  0  0
  181.2440  178.8990  141.4680 O   0  0  0  0  0  0  0  0  0  0  0  0
  180.4000  177.7600  141.5340 C   0  0  0  0  0  2  0  0  0  0  0  0
  180.3230  175.8550  140.1060 O   0  0  0  0  0  0  0  0  0  0  0  0
  180.3250  177.1100  140.1980 C   0  0  0  0  0  0  0  0  0  0  0  0
  180.2250  177.9070  139.0240 N   0  0  0  0  0  1  0  0  0  0  0  0
  1  9  1  0  0  0  0
  2  1  1  0  0  0  0
  3  2  2  0  0  0  0
  4  3  1  0  0  0  0
  4  6  2  0  0  0  0
  5  1  2  0  0  0  0
  6  5  1  0  0  0  0
  7 12  1  0  0  0  0
  9 10  2  0  0  0  0
  9 11  1  0  0  0  0
 10 13  1  0  0  0  0
 11  8  2  0  0  0  0
 11  7  1  0  0  0  0
 13 14  1  0  0  0  0
 13 12  2  0  0  0  0
 14 15  3  0  0  0  0
 15 16  1  0  0  0  0
 16 18  1  0  0  0  0
 18 17  1  0  0  0  0
 19  3  1  0  0  0  0
 20 19  1  0  0  0  0
 21 22  1  0  0  0  0
 21 20  1  0  0  0  0
 23 24  1  0  0  0  0
 24 27  1  0  0  0  0
 25 31  1  6  0  0  0
 25 22  1  0  0  0  0
 25 23  1  0  0  0  0
 25 24  1  0  0  0  0
 27 28  1  0  0  0  0
 28 26  1  0  0  0  0
 29 28  2  0  0  0  0
 30 31  2  0  0  0  0
 32 33  1  0  0  0  0
 32  6  1  0  0  0  0
 34 35  2  0  0  0  0
 35 33  1  0  0  0  0
 36 35  1  0  0  0  0
M  END
>  <MODEL>
5

>  <REMARK>
 VINA RESULT:      -7.6      2.249      7.135
  Name = 
  14 active torsions:
  status: ('A' for Active; 'I' for Inactive)
    1  A    between atoms: C_4  and  C_7
    2  A    between atoms: C_8  and  C_12
    3  A    between atoms: C_8  and  O_33
    4  A    between atoms: C_9  and  C_18
    5  A    between atoms: C_9  and  C_27
    6  A    between atoms: C_11  and  C_35
    7  A    between atoms: C_15  and  C_21
    8  A    between atoms: N_16  and  N_23
    9  A    between atoms: C_18  and  C_29
   10  A    between atoms: C_19  and  N_31
   11  A    between atoms: C_19  and  C_34
   12  A    between atoms: C_21  and  C_29
   13  A    between atoms: C_24  and  C_27
   14  A    between atoms: O_33  and  C_36
                            x       y       z     vdW  Elec       q    Type
                         _______ _______ _______ _____ _____    ______ ____

>  <TORSDO>
F 14

$$$$
=
 OpenBabel10232411273D

 36 38  0  0  1  0  0  0  0  0999 V2000
  187.6450  177.9470  144.5760 C   0  0  0  0  0  0  0  0  0  0  0  0
  187.8460  177.8800  143.2300 N   0  0  0  0  0  0  0  0  0  0  0  0
  189.0690  177.6010  142.7070 C   0  0  0  0  0  0  0  0  0  0  0  0
  190.1240  177.3680  143.5320 N   0  0  0  0  0  0  0  0  0  0  0  0
  188.7280  177.7060  145.4320 C   0  0  0  0  0  3  0  0  0  0  0  0
  189.9750  177.4160  144.8830 C   0  0  0  0  0  0  0  0  0  0  0  0
  184.6960  178.6580  146.8500 N   0  0  0  0  0  2  0  0  0  0  0  0
  186.8610  178.2680  147.3600 O   0  0  0  0  0  0  0  0  0  0  0  0
  186.2820  178.2520  145.0980 C   0  0  0  0  0  0  0  0  0  0  0  0
  185.2360  178.4080  144.1790 C   0  0  0  0  0  3  0  0  0  0  0  0
  185.9750  178.3880  146.4720 C   0  0  0  0  0  0  0  0  0  0  0  0
  183.7130  178.8000  145.9580 N   0  0  0  0  0  0  0  0  0  0  0  0
  183.9470  178.6830  144.6270 C   0  0  0  0  0  0  0  0  0  0  0  0
  182.8670  178.8230  143.6920 C   0  0  0  0  0  0  0  0  0  0  0  0
  181.9620  178.9280  142.9030 C   0  0  0  0  0  0  0  0  0  0  0  0
  180.8660  179.0370  141.9400 C   0  0  0  0  0  2  0  0  0  0  0  0
  182.1770  179.1260  140.0150 C   0  0  0  0  0  1  0  0  0  0  0  0
  181.2060  178.3120  140.7310 N   0  0  0  0  0  2  0  0  0  0  0  0
  189.2460  177.5110  141.2330 C   0  0  0  0  0  2  0  0  0  0  0  0
  190.7000  177.2420  140.9060 C   0  0  0  0  0  2  0  0  0  0  0  0
  190.8890  177.2560  139.4040 C   0  0  0  0  0  2  0  0  0  0  0  0
  190.0490  176.1590  138.7800 C   0  0  0  0  0  2  0  0  0  0  0  0
  189.1580  175.4480  136.6480 O   0  0  0  0  0  0  0  0  0  0  0  0
  188.8320  176.8010  136.6020 N   0  0  0  0  0  0  0  0  0  0  0  0
  190.0250  176.2960  137.2550 C   0  0  1  0  0  0  0  0  0  0  0  0
  186.2140  178.4540  138.6730 O   0  0  0  0  0  1  0  0  0  0  0  0
  187.8070  176.9970  137.5420 N   0  0  0  0  0  2  0  0  0  0  0  0
  187.1840  178.2720  137.6950 C   0  0  0  0  0  0  0  0  0  0  0  0
  187.5190  179.2370  136.9580 O   0  0  0  0  0  0  0  0  0  0  0  0
  192.0030  175.5400  136.2220 O   0  0  0  0  0  0  0  0  0  0  0  0
  191.2840  176.4920  136.4780 C   0  0  0  0  0  3  0  0  0  0  0  0
  191.0560  177.1700  145.7320 O   0  0  0  0  0  0  0  0  0  0  0  0
  190.8920  176.5290  146.9890 C   0  0  0  0  0  2  0  0  0  0  0  0
  192.7280  175.0350  146.7180 O   0  0  0  0  0  0  0  0  0  0  0  0
  192.1840  175.9280  147.4180 C   0  0  0  0  0  0  0  0  0  0  0  0
  192.8210  176.3860  148.6040 N   0  0  0  0  0  1  0  0  0  0  0  0
  1  9  1  0  0  0  0
  1  5  2  0  0  0  0
  2  1  1  0  0  0  0
  3  2  2  0  0  0  0
  3  4  1  0  0  0  0
  4  6  2  0  0  0  0
  6  5  1  0  0  0  0
  6 32  1  0  0  0  0
  9 11  1  0  0  0  0
 10 13  1  0  0  0  0
 10  9  2  0  0  0  0
 11  7  1  0  0  0  0
 11  8  2  0  0  0  0
 12  7  1  0  0  0  0
 13 12  2  0  0  0  0
 14 13  1  0  0  0  0
 15 14  3  0  0  0  0
 16 15  1  0  0  0  0
 17 18  1  0  0  0  0
 18 16  1  0  0  0  0
 19  3  1  0  0  0  0
 20 19  1  0  0  0  0
 21 20  1  0  0  0  0
 22 21  1  0  0  0  0
 23 25  1  0  0  0  0
 24 23  1  0  0  0  0
 24 25  1  0  0  0  0
 24 27  1  0  0  0  0
 25 31  1  6  0  0  0
 25 22  1  0  0  0  0
 27 28  1  0  0  0  0
 28 26  1  0  0  0  0
 29 28  2  0  0  0  0
 30 31  2  0  0  0  0
 32 33  1  0  0  0  0
 33 35  1  0  0  0  0
 34 35  2  0  0  0  0
 35 36  1  0  0  0  0
M  END
>  <MODEL>
6

>  <REMARK>
 VINA RESULT:      -7.5      1.455      1.785
  Name = 
  14 active torsions:
  status: ('A' for Active; 'I' for Inactive)
    1  A    between atoms: C_4  and  C_7
    2  A    between atoms: C_8  and  C_12
    3  A    between atoms: C_8  and  O_33
    4  A    between atoms: C_9  and  C_18
    5  A    between atoms: C_9  and  C_27
    6  A    between atoms: C_11  and  C_35
    7  A    between atoms: C_15  and  C_21
    8  A    between atoms: N_16  and  N_23
    9  A    between atoms: C_18  and  C_29
   10  A    between atoms: C_19  and  N_31
   11  A    between atoms: C_19  and  C_34
   12  A    between atoms: C_21  and  C_29
   13  A    between atoms: C_24  and  C_27
   14  A    between atoms: O_33  and  C_36
                            x       y       z     vdW  Elec       q    Type
                         _______ _______ _______ _____ _____    ______ ____

>  <TORSDO>
F 14

$$$$
=
 OpenBabel10232411273D

 36 38  0  0  1  0  0  0  0  0999 V2000
  188.0530  177.8760  140.5600 C   0  0  0  0  0  0  0  0  0  0  0  0
  188.8050  177.4170  141.5990 N   0  0  0  0  0  0  0  0  0  0  0  0
  188.3660  177.4950  142.8830 C   0  0  0  0  0  0  0  0  0  0  0  0
  187.1460  178.0280  143.1530 N   0  0  0  0  0  0  0  0  0  0  0  0
  186.7930  178.4260  140.8310 C   0  0  0  0  0  3  0  0  0  0  0  0
  186.3520  178.4950  142.1510 C   0  0  0  0  0  0  0  0  0  0  0  0
  188.4510  178.0680  136.7940 N   0  0  0  0  0  2  0  0  0  0  0  0
  186.7660  178.7890  138.1140 O   0  0  0  0  0  0  0  0  0  0  0  0
  188.5790  177.7640  139.1690 C   0  0  0  0  0  0  0  0  0  0  0  0
  189.8270  177.1570  138.9770 C   0  0  0  0  0  3  0  0  0  0  0  0
  187.8910  178.2270  138.0250 C   0  0  0  0  0  0  0  0  0  0  0  0
  189.6400  177.4840  136.6320 N   0  0  0  0  0  0  0  0  0  0  0  0
  190.3490  177.0230  137.6930 C   0  0  0  0  0  0  0  0  0  0  0  0
  191.6170  176.3830  137.4860 C   0  0  0  0  0  0  0  0  0  0  0  0
  192.6880  175.8550  137.3230 C   0  0  0  0  0  0  0  0  0  0  0  0
  193.9940  175.2240  137.1370 C   0  0  0  0  0  2  0  0  0  0  0  0
  195.5700  174.1910  138.5100 C   0  0  0  0  0  1  0  0  0  0  0  0
  194.8000  175.4130  138.3290 N   0  0  0  0  0  2  0  0  0  0  0  0
  189.2040  176.9610  143.9900 C   0  0  0  0  0  2  0  0  0  0  0  0
  190.3580  176.1610  143.4200 C   0  0  0  0  0  2  0  0  0  0  0  0
  191.5620  176.3010  144.3270 C   0  0  0  0  0  2  0  0  0  0  0  0
  191.2350  177.2620  145.4530 C   0  0  0  0  0  2  0  0  0  0  0  0
  191.0360  177.3590  147.8610 O   0  0  0  0  0  0  0  0  0  0  0  0
  190.0220  176.4480  147.5750 N   0  0  0  0  0  0  0  0  0  0  0  0
  191.2470  176.5370  146.8030 C   0  0  1  0  0  0  0  0  0  0  0  0
  186.9040  178.4190  147.0620 O   0  0  0  0  0  0  0  0  0  0  0  0
  188.9960  177.1750  146.9490 N   0  0  0  0  0  2  0  0  0  0  0  0
  187.9380  177.7570  147.7100 C   0  0  0  0  0  0  0  0  0  0  0  0
  187.9290  177.6610  148.9660 O   0  0  0  0  0  1  0  0  0  0  0  0
  193.1010  175.6330  147.9410 O   0  0  0  0  0  0  0  0  0  0  0  0
  192.2400  175.4620  147.0940 C   0  0  0  0  0  3  0  0  0  0  0  0
  185.0950  179.0360  142.4250 O   0  0  0  0  0  0  0  0  0  0  0  0
  184.8480  179.8050  143.5940 C   0  0  0  0  0  2  0  0  0  0  0  0
  183.8550  179.0400  145.6190 O   0  0  0  0  0  0  0  0  0  0  0  0
  183.7410  179.1880  144.3760 C   0  0  0  0  0  0  0  0  0  0  0  0
  182.5410  178.7960  143.7210 N   0  0  0  0  0  1  0  0  0  0  0  0
  1  5  2  0  0  0  0
  1  2  1  0  0  0  0
  2  3  2  0  0  0  0
  3  4  1  0  0  0  0
  3 19  1  0  0  0  0
  5  6  1  0  0  0  0
  6 32  1  0  0  0  0
  6  4  2  0  0  0  0
  7 11  1  0  0  0  0
  9  1  1  0  0  0  0
 10  9  2  0  0  0  0
 11  8  2  0  0  0  0
 11  9  1  0  0  0  0
 12  7  1  0  0  0  0
 12 13  2  0  0  0  0
 13 10  1  0  0  0  0
 14 13  1  0  0  0  0
 15 14  3  0  0  0  0
 16 15  1  0  0  0  0
 16 18  1  0  0  0  0
 18 17  1  0  0  0  0
 20 19  1  0  0  0  0
 20 21  1  0  0  0  0
 21 22  1  0  0  0  0
 24 23  1  0  0  0  0
 25 22  1  6  0  0  0
 25 31  1  0  0  0  0
 25 24  1  0  0  0  0
 25 23  1  0  0  0  0
 26 28  2  0  0  0  0
 27 24  1  0  0  0  0
 27 28  1  0  0  0  0
 28 29  1  0  0  0  0
 31 30  2  0  0  0  0
 32 33  1  0  0  0  0
 33 35  1  0  0  0  0
 35 34  2  0  0  0  0
 36 35  1  0  0  0  0
M  END
>  <MODEL>
7

>  <REMARK>
 VINA RESULT:      -7.4      2.575      9.309
  Name = 
  14 active torsions:
  status: ('A' for Active; 'I' for Inactive)
    1  A    between atoms: C_4  and  C_7
    2  A    between atoms: C_8  and  C_12
    3  A    between atoms: C_8  and  O_33
    4  A    between atoms: C_9  and  C_18
    5  A    between atoms: C_9  and  C_27
    6  A    between atoms: C_11  and  C_35
    7  A    between atoms: C_15  and  C_21
    8  A    between atoms: N_16  and  N_23
    9  A    between atoms: C_18  and  C_29
   10  A    between atoms: C_19  and  N_31
   11  A    between atoms: C_19  and  C_34
   12  A    between atoms: C_21  and  C_29
   13  A    between atoms: C_24  and  C_27
   14  A    between atoms: O_33  and  C_36
                            x       y       z     vdW  Elec       q    Type
                         _______ _______ _______ _____ _____    ______ ____

>  <TORSDO>
F 14

$$$$
=
 OpenBabel10232411273D

 36 38  0  0  1  0  0  0  0  0999 V2000
  190.5980  176.2660  138.4580 C   0  0  0  0  0  0  0  0  0  0  0  0
  190.5530  176.3230  139.8190 N   0  0  0  0  0  0  0  0  0  0  0  0
  189.8450  177.2840  140.4680 C   0  0  0  0  0  0  0  0  0  0  0  0
  189.1490  178.2100  139.7590 N   0  0  0  0  0  0  0  0  0  0  0  0
  189.8810  177.2180  137.7210 C   0  0  0  0  0  3  0  0  0  0  0  0
  189.1540  178.1950  138.3980 C   0  0  0  0  0  0  0  0  0  0  0  0
  191.6180  173.1940  136.4840 N   0  0  0  0  0  2  0  0  0  0  0  0
  189.5670  174.0550  136.8720 O   0  0  0  0  0  0  0  0  0  0  0  0
  191.3870  175.1890  137.7950 C   0  0  0  0  0  0  0  0  0  0  0  0
  192.7810  175.2080  137.9280 C   0  0  0  0  0  3  0  0  0  0  0  0
  190.8130  174.1390  137.0430 C   0  0  0  0  0  0  0  0  0  0  0  0
  192.9450  173.2290  136.6250 N   0  0  0  0  0  0  0  0  0  0  0  0
  193.5530  174.2130  137.3330 C   0  0  0  0  0  0  0  0  0  0  0  0
  194.9810  174.2140  137.4820 C   0  0  0  0  0  0  0  0  0  0  0  0
  196.1800  174.2020  137.6050 C   0  0  0  0  0  0  0  0  0  0  0  0
  197.6350  174.1700  137.7470 C   0  0  0  0  0  2  0  0  0  0  0  0
  198.8220  175.1270  139.5100 C   0  0  0  0  0  1  0  0  0  0  0  0
  198.1000  175.4350  138.2840 N   0  0  0  0  0  2  0  0  0  0  0  0
  189.7990  177.2990  141.9540 C   0  0  0  0  0  2  0  0  0  0  0  0
  190.5220  176.0860  142.5030 C   0  0  0  0  0  2  0  0  0  0  0  0
  191.3900  176.5020  143.6700 C   0  0  0  0  0  2  0  0  0  0  0  0
  190.7040  177.6180  144.4350 C   0  0  0  0  0  2  0  0  0  0  0  0
  189.6110  178.0690  146.5430 O   0  0  0  0  0  0  0  0  0  0  0  0
  188.9430  176.9060  146.1740 N   0  0  0  0  0  0  0  0  0  0  0  0
  190.3330  177.1570  145.8480 C   0  0  1  0  0  0  0  0  0  0  0  0
  185.9480  177.9110  144.1990 O   0  0  0  0  0  0  0  0  0  0  0  0
  188.1170  177.2450  145.0890 N   0  0  0  0  0  2  0  0  0  0  0  0
  186.7610  177.6380  145.2930 C   0  0  0  0  0  0  0  0  0  0  0  0
  186.2900  177.7250  146.4580 O   0  0  0  0  0  1  0  0  0  0  0  0
  191.8800  176.9900  147.6170 O   0  0  0  0  0  0  0  0  0  0  0  0
  191.3110  176.4190  146.7010 C   0  0  0  0  0  3  0  0  0  0  0  0
  188.4330  179.1420  137.6680 O   0  0  0  0  0  0  0  0  0  0  0  0
  187.4430  178.7650  136.7230 C   0  0  0  0  0  2  0  0  0  0  0  0
  185.7330  178.8170  138.3800 O   0  0  0  0  0  0  0  0  0  0  0  0
  186.2660  178.1890  137.4300 C   0  0  0  0  0  0  0  0  0  0  0  0
  185.7250  176.9430  137.0100 N   0  0  0  0  0  1  0  0  0  0  0  0
  1  2  1  0  0  0  0
  2  3  2  0  0  0  0
  3 19  1  0  0  0  0
  4  3  1  0  0  0  0
  5  6  1  0  0  0  0
  5  1  2  0  0  0  0
  6  4  2  0  0  0  0
  7 12  1  0  0  0  0
  7 11  1  0  0  0  0
  8 11  2  0  0  0  0
  9 10  2  0  0  0  0
  9  1  1  0  0  0  0
 11  9  1  0  0  0  0
 12 13  2  0  0  0  0
 13 14  1  0  0  0  0
 13 10  1  0  0  0  0
 14 15  3  0  0  0  0
 15 16  1  0  0  0  0
 16 18  1  0  0  0  0
 18 17  1  0  0  0  0
 19 20  1  0  0  0  0
 20 21  1  0  0  0  0
 21 22  1  0  0  0  0
 24 23  1  0  0  0  0
 25 22  1  6  0  0  0
 25 24  1  0  0  0  0
 25 23  1  0  0  0  0
 25 31  1  0  0  0  0
 26 28  2  0  0  0  0
 27 28  1  0  0  0  0
 27 24  1  0  0  0  0
 28 29  1  0  0  0  0
 31 30  2  0  0  0  0
 32  6  1  0  0  0  0
 33 35  1  0  0  0  0
 33 32  1  0  0  0  0
 35 34  2  0  0  0  0
 36 35  1  0  0  0  0
M  END
>  <MODEL>
8

>  <REMARK>
 VINA RESULT:      -7.4      4.058     10.557
  Name = 
  14 active torsions:
  status: ('A' for Active; 'I' for Inactive)
    1  A    between atoms: C_4  and  C_7
    2  A    between atoms: C_8  and  C_12
    3  A    between atoms: C_8  and  O_33
    4  A    between atoms: C_9  and  C_18
    5  A    between atoms: C_9  and  C_27
    6  A    between atoms: C_11  and  C_35
    7  A    between atoms: C_15  and  C_21
    8  A    between atoms: N_16  and  N_23
    9  A    between atoms: C_18  and  C_29
   10  A    between atoms: C_19  and  N_31
   11  A    between atoms: C_19  and  C_34
   12  A    between atoms: C_21  and  C_29
   13  A    between atoms: C_24  and  C_27
   14  A    between atoms: O_33  and  C_36
                            x       y       z     vdW  Elec       q    Type
                         _______ _______ _______ _____ _____    ______ ____

>  <TORSDO>
F 14

$$$$
=
 OpenBabel10232411273D

 36 38  0  0  1  0  0  0  0  0999 V2000
  187.4140  177.9530  144.8380 C   0  0  0  0  0  0  0  0  0  0  0  0
  188.1720  178.0940  143.7140 N   0  0  0  0  0  0  0  0  0  0  0  0
  189.4850  177.7470  143.6930 C   0  0  0  0  0  0  0  0  0  0  0  0
  190.0700  177.2340  144.8070 N   0  0  0  0  0  0  0  0  0  0  0  0
  188.0110  177.4230  145.9900 C   0  0  0  0  0  3  0  0  0  0  0  0
  189.3580  177.0670  145.9540 C   0  0  0  0  0  0  0  0  0  0  0  0
  183.9380  179.1120  145.8110 N   0  0  0  0  0  2  0  0  0  0  0  0
  185.7990  178.8880  147.0710 O   0  0  0  0  0  0  0  0  0  0  0  0
  185.9770  178.3450  144.8070 C   0  0  0  0  0  0  0  0  0  0  0  0
  185.2920  178.2680  143.5870 C   0  0  0  0  0  3  0  0  0  0  0  0
  185.2530  178.7860  145.9390 C   0  0  0  0  0  0  0  0  0  0  0  0
  183.3030  179.0290  144.6390 N   0  0  0  0  0  0  0  0  0  0  0  0
  183.9450  178.6150  143.5180 C   0  0  0  0  0  0  0  0  0  0  0  0
  183.2320  178.5180  142.2760 C   0  0  0  0  0  0  0  0  0  0  0  0
  182.6230  178.4340  141.2400 C   0  0  0  0  0  0  0  0  0  0  0  0
  181.8670  178.3280  139.9920 C   0  0  0  0  0  2  0  0  0  0  0  0
  182.1070  178.3640  137.6740 C   0  0  0  0  0  1  0  0  0  0  0  0
  182.6250  178.9290  138.9110 N   0  0  0  0  0  2  0  0  0  0  0  0
  190.2740  177.8910  142.4410 C   0  0  0  0  0  2  0  0  0  0  0  0
  189.8010  176.8800  141.4170 C   0  0  0  0  0  2  0  0  0  0  0  0
  188.6750  177.4770  140.6020 C   0  0  0  0  0  2  0  0  0  0  0  0
  189.2500  178.4110  139.5560 C   0  0  0  0  0  2  0  0  0  0  0  0
  189.3570  178.6890  137.1560 O   0  0  0  0  0  0  0  0  0  0  0  0
  189.4920  177.3060  137.2420 N   0  0  0  0  0  0  0  0  0  0  0  0
  188.6900  178.0810  138.1680 C   0  0  1  0  0  0  0  0  0  0  0  0
  192.8240  175.7590  137.8620 O   0  0  0  0  0  1  0  0  0  0  0  0
  190.7660  177.0610  137.7830 N   0  0  0  0  0  2  0  0  0  0  0  0
  191.5940  176.0190  137.2690 C   0  0  0  0  0  0  0  0  0  0  0  0
  191.2120  175.3240  136.2910 O   0  0  0  0  0  0  0  0  0  0  0  0
  186.4470  178.6290  138.6340 O   0  0  0  0  0  0  0  0  0  0  0  0
  187.2190  178.0010  137.9280 C   0  0  0  0  0  3  0  0  0  0  0  0
  189.9550  176.5330  147.0980 O   0  0  0  0  0  0  0  0  0  0  0  0
  191.2440  176.9410  147.5310 C   0  0  0  0  0  2  0  0  0  0  0  0
  192.7930  175.4250  148.5210 O   0  0  0  0  0  0  0  0  0  0  0  0
  192.1800  175.7840  147.4820 C   0  0  0  0  0  0  0  0  0  0  0  0
  192.3570  175.0640  146.2690 N   0  0  0  0  0  1  0  0  0  0  0  0
  1  5  2  0  0  0  0
  2  1  1  0  0  0  0
  3  2  2  0  0  0  0
  3  4  1  0  0  0  0
  4  6  2  0  0  0  0
  6  5  1  0  0  0  0
  6 32  1  0  0  0  0
  7 11  1  0  0  0  0
  9  1  1  0  0  0  0
  9 11  1  0  0  0  0
 10  9  2  0  0  0  0
 11  8  2  0  0  0  0
 12  7  1  0  0  0  0
 13 10  1  0  0  0  0
 13 12  2  0  0  0  0
 14 13  1  0  0  0  0
 15 14  3  0  0  0  0
 16 15  1  0  0  0  0
 17 18  1  0  0  0  0
 18 16  1  0  0  0  0
 19  3  1  0  0  0  0
 20 19  1  0  0  0  0
 21 20  1  0  0  0  0
 22 21  1  0  0  0  0
 23 24  1  0  0  0  0
 23 25  1  0  0  0  0
 24 27  1  0  0  0  0
 24 25  1  0  0  0  0
 25 31  1  6  0  0  0
 25 22  1  0  0  0  0
 28 27  1  0  0  0  0
 28 26  1  0  0  0  0
 29 28  2  0  0  0  0
 31 30  2  0  0  0  0
 32 33  1  0  0  0  0
 35 33  1  0  0  0  0
 35 34  2  0  0  0  0
 36 35  1  0  0  0  0
M  END
>  <MODEL>
9

>  <REMARK>
 VINA RESULT:      -7.3      2.018      3.228
  Name = 
  14 active torsions:
  status: ('A' for Active; 'I' for Inactive)
    1  A    between atoms: C_4  and  C_7
    2  A    between atoms: C_8  and  C_12
    3  A    between atoms: C_8  and  O_33
    4  A    between atoms: C_9  and  C_18
    5  A    between atoms: C_9  and  C_27
    6  A    between atoms: C_11  and  C_35
    7  A    between atoms: C_15  and  C_21
    8  A    between atoms: N_16  and  N_23
    9  A    between atoms: C_18  and  C_29
   10  A    between atoms: C_19  and  N_31
   11  A    between atoms: C_19  and  C_34
   12  A    between atoms: C_21  and  C_29
   13  A    between atoms: C_24  and  C_27
   14  A    between atoms: O_33  and  C_36
                            x       y       z     vdW  Elec       q    Type
                         _______ _______ _______ _____ _____    ______ ____

>  <TORSDO>
F 14

$$$$
