=
 OpenBabel10232408503D

 25 28  0  0  1  0  0  0  0  0999 V2000
  187.6500  178.2090  143.1830 C   0  0  1  0  0  3  0  0  0  0  0  0
  187.9440  178.1210  141.7520 N   0  0  0  0  0  2  0  0  0  0  0  0
  188.7860  176.2150  138.0370 C   0  0  0  0  0  3  0  0  0  0  0  0
  191.1190  176.2200  138.8040 C   0  0  0  0  0  3  0  0  0  0  0  0
  191.4250  177.3860  141.0160 C   0  0  0  0  0  2  0  0  0  0  0  0
  190.8590  177.4740  139.5950 C   0  0  2  0  0  3  0  0  0  0  0  0
  189.2320  177.8460  141.1840 C   0  0  0  0  0  0  0  0  0  0  0  0
  190.3000  177.7040  141.8890 N   0  0  0  0  0  0  0  0  0  0  0  0
  189.4320  177.6880  139.7950 N   0  0  0  0  0  0  0  0  0  0  0  0
  188.4410  177.1690  138.9020 C   0  0  0  0  0  3  0  0  0  0  0  0
  190.1600  175.6710  138.0490 C   0  0  0  0  0  3  0  0  0  0  0  0
  185.6770  178.6200  144.7190 C   0  0  0  0  0  3  0  0  0  0  0  0
  186.1820  178.3820  143.4320 C   0  0  0  0  0  0  0  0  0  0  0  0
  183.4220  178.6460  143.8400 C   0  0  0  0  0  0  0  0  0  0  0  0
  185.2970  178.2690  142.3550 C   0  0  0  0  0  3  0  0  0  0  0  0
  183.9190  178.4020  142.5570 C   0  0  0  0  0  3  0  0  0  0  0  0
  181.9580  178.7880  144.0550 C   0  0  0  0  0  1  0  0  0  0  0  0
  184.3000  178.7540  144.9220 C   0  0  0  0  0  3  0  0  0  0  0  0
  188.2490  177.0450  143.9710 C   0  0  0  0  0  2  0  0  0  0  0  0
  188.9650  177.5370  145.2180 C   0  0  2  0  0  3  0  0  0  0  0  0
  190.3790  177.0700  145.1840 C   0  0  0  0  0  0  0  0  0  0  0  0
  191.3100  176.2230  144.7110 N   0  0  0  0  0  0  0  0  0  0  0  0
  191.6940  177.2100  145.5910 N   0  0  0  0  0  2  0  0  0  0  0  0
  188.6660  177.8180  147.6800 C   0  0  0  0  0  1  0  0  0  0  0  0
  188.2660  177.0080  146.4610 C   0  0  0  0  0  2  0  0  0  0  0  0
  1 13  1  0  0  0  0
  1 19  1  1  0  0  0
  2  1  1  0  0  0  0
  3 11  1  0  0  0  0
  3 10  2  0  0  0  0
  5  8  1  0  0  0  0
  6  4  1  6  0  0  0
  6  9  1  0  0  0  0
  6  5  1  0  0  0  0
  7  2  1  0  0  0  0
  7  8  2  0  0  0  0
  9  7  1  0  0  0  0
 10  9  1  0  0  0  0
 11  4  2  0  0  0  0
 12 18  1  0  0  0  0
 13 12  2  0  0  0  0
 14 17  1  0  0  0  0
 14 18  2  0  0  0  0
 15 16  2  0  0  0  0
 15 13  1  0  0  0  0
 16 14  1  0  0  0  0
 20 19  1  6  0  0  0
 20 25  1  0  0  0  0
 21 20  1  0  0  0  0
 21 23  1  0  0  0  0
 22 21  2  0  0  0  0
 22 23  1  0  0  0  0
 25 24  1  0  0  0  0
M  END
>  <MODEL>
1

>  <REMARK>
 VINA RESULT:      -7.9      0.000      0.000
  Name = 
  6 active torsions:
  status: ('A' for Active; 'I' for Inactive)
    1  A    between atoms: C_1  and  C_22
    2  A    between atoms: N_2  and  C_25
    3  A    between atoms: C_9  and  C_25
    4  A    between atoms: C_22  and  C_23
    5  A    between atoms: C_22  and  C_24
    6  A    between atoms: C_23  and  C_25
                            x       y       z     vdW  Elec       q    Type
                         _______ _______ _______ _____ _____    ______ ____

>  <TORSDO>
F 6

$$$$
=
 OpenBabel10232408503D

 25 28  0  0  1  0  0  0  0  0999 V2000
  186.1270  177.9760  143.1840 C   0  0  1  0  0  3  0  0  0  0  0  0
  187.1720  178.3740  142.2410 N   0  0  0  0  0  2  0  0  0  0  0  0
  189.4140  178.3070  138.6190 C   0  0  0  0  0  3  0  0  0  0  0  0
  190.6720  176.4830  139.6790 C   0  0  0  0  0  3  0  0  0  0  0  0
  189.9410  176.0300  142.0470 C   0  0  0  0  0  2  0  0  0  0  0  0
  190.4040  177.0820  141.0340 C   0  0  2  0  0  3  0  0  0  0  0  0
  188.3730  177.6380  141.9700 C   0  0  0  0  0  0  0  0  0  0  0  0
  188.6910  176.5540  142.5880 N   0  0  0  0  0  0  0  0  0  0  0  0
  189.3020  178.0350  140.9840 N   0  0  0  0  0  0  0  0  0  0  0  0
  188.9440  178.7390  139.7900 C   0  0  0  0  0  3  0  0  0  0  0  0
  190.2450  177.0860  138.5630 C   0  0  0  0  0  3  0  0  0  0  0  0
  187.9040  177.5710  144.9450 C   0  0  0  0  0  3  0  0  0  0  0  0
  186.6190  178.0180  144.5990 C   0  0  0  0  0  0  0  0  0  0  0  0
  187.4630  178.0750  147.2710 C   0  0  0  0  0  0  0  0  0  0  0  0
  185.7590  178.4840  145.5990 C   0  0  0  0  0  3  0  0  0  0  0  0
  186.1800  178.5140  146.9330 C   0  0  0  0  0  3  0  0  0  0  0  0
  187.9090  178.1070  148.6880 C   0  0  0  0  0  1  0  0  0  0  0  0
  188.3250  177.6020  146.2780 C   0  0  0  0  0  3  0  0  0  0  0  0
  184.8340  178.7670  142.9840 C   0  0  0  0  0  2  0  0  0  0  0  0
  184.0290  178.2180  141.8180 C   0  0  2  0  0  3  0  0  0  0  0  0
  184.5220  178.8330  140.5540 C   0  0  0  0  0  0  0  0  0  0  0  0
  184.5120  179.8550  139.6800 N   0  0  0  0  0  0  0  0  0  0  0  0
  185.3450  178.7850  139.4430 N   0  0  0  0  0  2  0  0  0  0  0  0
  182.2920  178.9900  143.4350 C   0  0  0  0  0  1  0  0  0  0  0  0
  182.5530  178.5280  142.0130 C   0  0  0  0  0  2  0  0  0  0  0  0
  1 19  1  1  0  0  0
  1 13  1  0  0  0  0
  2  1  1  0  0  0  0
  3 10  2  0  0  0  0
  5  8  1  0  0  0  0
  6  4  1  6  0  0  0
  6  5  1  0  0  0  0
  7  2  1  0  0  0  0
  7  8  2  0  0  0  0
  9  6  1  0  0  0  0
  9  7  1  0  0  0  0
 10  9  1  0  0  0  0
 11  3  1  0  0  0  0
 11  4  2  0  0  0  0
 12 18  1  0  0  0  0
 13 12  2  0  0  0  0
 13 15  1  0  0  0  0
 14 17  1  0  0  0  0
 15 16  2  0  0  0  0
 16 14  1  0  0  0  0
 18 14  2  0  0  0  0
 20 25  1  1  0  0  0
 20 19  1  0  0  0  0
 21 20  1  0  0  0  0
 22 21  2  0  0  0  0
 23 22  1  0  0  0  0
 23 21  1  0  0  0  0
 25 24  1  0  0  0  0
M  END
>  <MODEL>
2

>  <REMARK>
 VINA RESULT:      -7.8      1.713      4.770
  Name = 
  6 active torsions:
  status: ('A' for Active; 'I' for Inactive)
    1  A    between atoms: C_1  and  C_22
    2  A    between atoms: N_2  and  C_25
    3  A    between atoms: C_9  and  C_25
    4  A    between atoms: C_22  and  C_23
    5  A    between atoms: C_22  and  C_24
    6  A    between atoms: C_23  and  C_25
                            x       y       z     vdW  Elec       q    Type
                         _______ _______ _______ _____ _____    ______ ____

>  <TORSDO>
F 6

$$$$
=
 OpenBabel10232408503D

 25 28  0  0  1  0  0  0  0  0999 V2000
  188.0800  177.9230  142.7350 C   0  0  1  0  0  3  0  0  0  0  0  0
  188.1930  177.7760  141.2840 N   0  0  0  0  0  2  0  0  0  0  0  0
  188.6390  175.7250  137.5770 C   0  0  0  0  0  3  0  0  0  0  0  0
  191.0480  175.8600  138.0340 C   0  0  0  0  0  3  0  0  0  0  0  0
  191.5810  177.1450  140.1340 C   0  0  0  0  0  2  0  0  0  0  0  0
  190.8350  177.1410  138.7970 C   0  0  2  0  0  3  0  0  0  0  0  0
  189.4080  177.5250  140.5650 C   0  0  0  0  0  0  0  0  0  0  0  0
  190.5630  177.4600  141.1310 N   0  0  0  0  0  0  0  0  0  0  0  0
  189.4360  177.3080  139.1700 N   0  0  0  0  0  0  0  0  0  0  0  0
  188.3630  176.7060  138.4370 C   0  0  0  0  0  3  0  0  0  0  0  0
  190.0260  175.2370  137.4340 C   0  0  0  0  0  3  0  0  0  0  0  0
  186.2870  178.2030  144.5040 C   0  0  0  0  0  3  0  0  0  0  0  0
  186.6630  178.1810  143.1520 C   0  0  0  0  0  0  0  0  0  0  0  0
  183.9890  178.6170  143.8680 C   0  0  0  0  0  0  0  0  0  0  0  0
  185.6920  178.3690  142.1640 C   0  0  0  0  0  3  0  0  0  0  0  0
  184.3570  178.5890  142.5200 C   0  0  0  0  0  3  0  0  0  0  0  0
  182.5710  178.8510  144.2450 C   0  0  0  0  0  1  0  0  0  0  0  0
  184.9530  178.4240  144.8600 C   0  0  0  0  0  3  0  0  0  0  0  0
  188.7140  176.7530  143.4870 C   0  0  0  0  0  2  0  0  0  0  0  0
  189.8610  177.2230  144.3670 C   0  0  2  0  0  3  0  0  0  0  0  0
  189.4950  177.0160  145.7960 C   0  0  0  0  0  0  0  0  0  0  0  0
  188.5630  177.0030  146.7640 N   0  0  0  0  0  0  0  0  0  0  0  0
  189.8590  176.6670  147.0840 N   0  0  0  0  0  2  0  0  0  0  0  0
  191.6420  178.9530  144.1140 C   0  0  0  0  0  1  0  0  0  0  0  0
  190.1470  178.6940  144.1050 C   0  0  0  0  0  2  0  0  0  0  0  0
  1 13  1  0  0  0  0
  1 19  1  1  0  0  0
  2  1  1  0  0  0  0
  3 10  2  0  0  0  0
  5  8  1  0  0  0  0
  6  4  1  1  0  0  0
  6  9  1  0  0  0  0
  6  5  1  0  0  0  0
  7  8  2  0  0  0  0
  7  2  1  0  0  0  0
  9  7  1  0  0  0  0
 10  9  1  0  0  0  0
 11  3  1  0  0  0  0
 11  4  2  0  0  0  0
 12 18  1  0  0  0  0
 13 12  2  0  0  0  0
 14 17  1  0  0  0  0
 14 18  2  0  0  0  0
 15 16  2  0  0  0  0
 15 13  1  0  0  0  0
 16 14  1  0  0  0  0
 20 19  1  6  0  0  0
 20 21  1  0  0  0  0
 21 22  2  0  0  0  0
 21 23  1  0  0  0  0
 22 23  1  0  0  0  0
 25 24  1  0  0  0  0
 25 20  1  0  0  0  0
M  END
>  <MODEL>
3

>  <REMARK>
 VINA RESULT:      -7.7      1.245      1.618
  Name = 
  6 active torsions:
  status: ('A' for Active; 'I' for Inactive)
    1  A    between atoms: C_1  and  C_22
    2  A    between atoms: N_2  and  C_25
    3  A    between atoms: C_9  and  C_25
    4  A    between atoms: C_22  and  C_23
    5  A    between atoms: C_22  and  C_24
    6  A    between atoms: C_23  and  C_25
                            x       y       z     vdW  Elec       q    Type
                         _______ _______ _______ _____ _____    ______ ____

>  <TORSDO>
F 6

$$$$
=
 OpenBabel10232408503D

 25 28  0  0  1  0  0  0  0  0999 V2000
  188.4190  177.8390  141.4270 C   0  0  1  0  0  3  0  0  0  0  0  0
  187.9370  177.3550  140.1330 N   0  0  0  0  0  2  0  0  0  0  0  0
  188.1540  175.4030  136.3530 C   0  0  0  0  0  3  0  0  0  0  0  0
  189.0520  177.5390  135.5390 C   0  0  0  0  0  3  0  0  0  0  0  0
  189.0910  179.3290  137.3100 C   0  0  0  0  0  2  0  0  0  0  0  0
  188.2520  178.2760  136.5800 C   0  0  2  0  0  3  0  0  0  0  0  0
  188.2360  177.9460  138.8610 C   0  0  0  0  0  0  0  0  0  0  0  0
  188.9280  179.0240  138.7270 N   0  0  0  0  0  0  0  0  0  0  0  0
  187.8100  177.3790  137.6400 N   0  0  0  0  0  0  0  0  0  0  0  0
  187.6260  175.9740  137.4370 C   0  0  0  0  0  3  0  0  0  0  0  0
  188.9620  176.2090  135.4150 C   0  0  0  0  0  3  0  0  0  0  0  0
  187.3060  177.6190  143.6930 C   0  0  0  0  0  3  0  0  0  0  0  0
  187.2860  178.0970  142.3740 C   0  0  0  0  0  0  0  0  0  0  0  0
  185.1130  178.5680  144.0800 C   0  0  0  0  0  0  0  0  0  0  0  0
  186.1690  178.8020  141.9130 C   0  0  0  0  0  3  0  0  0  0  0  0
  185.0850  179.0390  142.7640 C   0  0  0  0  0  3  0  0  0  0  0  0
  183.9610  178.8200  144.9840 C   0  0  0  0  0  1  0  0  0  0  0  0
  186.2230  177.8570  144.5450 C   0  0  0  0  0  3  0  0  0  0  0  0
  189.4920  176.9280  142.0240 C   0  0  0  0  0  2  0  0  0  0  0  0
  190.8280  177.6450  142.1230 C   0  0  2  0  0  3  0  0  0  0  0  0
  191.6100  177.3910  140.8810 C   0  0  0  0  0  0  0  0  0  0  0  0
  191.6460  177.0290  139.5860 N   0  0  0  0  0  0  0  0  0  0  0  0
  192.8200  177.3850  140.2110 N   0  0  0  0  0  2  0  0  0  0  0  0
  191.1260  177.8660  144.5910 C   0  0  0  0  0  1  0  0  0  0  0  0
  191.5950  177.1490  143.3390 C   0  0  0  0  0  2  0  0  0  0  0  0
  1 19  1  1  0  0  0
  1 13  1  0  0  0  0
  2  1  1  0  0  0  0
  3 10  2  0  0  0  0
  5  8  1  0  0  0  0
  6  4  1  6  0  0  0
  6  5  1  0  0  0  0
  6  9  1  0  0  0  0
  7  2  1  0  0  0  0
  8  7  2  0  0  0  0
  9  7  1  0  0  0  0
 10  9  1  0  0  0  0
 11  4  2  0  0  0  0
 11  3  1  0  0  0  0
 12 18  1  0  0  0  0
 13 12  2  0  0  0  0
 14 18  2  0  0  0  0
 14 17  1  0  0  0  0
 15 13  1  0  0  0  0
 15 16  2  0  0  0  0
 16 14  1  0  0  0  0
 20 19  1  6  0  0  0
 20 25  1  0  0  0  0
 21 20  1  0  0  0  0
 22 23  1  0  0  0  0
 22 21  2  0  0  0  0
 23 21  1  0  0  0  0
 25 24  1  0  0  0  0
M  END
>  <MODEL>
4

>  <REMARK>
 VINA RESULT:      -7.7      2.279      3.239
  Name = 
  6 active torsions:
  status: ('A' for Active; 'I' for Inactive)
    1  A    between atoms: C_1  and  C_22
    2  A    between atoms: N_2  and  C_25
    3  A    between atoms: C_9  and  C_25
    4  A    between atoms: C_22  and  C_23
    5  A    between atoms: C_22  and  C_24
    6  A    between atoms: C_23  and  C_25
                            x       y       z     vdW  Elec       q    Type
                         _______ _______ _______ _____ _____    ______ ____

>  <TORSDO>
F 6

$$$$
=
 OpenBabel10232408503D

 25 28  0  0  1  0  0  0  0  0999 V2000
  187.7760  177.9820  143.1590 C   0  0  1  0  0  3  0  0  0  0  0  0
  186.4640  178.3590  142.6340 N   0  0  0  0  0  2  0  0  0  0  0  0
  182.6790  177.7820  140.7660 C   0  0  0  0  0  3  0  0  0  0  0  0
  183.9130  178.0510  138.6600 C   0  0  0  0  0  3  0  0  0  0  0  0
  186.3490  178.5900  139.0100 C   0  0  0  0  0  2  0  0  0  0  0  0
  184.9010  178.9530  139.3510 C   0  0  2  0  0  3  0  0  0  0  0  0
  186.1400  178.5240  141.2470 C   0  0  0  0  0  0  0  0  0  0  0  0
  187.0070  178.4130  140.3000 N   0  0  0  0  0  0  0  0  0  0  0  0
  184.8300  178.8050  140.7990 N   0  0  0  0  0  0  0  0  0  0  0  0
  183.6470  178.3640  141.4740 C   0  0  0  0  0  3  0  0  0  0  0  0
  182.8610  177.5500  139.3180 C   0  0  0  0  0  3  0  0  0  0  0  0
  186.5810  178.0420  145.3930 C   0  0  0  0  0  3  0  0  0  0  0  0
  187.7680  177.9090  144.6570 C   0  0  0  0  0  0  0  0  0  0  0  0
  187.8250  177.8160  147.4570 C   0  0  0  0  0  0  0  0  0  0  0  0
  188.9820  177.7390  145.3310 C   0  0  0  0  0  3  0  0  0  0  0  0
  189.0110  177.6900  146.7280 C   0  0  0  0  0  3  0  0  0  0  0  0
  187.8570  177.7640  148.9420 C   0  0  0  0  0  1  0  0  0  0  0  0
  186.6100  177.9930  146.7900 C   0  0  0  0  0  3  0  0  0  0  0  0
  188.3170  176.7080  142.5090 C   0  0  0  0  0  2  0  0  0  0  0  0
  189.8270  176.7750  142.3460 C   0  0  2  0  0  3  0  0  0  0  0  0
  190.1560  176.8470  140.8940 C   0  0  0  0  0  0  0  0  0  0  0  0
  190.4810  176.2270  139.7470 N   0  0  0  0  0  0  0  0  0  0  0  0
  190.3200  177.5940  139.7420 N   0  0  0  0  0  2  0  0  0  0  0  0
  191.6070  175.9560  143.8920 C   0  0  0  0  0  1  0  0  0  0  0  0
  190.4720  175.5470  142.9710 C   0  0  0  0  0  2  0  0  0  0  0  0
  1 19  1  6  0  0  0
  1 13  1  0  0  0  0
  2  1  1  0  0  0  0
  3 10  2  0  0  0  0
  4 11  2  0  0  0  0
  5  6  1  0  0  0  0
  5  8  1  0  0  0  0
  6  4  1  6  0  0  0
  6  9  1  0  0  0  0
  7  2  1  0  0  0  0
  8  7  2  0  0  0  0
  9  7  1  0  0  0  0
  9 10  1  0  0  0  0
 11  3  1  0  0  0  0
 12 18  1  0  0  0  0
 13 15  1  0  0  0  0
 13 12  2  0  0  0  0
 14 17  1  0  0  0  0
 15 16  2  0  0  0  0
 16 14  1  0  0  0  0
 18 14  2  0  0  0  0
 20 19  1  6  0  0  0
 20 25  1  0  0  0  0
 21 20  1  0  0  0  0
 22 21  2  0  0  0  0
 23 22  1  0  0  0  0
 23 21  1  0  0  0  0
 25 24  1  0  0  0  0
M  END
>  <MODEL>
5

>  <REMARK>
 VINA RESULT:      -7.7      2.394      4.994
  Name = 
  6 active torsions:
  status: ('A' for Active; 'I' for Inactive)
    1  A    between atoms: C_1  and  C_22
    2  A    between atoms: N_2  and  C_25
    3  A    between atoms: C_9  and  C_25
    4  A    between atoms: C_22  and  C_23
    5  A    between atoms: C_22  and  C_24
    6  A    between atoms: C_23  and  C_25
                            x       y       z     vdW  Elec       q    Type
                         _______ _______ _______ _____ _____    ______ ____

>  <TORSDO>
F 6

$$$$
=
 OpenBabel10232408503D

 25 28  0  0  1  0  0  0  0  0999 V2000
  187.4970  178.0380  141.9330 C   0  0  1  0  0  3  0  0  0  0  0  0
  188.1680  178.5070  140.7200 N   0  0  0  0  0  2  0  0  0  0  0  0
  188.9440  178.8200  136.5440 C   0  0  0  0  0  3  0  0  0  0  0  0
  190.3150  176.8070  136.8620 C   0  0  0  0  0  3  0  0  0  0  0  0
  190.4410  176.0730  139.2690 C   0  0  0  0  0  2  0  0  0  0  0  0
  190.6100  177.2280  138.2770 C   0  0  2  0  0  3  0  0  0  0  0  0
  189.1140  177.7550  139.9490 C   0  0  0  0  0  0  0  0  0  0  0  0
  189.5250  176.5820  140.2850 N   0  0  0  0  0  0  0  0  0  0  0  0
  189.6620  178.2340  138.7390 N   0  0  0  0  0  0  0  0  0  0  0  0
  188.9690  179.1110  137.8450 C   0  0  0  0  0  3  0  0  0  0  0  0
  189.5770  177.5770  136.0540 C   0  0  0  0  0  3  0  0  0  0  0  0
  189.7480  178.4350  143.0270 C   0  0  0  0  0  3  0  0  0  0  0  0
  188.4640  177.8710  143.0660 C   0  0  0  0  0  0  0  0  0  0  0  0
  190.2440  177.4800  145.1950 C   0  0  0  0  0  0  0  0  0  0  0  0
  188.0820  177.1040  144.1720 C   0  0  0  0  0  3  0  0  0  0  0  0
  188.9680  176.9100  145.2360 C   0  0  0  0  0  3  0  0  0  0  0  0
  191.1860  177.2740  146.3250 C   0  0  0  0  0  1  0  0  0  0  0  0
  190.6340  178.2420  144.0910 C   0  0  0  0  0  3  0  0  0  0  0  0
  186.2960  178.9080  142.3040 C   0  0  0  0  0  2  0  0  0  0  0  0
  185.0210  178.3870  141.6600 C   0  0  2  0  0  3  0  0  0  0  0  0
  184.9030  178.9560  140.2870 C   0  0  0  0  0  0  0  0  0  0  0  0
  184.4630  179.9270  139.4680 N   0  0  0  0  0  0  0  0  0  0  0  0
  185.1910  178.8860  138.9370 N   0  0  0  0  0  2  0  0  0  0  0  0
  184.1750  178.7900  143.9730 C   0  0  0  0  0  1  0  0  0  0  0  0
  183.8160  178.7830  142.4990 C   0  0  0  0  0  2  0  0  0  0  0  0
  1 19  1  1  0  0  0
  1 13  1  0  0  0  0
  2  1  1  0  0  0  0
  3 10  2  0  0  0  0
  5  8  1  0  0  0  0
  6  4  1  6  0  0  0
  6  9  1  0  0  0  0
  6  5  1  0  0  0  0
  7  8  2  0  0  0  0
  7  2  1  0  0  0  0
  9  7  1  0  0  0  0
 10  9  1  0  0  0  0
 11  3  1  0  0  0  0
 11  4  2  0  0  0  0
 12 13  2  0  0  0  0
 12 18  1  0  0  0  0
 13 15  1  0  0  0  0
 14 16  1  0  0  0  0
 14 17  1  0  0  0  0
 15 16  2  0  0  0  0
 18 14  2  0  0  0  0
 20 19  1  1  0  0  0
 20 25  1  0  0  0  0
 21 20  1  0  0  0  0
 22 21  2  0  0  0  0
 23 22  1  0  0  0  0
 23 21  1  0  0  0  0
 25 24  1  0  0  0  0
M  END
>  <MODEL>
6

>  <REMARK>
 VINA RESULT:      -7.2      2.027      5.092
  Name = 
  6 active torsions:
  status: ('A' for Active; 'I' for Inactive)
    1  A    between atoms: C_1  and  C_22
    2  A    between atoms: N_2  and  C_25
    3  A    between atoms: C_9  and  C_25
    4  A    between atoms: C_22  and  C_23
    5  A    between atoms: C_22  and  C_24
    6  A    between atoms: C_23  and  C_25
                            x       y       z     vdW  Elec       q    Type
                         _______ _______ _______ _____ _____    ______ ____

>  <TORSDO>
F 6

$$$$
=
 OpenBabel10232408503D

 25 28  0  0  1  0  0  0  0  0999 V2000
  188.7830  177.3850  142.3440 C   0  0  1  0  0  3  0  0  0  0  0  0
  188.5850  176.8100  141.0130 N   0  0  0  0  0  2  0  0  0  0  0  0
  189.7100  175.2710  137.2040 C   0  0  0  0  0  3  0  0  0  0  0  0
  189.7330  177.6220  136.4960 C   0  0  0  0  0  3  0  0  0  0  0  0
  188.9910  179.2040  138.3100 C   0  0  0  0  0  2  0  0  0  0  0  0
  188.6650  177.9400  137.5080 C   0  0  2  0  0  3  0  0  0  0  0  0
  188.6820  177.5270  139.7750 C   0  0  0  0  0  0  0  0  0  0  0  0
  188.9010  178.7950  139.7080 N   0  0  0  0  0  0  0  0  0  0  0  0
  188.5640  176.8950  138.5180 N   0  0  0  0  0  0  0  0  0  0  0  0
  188.9550  175.5400  138.2700 C   0  0  0  0  0  3  0  0  0  0  0  0
  190.1770  176.3700  136.3340 C   0  0  0  0  0  3  0  0  0  0  0  0
  186.4200  178.2960  142.2510 C   0  0  0  0  0  3  0  0  0  0  0  0
  187.4770  177.7410  142.9880 C   0  0  0  0  0  0  0  0  0  0  0  0
  185.0770  178.4320  144.2610 C   0  0  0  0  0  0  0  0  0  0  0  0
  187.3270  177.5430  144.3650 C   0  0  0  0  0  3  0  0  0  0  0  0
  186.1300  177.8860  145.0010 C   0  0  0  0  0  3  0  0  0  0  0  0
  183.8050  178.7960  144.9360 C   0  0  0  0  0  1  0  0  0  0  0  0
  185.2220  178.6390  142.8860 C   0  0  0  0  0  3  0  0  0  0  0  0
  189.6580  176.5010  143.2330 C   0  0  0  0  0  2  0  0  0  0  0  0
  190.8490  177.2740  143.7730 C   0  0  2  0  0  3  0  0  0  0  0  0
  191.0210  176.9570  145.2190 C   0  0  0  0  0  0  0  0  0  0  0  0
  190.4880  176.5900  146.3960 N   0  0  0  0  0  0  0  0  0  0  0  0
  191.8460  176.7950  146.3160 N   0  0  0  0  0  2  0  0  0  0  0  0
  191.8020  179.5520  144.1390 C   0  0  0  0  0  1  0  0  0  0  0  0
  190.6280  178.7670  143.5850 C   0  0  0  0  0  2  0  0  0  0  0  0
  1 13  1  0  0  0  0
  1 19  1  1  0  0  0
  2  1  1  0  0  0  0
  3 10  2  0  0  0  0
  5  8  1  0  0  0  0
  6  4  1  6  0  0  0
  6  5  1  0  0  0  0
  6  9  1  0  0  0  0
  7  2  1  0  0  0  0
  8  7  2  0  0  0  0
  9  7  1  0  0  0  0
 10  9  1  0  0  0  0
 11  4  2  0  0  0  0
 11  3  1  0  0  0  0
 12 18  2  0  0  0  0
 12 13  1  0  0  0  0
 13 15  2  0  0  0  0
 14 17  1  0  0  0  0
 14 16  2  0  0  0  0
 15 16  1  0  0  0  0
 18 14  1  0  0  0  0
 20 19  1  1  0  0  0
 20 21  1  0  0  0  0
 21 23  1  0  0  0  0
 21 22  2  0  0  0  0
 23 22  1  0  0  0  0
 25 20  1  0  0  0  0
 25 24  1  0  0  0  0
M  END
>  <MODEL>
7

>  <REMARK>
 VINA RESULT:      -7.2      1.653      2.527
  Name = 
  6 active torsions:
  status: ('A' for Active; 'I' for Inactive)
    1  A    between atoms: C_1  and  C_22
    2  A    between atoms: N_2  and  C_25
    3  A    between atoms: C_9  and  C_25
    4  A    between atoms: C_22  and  C_23
    5  A    between atoms: C_22  and  C_24
    6  A    between atoms: C_23  and  C_25
                            x       y       z     vdW  Elec       q    Type
                         _______ _______ _______ _____ _____    ______ ____

>  <TORSDO>
F 6

$$$$
=
 OpenBabel10232408503D

 25 28  0  0  1  0  0  0  0  0999 V2000
  186.7410  178.2360  142.5240 C   0  0  1  0  0  3  0  0  0  0  0  0
  185.3660  177.9690  142.1010 N   0  0  0  0  0  2  0  0  0  0  0  0
  182.2560  176.3480  139.6850 C   0  0  0  0  0  3  0  0  0  0  0  0
  182.6020  178.3310  138.2780 C   0  0  0  0  0  3  0  0  0  0  0  0
  184.3140  179.9190  139.2220 C   0  0  0  0  0  2  0  0  0  0  0  0
  183.0380  179.1160  139.4870 C   0  0  2  0  0  3  0  0  0  0  0  0
  184.6980  178.5980  141.0000 C   0  0  0  0  0  0  0  0  0  0  0  0
  185.2320  179.5290  140.2880 N   0  0  0  0  0  0  0  0  0  0  0  0
  183.3970  178.2330  140.5900 N   0  0  0  0  0  0  0  0  0  0  0  0
  182.8600  176.9130  140.7300 C   0  0  0  0  0  3  0  0  0  0  0  0
  182.1980  177.0600  138.3910 C   0  0  0  0  0  3  0  0  0  0  0  0
  185.8580  178.4120  144.8920 C   0  0  0  0  0  3  0  0  0  0  0  0
  186.8980  178.0900  144.0080 C   0  0  0  0  0  0  0  0  0  0  0  0
  187.2700  177.8440  146.7750 C   0  0  0  0  0  0  0  0  0  0  0  0
  188.1250  177.6540  144.5170 C   0  0  0  0  0  3  0  0  0  0  0  0
  188.3120  177.5290  145.8970 C   0  0  0  0  0  3  0  0  0  0  0  0
  187.4680  177.7120  148.2410 C   0  0  0  0  0  1  0  0  0  0  0  0
  186.0430  178.2870  146.2730 C   0  0  0  0  0  3  0  0  0  0  0  0
  187.7600  177.4090  141.7380 C   0  0  0  0  0  2  0  0  0  0  0  0
  188.8380  178.2960  141.1360 C   0  0  2  0  0  3  0  0  0  0  0  0
  188.6070  178.4130  139.6690 C   0  0  0  0  0  0  0  0  0  0  0  0
  188.9800  178.8970  138.4710 N   0  0  0  0  0  0  0  0  0  0  0  0
  187.8750  178.0790  138.5440 N   0  0  0  0  0  2  0  0  0  0  0  0
  190.0810  176.2740  141.9090 C   0  0  0  0  0  1  0  0  0  0  0  0
  190.2110  177.7010  141.4070 C   0  0  0  0  0  2  0  0  0  0  0  0
  1 19  1  6  0  0  0
  1 13  1  0  0  0  0
  2  1  1  0  0  0  0
  3 10  2  0  0  0  0
  4 11  2  0  0  0  0
  5  6  1  0  0  0  0
  5  8  1  0  0  0  0
  6  4  1  6  0  0  0
  6  9  1  0  0  0  0
  7  2  1  0  0  0  0
  8  7  2  0  0  0  0
  9 10  1  0  0  0  0
  9  7  1  0  0  0  0
 11  3  1  0  0  0  0
 12 18  1  0  0  0  0
 13 15  1  0  0  0  0
 13 12  2  0  0  0  0
 14 17  1  0  0  0  0
 15 16  2  0  0  0  0
 16 14  1  0  0  0  0
 18 14  2  0  0  0  0
 20 25  1  6  0  0  0
 20 19  1  0  0  0  0
 21 20  1  0  0  0  0
 22 23  1  0  0  0  0
 22 21  2  0  0  0  0
 23 21  1  0  0  0  0
 25 24  1  0  0  0  0
M  END
>  <MODEL>
8

>  <REMARK>
 VINA RESULT:      -7.1      2.845      5.693
  Name = 
  6 active torsions:
  status: ('A' for Active; 'I' for Inactive)
    1  A    between atoms: C_1  and  C_22
    2  A    between atoms: N_2  and  C_25
    3  A    between atoms: C_9  and  C_25
    4  A    between atoms: C_22  and  C_23
    5  A    between atoms: C_22  and  C_24
    6  A    between atoms: C_23  and  C_25
                            x       y       z     vdW  Elec       q    Type
                         _______ _______ _______ _____ _____    ______ ____

>  <TORSDO>
F 6

$$$$
=
 OpenBabel10232408503D

 25 28  0  0  1  0  0  0  0  0999 V2000
  188.1820  177.8620  142.1970 C   0  0  1  0  0  3  0  0  0  0  0  0
  188.1350  178.1750  140.7680 N   0  0  0  0  0  2  0  0  0  0  0  0
  187.4620  177.4650  136.6230 C   0  0  0  0  0  3  0  0  0  0  0  0
  189.7320  176.5300  136.6300 C   0  0  0  0  0  3  0  0  0  0  0  0
  190.8770  176.7440  138.8640 C   0  0  0  0  0  2  0  0  0  0  0  0
  190.1170  177.4650  137.7460 C   0  0  2  0  0  3  0  0  0  0  0  0
  189.0890  177.7430  139.7900 C   0  0  0  0  0  0  0  0  0  0  0  0
  190.1450  177.0670  140.0840 N   0  0  0  0  0  0  0  0  0  0  0  0
  188.9400  178.0080  138.4110 N   0  0  0  0  0  0  0  0  0  0  0  0
  187.6710  178.1320  137.7580 C   0  0  0  0  0  3  0  0  0  0  0  0
  188.5100  176.5720  136.0870 C   0  0  0  0  0  3  0  0  0  0  0  0
  185.7700  178.6390  142.1470 C   0  0  0  0  0  3  0  0  0  0  0  0
  186.8680  178.1380  142.8630 C   0  0  0  0  0  0  0  0  0  0  0  0
  184.4520  178.6810  144.1770 C   0  0  0  0  0  0  0  0  0  0  0  0
  186.7500  177.9190  144.2400 C   0  0  0  0  0  3  0  0  0  0  0  0
  185.5450  178.1880  144.8960 C   0  0  0  0  0  3  0  0  0  0  0  0
  183.1720  178.9660  144.8740 C   0  0  0  0  0  1  0  0  0  0  0  0
  184.5650  178.9080  142.8030 C   0  0  0  0  0  3  0  0  0  0  0  0
  188.6940  176.4470  142.4640 C   0  0  0  0  0  2  0  0  0  0  0  0
  189.7270  176.4380  143.5780 C   0  0  2  0  0  3  0  0  0  0  0  0
  190.4030  177.7650  143.6250 C   0  0  0  0  0  0  0  0  0  0  0  0
  191.2420  178.6590  143.0750 N   0  0  0  0  0  0  0  0  0  0  0  0
  190.6010  178.9830  144.2490 N   0  0  0  0  0  2  0  0  0  0  0  0
  191.8990  175.4520  144.3130 C   0  0  0  0  0  1  0  0  0  0  0  0
  190.7470  175.3360  143.3320 C   0  0  0  0  0  2  0  0  0  0  0  0
  1 19  1  6  0  0  0
  1 13  1  0  0  0  0
  2  1  1  0  0  0  0
  3 10  2  0  0  0  0
  5  8  1  0  0  0  0
  6  4  1  6  0  0  0
  6  9  1  0  0  0  0
  6  5  1  0  0  0  0
  7  8  2  0  0  0  0
  7  2  1  0  0  0  0
  9  7  1  0  0  0  0
 10  9  1  0  0  0  0
 11  3  1  0  0  0  0
 11  4  2  0  0  0  0
 12 18  2  0  0  0  0
 12 13  1  0  0  0  0
 13 15  2  0  0  0  0
 14 17  1  0  0  0  0
 14 16  2  0  0  0  0
 15 16  1  0  0  0  0
 18 14  1  0  0  0  0
 20 19  1  6  0  0  0
 20 21  1  0  0  0  0
 21 23  1  0  0  0  0
 22 21  2  0  0  0  0
 22 23  1  0  0  0  0
 25 20  1  0  0  0  0
 25 24  1  0  0  0  0
M  END
>  <MODEL>
9

>  <REMARK>
 VINA RESULT:      -7.0      1.741      2.386
  Name = 
  6 active torsions:
  status: ('A' for Active; 'I' for Inactive)
    1  A    between atoms: C_1  and  C_22
    2  A    between atoms: N_2  and  C_25
    3  A    between atoms: C_9  and  C_25
    4  A    between atoms: C_22  and  C_23
    5  A    between atoms: C_22  and  C_24
    6  A    between atoms: C_23  and  C_25
                            x       y       z     vdW  Elec       q    Type
                         _______ _______ _______ _____ _____    ______ ____

>  <TORSDO>
F 6

$$$$
