=
 OpenBabel10232408013D

 46 53  0  0  1  0  0  0  0  0999 V2000
  186.4780  175.1940  137.1780 C   0  0  0  0  0  0  0  0  0  0  0  0
  187.7190  179.3200  136.7490 C   0  0  0  0  0  3  0  0  0  0  0  0
  184.8070  173.4300  137.0480 C   0  0  0  0  0  0  0  0  0  0  0  0
  186.1300  178.1290  138.2290 C   0  0  0  0  0  0  0  0  0  0  0  0
  189.3120  177.6890  137.1480 C   0  0  0  0  0  3  0  0  0  0  0  0
  184.1550  175.7240  136.6610 C   0  0  0  0  0  3  0  0  0  0  0  0
  183.8260  174.3700  136.7380 C   0  0  0  0  0  3  0  0  0  0  0  0
  188.1520  177.0500  137.2430 C   0  0  0  0  0  0  0  0  0  0  0  0
  186.1210  173.8400  137.2730 C   0  0  0  0  0  3  0  0  0  0  0  0
  185.8850  178.3970  139.4660 N   0  0  0  0  0  0  0  0  0  0  0  0
  185.4670  176.1560  136.8820 C   0  0  0  0  0  0  0  0  0  0  0  0
  184.4750  172.0830  137.1280 O   0  0  0  0  0  1  0  0  0  0  0  0
  187.9270  175.5790  137.4330 C   0  0  2  0  0  3  0  0  0  0  0  0
  189.0330  179.1040  136.8380 C   0  0  0  0  0  3  0  0  0  0  0  0
  187.0760  178.0210  137.0430 C   0  0  2  0  0  0  0  0  0  0  0  0
  185.7120  177.6500  136.8300 C   0  0  2  0  0  3  0  0  0  0  0  0
  189.5050  173.6740  134.5300 C   0  0  0  0  0  3  0  0  0  0  0  0
  191.0570  173.6880  136.3930 C   0  0  0  0  0  0  0  0  0  0  0  0
  190.7360  173.3130  135.0850 C   0  0  0  0  0  3  0  0  0  0  0  0
  188.8880  174.7690  136.6040 C   0  0  0  0  0  0  0  0  0  0  0  0
  188.5860  174.4060  135.2840 C   0  0  0  0  0  3  0  0  0  0  0  0
  190.1270  174.4200  137.1490 C   0  0  0  0  0  3  0  0  0  0  0  0
  192.3040  173.3360  136.9130 O   0  0  0  0  0  0  0  0  0  0  0  0
  193.1180  174.2510  137.6370 C   0  0  0  0  0  2  0  0  0  0  0  0
  193.5370  175.4120  136.7340 C   0  0  2  0  0  3  0  0  0  0  0  0
  196.9850  172.2110  137.4360 C   0  0  0  0  0  1  0  0  0  0  0  0
  195.8020  174.4140  137.0670 C   0  0  0  0  0  0  0  0  0  0  0  0
  194.8270  174.1860  134.6040 S   0  0  0  0  0  0  0  0  0  0  0  0
  195.6790  172.7390  135.3310 C   0  0  0  0  0  2  0  0  0  0  0  0
  196.2040  174.8880  138.1630 O   0  0  0  0  0  0  0  0  0  0  0  0
  194.9350  175.1860  136.1390 C   0  0  1  0  0  3  0  0  0  0  0  0
  196.1720  173.1150  136.6370 N   0  0  0  0  0  0  0  0  0  0  0  0
  193.4600  176.6710  137.4520 N   0  0  0  0  0  0  0  0  0  0  0  0
  193.0640  176.7460  138.6750 C   0  0  0  0  0  2  0  0  0  0  0  0
  186.9000  178.8330  140.2810 O   0  0  0  0  0  0  0  0  0  0  0  0
  189.9940  176.8990  143.1440 C   0  0  2  0  0  0  0  0  0  0  0  0
  188.5870  177.2150  143.0740 N   0  0  0  0  0  0  0  0  0  0  0  0
  191.5700  176.8360  145.1860 C   0  0  0  0  0  1  0  0  0  0  0  0
  187.1280  178.2180  141.4890 N   0  0  0  0  0  0  0  0  0  0  0  0
  190.6440  177.5230  141.9010 C   0  0  0  0  0  2  0  0  0  0  0  0
  188.0670  177.7670  144.3130 C   0  0  0  0  0  2  0  0  0  0  0  0
  189.5090  177.9420  140.9650 C   0  0  0  0  0  2  0  0  0  0  0  0
  188.3100  177.8130  141.8230 C   0  0  0  0  0  0  0  0  0  0  0  0
  189.2330  177.7480  145.2890 C   0  0  0  0  0  2  0  0  0  0  0  0
  190.1730  175.3840  143.1270 C   0  0  0  0  0  1  0  0  0  0  0  0
  190.4770  177.5740  144.4290 C   0  0  2  0  0  3  0  0  0  0  0  0
  1  9  1  0  0  0  0
  1 13  1  0  0  0  0
  2 14  2  0  0  0  0
  3 12  1  0  0  0  0
  3  9  2  0  0  0  0
  4 10  2  0  0  0  0
  5  8  2  0  0  0  0
  6  7  2  0  0  0  0
  6 11  1  0  0  0  0
  7  3  1  0  0  0  0
  8 13  1  0  0  0  0
 10 35  1  0  0  0  0
 11  1  2  0  0  0  0
 13 20  1  6  0  0  0
 14  5  1  0  0  0  0
 15  2  1  6  0  0  0
 15  8  1  0  0  0  0
 15  4  1  0  0  0  0
 16 11  1  1  0  0  0
 16 15  1  0  0  0  0
 16  4  1  0  0  0  0
 17 19  2  0  0  0  0
 17 21  1  0  0  0  0
 18 23  1  0  0  0  0
 18 22  2  0  0  0  0
 19 18  1  0  0  0  0
 20 22  1  0  0  0  0
 21 20  2  0  0  0  0
 23 24  1  0  0  0  0
 25 33  1  0  0  0  0
 25 24  1  1  0  0  0
 27 30  2  0  0  0  0
 28 29  1  0  0  0  0
 28 31  1  0  0  0  0
 29 32  1  0  0  0  0
 31 25  1  1  0  0  0
 31 27  1  0  0  0  0
 32 27  1  0  0  0  0
 32 26  1  0  0  0  0
 33 34  2  0  0  0  0
 35 39  1  0  0  0  0
 36 45  1  1  0  0  0
 36 46  1  0  0  0  0
 37 36  1  0  0  0  0
 37 41  1  0  0  0  0
 39 43  2  0  0  0  0
 40 36  1  0  0  0  0
 41 44  1  0  0  0  0
 42 43  1  0  0  0  0
 42 40  1  0  0  0  0
 43 37  1  0  0  0  0
 46 38  1  1  0  0  0
 46 44  1  0  0  0  0
M  END
>  <MODEL>
1

>  <REMARK>
 VINA RESULT:      -8.4      0.000      0.000
  Name = 
  8 active torsions:
  status: ('A' for Active; 'I' for Inactive)
    1  A    between atoms: N_2  and  C_8
    2  A    between atoms: C_8  and  C_13
    3  A    between atoms: C_8  and  C_24
    4  A    between atoms: O_11  and  C_13
    5  A    between atoms: O_11  and  C_21
    6  A    between atoms: N_17  and  O_41
    7  A    between atoms: N_29  and  O_41
    8  A    between atoms: C_31  and  C_36
                            x       y       z     vdW  Elec       q    Type
                         _______ _______ _______ _____ _____    ______ ____

>  <TORSDO>
F 8

$$$$
=
 OpenBabel10232408013D

 46 53  0  0  1  0  0  0  0  0999 V2000
  182.0860  179.7000  138.3130 C   0  0  0  0  0  0  0  0  0  0  0  0
  181.0540  175.5730  137.5010 C   0  0  0  0  0  3  0  0  0  0  0  0
  181.7360  182.0920  138.0460 C   0  0  0  0  0  0  0  0  0  0  0  0
  181.9060  177.4530  136.1310 C   0  0  0  0  0  0  0  0  0  0  0  0
  182.6230  176.0530  139.1330 C   0  0  0  0  0  3  0  0  0  0  0  0
  180.4140  180.5400  136.7490 C   0  0  0  0  0  3  0  0  0  0  0  0
  180.7360  181.8500  137.1060 C   0  0  0  0  0  3  0  0  0  0  0  0
  182.3550  177.2270  138.5750 C   0  0  0  0  0  0  0  0  0  0  0  0
  182.4100  181.0250  138.6390 C   0  0  0  0  0  3  0  0  0  0  0  0
  182.7390  177.3720  135.1500 N   0  0  0  0  0  0  0  0  0  0  0  0
  181.0770  179.4550  137.3340 C   0  0  0  0  0  0  0  0  0  0  0  0
  182.0570  183.3980  138.3950 O   0  0  0  0  0  1  0  0  0  0  0  0
  182.8560  178.5790  138.9940 C   0  0  2  0  0  3  0  0  0  0  0  0
  181.8060  175.0260  138.4590 C   0  0  0  0  0  3  0  0  0  0  0  0
  181.3940  177.0120  137.4940 C   0  0  2  0  0  0  0  0  0  0  0  0
  180.6940  178.0750  136.8410 C   0  0  2  0  0  3  0  0  0  0  0  0
  181.6990  178.8530  142.6180 C   0  0  0  0  0  3  0  0  0  0  0  0
  184.1230  178.8650  142.5660 C   0  0  0  0  0  0  0  0  0  0  0  0
  182.9250  178.9170  143.2860 C   0  0  0  0  0  3  0  0  0  0  0  0
  182.8600  178.7170  140.4930 C   0  0  0  0  0  0  0  0  0  0  0  0
  181.6650  178.7470  141.2260 C   0  0  0  0  0  3  0  0  0  0  0  0
  184.0840  178.7640  141.1670 C   0  0  0  0  0  3  0  0  0  0  0  0
  185.3330  178.9040  143.2620 O   0  0  0  0  0  0  0  0  0  0  0  0
  185.9070  177.7500  143.8630 C   0  0  0  0  0  2  0  0  0  0  0  0
  187.1460  177.3090  143.0820 C   0  0  2  0  0  3  0  0  0  0  0  0
  191.8970  177.3830  143.3030 C   0  0  0  0  0  1  0  0  0  0  0  0
  189.5120  176.5480  143.3310 C   0  0  0  0  0  0  0  0  0  0  0  0
  188.4760  177.7120  145.4850 S   0  0  0  0  0  0  0  0  0  0  0  0
  190.1920  178.1400  145.0150 C   0  0  0  0  0  2  0  0  0  0  0  0
  189.7030  175.7710  142.3570 O   0  0  0  0  0  0  0  0  0  0  0  0
  188.1930  176.6660  144.0040 C   0  0  1  0  0  3  0  0  0  0  0  0
  190.5550  177.3470  143.8620 N   0  0  0  0  0  0  0  0  0  0  0  0
  187.7030  178.4230  142.3380 N   0  0  0  0  0  0  0  0  0  0  0  0
  187.8100  178.4120  141.0550 C   0  0  0  0  0  2  0  0  0  0  0  0
  183.7570  176.4510  135.1970 O   0  0  0  0  0  0  0  0  0  0  0  0
  188.0620  177.3830  136.6490 C   0  0  2  0  0  0  0  0  0  0  0  0
  187.2880  177.3080  135.4330 N   0  0  0  0  0  0  0  0  0  0  0  0
  190.5570  176.8650  137.0510 C   0  0  0  0  0  1  0  0  0  0  0  0
  185.0360  176.8190  134.8540 N   0  0  0  0  0  0  0  0  0  0  0  0
  187.1520  176.8730  137.7760 C   0  0  0  0  0  2  0  0  0  0  0  0
  187.9990  176.6530  134.3470 C   0  0  0  0  0  2  0  0  0  0  0  0
  185.7350  176.7950  137.2070 C   0  0  0  0  0  2  0  0  0  0  0  0
  185.9530  176.9720  135.7540 C   0  0  0  0  0  0  0  0  0  0  0  0
  189.3780  176.3290  134.9000 C   0  0  0  0  0  2  0  0  0  0  0  0
  188.4590  178.8330  136.9080 C   0  0  0  0  0  1  0  0  0  0  0  0
  189.2440  176.4420  136.4120 C   0  0  2  0  0  3  0  0  0  0  0  0
  1  9  1  0  0  0  0
  1 13  1  0  0  0  0
  2 14  2  0  0  0  0
  3 12  1  0  0  0  0
  3  9  2  0  0  0  0
  4 15  1  0  0  0  0
  6  7  2  0  0  0  0
  6 11  1  0  0  0  0
  7  3  1  0  0  0  0
  8 13  1  0  0  0  0
  8  5  2  0  0  0  0
 10 35  1  0  0  0  0
 10  4  2  0  0  0  0
 11  1  2  0  0  0  0
 13 20  1  1  0  0  0
 14  5  1  0  0  0  0
 15  2  1  1  0  0  0
 15  8  1  0  0  0  0
 16  4  1  6  0  0  0
 16 11  1  0  0  0  0
 16 15  1  0  0  0  0
 17 19  1  0  0  0  0
 18 23  1  0  0  0  0
 18 19  2  0  0  0  0
 20 22  2  0  0  0  0
 20 21  1  0  0  0  0
 21 17  2  0  0  0  0
 22 18  1  0  0  0  0
 23 24  1  0  0  0  0
 25 24  1  1  0  0  0
 26 32  1  0  0  0  0
 27 32  1  0  0  0  0
 27 31  1  0  0  0  0
 29 28  1  0  0  0  0
 30 27  2  0  0  0  0
 31 25  1  6  0  0  0
 31 28  1  0  0  0  0
 32 29  1  0  0  0  0
 33 25  1  0  0  0  0
 34 33  2  0  0  0  0
 36 45  1  1  0  0  0
 36 40  1  0  0  0  0
 37 43  1  0  0  0  0
 37 36  1  0  0  0  0
 39 35  1  0  0  0  0
 39 43  2  0  0  0  0
 41 44  1  0  0  0  0
 41 37  1  0  0  0  0
 42 40  1  0  0  0  0
 43 42  1  0  0  0  0
 44 46  1  0  0  0  0
 46 36  1  0  0  0  0
 46 38  1  6  0  0  0
M  END
>  <MODEL>
2

>  <REMARK>
 VINA RESULT:      -8.2      4.159      8.551
  Name = 
  8 active torsions:
  status: ('A' for Active; 'I' for Inactive)
    1  A    between atoms: N_2  and  C_8
    2  A    between atoms: C_8  and  C_13
    3  A    between atoms: C_8  and  C_24
    4  A    between atoms: O_11  and  C_13
    5  A    between atoms: O_11  and  C_21
    6  A    between atoms: N_17  and  O_41
    7  A    between atoms: N_29  and  O_41
    8  A    between atoms: C_31  and  C_36
                            x       y       z     vdW  Elec       q    Type
                         _______ _______ _______ _____ _____    ______ ____

>  <TORSDO>
F 8

$$$$
=
 OpenBabel10232408013D

 46 53  0  0  1  0  0  0  0  0999 V2000
  182.7380  176.0120  137.7470 C   0  0  0  0  0  0  0  0  0  0  0  0
  180.9200  179.9270  138.0910 C   0  0  0  0  0  3  0  0  0  0  0  0
  182.6520  173.6480  137.1790 C   0  0  0  0  0  0  0  0  0  0  0  0
  180.5640  177.7430  139.2020 C   0  0  0  0  0  0  0  0  0  0  0  0
  183.2050  179.7040  138.3870 C   0  0  0  0  0  3  0  0  0  0  0  0
  180.6320  174.9710  137.0920 C   0  0  0  0  0  3  0  0  0  0  0  0
  181.2860  173.7490  136.9240 C   0  0  0  0  0  3  0  0  0  0  0  0
  182.7630  178.4580  138.2660 C   0  0  0  0  0  0  0  0  0  0  0  0
  183.3700  174.7690  137.5950 C   0  0  0  0  0  3  0  0  0  0  0  0
  180.2400  177.5530  140.4360 N   0  0  0  0  0  0  0  0  0  0  0  0
  181.3350  176.1080  137.5060 C   0  0  0  0  0  0  0  0  0  0  0  0
  183.2990  172.4290  137.0150 O   0  0  0  0  0  1  0  0  0  0  0  0
  183.5750  177.1980  138.2010 C   0  0  2  0  0  3  0  0  0  0  0  0
  182.0490  180.6150  138.2750 C   0  0  0  0  0  3  0  0  0  0  0  0
  181.3090  178.5000  138.1140 C   0  0  2  0  0  0  0  0  0  0  0  0
  180.5270  177.3730  137.7110 C   0  0  2  0  0  3  0  0  0  0  0  0
  185.9070  177.4820  135.1960 C   0  0  0  0  0  3  0  0  0  0  0  0
  187.1720  177.9330  137.2150 C   0  0  0  0  0  0  0  0  0  0  0  0
  187.1130  177.8030  135.8240 C   0  0  0  0  0  3  0  0  0  0  0  0
  184.8060  177.3860  137.3550 C   0  0  0  0  0  0  0  0  0  0  0  0
  184.7540  177.2800  135.9580 C   0  0  0  0  0  3  0  0  0  0  0  0
  186.0120  177.7230  137.9770 C   0  0  0  0  0  3  0  0  0  0  0  0
  188.3860  178.2790  137.8130 O   0  0  0  0  0  0  0  0  0  0  0  0
  189.5610  177.4910  137.6680 C   0  0  0  0  0  2  0  0  0  0  0  0
  189.9190  176.8280  138.9990 C   0  0  2  0  0  3  0  0  0  0  0  0
  189.6890  177.3560  143.7210 C   0  0  0  0  0  1  0  0  0  0  0  0
  189.6870  177.8860  141.2500 C   0  0  0  0  0  0  0  0  0  0  0  0
  192.1860  177.3690  140.5060 S   0  0  0  0  0  0  0  0  0  0  0  0
  191.7090  177.0050  142.2350 C   0  0  0  0  0  2  0  0  0  0  0  0
  188.5060  178.3250  141.2780 O   0  0  0  0  0  0  0  0  0  0  0  0
  190.4880  177.8460  139.9990 C   0  0  1  0  0  3  0  0  0  0  0  0
  190.3360  177.4210  142.4210 N   0  0  0  0  0  0  0  0  0  0  0  0
  190.8300  175.7190  138.7890 N   0  0  0  0  0  0  0  0  0  0  0  0
  191.0430  175.2100  137.6250 C   0  0  0  0  0  2  0  0  0  0  0  0
  180.7350  178.3900  141.4050 O   0  0  0  0  0  0  0  0  0  0  0  0
  184.3420  179.0960  144.2340 C   0  0  2  0  0  0  0  0  0  0  0  0
  184.0410  178.9350  142.8320 N   0  0  0  0  0  0  0  0  0  0  0  0
  186.4430  178.4040  145.5620 C   0  0  0  0  0  1  0  0  0  0  0  0
  182.0910  178.5870  141.5200 N   0  0  0  0  0  0  0  0  0  0  0  0
  183.0350  178.8270  144.9940 C   0  0  0  0  0  2  0  0  0  0  0  0
  184.9910  178.0780  142.1430 C   0  0  0  0  0  2  0  0  0  0  0  0
  181.9100  178.8090  143.9570 C   0  0  0  0  0  2  0  0  0  0  0  0
  182.6460  178.7710  142.6740 C   0  0  0  0  0  0  0  0  0  0  0  0
  186.0320  177.7020  143.1860 C   0  0  0  0  0  2  0  0  0  0  0  0
  184.8140  180.5240  144.4890 C   0  0  0  0  0  1  0  0  0  0  0  0
  185.3920  178.0250  144.5290 C   0  0  2  0  0  3  0  0  0  0  0  0
  1 13  1  0  0  0  0
  2 14  2  0  0  0  0
  3  9  2  0  0  0  0
  4 10  2  0  0  0  0
  6 11  1  0  0  0  0
  7  6  2  0  0  0  0
  7  3  1  0  0  0  0
  8  5  2  0  0  0  0
  9  1  1  0  0  0  0
 10 35  1  0  0  0  0
 11  1  2  0  0  0  0
 12  3  1  0  0  0  0
 13 20  1  6  0  0  0
 13  8  1  0  0  0  0
 14  5  1  0  0  0  0
 15  2  1  6  0  0  0
 15  8  1  0  0  0  0
 15  4  1  0  0  0  0
 16 11  1  1  0  0  0
 16 15  1  0  0  0  0
 16  4  1  0  0  0  0
 17 19  2  0  0  0  0
 17 21  1  0  0  0  0
 18 23  1  0  0  0  0
 18 22  2  0  0  0  0
 19 18  1  0  0  0  0
 20 22  1  0  0  0  0
 21 20  2  0  0  0  0
 24 23  1  0  0  0  0
 25 24  1  6  0  0  0
 27 30  2  0  0  0  0
 27 32  1  0  0  0  0
 28 29  1  0  0  0  0
 29 32  1  0  0  0  0
 31 25  1  6  0  0  0
 31 28  1  0  0  0  0
 31 27  1  0  0  0  0
 32 26  1  0  0  0  0
 33 25  1  0  0  0  0
 34 33  2  0  0  0  0
 35 39  1  0  0  0  0
 36 45  1  1  0  0  0
 36 46  1  0  0  0  0
 36 40  1  0  0  0  0
 37 36  1  0  0  0  0
 39 43  2  0  0  0  0
 41 37  1  0  0  0  0
 41 44  1  0  0  0  0
 42 40  1  0  0  0  0
 43 37  1  0  0  0  0
 43 42  1  0  0  0  0
 44 46  1  0  0  0  0
 46 38  1  1  0  0  0
M  END
>  <MODEL>
3

>  <REMARK>
 VINA RESULT:      -7.9      3.403      5.958
  Name = 
  8 active torsions:
  status: ('A' for Active; 'I' for Inactive)
    1  A    between atoms: N_2  and  C_8
    2  A    between atoms: C_8  and  C_13
    3  A    between atoms: C_8  and  C_24
    4  A    between atoms: O_11  and  C_13
    5  A    between atoms: O_11  and  C_21
    6  A    between atoms: N_17  and  O_41
    7  A    between atoms: N_29  and  O_41
    8  A    between atoms: C_31  and  C_36
                            x       y       z     vdW  Elec       q    Type
                         _______ _______ _______ _____ _____    ______ ____

>  <TORSDO>
F 8

$$$$
=
 OpenBabel10232408013D

 46 53  0  0  1  0  0  0  0  0999 V2000
  182.7710  176.1450  137.8290 C   0  0  0  0  0  0  0  0  0  0  0  0
  180.9800  180.0600  138.2980 C   0  0  0  0  0  3  0  0  0  0  0  0
  182.6650  173.7970  137.2010 C   0  0  0  0  0  0  0  0  0  0  0  0
  180.6240  177.8490  139.3560 C   0  0  0  0  0  0  0  0  0  0  0  0
  183.2660  179.8170  138.5610 C   0  0  0  0  0  3  0  0  0  0  0  0
  180.6510  175.1330  137.1720 C   0  0  0  0  0  3  0  0  0  0  0  0
  181.2960  173.9130  136.9640 C   0  0  0  0  0  3  0  0  0  0  0  0
  182.8150  178.5760  138.4120 C   0  0  0  0  0  0  0  0  0  0  0  0
  183.3940  174.9030  137.6370 C   0  0  0  0  0  3  0  0  0  0  0  0
  180.3130  177.6280  140.5870 N   0  0  0  0  0  0  0  0  0  0  0  0
  181.3650  176.2550  137.6080 C   0  0  0  0  0  0  0  0  0  0  0  0
  183.3020  172.5790  136.9970 O   0  0  0  0  0  1  0  0  0  0  0  0
  183.6200  177.3140  138.3040 C   0  0  2  0  0  3  0  0  0  0  0  0
  182.1150  180.7360  138.4870 C   0  0  0  0  0  3  0  0  0  0  0  0
  181.3600  178.6310  138.2790 C   0  0  2  0  0  0  0  0  0  0  0  0
  180.5670  177.5180  137.8560 C   0  0  2  0  0  3  0  0  0  0  0  0
  185.9540  177.5040  135.2940 C   0  0  0  0  0  3  0  0  0  0  0  0
  187.1620  178.2250  137.2690 C   0  0  0  0  0  0  0  0  0  0  0  0
  187.1270  177.9680  135.8940 C   0  0  0  0  0  3  0  0  0  0  0  0
  184.8420  177.5170  137.4490 C   0  0  0  0  0  0  0  0  0  0  0  0
  184.8120  177.2850  136.0670 C   0  0  0  0  0  3  0  0  0  0  0  0
  186.0130  177.9980  138.0430 C   0  0  0  0  0  3  0  0  0  0  0  0
  188.3410  178.7120  137.8370 O   0  0  0  0  0  0  0  0  0  0  0  0
  189.6150  178.1400  137.5640 C   0  0  0  0  0  2  0  0  0  0  0  0
  190.1380  177.4040  138.7980 C   0  0  2  0  0  3  0  0  0  0  0  0
  190.1880  174.7580  134.8450 C   0  0  0  0  0  1  0  0  0  0  0  0
  189.9890  175.4310  137.2720 C   0  0  0  0  0  0  0  0  0  0  0  0
  192.4620  176.1690  137.9130 S   0  0  0  0  0  0  0  0  0  0  0  0
  192.1240  175.7040  136.1760 C   0  0  0  0  0  2  0  0  0  0  0  0
  188.7870  175.0600  137.3460 O   0  0  0  0  0  0  0  0  0  0  0  0
  190.7070  176.0250  138.4300 C   0  0  1  0  0  3  0  0  0  0  0  0
  190.7430  175.2850  136.0820 N   0  0  0  0  0  0  0  0  0  0  0  0
  189.1030  177.3020  139.8090 N   0  0  0  0  0  0  0  0  0  0  0  0
  189.3040  177.6250  141.0390 C   0  0  0  0  0  2  0  0  0  0  0  0
  180.8250  178.4370  141.5720 O   0  0  0  0  0  0  0  0  0  0  0  0
  184.5030  179.1000  144.3190 C   0  0  2  0  0  0  0  0  0  0  0  0
  184.1630  178.9840  142.9210 N   0  0  0  0  0  0  0  0  0  0  0  0
  186.6530  178.3950  145.5580 C   0  0  0  0  0  1  0  0  0  0  0  0
  182.1800  178.6520  141.6540 N   0  0  0  0  0  0  0  0  0  0  0  0
  183.2230  178.7830  145.1060 C   0  0  0  0  0  2  0  0  0  0  0  0
  185.1050  178.1680  142.1740 C   0  0  0  0  0  2  0  0  0  0  0  0
  182.0690  178.7840  144.1030 C   0  0  0  0  0  2  0  0  0  0  0  0
  182.7660  178.8030  142.7980 C   0  0  0  0  0  0  0  0  0  0  0  0
  186.1820  177.7720  143.1720 C   0  0  0  0  0  2  0  0  0  0  0  0
  184.9610  180.5250  144.6110 C   0  0  0  0  0  1  0  0  0  0  0  0
  185.5780  178.0360  144.5440 C   0  0  2  0  0  3  0  0  0  0  0  0
  1 13  1  0  0  0  0
  2 14  2  0  0  0  0
  3  9  2  0  0  0  0
  4 10  2  0  0  0  0
  6 11  1  0  0  0  0
  7  6  2  0  0  0  0
  7  3  1  0  0  0  0
  8  5  2  0  0  0  0
  9  1  1  0  0  0  0
 10 35  1  0  0  0  0
 11  1  2  0  0  0  0
 12  3  1  0  0  0  0
 13 20  1  6  0  0  0
 13  8  1  0  0  0  0
 14  5  1  0  0  0  0
 15  2  1  6  0  0  0
 15  8  1  0  0  0  0
 15  4  1  0  0  0  0
 16 11  1  1  0  0  0
 16 15  1  0  0  0  0
 16  4  1  0  0  0  0
 17 19  2  0  0  0  0
 17 21  1  0  0  0  0
 18 23  1  0  0  0  0
 18 22  2  0  0  0  0
 19 18  1  0  0  0  0
 20 22  1  0  0  0  0
 21 20  2  0  0  0  0
 24 23  1  0  0  0  0
 25 24  1  6  0  0  0
 25 33  1  0  0  0  0
 26 32  1  0  0  0  0
 27 30  2  0  0  0  0
 27 31  1  0  0  0  0
 28 31  1  0  0  0  0
 29 28  1  0  0  0  0
 31 25  1  6  0  0  0
 32 29  1  0  0  0  0
 32 27  1  0  0  0  0
 33 34  2  0  0  0  0
 35 39  1  0  0  0  0
 36 46  1  0  0  0  0
 36 45  1  1  0  0  0
 36 40  1  0  0  0  0
 37 36  1  0  0  0  0
 39 43  2  0  0  0  0
 41 37  1  0  0  0  0
 41 44  1  0  0  0  0
 42 40  1  0  0  0  0
 43 37  1  0  0  0  0
 43 42  1  0  0  0  0
 44 46  1  0  0  0  0
 46 38  1  1  0  0  0
M  END
>  <MODEL>
4

>  <REMARK>
 VINA RESULT:      -7.7      3.338      5.481
  Name = 
  8 active torsions:
  status: ('A' for Active; 'I' for Inactive)
    1  A    between atoms: N_2  and  C_8
    2  A    between atoms: C_8  and  C_13
    3  A    between atoms: C_8  and  C_24
    4  A    between atoms: O_11  and  C_13
    5  A    between atoms: O_11  and  C_21
    6  A    between atoms: N_17  and  O_41
    7  A    between atoms: N_29  and  O_41
    8  A    between atoms: C_31  and  C_36
                            x       y       z     vdW  Elec       q    Type
                         _______ _______ _______ _____ _____    ______ ____

>  <TORSDO>
F 8

$$$$
=
 OpenBabel10232408013D

 46 53  0  0  1  0  0  0  0  0999 V2000
  187.3290  175.1910  136.9310 C   0  0  0  0  0  0  0  0  0  0  0  0
  187.5180  179.5050  136.5990 C   0  0  0  0  0  3  0  0  0  0  0  0
  186.2400  173.0530  136.5290 C   0  0  0  0  0  0  0  0  0  0  0  0
  186.0150  177.9160  137.7620 C   0  0  0  0  0  0  0  0  0  0  0  0
  189.3570  178.3430  137.3910 C   0  0  0  0  0  3  0  0  0  0  0  0
  185.1120  175.1010  135.9190 C   0  0  0  0  0  3  0  0  0  0  0  0
  185.1380  173.7070  135.9810 C   0  0  0  0  0  3  0  0  0  0  0  0
  188.4090  177.4210  137.2680 C   0  0  0  0  0  0  0  0  0  0  0  0
  187.3230  173.7900  137.0070 C   0  0  0  0  0  3  0  0  0  0  0  0
  185.4510  178.0920  138.9080 N   0  0  0  0  0  0  0  0  0  0  0  0
  186.1890  175.8590  136.3910 C   0  0  0  0  0  0  0  0  0  0  0  0
  186.2600  171.6650  136.5940 O   0  0  0  0  0  1  0  0  0  0  0  0
  188.5390  175.9390  137.4680 C   0  0  2  0  0  3  0  0  0  0  0  0
  188.7930  179.6400  136.9710 C   0  0  0  0  0  3  0  0  0  0  0  0
  187.1870  178.0780  136.8070 C   0  0  2  0  0  0  0  0  0  0  0  0
  186.0430  177.3660  136.3280 C   0  0  2  0  0  3  0  0  0  0  0  0
  191.2190  174.8050  135.0020 C   0  0  0  0  0  3  0  0  0  0  0  0
  192.1220  174.6880  137.2500 C   0  0  0  0  0  0  0  0  0  0  0  0
  192.2750  174.5140  135.8710 C   0  0  0  0  0  3  0  0  0  0  0  0
  189.8310  175.4230  136.8930 C   0  0  0  0  0  0  0  0  0  0  0  0
  190.0020  175.2650  135.5110 C   0  0  0  0  0  3  0  0  0  0  0  0
  190.8950  175.1460  137.7560 C   0  0  0  0  0  3  0  0  0  0  0  0
  193.2020  174.4130  138.0910 O   0  0  0  0  0  0  0  0  0  0  0  0
  194.3540  173.7040  137.6490 C   0  0  0  0  0  2  0  0  0  0  0  0
  195.4980  174.6780  137.3680 C   0  0  2  0  0  3  0  0  0  0  0  0
  199.9540  174.6630  135.7040 C   0  0  0  0  0  1  0  0  0  0  0  0
  197.4660  175.0670  135.8790 C   0  0  0  0  0  0  0  0  0  0  0  0
  196.4330  172.6200  135.7560 S   0  0  0  0  0  0  0  0  0  0  0  0
  198.2560  172.7870  135.7790 C   0  0  0  0  0  2  0  0  0  0  0  0
  197.6000  176.3200  135.8460 O   0  0  0  0  0  0  0  0  0  0  0  0
  196.1360  174.4150  135.9950 C   0  0  1  0  0  3  0  0  0  0  0  0
  198.5800  174.1960  135.7860 N   0  0  0  0  0  0  0  0  0  0  0  0
  196.4830  174.6310  138.4320 N   0  0  0  0  0  0  0  0  0  0  0  0
  196.1580  174.6630  139.6770 C   0  0  0  0  0  2  0  0  0  0  0  0
  186.1210  178.7670  139.8990 O   0  0  0  0  0  0  0  0  0  0  0  0
  189.4470  177.6750  142.9420 C   0  0  2  0  0  0  0  0  0  0  0  0
  189.2720  177.9630  141.5390 N   0  0  0  0  0  0  0  0  0  0  0  0
  191.1250  176.0980  144.1060 C   0  0  0  0  0  1  0  0  0  0  0  0
  187.4590  178.5310  140.1120 N   0  0  0  0  0  0  0  0  0  0  0  0
  188.0390  177.6110  143.5520 C   0  0  0  0  0  2  0  0  0  0  0  0
  190.0300  177.0710  140.6770 C   0  0  0  0  0  2  0  0  0  0  0  0
  187.0730  178.1770  142.5100 C   0  0  0  0  0  2  0  0  0  0  0  0
  187.9100  178.2520  141.2920 C   0  0  0  0  0  0  0  0  0  0  0  0
  190.8090  176.1630  141.6160 C   0  0  0  0  0  2  0  0  0  0  0  0
  190.2520  178.7950  143.5930 C   0  0  0  0  0  1  0  0  0  0  0  0
  190.1330  176.3090  142.9720 C   0  0  2  0  0  3  0  0  0  0  0  0
  1  9  1  0  0  0  0
  1 13  1  0  0  0  0
  2 14  2  0  0  0  0
  3 12  1  0  0  0  0
  3  9  2  0  0  0  0
  4 10  2  0  0  0  0
  6  7  2  0  0  0  0
  6 11  1  0  0  0  0
  7  3  1  0  0  0  0
  8  5  2  0  0  0  0
  8 13  1  0  0  0  0
 10 35  1  0  0  0  0
 11  1  2  0  0  0  0
 13 20  1  6  0  0  0
 14  5  1  0  0  0  0
 15  2  1  6  0  0  0
 15  8  1  0  0  0  0
 15  4  1  0  0  0  0
 16 11  1  1  0  0  0
 16 15  1  0  0  0  0
 16  4  1  0  0  0  0
 17 21  2  0  0  0  0
 17 19  1  0  0  0  0
 18 22  1  0  0  0  0
 18 23  1  0  0  0  0
 19 18  2  0  0  0  0
 20 22  2  0  0  0  0
 21 20  1  0  0  0  0
 24 23  1  0  0  0  0
 25 24  1  1  0  0  0
 25 33  1  0  0  0  0
 26 32  1  0  0  0  0
 27 31  1  0  0  0  0
 28 29  1  0  0  0  0
 28 31  1  0  0  0  0
 29 32  1  0  0  0  0
 30 27  2  0  0  0  0
 31 25  1  1  0  0  0
 32 27  1  0  0  0  0
 33 34  2  0  0  0  0
 35 39  1  0  0  0  0
 36 46  1  0  0  0  0
 36 40  1  0  0  0  0
 36 45  1  1  0  0  0
 37 36  1  0  0  0  0
 39 43  2  0  0  0  0
 41 37  1  0  0  0  0
 41 44  1  0  0  0  0
 42 40  1  0  0  0  0
 43 37  1  0  0  0  0
 43 42  1  0  0  0  0
 44 46  1  0  0  0  0
 46 38  1  1  0  0  0
M  END
>  <MODEL>
5

>  <REMARK>
 VINA RESULT:      -7.4      1.573      2.124
  Name = 
  8 active torsions:
  status: ('A' for Active; 'I' for Inactive)
    1  A    between atoms: N_2  and  C_8
    2  A    between atoms: C_8  and  C_13
    3  A    between atoms: C_8  and  C_24
    4  A    between atoms: O_11  and  C_13
    5  A    between atoms: O_11  and  C_21
    6  A    between atoms: N_17  and  O_41
    7  A    between atoms: N_29  and  O_41
    8  A    between atoms: C_31  and  C_36
                            x       y       z     vdW  Elec       q    Type
                         _______ _______ _______ _____ _____    ______ ____

>  <TORSDO>
F 8

$$$$
=
 OpenBabel10232408013D

 46 53  0  0  1  0  0  0  0  0999 V2000
  189.7500  174.9990  136.6880 C   0  0  0  0  0  0  0  0  0  0  0  0
  187.1910  178.4800  136.3830 C   0  0  0  0  0  3  0  0  0  0  0  0
  190.9050  173.0930  135.7140 C   0  0  0  0  0  0  0  0  0  0  0  0
  186.8580  176.0460  136.0670 C   0  0  0  0  0  0  0  0  0  0  0  0
  188.3190  178.0670  138.3620 C   0  0  0  0  0  3  0  0  0  0  0  0
  189.4070  174.4070  134.3470 C   0  0  0  0  0  3  0  0  0  0  0  0
  190.3000  173.3430  134.4830 C   0  0  0  0  0  3  0  0  0  0  0  0
  188.5700  177.0030  137.6080 C   0  0  0  0  0  0  0  0  0  0  0  0
  190.6250  173.9100  136.8090 C   0  0  0  0  0  3  0  0  0  0  0  0
  185.7990  175.3720  136.3610 N   0  0  0  0  0  0  0  0  0  0  0  0
  189.1150  175.2400  135.4330 C   0  0  0  0  0  0  0  0  0  0  0  0
  191.7890  172.0290  135.8470 O   0  0  0  0  0  1  0  0  0  0  0  0
  189.4860  175.8550  137.9170 C   0  0  2  0  0  3  0  0  0  0  0  0
  187.4600  178.9850  137.5890 C   0  0  0  0  0  3  0  0  0  0  0  0
  187.8570  177.1600  136.3410 C   0  0  2  0  0  0  0  0  0  0  0  0
  188.0930  176.3340  135.1980 C   0  0  2  0  0  3  0  0  0  0  0  0
  193.1080  176.9250  138.4520 C   0  0  0  0  0  3  0  0  0  0  0  0
  191.8990  177.1780  140.5400 C   0  0  0  0  0  0  0  0  0  0  0  0
  193.0840  177.2800  139.8040 C   0  0  0  0  0  3  0  0  0  0  0  0
  190.7580  176.3320  138.5650 C   0  0  0  0  0  0  0  0  0  0  0  0
  191.9470  176.4590  137.8320 C   0  0  0  0  0  3  0  0  0  0  0  0
  190.7360  176.7030  139.9120 C   0  0  0  0  0  3  0  0  0  0  0  0
  191.9000  177.5640  141.8820 O   0  0  0  0  0  0  0  0  0  0  0  0
  191.6130  176.6550  142.9380 C   0  0  0  0  0  2  0  0  0  0  0  0
  190.7940  177.3510  144.0250 C   0  0  2  0  0  3  0  0  0  0  0  0
  186.7790  178.3340  146.3790 C   0  0  0  0  0  1  0  0  0  0  0  0
  188.8360  177.1180  145.5600 C   0  0  0  0  0  0  0  0  0  0  0  0
  188.3090  176.6700  142.9930 S   0  0  0  0  0  0  0  0  0  0  0  0
  187.1040  177.6480  143.9630 C   0  0  0  0  0  2  0  0  0  0  0  0
  189.3400  177.0550  146.7140 O   0  0  0  0  0  0  0  0  0  0  0  0
  189.5220  176.5590  144.3650 C   0  0  1  0  0  3  0  0  0  0  0  0
  187.5690  177.7080  145.3310 N   0  0  0  0  0  0  0  0  0  0  0  0
  190.4860  178.7150  143.6390 N   0  0  0  0  0  0  0  0  0  0  0  0
  191.1040  179.7300  144.1330 C   0  0  0  0  0  2  0  0  0  0  0  0
  185.0660  175.7090  137.4720 O   0  0  0  0  0  0  0  0  0  0  0  0
  182.1680  179.1210  138.6840 C   0  0  2  0  0  0  0  0  0  0  0  0
  182.2220  177.9540  137.8370 N   0  0  0  0  0  0  0  0  0  0  0  0
  180.9060  181.3460  138.3490 C   0  0  0  0  0  1  0  0  0  0  0  0
  183.8180  176.2670  137.3320 N   0  0  0  0  0  0  0  0  0  0  0  0
  183.5810  179.3110  139.2550 C   0  0  0  0  0  2  0  0  0  0  0  0
  181.6350  178.1760  136.5260 C   0  0  0  0  0  2  0  0  0  0  0  0
  184.3640  178.0340  138.9460 C   0  0  0  0  0  2  0  0  0  0  0  0
  183.4820  177.3300  137.9880 C   0  0  0  0  0  0  0  0  0  0  0  0
  181.1020  179.6000  136.5550 C   0  0  0  0  0  2  0  0  0  0  0  0
  181.1720  178.8800  139.8140 C   0  0  0  0  0  1  0  0  0  0  0  0
  181.7860  180.2630  137.7430 C   0  0  2  0  0  3  0  0  0  0  0  0
  1  9  1  0  0  0  0
  1 13  1  0  0  0  0
  2 14  2  0  0  0  0
  3 12  1  0  0  0  0
  3  9  2  0  0  0  0
  4 15  1  0  0  0  0
  4 10  2  0  0  0  0
  6  7  2  0  0  0  0
  6 11  1  0  0  0  0
  7  3  1  0  0  0  0
  8 13  1  0  0  0  0
  8  5  2  0  0  0  0
 10 35  1  0  0  0  0
 11  1  2  0  0  0  0
 13 20  1  6  0  0  0
 14  5  1  0  0  0  0
 15  2  1  6  0  0  0
 15  8  1  0  0  0  0
 16 11  1  1  0  0  0
 16  4  1  0  0  0  0
 16 15  1  0  0  0  0
 17 19  1  0  0  0  0
 18 23  1  0  0  0  0
 19 18  2  0  0  0  0
 20 22  2  0  0  0  0
 21 17  2  0  0  0  0
 21 20  1  0  0  0  0
 22 18  1  0  0  0  0
 23 24  1  0  0  0  0
 25 24  1  6  0  0  0
 27 30  2  0  0  0  0
 28 29  1  0  0  0  0
 28 31  1  0  0  0  0
 29 32  1  0  0  0  0
 31 25  1  6  0  0  0
 31 27  1  0  0  0  0
 32 27  1  0  0  0  0
 32 26  1  0  0  0  0
 33 25  1  0  0  0  0
 33 34  2  0  0  0  0
 36 40  1  0  0  0  0
 36 45  1  1  0  0  0
 37 43  1  0  0  0  0
 37 36  1  0  0  0  0
 39 35  1  0  0  0  0
 39 43  2  0  0  0  0
 41 44  1  0  0  0  0
 41 37  1  0  0  0  0
 42 40  1  0  0  0  0
 43 42  1  0  0  0  0
 44 46  1  0  0  0  0
 46 38  1  1  0  0  0
 46 36  1  0  0  0  0
M  END
>  <MODEL>
6

>  <REMARK>
 VINA RESULT:      -7.3      3.513      7.664
  Name = 
  8 active torsions:
  status: ('A' for Active; 'I' for Inactive)
    1  A    between atoms: N_2  and  C_8
    2  A    between atoms: C_8  and  C_13
    3  A    between atoms: C_8  and  C_24
    4  A    between atoms: O_11  and  C_13
    5  A    between atoms: O_11  and  C_21
    6  A    between atoms: N_17  and  O_41
    7  A    between atoms: N_29  and  O_41
    8  A    between atoms: C_31  and  C_36
                            x       y       z     vdW  Elec       q    Type
                         _______ _______ _______ _____ _____    ______ ____

>  <TORSDO>
F 8

$$$$
=
 OpenBabel10232408013D

 46 53  0  0  1  0  0  0  0  0999 V2000
  190.8920  175.6610  137.2780 C   0  0  0  0  0  0  0  0  0  0  0  0
  187.6380  178.3460  136.3000 C   0  0  0  0  0  3  0  0  0  0  0  0
  192.9400  174.4750  136.7130 C   0  0  0  0  0  0  0  0  0  0  0  0
  188.3530  176.1160  135.4920 C   0  0  0  0  0  0  0  0  0  0  0  0
  187.9120  177.6400  138.4870 C   0  0  0  0  0  3  0  0  0  0  0  0
  191.7830  175.7390  135.0090 C   0  0  0  0  0  3  0  0  0  0  0  0
  192.8530  174.9320  135.3990 C   0  0  0  0  0  3  0  0  0  0  0  0
  188.8120  176.9460  137.8000 C   0  0  0  0  0  0  0  0  0  0  0  0
  191.9630  174.8310  137.6420 C   0  0  0  0  0  3  0  0  0  0  0  0
  187.5830  175.1500  135.1240 N   0  0  0  0  0  0  0  0  0  0  0  0
  190.7940  176.1090  135.9270 C   0  0  0  0  0  0  0  0  0  0  0  0
  194.0040  173.6680  137.0970 O   0  0  0  0  0  1  0  0  0  0  0  0
  189.8590  176.0150  138.3360 C   0  0  2  0  0  3  0  0  0  0  0  0
  187.1850  178.5110  137.5450 C   0  0  0  0  0  3  0  0  0  0  0  0
  188.6820  177.3010  136.3870 C   0  0  2  0  0  0  0  0  0  0  0  0
  189.6460  176.9410  135.3940 C   0  0  2  0  0  3  0  0  0  0  0  0
  192.3150  177.6730  140.7380 C   0  0  0  0  0  3  0  0  0  0  0  0
  190.3090  177.0700  141.9610 C   0  0  0  0  0  0  0  0  0  0  0  0
  191.5910  177.6290  141.9320 C   0  0  0  0  0  3  0  0  0  0  0  0
  190.4890  176.5660  139.5870 C   0  0  0  0  0  0  0  0  0  0  0  0
  191.7630  177.1490  139.5660 C   0  0  0  0  0  3  0  0  0  0  0  0
  189.7620  176.5390  140.7810 C   0  0  0  0  0  3  0  0  0  0  0  0
  189.6000  177.0630  143.1630 O   0  0  0  0  0  0  0  0  0  0  0  0
  188.2530  176.6130  143.2530 C   0  0  0  0  0  2  0  0  0  0  0  0
  187.3760  177.6960  143.8840 C   0  0  2  0  0  3  0  0  0  0  0  0
  188.2030  178.4560  148.5060 C   0  0  0  0  0  1  0  0  0  0  0  0
  187.6810  177.2840  146.3280 C   0  0  0  0  0  0  0  0  0  0  0  0
  185.3110  178.2770  145.6460 S   0  0  0  0  0  0  0  0  0  0  0  0
  186.1310  178.9510  147.1360 C   0  0  0  0  0  2  0  0  0  0  0  0
  188.7010  176.5470  146.4040 O   0  0  0  0  0  0  0  0  0  0  0  0
  186.7300  177.2070  145.1890 C   0  0  1  0  0  3  0  0  0  0  0  0
  187.3640  178.2230  147.3410 N   0  0  0  0  0  0  0  0  0  0  0  0
  186.3800  178.1620  142.9370 N   0  0  0  0  0  0  0  0  0  0  0  0
  186.6930  178.7780  141.8510 C   0  0  0  0  0  2  0  0  0  0  0  0
  186.3890  174.9480  135.7720 O   0  0  0  0  0  0  0  0  0  0  0  0
  182.1140  176.5830  136.5210 C   0  0  2  0  0  0  0  0  0  0  0  0
  183.0150  176.2780  135.4360 N   0  0  0  0  0  0  0  0  0  0  0  0
  180.3120  178.4200  136.7000 C   0  0  0  0  0  1  0  0  0  0  0  0
  185.2180  175.4120  135.2210 N   0  0  0  0  0  0  0  0  0  0  0  0
  182.9150  176.3970  137.8180 C   0  0  0  0  0  2  0  0  0  0  0  0
  183.0180  177.2930  134.3970 C   0  0  0  0  0  2  0  0  0  0  0  0
  184.2120  175.6780  137.4440 C   0  0  0  0  0  2  0  0  0  0  0  0
  184.2190  175.7570  135.9670 C   0  0  0  0  0  0  0  0  0  0  0  0
  181.9790  178.3170  134.8260 C   0  0  0  0  0  2  0  0  0  0  0  0
  180.9350  175.6160  136.4860 C   0  0  0  0  0  1  0  0  0  0  0  0
  181.7320  178.0470  136.3030 C   0  0  2  0  0  3  0  0  0  0  0  0
  1  9  1  0  0  0  0
  1 13  1  0  0  0  0
  2 14  2  0  0  0  0
  3 12  1  0  0  0  0
  3  9  2  0  0  0  0
  4 15  1  0  0  0  0
  6  7  2  0  0  0  0
  6 11  1  0  0  0  0
  7  3  1  0  0  0  0
  8 13  1  0  0  0  0
  8  5  2  0  0  0  0
 10  4  2  0  0  0  0
 10 35  1  0  0  0  0
 11  1  2  0  0  0  0
 13 20  1  1  0  0  0
 14  5  1  0  0  0  0
 15  2  1  6  0  0  0
 15  8  1  0  0  0  0
 16  4  1  6  0  0  0
 16 11  1  0  0  0  0
 16 15  1  0  0  0  0
 17 19  1  0  0  0  0
 18 23  1  0  0  0  0
 19 18  2  0  0  0  0
 20 22  2  0  0  0  0
 21 20  1  0  0  0  0
 21 17  2  0  0  0  0
 22 18  1  0  0  0  0
 23 24  1  0  0  0  0
 25 24  1  6  0  0  0
 27 30  2  0  0  0  0
 27 32  1  0  0  0  0
 28 29  1  0  0  0  0
 29 32  1  0  0  0  0
 31 25  1  6  0  0  0
 31 28  1  0  0  0  0
 31 27  1  0  0  0  0
 32 26  1  0  0  0  0
 33 25  1  0  0  0  0
 34 33  2  0  0  0  0
 36 45  1  6  0  0  0
 36 40  1  0  0  0  0
 37 43  1  0  0  0  0
 37 36  1  0  0  0  0
 39 35  1  0  0  0  0
 39 43  2  0  0  0  0
 41 44  1  0  0  0  0
 41 37  1  0  0  0  0
 42 40  1  0  0  0  0
 43 42  1  0  0  0  0
 44 46  1  0  0  0  0
 46 36  1  0  0  0  0
 46 38  1  6  0  0  0
M  END
>  <MODEL>
7

>  <REMARK>
 VINA RESULT:      -6.9      3.571      8.949
  Name = 
  8 active torsions:
  status: ('A' for Active; 'I' for Inactive)
    1  A    between atoms: N_2  and  C_8
    2  A    between atoms: C_8  and  C_13
    3  A    between atoms: C_8  and  C_24
    4  A    between atoms: O_11  and  C_13
    5  A    between atoms: O_11  and  C_21
    6  A    between atoms: N_17  and  O_41
    7  A    between atoms: N_29  and  O_41
    8  A    between atoms: C_31  and  C_36
                            x       y       z     vdW  Elec       q    Type
                         _______ _______ _______ _____ _____    ______ ____

>  <TORSDO>
F 8

$$$$
=
 OpenBabel10232408013D

 46 53  0  0  1  0  0  0  0  0999 V2000
  183.2800  176.0960  138.1000 C   0  0  0  0  0  0  0  0  0  0  0  0
  182.6750  180.3040  138.9200 C   0  0  0  0  0  3  0  0  0  0  0  0
  182.4470  173.8400  137.7260 C   0  0  0  0  0  0  0  0  0  0  0  0
  182.2860  178.2130  140.1900 C   0  0  0  0  0  0  0  0  0  0  0  0
  184.7830  179.5520  138.3290 C   0  0  0  0  0  3  0  0  0  0  0  0
  180.9070  175.5930  138.3540 C   0  0  0  0  0  3  0  0  0  0  0  0
  181.1500  174.2630  138.0090 C   0  0  0  0  0  3  0  0  0  0  0  0
  184.0570  178.4460  138.4480 C   0  0  0  0  0  0  0  0  0  0  0  0
  183.5040  174.7490  137.7790 C   0  0  0  0  0  3  0  0  0  0  0  0
  182.4260  178.0500  141.4610 N   0  0  0  0  0  0  0  0  0  0  0  0
  181.9530  176.5200  138.4110 C   0  0  0  0  0  0  0  0  0  0  0  0
  182.6860  172.5140  137.3870 O   0  0  0  0  0  1  0  0  0  0  0  0
  184.4730  177.0380  138.1400 C   0  0  2  0  0  3  0  0  0  0  0  0
  183.9130  180.7070  138.6240 C   0  0  0  0  0  3  0  0  0  0  0  0
  182.7070  178.8270  138.8630 C   0  0  2  0  0  0  0  0  0  0  0  0
  181.5960  177.9260  138.8470 C   0  0  2  0  0  3  0  0  0  0  0  0
  185.5390  177.2880  134.4860 C   0  0  0  0  0  3  0  0  0  0  0  0
  187.4370  176.5600  135.8080 C   0  0  0  0  0  0  0  0  0  0  0  0
  186.8780  176.8980  134.5710 C   0  0  0  0  0  3  0  0  0  0  0  0
  185.2920  176.9750  136.8790 C   0  0  0  0  0  0  0  0  0  0  0  0
  184.7490  177.3340  135.6370 C   0  0  0  0  0  3  0  0  0  0  0  0
  186.6370  176.6020  136.9610 C   0  0  0  0  0  3  0  0  0  0  0  0
  188.7840  176.1990  135.8660 O   0  0  0  0  0  0  0  0  0  0  0  0
  189.3300  175.4540  136.9490 C   0  0  0  0  0  2  0  0  0  0  0  0
  190.6130  176.1160  137.4510 C   0  0  2  0  0  3  0  0  0  0  0  0
  194.9930  174.4790  138.3240 C   0  0  0  0  0  1  0  0  0  0  0  0
  193.0910  175.8190  137.3400 C   0  0  0  0  0  0  0  0  0  0  0  0
  191.6840  174.0040  136.0020 S   0  0  0  0  0  0  0  0  0  0  0  0
  193.1190  173.4310  136.9820 C   0  0  0  0  0  2  0  0  0  0  0  0
  193.5630  176.9140  137.7490 O   0  0  0  0  0  0  0  0  0  0  0  0
  191.8190  175.7410  136.5760 C   0  0  1  0  0  3  0  0  0  0  0  0
  193.7580  174.5900  137.5650 N   0  0  0  0  0  0  0  0  0  0  0  0
  190.8450  175.7890  138.8460 N   0  0  0  0  0  0  0  0  0  0  0  0
  190.4550  176.5510  139.8080 C   0  0  0  0  0  2  0  0  0  0  0  0
  183.4320  178.7090  142.1240 O   0  0  0  0  0  0  0  0  0  0  0  0
  187.7190  177.4910  143.4080 C   0  0  2  0  0  0  0  0  0  0  0  0
  186.3460  177.3450  143.8290 N   0  0  0  0  0  0  0  0  0  0  0  0
  189.8710  177.6520  144.8220 C   0  0  0  0  0  1  0  0  0  0  0  0
  184.2190  178.0370  143.0290 N   0  0  0  0  0  0  0  0  0  0  0  0
  187.7080  178.4590  142.2160 C   0  0  0  0  0  2  0  0  0  0  0  0
  186.1710  177.5190  145.2610 C   0  0  0  0  0  2  0  0  0  0  0  0
  186.2500  178.6180  141.7820 C   0  0  0  0  0  2  0  0  0  0  0  0
  185.5040  177.9910  142.8950 C   0  0  0  0  0  0  0  0  0  0  0  0
  187.5680  177.7400  145.8190 C   0  0  0  0  0  2  0  0  0  0  0  0
  188.2630  176.1320  142.9770 C   0  0  0  0  0  1  0  0  0  0  0  0
  188.4310  178.0970  144.6170 C   0  0  2  0  0  3  0  0  0  0  0  0
  1 13  1  0  0  0  0
  1 11  1  0  0  0  0
  3  9  1  0  0  0  0
  3  7  2  0  0  0  0
  4 10  2  0  0  0  0
  5  8  2  0  0  0  0
  5 14  1  0  0  0  0
  6 11  2  0  0  0  0
  7  6  1  0  0  0  0
  8 15  1  0  0  0  0
  9  1  2  0  0  0  0
 10 35  1  0  0  0  0
 12  3  1  0  0  0  0
 13 20  1  6  0  0  0
 13  8  1  0  0  0  0
 14  2  2  0  0  0  0
 15  2  1  6  0  0  0
 15  4  1  0  0  0  0
 16 11  1  6  0  0  0
 16 15  1  0  0  0  0
 16  4  1  0  0  0  0
 17 19  2  0  0  0  0
 17 21  1  0  0  0  0
 18 23  1  0  0  0  0
 18 22  2  0  0  0  0
 19 18  1  0  0  0  0
 20 22  1  0  0  0  0
 21 20  2  0  0  0  0
 23 24  1  0  0  0  0
 25 24  1  6  0  0  0
 25 33  1  0  0  0  0
 27 32  1  0  0  0  0
 27 30  2  0  0  0  0
 28 31  1  0  0  0  0
 28 29  1  0  0  0  0
 29 32  1  0  0  0  0
 31 27  1  0  0  0  0
 31 25  1  1  0  0  0
 32 26  1  0  0  0  0
 33 34  2  0  0  0  0
 35 39  1  0  0  0  0
 36 45  1  6  0  0  0
 36 37  1  0  0  0  0
 36 46  1  0  0  0  0
 37 41  1  0  0  0  0
 40 36  1  0  0  0  0
 41 44  1  0  0  0  0
 42 40  1  0  0  0  0
 42 43  1  0  0  0  0
 43 39  2  0  0  0  0
 43 37  1  0  0  0  0
 46 38  1  1  0  0  0
 46 44  1  0  0  0  0
M  END
>  <MODEL>
8

>  <REMARK>
 VINA RESULT:      -6.7      2.545      3.700
  Name = 
  8 active torsions:
  status: ('A' for Active; 'I' for Inactive)
    1  A    between atoms: N_2  and  C_8
    2  A    between atoms: C_8  and  C_13
    3  A    between atoms: C_8  and  C_24
    4  A    between atoms: O_11  and  C_13
    5  A    between atoms: O_11  and  C_21
    6  A    between atoms: N_17  and  O_41
    7  A    between atoms: N_29  and  O_41
    8  A    between atoms: C_31  and  C_36
                            x       y       z     vdW  Elec       q    Type
                         _______ _______ _______ _____ _____    ______ ____

>  <TORSDO>
F 8

$$$$
=
 OpenBabel10232408013D

 46 53  0  0  1  0  0  0  0  0999 V2000
  191.0260  175.7290  137.2530 C   0  0  0  0  0  0  0  0  0  0  0  0
  187.5750  178.1480  136.2570 C   0  0  0  0  0  3  0  0  0  0  0  0
  193.1800  174.7360  136.7110 C   0  0  0  0  0  0  0  0  0  0  0  0
  188.4960  176.0070  135.4190 C   0  0  0  0  0  0  0  0  0  0  0  0
  187.8620  177.4170  138.4350 C   0  0  0  0  0  3  0  0  0  0  0  0
  191.9550  175.9360  135.0070 C   0  0  0  0  0  3  0  0  0  0  0  0
  193.0820  175.2140  135.4050 C   0  0  0  0  0  3  0  0  0  0  0  0
  188.8330  176.8190  137.7530 C   0  0  0  0  0  0  0  0  0  0  0  0
  192.1560  174.9850  137.6240 C   0  0  0  0  0  3  0  0  0  0  0  0
  187.8200  174.9870  135.0120 N   0  0  0  0  0  0  0  0  0  0  0  0
  190.9180  176.1980  135.9090 C   0  0  0  0  0  0  0  0  0  0  0  0
  194.3010  174.0140  137.1010 O   0  0  0  0  0  1  0  0  0  0  0  0
  189.9440  175.9680  138.2940 C   0  0  2  0  0  3  0  0  0  0  0  0
  187.0830  178.2450  137.4940 C   0  0  0  0  0  3  0  0  0  0  0  0
  188.7030  177.1950  136.3460 C   0  0  2  0  0  0  0  0  0  0  0  0
  189.7150  176.9420  135.3680 C   0  0  2  0  0  3  0  0  0  0  0  0
  192.2560  177.6620  140.8120 C   0  0  0  0  0  3  0  0  0  0  0  0
  190.1710  177.0980  141.9170 C   0  0  0  0  0  0  0  0  0  0  0  0
  191.4570  177.6480  141.9580 C   0  0  0  0  0  3  0  0  0  0  0  0
  190.4970  176.5420  139.5710 C   0  0  0  0  0  0  0  0  0  0  0  0
  191.7760  177.1160  139.6190 C   0  0  0  0  0  3  0  0  0  0  0  0
  189.6960  176.5460  140.7160 C   0  0  0  0  0  3  0  0  0  0  0  0
  189.3860  177.1220  143.0710 O   0  0  0  0  0  0  0  0  0  0  0  0
  187.9990  176.8060  143.0590 C   0  0  0  0  0  2  0  0  0  0  0  0
  187.3070  177.4220  144.2750 C   0  0  2  0  0  3  0  0  0  0  0  0
  183.8370  178.1970  141.1150 C   0  0  0  0  0  1  0  0  0  0  0  0
  185.9260  178.5110  142.5000 C   0  0  0  0  0  0  0  0  0  0  0  0
  184.9920  178.7860  144.9740 S   0  0  0  0  0  0  0  0  0  0  0  0
  183.7980  178.4170  143.6380 C   0  0  0  0  0  2  0  0  0  0  0  0
  186.6740  178.5400  141.4860 O   0  0  0  0  0  0  0  0  0  0  0  0
  186.4590  178.6420  143.8810 C   0  0  1  0  0  3  0  0  0  0  0  0
  184.5210  178.3730  142.3860 N   0  0  0  0  0  0  0  0  0  0  0  0
  188.2770  177.7550  145.3020 N   0  0  0  0  0  0  0  0  0  0  0  0
  188.2230  177.2610  146.4890 C   0  0  0  0  0  2  0  0  0  0  0  0
  186.6350  174.6690  135.6280 O   0  0  0  0  0  0  0  0  0  0  0  0
  182.4640  176.4760  136.5510 C   0  0  2  0  0  0  0  0  0  0  0  0
  183.2880  176.0920  135.4300 N   0  0  0  0  0  0  0  0  0  0  0  0
  180.7320  178.3770  136.7500 C   0  0  0  0  0  1  0  0  0  0  0  0
  185.4460  175.1460  135.1260 N   0  0  0  0  0  0  0  0  0  0  0  0
  183.3350  176.3210  137.8050 C   0  0  0  0  0  2  0  0  0  0  0  0
  183.2580  177.0600  134.3460 C   0  0  0  0  0  2  0  0  0  0  0  0
  184.5850  175.5440  137.3900 C   0  0  0  0  0  2  0  0  0  0  0  0
  184.5050  175.5570  135.9120 C   0  0  0  0  0  0  0  0  0  0  0  0
  182.2780  178.1360  134.7880 C   0  0  0  0  0  2  0  0  0  0  0  0
  181.2560  175.5480  136.6310 C   0  0  0  0  0  1  0  0  0  0  0  0
  182.1130  177.9410  136.2880 C   0  0  2  0  0  3  0  0  0  0  0  0
  1  9  1  0  0  0  0
  1 13  1  0  0  0  0
  2 14  2  0  0  0  0
  3 12  1  0  0  0  0
  3  9  2  0  0  0  0
  4 15  1  0  0  0  0
  6  7  2  0  0  0  0
  6 11  1  0  0  0  0
  7  3  1  0  0  0  0
  8 13  1  0  0  0  0
  8  5  2  0  0  0  0
 10  4  2  0  0  0  0
 10 35  1  0  0  0  0
 11  1  2  0  0  0  0
 13 20  1  1  0  0  0
 14  5  1  0  0  0  0
 15  2  1  6  0  0  0
 15  8  1  0  0  0  0
 16  4  1  6  0  0  0
 16 11  1  0  0  0  0
 16 15  1  0  0  0  0
 17 19  1  0  0  0  0
 18 19  2  0  0  0  0
 18 23  1  0  0  0  0
 20 21  1  0  0  0  0
 20 22  2  0  0  0  0
 21 17  2  0  0  0  0
 22 18  1  0  0  0  0
 24 23  1  0  0  0  0
 25 24  1  6  0  0  0
 25 33  1  0  0  0  0
 26 32  1  0  0  0  0
 27 31  1  0  0  0  0
 29 28  1  0  0  0  0
 30 27  2  0  0  0  0
 31 25  1  1  0  0  0
 31 28  1  0  0  0  0
 32 27  1  0  0  0  0
 32 29  1  0  0  0  0
 33 34  2  0  0  0  0
 36 45  1  1  0  0  0
 36 40  1  0  0  0  0
 37 43  1  0  0  0  0
 37 36  1  0  0  0  0
 39 35  1  0  0  0  0
 39 43  2  0  0  0  0
 41 44  1  0  0  0  0
 41 37  1  0  0  0  0
 42 40  1  0  0  0  0
 43 42  1  0  0  0  0
 44 46  1  0  0  0  0
 46 36  1  0  0  0  0
 46 38  1  6  0  0  0
M  END
>  <MODEL>
9

>  <REMARK>
 VINA RESULT:      -6.6      3.399      8.861
  Name = 
  8 active torsions:
  status: ('A' for Active; 'I' for Inactive)
    1  A    between atoms: N_2  and  C_8
    2  A    between atoms: C_8  and  C_13
    3  A    between atoms: C_8  and  C_24
    4  A    between atoms: O_11  and  C_13
    5  A    between atoms: O_11  and  C_21
    6  A    between atoms: N_17  and  O_41
    7  A    between atoms: N_29  and  O_41
    8  A    between atoms: C_31  and  C_36
                            x       y       z     vdW  Elec       q    Type
                         _______ _______ _______ _____ _____    ______ ____

>  <TORSDO>
F 8

$$$$
