=
 OpenBabel10232412073D

 39 43  0  0  1  0  0  0  0  0999 V2000
  189.2820  177.7340  140.4500 C   0  0  0  0  0  0  0  0  0  0  0  0
  187.9820  178.1480  140.4190 C   0  0  0  0  0  0  0  0  0  0  0  0
  188.7740  178.1400  138.1720 C   0  0  1  0  0  3  0  0  0  0  0  0
  187.2040  178.0230  144.0480 C   0  0  0  0  0  3  0  0  0  0  0  0
  191.2030  176.7170  144.0270 C   0  0  0  0  0  3  0  0  0  0  0  0
  187.8460  177.6900  145.2410 C   0  0  0  0  0  3  0  0  0  0  0  0
  187.2320  178.2570  141.5950 C   0  0  0  0  0  0  0  0  0  0  0  0
  187.5350  178.4240  139.0320 C   0  0  0  0  0  2  0  0  0  0  0  0
  189.1720  177.2580  145.2270 C   0  0  0  0  0  0  0  0  0  0  0  0
  189.7890  176.9310  146.3950 N   0  0  0  0  0  0  0  0  0  0  0  0
  191.0790  176.5020  146.4250 C   0  0  0  0  0  0  0  0  0  0  0  0
  189.2320  177.4960  142.7990 C   0  0  0  0  0  0  0  0  0  0  0  0
  191.6870  176.1690  147.6670 N   0  0  0  0  0  1  0  0  0  0  0  0
  189.9020  177.6810  139.1130 C   0  0  0  0  0  2  0  0  0  0  0  0
  189.8990  177.4080  141.6120 N   0  0  0  0  0  0  0  0  0  0  0  0
  187.8740  177.9320  142.8190 C   0  0  0  0  0  0  0  0  0  0  0  0
  191.8100  176.3880  145.2400 C   0  0  0  0  0  3  0  0  0  0  0  0
  189.8730  177.1580  144.0040 C   0  0  0  0  0  0  0  0  0  0  0  0
  183.4440  178.3520  142.2380 C   0  0  0  0  0  2  0  0  0  0  0  0
  183.6770  179.3300  143.3940 C   0  0  2  0  0  3  0  0  0  0  0  0
  185.6100  180.0120  142.0980 O   0  0  0  0  0  0  0  0  0  0  0  0
  185.1210  179.8520  143.4100 C   0  0  0  0  0  2  0  0  0  0  0  0
  185.8050  178.7390  141.5000 C   0  0  2  0  0  3  0  0  0  0  0  0
  184.7430  177.6710  141.8250 C   0  0  0  0  0  2  0  0  0  0  0  0
  183.3540  178.6460  144.7120 C   0  0  0  0  0  2  0  0  0  0  0  0
  183.9350  179.3480  145.7670 O   0  0  0  0  0  0  0  0  0  0  0  0
  184.5460  178.3670  146.5460 C   0  0  0  0  0  2  0  0  0  0  0  0
  185.4800  178.9590  147.3930 O   0  0  0  0  0  1  0  0  0  0  0  0
  188.4600  177.0690  137.1790 C   0  0  0  0  0  3  0  0  0  0  0  0
  187.2180  176.8990  136.7320 C   0  0  0  0  0  3  0  0  0  0  0  0
  186.9240  175.8340  135.7340 C   0  0  0  0  0  2  0  0  0  0  0  0
  187.7990  174.6600  135.9800 C   0  0  0  0  0  0  0  0  0  0  0  0
  188.9300  174.4340  135.1370 N   0  0  0  0  0  2  0  0  0  0  0  0
  187.5460  173.8820  136.9380 O   0  0  0  0  0  0  0  0  0  0  0  0
  189.8570  173.3340  135.3540 C   0  0  0  0  0  2  0  0  0  0  0  0
  191.2930  173.9030  136.3110 P   0  0  0  0  0  0  0  0  0  0  0  0
  191.9210  175.3190  135.6280 O   0  0  0  0  0  0  0  0  0  0  0  0
  192.4840  172.7020  136.3080 O   0  0  0  0  0  1  0  0  0  0  0  0
  190.8640  174.1800  137.7340 O   0  0  0  0  0  1  0  0  0  0  0  0
  1 15  1  0  0  0  0
  2  1  2  0  0  0  0
  2  7  1  0  0  0  0
  3 29  1  6  0  0  0
  3  8  1  0  0  0  0
  3 14  1  0  0  0  0
  4  6  2  0  0  0  0
  5 17  1  0  0  0  0
  7 16  2  0  0  0  0
  8  2  1  0  0  0  0
  9  6  1  0  0  0  0
  9 10  2  0  0  0  0
 10 11  1  0  0  0  0
 11 13  1  0  0  0  0
 12 16  1  0  0  0  0
 12 18  1  0  0  0  0
 14  1  1  0  0  0  0
 15 12  2  0  0  0  0
 16  4  1  0  0  0  0
 17 11  2  0  0  0  0
 18  5  2  0  0  0  0
 18  9  1  0  0  0  0
 19 20  1  0  0  0  0
 20 22  1  0  0  0  0
 20 25  1  1  0  0  0
 21 22  1  0  0  0  0
 23  7  1  1  0  0  0
 23 24  1  0  0  0  0
 23 21  1  0  0  0  0
 24 19  1  0  0  0  0
 25 26  1  0  0  0  0
 26 27  1  0  0  0  0
 27 28  1  0  0  0  0
 30 29  2  0  0  0  0
 31 32  1  0  0  0  0
 31 30  1  0  0  0  0
 32 34  2  0  0  0  0
 33 35  1  0  0  0  0
 33 32  1  0  0  0  0
 35 36  1  0  0  0  0
 36 39  1  0  0  0  0
 37 36  2  0  0  0  0
 38 36  1  0  0  0  0
M  END
>  <MODEL>
1

>  <REMARK>
 VINA RESULT:      -8.5      0.000      0.000
  Name = 
  9 active torsions:
  status: ('A' for Active; 'I' for Inactive)
    1  A    between atoms: C_3  and  P_4
    2  A    between atoms: C_3  and  N_27
    3  A    between atoms: C_5  and  C_6
    4  A    between atoms: C_6  and  C_14
    5  A    between atoms: C_8  and  C_9
    6  A    between atoms: C_10  and  C_30
    7  A    between atoms: C_17  and  C_26
    8  A    between atoms: C_18  and  O_20
    9  A    between atoms: O_20  and  C_30
                            x       y       z     vdW  Elec       q    Type
                         _______ _______ _______ _____ _____    ______ ____

>  <TORSDO>
F 9

$$$$
=
 OpenBabel10232412073D

 39 43  0  0  1  0  0  0  0  0999 V2000
  187.8040  178.0380  141.0260 C   0  0  0  0  0  0  0  0  0  0  0  0
  186.5600  178.3350  140.5480 C   0  0  0  0  0  0  0  0  0  0  0  0
  188.0010  178.0940  138.6650 C   0  0  1  0  0  3  0  0  0  0  0  0
  184.7160  178.6290  143.7570 C   0  0  0  0  0  3  0  0  0  0  0  0
  188.5760  177.6680  145.1230 C   0  0  0  0  0  3  0  0  0  0  0  0
  184.9740  178.5120  145.1240 C   0  0  0  0  0  3  0  0  0  0  0  0
  185.4830  178.5370  141.4170 C   0  0  0  0  0  0  0  0  0  0  0  0
  186.5480  178.3860  139.0660 C   0  0  0  0  0  2  0  0  0  0  0  0
  186.2570  178.1940  145.5690 C   0  0  0  0  0  0  0  0  0  0  0  0
  186.4990  178.0760  146.9030 N   0  0  0  0  0  0  0  0  0  0  0  0
  187.7340  177.7630  147.3800 C   0  0  0  0  0  0  0  0  0  0  0  0
  187.0470  178.1110  143.2610 C   0  0  0  0  0  0  0  0  0  0  0  0
  187.9450  177.6500  148.7810 N   0  0  0  0  0  1  0  0  0  0  0  0
  188.8040  177.8590  139.9570 C   0  0  0  0  0  2  0  0  0  0  0  0
  188.0480  177.9220  142.3540 N   0  0  0  0  0  0  0  0  0  0  0  0
  185.7320  178.4320  142.8110 C   0  0  0  0  0  0  0  0  0  0  0  0
  188.7960  177.5540  146.4960 C   0  0  0  0  0  3  0  0  0  0  0  0
  187.3010  177.9900  144.6390 C   0  0  0  0  0  0  0  0  0  0  0  0
  182.8620  179.3620  138.7300 C   0  0  0  0  0  2  0  0  0  0  0  0
  182.4920  177.8770  138.6510 C   0  0  2  0  0  3  0  0  0  0  0  0
  183.1850  177.8370  140.9750 O   0  0  0  0  0  0  0  0  0  0  0  0
  183.1350  177.0740  139.7920 C   0  0  0  0  0  2  0  0  0  0  0  0
  184.1360  178.8820  140.8320 C   0  0  2  0  0  3  0  0  0  0  0  0
  184.1900  179.5600  139.4490 C   0  0  0  0  0  2  0  0  0  0  0  0
  182.9270  177.3150  137.3080 C   0  0  0  0  0  2  0  0  0  0  0  0
  183.6180  176.1190  137.4940 O   0  0  0  0  0  0  0  0  0  0  0  0
  184.5400  176.0810  136.4490 C   0  0  0  0  0  2  0  0  0  0  0  0
  184.9170  177.3790  136.1130 O   0  0  0  0  0  1  0  0  0  0  0  0
  188.0470  176.8780  137.7980 C   0  0  0  0  0  3  0  0  0  0  0  0
  189.0680  176.0290  137.8710 C   0  0  0  0  0  3  0  0  0  0  0  0
  189.0920  174.8160  137.0080 C   0  0  0  0  0  2  0  0  0  0  0  0
  190.4970  174.4590  136.6830 C   0  0  0  0  0  0  0  0  0  0  0  0
  191.5040  174.5680  137.6900 N   0  0  0  0  0  2  0  0  0  0  0  0
  190.7860  174.0490  135.5270 O   0  0  0  0  0  0  0  0  0  0  0  0
  192.8880  174.1860  137.4540 C   0  0  0  0  0  2  0  0  0  0  0  0
  193.8560  175.6320  136.9300 P   0  0  0  0  0  0  0  0  0  0  0  0
  193.4880  176.0260  135.3260 O   0  0  0  0  0  0  0  0  0  0  0  0
  195.5060  175.2810  137.0580 O   0  0  0  0  0  1  0  0  0  0  0  0
  193.5230  176.8040  137.8250 O   0  0  0  0  0  1  0  0  0  0  0  0
  1 15  1  0  0  0  0
  2  1  2  0  0  0  0
  2  7  1  0  0  0  0
  3 29  1  6  0  0  0
  3  8  1  0  0  0  0
  3 14  1  0  0  0  0
  4  6  2  0  0  0  0
  5 17  1  0  0  0  0
  6  9  1  0  0  0  0
  7 16  2  0  0  0  0
  8  2  1  0  0  0  0
  9 10  2  0  0  0  0
 10 11  1  0  0  0  0
 11 13  1  0  0  0  0
 12 18  1  0  0  0  0
 14  1  1  0  0  0  0
 15 12  2  0  0  0  0
 16 12  1  0  0  0  0
 16  4  1  0  0  0  0
 17 11  2  0  0  0  0
 18  5  2  0  0  0  0
 18  9  1  0  0  0  0
 19 24  1  0  0  0  0
 20 25  1  6  0  0  0
 20 19  1  0  0  0  0
 20 22  1  0  0  0  0
 22 21  1  0  0  0  0
 23 21  1  0  0  0  0
 23  7  1  6  0  0  0
 24 23  1  0  0  0  0
 25 26  1  0  0  0  0
 27 26  1  0  0  0  0
 28 27  1  0  0  0  0
 29 30  2  0  0  0  0
 31 30  1  0  0  0  0
 32 31  1  0  0  0  0
 32 33  1  0  0  0  0
 34 32  2  0  0  0  0
 35 33  1  0  0  0  0
 36 38  1  0  0  0  0
 36 35  1  0  0  0  0
 36 39  1  0  0  0  0
 37 36  2  0  0  0  0
M  END
>  <MODEL>
2

>  <REMARK>
 VINA RESULT:      -8.5      2.512      4.206
  Name = 
  9 active torsions:
  status: ('A' for Active; 'I' for Inactive)
    1  A    between atoms: C_3  and  P_4
    2  A    between atoms: C_3  and  N_27
    3  A    between atoms: C_5  and  C_6
    4  A    between atoms: C_6  and  C_14
    5  A    between atoms: C_8  and  C_9
    6  A    between atoms: C_10  and  C_30
    7  A    between atoms: C_17  and  C_26
    8  A    between atoms: C_18  and  O_20
    9  A    between atoms: O_20  and  C_30
                            x       y       z     vdW  Elec       q    Type
                         _______ _______ _______ _____ _____    ______ ____

>  <TORSDO>
F 9

$$$$
=
 OpenBabel10232412073D

 39 43  0  0  1  0  0  0  0  0999 V2000
  189.2440  177.6640  140.5530 C   0  0  0  0  0  0  0  0  0  0  0  0
  187.9400  178.0710  140.5320 C   0  0  0  0  0  0  0  0  0  0  0  0
  188.7110  178.0480  138.2760 C   0  0  1  0  0  3  0  0  0  0  0  0
  187.2000  177.9720  144.1690 C   0  0  0  0  0  3  0  0  0  0  0  0
  191.2050  176.6890  144.1200 C   0  0  0  0  0  3  0  0  0  0  0  0
  187.8560  177.6530  145.3590 C   0  0  0  0  0  3  0  0  0  0  0  0
  187.2020  178.1860  141.7140 C   0  0  0  0  0  0  0  0  0  0  0  0
  187.4780  178.3320  139.1470 C   0  0  0  0  0  2  0  0  0  0  0  0
  189.1840  177.2290  145.3350 C   0  0  0  0  0  0  0  0  0  0  0  0
  189.8140  176.9150  146.4990 N   0  0  0  0  0  0  0  0  0  0  0  0
  191.1070  176.4930  146.5200 C   0  0  0  0  0  0  0  0  0  0  0  0
  189.2180  177.4460  142.9040 C   0  0  0  0  0  0  0  0  0  0  0  0
  191.7290  176.1740  147.7580 N   0  0  0  0  0  1  0  0  0  0  0  0
  189.8500  177.6030  139.2100 C   0  0  0  0  0  2  0  0  0  0  0  0
  189.8740  177.3520  141.7120 N   0  0  0  0  0  0  0  0  0  0  0  0
  187.8580  177.8750  142.9340 C   0  0  0  0  0  0  0  0  0  0  0  0
  191.8270  176.3730  145.3280 C   0  0  0  0  0  3  0  0  0  0  0  0
  189.8730  177.1220  144.1060 C   0  0  0  0  0  0  0  0  0  0  0  0
  183.4490  178.3740  142.5210 C   0  0  0  0  0  2  0  0  0  0  0  0
  183.7350  179.4850  143.5360 C   0  0  2  0  0  3  0  0  0  0  0  0
  185.6040  179.9960  142.0770 O   0  0  0  0  0  0  0  0  0  0  0  0
  185.1780  179.9980  143.4200 C   0  0  0  0  0  2  0  0  0  0  0  0
  185.7710  178.6590  141.6300 C   0  0  2  0  0  3  0  0  0  0  0  0
  184.7280  177.6430  142.1320 C   0  0  0  0  0  2  0  0  0  0  0  0
  183.4760  178.9680  144.9420 C   0  0  0  0  0  2  0  0  0  0  0  0
  184.5030  179.3730  145.7940 O   0  0  0  0  0  0  0  0  0  0  0  0
  184.6150  178.3390  146.7230 C   0  0  0  0  0  2  0  0  0  0  0  0
  185.5600  178.6810  147.6880 O   0  0  0  0  0  1  0  0  0  0  0  0
  188.3920  176.9670  137.2960 C   0  0  0  0  0  3  0  0  0  0  0  0
  187.2900  177.0250  136.5530 C   0  0  0  0  0  3  0  0  0  0  0  0
  186.9940  175.9450  135.5730 C   0  0  0  0  0  2  0  0  0  0  0  0
  185.6690  175.3430  135.8730 C   0  0  0  0  0  0  0  0  0  0  0  0
  185.2440  175.2180  137.2300 N   0  0  0  0  0  2  0  0  0  0  0  0
  184.9270  174.9630  134.9280 O   0  0  0  0  0  0  0  0  0  0  0  0
  183.9380  174.6860  137.5920 C   0  0  0  0  0  2  0  0  0  0  0  0
  182.8250  176.0370  138.0780 P   0  0  0  0  0  0  0  0  0  0  0  0
  182.5500  175.9900  139.7480 O   0  0  0  0  0  1  0  0  0  0  0  0
  181.3520  175.8750  137.2610 O   0  0  0  0  0  0  0  0  0  0  0  0
  183.4580  177.3600  137.7110 O   0  0  0  0  0  1  0  0  0  0  0  0
  1 15  1  0  0  0  0
  2  1  2  0  0  0  0
  2  7  1  0  0  0  0
  3 29  1  6  0  0  0
  3  8  1  0  0  0  0
  3 14  1  0  0  0  0
  4  6  2  0  0  0  0
  5 17  1  0  0  0  0
  7 16  2  0  0  0  0
  8  2  1  0  0  0  0
  9  6  1  0  0  0  0
  9 10  2  0  0  0  0
 10 11  1  0  0  0  0
 11 13  1  0  0  0  0
 12 16  1  0  0  0  0
 12 18  1  0  0  0  0
 14  1  1  0  0  0  0
 15 12  2  0  0  0  0
 16  4  1  0  0  0  0
 17 11  2  0  0  0  0
 18  5  2  0  0  0  0
 18  9  1  0  0  0  0
 19 20  1  0  0  0  0
 20 25  1  1  0  0  0
 21 22  1  0  0  0  0
 22 20  1  0  0  0  0
 23  7  1  1  0  0  0
 23 21  1  0  0  0  0
 23 24  1  0  0  0  0
 24 19  1  0  0  0  0
 25 26  1  0  0  0  0
 26 27  1  0  0  0  0
 27 28  1  0  0  0  0
 30 29  2  0  0  0  0
 31 32  1  0  0  0  0
 31 30  1  0  0  0  0
 32 33  1  0  0  0  0
 33 35  1  0  0  0  0
 34 32  2  0  0  0  0
 35 36  1  0  0  0  0
 36 37  1  0  0  0  0
 38 36  2  0  0  0  0
 39 36  1  0  0  0  0
M  END
>  <MODEL>
3

>  <REMARK>
 VINA RESULT:      -8.5      2.710      3.447
  Name = 
  9 active torsions:
  status: ('A' for Active; 'I' for Inactive)
    1  A    between atoms: C_3  and  P_4
    2  A    between atoms: C_3  and  N_27
    3  A    between atoms: C_5  and  C_6
    4  A    between atoms: C_6  and  C_14
    5  A    between atoms: C_8  and  C_9
    6  A    between atoms: C_10  and  C_30
    7  A    between atoms: C_17  and  C_26
    8  A    between atoms: C_18  and  O_20
    9  A    between atoms: O_20  and  C_30
                            x       y       z     vdW  Elec       q    Type
                         _______ _______ _______ _____ _____    ______ ____

>  <TORSDO>
F 9

$$$$
=
 OpenBabel10232412073D

 39 43  0  0  1  0  0  0  0  0999 V2000
  190.1140  176.7560  138.3400 C   0  0  0  0  0  0  0  0  0  0  0  0
  190.8410  176.7860  139.4950 C   0  0  0  0  0  0  0  0  0  0  0  0
  192.2290  175.8290  137.8100 C   0  0  1  0  0  3  0  0  0  0  0  0
  188.3280  178.2970  141.7720 C   0  0  0  0  0  3  0  0  0  0  0  0
  186.1880  178.1970  138.1520 C   0  0  0  0  0  3  0  0  0  0  0  0
  187.0170  178.7720  141.7120 C   0  0  0  0  0  3  0  0  0  0  0  0
  190.2970  177.2990  140.6770 C   0  0  0  0  0  0  0  0  0  0  0  0
  192.2050  176.2400  139.2900 C   0  0  0  0  0  2  0  0  0  0  0  0
  186.3130  178.7350  140.5080 C   0  0  0  0  0  0  0  0  0  0  0  0
  185.0370  179.2050  140.4570 N   0  0  0  0  0  0  0  0  0  0  0  0
  184.3180  179.1910  139.3020 C   0  0  0  0  0  0  0  0  0  0  0  0
  188.2440  177.7320  139.4010 C   0  0  0  0  0  0  0  0  0  0  0  0
  182.9870  179.6920  139.2910 N   0  0  0  0  0  1  0  0  0  0  0  0
  190.8590  176.1830  137.2040 C   0  0  0  0  0  2  0  0  0  0  0  0
  188.8420  177.2220  138.2860 N   0  0  0  0  0  0  0  0  0  0  0  0
  188.9600  177.7760  140.6340 C   0  0  0  0  0  0  0  0  0  0  0  0
  184.8820  178.6860  138.1280 C   0  0  0  0  0  3  0  0  0  0  0  0
  186.9240  178.2150  139.3440 C   0  0  0  0  0  0  0  0  0  0  0  0
  191.4910  178.3020  144.1890 C   0  0  0  0  0  2  0  0  0  0  0  0
  190.6270  177.1890  144.7880 C   0  0  2  0  0  3  0  0  0  0  0  0
  191.0200  176.0820  142.6670 O   0  0  0  0  0  0  0  0  0  0  0  0
  190.0790  176.2520  143.7010 C   0  0  0  0  0  2  0  0  0  0  0  0
  191.1420  177.2880  141.9270 C   0  0  2  0  0  3  0  0  0  0  0  0
  191.0930  178.5910  142.7470 C   0  0  0  0  0  2  0  0  0  0  0  0
  189.4800  177.8030  145.5750 C   0  0  0  0  0  2  0  0  0  0  0  0
  188.2710  177.2390  145.1700 O   0  0  0  0  0  0  0  0  0  0  0  0
  187.3300  177.7500  146.0630 C   0  0  0  0  0  2  0  0  0  0  0  0
  187.7780  177.5640  147.3690 O   0  0  0  0  0  1  0  0  0  0  0  0
  193.3160  176.5700  137.1030 C   0  0  0  0  0  3  0  0  0  0  0  0
  193.7600  176.1590  135.9180 C   0  0  0  0  0  3  0  0  0  0  0  0
  194.8360  176.9160  135.2220 C   0  0  0  0  0  2  0  0  0  0  0  0
  196.1470  176.2570  135.4580 C   0  0  0  0  0  0  0  0  0  0  0  0
  196.2150  174.8340  135.5440 N   0  0  0  0  0  2  0  0  0  0  0  0
  197.1880  176.9590  135.5650 O   0  0  0  0  0  0  0  0  0  0  0  0
  197.4720  174.1220  135.7230 C   0  0  0  0  0  2  0  0  0  0  0  0
  197.7950  173.8540  137.4910 P   0  0  0  0  0  0  0  0  0  0  0  0
  196.4630  173.1010  138.2150 O   0  0  0  0  0  1  0  0  0  0  0  0
  198.0770  175.3430  138.2440 O   0  0  0  0  0  1  0  0  0  0  0  0
  199.0140  172.9750  137.6460 O   0  0  0  0  0  0  0  0  0  0  0  0
  1  2  1  0  0  0  0
  2  7  2  0  0  0  0
  3 29  1  6  0  0  0
  3  8  1  0  0  0  0
  5 18  1  0  0  0  0
  6  4  1  0  0  0  0
  8  2  1  0  0  0  0
  9  6  2  0  0  0  0
 10  9  1  0  0  0  0
 11 10  2  0  0  0  0
 12 16  1  0  0  0  0
 13 11  1  0  0  0  0
 14  3  1  0  0  0  0
 14  1  1  0  0  0  0
 15  1  2  0  0  0  0
 15 12  1  0  0  0  0
 16  7  1  0  0  0  0
 16  4  2  0  0  0  0
 17  5  2  0  0  0  0
 17 11  1  0  0  0  0
 18 12  2  0  0  0  0
 18  9  1  0  0  0  0
 19 20  1  0  0  0  0
 20 25  1  6  0  0  0
 21 22  1  0  0  0  0
 22 20  1  0  0  0  0
 23  7  1  6  0  0  0
 23 21  1  0  0  0  0
 23 24  1  0  0  0  0
 24 19  1  0  0  0  0
 26 25  1  0  0  0  0
 26 27  1  0  0  0  0
 27 28  1  0  0  0  0
 30 29  2  0  0  0  0
 31 32  1  0  0  0  0
 31 30  1  0  0  0  0
 32 33  1  0  0  0  0
 32 34  2  0  0  0  0
 33 35  1  0  0  0  0
 35 36  1  0  0  0  0
 36 39  2  0  0  0  0
 36 37  1  0  0  0  0
 36 38  1  0  0  0  0
M  END
>  <MODEL>
4

>  <REMARK>
 VINA RESULT:      -8.1      4.035      6.503
  Name = 
  9 active torsions:
  status: ('A' for Active; 'I' for Inactive)
    1  A    between atoms: C_3  and  P_4
    2  A    between atoms: C_3  and  N_27
    3  A    between atoms: C_5  and  C_6
    4  A    between atoms: C_6  and  C_14
    5  A    between atoms: C_8  and  C_9
    6  A    between atoms: C_10  and  C_30
    7  A    between atoms: C_17  and  C_26
    8  A    between atoms: C_18  and  O_20
    9  A    between atoms: O_20  and  C_30
                            x       y       z     vdW  Elec       q    Type
                         _______ _______ _______ _____ _____    ______ ____

>  <TORSDO>
F 9

$$$$
=
 OpenBabel10232412073D

 39 43  0  0  1  0  0  0  0  0999 V2000
  187.7410  177.9890  140.9140 C   0  0  0  0  0  0  0  0  0  0  0  0
  186.4920  178.3020  140.4580 C   0  0  0  0  0  0  0  0  0  0  0  0
  187.9000  178.0500  138.5510 C   0  0  1  0  0  3  0  0  0  0  0  0
  184.7050  178.6070  143.6980 C   0  0  0  0  0  3  0  0  0  0  0  0
  188.5760  177.5980  144.9970 C   0  0  0  0  0  3  0  0  0  0  0  0
  184.9840  178.4830  145.0590 C   0  0  0  0  0  3  0  0  0  0  0  0
  185.4320  178.5140  141.3450 C   0  0  0  0  0  0  0  0  0  0  0  0
  186.4570  178.3570  138.9760 C   0  0  0  0  0  2  0  0  0  0  0  0
  186.2700  178.1490  145.4830 C   0  0  0  0  0  0  0  0  0  0  0  0
  186.5330  178.0250  146.8120 N   0  0  0  0  0  0  0  0  0  0  0  0
  187.7720  177.6960  147.2670 C   0  0  0  0  0  0  0  0  0  0  0  0
  187.0210  178.0640  143.1620 C   0  0  0  0  0  0  0  0  0  0  0  0
  188.0050  177.5760  148.6650 N   0  0  0  0  0  1  0  0  0  0  0  0
  188.7210  177.8020  139.8280 C   0  0  0  0  0  2  0  0  0  0  0  0
  188.0050  177.8660  142.2380 N   0  0  0  0  0  0  0  0  0  0  0  0
  185.7030  178.4020  142.7340 C   0  0  0  0  0  0  0  0  0  0  0  0
  188.8170  177.4770  146.3660 C   0  0  0  0  0  3  0  0  0  0  0  0
  187.2970  177.9360  144.5350 C   0  0  0  0  0  0  0  0  0  0  0  0
  182.7940  179.4540  138.7140 C   0  0  0  0  0  2  0  0  0  0  0  0
  182.4390  177.9720  138.5570 C   0  0  2  0  0  3  0  0  0  0  0  0
  183.1400  177.8150  140.8730 O   0  0  0  0  0  0  0  0  0  0  0  0
  183.0940  177.1160  139.6510 C   0  0  0  0  0  2  0  0  0  0  0  0
  184.0800  178.8760  140.7830 C   0  0  2  0  0  3  0  0  0  0  0  0
  184.1230  179.6270  139.4380 C   0  0  0  0  0  2  0  0  0  0  0  0
  182.8750  177.4870  137.1840 C   0  0  0  0  0  2  0  0  0  0  0  0
  182.1270  178.1240  136.1950 O   0  0  0  0  0  0  0  0  0  0  0  0
  181.7560  177.1010  135.3230 C   0  0  0  0  0  2  0  0  0  0  0  0
  182.8760  176.3390  134.9950 O   0  0  0  0  0  1  0  0  0  0  0  0
  187.9170  176.8360  137.6800 C   0  0  0  0  0  3  0  0  0  0  0  0
  188.3600  176.9050  136.4270 C   0  0  0  0  0  3  0  0  0  0  0  0
  188.3810  175.6840  135.5760 C   0  0  0  0  0  2  0  0  0  0  0  0
  186.9910  175.2600  135.2710 C   0  0  0  0  0  0  0  0  0  0  0  0
  186.5510  173.9560  135.6540 N   0  0  0  0  0  2  0  0  0  0  0  0
  186.2070  176.0580  134.6920 O   0  0  0  0  0  0  0  0  0  0  0  0
  185.1880  173.4960  135.4320 C   0  0  0  0  0  2  0  0  0  0  0  0
  184.4350  172.9900  137.0060 P   0  0  0  0  0  0  0  0  0  0  0  0
  185.6200  172.8880  138.2110 O   0  0  0  0  0  1  0  0  0  0  0  0
  183.6950  171.4800  136.8170 O   0  0  0  0  0  0  0  0  0  0  0  0
  183.3950  174.0100  137.4110 O   0  0  0  0  0  1  0  0  0  0  0  0
  1 15  1  0  0  0  0
  2  1  2  0  0  0  0
  2  7  1  0  0  0  0
  3 29  1  6  0  0  0
  3  8  1  0  0  0  0
  3 14  1  0  0  0  0
  4  6  2  0  0  0  0
  5 17  1  0  0  0  0
  6  9  1  0  0  0  0
  7 16  2  0  0  0  0
  8  2  1  0  0  0  0
  9 10  2  0  0  0  0
 10 11  1  0  0  0  0
 11 13  1  0  0  0  0
 12 18  1  0  0  0  0
 14  1  1  0  0  0  0
 15 12  2  0  0  0  0
 16 12  1  0  0  0  0
 16  4  1  0  0  0  0
 17 11  2  0  0  0  0
 18  5  2  0  0  0  0
 18  9  1  0  0  0  0
 19 24  1  0  0  0  0
 20 25  1  6  0  0  0
 20 19  1  0  0  0  0
 20 22  1  0  0  0  0
 22 21  1  0  0  0  0
 23 21  1  0  0  0  0
 23  7  1  6  0  0  0
 24 23  1  0  0  0  0
 26 25  1  0  0  0  0
 27 26  1  0  0  0  0
 28 27  1  0  0  0  0
 30 29  2  0  0  0  0
 31 30  1  0  0  0  0
 32 31  1  0  0  0  0
 32 33  1  0  0  0  0
 34 32  2  0  0  0  0
 35 33  1  0  0  0  0
 35 36  1  0  0  0  0
 36 39  1  0  0  0  0
 36 37  1  0  0  0  0
 38 36  2  0  0  0  0
M  END
>  <MODEL>
5

>  <REMARK>
 VINA RESULT:      -8.0      3.037      4.939
  Name = 
  9 active torsions:
  status: ('A' for Active; 'I' for Inactive)
    1  A    between atoms: C_3  and  P_4
    2  A    between atoms: C_3  and  N_27
    3  A    between atoms: C_5  and  C_6
    4  A    between atoms: C_6  and  C_14
    5  A    between atoms: C_8  and  C_9
    6  A    between atoms: C_10  and  C_30
    7  A    between atoms: C_17  and  C_26
    8  A    between atoms: C_18  and  O_20
    9  A    between atoms: O_20  and  C_30
                            x       y       z     vdW  Elec       q    Type
                         _______ _______ _______ _____ _____    ______ ____

>  <TORSDO>
F 9

$$$$
=
 OpenBabel10232412073D

 39 43  0  0  1  0  0  0  0  0999 V2000
  188.2910  178.0380  141.3010 C   0  0  0  0  0  0  0  0  0  0  0  0
  187.0900  178.3570  140.7340 C   0  0  0  0  0  0  0  0  0  0  0  0
  188.6620  178.1000  138.9610 C   0  0  1  0  0  3  0  0  0  0  0  0
  185.0210  178.6680  143.8010 C   0  0  0  0  0  3  0  0  0  0  0  0
  188.7550  177.6400  145.4420 C   0  0  0  0  0  3  0  0  0  0  0  0
  185.1760  178.5410  145.1820 C   0  0  0  0  0  3  0  0  0  0  0  0
  185.9560  178.5720  141.5230 C   0  0  0  0  0  0  0  0  0  0  0  0
  187.1880  178.4140  139.2560 C   0  0  0  0  0  2  0  0  0  0  0  0
  186.4170  178.2010  145.7190 C   0  0  0  0  0  0  0  0  0  0  0  0
  186.5590  178.0750  147.0670 N   0  0  0  0  0  0  0  0  0  0  0  0
  187.7510  177.7400  147.6310 C   0  0  0  0  0  0  0  0  0  0  0  0
  187.3730  178.1140  143.4750 C   0  0  0  0  0  0  0  0  0  0  0  0
  187.8570  177.6180  149.0430 N   0  0  0  0  0  1  0  0  0  0  0  0
  189.3650  177.8470  140.3070 C   0  0  0  0  0  2  0  0  0  0  0  0
  188.4350  177.9130  142.6430 N   0  0  0  0  0  0  0  0  0  0  0  0
  186.1010  178.4580  142.9310 C   0  0  0  0  0  0  0  0  0  0  0  0
  188.8720  177.5170  146.8270 C   0  0  0  0  0  3  0  0  0  0  0  0
  187.5240  177.9850  144.8670 C   0  0  0  0  0  0  0  0  0  0  0  0
  183.4080  178.9780  138.6750 C   0  0  0  0  0  2  0  0  0  0  0  0
  182.8070  177.6160  139.0340 C   0  0  2  0  0  3  0  0  0  0  0  0
  183.5630  178.1510  141.2750 O   0  0  0  0  0  0  0  0  0  0  0  0
  183.3540  177.0920  140.3710 C   0  0  0  0  0  2  0  0  0  0  0  0
  184.6610  178.9410  140.8420 C   0  0  2  0  0  3  0  0  0  0  0  0
  184.7750  179.1640  139.3220 C   0  0  0  0  0  2  0  0  0  0  0  0
  183.1020  176.6210  137.9240 C   0  0  0  0  0  2  0  0  0  0  0  0
  183.3570  175.3630  138.4680 O   0  0  0  0  0  0  0  0  0  0  0  0
  183.7810  174.5930  137.3860 C   0  0  0  0  0  2  0  0  0  0  0  0
  183.4240  175.2240  136.1960 O   0  0  0  0  0  1  0  0  0  0  0  0
  188.7530  176.8870  138.0940 C   0  0  0  0  0  3  0  0  0  0  0  0
  189.9090  176.2500  137.9350 C   0  0  0  0  0  3  0  0  0  0  0  0
  189.9790  175.0360  137.0760 C   0  0  0  0  0  2  0  0  0  0  0  0
  191.3510  174.8890  136.5240 C   0  0  0  0  0  0  0  0  0  0  0  0
  192.2690  173.9920  137.1500 N   0  0  0  0  0  2  0  0  0  0  0  0
  191.6870  175.5440  135.5020 O   0  0  0  0  0  0  0  0  0  0  0  0
  193.6100  173.7610  136.6330 C   0  0  0  0  0  2  0  0  0  0  0  0
  194.8460  174.4910  137.7470 P   0  0  0  0  0  0  0  0  0  0  0  0
  196.1770  175.0390  136.8560 O   0  0  0  0  0  0  0  0  0  0  0  0
  195.3560  173.3260  138.8620 O   0  0  0  0  0  1  0  0  0  0  0  0
  194.2240  175.6540  138.4860 O   0  0  0  0  0  1  0  0  0  0  0  0
  1 15  1  0  0  0  0
  2  1  2  0  0  0  0
  2  7  1  0  0  0  0
  3 29  1  6  0  0  0
  3  8  1  0  0  0  0
  3 14  1  0  0  0  0
  4  6  2  0  0  0  0
  5 17  1  0  0  0  0
  6  9  1  0  0  0  0
  7 16  2  0  0  0  0
  8  2  1  0  0  0  0
  9 10  2  0  0  0  0
 10 11  1  0  0  0  0
 11 13  1  0  0  0  0
 12 18  1  0  0  0  0
 14  1  1  0  0  0  0
 15 12  2  0  0  0  0
 16 12  1  0  0  0  0
 16  4  1  0  0  0  0
 17 11  2  0  0  0  0
 18  5  2  0  0  0  0
 18  9  1  0  0  0  0
 19 20  1  0  0  0  0
 19 24  1  0  0  0  0
 20 25  1  6  0  0  0
 20 22  1  0  0  0  0
 22 21  1  0  0  0  0
 23 21  1  0  0  0  0
 23  7  1  6  0  0  0
 24 23  1  0  0  0  0
 25 26  1  0  0  0  0
 27 26  1  0  0  0  0
 28 27  1  0  0  0  0
 30 29  2  0  0  0  0
 31 30  1  0  0  0  0
 32 31  1  0  0  0  0
 32 33  1  0  0  0  0
 34 32  2  0  0  0  0
 35 33  1  0  0  0  0
 35 36  1  0  0  0  0
 36 39  1  0  0  0  0
 36 38  1  0  0  0  0
 37 36  2  0  0  0  0
M  END
>  <MODEL>
6

>  <REMARK>
 VINA RESULT:      -7.9      2.666      4.241
  Name = 
  9 active torsions:
  status: ('A' for Active; 'I' for Inactive)
    1  A    between atoms: C_3  and  P_4
    2  A    between atoms: C_3  and  N_27
    3  A    between atoms: C_5  and  C_6
    4  A    between atoms: C_6  and  C_14
    5  A    between atoms: C_8  and  C_9
    6  A    between atoms: C_10  and  C_30
    7  A    between atoms: C_17  and  C_26
    8  A    between atoms: C_18  and  O_20
    9  A    between atoms: O_20  and  C_30
                            x       y       z     vdW  Elec       q    Type
                         _______ _______ _______ _____ _____    ______ ____

>  <TORSDO>
F 9

$$$$
=
 OpenBabel10232412073D

 39 43  0  0  1  0  0  0  0  0999 V2000
  188.0970  178.0670  140.8850 C   0  0  0  0  0  0  0  0  0  0  0  0
  186.8490  178.3370  140.4030 C   0  0  0  0  0  0  0  0  0  0  0  0
  188.3120  178.1840  138.5290 C   0  0  1  0  0  3  0  0  0  0  0  0
  184.9700  178.4980  143.6020 C   0  0  0  0  0  3  0  0  0  0  0  0
  188.8480  177.6250  144.9790 C   0  0  0  0  0  3  0  0  0  0  0  0
  185.2210  178.3570  144.9680 C   0  0  0  0  0  3  0  0  0  0  0  0
  185.7590  178.4850  141.2670 C   0  0  0  0  0  0  0  0  0  0  0  0
  186.8470  178.4220  138.9230 C   0  0  0  0  0  2  0  0  0  0  0  0
  186.5090  178.0680  145.4170 C   0  0  0  0  0  0  0  0  0  0  0  0
  186.7440  177.9280  146.7500 N   0  0  0  0  0  0  0  0  0  0  0  0
  187.9850  177.6420  147.2300 C   0  0  0  0  0  0  0  0  0  0  0  0
  187.3200  178.0640  143.1150 C   0  0  0  0  0  0  0  0  0  0  0  0
  188.1880  177.5020  148.6300 N   0  0  0  0  0  1  0  0  0  0  0  0
  189.1120  177.9450  139.8210 C   0  0  0  0  0  2  0  0  0  0  0  0
  188.3340  177.9280  142.2130 N   0  0  0  0  0  0  0  0  0  0  0  0
  186.0000  178.3550  142.6610 C   0  0  0  0  0  0  0  0  0  0  0  0
  189.0600  177.4860  146.3510 C   0  0  0  0  0  3  0  0  0  0  0  0
  187.5670  177.9190  144.4920 C   0  0  0  0  0  0  0  0  0  0  0  0
  183.1080  179.1530  138.5670 C   0  0  0  0  0  2  0  0  0  0  0  0
  182.7270  177.6690  138.5890 C   0  0  2  0  0  3  0  0  0  0  0  0
  183.4510  177.7750  140.9020 O   0  0  0  0  0  0  0  0  0  0  0  0
  183.3800  176.9370  139.7710 C   0  0  0  0  0  2  0  0  0  0  0  0
  184.4060  178.8010  140.6780 C   0  0  2  0  0  3  0  0  0  0  0  0
  184.4470  179.3880  139.2540 C   0  0  0  0  0  2  0  0  0  0  0  0
  183.1400  177.0180  137.2790 C   0  0  0  0  0  2  0  0  0  0  0  0
  183.1540  175.6320  137.4210 O   0  0  0  0  0  0  0  0  0  0  0  0
  182.0340  175.1970  136.7140 C   0  0  0  0  0  2  0  0  0  0  0  0
  181.0880  174.6920  137.6030 O   0  0  0  0  0  1  0  0  0  0  0  0
  188.4030  176.9910  137.6340 C   0  0  0  0  0  3  0  0  0  0  0  0
  189.3990  176.8700  136.7620 C   0  0  0  0  0  3  0  0  0  0  0  0
  189.4810  175.6690  135.8860 C   0  0  0  0  0  2  0  0  0  0  0  0
  188.9710  174.4790  136.6150 C   0  0  0  0  0  0  0  0  0  0  0  0
  187.6870  173.9480  136.2860 N   0  0  0  0  0  2  0  0  0  0  0  0
  189.6810  173.9410  137.5050 O   0  0  0  0  0  0  0  0  0  0  0  0
  187.1490  172.7560  136.9240 C   0  0  0  0  0  2  0  0  0  0  0  0
  185.4100  172.5240  136.4530 P   0  0  0  0  0  0  0  0  0  0  0  0
  185.2040  171.0090  135.7250 O   0  0  0  0  0  1  0  0  0  0  0  0
  184.9540  173.7370  135.3650 O   0  0  0  0  0  0  0  0  0  0  0  0
  184.5440  172.6080  137.6890 O   0  0  0  0  0  1  0  0  0  0  0  0
  1 15  1  0  0  0  0
  2  1  2  0  0  0  0
  2  7  1  0  0  0  0
  3 29  1  6  0  0  0
  3  8  1  0  0  0  0
  3 14  1  0  0  0  0
  4  6  2  0  0  0  0
  5 17  1  0  0  0  0
  6  9  1  0  0  0  0
  7 16  2  0  0  0  0
  8  2  1  0  0  0  0
  9 10  2  0  0  0  0
 10 11  1  0  0  0  0
 11 13  1  0  0  0  0
 12 18  1  0  0  0  0
 14  1  1  0  0  0  0
 15 12  2  0  0  0  0
 16 12  1  0  0  0  0
 16  4  1  0  0  0  0
 17 11  2  0  0  0  0
 18  5  2  0  0  0  0
 18  9  1  0  0  0  0
 19 20  1  0  0  0  0
 19 24  1  0  0  0  0
 20 25  1  6  0  0  0
 20 22  1  0  0  0  0
 22 21  1  0  0  0  0
 23 21  1  0  0  0  0
 23  7  1  6  0  0  0
 24 23  1  0  0  0  0
 25 26  1  0  0  0  0
 27 26  1  0  0  0  0
 27 28  1  0  0  0  0
 30 29  2  0  0  0  0
 31 32  1  0  0  0  0
 31 30  1  0  0  0  0
 32 34  2  0  0  0  0
 33 32  1  0  0  0  0
 33 35  1  0  0  0  0
 36 35  1  0  0  0  0
 36 39  1  0  0  0  0
 37 36  1  0  0  0  0
 38 36  2  0  0  0  0
M  END
>  <MODEL>
7

>  <REMARK>
 VINA RESULT:      -7.8      2.734      4.556
  Name = 
  9 active torsions:
  status: ('A' for Active; 'I' for Inactive)
    1  A    between atoms: C_3  and  P_4
    2  A    between atoms: C_3  and  N_27
    3  A    between atoms: C_5  and  C_6
    4  A    between atoms: C_6  and  C_14
    5  A    between atoms: C_8  and  C_9
    6  A    between atoms: C_10  and  C_30
    7  A    between atoms: C_17  and  C_26
    8  A    between atoms: C_18  and  O_20
    9  A    between atoms: O_20  and  C_30
                            x       y       z     vdW  Elec       q    Type
                         _______ _______ _______ _____ _____    ______ ____

>  <TORSDO>
F 9

$$$$
=
 OpenBabel10232412073D

 39 43  0  0  1  0  0  0  0  0999 V2000
  188.6260  178.0490  139.4250 C   0  0  0  0  0  0  0  0  0  0  0  0
  187.4730  178.2870  138.7320 C   0  0  0  0  0  0  0  0  0  0  0  0
  189.2400  178.1460  137.1380 C   0  0  1  0  0  3  0  0  0  0  0  0
  185.0710  178.4430  141.5600 C   0  0  0  0  0  3  0  0  0  0  0  0
  188.6710  177.6650  143.5930 C   0  0  0  0  0  3  0  0  0  0  0  0
  185.0870  178.3220  142.9500 C   0  0  0  0  0  3  0  0  0  0  0  0
  186.2490  178.4220  139.3950 C   0  0  0  0  0  0  0  0  0  0  0  0
  187.7240  178.3570  137.2720 C   0  0  0  0  0  2  0  0  0  0  0  0
  186.2840  178.0640  143.6170 C   0  0  0  0  0  0  0  0  0  0  0  0
  186.2890  177.9420  144.9720 N   0  0  0  0  0  0  0  0  0  0  0  0
  187.4340  177.6870  145.6620 C   0  0  0  0  0  0  0  0  0  0  0  0
  187.4780  178.0520  141.4880 C   0  0  0  0  0  0  0  0  0  0  0  0
  187.3960  177.5660  147.0780 N   0  0  0  0  0  1  0  0  0  0  0  0
  189.8100  177.9360  138.5520 C   0  0  0  0  0  2  0  0  0  0  0  0
  188.6340  177.9280  140.7750 N   0  0  0  0  0  0  0  0  0  0  0  0
  186.2500  178.3110  140.8110 C   0  0  0  0  0  0  0  0  0  0  0  0
  188.6470  177.5440  144.9820 C   0  0  0  0  0  3  0  0  0  0  0  0
  187.4880  177.9270  142.8890 C   0  0  0  0  0  0  0  0  0  0  0  0
  182.6290  178.0640  138.1540 C   0  0  0  0  0  2  0  0  0  0  0  0
  182.1930  179.1420  139.1500 C   0  0  2  0  0  3  0  0  0  0  0  0
  184.4500  179.9800  138.8500 O   0  0  0  0  0  0  0  0  0  0  0  0
  183.4020  179.8490  139.7820 C   0  0  0  0  0  2  0  0  0  0  0  0
  185.0120  178.7050  138.5780 C   0  0  2  0  0  3  0  0  0  0  0  0
  184.0170  177.5320  138.4920 C   0  0  0  0  0  2  0  0  0  0  0  0
  181.3300  178.5160  140.2330 C   0  0  0  0  0  2  0  0  0  0  0  0
  181.7400  178.9650  141.4870 O   0  0  0  0  0  0  0  0  0  0  0  0
  180.5530  179.2300  142.1690 C   0  0  0  0  0  2  0  0  0  0  0  0
  180.1210  180.5200  141.8680 O   0  0  0  0  0  1  0  0  0  0  0  0
  189.5040  176.9460  136.2890 C   0  0  0  0  0  3  0  0  0  0  0  0
  190.7340  176.4500  136.1770 C   0  0  0  0  0  3  0  0  0  0  0  0
  190.9780  175.2470  135.3350 C   0  0  0  0  0  2  0  0  0  0  0  0
  191.7840  174.2570  136.0950 C   0  0  0  0  0  0  0  0  0  0  0  0
  193.2080  174.3610  136.0980 N   0  0  0  0  0  2  0  0  0  0  0  0
  191.2050  173.3450  136.7430 O   0  0  0  0  0  0  0  0  0  0  0  0
  194.0550  173.4580  136.8630 C   0  0  0  0  0  2  0  0  0  0  0  0
  195.1080  174.4020  138.0040 P   0  0  0  0  0  0  0  0  0  0  0  0
  194.2590  175.7360  138.6070 O   0  0  0  0  0  1  0  0  0  0  0  0
  196.4880  174.9370  137.1840 O   0  0  0  0  0  0  0  0  0  0  0  0
  195.5220  173.5100  139.1520 O   0  0  0  0  0  1  0  0  0  0  0  0
  1 15  1  0  0  0  0
  2  7  1  0  0  0  0
  2  1  2  0  0  0  0
  3 29  1  6  0  0  0
  3  8  1  0  0  0  0
  3 14  1  0  0  0  0
  4  6  2  0  0  0  0
  5 17  1  0  0  0  0
  6  9  1  0  0  0  0
  7 16  2  0  0  0  0
  8  2  1  0  0  0  0
  9 10  2  0  0  0  0
 10 11  1  0  0  0  0
 11 13  1  0  0  0  0
 12 18  1  0  0  0  0
 14  1  1  0  0  0  0
 15 12  2  0  0  0  0
 16 12  1  0  0  0  0
 16  4  1  0  0  0  0
 17 11  2  0  0  0  0
 18  5  2  0  0  0  0
 18  9  1  0  0  0  0
 19 24  1  0  0  0  0
 19 20  1  0  0  0  0
 20 22  1  0  0  0  0
 20 25  1  1  0  0  0
 21 22  1  0  0  0  0
 23 21  1  0  0  0  0
 23  7  1  1  0  0  0
 24 23  1  0  0  0  0
 25 26  1  0  0  0  0
 26 27  1  0  0  0  0
 28 27  1  0  0  0  0
 30 29  2  0  0  0  0
 31 32  1  0  0  0  0
 31 30  1  0  0  0  0
 32 33  1  0  0  0  0
 32 34  2  0  0  0  0
 33 35  1  0  0  0  0
 35 36  1  0  0  0  0
 36 37  1  0  0  0  0
 36 39  1  0  0  0  0
 38 36  2  0  0  0  0
M  END
>  <MODEL>
8

>  <REMARK>
 VINA RESULT:      -7.7      2.779      3.767
  Name = 
  9 active torsions:
  status: ('A' for Active; 'I' for Inactive)
    1  A    between atoms: C_3  and  P_4
    2  A    between atoms: C_3  and  N_27
    3  A    between atoms: C_5  and  C_6
    4  A    between atoms: C_6  and  C_14
    5  A    between atoms: C_8  and  C_9
    6  A    between atoms: C_10  and  C_30
    7  A    between atoms: C_17  and  C_26
    8  A    between atoms: C_18  and  O_20
    9  A    between atoms: O_20  and  C_30
                            x       y       z     vdW  Elec       q    Type
                         _______ _______ _______ _____ _____    ______ ____

>  <TORSDO>
F 9

$$$$
=
 OpenBabel10232412073D

 39 43  0  0  1  0  0  0  0  0999 V2000
  189.4730  177.4160  140.7080 C   0  0  0  0  0  0  0  0  0  0  0  0
  188.8300  177.6900  139.5350 C   0  0  0  0  0  0  0  0  0  0  0  0
  191.0560  177.0380  138.9860 C   0  0  1  0  0  3  0  0  0  0  0  0
  185.4980  178.6530  140.8620 C   0  0  0  0  0  3  0  0  0  0  0  0
  187.5570  177.7430  144.4150 C   0  0  0  0  0  3  0  0  0  0  0  0
  184.8610  178.7680  142.0980 C   0  0  0  0  0  3  0  0  0  0  0  0
  187.4940  178.1020  139.5240 C   0  0  0  0  0  0  0  0  0  0  0  0
  189.7200  177.4750  138.3680 C   0  0  0  0  0  2  0  0  0  0  0  0
  185.5500  178.4650  143.2720 C   0  0  0  0  0  0  0  0  0  0  0  0
  184.9200  178.5750  144.4730 N   0  0  0  0  0  0  0  0  0  0  0  0
  185.5540  178.2860  145.6410 C   0  0  0  0  0  0  0  0  0  0  0  0
  187.5450  177.9280  141.9730 C   0  0  0  0  0  0  0  0  0  0  0  0
  184.8590  178.4130  146.8750 N   0  0  0  0  0  1  0  0  0  0  0  0
  190.8730  176.9950  140.5140 C   0  0  0  0  0  2  0  0  0  0  0  0
  188.8470  177.5260  141.9060 N   0  0  0  0  0  0  0  0  0  0  0  0
  186.8350  178.2350  140.7750 C   0  0  0  0  0  0  0  0  0  0  0  0
  186.8860  177.8640  145.6330 C   0  0  0  0  0  3  0  0  0  0  0  0
  186.8980  178.0420  143.2160 C   0  0  0  0  0  0  0  0  0  0  0  0
  187.1710  178.5400  135.7200 C   0  0  0  0  0  2  0  0  0  0  0  0
  186.6700  177.0970  135.6080 C   0  0  2  0  0  3  0  0  0  0  0  0
  185.8290  177.4780  137.8500 O   0  0  0  0  0  0  0  0  0  0  0  0
  186.3590  176.4980  136.9880 C   0  0  0  0  0  2  0  0  0  0  0  0
  186.8430  178.4090  138.1980 C   0  0  2  0  0  3  0  0  0  0  0  0
  187.8240  178.7920  137.0730 C   0  0  0  0  0  2  0  0  0  0  0  0
  187.7120  176.2500  134.8940 C   0  0  0  0  0  2  0  0  0  0  0  0
  187.1120  175.1150  134.3520 O   0  0  0  0  0  0  0  0  0  0  0  0
  188.0870  174.1240  134.4480 C   0  0  0  0  0  2  0  0  0  0  0  0
  189.1090  174.5550  135.2910 O   0  0  0  0  0  1  0  0  0  0  0  0
  191.4270  175.6860  138.4700 C   0  0  0  0  0  3  0  0  0  0  0  0
  191.9330  175.5400  137.2490 C   0  0  0  0  0  3  0  0  0  0  0  0
  192.3090  174.1870  136.7540 C   0  0  0  0  0  2  0  0  0  0  0  0
  193.7160  174.1980  136.2790 C   0  0  0  0  0  0  0  0  0  0  0  0
  194.6960  174.9500  136.9950 N   0  0  0  0  0  2  0  0  0  0  0  0
  194.0360  173.5330  135.2580 O   0  0  0  0  0  0  0  0  0  0  0  0
  196.1010  174.9640  136.6150 C   0  0  0  0  0  2  0  0  0  0  0  0
  197.1160  174.2500  137.9420 P   0  0  0  0  0  0  0  0  0  0  0  0
  196.1280  173.7460  139.2210 O   0  0  0  0  0  1  0  0  0  0  0  0
  198.2100  175.4130  138.5020 O   0  0  0  0  0  1  0  0  0  0  0  0
  197.8800  173.0630  137.4010 O   0  0  0  0  0  0  0  0  0  0  0  0
  1 15  1  0  0  0  0
  2  1  2  0  0  0  0
  3 29  1  6  0  0  0
  3 14  1  0  0  0  0
  4  6  2  0  0  0  0
  5 17  1  0  0  0  0
  6  9  1  0  0  0  0
  7  2  1  0  0  0  0
  7 16  2  0  0  0  0
  8  3  1  0  0  0  0
  8  2  1  0  0  0  0
  9 10  2  0  0  0  0
 10 11  1  0  0  0  0
 11 13  1  0  0  0  0
 12 18  1  0  0  0  0
 14  1  1  0  0  0  0
 15 12  2  0  0  0  0
 16  4  1  0  0  0  0
 16 12  1  0  0  0  0
 17 11  2  0  0  0  0
 18  9  1  0  0  0  0
 18  5  2  0  0  0  0
 19 24  1  0  0  0  0
 20 25  1  1  0  0  0
 20 19  1  0  0  0  0
 20 22  1  0  0  0  0
 21 23  1  0  0  0  0
 22 21  1  0  0  0  0
 23  7  1  1  0  0  0
 24 23  1  0  0  0  0
 26 27  1  0  0  0  0
 26 25  1  0  0  0  0
 27 28  1  0  0  0  0
 30 29  2  0  0  0  0
 31 30  1  0  0  0  0
 32 31  1  0  0  0  0
 32 33  1  0  0  0  0
 34 32  2  0  0  0  0
 35 33  1  0  0  0  0
 35 36  1  0  0  0  0
 36 38  1  0  0  0  0
 36 37  1  0  0  0  0
 39 36  2  0  0  0  0
M  END
>  <MODEL>
9

>  <REMARK>
 VINA RESULT:      -7.7      3.412      6.281
  Name = 
  9 active torsions:
  status: ('A' for Active; 'I' for Inactive)
    1  A    between atoms: C_3  and  P_4
    2  A    between atoms: C_3  and  N_27
    3  A    between atoms: C_5  and  C_6
    4  A    between atoms: C_6  and  C_14
    5  A    between atoms: C_8  and  C_9
    6  A    between atoms: C_10  and  C_30
    7  A    between atoms: C_17  and  C_26
    8  A    between atoms: C_18  and  O_20
    9  A    between atoms: O_20  and  C_30
                            x       y       z     vdW  Elec       q    Type
                         _______ _______ _______ _____ _____    ______ ____

>  <TORSDO>
F 9

$$$$
