=
 OpenBabel10232409483D

 45 49  0  0  1  0  0  0  0  0999 V2000
  188.2610  178.0320  140.7120 C   0  0  0  0  0  0  0  0  0  0  0  0
  190.3850  176.9140  140.3290 C   0  0  0  0  0  0  0  0  0  0  0  0
  190.8320  177.2940  141.6330 N   0  0  0  0  0  0  0  0  0  0  0  0
  191.1920  176.2370  139.5630 N   0  0  0  0  0  0  0  0  0  0  0  0
  189.0440  177.3290  139.8940 C   0  0  0  0  0  3  0  0  0  0  0  0
  190.1030  177.9870  142.4590 C   0  0  0  0  0  0  0  0  0  0  0  0
  188.7130  178.4440  142.0900 C   0  0  0  0  0  2  0  0  0  0  0  0
  190.2430  174.7190  138.0350 O   0  0  0  0  0  0  0  0  0  0  0  0
  190.9360  175.7530  138.2330 C   0  0  0  0  0  0  0  0  0  0  0  0
  192.9980  176.2240  136.8460 C   0  0  1  0  0  3  0  0  0  0  0  0
  192.0110  175.4680  136.0600 N   0  0  0  0  0  2  0  0  0  0  0  0
  191.5480  176.4530  137.0530 C   0  0  1  0  0  3  0  0  0  0  0  0
  193.6840  175.2970  137.8560 C   0  0  2  0  0  3  0  0  0  0  0  0
  194.2780  176.0780  138.8490 O   0  0  0  0  0  1  0  0  0  0  0  0
  194.7440  174.4250  137.1730 C   0  0  1  0  0  3  0  0  0  0  0  0
  196.0210  175.1260  137.1110 N   0  0  0  0  0  2  0  0  0  0  0  0
  196.3740  175.1850  135.8040 O   0  0  0  0  0  1  0  0  0  0  0  0
  194.9120  173.0880  137.8970 C   0  0  2  0  0  3  0  0  0  0  0  0
  195.6930  173.2410  139.0480 O   0  0  0  0  0  1  0  0  0  0  0  0
  195.8310  170.9000  137.7400 O   0  0  0  0  0  0  0  0  0  0  0  0
  194.6840  170.8390  136.9260 C   0  0  0  0  0  2  0  0  0  0  0  0
  195.5350  172.0470  136.9830 C   0  0  1  0  0  3  0  0  0  0  0  0
  186.9140  178.4670  140.2460 C   0  0  0  0  0  2  0  0  0  0  0  0
  186.7550  178.1630  138.8350 N   0  0  0  0  0  2  0  0  0  0  0  0
  185.7190  178.9790  138.3640 N   0  0  0  0  0  2  0  0  0  0  0  0
  184.5390  178.1380  138.2630 C   0  0  0  0  0  2  0  0  0  0  0  0
  183.4450  178.7350  139.0100 N   0  0  0  0  0  2  0  0  0  0  0  0
  183.0380  177.8160  139.9200 O   0  0  0  0  0  0  0  0  0  0  0  0
  182.9860  178.9310  144.4080 C   0  0  0  0  0  2  0  0  0  0  0  0
  181.5440  178.6510  143.9790 C   0  0  0  0  0  2  0  0  0  0  0  0
  183.7520  177.9150  142.1910 C   0  0  0  0  0  2  0  0  0  0  0  0
  182.8810  178.5360  141.1050 C   0  0  2  0  0  3  0  0  0  0  0  0
  181.1400  179.4090  142.7230 C   0  0  0  0  0  2  0  0  0  0  0  0
  184.0230  178.9460  143.2810 C   0  0  2  0  0  3  0  0  0  0  0  0
  185.4000  178.7060  143.8700 C   0  0  0  0  0  1  0  0  0  0  0  0
  181.4060  178.5420  141.4970 C   0  0  0  0  0  2  0  0  0  0  0  0
  190.5810  178.3310  143.7320 O   0  0  0  0  0  0  0  0  0  0  0  0
  191.9770  176.1630  145.2200 O   0  0  0  0  0  0  0  0  0  0  0  0
  189.1170  178.0420  145.6740 C   0  0  0  0  0  3  0  0  0  0  0  0
  189.0820  177.1600  146.9000 C   0  0  1  0  0  3  0  0  0  0  0  0
  190.9060  176.6920  145.6130 C   0  0  0  0  0  0  0  0  0  0  0  0
  190.2500  176.3500  146.7770 O   0  0  0  0  0  0  0  0  0  0  0  0
  190.1870  177.7450  144.9450 C   0  0  0  0  0  0  0  0  0  0  0  0
  187.8650  177.9650  148.9140 C   0  0  0  0  0  1  0  0  0  0  0  0
  189.1710  178.0190  148.1490 C   0  0  0  0  0  2  0  0  0  0  0  0
  1  7  1  0  0  0  0
  2  3  1  0  0  0  0
  3  6  2  0  0  0  0
  4  2  2  0  0  0  0
  5  2  1  0  0  0  0
  5  1  2  0  0  0  0
  6 37  1  0  0  0  0
  7  6  1  0  0  0  0
  8  9  2  0  0  0  0
  9  4  1  0  0  0  0
 10 12  1  0  0  0  0
 10 13  1  1  0  0  0
 11 10  1  0  0  0  0
 11 12  1  0  0  0  0
 12  9  1  1  0  0  0
 13 14  1  1  0  0  0
 15 16  1  1  0  0  0
 15 13  1  0  0  0  0
 15 18  1  0  0  0  0
 17 16  1  0  0  0  0
 18 19  1  1  0  0  0
 21 22  1  0  0  0  0
 21 20  1  0  0  0  0
 22 20  1  0  0  0  0
 22 18  1  1  0  0  0
 23  1  1  0  0  0  0
 24 23  1  0  0  0  0
 25 24  1  0  0  0  0
 26 25  1  0  0  0  0
 26 27  1  0  0  0  0
 27 28  1  0  0  0  0
 30 29  1  0  0  0  0
 31 34  1  0  0  0  0
 32 28  1  6  0  0  0
 32 36  1  0  0  0  0
 32 31  1  0  0  0  0
 33 30  1  0  0  0  0
 34 35  1  1  0  0  0
 34 29  1  0  0  0  0
 36 33  1  0  0  0  0
 37 43  1  0  0  0  0
 38 41  2  0  0  0  0
 39 40  1  0  0  0  0
 40 45  1  1  0  0  0
 41 42  1  0  0  0  0
 42 40  1  0  0  0  0
 43 41  1  0  0  0  0
 43 39  2  0  0  0  0
 45 44  1  0  0  0  0
M  END
>  <MODEL>
1

>  <REMARK>
 VINA RESULT:      -8.0      0.000      0.000
  Name = 
  17 active torsions:
  status: ('A' for Active; 'I' for Inactive)
    1  A    between atoms: C_2  and  C_17
    2  A    between atoms: N_4  and  C_9
    3  A    between atoms: N_4  and  N_29
    4  A    between atoms: C_6  and  N_18
    5  A    between atoms: C_6  and  N_29
    6  A    between atoms: C_7  and  C_14
    7  A    between atoms: C_7  and  C_43
    8  A    between atoms: C_9  and  C_12
    9  A    between atoms: N_13  and  C_14
   10  A    between atoms: C_14  and  C_17
   11  A    between atoms: N_18  and  O_30
   12  A    between atoms: C_20  and  O_30
   13  A    between atoms: C_22  and  C_27
   14  A    between atoms: N_33  and  C_35
   15  A    between atoms: C_35  and  C_41
   16  A    between atoms: C_38  and  O_44
   17  A    between atoms: C_40  and  O_44
                            x       y       z     vdW  Elec       q    Type
                         _______ _______ _______ _____ _____    ______ ____

>  <TORSDO>
F 17

$$$$
=
 OpenBabel10232409483D

 45 49  0  0  1  0  0  0  0  0999 V2000
  190.2070  177.3020  139.6070 C   0  0  0  0  0  0  0  0  0  0  0  0
  189.5140  176.0790  137.6230 C   0  0  0  0  0  0  0  0  0  0  0  0
  188.3670  176.9230  137.4920 N   0  0  0  0  0  0  0  0  0  0  0  0
  189.6870  175.1180  136.7630 N   0  0  0  0  0  0  0  0  0  0  0  0
  190.4360  176.3120  138.7440 C   0  0  0  0  0  3  0  0  0  0  0  0
  188.1030  177.8940  138.3170 C   0  0  0  0  0  0  0  0  0  0  0  0
  189.0040  178.2020  139.4870 C   0  0  0  0  0  2  0  0  0  0  0  0
  191.3310  173.7620  137.7620 O   0  0  0  0  0  0  0  0  0  0  0  0
  190.7700  174.1730  136.7110 C   0  0  0  0  0  0  0  0  0  0  0  0
  192.6570  174.1490  135.0260 C   0  0  1  0  0  3  0  0  0  0  0  0
  192.4360  172.8000  135.5710 N   0  0  0  0  0  2  0  0  0  0  0  0
  191.2880  173.7040  135.3810 C   0  0  1  0  0  3  0  0  0  0  0  0
  193.3710  175.0230  136.0640 C   0  0  2  0  0  3  0  0  0  0  0  0
  192.8720  176.3240  135.9720 O   0  0  0  0  0  1  0  0  0  0  0  0
  194.8860  175.0260  135.8320 C   0  0  1  0  0  3  0  0  0  0  0  0
  195.4140  176.3830  135.9150 N   0  0  0  0  0  2  0  0  0  0  0  0
  196.7640  176.2770  135.9450 O   0  0  0  0  0  1  0  0  0  0  0  0
  195.6010  174.1200  136.8370 C   0  0  2  0  0  3  0  0  0  0  0  0
  195.7280  172.8220  136.3320 O   0  0  0  0  0  1  0  0  0  0  0  0
  195.4320  173.0920  138.9750 O   0  0  0  0  0  0  0  0  0  0  0  0
  195.7840  174.4230  139.2720 C   0  0  0  0  0  2  0  0  0  0  0  0
  194.8620  174.0900  138.1650 C   0  0  1  0  0  3  0  0  0  0  0  0
  191.1380  177.5080  140.7520 C   0  0  0  0  0  2  0  0  0  0  0  0
  190.6810  176.7540  141.9060 N   0  0  0  0  0  2  0  0  0  0  0  0
  191.6170  176.9740  142.9240 N   0  0  0  0  0  2  0  0  0  0  0  0
  191.5490  175.8230  143.8070 C   0  0  0  0  0  2  0  0  0  0  0  0
  191.6540  176.2580  145.1900 N   0  0  0  0  0  2  0  0  0  0  0  0
  191.0370  177.4610  145.2760 O   0  0  0  0  0  0  0  0  0  0  0  0
  186.5250  177.8170  146.2240 C   0  0  0  0  0  2  0  0  0  0  0  0
  187.2970  178.0940  147.5150 C   0  0  0  0  0  2  0  0  0  0  0  0
  188.7380  178.0050  144.9610 C   0  0  0  0  0  2  0  0  0  0  0  0
  189.7510  177.1680  145.7330 C   0  0  2  0  0  3  0  0  0  0  0  0
  188.3340  177.0260  147.8270 C   0  0  0  0  0  2  0  0  0  0  0  0
  187.3670  177.3450  145.0350 C   0  0  2  0  0  3  0  0  0  0  0  0
  186.6080  177.6160  143.7500 C   0  0  0  0  0  1  0  0  0  0  0  0
  189.6790  177.4340  147.2350 C   0  0  0  0  0  2  0  0  0  0  0  0
  186.9680  178.7010  138.1440 O   0  0  0  0  0  0  0  0  0  0  0  0
  185.6890  179.3800  140.7440 O   0  0  0  0  0  0  0  0  0  0  0  0
  184.7380  177.7280  137.8670 C   0  0  0  0  0  3  0  0  0  0  0  0
  183.4810  177.6120  138.6960 C   0  0  1  0  0  3  0  0  0  0  0  0
  185.1040  178.7400  139.8340 C   0  0  0  0  0  0  0  0  0  0  0  0
  183.8060  178.2830  139.9130 O   0  0  0  0  0  0  0  0  0  0  0  0
  185.6640  178.3870  138.5550 C   0  0  0  0  0  0  0  0  0  0  0  0
  182.2490  177.8710  136.5510 C   0  0  0  0  0  1  0  0  0  0  0  0
  182.3390  178.3250  137.9940 C   0  0  0  0  0  2  0  0  0  0  0  0
  1 23  1  0  0  0  0
  2  5  1  0  0  0  0
  3  2  1  0  0  0  0
  3  6  2  0  0  0  0
  4  2  2  0  0  0  0
  5  1  2  0  0  0  0
  6  7  1  0  0  0  0
  7  1  1  0  0  0  0
  9  4  1  0  0  0  0
  9  8  2  0  0  0  0
 10 12  1  0  0  0  0
 10 11  1  0  0  0  0
 10 13  1  1  0  0  0
 12 11  1  0  0  0  0
 12  9  1  1  0  0  0
 13 14  1  6  0  0  0
 15 16  1  1  0  0  0
 15 13  1  0  0  0  0
 15 18  1  0  0  0  0
 16 17  1  0  0  0  0
 18 19  1  6  0  0  0
 20 21  1  0  0  0  0
 22 18  1  6  0  0  0
 22 20  1  0  0  0  0
 22 21  1  0  0  0  0
 23 24  1  0  0  0  0
 24 25  1  0  0  0  0
 25 26  1  0  0  0  0
 26 27  1  0  0  0  0
 27 28  1  0  0  0  0
 29 30  1  0  0  0  0
 30 33  1  0  0  0  0
 31 34  1  0  0  0  0
 31 32  1  0  0  0  0
 32 28  1  6  0  0  0
 32 36  1  0  0  0  0
 34 35  1  6  0  0  0
 34 29  1  0  0  0  0
 36 33  1  0  0  0  0
 37  6  1  0  0  0  0
 37 43  1  0  0  0  0
 39 43  2  0  0  0  0
 39 40  1  0  0  0  0
 40 45  1  6  0  0  0
 40 42  1  0  0  0  0
 41 42  1  0  0  0  0
 41 38  2  0  0  0  0
 43 41  1  0  0  0  0
 44 45  1  0  0  0  0
M  END
>  <MODEL>
2

>  <REMARK>
 VINA RESULT:      -7.8      2.376      6.319
  Name = 
  17 active torsions:
  status: ('A' for Active; 'I' for Inactive)
    1  A    between atoms: C_2  and  C_17
    2  A    between atoms: N_4  and  C_9
    3  A    between atoms: N_4  and  N_29
    4  A    between atoms: C_6  and  N_18
    5  A    between atoms: C_6  and  N_29
    6  A    between atoms: C_7  and  C_14
    7  A    between atoms: C_7  and  C_43
    8  A    between atoms: C_9  and  C_12
    9  A    between atoms: N_13  and  C_14
   10  A    between atoms: C_14  and  C_17
   11  A    between atoms: N_18  and  O_30
   12  A    between atoms: C_20  and  O_30
   13  A    between atoms: C_22  and  C_27
   14  A    between atoms: N_33  and  C_35
   15  A    between atoms: C_35  and  C_41
   16  A    between atoms: C_38  and  O_44
   17  A    between atoms: C_40  and  O_44
                            x       y       z     vdW  Elec       q    Type
                         _______ _______ _______ _____ _____    ______ ____

>  <TORSDO>
F 17

$$$$
=
 OpenBabel10232409483D

 45 49  0  0  1  0  0  0  0  0999 V2000
  188.9180  177.5640  138.6340 C   0  0  0  0  0  0  0  0  0  0  0  0
  191.2150  177.0530  139.2420 C   0  0  0  0  0  0  0  0  0  0  0  0
  190.9190  177.3090  140.6170 N   0  0  0  0  0  0  0  0  0  0  0  0
  192.4300  176.7190  138.9140 N   0  0  0  0  0  0  0  0  0  0  0  0
  190.1430  177.2070  138.2480 C   0  0  0  0  0  3  0  0  0  0  0  0
  189.7390  177.6670  141.0330 C   0  0  0  0  0  0  0  0  0  0  0  0
  188.5840  177.8390  140.0780 C   0  0  0  0  0  2  0  0  0  0  0  0
  193.9120  177.0340  137.1120 O   0  0  0  0  0  0  0  0  0  0  0  0
  192.9300  176.4120  137.6010 C   0  0  0  0  0  0  0  0  0  0  0  0
  193.0960  174.2630  136.2770 C   0  0  1  0  0  3  0  0  0  0  0  0
  192.2450  174.0730  137.4630 N   0  0  0  0  0  2  0  0  0  0  0  0
  192.2400  175.3710  136.7650 C   0  0  1  0  0  3  0  0  0  0  0  0
  194.5700  174.3170  136.6930 C   0  0  2  0  0  3  0  0  0  0  0  0
  195.3600  173.9900  135.5890 O   0  0  0  0  0  1  0  0  0  0  0  0
  194.8540  173.3450  137.8450 C   0  0  1  0  0  3  0  0  0  0  0  0
  195.1960  172.0250  137.3280 N   0  0  0  0  0  2  0  0  0  0  0  0
  195.7300  171.3270  138.3590 O   0  0  0  0  0  1  0  0  0  0  0  0
  195.9760  173.8660  138.7440 C   0  0  2  0  0  3  0  0  0  0  0  0
  195.6100  175.0750  139.3450 O   0  0  0  0  0  1  0  0  0  0  0  0
  197.5700  175.4170  137.9010 O   0  0  0  0  0  0  0  0  0  0  0  0
  198.3090  174.6450  138.8190 C   0  0  0  0  0  2  0  0  0  0  0  0
  197.2650  174.0460  137.9600 C   0  0  1  0  0  3  0  0  0  0  0  0
  187.8480  177.7400  137.6110 C   0  0  0  0  0  2  0  0  0  0  0  0
  186.8500  178.6780  138.0920 N   0  0  0  0  0  2  0  0  0  0  0  0
  185.9070  177.9280  138.8060 N   0  0  0  0  0  2  0  0  0  0  0  0
  184.8550  178.8480  139.2010 C   0  0  0  0  0  2  0  0  0  0  0  0
  185.1380  179.3800  140.5230 N   0  0  0  0  0  2  0  0  0  0  0  0
  185.4590  178.3260  141.3140 O   0  0  0  0  0  0  0  0  0  0  0  0
  185.1270  178.4840  145.9240 C   0  0  0  0  0  2  0  0  0  0  0  0
  183.7150  178.6070  145.3480 C   0  0  0  0  0  2  0  0  0  0  0  0
  185.9240  177.8060  143.5920 C   0  0  0  0  0  2  0  0  0  0  0  0
  185.3130  178.8050  142.6170 C   0  0  2  0  0  3  0  0  0  0  0  0
  183.6040  179.6750  144.2700 C   0  0  0  0  0  2  0  0  0  0  0  0
  186.2660  178.5100  144.9000 C   0  0  2  0  0  3  0  0  0  0  0  0
  187.4970  177.8700  145.5100 C   0  0  0  0  0  1  0  0  0  0  0  0
  183.8320  179.0420  142.9020 C   0  0  0  0  0  2  0  0  0  0  0  0
  189.4930  177.9010  142.3950 O   0  0  0  0  0  0  0  0  0  0  0  0
  191.2010  179.8580  143.8480 O   0  0  0  0  0  0  0  0  0  0  0  0
  190.6300  176.4580  144.0130 C   0  0  0  0  0  3  0  0  0  0  0  0
  191.6550  176.6330  145.1090 C   0  0  1  0  0  3  0  0  0  0  0  0
  191.1840  178.6280  144.1090 C   0  0  0  0  0  0  0  0  0  0  0  0
  191.9380  178.0320  145.0980 O   0  0  0  0  0  0  0  0  0  0  0  0
  190.3790  177.6340  143.4490 C   0  0  0  0  0  0  0  0  0  0  0  0
  192.1400  176.0460  147.4770 C   0  0  0  0  0  1  0  0  0  0  0  0
  191.0480  176.2330  146.4430 C   0  0  0  0  0  2  0  0  0  0  0  0
  1  7  1  0  0  0  0
  2  3  1  0  0  0  0
  3  6  2  0  0  0  0
  4  2  2  0  0  0  0
  5  1  2  0  0  0  0
  5  2  1  0  0  0  0
  6 37  1  0  0  0  0
  7  6  1  0  0  0  0
  8  9  2  0  0  0  0
  9  4  1  0  0  0  0
 10 13  1  1  0  0  0
 10 12  1  0  0  0  0
 10 11  1  0  0  0  0
 12 11  1  0  0  0  0
 12  9  1  1  0  0  0
 13 14  1  6  0  0  0
 13 15  1  0  0  0  0
 15 16  1  6  0  0  0
 15 18  1  0  0  0  0
 16 17  1  0  0  0  0
 18 19  1  6  0  0  0
 20 22  1  0  0  0  0
 20 21  1  0  0  0  0
 22 18  1  1  0  0  0
 22 21  1  0  0  0  0
 23 24  1  0  0  0  0
 23  1  1  0  0  0  0
 24 25  1  0  0  0  0
 25 26  1  0  0  0  0
 26 27  1  0  0  0  0
 27 28  1  0  0  0  0
 30 29  1  0  0  0  0
 31 34  1  0  0  0  0
 32 28  1  6  0  0  0
 32 36  1  0  0  0  0
 32 31  1  0  0  0  0
 33 30  1  0  0  0  0
 34 35  1  1  0  0  0
 34 29  1  0  0  0  0
 36 33  1  0  0  0  0
 37 43  1  0  0  0  0
 38 41  2  0  0  0  0
 39 40  1  0  0  0  0
 40 45  1  1  0  0  0
 41 42  1  0  0  0  0
 42 40  1  0  0  0  0
 43 39  2  0  0  0  0
 43 41  1  0  0  0  0
 45 44  1  0  0  0  0
M  END
>  <MODEL>
3

>  <REMARK>
 VINA RESULT:      -7.7      1.928      2.792
  Name = 
  17 active torsions:
  status: ('A' for Active; 'I' for Inactive)
    1  A    between atoms: C_2  and  C_17
    2  A    between atoms: N_4  and  C_9
    3  A    between atoms: N_4  and  N_29
    4  A    between atoms: C_6  and  N_18
    5  A    between atoms: C_6  and  N_29
    6  A    between atoms: C_7  and  C_14
    7  A    between atoms: C_7  and  C_43
    8  A    between atoms: C_9  and  C_12
    9  A    between atoms: N_13  and  C_14
   10  A    between atoms: C_14  and  C_17
   11  A    between atoms: N_18  and  O_30
   12  A    between atoms: C_20  and  O_30
   13  A    between atoms: C_22  and  C_27
   14  A    between atoms: N_33  and  C_35
   15  A    between atoms: C_35  and  C_41
   16  A    between atoms: C_38  and  O_44
   17  A    between atoms: C_40  and  O_44
                            x       y       z     vdW  Elec       q    Type
                         _______ _______ _______ _____ _____    ______ ____

>  <TORSDO>
F 17

$$$$
=
 OpenBabel10232409483D

 45 49  0  0  1  0  0  0  0  0999 V2000
  190.0350  177.1200  140.1210 C   0  0  0  0  0  0  0  0  0  0  0  0
  189.8030  176.2680  137.8560 C   0  0  0  0  0  0  0  0  0  0  0  0
  188.6780  177.1240  137.6380 N   0  0  0  0  0  0  0  0  0  0  0  0
  190.1800  175.4730  136.8960 N   0  0  0  0  0  0  0  0  0  0  0  0
  190.4690  176.2970  139.1660 C   0  0  0  0  0  3  0  0  0  0  0  0
  188.2180  177.9350  138.5460 C   0  0  0  0  0  0  0  0  0  0  0  0
  188.8510  178.0290  139.9130 C   0  0  0  0  0  2  0  0  0  0  0  0
  191.8950  174.2720  137.9730 O   0  0  0  0  0  0  0  0  0  0  0  0
  191.2820  174.5500  136.9060 C   0  0  0  0  0  0  0  0  0  0  0  0
  193.1320  174.3090  135.1970 C   0  0  1  0  0  3  0  0  0  0  0  0
  192.8840  173.0250  135.8710 N   0  0  0  0  0  2  0  0  0  0  0  0
  191.7580  173.9420  135.6170 C   0  0  1  0  0  3  0  0  0  0  0  0
  193.8930  175.2540  136.1340 C   0  0  2  0  0  3  0  0  0  0  0  0
  193.4820  176.5640  135.8790 O   0  0  0  0  0  1  0  0  0  0  0  0
  195.4070  175.1320  135.9300 C   0  0  1  0  0  3  0  0  0  0  0  0
  196.0200  176.4520  135.8360 N   0  0  0  0  0  2  0  0  0  0  0  0
  197.3480  176.2840  136.0410 O   0  0  0  0  0  1  0  0  0  0  0  0
  196.0550  174.3300  137.0600 C   0  0  2  0  0  3  0  0  0  0  0  0
  196.3110  173.0160  136.6530 O   0  0  0  0  0  1  0  0  0  0  0  0
  195.5590  173.2530  139.1230 O   0  0  0  0  0  0  0  0  0  0  0  0
  195.9970  174.5350  139.5110 C   0  0  0  0  0  2  0  0  0  0  0  0
  195.1760  174.3260  138.2990 C   0  0  1  0  0  3  0  0  0  0  0  0
  190.7050  177.1180  141.4520 C   0  0  0  0  0  2  0  0  0  0  0  0
  190.4350  175.8700  142.1430 N   0  0  0  0  0  2  0  0  0  0  0  0
  190.6870  176.1010  143.5010 N   0  0  0  0  0  2  0  0  0  0  0  0
  189.8910  177.2550  143.8810 C   0  0  0  0  0  2  0  0  0  0  0  0
  188.5840  176.8200  144.3430 N   0  0  0  0  0  2  0  0  0  0  0  0
  187.7400  176.9060  143.2860 O   0  0  0  0  0  0  0  0  0  0  0  0
  184.1560  179.0270  145.2950 C   0  0  0  0  0  2  0  0  0  0  0  0
  183.7530  178.6860  143.8590 C   0  0  0  0  0  2  0  0  0  0  0  0
  186.1910  177.5110  144.9920 C   0  0  0  0  0  2  0  0  0  0  0  0
  186.8130  177.8830  143.6510 C   0  0  2  0  0  3  0  0  0  0  0  0
  184.7760  179.1430  142.8310 C   0  0  0  0  0  2  0  0  0  0  0  0
  185.6210  178.7590  145.6550 C   0  0  2  0  0  3  0  0  0  0  0  0
  185.7470  178.6330  147.1610 C   0  0  0  0  0  1  0  0  0  0  0  0
  185.7600  178.0110  142.5540 C   0  0  0  0  0  2  0  0  0  0  0  0
  187.1160  178.7620  138.2860 O   0  0  0  0  0  0  0  0  0  0  0  0
  185.7410  177.0110  136.3100 O   0  0  0  0  0  0  0  0  0  0  0  0
  184.8410  178.6890  139.1890 C   0  0  0  0  0  3  0  0  0  0  0  0
  183.5280  178.0470  138.8060 C   0  0  1  0  0  3  0  0  0  0  0  0
  185.1610  177.5190  137.3030 C   0  0  0  0  0  0  0  0  0  0  0  0
  183.8310  177.3270  137.6120 O   0  0  0  0  0  0  0  0  0  0  0  0
  185.7700  178.3670  138.2950 C   0  0  0  0  0  0  0  0  0  0  0  0
  182.6970  175.7540  139.2970 C   0  0  0  0  0  1  0  0  0  0  0  0
  183.0930  177.0870  139.8990 C   0  0  0  0  0  2  0  0  0  0  0  0
  1 23  1  0  0  0  0
  2  5  1  0  0  0  0
  3  2  1  0  0  0  0
  3  6  2  0  0  0  0
  4  9  1  0  0  0  0
  4  2  2  0  0  0  0
  5  1  2  0  0  0  0
  6  7  1  0  0  0  0
  7  1  1  0  0  0  0
  9  8  2  0  0  0  0
 10 12  1  0  0  0  0
 10 11  1  0  0  0  0
 10 13  1  1  0  0  0
 12 11  1  0  0  0  0
 12  9  1  1  0  0  0
 13 14  1  6  0  0  0
 15 16  1  1  0  0  0
 15 13  1  0  0  0  0
 15 18  1  0  0  0  0
 16 17  1  0  0  0  0
 18 19  1  6  0  0  0
 20 21  1  0  0  0  0
 22 18  1  6  0  0  0
 22 20  1  0  0  0  0
 22 21  1  0  0  0  0
 23 24  1  0  0  0  0
 24 25  1  0  0  0  0
 25 26  1  0  0  0  0
 26 27  1  0  0  0  0
 28 27  1  0  0  0  0
 29 34  1  0  0  0  0
 30 29  1  0  0  0  0
 31 34  1  0  0  0  0
 32 28  1  6  0  0  0
 32 31  1  0  0  0  0
 33 30  1  0  0  0  0
 34 35  1  1  0  0  0
 36 33  1  0  0  0  0
 36 32  1  0  0  0  0
 37 43  1  0  0  0  0
 37  6  1  0  0  0  0
 38 41  2  0  0  0  0
 40 39  1  0  0  0  0
 40 45  1  1  0  0  0
 41 42  1  0  0  0  0
 41 43  1  0  0  0  0
 42 40  1  0  0  0  0
 43 39  2  0  0  0  0
 44 45  1  0  0  0  0
M  END
>  <MODEL>
4

>  <REMARK>
 VINA RESULT:      -7.7      2.428      5.500
  Name = 
  17 active torsions:
  status: ('A' for Active; 'I' for Inactive)
    1  A    between atoms: C_2  and  C_17
    2  A    between atoms: N_4  and  C_9
    3  A    between atoms: N_4  and  N_29
    4  A    between atoms: C_6  and  N_18
    5  A    between atoms: C_6  and  N_29
    6  A    between atoms: C_7  and  C_14
    7  A    between atoms: C_7  and  C_43
    8  A    between atoms: C_9  and  C_12
    9  A    between atoms: N_13  and  C_14
   10  A    between atoms: C_14  and  C_17
   11  A    between atoms: N_18  and  O_30
   12  A    between atoms: C_20  and  O_30
   13  A    between atoms: C_22  and  C_27
   14  A    between atoms: N_33  and  C_35
   15  A    between atoms: C_35  and  C_41
   16  A    between atoms: C_38  and  O_44
   17  A    between atoms: C_40  and  O_44
                            x       y       z     vdW  Elec       q    Type
                         _______ _______ _______ _____ _____    ______ ____

>  <TORSDO>
F 17

$$$$
=
 OpenBabel10232409483D

 45 49  0  0  1  0  0  0  0  0999 V2000
  187.9550  178.1770  141.0300 C   0  0  0  0  0  0  0  0  0  0  0  0
  189.9580  177.2130  140.0460 C   0  0  0  0  0  0  0  0  0  0  0  0
  190.6230  177.2770  141.3100 N   0  0  0  0  0  0  0  0  0  0  0  0
  190.6100  176.7500  139.0180 N   0  0  0  0  0  0  0  0  0  0  0  0
  188.5750  177.7000  139.9500 C   0  0  0  0  0  3  0  0  0  0  0  0
  190.0560  177.7430  142.3860 C   0  0  0  0  0  0  0  0  0  0  0  0
  188.6370  178.2550  142.3710 C   0  0  0  0  0  2  0  0  0  0  0  0
  189.9370  177.5900  136.9250 O   0  0  0  0  0  0  0  0  0  0  0  0
  190.1270  176.5930  137.6730 C   0  0  0  0  0  0  0  0  0  0  0  0
  190.8150  174.5760  136.3100 C   0  0  1  0  0  3  0  0  0  0  0  0
  190.7000  174.2200  137.7340 N   0  0  0  0  0  2  0  0  0  0  0  0
  189.7860  175.2230  137.1590 C   0  0  1  0  0  3  0  0  0  0  0  0
  192.0970  175.3820  136.0730 C   0  0  2  0  0  3  0  0  0  0  0  0
  192.1320  175.7850  134.7360 O   0  0  0  0  0  1  0  0  0  0  0  0
  193.3410  174.5480  136.4010 C   0  0  1  0  0  3  0  0  0  0  0  0
  194.3090  174.6230  135.3130 N   0  0  0  0  0  2  0  0  0  0  0  0
  194.4310  173.3710  134.8100 O   0  0  0  0  0  1  0  0  0  0  0  0
  193.9840  175.0070  137.7110 C   0  0  2  0  0  3  0  0  0  0  0  0
  193.8770  176.3940  137.8580 O   0  0  0  0  0  1  0  0  0  0  0  0
  195.9430  174.8910  139.0560 O   0  0  0  0  0  0  0  0  0  0  0  0
  195.6330  173.5410  138.8000 C   0  0  0  0  0  2  0  0  0  0  0  0
  195.4440  174.5910  137.7760 C   0  0  1  0  0  3  0  0  0  0  0  0
  186.5620  178.6910  140.9090 C   0  0  0  0  0  2  0  0  0  0  0  0
  186.1680  178.7380  139.5120 N   0  0  0  0  0  2  0  0  0  0  0  0
  185.0430  179.5680  139.4410 N   0  0  0  0  0  2  0  0  0  0  0  0
  184.1140  178.9320  138.5230 C   0  0  0  0  0  2  0  0  0  0  0  0
  182.7750  178.9520  139.0860 N   0  0  0  0  0  2  0  0  0  0  0  0
  182.7250  177.9790  140.0280 O   0  0  0  0  0  0  0  0  0  0  0  0
  182.5460  178.9550  144.5450 C   0  0  0  0  0  2  0  0  0  0  0  0
  181.1210  178.6580  144.0740 C   0  0  0  0  0  2  0  0  0  0  0  0
  183.3840  178.0240  142.3180 C   0  0  0  0  0  2  0  0  0  0  0  0
  182.5250  178.6590  141.2310 C   0  0  2  0  0  3  0  0  0  0  0  0
  180.7300  179.4460  142.8330 C   0  0  0  0  0  2  0  0  0  0  0  0
  183.6090  179.0260  143.4430 C   0  0  2  0  0  3  0  0  0  0  0  0
  184.9760  178.7970  144.0570 C   0  0  0  0  0  1  0  0  0  0  0  0
  181.0410  178.6230  141.5880 C   0  0  0  0  0  2  0  0  0  0  0  0
  190.7450  177.7800  143.6080 O   0  0  0  0  0  0  0  0  0  0  0  0
  192.0970  176.3230  145.8230 O   0  0  0  0  0  0  0  0  0  0  0  0
  188.9950  177.7500  145.3200 C   0  0  0  0  0  3  0  0  0  0  0  0
  188.8420  177.2110  146.7230 C   0  0  1  0  0  3  0  0  0  0  0  0
  190.9160  176.7460  145.8950 C   0  0  0  0  0  0  0  0  0  0  0  0
  190.1030  176.6030  147.0000 O   0  0  0  0  0  0  0  0  0  0  0  0
  190.2090  177.4610  144.8640 C   0  0  0  0  0  0  0  0  0  0  0  0
  188.0020  177.8390  148.9780 C   0  0  0  0  0  1  0  0  0  0  0  0
  188.5930  178.3600  147.6850 C   0  0  0  0  0  2  0  0  0  0  0  0
  1  7  1  0  0  0  0
  2  3  1  0  0  0  0
  3  6  2  0  0  0  0
  4  2  2  0  0  0  0
  5  2  1  0  0  0  0
  5  1  2  0  0  0  0
  6 37  1  0  0  0  0
  7  6  1  0  0  0  0
  8  9  2  0  0  0  0
  9  4  1  0  0  0  0
 10 13  1  1  0  0  0
 10 12  1  0  0  0  0
 10 11  1  0  0  0  0
 12  9  1  1  0  0  0
 12 11  1  0  0  0  0
 13 14  1  6  0  0  0
 13 15  1  0  0  0  0
 15 16  1  6  0  0  0
 15 18  1  0  0  0  0
 17 16  1  0  0  0  0
 18 19  1  6  0  0  0
 21 20  1  0  0  0  0
 22 18  1  1  0  0  0
 22 21  1  0  0  0  0
 22 20  1  0  0  0  0
 23  1  1  0  0  0  0
 24 23  1  0  0  0  0
 25 24  1  0  0  0  0
 26 27  1  0  0  0  0
 26 25  1  0  0  0  0
 27 28  1  0  0  0  0
 30 29  1  0  0  0  0
 31 34  1  0  0  0  0
 32 28  1  6  0  0  0
 32 36  1  0  0  0  0
 32 31  1  0  0  0  0
 33 30  1  0  0  0  0
 34 35  1  1  0  0  0
 34 29  1  0  0  0  0
 36 33  1  0  0  0  0
 37 43  1  0  0  0  0
 38 41  2  0  0  0  0
 39 40  1  0  0  0  0
 40 42  1  0  0  0  0
 40 45  1  1  0  0  0
 41 42  1  0  0  0  0
 43 39  2  0  0  0  0
 43 41  1  0  0  0  0
 45 44  1  0  0  0  0
M  END
>  <MODEL>
5

>  <REMARK>
 VINA RESULT:      -7.7      1.394      1.769
  Name = 
  17 active torsions:
  status: ('A' for Active; 'I' for Inactive)
    1  A    between atoms: C_2  and  C_17
    2  A    between atoms: N_4  and  C_9
    3  A    between atoms: N_4  and  N_29
    4  A    between atoms: C_6  and  N_18
    5  A    between atoms: C_6  and  N_29
    6  A    between atoms: C_7  and  C_14
    7  A    between atoms: C_7  and  C_43
    8  A    between atoms: C_9  and  C_12
    9  A    between atoms: N_13  and  C_14
   10  A    between atoms: C_14  and  C_17
   11  A    between atoms: N_18  and  O_30
   12  A    between atoms: C_20  and  O_30
   13  A    between atoms: C_22  and  C_27
   14  A    between atoms: N_33  and  C_35
   15  A    between atoms: C_35  and  C_41
   16  A    between atoms: C_38  and  O_44
   17  A    between atoms: C_40  and  O_44
                            x       y       z     vdW  Elec       q    Type
                         _______ _______ _______ _____ _____    ______ ____

>  <TORSDO>
F 17

$$$$
=
 OpenBabel10232409483D

 45 49  0  0  1  0  0  0  0  0999 V2000
  189.4570  177.5180  138.5030 C   0  0  0  0  0  0  0  0  0  0  0  0
  191.6140  176.4990  138.9660 C   0  0  0  0  0  0  0  0  0  0  0  0
  191.2420  176.3080  140.3330 N   0  0  0  0  0  0  0  0  0  0  0  0
  192.8000  176.1240  138.5820 N   0  0  0  0  0  0  0  0  0  0  0  0
  190.6540  177.1400  138.0560 C   0  0  0  0  0  3  0  0  0  0  0  0
  190.0860  176.6700  140.8110 C   0  0  0  0  0  0  0  0  0  0  0  0
  189.0440  177.3270  139.9400 C   0  0  0  0  0  2  0  0  0  0  0  0
  193.8730  177.2890  136.8400 O   0  0  0  0  0  0  0  0  0  0  0  0
  193.3630  176.2160  137.2620 C   0  0  0  0  0  0  0  0  0  0  0  0
  194.5430  174.2430  136.2050 C   0  0  1  0  0  3  0  0  0  0  0  0
  193.4680  173.7820  137.0980 N   0  0  0  0  0  2  0  0  0  0  0  0
  193.2950  175.0330  136.3370 C   0  0  1  0  0  3  0  0  0  0  0  0
  195.7380  174.7300  137.0320 C   0  0  2  0  0  3  0  0  0  0  0  0
  196.7150  175.2200  136.1630 O   0  0  0  0  0  1  0  0  0  0  0  0
  196.3180  173.5940  137.8830 C   0  0  1  0  0  3  0  0  0  0  0  0
  195.7380  173.6090  139.2210 N   0  0  0  0  0  2  0  0  0  0  0  0
  195.8490  174.8770  139.6830 O   0  0  0  0  0  1  0  0  0  0  0  0
  196.0840  172.2340  137.2230 C   0  0  2  0  0  3  0  0  0  0  0  0
  195.5400  171.3260  138.1370 O   0  0  0  0  0  1  0  0  0  0  0  0
  197.1060  170.4340  136.0510 O   0  0  0  0  0  0  0  0  0  0  0  0
  197.2610  171.5300  135.1800 C   0  0  0  0  0  2  0  0  0  0  0  0
  197.3760  171.6780  136.6470 C   0  0  1  0  0  3  0  0  0  0  0  0
  188.5050  178.1900  137.5730 C   0  0  0  0  0  2  0  0  0  0  0  0
  187.1440  177.7840  137.8760 N   0  0  0  0  0  2  0  0  0  0  0  0
  186.5980  178.7860  138.6870 N   0  0  0  0  0  2  0  0  0  0  0  0
  185.1850  178.4860  138.8260 C   0  0  0  0  0  2  0  0  0  0  0  0
  184.7690  178.6990  140.2020 N   0  0  0  0  0  2  0  0  0  0  0  0
  185.8920  178.9370  140.9230 O   0  0  0  0  0  0  0  0  0  0  0  0
  184.8590  178.4230  145.4010 C   0  0  0  0  0  2  0  0  0  0  0  0
  186.3760  178.2880  145.2520 C   0  0  0  0  0  2  0  0  0  0  0  0
  184.7900  179.3040  143.0030 C   0  0  0  0  0  2  0  0  0  0  0  0
  185.6430  178.3570  142.1680 C   0  0  2  0  0  3  0  0  0  0  0  0
  186.7800  177.3000  144.1680 C   0  0  0  0  0  2  0  0  0  0  0  0
  184.0700  178.5180  144.0920 C   0  0  2  0  0  3  0  0  0  0  0  0
  182.7230  179.1580  144.3690 C   0  0  0  0  0  1  0  0  0  0  0  0
  186.9720  178.0420  142.8500 C   0  0  0  0  0  2  0  0  0  0  0  0
  189.7610  176.4560  142.1590 O   0  0  0  0  0  0  0  0  0  0  0  0
  190.2940  179.2590  143.0070 O   0  0  0  0  0  0  0  0  0  0  0  0
  191.1360  176.1150  144.1560 C   0  0  0  0  0  3  0  0  0  0  0  0
  191.8290  176.9900  145.1730 C   0  0  1  0  0  3  0  0  0  0  0  0
  190.7410  178.2560  143.6190 C   0  0  0  0  0  0  0  0  0  0  0  0
  191.5180  178.3190  144.7560 O   0  0  0  0  0  0  0  0  0  0  0  0
  190.5150  176.8790  143.2640 C   0  0  0  0  0  0  0  0  0  0  0  0
  192.0140  175.6100  147.2340 C   0  0  0  0  0  1  0  0  0  0  0  0
  191.2490  176.7260  146.5520 C   0  0  0  0  0  2  0  0  0  0  0  0
  1  7  1  0  0  0  0
  2  3  1  0  0  0  0
  3  6  2  0  0  0  0
  4  2  2  0  0  0  0
  5  1  2  0  0  0  0
  5  2  1  0  0  0  0
  6 37  1  0  0  0  0
  7  6  1  0  0  0  0
  8  9  2  0  0  0  0
  9  4  1  0  0  0  0
 10 12  1  0  0  0  0
 10 13  1  1  0  0  0
 10 11  1  0  0  0  0
 12 11  1  0  0  0  0
 12  9  1  1  0  0  0
 13 14  1  6  0  0  0
 13 15  1  0  0  0  0
 15 16  1  1  0  0  0
 16 17  1  0  0  0  0
 18 15  1  0  0  0  0
 18 19  1  1  0  0  0
 20 22  1  0  0  0  0
 21 20  1  0  0  0  0
 21 22  1  0  0  0  0
 22 18  1  1  0  0  0
 23 24  1  0  0  0  0
 23  1  1  0  0  0  0
 24 25  1  0  0  0  0
 25 26  1  0  0  0  0
 26 27  1  0  0  0  0
 27 28  1  0  0  0  0
 30 29  1  0  0  0  0
 31 34  1  0  0  0  0
 32 28  1  6  0  0  0
 32 36  1  0  0  0  0
 32 31  1  0  0  0  0
 33 30  1  0  0  0  0
 34 35  1  1  0  0  0
 34 29  1  0  0  0  0
 36 33  1  0  0  0  0
 37 43  1  0  0  0  0
 38 41  2  0  0  0  0
 39 40  1  0  0  0  0
 40 45  1  1  0  0  0
 41 42  1  0  0  0  0
 42 40  1  0  0  0  0
 43 41  1  0  0  0  0
 43 39  2  0  0  0  0
 45 44  1  0  0  0  0
M  END
>  <MODEL>
6

>  <REMARK>
 VINA RESULT:      -7.4      1.963      2.971
  Name = 
  17 active torsions:
  status: ('A' for Active; 'I' for Inactive)
    1  A    between atoms: C_2  and  C_17
    2  A    between atoms: N_4  and  C_9
    3  A    between atoms: N_4  and  N_29
    4  A    between atoms: C_6  and  N_18
    5  A    between atoms: C_6  and  N_29
    6  A    between atoms: C_7  and  C_14
    7  A    between atoms: C_7  and  C_43
    8  A    between atoms: C_9  and  C_12
    9  A    between atoms: N_13  and  C_14
   10  A    between atoms: C_14  and  C_17
   11  A    between atoms: N_18  and  O_30
   12  A    between atoms: C_20  and  O_30
   13  A    between atoms: C_22  and  C_27
   14  A    between atoms: N_33  and  C_35
   15  A    between atoms: C_35  and  C_41
   16  A    between atoms: C_38  and  O_44
   17  A    between atoms: C_40  and  O_44
                            x       y       z     vdW  Elec       q    Type
                         _______ _______ _______ _____ _____    ______ ____

>  <TORSDO>
F 17

$$$$
=
 OpenBabel10232409483D

 45 49  0  0  1  0  0  0  0  0999 V2000
  190.2830  177.2400  138.3160 C   0  0  0  0  0  0  0  0  0  0  0  0
  192.6110  176.5430  138.2320 C   0  0  0  0  0  0  0  0  0  0  0  0
  192.7680  176.8670  139.6160 N   0  0  0  0  0  0  0  0  0  0  0  0
  193.6390  176.0920  137.5730 N   0  0  0  0  0  0  0  0  0  0  0  0
  191.3020  176.7630  137.6010 C   0  0  0  0  0  3  0  0  0  0  0  0
  191.8020  177.3420  140.3470 C   0  0  0  0  0  0  0  0  0  0  0  0
  190.4280  177.5880  139.7750 C   0  0  0  0  0  2  0  0  0  0  0  0
  194.1580  176.4720  135.3090 O   0  0  0  0  0  0  0  0  0  0  0  0
  193.6900  175.7020  136.1900 C   0  0  0  0  0  0  0  0  0  0  0  0
  194.0940  173.2570  135.6800 C   0  0  1  0  0  3  0  0  0  0  0  0
  193.2370  173.4000  136.8680 N   0  0  0  0  0  2  0  0  0  0  0  0
  193.1240  174.3750  135.7680 C   0  0  1  0  0  3  0  0  0  0  0  0
  195.5460  173.5950  136.0380 C   0  0  2  0  0  3  0  0  0  0  0  0
  196.3280  173.4840  134.8860 O   0  0  0  0  0  1  0  0  0  0  0  0
  196.0790  172.6550  137.1240 C   0  0  1  0  0  3  0  0  0  0  0  0
  197.0430  171.7160  136.5620 N   0  0  0  0  0  2  0  0  0  0  0  0
  197.2420  170.7520  137.4930 O   0  0  0  0  0  1  0  0  0  0  0  0
  196.7180  173.4410  138.2710 C   0  0  2  0  0  3  0  0  0  0  0  0
  195.7470  173.8600  139.1870 O   0  0  0  0  0  1  0  0  0  0  0  0
  198.0080  175.3570  138.8390 O   0  0  0  0  0  0  0  0  0  0  0  0
  198.9130  174.5430  138.1290 C   0  0  0  0  0  2  0  0  0  0  0  0
  197.4880  174.6410  137.7470 C   0  0  1  0  0  3  0  0  0  0  0  0
  188.9700  177.4820  137.6540 C   0  0  0  0  0  2  0  0  0  0  0  0
  188.8540  178.8790  137.2760 N   0  0  0  0  0  2  0  0  0  0  0  0
  187.4850  179.1690  137.2330 N   0  0  0  0  0  2  0  0  0  0  0  0
  186.8120  178.1130  137.9680 C   0  0  0  0  0  2  0  0  0  0  0  0
  185.6310  178.6470  138.6260 N   0  0  0  0  0  2  0  0  0  0  0  0
  185.9250  178.7530  139.9450 O   0  0  0  0  0  0  0  0  0  0  0  0
  182.1260  178.7250  142.5820 C   0  0  0  0  0  2  0  0  0  0  0  0
  181.7050  178.3840  141.1510 C   0  0  0  0  0  2  0  0  0  0  0  0
  184.5530  178.3820  141.8570 C   0  0  0  0  0  2  0  0  0  0  0  0
  184.7250  179.1380  140.5450 C   0  0  2  0  0  3  0  0  0  0  0  0
  182.2390  179.3700  140.1240 C   0  0  0  0  0  2  0  0  0  0  0  0
  183.5890  179.1410  142.7620 C   0  0  2  0  0  3  0  0  0  0  0  0
  183.9890  178.9340  144.2100 C   0  0  0  0  0  1  0  0  0  0  0  0
  183.5720  178.8680  139.5810 C   0  0  0  0  0  2  0  0  0  0  0  0
  192.0010  177.6380  141.7040 O   0  0  0  0  0  0  0  0  0  0  0  0
  192.0190  178.9550  144.3740 O   0  0  0  0  0  0  0  0  0  0  0  0
  189.9450  176.7590  142.7030 C   0  0  0  0  0  3  0  0  0  0  0  0
  189.2150  176.9040  144.0180 C   0  0  1  0  0  3  0  0  0  0  0  0
  191.1170  178.1630  144.0010 C   0  0  0  0  0  0  0  0  0  0  0  0
  190.0250  177.8110  144.7650 O   0  0  0  0  0  0  0  0  0  0  0  0
  191.0480  177.5000  142.7250 C   0  0  0  0  0  0  0  0  0  0  0  0
  186.8490  176.9680  144.7830 C   0  0  0  0  0  1  0  0  0  0  0  0
  187.8430  177.5070  143.7740 C   0  0  0  0  0  2  0  0  0  0  0  0
  1  7  1  0  0  0  0
  2  3  1  0  0  0  0
  3  6  2  0  0  0  0
  4  2  2  0  0  0  0
  5  2  1  0  0  0  0
  5  1  2  0  0  0  0
  6 37  1  0  0  0  0
  7  6  1  0  0  0  0
  8  9  2  0  0  0  0
  9  4  1  0  0  0  0
 10 12  1  0  0  0  0
 10 13  1  1  0  0  0
 10 11  1  0  0  0  0
 12  9  1  1  0  0  0
 12 11  1  0  0  0  0
 13 14  1  6  0  0  0
 13 15  1  0  0  0  0
 15 16  1  6  0  0  0
 15 18  1  0  0  0  0
 16 17  1  0  0  0  0
 18 19  1  1  0  0  0
 21 20  1  0  0  0  0
 22 21  1  0  0  0  0
 22 18  1  1  0  0  0
 22 20  1  0  0  0  0
 23  1  1  0  0  0  0
 24 23  1  0  0  0  0
 25 24  1  0  0  0  0
 25 26  1  0  0  0  0
 26 27  1  0  0  0  0
 27 28  1  0  0  0  0
 29 34  1  0  0  0  0
 30 29  1  0  0  0  0
 31 34  1  0  0  0  0
 32 28  1  6  0  0  0
 32 31  1  0  0  0  0
 33 30  1  0  0  0  0
 34 35  1  1  0  0  0
 36 33  1  0  0  0  0
 36 32  1  0  0  0  0
 37 43  1  0  0  0  0
 39 43  2  0  0  0  0
 39 40  1  0  0  0  0
 40 45  1  6  0  0  0
 40 42  1  0  0  0  0
 41 38  2  0  0  0  0
 41 42  1  0  0  0  0
 43 41  1  0  0  0  0
 45 44  1  0  0  0  0
M  END
>  <MODEL>
7

>  <REMARK>
 VINA RESULT:      -7.4      2.096      3.168
  Name = 
  17 active torsions:
  status: ('A' for Active; 'I' for Inactive)
    1  A    between atoms: C_2  and  C_17
    2  A    between atoms: N_4  and  C_9
    3  A    between atoms: N_4  and  N_29
    4  A    between atoms: C_6  and  N_18
    5  A    between atoms: C_6  and  N_29
    6  A    between atoms: C_7  and  C_14
    7  A    between atoms: C_7  and  C_43
    8  A    between atoms: C_9  and  C_12
    9  A    between atoms: N_13  and  C_14
   10  A    between atoms: C_14  and  C_17
   11  A    between atoms: N_18  and  O_30
   12  A    between atoms: C_20  and  O_30
   13  A    between atoms: C_22  and  C_27
   14  A    between atoms: N_33  and  C_35
   15  A    between atoms: C_35  and  C_41
   16  A    between atoms: C_38  and  O_44
   17  A    between atoms: C_40  and  O_44
                            x       y       z     vdW  Elec       q    Type
                         _______ _______ _______ _____ _____    ______ ____

>  <TORSDO>
F 17

$$$$
=
 OpenBabel10232409483D

 45 49  0  0  1  0  0  0  0  0999 V2000
  190.1260  177.3980  138.7550 C   0  0  0  0  0  0  0  0  0  0  0  0
  192.4850  176.8220  138.8710 C   0  0  0  0  0  0  0  0  0  0  0  0
  192.5070  177.1510  140.2620 N   0  0  0  0  0  0  0  0  0  0  0  0
  193.5880  176.4250  138.3030 N   0  0  0  0  0  0  0  0  0  0  0  0
  191.2250  176.9750  138.1300 C   0  0  0  0  0  3  0  0  0  0  0  0
  191.4590  177.5750  140.9070 C   0  0  0  0  0  0  0  0  0  0  0  0
  190.1280  177.7510  140.2200 C   0  0  0  0  0  2  0  0  0  0  0  0
  194.2790  176.8330  136.0910 O   0  0  0  0  0  0  0  0  0  0  0  0
  193.7760  176.0400  136.9310 C   0  0  0  0  0  0  0  0  0  0  0  0
  194.3760  173.6620  136.3060 C   0  0  1  0  0  3  0  0  0  0  0  0
  193.5440  173.6810  137.5200 N   0  0  0  0  0  2  0  0  0  0  0  0
  193.3160  174.6870  136.4660 C   0  0  1  0  0  3  0  0  0  0  0  0
  195.8020  174.1120  136.6420 C   0  0  2  0  0  3  0  0  0  0  0  0
  196.5860  174.0140  135.4900 O   0  0  0  0  0  1  0  0  0  0  0  0
  196.4030  173.2500  137.7580 C   0  0  1  0  0  3  0  0  0  0  0  0
  197.3810  172.3140  137.2120 N   0  0  0  0  0  2  0  0  0  0  0  0
  196.7740  171.1050  137.1500 O   0  0  0  0  0  1  0  0  0  0  0  0
  197.0510  174.1170  138.8390 C   0  0  2  0  0  3  0  0  0  0  0  0
  196.1250  175.0190  139.3720 O   0  0  0  0  0  1  0  0  0  0  0  0
  198.6400  175.8450  139.2230 O   0  0  0  0  0  0  0  0  0  0  0  0
  199.4240  174.6770  139.1660 C   0  0  0  0  0  2  0  0  0  0  0  0
  198.2500  174.8700  138.2880 C   0  0  1  0  0  3  0  0  0  0  0  0
  188.8630  177.5710  137.9820 C   0  0  0  0  0  2  0  0  0  0  0  0
  187.9500  178.4340  138.7110 N   0  0  0  0  0  2  0  0  0  0  0  0
  186.7530  177.7210  138.8530 N   0  0  0  0  0  2  0  0  0  0  0  0
  185.7580  178.4160  138.0570 C   0  0  0  0  0  2  0  0  0  0  0  0
  184.6500  178.8250  138.9030 N   0  0  0  0  0  2  0  0  0  0  0  0
  185.1750  179.5440  139.9250 O   0  0  0  0  0  0  0  0  0  0  0  0
  182.7250  178.7940  143.7740 C   0  0  0  0  0  2  0  0  0  0  0  0
  184.1360  179.2140  144.1920 C   0  0  0  0  0  2  0  0  0  0  0  0
  183.3020  179.5340  141.3980 C   0  0  0  0  0  2  0  0  0  0  0  0
  184.6700  178.9420  141.0780 C   0  0  2  0  0  3  0  0  0  0  0  0
  185.2250  178.4160  143.4920 C   0  0  0  0  0  2  0  0  0  0  0  0
  182.5180  178.5650  142.2740 C   0  0  2  0  0  3  0  0  0  0  0  0
  181.0400  178.6800  141.9540 C   0  0  0  0  0  1  0  0  0  0  0  0
  185.6570  179.1470  142.2250 C   0  0  0  0  0  2  0  0  0  0  0  0
  191.5260  177.8800  142.2750 O   0  0  0  0  0  0  0  0  0  0  0  0
  190.1080  175.3000  142.7210 O   0  0  0  0  0  0  0  0  0  0  0  0
  190.0250  178.4530  144.1230 C   0  0  0  0  0  3  0  0  0  0  0  0
  188.9730  177.7440  144.9420 C   0  0  1  0  0  3  0  0  0  0  0  0
  189.8770  176.3400  143.3900 C   0  0  0  0  0  0  0  0  0  0  0  0
  188.9560  176.4200  144.4120 O   0  0  0  0  0  0  0  0  0  0  0  0
  190.5310  177.6120  143.2270 C   0  0  0  0  0  0  0  0  0  0  0  0
  188.2180  177.3420  147.2780 C   0  0  0  0  0  1  0  0  0  0  0  0
  189.3950  177.7180  146.4010 C   0  0  0  0  0  2  0  0  0  0  0  0
  1  7  1  0  0  0  0
  2  3  1  0  0  0  0
  3  6  2  0  0  0  0
  4  2  2  0  0  0  0
  5  1  2  0  0  0  0
  5  2  1  0  0  0  0
  6 37  1  0  0  0  0
  7  6  1  0  0  0  0
  8  9  2  0  0  0  0
  9  4  1  0  0  0  0
 10 12  1  0  0  0  0
 10 13  1  1  0  0  0
 10 11  1  0  0  0  0
 12  9  1  1  0  0  0
 12 11  1  0  0  0  0
 13 14  1  6  0  0  0
 13 15  1  0  0  0  0
 15 16  1  6  0  0  0
 15 18  1  0  0  0  0
 17 16  1  0  0  0  0
 18 19  1  6  0  0  0
 21 20  1  0  0  0  0
 22 18  1  1  0  0  0
 22 21  1  0  0  0  0
 22 20  1  0  0  0  0
 23 24  1  0  0  0  0
 23  1  1  0  0  0  0
 24 25  1  0  0  0  0
 26 25  1  0  0  0  0
 26 27  1  0  0  0  0
 27 28  1  0  0  0  0
 29 30  1  0  0  0  0
 31 34  1  0  0  0  0
 32 28  1  6  0  0  0
 32 31  1  0  0  0  0
 32 36  1  0  0  0  0
 33 30  1  0  0  0  0
 34 35  1  1  0  0  0
 34 29  1  0  0  0  0
 36 33  1  0  0  0  0
 37 43  1  0  0  0  0
 38 41  2  0  0  0  0
 39 40  1  0  0  0  0
 40 45  1  1  0  0  0
 41 42  1  0  0  0  0
 42 40  1  0  0  0  0
 43 41  1  0  0  0  0
 43 39  2  0  0  0  0
 45 44  1  0  0  0  0
M  END
>  <MODEL>
8

>  <REMARK>
 VINA RESULT:      -7.4      1.977      3.032
  Name = 
  17 active torsions:
  status: ('A' for Active; 'I' for Inactive)
    1  A    between atoms: C_2  and  C_17
    2  A    between atoms: N_4  and  C_9
    3  A    between atoms: N_4  and  N_29
    4  A    between atoms: C_6  and  N_18
    5  A    between atoms: C_6  and  N_29
    6  A    between atoms: C_7  and  C_14
    7  A    between atoms: C_7  and  C_43
    8  A    between atoms: C_9  and  C_12
    9  A    between atoms: N_13  and  C_14
   10  A    between atoms: C_14  and  C_17
   11  A    between atoms: N_18  and  O_30
   12  A    between atoms: C_20  and  O_30
   13  A    between atoms: C_22  and  C_27
   14  A    between atoms: N_33  and  C_35
   15  A    between atoms: C_35  and  C_41
   16  A    between atoms: C_38  and  O_44
   17  A    between atoms: C_40  and  O_44
                            x       y       z     vdW  Elec       q    Type
                         _______ _______ _______ _____ _____    ______ ____

>  <TORSDO>
F 17

$$$$
=
 OpenBabel10232409483D

 45 49  0  0  1  0  0  0  0  0999 V2000
  190.0240  177.0160  138.3450 C   0  0  0  0  0  0  0  0  0  0  0  0
  189.1210  177.8910  140.4250 C   0  0  0  0  0  0  0  0  0  0  0  0
  187.9830  178.4040  139.7280 N   0  0  0  0  0  0  0  0  0  0  0  0
  189.2120  178.0920  141.7090 N   0  0  0  0  0  0  0  0  0  0  0  0
  190.1580  177.1830  139.6600 C   0  0  0  0  0  3  0  0  0  0  0  0
  187.8190  178.2690  138.4430 C   0  0  0  0  0  0  0  0  0  0  0  0
  188.8340  177.5490  137.5900 C   0  0  0  0  0  2  0  0  0  0  0  0
  191.3210  178.3190  142.7290 O   0  0  0  0  0  0  0  0  0  0  0  0
  190.2590  177.6540  142.5910 C   0  0  0  0  0  0  0  0  0  0  0  0
  189.3360  176.3970  144.5840 C   0  0  1  0  0  3  0  0  0  0  0  0
  188.7090  175.9220  143.3400 N   0  0  0  0  0  2  0  0  0  0  0  0
  190.1190  176.3500  143.3250 C   0  0  1  0  0  3  0  0  0  0  0  0
  188.7640  177.7660  144.9700 C   0  0  2  0  0  3  0  0  0  0  0  0
  189.7320  178.4670  145.6930 O   0  0  0  0  0  1  0  0  0  0  0  0
  187.4920  177.6130  145.8110 C   0  0  1  0  0  3  0  0  0  0  0  0
  187.7340  178.0310  147.1870 N   0  0  0  0  0  2  0  0  0  0  0  0
  188.0200  176.9100  147.8920 O   0  0  0  0  0  1  0  0  0  0  0  0
  186.3340  178.4160  145.2130 C   0  0  2  0  0  3  0  0  0  0  0  0
  185.3370  178.6350  146.1690 O   0  0  0  0  0  1  0  0  0  0  0  0
  184.5920  178.3960  143.5940 O   0  0  0  0  0  0  0  0  0  0  0  0
  185.7560  178.6060  142.8300 C   0  0  0  0  0  2  0  0  0  0  0  0
  185.7470  177.7080  144.0040 C   0  0  1  0  0  3  0  0  0  0  0  0
  191.0970  176.3180  137.5810 C   0  0  0  0  0  2  0  0  0  0  0  0
  191.2700  174.9680  138.0860 N   0  0  0  0  0  2  0  0  0  0  0  0
  192.5630  174.5690  137.7270 N   0  0  0  0  0  2  0  0  0  0  0  0
  193.3840  175.7670  137.7290 C   0  0  0  0  0  2  0  0  0  0  0  0
  194.7590  175.4200  137.4110 N   0  0  0  0  0  2  0  0  0  0  0  0
  194.7940  175.0980  136.0950 O   0  0  0  0  0  0  0  0  0  0  0  0
  198.6360  172.6860  136.9880 C   0  0  0  0  0  2  0  0  0  0  0  0
  199.0340  174.1530  136.8170 C   0  0  0  0  0  2  0  0  0  0  0  0
  196.1990  173.4480  137.0840 C   0  0  0  0  0  2  0  0  0  0  0  0
  196.0020  174.4210  135.9280 C   0  0  2  0  0  3  0  0  0  0  0  0
  198.4800  174.7740  135.5440 C   0  0  0  0  0  2  0  0  0  0  0  0
  197.1750  172.3530  136.6720 C   0  0  2  0  0  3  0  0  0  0  0  0
  196.8000  171.0570  137.3630 C   0  0  0  0  0  1  0  0  0  0  0  0
  197.1390  175.4360  135.8420 C   0  0  0  0  0  2  0  0  0  0  0  0
  186.6820  178.7840  137.8020 O   0  0  0  0  0  0  0  0  0  0  0  0
  184.5770  179.9140  139.5780 O   0  0  0  0  0  0  0  0  0  0  0  0
  184.7960  177.2890  137.3470 C   0  0  0  0  0  3  0  0  0  0  0  0
  183.3700  177.1470  137.8220 C   0  0  1  0  0  3  0  0  0  0  0  0
  184.3950  178.9100  138.8430 C   0  0  0  0  0  0  0  0  0  0  0  0
  183.2080  178.2140  138.7550 O   0  0  0  0  0  0  0  0  0  0  0  0
  185.3670  178.3200  137.9600 C   0  0  0  0  0  0  0  0  0  0  0  0
  182.7330  176.3200  135.5640 C   0  0  0  0  0  1  0  0  0  0  0  0
  182.4220  177.3310  136.6490 C   0  0  0  0  0  2  0  0  0  0  0  0
  1  5  2  0  0  0  0
  2  4  2  0  0  0  0
  3  2  1  0  0  0  0
  4  9  1  0  0  0  0
  5  2  1  0  0  0  0
  6  3  2  0  0  0  0
  7  1  1  0  0  0  0
  7  6  1  0  0  0  0
  9  8  2  0  0  0  0
 10 13  1  6  0  0  0
 11 10  1  0  0  0  0
 12  9  1  6  0  0  0
 12 11  1  0  0  0  0
 12 10  1  0  0  0  0
 13 14  1  1  0  0  0
 13 15  1  0  0  0  0
 15 16  1  1  0  0  0
 16 17  1  0  0  0  0
 18 15  1  0  0  0  0
 18 19  1  1  0  0  0
 20 22  1  0  0  0  0
 21 20  1  0  0  0  0
 21 22  1  0  0  0  0
 22 18  1  1  0  0  0
 23 24  1  0  0  0  0
 23  1  1  0  0  0  0
 25 26  1  0  0  0  0
 25 24  1  0  0  0  0
 27 26  1  0  0  0  0
 28 27  1  0  0  0  0
 30 29  1  0  0  0  0
 32 28  1  1  0  0  0
 32 31  1  0  0  0  0
 33 36  1  0  0  0  0
 33 30  1  0  0  0  0
 34 29  1  0  0  0  0
 34 31  1  0  0  0  0
 34 35  1  1  0  0  0
 36 32  1  0  0  0  0
 37 43  1  0  0  0  0
 37  6  1  0  0  0  0
 39 40  1  0  0  0  0
 39 43  2  0  0  0  0
 40 45  1  6  0  0  0
 40 42  1  0  0  0  0
 41 38  2  0  0  0  0
 42 41  1  0  0  0  0
 43 41  1  0  0  0  0
 44 45  1  0  0  0  0
M  END
>  <MODEL>
9

>  <REMARK>
 VINA RESULT:      -7.0      2.464     11.297
  Name = 
  17 active torsions:
  status: ('A' for Active; 'I' for Inactive)
    1  A    between atoms: C_2  and  C_17
    2  A    between atoms: N_4  and  C_9
    3  A    between atoms: N_4  and  N_29
    4  A    between atoms: C_6  and  N_18
    5  A    between atoms: C_6  and  N_29
    6  A    between atoms: C_7  and  C_14
    7  A    between atoms: C_7  and  C_43
    8  A    between atoms: C_9  and  C_12
    9  A    between atoms: N_13  and  C_14
   10  A    between atoms: C_14  and  C_17
   11  A    between atoms: N_18  and  O_30
   12  A    between atoms: C_20  and  O_30
   13  A    between atoms: C_22  and  C_27
   14  A    between atoms: N_33  and  C_35
   15  A    between atoms: C_35  and  C_41
   16  A    between atoms: C_38  and  O_44
   17  A    between atoms: C_40  and  O_44
                            x       y       z     vdW  Elec       q    Type
                         _______ _______ _______ _____ _____    ______ ____

>  <TORSDO>
F 17

$$$$
