=
 OpenBabel10232407473D

 25 28  0  0  1  0  0  0  0  0999 V2000
  187.5700  177.0640  142.9970 C   0  0  0  0  0  3  0  0  0  0  0  0
  188.7840  177.0910  142.4280 C   0  0  0  0  0  0  0  0  0  0  0  0
  186.1180  178.9600  140.3780 O   0  0  0  0  0  0  0  0  0  0  0  0
  186.3940  177.9160  142.6870 C   0  0  0  0  0  0  0  0  0  0  0  0
  186.2530  178.4510  141.4980 C   0  0  0  0  0  0  0  0  0  0  0  0
  185.5040  178.8960  147.4630 N   0  0  0  0  0  1  0  0  0  0  0  0
  185.9300  178.4150  145.1100 C   0  0  0  0  0  3  0  0  0  0  0  0
  184.1260  178.5870  143.5160 C   0  0  0  0  0  3  0  0  0  0  0  0
  183.2700  178.9610  144.5540 C   0  0  0  0  0  3  0  0  0  0  0  0
  185.4740  178.3060  143.7860 C   0  0  0  0  0  0  0  0  0  0  0  0
  183.7430  179.0540  145.8270 N   0  0  0  0  0  0  0  0  0  0  0  0
  185.0450  178.7900  146.1220 C   0  0  0  0  0  0  0  0  0  0  0  0
  189.3310  177.2370  140.0840 N   0  0  1  0  0  0  0  0  0  0  0  0
  190.3920  177.7170  140.8330 O   0  0  0  0  0  0  0  0  0  0  0  0
  189.1440  178.0070  141.2930 C   0  0  2  0  0  3  0  0  0  0  0  0
  189.1600  178.1530  138.9690 C   0  0  2  0  0  3  0  0  0  0  0  0
  188.1720  177.6480  138.0680 C   0  0  2  0  0  3  0  0  0  0  0  0
  190.5210  177.0900  136.9360 O   0  0  0  0  0  0  0  0  0  0  0  0
  189.6410  177.4750  137.6870 C   0  0  0  0  0  0  0  0  0  0  0  0
  187.6080  178.7350  137.2920 N   0  0  0  0  0  1  0  0  0  0  0  0
  189.8380  176.2030  142.9990 C   0  0  0  0  0  2  0  0  0  0  0  0
  191.5710  176.1530  144.5490 C   0  0  1  0  0  3  0  0  0  0  0  0
  191.8620  176.2220  146.0350 C   0  0  0  0  0  1  0  0  0  0  0  0
  190.2700  176.7200  144.2870 N   0  0  0  0  0  0  0  0  0  0  0  0
  191.4460  177.4130  144.0550 O   0  0  0  0  0  0  0  0  0  0  0  0
  2  1  2  0  0  0  0
  2 21  1  0  0  0  0
  3  5  2  0  0  0  0
  4  1  1  0  0  0  0
  4 10  1  0  0  0  0
  5  4  2  0  0  0  0
  7 12  1  0  0  0  0
  8 10  1  0  0  0  0
  8  9  2  0  0  0  0
  9 11  1  0  0  0  0
 10  7  2  0  0  0  0
 11 12  2  0  0  0  0
 12  6  1  0  0  0  0
 13 14  1  1  0  0  0
 13 15  1  0  0  0  0
 14 15  1  0  0  0  0
 15  2  1  1  0  0  0
 16 19  1  6  0  0  0
 16 13  1  0  0  0  0
 17 20  1  6  0  0  0
 17 16  1  0  0  0  0
 18 19  2  0  0  0  0
 19 17  1  0  0  0  0
 21 24  1  0  0  0  0
 22 23  1  1  0  0  0
 24 22  1  0  0  0  0
 25 24  1  0  0  0  0
 25 22  1  0  0  0  0
M  END
>  <MODEL>
1

>  <REMARK>
 VINA RESULT:      -8.2      0.000      0.000
  Name = 
  6 active torsions:
  status: ('A' for Active; 'I' for Inactive)
    1  A    between atoms: N_6  and  C_7
    2  A    between atoms: C_11  and  C_12
    3  A    between atoms: C_12  and  C_15
    4  A    between atoms: C_16  and  C_25
    5  A    between atoms: N_21  and  C_23
    6  A    between atoms: C_23  and  C_25
                            x       y       z     vdW  Elec       q    Type
                         _______ _______ _______ _____ _____    ______ ____

>  <TORSDO>
F 6

$$$$
=
 OpenBabel10232407473D

 25 28  0  0  1  0  0  0  0  0999 V2000
  188.3470  176.9710  143.8000 C   0  0  0  0  0  3  0  0  0  0  0  0
  189.6110  176.9880  143.3500 C   0  0  0  0  0  0  0  0  0  0  0  0
  187.1500  178.5320  140.8530 O   0  0  0  0  0  0  0  0  0  0  0  0
  187.1740  177.7060  143.2640 C   0  0  0  0  0  0  0  0  0  0  0  0
  187.1620  178.1290  142.0230 C   0  0  0  0  0  0  0  0  0  0  0  0
  182.4890  179.0630  144.1460 N   0  0  0  0  0  1  0  0  0  0  0  0
  184.7980  178.3970  143.7230 C   0  0  0  0  0  3  0  0  0  0  0  0
  186.3420  178.2220  145.5710 C   0  0  0  0  0  3  0  0  0  0  0  0
  185.3150  178.6020  146.4390 C   0  0  0  0  0  3  0  0  0  0  0  0
  186.0920  178.1170  144.1940 C   0  0  0  0  0  0  0  0  0  0  0  0
  184.0740  178.8690  145.9500 N   0  0  0  0  0  0  0  0  0  0  0  0
  183.7980  178.7750  144.6210 C   0  0  0  0  0  0  0  0  0  0  0  0
  190.4730  176.8450  141.1030 N   0  0  1  0  0  0  0  0  0  0  0  0
  191.3680  177.5480  141.8930 O   0  0  0  0  0  0  0  0  0  0  0  0
  190.0450  177.7590  142.1370 C   0  0  2  0  0  3  0  0  0  0  0  0
  190.3820  177.5600  139.8420 C   0  0  2  0  0  3  0  0  0  0  0  0
  189.5820  176.8190  138.9170 C   0  0  2  0  0  3  0  0  0  0  0  0
  192.1100  176.3650  138.1980 O   0  0  0  0  0  0  0  0  0  0  0  0
  191.1000  176.7570  138.7590 C   0  0  0  0  0  0  0  0  0  0  0  0
  189.0390  177.7090  137.9090 N   0  0  0  0  0  1  0  0  0  0  0  0
  190.6380  176.2460  144.1380 C   0  0  0  0  0  2  0  0  0  0  0  0
  191.8830  176.2500  146.1020 C   0  0  1  0  0  3  0  0  0  0  0  0
  191.7520  176.2930  147.6120 C   0  0  0  0  0  1  0  0  0  0  0  0
  190.6700  176.7490  145.5010 N   0  0  0  0  0  0  0  0  0  0  0  0
  191.8190  177.5140  145.6080 O   0  0  0  0  0  0  0  0  0  0  0  0
  2  1  2  0  0  0  0
  2 21  1  0  0  0  0
  3  5  2  0  0  0  0
  4  1  1  0  0  0  0
  4 10  1  0  0  0  0
  5  4  2  0  0  0  0
  6 12  1  0  0  0  0
  7 10  2  0  0  0  0
  7 12  1  0  0  0  0
  8  9  2  0  0  0  0
 10  8  1  0  0  0  0
 11  9  1  0  0  0  0
 12 11  2  0  0  0  0
 13 14  1  1  0  0  0
 13 15  1  0  0  0  0
 14 15  1  0  0  0  0
 15  2  1  1  0  0  0
 16 19  1  6  0  0  0
 16 13  1  0  0  0  0
 17 20  1  6  0  0  0
 17 16  1  0  0  0  0
 18 19  2  0  0  0  0
 19 17  1  0  0  0  0
 21 24  1  0  0  0  0
 22 23  1  1  0  0  0
 24 25  1  0  0  0  0
 24 22  1  0  0  0  0
 25 22  1  0  0  0  0
M  END
>  <MODEL>
2

>  <REMARK>
 VINA RESULT:      -8.2      1.299      1.863
  Name = 
  6 active torsions:
  status: ('A' for Active; 'I' for Inactive)
    1  A    between atoms: N_6  and  C_7
    2  A    between atoms: C_11  and  C_12
    3  A    between atoms: C_12  and  C_15
    4  A    between atoms: C_16  and  C_25
    5  A    between atoms: N_21  and  C_23
    6  A    between atoms: C_23  and  C_25
                            x       y       z     vdW  Elec       q    Type
                         _______ _______ _______ _____ _____    ______ ____

>  <TORSDO>
F 6

$$$$
=
 OpenBabel10232407473D

 25 28  0  0  1  0  0  0  0  0999 V2000
  188.7580  178.1090  145.6540 C   0  0  0  0  0  3  0  0  0  0  0  0
  187.6860  177.5550  145.0670 C   0  0  0  0  0  0  0  0  0  0  0  0
  191.0210  179.9780  143.6680 O   0  0  0  0  0  0  0  0  0  0  0  0
  190.1640  178.1110  145.1770 C   0  0  0  0  0  0  0  0  0  0  0  0
  190.6040  179.0730  144.4020 C   0  0  0  0  0  0  0  0  0  0  0  0
  192.8130  175.2480  148.2350 N   0  0  0  0  0  1  0  0  0  0  0  0
  191.5120  176.6500  146.7200 C   0  0  0  0  0  3  0  0  0  0  0  0
  191.3330  176.0380  144.3920 C   0  0  0  0  0  3  0  0  0  0  0  0
  192.1290  174.9190  144.6460 C   0  0  0  0  0  3  0  0  0  0  0  0
  191.0160  176.9230  145.4340 C   0  0  0  0  0  0  0  0  0  0  0  0
  192.5960  174.6850  145.9020 N   0  0  0  0  0  0  0  0  0  0  0  0
  192.3060  175.5220  146.9350 C   0  0  0  0  0  0  0  0  0  0  0  0
  187.9980  177.8140  142.6900 N   0  0  1  0  0  0  0  0  0  0  0  0
  186.7370  177.2960  142.9330 O   0  0  0  0  0  0  0  0  0  0  0  0
  187.7410  176.8540  143.7400 C   0  0  2  0  0  3  0  0  0  0  0  0
  188.5420  177.0750  141.5650 C   0  0  2  0  0  3  0  0  0  0  0  0
  189.8660  177.5300  141.2740 C   0  0  2  0  0  3  0  0  0  0  0  0
  188.2980  178.6800  139.4490 O   0  0  0  0  0  0  0  0  0  0  0  0
  188.7280  178.0260  140.3840 C   0  0  0  0  0  0  0  0  0  0  0  0
  190.6010  176.4980  140.5690 N   0  0  0  0  0  1  0  0  0  0  0  0
  186.3930  177.5930  145.8090 C   0  0  0  0  0  2  0  0  0  0  0  0
  184.3550  178.4900  145.1400 C   0  0  1  0  0  3  0  0  0  0  0  0
  183.7400  179.6380  144.3620 C   0  0  0  0  0  1  0  0  0  0  0  0
  185.7000  178.8390  145.5260 N   0  0  0  0  0  0  0  0  0  0  0  0
  184.6320  178.9010  146.4050 O   0  0  0  0  0  0  0  0  0  0  0  0
  2  1  2  0  0  0  0
  2 21  1  0  0  0  0
  3  5  2  0  0  0  0
  4 10  1  0  0  0  0
  4  1  1  0  0  0  0
  5  4  2  0  0  0  0
  7 12  1  0  0  0  0
  8  9  2  0  0  0  0
  8 10  1  0  0  0  0
  9 11  1  0  0  0  0
 10  7  2  0  0  0  0
 11 12  2  0  0  0  0
 12  6  1  0  0  0  0
 13 14  1  6  0  0  0
 13 15  1  0  0  0  0
 14 15  1  0  0  0  0
 15  2  1  1  0  0  0
 16 19  1  6  0  0  0
 16 13  1  0  0  0  0
 17 20  1  6  0  0  0
 17 16  1  0  0  0  0
 18 19  2  0  0  0  0
 19 17  1  0  0  0  0
 22 23  1  6  0  0  0
 22 24  1  0  0  0  0
 22 25  1  0  0  0  0
 24 21  1  0  0  0  0
 24 25  1  0  0  0  0
M  END
>  <MODEL>
3

>  <REMARK>
 VINA RESULT:      -7.9      2.472      6.009
  Name = 
  6 active torsions:
  status: ('A' for Active; 'I' for Inactive)
    1  A    between atoms: N_6  and  C_7
    2  A    between atoms: C_11  and  C_12
    3  A    between atoms: C_12  and  C_15
    4  A    between atoms: C_16  and  C_25
    5  A    between atoms: N_21  and  C_23
    6  A    between atoms: C_23  and  C_25
                            x       y       z     vdW  Elec       q    Type
                         _______ _______ _______ _____ _____    ______ ____

>  <TORSDO>
F 6

$$$$
=
 OpenBabel10232407473D

 25 28  0  0  1  0  0  0  0  0999 V2000
  190.0050  177.2770  142.7480 C   0  0  0  0  0  3  0  0  0  0  0  0
  189.2080  177.5120  141.6950 C   0  0  0  0  0  0  0  0  0  0  0  0
  191.9990  179.8330  144.1820 O   0  0  0  0  0  0  0  0  0  0  0  0
  190.1520  178.0870  143.9840 C   0  0  0  0  0  0  0  0  0  0  0  0
  191.1020  178.9860  144.0840 C   0  0  0  0  0  0  0  0  0  0  0  0
  185.7930  177.8490  146.3300 N   0  0  0  0  0  1  0  0  0  0  0  0
  187.9440  177.9620  145.1850 C   0  0  0  0  0  3  0  0  0  0  0  0
  189.9320  177.1830  146.3110 C   0  0  0  0  0  3  0  0  0  0  0  0
  189.1510  176.8580  147.4220 C   0  0  0  0  0  3  0  0  0  0  0  0
  189.3320  177.7450  145.1740 C   0  0  0  0  0  0  0  0  0  0  0  0
  187.8100  177.0840  147.4020 N   0  0  0  0  0  0  0  0  0  0  0  0
  187.1970  177.6250  146.3150 C   0  0  0  0  0  0  0  0  0  0  0  0
  186.9060  178.1830  141.4440 N   0  0  1  0  0  0  0  0  0  0  0  0
  187.6520  178.7090  140.4030 O   0  0  0  0  0  0  0  0  0  0  0  0
  188.2550  178.6700  141.6240 C   0  0  2  0  0  3  0  0  0  0  0  0
  186.0120  179.2380  141.8900 C   0  0  2  0  0  3  0  0  0  0  0  0
  185.0980  178.7260  142.8630 C   0  0  2  0  0  3  0  0  0  0  0  0
  183.7180  178.8530  140.5840 O   0  0  0  0  0  0  0  0  0  0  0  0
  184.5900  178.9140  141.4350 C   0  0  0  0  0  0  0  0  0  0  0  0
  184.5960  179.8080  143.6880 N   0  0  0  0  0  1  0  0  0  0  0  0
  189.3280  176.6040  140.5180 C   0  0  0  0  0  2  0  0  0  0  0  0
  190.5270  176.2050  138.5660 C   0  0  1  0  0  3  0  0  0  0  0  0
  191.9200  175.9100  138.0460 C   0  0  0  0  0  1  0  0  0  0  0  0
  190.6200  176.7940  139.8800 N   0  0  0  0  0  0  0  0  0  0  0  0
  190.3850  177.5460  138.7400 O   0  0  0  0  0  0  0  0  0  0  0  0
  1  4  1  0  0  0  0
  2  1  2  0  0  0  0
  4  5  2  0  0  0  0
  4 10  1  0  0  0  0
  5  3  2  0  0  0  0
  7 12  1  0  0  0  0
  8  9  2  0  0  0  0
 10  7  2  0  0  0  0
 10  8  1  0  0  0  0
 11  9  1  0  0  0  0
 12  6  1  0  0  0  0
 12 11  2  0  0  0  0
 13 14  1  6  0  0  0
 13 15  1  0  0  0  0
 13 16  1  0  0  0  0
 14 15  1  0  0  0  0
 15  2  1  6  0  0  0
 16 19  1  6  0  0  0
 16 17  1  0  0  0  0
 17 20  1  1  0  0  0
 18 19  2  0  0  0  0
 19 17  1  0  0  0  0
 21  2  1  0  0  0  0
 22 23  1  6  0  0  0
 22 25  1  0  0  0  0
 22 24  1  0  0  0  0
 24 21  1  0  0  0  0
 25 24  1  0  0  0  0
M  END
>  <MODEL>
4

>  <REMARK>
 VINA RESULT:      -7.6      2.156      5.021
  Name = 
  6 active torsions:
  status: ('A' for Active; 'I' for Inactive)
    1  A    between atoms: N_6  and  C_7
    2  A    between atoms: C_11  and  C_12
    3  A    between atoms: C_12  and  C_15
    4  A    between atoms: C_16  and  C_25
    5  A    between atoms: N_21  and  C_23
    6  A    between atoms: C_23  and  C_25
                            x       y       z     vdW  Elec       q    Type
                         _______ _______ _______ _____ _____    ______ ____

>  <TORSDO>
F 6

$$$$
=
 OpenBabel10232407473D

 25 28  0  0  1  0  0  0  0  0999 V2000
  189.7460  178.1950  142.9980 C   0  0  0  0  0  3  0  0  0  0  0  0
  189.0840  177.8720  144.1190 C   0  0  0  0  0  0  0  0  0  0  0  0
  186.8570  178.5950  140.9850 O   0  0  0  0  0  0  0  0  0  0  0  0
  189.2780  178.0820  141.5940 C   0  0  0  0  0  0  0  0  0  0  0  0
  188.0330  178.3480  141.2820 C   0  0  0  0  0  0  0  0  0  0  0  0
  193.8190  177.1410  139.8450 N   0  0  0  0  0  1  0  0  0  0  0  0
  191.5790  177.5990  140.6960 C   0  0  0  0  0  3  0  0  0  0  0  0
  189.6570  176.7970  139.4750 C   0  0  0  0  0  3  0  0  0  0  0  0
  190.5170  176.2380  138.5280 C   0  0  0  0  0  3  0  0  0  0  0  0
  190.1840  177.4900  140.5760 C   0  0  0  0  0  0  0  0  0  0  0  0
  191.8640  176.3640  138.6720 N   0  0  0  0  0  0  0  0  0  0  0  0
  192.4070  177.0280  139.7270 C   0  0  0  0  0  0  0  0  0  0  0  0
  186.7910  178.3700  144.6730 N   0  0  1  0  0  0  0  0  0  0  0  0
  187.2100  177.2720  145.4040 O   0  0  0  0  0  0  0  0  0  0  0  0
  187.6710  177.3630  144.1260 C   0  0  2  0  0  3  0  0  0  0  0  0
  185.4520  178.0660  144.1960 C   0  0  2  0  0  3  0  0  0  0  0  0
  184.8600  179.2350  143.6250 C   0  0  2  0  0  3  0  0  0  0  0  0
  183.7840  179.0030  146.0540 O   0  0  0  0  0  0  0  0  0  0  0  0
  184.4350  178.8360  145.0370 C   0  0  0  0  0  0  0  0  0  0  0  0
  183.8150  178.8560  142.6930 N   0  0  0  0  0  1  0  0  0  0  0  0
  189.8200  177.9720  145.4130 C   0  0  0  0  0  2  0  0  0  0  0  0
  191.2140  176.8730  146.9150 C   0  0  1  0  0  3  0  0  0  0  0  0
  192.1640  175.6980  147.0400 C   0  0  0  0  0  1  0  0  0  0  0  0
  190.3430  176.6680  145.7840 N   0  0  0  0  0  0  0  0  0  0  0  0
  189.9370  176.4400  147.0880 O   0  0  0  0  0  0  0  0  0  0  0  0
  1  2  2  0  0  0  0
  2 21  1  0  0  0  0
  3  5  2  0  0  0  0
  4  1  1  0  0  0  0
  5  4  2  0  0  0  0
  8 10  2  0  0  0  0
  9 11  2  0  0  0  0
  9  8  1  0  0  0  0
 10  7  1  0  0  0  0
 10  4  1  0  0  0  0
 11 12  1  0  0  0  0
 12  6  1  0  0  0  0
 12  7  2  0  0  0  0
 13 14  1  1  0  0  0
 15  2  1  1  0  0  0
 15 13  1  0  0  0  0
 15 14  1  0  0  0  0
 16 13  1  0  0  0  0
 16 19  1  1  0  0  0
 17 20  1  6  0  0  0
 17 16  1  0  0  0  0
 17 19  1  0  0  0  0
 19 18  2  0  0  0  0
 21 24  1  0  0  0  0
 22 23  1  6  0  0  0
 22 25  1  0  0  0  0
 24 22  1  0  0  0  0
 24 25  1  0  0  0  0
M  END
>  <MODEL>
5

>  <REMARK>
 VINA RESULT:      -7.6      2.604      6.493
  Name = 
  6 active torsions:
  status: ('A' for Active; 'I' for Inactive)
    1  A    between atoms: N_6  and  C_7
    2  A    between atoms: C_11  and  C_12
    3  A    between atoms: C_12  and  C_15
    4  A    between atoms: C_16  and  C_25
    5  A    between atoms: N_21  and  C_23
    6  A    between atoms: C_23  and  C_25
                            x       y       z     vdW  Elec       q    Type
                         _______ _______ _______ _____ _____    ______ ____

>  <TORSDO>
F 6

$$$$
=
 OpenBabel10232407473D

 25 28  0  0  1  0  0  0  0  0999 V2000
  187.5480  177.0260  144.1700 C   0  0  0  0  0  3  0  0  0  0  0  0
  188.0050  177.4770  145.3480 C   0  0  0  0  0  0  0  0  0  0  0  0
  190.4370  175.3010  143.0570 O   0  0  0  0  0  0  0  0  0  0  0  0
  188.3240  176.7230  142.9420 C   0  0  0  0  0  0  0  0  0  0  0  0
  189.4100  175.9900  143.0020 C   0  0  0  0  0  0  0  0  0  0  0  0
  185.1780  179.3730  140.1760 N   0  0  0  0  0  1  0  0  0  0  0  0
  186.7340  178.0680  141.5280 C   0  0  0  0  0  3  0  0  0  0  0  0
  188.8600  177.4110  140.5920 C   0  0  0  0  0  3  0  0  0  0  0  0
  188.5160  178.0620  139.4050 C   0  0  0  0  0  3  0  0  0  0  0  0
  187.9640  177.4060  141.6720 C   0  0  0  0  0  0  0  0  0  0  0  0
  187.3140  178.6920  139.2970 N   0  0  0  0  0  0  0  0  0  0  0  0
  186.4250  178.7070  140.3260 C   0  0  0  0  0  0  0  0  0  0  0  0
  189.8610  176.9460  146.7920 N   0  0  1  0  0  0  0  0  0  0  0  0
  189.6120  178.3070  146.8480 O   0  0  0  0  0  0  0  0  0  0  0  0
  189.4610  177.7110  145.6330 C   0  0  2  0  0  3  0  0  0  0  0  0
  191.3030  176.7890  146.7180 C   0  0  2  0  0  3  0  0  0  0  0  0
  191.7020  175.6000  147.4050 C   0  0  2  0  0  3  0  0  0  0  0  0
  192.2490  177.6070  149.0750 O   0  0  0  0  0  0  0  0  0  0  0  0
  191.8950  176.9370  148.1190 C   0  0  0  0  0  0  0  0  0  0  0  0
  192.9840  175.1440  146.9030 N   0  0  0  0  0  1  0  0  0  0  0  0
  187.0010  177.8150  146.3980 C   0  0  0  0  0  2  0  0  0  0  0  0
  184.7380  178.3240  146.2430 C   0  0  1  0  0  3  0  0  0  0  0  0
  183.7070  178.9720  145.3390 C   0  0  0  0  0  1  0  0  0  0  0  0
  186.0540  178.7880  145.8780 N   0  0  0  0  0  0  0  0  0  0  0  0
  185.3650  179.2850  146.9720 O   0  0  0  0  0  0  0  0  0  0  0  0
  1  2  2  0  0  0  0
  2 21  1  0  0  0  0
  4  5  2  0  0  0  0
  4  1  1  0  0  0  0
  5  3  2  0  0  0  0
  6 12  1  0  0  0  0
  7 10  1  0  0  0  0
  8 10  2  0  0  0  0
  9  8  1  0  0  0  0
 10  4  1  0  0  0  0
 11  9  2  0  0  0  0
 11 12  1  0  0  0  0
 12  7  2  0  0  0  0
 13 14  1  1  0  0  0
 15  2  1  1  0  0  0
 15 13  1  0  0  0  0
 15 14  1  0  0  0  0
 16 13  1  0  0  0  0
 16 17  1  0  0  0  0
 16 19  1  1  0  0  0
 17 20  1  6  0  0  0
 17 19  1  0  0  0  0
 19 18  2  0  0  0  0
 22 23  1  6  0  0  0
 22 25  1  0  0  0  0
 24 22  1  0  0  0  0
 24 21  1  0  0  0  0
 24 25  1  0  0  0  0
M  END
>  <MODEL>
6

>  <REMARK>
 VINA RESULT:      -7.5      2.577      7.002
  Name = 
  6 active torsions:
  status: ('A' for Active; 'I' for Inactive)
    1  A    between atoms: N_6  and  C_7
    2  A    between atoms: C_11  and  C_12
    3  A    between atoms: C_12  and  C_15
    4  A    between atoms: C_16  and  C_25
    5  A    between atoms: N_21  and  C_23
    6  A    between atoms: C_23  and  C_25
                            x       y       z     vdW  Elec       q    Type
                         _______ _______ _______ _____ _____    ______ ____

>  <TORSDO>
F 6

$$$$
=
 OpenBabel10232407473D

 25 28  0  0  1  0  0  0  0  0999 V2000
  186.7170  178.4670  142.6340 C   0  0  0  0  0  3  0  0  0  0  0  0
  187.8250  177.7520  142.8790 C   0  0  0  0  0  0  0  0  0  0  0  0
  185.5590  178.3500  145.9810 O   0  0  0  0  0  0  0  0  0  0  0  0
  185.4720  178.5320  143.4400 C   0  0  0  0  0  0  0  0  0  0  0  0
  185.5190  178.4400  144.7480 C   0  0  0  0  0  0  0  0  0  0  0  0
  180.5790  179.3200  143.3900 N   0  0  0  0  0  1  0  0  0  0  0  0
  182.9870  178.9280  143.4030 C   0  0  0  0  0  3  0  0  0  0  0  0
  184.0690  178.1100  141.4070 C   0  0  0  0  0  3  0  0  0  0  0  0
  182.8320  178.1090  140.7600 C   0  0  0  0  0  3  0  0  0  0  0  0
  184.1590  178.5200  142.7460 C   0  0  0  0  0  0  0  0  0  0  0  0
  181.7140  178.5070  141.4260 N   0  0  0  0  0  0  0  0  0  0  0  0
  181.7680  178.9120  142.7240 C   0  0  0  0  0  0  0  0  0  0  0  0
  188.9650  177.5100  144.9900 N   0  0  1  0  0  0  0  0  0  0  0  0
  189.2830  176.4390  144.1720 O   0  0  0  0  0  0  0  0  0  0  0  0
  188.0030  176.8980  144.1020 C   0  0  2  0  0  3  0  0  0  0  0  0
  188.7240  176.9650  146.3150 C   0  0  2  0  0  3  0  0  0  0  0  0
  188.8440  177.9960  147.2970 C   0  0  2  0  0  3  0  0  0  0  0  0
  191.1300  176.6290  147.4160 O   0  0  0  0  0  0  0  0  0  0  0  0
  190.0160  177.0330  147.1270 C   0  0  0  0  0  0  0  0  0  0  0  0
  188.1040  177.6330  148.4900 N   0  0  0  0  0  1  0  0  0  0  0  0
  188.9040  177.7690  141.8490 C   0  0  0  0  0  2  0  0  0  0  0  0
  189.4250  178.0640  139.6020 C   0  0  1  0  0  3  0  0  0  0  0  0
  189.0260  178.8430  138.3630 C   0  0  0  0  0  1  0  0  0  0  0  0
  188.3340  178.0730  140.5460 N   0  0  0  0  0  0  0  0  0  0  0  0
  188.6090  176.9840  139.7360 O   0  0  0  0  0  0  0  0  0  0  0  0
  1  2  2  0  0  0  0
  1  4  1  0  0  0  0
  4  5  2  0  0  0  0
  5  3  2  0  0  0  0
  8 10  2  0  0  0  0
  9  8  1  0  0  0  0
  9 11  2  0  0  0  0
 10  7  1  0  0  0  0
 10  4  1  0  0  0  0
 11 12  1  0  0  0  0
 12  6  1  0  0  0  0
 12  7  2  0  0  0  0
 13 14  1  6  0  0  0
 13 16  1  0  0  0  0
 15  2  1  6  0  0  0
 15 14  1  0  0  0  0
 15 13  1  0  0  0  0
 16 19  1  1  0  0  0
 16 17  1  0  0  0  0
 17 20  1  1  0  0  0
 19 17  1  0  0  0  0
 19 18  2  0  0  0  0
 21  2  1  0  0  0  0
 22 23  1  6  0  0  0
 22 25  1  0  0  0  0
 22 24  1  0  0  0  0
 24 21  1  0  0  0  0
 25 24  1  0  0  0  0
M  END
>  <MODEL>
7

>  <REMARK>
 VINA RESULT:      -7.4      2.563      5.816
  Name = 
  6 active torsions:
  status: ('A' for Active; 'I' for Inactive)
    1  A    between atoms: N_6  and  C_7
    2  A    between atoms: C_11  and  C_12
    3  A    between atoms: C_12  and  C_15
    4  A    between atoms: C_16  and  C_25
    5  A    between atoms: N_21  and  C_23
    6  A    between atoms: C_23  and  C_25
                            x       y       z     vdW  Elec       q    Type
                         _______ _______ _______ _____ _____    ______ ____

>  <TORSDO>
F 6

$$$$
=
 OpenBabel10232407473D

 25 28  0  0  1  0  0  0  0  0999 V2000
  187.4610  177.4910  143.5210 C   0  0  0  0  0  3  0  0  0  0  0  0
  187.3070  178.1310  142.3530 C   0  0  0  0  0  0  0  0  0  0  0  0
  190.1260  175.2840  142.7520 O   0  0  0  0  0  0  0  0  0  0  0  0
  188.7060  176.9210  144.0950 C   0  0  0  0  0  0  0  0  0  0  0  0
  189.4360  176.0800  143.4030 C   0  0  0  0  0  0  0  0  0  0  0  0
  191.8740  176.9130  147.9070 N   0  0  0  0  0  1  0  0  0  0  0  0
  190.3060  176.9200  146.0380 C   0  0  0  0  0  3  0  0  0  0  0  0
  188.0370  177.6660  146.3930 C   0  0  0  0  0  3  0  0  0  0  0  0
  188.3460  177.9010  147.7350 C   0  0  0  0  0  3  0  0  0  0  0  0
  189.0210  177.1670  145.5260 C   0  0  0  0  0  0  0  0  0  0  0  0
  189.5990  177.6490  148.2000 N   0  0  0  0  0  0  0  0  0  0  0  0
  190.5760  177.1670  147.3860 C   0  0  0  0  0  0  0  0  0  0  0  0
  188.1490  177.8960  140.1050 N   0  0  1  0  0  0  0  0  0  0  0  0
  189.0120  177.2660  140.9860 O   0  0  0  0  0  0  0  0  0  0  0  0
  188.4440  178.4270  141.4170 C   0  0  2  0  0  3  0  0  0  0  0  0
  188.9770  178.6230  139.1580 C   0  0  2  0  0  3  0  0  0  0  0  0
  188.4740  178.4460  137.8320 C   0  0  2  0  0  3  0  0  0  0  0  0
  190.5640  176.8010  138.0270 O   0  0  0  0  0  0  0  0  0  0  0  0
  189.6920  177.6240  138.2500 C   0  0  0  0  0  0  0  0  0  0  0  0
  188.9100  179.5400  136.9870 N   0  0  0  0  0  1  0  0  0  0  0  0
  185.9230  178.5120  141.9480 C   0  0  0  0  0  2  0  0  0  0  0  0
  184.2260  179.2010  143.3810 C   0  0  1  0  0  3  0  0  0  0  0  0
  183.5990  178.9150  144.7320 C   0  0  0  0  0  1  0  0  0  0  0  0
  184.9740  178.0460  142.9450 N   0  0  0  0  0  0  0  0  0  0  0  0
  183.7130  178.3470  142.4560 O   0  0  0  0  0  0  0  0  0  0  0  0
  1  4  1  0  0  0  0
  2  1  2  0  0  0  0
  3  5  2  0  0  0  0
  4 10  1  0  0  0  0
  5  4  2  0  0  0  0
  7 12  1  0  0  0  0
  8  9  2  0  0  0  0
  9 11  1  0  0  0  0
 10  7  2  0  0  0  0
 10  8  1  0  0  0  0
 12  6  1  0  0  0  0
 12 11  2  0  0  0  0
 13 14  1  1  0  0  0
 13 15  1  0  0  0  0
 14 15  1  0  0  0  0
 15  2  1  1  0  0  0
 16 19  1  6  0  0  0
 16 13  1  0  0  0  0
 17 20  1  6  0  0  0
 17 19  1  0  0  0  0
 17 16  1  0  0  0  0
 18 19  2  0  0  0  0
 21  2  1  0  0  0  0
 21 24  1  0  0  0  0
 22 23  1  1  0  0  0
 24 22  1  0  0  0  0
 25 24  1  0  0  0  0
 25 22  1  0  0  0  0
M  END
>  <MODEL>
8

>  <REMARK>
 VINA RESULT:      -7.4      2.112      4.720
  Name = 
  6 active torsions:
  status: ('A' for Active; 'I' for Inactive)
    1  A    between atoms: N_6  and  C_7
    2  A    between atoms: C_11  and  C_12
    3  A    between atoms: C_12  and  C_15
    4  A    between atoms: C_16  and  C_25
    5  A    between atoms: N_21  and  C_23
    6  A    between atoms: C_23  and  C_25
                            x       y       z     vdW  Elec       q    Type
                         _______ _______ _______ _____ _____    ______ ____

>  <TORSDO>
F 6

$$$$
=
 OpenBabel10232407473D

 25 28  0  0  1  0  0  0  0  0999 V2000
  186.9990  178.3300  142.2260 C   0  0  0  0  0  3  0  0  0  0  0  0
  188.1220  177.6000  142.3140 C   0  0  0  0  0  0  0  0  0  0  0  0
  186.2160  177.8940  145.6550 O   0  0  0  0  0  0  0  0  0  0  0  0
  185.8610  178.3760  143.1770 C   0  0  0  0  0  0  0  0  0  0  0  0
  186.0450  178.1290  144.4520 C   0  0  0  0  0  0  0  0  0  0  0  0
  182.6360  178.4050  139.4130 N   0  0  0  0  0  1  0  0  0  0  0  0
  184.2140  178.3940  141.2740 C   0  0  0  0  0  3  0  0  0  0  0  0
  183.4120  178.7880  143.5160 C   0  0  0  0  0  3  0  0  0  0  0  0
  182.1170  178.9190  143.0080 C   0  0  0  0  0  3  0  0  0  0  0  0
  184.4810  178.5250  142.6460 C   0  0  0  0  0  0  0  0  0  0  0  0
  181.8930  178.7890  141.6730 N   0  0  0  0  0  0  0  0  0  0  0  0
  182.9070  178.5330  140.8030 C   0  0  0  0  0  0  0  0  0  0  0  0
  189.5470  177.2460  144.2260 N   0  0  1  0  0  0  0  0  0  0  0  0
  189.6870  176.1850  143.3480 O   0  0  0  0  0  0  0  0  0  0  0  0
  188.4350  176.7050  143.4790 C   0  0  2  0  0  3  0  0  0  0  0  0
  189.4780  176.6760  145.5610 C   0  0  2  0  0  3  0  0  0  0  0  0
  189.5330  177.7160  146.5400 C   0  0  2  0  0  3  0  0  0  0  0  0
  191.9820  176.6610  146.4800 O   0  0  0  0  0  0  0  0  0  0  0  0
  190.8060  176.9150  146.2760 C   0  0  0  0  0  0  0  0  0  0  0  0
  188.9370  177.2600  147.7810 N   0  0  0  0  0  1  0  0  0  0  0  0
  189.0700  177.6450  141.1630 C   0  0  0  0  0  2  0  0  0  0  0  0
  189.3570  178.1700  138.9170 C   0  0  1  0  0  3  0  0  0  0  0  0
  188.9290  179.1530  137.8440 C   0  0  0  0  0  1  0  0  0  0  0  0
  188.3990  178.1900  139.9950 N   0  0  0  0  0  0  0  0  0  0  0  0
  188.4190  177.1940  139.0330 O   0  0  0  0  0  0  0  0  0  0  0  0
  1  2  2  0  0  0  0
  1  4  1  0  0  0  0
  4  5  2  0  0  0  0
  5  3  2  0  0  0  0
  6 12  1  0  0  0  0
  7 10  1  0  0  0  0
  9  8  1  0  0  0  0
 10  4  1  0  0  0  0
 10  8  2  0  0  0  0
 11  9  2  0  0  0  0
 12  7  2  0  0  0  0
 12 11  1  0  0  0  0
 13 14  1  6  0  0  0
 13 16  1  0  0  0  0
 14 15  1  0  0  0  0
 15  2  1  6  0  0  0
 15 13  1  0  0  0  0
 16 19  1  1  0  0  0
 16 17  1  0  0  0  0
 17 20  1  1  0  0  0
 19 18  2  0  0  0  0
 19 17  1  0  0  0  0
 21  2  1  0  0  0  0
 22 23  1  6  0  0  0
 22 25  1  0  0  0  0
 22 24  1  0  0  0  0
 24 21  1  0  0  0  0
 25 24  1  0  0  0  0
M  END
>  <MODEL>
9

>  <REMARK>
 VINA RESULT:      -7.3      2.488      5.721
  Name = 
  6 active torsions:
  status: ('A' for Active; 'I' for Inactive)
    1  A    between atoms: N_6  and  C_7
    2  A    between atoms: C_11  and  C_12
    3  A    between atoms: C_12  and  C_15
    4  A    between atoms: C_16  and  C_25
    5  A    between atoms: N_21  and  C_23
    6  A    between atoms: C_23  and  C_25
                            x       y       z     vdW  Elec       q    Type
                         _______ _______ _______ _____ _____    ______ ____

>  <TORSDO>
F 6

$$$$
