=
 OpenBabel10232411413D

 52 57  0  0  1  0  0  0  0  0999 V2000
  192.1930  177.2780  140.3210 C   0  0  0  0  0  3  0  0  0  0  0  0
  193.6170  175.1640  138.0530 O   0  0  0  0  0  0  0  0  0  0  0  0
  194.2500  176.2210  137.4060 N   0  0  0  0  0  0  0  0  0  0  0  0
  189.1080  176.8540  138.2820 C   0  0  2  0  0  3  0  0  0  0  0  0
  189.5800  177.4250  140.4030 C   0  0  0  0  0  0  0  0  0  0  0  0
  190.8410  177.1120  139.7740 C   0  0  0  0  0  0  0  0  0  0  0  0
  188.5940  177.2940  139.5780 N   0  0  0  0  0  0  0  0  0  0  0  0
  193.0430  176.3850  138.1930 C   0  0  2  0  0  0  0  0  0  0  0  0
  190.5860  176.7710  138.5220 C   0  0  0  0  0  0  0  0  0  0  0  0
  193.2520  176.9470  139.5730 C   0  0  0  0  0  3  0  0  0  0  0  0
  191.6600  176.5010  137.5020 C   0  0  0  0  0  2  0  0  0  0  0  0
  193.9450  175.9780  135.6760 S   0  0  0  0  0  0  0  0  0  0  0  0
  195.5910  176.2590  135.2750 O   0  0  0  0  0  0  0  0  0  0  0  0
  196.2690  175.8700  136.3350 O   0  0  0  0  0  0  0  0  0  0  0  0
  197.2040  174.9440  135.8590 C   0  0  1  0  0  3  0  0  0  0  0  0
  197.8380  174.0980  136.9210 C   0  0  2  0  0  3  0  0  0  0  0  0
  196.7500  173.6440  136.1470 O   0  0  0  0  0  0  0  0  0  0  0  0
  197.3990  174.2650  138.3610 C   0  0  0  0  0  0  0  0  0  0  0  0
  196.4790  173.6180  138.8390 O   0  0  0  0  0  0  0  0  0  0  0  0
  198.1000  175.2920  139.1950 C   0  0  2  0  0  3  0  0  0  0  0  0
  199.5240  175.0050  139.2650 N   0  0  0  0  0  1  0  0  0  0  0  0
  198.2150  175.1040  141.5390 O   0  0  0  0  0  0  0  0  0  0  0  0
  197.5160  175.3580  140.5730 C   0  0  0  0  0  0  0  0  0  0  0  0
  196.2160  175.7150  140.7530 F   0  0  0  0  0  0  0  0  0  0  0  0
  189.4200  177.7680  141.7480 O   0  0  0  0  0  0  0  0  0  0  0  0
  189.6790  176.8920  142.8060 C   0  0  0  0  0  0  0  0  0  0  0  0
  189.8850  175.6700  142.5550 O   0  0  0  0  0  0  0  0  0  0  0  0
  189.7750  177.4120  144.2120 C   0  0  1  0  0  3  0  0  0  0  0  0
  190.5590  178.7150  144.2590 C   0  0  0  0  0  1  0  0  0  0  0  0
  187.2710  176.9230  144.2500 N   0  0  0  0  0  1  0  0  0  0  0  0
  188.4160  177.5290  144.8450 C   0  0  0  0  0  0  0  0  0  0  0  0
  188.3080  178.0570  145.9860 O   0  0  0  0  0  0  0  0  0  0  0  0
  188.7850  177.8780  137.2050 C   0  0  0  0  0  2  0  0  0  0  0  0
  188.2500  177.1770  135.9630 C   0  0  0  0  0  2  0  0  0  0  0  0
  187.3750  176.0820  136.3570 N   0  0  0  0  0  2  0  0  0  0  0  0
  186.0470  176.4100  135.8660 C   0  0  0  0  0  2  0  0  0  0  0  0
  183.3690  177.0880  139.1530 C   0  0  0  0  0  3  0  0  0  0  0  0
  183.2000  175.9630  138.3360 C   0  0  0  0  0  3  0  0  0  0  0  0
  185.2840  177.7600  137.8260 C   0  0  0  0  0  3  0  0  0  0  0  0
  184.0720  175.7360  137.2640 C   0  0  0  0  0  3  0  0  0  0  0  0
  185.1180  176.6340  137.0110 C   0  0  0  0  0  0  0  0  0  0  0  0
  184.4100  177.9890  138.8990 C   0  0  0  0  0  0  0  0  0  0  0  0
  184.9850  178.9760  141.0970 C   0  0  0  0  0  0  0  0  0  0  0  0
  184.1860  180.3500  139.2910 O   0  0  0  0  0  1  0  0  0  0  0  0
  184.5820  179.1350  139.7350 N   0  0  0  0  0  0  0  0  0  0  0  0
  186.2030  178.7850  141.3620 O   0  0  0  0  0  0  0  0  0  0  0  0
  184.3630  178.9060  143.4590 C   0  0  0  0  0  3  0  0  0  0  0  0
  183.3620  178.8990  144.5810 C   0  0  0  0  0  2  0  0  0  0  0  0
  183.9830  178.9970  142.1770 C   0  0  0  0  0  0  0  0  0  0  0  0
  181.6380  178.8240  142.7950 C   0  0  0  0  0  3  0  0  0  0  0  0
  182.0450  178.5800  144.1130 O   0  0  0  0  0  0  0  0  0  0  0  0
  182.5460  179.0390  141.8440 C   0  0  0  0  0  3  0  0  0  0  0  0
  2  8  1  0  0  0  0
  3  2  1  0  0  0  0
  3  8  1  0  0  0  0
  4 33  1  6  0  0  0
  4  9  1  0  0  0  0
  4  7  1  0  0  0  0
  5 25  1  0  0  0  0
  6  1  1  0  0  0  0
  6  5  1  0  0  0  0
  7  5  2  0  0  0  0
  8 11  1  6  0  0  0
  8 10  1  0  0  0  0
  9  6  2  0  0  0  0
 10  1  2  0  0  0  0
 11  9  1  0  0  0  0
 12  3  1  0  0  0  0
 13 12  1  0  0  0  0
 13 14  1  0  0  0  0
 15 17  1  0  0  0  0
 15 14  1  1  0  0  0
 15 16  1  0  0  0  0
 16 18  1  1  0  0  0
 17 16  1  0  0  0  0
 18 19  2  0  0  0  0
 18 20  1  0  0  0  0
 20 21  1  1  0  0  0
 20 23  1  0  0  0  0
 23 24  1  0  0  0  0
 23 22  2  0  0  0  0
 25 26  1  0  0  0  0
 26 28  1  0  0  0  0
 27 26  2  0  0  0  0
 28 29  1  6  0  0  0
 28 31  1  0  0  0  0
 30 31  1  0  0  0  0
 31 32  2  0  0  0  0
 34 35  1  0  0  0  0
 34 33  1  0  0  0  0
 36 35  1  0  0  0  0
 36 41  1  0  0  0  0
 38 37  2  0  0  0  0
 39 42  2  0  0  0  0
 40 38  1  0  0  0  0
 41 40  2  0  0  0  0
 41 39  1  0  0  0  0
 42 37  1  0  0  0  0
 42 45  1  0  0  0  0
 43 46  2  0  0  0  0
 43 49  1  0  0  0  0
 44 45  1  0  0  0  0
 45 43  1  0  0  0  0
 47 48  1  0  0  0  0
 49 47  2  0  0  0  0
 50 51  1  0  0  0  0
 51 48  1  0  0  0  0
 52 49  1  0  0  0  0
 52 50  2  0  0  0  0
M  END
>  <MODEL>
1

>  <REMARK>
 VINA RESULT:      -8.4      0.000      0.000
  Name = 
  18 active torsions:
  status: ('A' for Active; 'I' for Inactive)
    1  A    between atoms: S_1  and  N_11
    2  A    between atoms: S_1  and  O_21
    3  A    between atoms: C_3  and  O_47
    4  A    between atoms: C_9  and  C_32
    5  A    between atoms: C_12  and  C_38
    6  A    between atoms: C_13  and  C_18
    7  A    between atoms: C_14  and  O_30
    8  A    between atoms: C_17  and  C_18
    9  A    between atoms: C_17  and  C_25
   10  A    between atoms: C_19  and  C_34
   11  A    between atoms: C_19  and  C_43
   12  A    between atoms: O_21  and  O_47
   13  A    between atoms: C_22  and  C_52
   14  A    between atoms: N_29  and  C_40
   15  A    between atoms: O_30  and  C_43
   16  A    between atoms: C_38  and  C_41
   17  A    between atoms: C_41  and  N_49
   18  A    between atoms: N_49  and  C_52
                            x       y       z     vdW  Elec       q    Type
                         _______ _______ _______ _____ _____    ______ ____

>  <TORSDO>
F 18

$$$$
=
 OpenBabel10232411413D

 52 57  0  0  1  0  0  0  0  0999 V2000
  192.0810  177.4910  140.4620 C   0  0  0  0  0  3  0  0  0  0  0  0
  193.2420  175.2730  138.1450 O   0  0  0  0  0  0  0  0  0  0  0  0
  193.8520  176.2910  137.4180 N   0  0  0  0  0  0  0  0  0  0  0  0
  188.8240  177.1210  138.6990 C   0  0  2  0  0  3  0  0  0  0  0  0
  189.4910  177.7290  140.7570 C   0  0  0  0  0  0  0  0  0  0  0  0
  190.6840  177.3580  140.0340 C   0  0  0  0  0  0  0  0  0  0  0  0
  188.4360  177.6120  140.0200 N   0  0  0  0  0  0  0  0  0  0  0  0
  192.7210  176.5160  138.2980 C   0  0  2  0  0  0  0  0  0  0  0  0
  190.3140  176.9940  138.8180 C   0  0  0  0  0  0  0  0  0  0  0  0
  193.0630  177.1060  139.6380 C   0  0  0  0  0  3  0  0  0  0  0  0
  191.2890  176.6610  137.7200 C   0  0  0  0  0  2  0  0  0  0  0  0
  193.3950  176.0150  135.7270 S   0  0  0  0  0  0  0  0  0  0  0  0
  194.7360  176.9160  135.1440 O   0  0  0  0  0  0  0  0  0  0  0  0
  195.7300  176.6030  135.9510 O   0  0  0  0  0  0  0  0  0  0  0  0
  196.7110  176.0390  135.1280 C   0  0  1  0  0  3  0  0  0  0  0  0
  197.6020  175.0470  135.8130 C   0  0  2  0  0  3  0  0  0  0  0  0
  196.4930  174.6520  135.0370 O   0  0  0  0  0  0  0  0  0  0  0  0
  197.3490  174.7050  137.2670 C   0  0  0  0  0  0  0  0  0  0  0  0
  197.8330  175.3550  138.1820 O   0  0  0  0  0  0  0  0  0  0  0  0
  196.5110  173.5010  137.5700 C   0  0  2  0  0  3  0  0  0  0  0  0
  196.0380  173.5430  138.9450 N   0  0  0  0  0  1  0  0  0  0  0  0
  196.6830  171.2340  136.9560 O   0  0  0  0  0  0  0  0  0  0  0  0
  197.2750  172.2370  137.3220 C   0  0  0  0  0  0  0  0  0  0  0  0
  198.6240  172.2030  137.4880 F   0  0  0  0  0  0  0  0  0  0  0  0
  189.4550  178.1120  142.1000 O   0  0  0  0  0  0  0  0  0  0  0  0
  189.2380  177.2190  143.1540 C   0  0  0  0  0  0  0  0  0  0  0  0
  188.6410  176.1290  142.9210 O   0  0  0  0  0  0  0  0  0  0  0  0
  189.7670  177.5260  144.5250 C   0  0  1  0  0  3  0  0  0  0  0  0
  188.7640  177.1260  145.5980 C   0  0  0  0  0  1  0  0  0  0  0  0
  191.6690  175.9890  143.7980 N   0  0  0  0  0  1  0  0  0  0  0  0
  191.1220  176.9100  144.7390 C   0  0  0  0  0  0  0  0  0  0  0  0
  191.8420  177.3130  145.6930 O   0  0  0  0  0  0  0  0  0  0  0  0
  188.4450  178.1280  137.6240 C   0  0  0  0  0  2  0  0  0  0  0  0
  187.8180  177.4100  136.4360 C   0  0  0  0  0  2  0  0  0  0  0  0
  187.0790  176.2450  136.9010 N   0  0  0  0  0  2  0  0  0  0  0  0
  185.7830  176.2840  136.2470 C   0  0  0  0  0  2  0  0  0  0  0  0
  182.6340  176.0700  139.1590 C   0  0  0  0  0  3  0  0  0  0  0  0
  182.9350  174.9490  138.3740 C   0  0  0  0  0  3  0  0  0  0  0  0
  184.3900  177.3180  138.0460 C   0  0  0  0  0  3  0  0  0  0  0  0
  183.9620  175.0140  137.4230 C   0  0  0  0  0  3  0  0  0  0  0  0
  184.6930  176.1990  137.2620 C   0  0  0  0  0  0  0  0  0  0  0  0
  183.3600  177.2560  138.9970 C   0  0  0  0  0  0  0  0  0  0  0  0
  184.0760  179.0240  140.5770 C   0  0  0  0  0  0  0  0  0  0  0  0
  181.7620  178.7660  139.9690 O   0  0  0  0  0  1  0  0  0  0  0  0
  183.0530  178.3960  139.8010 N   0  0  0  0  0  0  0  0  0  0  0  0
  184.8750  179.8210  140.0140 O   0  0  0  0  0  0  0  0  0  0  0  0
  183.2290  178.9930  142.8680 C   0  0  0  0  0  3  0  0  0  0  0  0
  183.3570  178.7120  144.3400 C   0  0  0  0  0  2  0  0  0  0  0  0
  184.2190  178.7140  142.0100 C   0  0  0  0  0  0  0  0  0  0  0  0
  185.7100  178.1020  143.8300 C   0  0  0  0  0  3  0  0  0  0  0  0
  184.7250  178.5360  144.7280 O   0  0  0  0  0  0  0  0  0  0  0  0
  185.4920  178.1660  142.5180 C   0  0  0  0  0  3  0  0  0  0  0  0
  2  8  1  0  0  0  0
  3  2  1  0  0  0  0
  3  8  1  0  0  0  0
  4 33  1  6  0  0  0
  4  9  1  0  0  0  0
  4  7  1  0  0  0  0
  5 25  1  0  0  0  0
  6  1  1  0  0  0  0
  6  5  1  0  0  0  0
  7  5  2  0  0  0  0
  8 11  1  6  0  0  0
  8 10  1  0  0  0  0
  9  6  2  0  0  0  0
 10  1  2  0  0  0  0
 11  9  1  0  0  0  0
 12  3  1  0  0  0  0
 13 12  1  0  0  0  0
 13 14  1  0  0  0  0
 15 16  1  0  0  0  0
 15 14  1  1  0  0  0
 16 18  1  1  0  0  0
 17 15  1  0  0  0  0
 17 16  1  0  0  0  0
 18 20  1  0  0  0  0
 18 19  2  0  0  0  0
 20 21  1  1  0  0  0
 22 23  2  0  0  0  0
 23 24  1  0  0  0  0
 23 20  1  0  0  0  0
 25 26  1  0  0  0  0
 26 28  1  0  0  0  0
 27 26  2  0  0  0  0
 28 31  1  0  0  0  0
 28 29  1  1  0  0  0
 30 31  1  0  0  0  0
 31 32  2  0  0  0  0
 34 35  1  0  0  0  0
 34 33  1  0  0  0  0
 36 35  1  0  0  0  0
 36 41  1  0  0  0  0
 38 37  2  0  0  0  0
 39 42  2  0  0  0  0
 40 38  1  0  0  0  0
 41 40  2  0  0  0  0
 41 39  1  0  0  0  0
 42 37  1  0  0  0  0
 42 45  1  0  0  0  0
 43 49  1  0  0  0  0
 45 44  1  0  0  0  0
 45 43  1  0  0  0  0
 46 43  2  0  0  0  0
 47 48  1  0  0  0  0
 48 51  1  0  0  0  0
 49 52  1  0  0  0  0
 49 47  2  0  0  0  0
 50 51  1  0  0  0  0
 52 50  2  0  0  0  0
M  END
>  <MODEL>
2

>  <REMARK>
 VINA RESULT:      -8.3      1.711      2.158
  Name = 
  18 active torsions:
  status: ('A' for Active; 'I' for Inactive)
    1  A    between atoms: S_1  and  N_11
    2  A    between atoms: S_1  and  O_21
    3  A    between atoms: C_3  and  O_47
    4  A    between atoms: C_9  and  C_32
    5  A    between atoms: C_12  and  C_38
    6  A    between atoms: C_13  and  C_18
    7  A    between atoms: C_14  and  O_30
    8  A    between atoms: C_17  and  C_18
    9  A    between atoms: C_17  and  C_25
   10  A    between atoms: C_19  and  C_34
   11  A    between atoms: C_19  and  C_43
   12  A    between atoms: O_21  and  O_47
   13  A    between atoms: C_22  and  C_52
   14  A    between atoms: N_29  and  C_40
   15  A    between atoms: O_30  and  C_43
   16  A    between atoms: C_38  and  C_41
   17  A    between atoms: C_41  and  N_49
   18  A    between atoms: N_49  and  C_52
                            x       y       z     vdW  Elec       q    Type
                         _______ _______ _______ _____ _____    ______ ____

>  <TORSDO>
F 18

$$$$
=
 OpenBabel10232411413D

 52 57  0  0  1  0  0  0  0  0999 V2000
  187.1870  176.1530  136.7470 C   0  0  0  0  0  3  0  0  0  0  0  0
  190.2940  175.2990  135.6300 O   0  0  0  0  0  0  0  0  0  0  0  0
  190.1920  174.0310  136.1920 N   0  0  0  0  0  0  0  0  0  0  0  0
  189.0160  178.0300  139.3910 C   0  0  2  0  0  3  0  0  0  0  0  0
  186.9840  178.1430  138.4370 C   0  0  0  0  0  0  0  0  0  0  0  0
  187.6980  177.0910  137.7530 C   0  0  0  0  0  0  0  0  0  0  0  0
  187.7040  178.6760  139.3670 N   0  0  0  0  0  0  0  0  0  0  0  0
  189.4400  175.1730  136.6760 C   0  0  2  0  0  0  0  0  0  0  0  0
  188.9000  177.0090  138.2980 C   0  0  0  0  0  0  0  0  0  0  0  0
  188.0030  175.2250  136.2350 C   0  0  0  0  0  3  0  0  0  0  0  0
  189.8990  175.9400  137.9430 C   0  0  0  0  0  2  0  0  0  0  0  0
  191.7160  173.7620  137.0570 S   0  0  0  0  0  0  0  0  0  0  0  0
  192.4410  173.0160  135.6910 O   0  0  0  0  0  0  0  0  0  0  0  0
  193.7130  173.3560  135.7540 O   0  0  0  0  0  0  0  0  0  0  0  0
  193.7160  174.7290  136.0260 C   0  0  1  0  0  3  0  0  0  0  0  0
  195.0690  175.3000  136.3280 C   0  0  2  0  0  3  0  0  0  0  0  0
  194.4830  175.3900  135.0490 O   0  0  0  0  0  0  0  0  0  0  0  0
  196.2840  174.3980  136.2650 C   0  0  0  0  0  0  0  0  0  0  0  0
  196.7150  173.9620  135.2080 O   0  0  0  0  0  0  0  0  0  0  0  0
  196.9360  174.0050  137.5550 C   0  0  2  0  0  3  0  0  0  0  0  0
  197.4620  172.6520  137.4680 N   0  0  0  0  0  1  0  0  0  0  0  0
  196.1410  174.9800  139.5450 O   0  0  0  0  0  0  0  0  0  0  0  0
  195.9760  174.1160  138.6990 C   0  0  0  0  0  0  0  0  0  0  0  0
  194.9150  173.2720  138.7930 F   0  0  0  0  0  0  0  0  0  0  0  0
  185.6980  178.5820  138.1100 O   0  0  0  0  0  0  0  0  0  0  0  0
  184.7230  178.8970  139.0590 C   0  0  0  0  0  0  0  0  0  0  0  0
  184.5450  180.1080  139.3780 O   0  0  0  0  0  0  0  0  0  0  0  0
  183.8570  177.8170  139.6410 C   0  0  1  0  0  3  0  0  0  0  0  0
  183.1070  178.3200  140.8660 C   0  0  0  0  0  1  0  0  0  0  0  0
  181.5810  177.6410  138.5010 N   0  0  0  0  0  1  0  0  0  0  0  0
  182.9420  177.2300  138.6010 C   0  0  0  0  0  0  0  0  0  0  0  0
  183.4190  176.4640  137.7190 O   0  0  0  0  0  0  0  0  0  0  0  0
  189.2590  177.3660  140.7370 C   0  0  0  0  0  2  0  0  0  0  0  0
  188.5310  178.1330  141.8340 C   0  0  0  0  0  2  0  0  0  0  0  0
  187.6550  177.2300  142.5650 N   0  0  0  0  0  2  0  0  0  0  0  0
  186.4100  177.9440  142.7900 C   0  0  0  0  0  2  0  0  0  0  0  0
  185.6800  178.3060  147.0060 C   0  0  0  0  0  3  0  0  0  0  0  0
  184.7260  178.7690  146.0910 C   0  0  0  0  0  3  0  0  0  0  0  0
  187.0990  177.6060  145.1690 C   0  0  0  0  0  3  0  0  0  0  0  0
  184.9590  178.6520  144.7150 C   0  0  0  0  0  3  0  0  0  0  0  0
  186.1450  178.0660  144.2530 C   0  0  0  0  0  0  0  0  0  0  0  0
  186.8680  177.7240  146.5470 C   0  0  0  0  0  0  0  0  0  0  0  0
  189.1360  177.8480  147.5350 C   0  0  0  0  0  0  0  0  0  0  0  0
  187.5910  176.1220  148.1870 O   0  0  0  0  0  1  0  0  0  0  0  0
  187.8380  177.2500  147.4830 N   0  0  0  0  0  0  0  0  0  0  0  0
  189.2890  178.9360  148.1530 O   0  0  0  0  0  0  0  0  0  0  0  0
  190.3420  177.2220  145.5050 C   0  0  0  0  0  3  0  0  0  0  0  0
  191.4780  176.5650  144.7700 C   0  0  0  0  0  2  0  0  0  0  0  0
  190.2740  177.2180  146.8430 C   0  0  0  0  0  0  0  0  0  0  0  0
  192.2020  175.7460  147.0000 C   0  0  0  0  0  3  0  0  0  0  0  0
  192.1780  175.6330  145.6030 O   0  0  0  0  0  0  0  0  0  0  0  0
  191.3060  176.5090  147.6240 C   0  0  0  0  0  3  0  0  0  0  0  0
  1  6  1  0  0  0  0
  2  3  1  0  0  0  0
  2  8  1  0  0  0  0
  3  8  1  0  0  0  0
  3 12  1  0  0  0  0
  4 33  1  1  0  0  0
  5  7  2  0  0  0  0
  6  9  2  0  0  0  0
  6  5  1  0  0  0  0
  7  4  1  0  0  0  0
  8 10  1  6  0  0  0
  8 11  1  0  0  0  0
  9  4  1  0  0  0  0
 10  1  2  0  0  0  0
 11  9  1  0  0  0  0
 13 14  1  0  0  0  0
 13 12  1  0  0  0  0
 15 14  1  6  0  0  0
 15 16  1  0  0  0  0
 16 18  1  6  0  0  0
 17 15  1  0  0  0  0
 17 16  1  0  0  0  0
 18 20  1  0  0  0  0
 19 18  2  0  0  0  0
 20 21  1  6  0  0  0
 20 23  1  0  0  0  0
 23 24  1  0  0  0  0
 23 22  2  0  0  0  0
 25  5  1  0  0  0  0
 25 26  1  0  0  0  0
 26 27  2  0  0  0  0
 26 28  1  0  0  0  0
 28 29  1  1  0  0  0
 30 31  1  0  0  0  0
 31 28  1  0  0  0  0
 32 31  2  0  0  0  0
 33 34  1  0  0  0  0
 34 35  1  0  0  0  0
 35 36  1  0  0  0  0
 36 41  1  0  0  0  0
 38 37  2  0  0  0  0
 39 42  2  0  0  0  0
 40 38  1  0  0  0  0
 41 40  2  0  0  0  0
 41 39  1  0  0  0  0
 42 37  1  0  0  0  0
 42 45  1  0  0  0  0
 43 46  2  0  0  0  0
 45 43  1  0  0  0  0
 45 44  1  0  0  0  0
 47 49  2  0  0  0  0
 48 47  1  0  0  0  0
 48 51  1  0  0  0  0
 49 43  1  0  0  0  0
 49 52  1  0  0  0  0
 50 52  2  0  0  0  0
 51 50  1  0  0  0  0
M  END
>  <MODEL>
3

>  <REMARK>
 VINA RESULT:      -7.9      2.455      6.450
  Name = 
  18 active torsions:
  status: ('A' for Active; 'I' for Inactive)
    1  A    between atoms: S_1  and  N_11
    2  A    between atoms: S_1  and  O_21
    3  A    between atoms: C_3  and  O_47
    4  A    between atoms: C_9  and  C_32
    5  A    between atoms: C_12  and  C_38
    6  A    between atoms: C_13  and  C_18
    7  A    between atoms: C_14  and  O_30
    8  A    between atoms: C_17  and  C_18
    9  A    between atoms: C_17  and  C_25
   10  A    between atoms: C_19  and  C_34
   11  A    between atoms: C_19  and  C_43
   12  A    between atoms: O_21  and  O_47
   13  A    between atoms: C_22  and  C_52
   14  A    between atoms: N_29  and  C_40
   15  A    between atoms: O_30  and  C_43
   16  A    between atoms: C_38  and  C_41
   17  A    between atoms: C_41  and  N_49
   18  A    between atoms: N_49  and  C_52
                            x       y       z     vdW  Elec       q    Type
                         _______ _______ _______ _____ _____    ______ ____

>  <TORSDO>
F 18

$$$$
=
 OpenBabel10232411413D

 52 57  0  0  1  0  0  0  0  0999 V2000
  189.2540  177.8920  137.1500 C   0  0  0  0  0  3  0  0  0  0  0  0
  185.9060  177.4960  137.6660 O   0  0  0  0  0  0  0  0  0  0  0  0
  185.7250  178.8680  137.8080 N   0  0  0  0  0  0  0  0  0  0  0  0
  189.5940  176.7840  140.6870 C   0  0  2  0  0  3  0  0  0  0  0  0
  190.9070  176.8030  138.8630 C   0  0  0  0  0  0  0  0  0  0  0  0
  189.6230  177.3140  138.4470 C   0  0  0  0  0  0  0  0  0  0  0  0
  190.9140  176.5080  140.1210 N   0  0  0  0  0  0  0  0  0  0  0  0
  186.9910  178.2080  138.0580 C   0  0  2  0  0  0  0  0  0  0  0  0
  188.8320  177.3100  139.5070 C   0  0  0  0  0  0  0  0  0  0  0  0
  188.0060  178.3340  136.9550 C   0  0  0  0  0  3  0  0  0  0  0  0
  187.4450  177.8950  139.5080 C   0  0  0  0  0  2  0  0  0  0  0  0
  184.7290  179.0750  139.2610 S   0  0  0  0  0  0  0  0  0  0  0  0
  183.3160  178.5230  138.4570 O   0  0  0  0  0  0  0  0  0  0  0  0
  182.6550  179.6190  138.1430 O   0  0  0  0  0  0  0  0  0  0  0  0
  181.6620  179.7460  139.1200 C   0  0  1  0  0  3  0  0  0  0  0  0
  180.5810  180.7290  138.7850 C   0  0  2  0  0  3  0  0  0  0  0  0
  180.4280  179.3420  138.5770 O   0  0  0  0  0  0  0  0  0  0  0  0
  180.6150  181.4390  137.4470 C   0  0  0  0  0  0  0  0  0  0  0  0
  180.7250  180.8330  136.3920 O   0  0  0  0  0  0  0  0  0  0  0  0
  180.5540  182.9360  137.4450 C   0  0  2  0  0  3  0  0  0  0  0  0
  180.1180  183.4250  136.1460 N   0  0  0  0  0  1  0  0  0  0  0  0
  182.1430  184.6730  137.4690 O   0  0  0  0  0  0  0  0  0  0  0  0
  181.8810  183.5300  137.8040 C   0  0  0  0  0  0  0  0  0  0  0  0
  182.7890  182.8090  138.5140 F   0  0  0  0  0  0  0  0  0  0  0  0
  191.9970  176.5900  138.0150 O   0  0  0  0  0  0  0  0  0  0  0  0
  192.1070  175.4930  137.1560 C   0  0  0  0  0  0  0  0  0  0  0  0
  191.5120  175.5260  136.0410 O   0  0  0  0  0  0  0  0  0  0  0  0
  192.9720  174.3240  137.5290 C   0  0  1  0  0  3  0  0  0  0  0  0
  192.9060  173.2370  136.4670 C   0  0  0  0  0  1  0  0  0  0  0  0
  195.2050  174.0220  138.7270 N   0  0  0  0  0  1  0  0  0  0  0  0
  194.3800  174.7600  137.8270 C   0  0  0  0  0  0  0  0  0  0  0  0
  194.8850  175.7130  137.1730 O   0  0  0  0  0  0  0  0  0  0  0  0
  189.6950  177.8310  141.7850 C   0  0  0  0  0  2  0  0  0  0  0  0
  190.8850  177.5280  142.6860 C   0  0  0  0  0  2  0  0  0  0  0  0
  190.5910  177.9520  144.0470 N   0  0  0  0  0  2  0  0  0  0  0  0
  189.8250  176.8820  144.6620 C   0  0  0  0  0  2  0  0  0  0  0  0
  188.0740  178.2200  148.3480 C   0  0  0  0  0  3  0  0  0  0  0  0
  189.3330  177.6040  148.3570 C   0  0  0  0  0  3  0  0  0  0  0  0
  187.9690  177.9650  145.9390 C   0  0  0  0  0  3  0  0  0  0  0  0
  189.9090  177.1680  147.1570 C   0  0  0  0  0  3  0  0  0  0  0  0
  189.2280  177.3520  145.9460 C   0  0  0  0  0  0  0  0  0  0  0  0
  187.3900  178.4010  147.1400 C   0  0  0  0  0  0  0  0  0  0  0  0
  184.9750  178.3460  146.5960 C   0  0  0  0  0  0  0  0  0  0  0  0
  186.0050  180.3380  147.4670 O   0  0  0  0  0  1  0  0  0  0  0  0
  186.1080  179.0310  147.1340 N   0  0  0  0  0  0  0  0  0  0  0  0
  184.3830  177.4840  147.3010 O   0  0  0  0  0  0  0  0  0  0  0  0
  183.3100  179.1300  144.9890 C   0  0  0  0  0  3  0  0  0  0  0  0
  182.8140  179.3930  143.5940 C   0  0  0  0  0  2  0  0  0  0  0  0
  184.5260  178.6170  145.2190 C   0  0  0  0  0  0  0  0  0  0  0  0
  184.8990  178.2720  142.8420 C   0  0  0  0  0  3  0  0  0  0  0  0
  183.5740  178.6690  142.6180 O   0  0  0  0  0  0  0  0  0  0  0  0
  185.3880  178.2460  144.0810 C   0  0  0  0  0  3  0  0  0  0  0  0
  1  6  1  0  0  0  0
  2  3  1  0  0  0  0
  2  8  1  0  0  0  0
  3  8  1  0  0  0  0
  3 12  1  0  0  0  0
  4 33  1  1  0  0  0
  5  7  2  0  0  0  0
  6  5  1  0  0  0  0
  6  9  2  0  0  0  0
  7  4  1  0  0  0  0
  8 10  1  6  0  0  0
  8 11  1  0  0  0  0
  9 11  1  0  0  0  0
  9  4  1  0  0  0  0
 10  1  2  0  0  0  0
 13 12  1  0  0  0  0
 14 13  1  0  0  0  0
 15 14  1  6  0  0  0
 16 18  1  6  0  0  0
 16 15  1  0  0  0  0
 17 16  1  0  0  0  0
 17 15  1  0  0  0  0
 19 18  2  0  0  0  0
 20 21  1  6  0  0  0
 20 18  1  0  0  0  0
 20 23  1  0  0  0  0
 22 23  2  0  0  0  0
 23 24  1  0  0  0  0
 25  5  1  0  0  0  0
 26 28  1  0  0  0  0
 26 25  1  0  0  0  0
 27 26  2  0  0  0  0
 28 29  1  6  0  0  0
 28 31  1  0  0  0  0
 31 30  1  0  0  0  0
 32 31  2  0  0  0  0
 33 34  1  0  0  0  0
 34 35  1  0  0  0  0
 35 36  1  0  0  0  0
 36 41  1  0  0  0  0
 37 38  1  0  0  0  0
 39 41  2  0  0  0  0
 39 42  1  0  0  0  0
 40 38  2  0  0  0  0
 41 40  1  0  0  0  0
 42 37  2  0  0  0  0
 43 45  1  0  0  0  0
 43 46  2  0  0  0  0
 45 42  1  0  0  0  0
 45 44  1  0  0  0  0
 47 49  2  0  0  0  0
 48 47  1  0  0  0  0
 49 43  1  0  0  0  0
 50 52  2  0  0  0  0
 51 50  1  0  0  0  0
 51 48  1  0  0  0  0
 52 49  1  0  0  0  0
M  END
>  <MODEL>
4

>  <REMARK>
 VINA RESULT:      -7.5      3.925     10.540
  Name = 
  18 active torsions:
  status: ('A' for Active; 'I' for Inactive)
    1  A    between atoms: S_1  and  N_11
    2  A    between atoms: S_1  and  O_21
    3  A    between atoms: C_3  and  O_47
    4  A    between atoms: C_9  and  C_32
    5  A    between atoms: C_12  and  C_38
    6  A    between atoms: C_13  and  C_18
    7  A    between atoms: C_14  and  O_30
    8  A    between atoms: C_17  and  C_18
    9  A    between atoms: C_17  and  C_25
   10  A    between atoms: C_19  and  C_34
   11  A    between atoms: C_19  and  C_43
   12  A    between atoms: O_21  and  O_47
   13  A    between atoms: C_22  and  C_52
   14  A    between atoms: N_29  and  C_40
   15  A    between atoms: O_30  and  C_43
   16  A    between atoms: C_38  and  C_41
   17  A    between atoms: C_41  and  N_49
   18  A    between atoms: N_49  and  C_52
                            x       y       z     vdW  Elec       q    Type
                         _______ _______ _______ _____ _____    ______ ____

>  <TORSDO>
F 18

$$$$
=
 OpenBabel10232411413D

 52 57  0  0  1  0  0  0  0  0999 V2000
  187.3080  177.3660  143.3870 C   0  0  0  0  0  3  0  0  0  0  0  0
  185.4330  179.7710  141.8590 O   0  0  0  0  0  0  0  0  0  0  0  0
  184.5780  178.8170  141.3180 N   0  0  0  0  0  0  0  0  0  0  0  0
  189.7060  177.9300  140.5960 C   0  0  2  0  0  3  0  0  0  0  0  0
  189.8220  177.1310  142.6930 C   0  0  0  0  0  0  0  0  0  0  0  0
  188.4560  177.5530  142.4920 C   0  0  0  0  0  0  0  0  0  0  0  0
  190.5380  177.3260  141.6360 N   0  0  0  0  0  0  0  0  0  0  0  0
  185.9460  178.5260  141.7010 C   0  0  2  0  0  0  0  0  0  0  0  0
  188.3650  178.0300  141.2620 C   0  0  0  0  0  0  0  0  0  0  0  0
  186.1030  177.8140  143.0160 C   0  0  0  0  0  3  0  0  0  0  0  0
  187.0650  178.4490  140.6300 C   0  0  0  0  0  2  0  0  0  0  0  0
  184.3920  179.2500  139.6080 S   0  0  0  0  0  0  0  0  0  0  0  0
  183.8500  177.6740  139.1950 O   0  0  0  0  0  0  0  0  0  0  0  0
  184.7640  177.2070  138.3700 O   0  0  0  0  0  0  0  0  0  0  0  0
  184.1200  177.0860  137.1330 C   0  0  1  0  0  3  0  0  0  0  0  0
  185.0310  176.7750  135.9850 C   0  0  2  0  0  3  0  0  0  0  0  0
  184.2930  175.7760  136.6510 O   0  0  0  0  0  0  0  0  0  0  0  0
  186.5090  176.5700  136.2470 C   0  0  0  0  0  0  0  0  0  0  0  0
  186.9210  175.7000  136.9990 O   0  0  0  0  0  0  0  0  0  0  0  0
  187.4760  177.5030  135.5860 C   0  0  2  0  0  3  0  0  0  0  0  0
  188.6110  176.7660  135.0530 N   0  0  0  0  0  1  0  0  0  0  0  0
  187.1360  179.1350  137.2490 O   0  0  0  0  0  0  0  0  0  0  0  0
  187.9450  178.5580  136.5400 C   0  0  0  0  0  0  0  0  0  0  0  0
  189.2660  178.8660  136.6330 F   0  0  0  0  0  0  0  0  0  0  0  0
  190.3360  176.6280  143.8910 O   0  0  0  0  0  0  0  0  0  0  0  0
  191.0440  177.4030  144.8140 C   0  0  0  0  0  0  0  0  0  0  0  0
  191.9430  178.1870  144.3950 O   0  0  0  0  0  0  0  0  0  0  0  0
  190.6940  177.3490  146.2740 C   0  0  1  0  0  3  0  0  0  0  0  0
  189.2500  176.9110  146.4720 C   0  0  0  0  0  1  0  0  0  0  0  0
  192.2280  175.3190  146.4620 N   0  0  0  0  0  1  0  0  0  0  0  0
  191.6700  176.4970  147.0390 C   0  0  0  0  0  0  0  0  0  0  0  0
  192.1020  176.9010  148.1530 O   0  0  0  0  0  0  0  0  0  0  0  0
  189.6440  177.0290  139.3730 C   0  0  0  0  0  2  0  0  0  0  0  0
  191.0390  176.5220  139.0290 C   0  0  0  0  0  2  0  0  0  0  0  0
  191.1350  176.2840  137.5970 N   0  0  0  0  0  2  0  0  0  0  0  0
  190.7960  174.8880  137.3810 C   0  0  0  0  0  2  0  0  0  0  0  0
  194.1130  172.8030  135.6210 C   0  0  0  0  0  3  0  0  0  0  0  0
  192.9620  173.0510  134.8610 C   0  0  0  0  0  3  0  0  0  0  0  0
  193.0960  173.9190  137.5180 C   0  0  0  0  0  3  0  0  0  0  0  0
  191.8790  173.7320  135.4300 C   0  0  0  0  0  3  0  0  0  0  0  0
  191.9470  174.1700  136.7590 C   0  0  0  0  0  0  0  0  0  0  0  0
  194.1820  173.2360  136.9510 C   0  0  0  0  0  0  0  0  0  0  0  0
  196.4050  172.1700  137.1900 C   0  0  0  0  0  0  0  0  0  0  0  0
  195.3950  173.3590  139.0220 O   0  0  0  0  0  1  0  0  0  0  0  0
  195.3570  172.9830  137.7230 N   0  0  0  0  0  0  0  0  0  0  0  0
  197.2270  172.6770  136.3790 O   0  0  0  0  0  0  0  0  0  0  0  0
  195.4380  170.0970  138.0480 C   0  0  0  0  0  3  0  0  0  0  0  0
  195.5120  168.6510  138.4530 C   0  0  0  0  0  2  0  0  0  0  0  0
  196.5010  170.7460  137.5550 C   0  0  0  0  0  0  0  0  0  0  0  0
  197.9460  168.8400  137.9920 C   0  0  0  0  0  3  0  0  0  0  0  0
  196.8670  168.2240  138.6410 O   0  0  0  0  0  0  0  0  0  0  0  0
  197.7970  170.0480  137.4510 C   0  0  0  0  0  3  0  0  0  0  0  0
  3  8  1  0  0  0  0
  3  2  1  0  0  0  0
  4 33  1  6  0  0  0
  4  9  1  0  0  0  0
  4  7  1  0  0  0  0
  5 25  1  0  0  0  0
  6  5  1  0  0  0  0
  6  1  1  0  0  0  0
  7  5  2  0  0  0  0
  8 11  1  6  0  0  0
  8  2  1  0  0  0  0
  8 10  1  0  0  0  0
  9  6  2  0  0  0  0
 10  1  2  0  0  0  0
 11  9  1  0  0  0  0
 12  3  1  0  0  0  0
 13 12  1  0  0  0  0
 14 13  1  0  0  0  0
 15 14  1  1  0  0  0
 16 18  1  1  0  0  0
 16 17  1  0  0  0  0
 16 15  1  0  0  0  0
 17 15  1  0  0  0  0
 18 19  2  0  0  0  0
 20 21  1  1  0  0  0
 20 18  1  0  0  0  0
 20 23  1  0  0  0  0
 23 24  1  0  0  0  0
 23 22  2  0  0  0  0
 25 26  1  0  0  0  0
 26 28  1  0  0  0  0
 27 26  2  0  0  0  0
 28 29  1  6  0  0  0
 28 31  1  0  0  0  0
 30 31  1  0  0  0  0
 31 32  2  0  0  0  0
 34 33  1  0  0  0  0
 35 34  1  0  0  0  0
 36 35  1  0  0  0  0
 37 42  1  0  0  0  0
 38 40  1  0  0  0  0
 38 37  2  0  0  0  0
 40 41  2  0  0  0  0
 41 36  1  0  0  0  0
 41 39  1  0  0  0  0
 42 39  2  0  0  0  0
 42 45  1  0  0  0  0
 43 49  1  0  0  0  0
 43 45  1  0  0  0  0
 45 44  1  0  0  0  0
 46 43  2  0  0  0  0
 47 48  1  0  0  0  0
 48 51  1  0  0  0  0
 49 47  2  0  0  0  0
 50 51  1  0  0  0  0
 52 49  1  0  0  0  0
 52 50  2  0  0  0  0
M  END
>  <MODEL>
5

>  <REMARK>
 VINA RESULT:      -7.3      3.580     10.326
  Name = 
  18 active torsions:
  status: ('A' for Active; 'I' for Inactive)
    1  A    between atoms: S_1  and  N_11
    2  A    between atoms: S_1  and  O_21
    3  A    between atoms: C_3  and  O_47
    4  A    between atoms: C_9  and  C_32
    5  A    between atoms: C_12  and  C_38
    6  A    between atoms: C_13  and  C_18
    7  A    between atoms: C_14  and  O_30
    8  A    between atoms: C_17  and  C_18
    9  A    between atoms: C_17  and  C_25
   10  A    between atoms: C_19  and  C_34
   11  A    between atoms: C_19  and  C_43
   12  A    between atoms: O_21  and  O_47
   13  A    between atoms: C_22  and  C_52
   14  A    between atoms: N_29  and  C_40
   15  A    between atoms: O_30  and  C_43
   16  A    between atoms: C_38  and  C_41
   17  A    between atoms: C_41  and  N_49
   18  A    between atoms: N_49  and  C_52
                            x       y       z     vdW  Elec       q    Type
                         _______ _______ _______ _____ _____    ______ ____

>  <TORSDO>
F 18

$$$$
=
 OpenBabel10232411413D

 52 57  0  0  1  0  0  0  0  0999 V2000
  191.5580  177.6710  142.5890 C   0  0  0  0  0  3  0  0  0  0  0  0
  190.6860  176.1640  139.6550 O   0  0  0  0  0  0  0  0  0  0  0  0
  190.4450  177.3930  139.0500 N   0  0  0  0  0  0  0  0  0  0  0  0
  188.1540  176.6800  143.7250 C   0  0  2  0  0  3  0  0  0  0  0  0
  190.1110  177.1700  144.7140 C   0  0  0  0  0  0  0  0  0  0  0  0
  190.3470  177.2270  143.2910 C   0  0  0  0  0  0  0  0  0  0  0  0
  188.8820  176.8730  144.9780 N   0  0  0  0  0  0  0  0  0  0  0  0
  190.3800  177.1920  140.4850 C   0  0  2  0  0  0  0  0  0  0  0  0
  189.2060  176.9400  142.6870 C   0  0  0  0  0  0  0  0  0  0  0  0
  191.5820  177.6710  141.2510 C   0  0  0  0  0  3  0  0  0  0  0  0
  189.0120  177.0250  141.1970 C   0  0  0  0  0  2  0  0  0  0  0  0
  188.8780  177.2290  138.2360 S   0  0  0  0  0  0  0  0  0  0  0  0
  189.6080  177.2160  136.6810 O   0  0  0  0  0  0  0  0  0  0  0  0
  189.9200  175.9540  136.4650 O   0  0  0  0  0  0  0  0  0  0  0  0
  190.7710  175.9680  135.3540 C   0  0  1  0  0  3  0  0  0  0  0  0
  192.1000  175.3140  135.5790 C   0  0  2  0  0  3  0  0  0  0  0  0
  191.0280  174.6440  134.9540 O   0  0  0  0  0  0  0  0  0  0  0  0
  192.3880  174.6660  136.9180 C   0  0  0  0  0  0  0  0  0  0  0  0
  191.6830  173.7810  137.3770 O   0  0  0  0  0  0  0  0  0  0  0  0
  193.5570  175.1730  137.7060 C   0  0  2  0  0  3  0  0  0  0  0  0
  193.5560  176.6270  137.7390 N   0  0  0  0  0  1  0  0  0  0  0  0
  195.7980  175.4250  137.0320 O   0  0  0  0  0  0  0  0  0  0  0  0
  194.8480  174.6670  137.1410 C   0  0  0  0  0  0  0  0  0  0  0  0
  194.9740  173.3670  136.7650 F   0  0  0  0  0  0  0  0  0  0  0  0
  191.0890  177.3500  145.6950 O   0  0  0  0  0  0  0  0  0  0  0  0
  190.9570  176.9010  147.0120 C   0  0  0  0  0  0  0  0  0  0  0  0
  190.1160  177.4630  147.7700 O   0  0  0  0  0  0  0  0  0  0  0  0
  191.7560  175.7250  147.4940 C   0  0  1  0  0  3  0  0  0  0  0  0
  192.2330  174.8740  146.3260 C   0  0  0  0  0  1  0  0  0  0  0  0
  192.7360  177.2790  149.2640 N   0  0  0  0  0  1  0  0  0  0  0  0
  192.8810  176.1600  148.3920 C   0  0  0  0  0  0  0  0  0  0  0  0
  193.9190  175.4470  148.4750 O   0  0  0  0  0  0  0  0  0  0  0  0
  187.0140  177.6810  143.6110 C   0  0  0  0  0  2  0  0  0  0  0  0
  186.3920  177.9180  144.9810 C   0  0  0  0  0  2  0  0  0  0  0  0
  185.2010  178.7420  144.8430 N   0  0  0  0  0  2  0  0  0  0  0  0
  185.0100  178.9680  143.4210 C   0  0  0  0  0  2  0  0  0  0  0  0
  180.8660  178.5250  142.3830 C   0  0  0  0  0  3  0  0  0  0  0  0
  181.2320  178.7390  143.7180 C   0  0  0  0  0  3  0  0  0  0  0  0
  183.2010  178.6080  141.7340 C   0  0  0  0  0  3  0  0  0  0  0  0
  182.5820  178.8860  144.0620 C   0  0  0  0  0  3  0  0  0  0  0  0
  183.5680  178.8240  143.0670 C   0  0  0  0  0  0  0  0  0  0  0  0
  181.8500  178.4590  141.3890 C   0  0  0  0  0  0  0  0  0  0  0  0
  181.7010  176.9720  139.4130 C   0  0  0  0  0  0  0  0  0  0  0  0
  181.0760  179.2920  139.2700 O   0  0  0  0  0  1  0  0  0  0  0  0
  181.4750  178.2430  140.0270 N   0  0  0  0  0  0  0  0  0  0  0  0
  180.8930  176.0290  139.6300 O   0  0  0  0  0  0  0  0  0  0  0  0
  183.1920  175.5290  138.1240 C   0  0  0  0  0  3  0  0  0  0  0  0
  184.4100  175.2730  137.2790 C   0  0  0  0  0  2  0  0  0  0  0  0
  182.8870  176.7560  138.5660 C   0  0  0  0  0  0  0  0  0  0  0  0
  184.9750  177.6550  137.7030 C   0  0  0  0  0  3  0  0  0  0  0  0
  185.3560  176.3460  137.3760 O   0  0  0  0  0  0  0  0  0  0  0  0
  183.7900  177.8840  138.2670 C   0  0  0  0  0  3  0  0  0  0  0  0
  1  6  1  0  0  0  0
  2  8  1  0  0  0  0
  3  2  1  0  0  0  0
  3  8  1  0  0  0  0
  4 33  1  6  0  0  0
  4  7  1  0  0  0  0
  5  7  2  0  0  0  0
  5 25  1  0  0  0  0
  6  5  1  0  0  0  0
  8 11  1  1  0  0  0
  8 10  1  0  0  0  0
  9  6  2  0  0  0  0
  9  4  1  0  0  0  0
 10  1  2  0  0  0  0
 11  9  1  0  0  0  0
 12  3  1  0  0  0  0
 13 12  1  0  0  0  0
 14 13  1  0  0  0  0
 15 16  1  0  0  0  0
 15 14  1  1  0  0  0
 16 18  1  1  0  0  0
 17 15  1  0  0  0  0
 17 16  1  0  0  0  0
 18 19  2  0  0  0  0
 18 20  1  0  0  0  0
 20 21  1  6  0  0  0
 22 23  2  0  0  0  0
 23 20  1  0  0  0  0
 24 23  1  0  0  0  0
 25 26  1  0  0  0  0
 26 28  1  0  0  0  0
 26 27  2  0  0  0  0
 28 29  1  6  0  0  0
 28 31  1  0  0  0  0
 31 32  2  0  0  0  0
 31 30  1  0  0  0  0
 33 34  1  0  0  0  0
 35 34  1  0  0  0  0
 36 35  1  0  0  0  0
 37 38  1  0  0  0  0
 38 40  2  0  0  0  0
 39 41  2  0  0  0  0
 41 36  1  0  0  0  0
 41 40  1  0  0  0  0
 42 39  1  0  0  0  0
 42 37  2  0  0  0  0
 43 46  2  0  0  0  0
 43 45  1  0  0  0  0
 44 45  1  0  0  0  0
 45 42  1  0  0  0  0
 47 49  2  0  0  0  0
 48 51  1  0  0  0  0
 48 47  1  0  0  0  0
 49 43  1  0  0  0  0
 50 52  2  0  0  0  0
 51 50  1  0  0  0  0
 52 49  1  0  0  0  0
M  END
>  <MODEL>
6

>  <REMARK>
 VINA RESULT:      -7.3      2.958      5.607
  Name = 
  18 active torsions:
  status: ('A' for Active; 'I' for Inactive)
    1  A    between atoms: S_1  and  N_11
    2  A    between atoms: S_1  and  O_21
    3  A    between atoms: C_3  and  O_47
    4  A    between atoms: C_9  and  C_32
    5  A    between atoms: C_12  and  C_38
    6  A    between atoms: C_13  and  C_18
    7  A    between atoms: C_14  and  O_30
    8  A    between atoms: C_17  and  C_18
    9  A    between atoms: C_17  and  C_25
   10  A    between atoms: C_19  and  C_34
   11  A    between atoms: C_19  and  C_43
   12  A    between atoms: O_21  and  O_47
   13  A    between atoms: C_22  and  C_52
   14  A    between atoms: N_29  and  C_40
   15  A    between atoms: O_30  and  C_43
   16  A    between atoms: C_38  and  C_41
   17  A    between atoms: C_41  and  N_49
   18  A    between atoms: N_49  and  C_52
                            x       y       z     vdW  Elec       q    Type
                         _______ _______ _______ _____ _____    ______ ____

>  <TORSDO>
F 18

$$$$
=
 OpenBabel10232411413D

 52 57  0  0  1  0  0  0  0  0999 V2000
  190.6780  176.0630  135.5710 C   0  0  0  0  0  3  0  0  0  0  0  0
  187.8470  174.2120  136.0150 O   0  0  0  0  0  0  0  0  0  0  0  0
  187.0390  175.2930  135.6800 N   0  0  0  0  0  0  0  0  0  0  0  0
  190.7350  176.2600  139.2880 C   0  0  2  0  0  3  0  0  0  0  0  0
  192.2450  176.4400  137.6340 C   0  0  0  0  0  0  0  0  0  0  0  0
  190.9880  176.1140  137.0040 C   0  0  0  0  0  0  0  0  0  0  0  0
  192.1220  176.5350  138.9160 N   0  0  0  0  0  0  0  0  0  0  0  0
  188.3840  175.4430  136.2020 C   0  0  2  0  0  0  0  0  0  0  0  0
  190.0830  176.0010  137.9620 C   0  0  0  0  0  0  0  0  0  0  0  0
  189.4370  175.7570  135.1750 C   0  0  0  0  0  3  0  0  0  0  0  0
  188.6150  175.7960  137.6940 C   0  0  0  0  0  2  0  0  0  0  0  0
  185.7790  175.3580  136.9260 S   0  0  0  0  0  0  0  0  0  0  0  0
  185.2730  176.9230  136.4330 O   0  0  0  0  0  0  0  0  0  0  0  0
  184.4770  177.3400  137.3960 O   0  0  0  0  0  0  0  0  0  0  0  0
  183.2270  176.7760  137.1150 C   0  0  1  0  0  3  0  0  0  0  0  0
  182.2280  176.8920  138.2260 C   0  0  2  0  0  3  0  0  0  0  0  0
  182.2500  177.7880  137.1370 O   0  0  0  0  0  0  0  0  0  0  0  0
  182.6120  177.6280  139.4930 C   0  0  0  0  0  0  0  0  0  0  0  0
  183.2500  177.0930  140.3870 O   0  0  0  0  0  0  0  0  0  0  0  0
  182.1470  179.0430  139.6520 C   0  0  2  0  0  3  0  0  0  0  0  0
  183.2840  179.9470  139.7250 N   0  0  0  0  0  1  0  0  0  0  0  0
  180.2920  179.9000  140.8230 O   0  0  0  0  0  0  0  0  0  0  0  0
  181.2860  179.1930  140.8680 C   0  0  0  0  0  0  0  0  0  0  0  0
  181.5950  178.5360  142.0170 F   0  0  0  0  0  0  0  0  0  0  0  0
  193.4640  176.5790  136.9640 O   0  0  0  0  0  0  0  0  0  0  0  0
  194.4210  175.5640  136.8790 C   0  0  0  0  0  0  0  0  0  0  0  0
  195.5290  175.8110  136.3230 O   0  0  0  0  0  0  0  0  0  0  0  0
  194.1570  174.2220  137.4990 C   0  0  1  0  0  3  0  0  0  0  0  0
  194.0450  173.1420  136.4330 C   0  0  0  0  0  1  0  0  0  0  0  0
  195.9100  174.9260  139.2130 N   0  0  0  0  0  1  0  0  0  0  0  0
  195.1790  173.8960  138.5520 C   0  0  0  0  0  0  0  0  0  0  0  0
  195.2980  172.7050  138.9510 O   0  0  0  0  0  0  0  0  0  0  0  0
  190.1170  177.4670  139.9760 C   0  0  0  0  0  2  0  0  0  0  0  0
  189.6310  177.0820  141.3660 C   0  0  0  0  0  2  0  0  0  0  0  0
  190.1590  178.0170  142.3480 N   0  0  0  0  0  2  0  0  0  0  0  0
  191.1490  177.2920  143.1270 C   0  0  0  0  0  2  0  0  0  0  0  0
  189.8240  176.9340  147.1960 C   0  0  0  0  0  3  0  0  0  0  0  0
  191.1280  176.5550  146.8510 C   0  0  0  0  0  3  0  0  0  0  0  0
  189.3960  177.5490  144.8900 C   0  0  0  0  0  3  0  0  0  0  0  0
  191.5650  176.6710  145.5250 C   0  0  0  0  0  3  0  0  0  0  0  0
  190.6990  177.1730  144.5440 C   0  0  0  0  0  0  0  0  0  0  0  0
  188.9560  177.4310  146.2160 C   0  0  0  0  0  0  0  0  0  0  0  0
  186.5130  177.3410  145.8150 C   0  0  0  0  0  0  0  0  0  0  0  0
  187.4400  178.7810  147.5050 O   0  0  0  0  0  1  0  0  0  0  0  0
  187.6280  177.8190  146.5710 N   0  0  0  0  0  0  0  0  0  0  0  0
  186.0730  176.1790  146.0330 O   0  0  0  0  0  0  0  0  0  0  0  0
  184.8590  178.9640  145.0420 C   0  0  0  0  0  3  0  0  0  0  0  0
  184.2060  179.8120  143.9860 C   0  0  0  0  0  2  0  0  0  0  0  0
  185.9100  178.1800  144.7650 C   0  0  0  0  0  0  0  0  0  0  0  0
  185.7330  178.6730  142.3910 C   0  0  0  0  0  3  0  0  0  0  0  0
  184.5480  179.3690  142.6660 O   0  0  0  0  0  0  0  0  0  0  0  0
  186.4150  178.1000  143.3810 C   0  0  0  0  0  3  0  0  0  0  0  0
  1  6  1  0  0  0  0
  2  8  1  0  0  0  0
  3  2  1  0  0  0  0
  3  8  1  0  0  0  0
  3 12  1  0  0  0  0
  4 33  1  6  0  0  0
  5  7  2  0  0  0  0
  6  5  1  0  0  0  0
  6  9  2  0  0  0  0
  7  4  1  0  0  0  0
  8 10  1  6  0  0  0
  8 11  1  0  0  0  0
  9  4  1  0  0  0  0
 10  1  2  0  0  0  0
 11  9  1  0  0  0  0
 13 12  1  0  0  0  0
 13 14  1  0  0  0  0
 15 17  1  0  0  0  0
 15 14  1  1  0  0  0
 15 16  1  0  0  0  0
 16 18  1  1  0  0  0
 17 16  1  0  0  0  0
 18 20  1  0  0  0  0
 18 19  2  0  0  0  0
 20 21  1  1  0  0  0
 20 23  1  0  0  0  0
 22 23  2  0  0  0  0
 23 24  1  0  0  0  0
 25  5  1  0  0  0  0
 26 25  1  0  0  0  0
 26 28  1  0  0  0  0
 27 26  2  0  0  0  0
 28 29  1  6  0  0  0
 28 31  1  0  0  0  0
 31 32  2  0  0  0  0
 31 30  1  0  0  0  0
 33 34  1  0  0  0  0
 34 35  1  0  0  0  0
 35 36  1  0  0  0  0
 36 41  1  0  0  0  0
 38 37  1  0  0  0  0
 39 42  1  0  0  0  0
 40 38  2  0  0  0  0
 41 39  2  0  0  0  0
 41 40  1  0  0  0  0
 42 45  1  0  0  0  0
 42 37  2  0  0  0  0
 43 46  2  0  0  0  0
 43 45  1  0  0  0  0
 45 44  1  0  0  0  0
 48 47  1  0  0  0  0
 49 47  2  0  0  0  0
 49 43  1  0  0  0  0
 50 51  1  0  0  0  0
 50 52  2  0  0  0  0
 51 48  1  0  0  0  0
 52 49  1  0  0  0  0
M  END
>  <MODEL>
7

>  <REMARK>
 VINA RESULT:      -7.1      3.323      9.566
  Name = 
  18 active torsions:
  status: ('A' for Active; 'I' for Inactive)
    1  A    between atoms: S_1  and  N_11
    2  A    between atoms: S_1  and  O_21
    3  A    between atoms: C_3  and  O_47
    4  A    between atoms: C_9  and  C_32
    5  A    between atoms: C_12  and  C_38
    6  A    between atoms: C_13  and  C_18
    7  A    between atoms: C_14  and  O_30
    8  A    between atoms: C_17  and  C_18
    9  A    between atoms: C_17  and  C_25
   10  A    between atoms: C_19  and  C_34
   11  A    between atoms: C_19  and  C_43
   12  A    between atoms: O_21  and  O_47
   13  A    between atoms: C_22  and  C_52
   14  A    between atoms: N_29  and  C_40
   15  A    between atoms: O_30  and  C_43
   16  A    between atoms: C_38  and  C_41
   17  A    between atoms: C_41  and  N_49
   18  A    between atoms: N_49  and  C_52
                            x       y       z     vdW  Elec       q    Type
                         _______ _______ _______ _____ _____    ______ ____

>  <TORSDO>
F 18

$$$$
=
 OpenBabel10232411413D

 52 57  0  0  1  0  0  0  0  0999 V2000
  189.8480  176.9290  139.4550 C   0  0  0  0  0  3  0  0  0  0  0  0
  187.9970  179.3620  140.9680 O   0  0  0  0  0  0  0  0  0  0  0  0
  187.2600  178.4170  141.6750 N   0  0  0  0  0  0  0  0  0  0  0  0
  187.6680  177.5650  136.5070 C   0  0  2  0  0  3  0  0  0  0  0  0
  189.7210  176.7180  136.8490 C   0  0  0  0  0  0  0  0  0  0  0  0
  189.2330  177.1400  138.1400 C   0  0  0  0  0  0  0  0  0  0  0  0
  188.8520  176.9400  135.9190 N   0  0  0  0  0  0  0  0  0  0  0  0
  187.9290  178.1220  140.4220 C   0  0  2  0  0  0  0  0  0  0  0  0
  188.0230  177.6440  137.9620 C   0  0  0  0  0  0  0  0  0  0  0  0
  189.2310  177.3800  140.5530 C   0  0  0  0  0  3  0  0  0  0  0  0
  187.1300  178.0740  139.0940 C   0  0  0  0  0  2  0  0  0  0  0  0
  185.5610  178.8890  141.4830 S   0  0  0  0  0  0  0  0  0  0  0  0
  185.1600  178.3510  143.0640 O   0  0  0  0  0  0  0  0  0  0  0  0
  186.2670  178.5000  143.7630 O   0  0  0  0  0  0  0  0  0  0  0  0
  186.0110  177.8900  144.9960 C   0  0  1  0  0  3  0  0  0  0  0  0
  187.1400  177.0590  145.5260 C   0  0  2  0  0  3  0  0  0  0  0  0
  186.9180  178.3850  145.9510 O   0  0  0  0  0  0  0  0  0  0  0  0
  188.4370  176.9890  144.7460 C   0  0  0  0  0  0  0  0  0  0  0  0
  188.6050  176.1960  143.8320 O   0  0  0  0  0  0  0  0  0  0  0  0
  189.5520  177.9030  145.1530 C   0  0  2  0  0  3  0  0  0  0  0  0
  190.2410  178.4190  143.9810 N   0  0  0  0  0  1  0  0  0  0  0  0
  191.7150  177.2680  145.8300 O   0  0  0  0  0  0  0  0  0  0  0  0
  190.5190  177.2040  146.0580 C   0  0  0  0  0  0  0  0  0  0  0  0
  190.0730  176.5120  147.1400 F   0  0  0  0  0  0  0  0  0  0  0  0
  190.9920  176.1900  136.6070 O   0  0  0  0  0  0  0  0  0  0  0  0
  191.4280  174.9620  137.1090 C   0  0  0  0  0  0  0  0  0  0  0  0
  190.6760  173.9510  136.9970 O   0  0  0  0  0  0  0  0  0  0  0  0
  192.7970  174.8350  137.7150 C   0  0  1  0  0  3  0  0  0  0  0  0
  193.6260  173.7970  136.9730 C   0  0  0  0  0  1  0  0  0  0  0  0
  193.4760  176.9220  139.0140 N   0  0  0  0  0  1  0  0  0  0  0  0
  193.4810  176.1700  137.8030 C   0  0  0  0  0  0  0  0  0  0  0  0
  194.1830  176.5720  136.8340 O   0  0  0  0  0  0  0  0  0  0  0  0
  186.4420  176.6920  136.2890 C   0  0  0  0  0  2  0  0  0  0  0  0
  186.7360  175.6360  135.2310 C   0  0  0  0  0  2  0  0  0  0  0  0
  186.8230  174.3250  135.8570 N   0  0  0  0  0  2  0  0  0  0  0  0
  186.1340  174.4220  137.1320 C   0  0  0  0  0  2  0  0  0  0  0  0
  182.4330  172.2510  136.9740 C   0  0  0  0  0  3  0  0  0  0  0  0
  183.6340  171.6060  136.6520 C   0  0  0  0  0  3  0  0  0  0  0  0
  183.6530  174.3020  137.4020 C   0  0  0  0  0  3  0  0  0  0  0  0
  184.8440  172.3090  136.7030 C   0  0  0  0  0  3  0  0  0  0  0  0
  184.8540  173.6590  137.0830 C   0  0  0  0  0  0  0  0  0  0  0  0
  182.4400  173.6000  137.3490 C   0  0  0  0  0  0  0  0  0  0  0  0
  181.0050  175.6190  137.3080 C   0  0  0  0  0  0  0  0  0  0  0  0
  180.3300  173.6410  138.5010 O   0  0  0  0  0  1  0  0  0  0  0  0
  181.2140  174.2540  137.6800 N   0  0  0  0  0  0  0  0  0  0  0  0
  180.6600  175.8900  136.1260 O   0  0  0  0  0  0  0  0  0  0  0  0
  182.2910  177.5080  138.1710 C   0  0  0  0  0  3  0  0  0  0  0  0
  182.5600  178.6030  139.1660 C   0  0  0  0  0  2  0  0  0  0  0  0
  181.2300  176.6990  138.2840 C   0  0  0  0  0  0  0  0  0  0  0  0
  180.6500  177.6580  140.4420 C   0  0  0  0  0  3  0  0  0  0  0  0
  181.8400  178.3950  140.3880 O   0  0  0  0  0  0  0  0  0  0  0  0
  180.3240  176.8420  139.4400 C   0  0  0  0  0  3  0  0  0  0  0  0
  1 10  2  0  0  0  0
  2  3  1  0  0  0  0
  4 33  1  1  0  0  0
  4  9  1  0  0  0  0
  5  6  1  0  0  0  0
  6  1  1  0  0  0  0
  7  4  1  0  0  0  0
  7  5  2  0  0  0  0
  8 11  1  6  0  0  0
  8 10  1  0  0  0  0
  8  2  1  0  0  0  0
  8  3  1  0  0  0  0
  9  6  2  0  0  0  0
  9 11  1  0  0  0  0
 12  3  1  0  0  0  0
 12 13  1  0  0  0  0
 13 14  1  0  0  0  0
 15 14  1  6  0  0  0
 15 16  1  0  0  0  0
 15 17  1  0  0  0  0
 16 18  1  6  0  0  0
 16 17  1  0  0  0  0
 18 20  1  0  0  0  0
 19 18  2  0  0  0  0
 20 21  1  6  0  0  0
 20 23  1  0  0  0  0
 22 23  2  0  0  0  0
 23 24  1  0  0  0  0
 25  5  1  0  0  0  0
 25 26  1  0  0  0  0
 26 28  1  0  0  0  0
 27 26  2  0  0  0  0
 28 29  1  6  0  0  0
 28 31  1  0  0  0  0
 31 30  1  0  0  0  0
 32 31  2  0  0  0  0
 34 35  1  0  0  0  0
 34 33  1  0  0  0  0
 35 36  1  0  0  0  0
 37 42  1  0  0  0  0
 38 40  1  0  0  0  0
 38 37  2  0  0  0  0
 40 41  2  0  0  0  0
 41 36  1  0  0  0  0
 41 39  1  0  0  0  0
 42 39  2  0  0  0  0
 42 45  1  0  0  0  0
 43 45  1  0  0  0  0
 43 49  1  0  0  0  0
 45 44  1  0  0  0  0
 46 43  2  0  0  0  0
 47 49  2  0  0  0  0
 47 48  1  0  0  0  0
 48 51  1  0  0  0  0
 49 52  1  0  0  0  0
 51 50  1  0  0  0  0
 52 50  2  0  0  0  0
M  END
>  <MODEL>
8

>  <REMARK>
 VINA RESULT:      -7.1      3.353      7.605
  Name = 
  18 active torsions:
  status: ('A' for Active; 'I' for Inactive)
    1  A    between atoms: S_1  and  N_11
    2  A    between atoms: S_1  and  O_21
    3  A    between atoms: C_3  and  O_47
    4  A    between atoms: C_9  and  C_32
    5  A    between atoms: C_12  and  C_38
    6  A    between atoms: C_13  and  C_18
    7  A    between atoms: C_14  and  O_30
    8  A    between atoms: C_17  and  C_18
    9  A    between atoms: C_17  and  C_25
   10  A    between atoms: C_19  and  C_34
   11  A    between atoms: C_19  and  C_43
   12  A    between atoms: O_21  and  O_47
   13  A    between atoms: C_22  and  C_52
   14  A    between atoms: N_29  and  C_40
   15  A    between atoms: O_30  and  C_43
   16  A    between atoms: C_38  and  C_41
   17  A    between atoms: C_41  and  N_49
   18  A    between atoms: N_49  and  C_52
                            x       y       z     vdW  Elec       q    Type
                         _______ _______ _______ _____ _____    ______ ____

>  <TORSDO>
F 18

$$$$
=
 OpenBabel10232411413D

 52 57  0  0  1  0  0  0  0  0999 V2000
  191.2610  177.7170  141.8170 C   0  0  0  0  0  3  0  0  0  0  0  0
  190.6650  175.7670  139.0820 O   0  0  0  0  0  0  0  0  0  0  0  0
  190.8180  176.8520  138.2250 N   0  0  0  0  0  0  0  0  0  0  0  0
  187.5700  177.6100  142.2850 C   0  0  2  0  0  3  0  0  0  0  0  0
  189.3580  177.9620  143.5990 C   0  0  0  0  0  0  0  0  0  0  0  0
  189.8710  177.6580  142.2840 C   0  0  0  0  0  0  0  0  0  0  0  0
  188.0670  177.9490  143.6180 N   0  0  0  0  0  0  0  0  0  0  0  0
  190.4360  176.9910  139.6170 C   0  0  2  0  0  0  0  0  0  0  0  0
  188.8330  177.4450  141.4930 C   0  0  0  0  0  0  0  0  0  0  0  0
  191.5420  177.4140  140.5440 C   0  0  0  0  0  3  0  0  0  0  0  0
  188.9540  177.2270  140.0080 C   0  0  0  0  0  2  0  0  0  0  0  0
  189.4400  176.7830  137.1110 S   0  0  0  0  0  0  0  0  0  0  0  0
  190.4580  176.9080  135.7330 O   0  0  0  0  0  0  0  0  0  0  0  0
  191.3700  175.9710  135.8990 O   0  0  0  0  0  0  0  0  0  0  0  0
  192.0680  175.9140  134.6880 C   0  0  1  0  0  3  0  0  0  0  0  0
  193.5600  175.9010  134.8300 C   0  0  2  0  0  3  0  0  0  0  0  0
  192.8120  174.7210  134.6420 O   0  0  0  0  0  0  0  0  0  0  0  0
  194.1710  175.8950  136.2170 C   0  0  0  0  0  0  0  0  0  0  0  0
  194.2400  176.9050  136.9010 O   0  0  0  0  0  0  0  0  0  0  0  0
  194.7440  174.6090  136.7260 C   0  0  2  0  0  3  0  0  0  0  0  0
  194.2740  174.3420  138.0770 N   0  0  0  0  0  1  0  0  0  0  0  0
  196.8590  175.0760  137.6500 O   0  0  0  0  0  0  0  0  0  0  0  0
  196.2410  174.6350  136.6940 C   0  0  0  0  0  0  0  0  0  0  0  0
  196.9160  174.1580  135.6150 F   0  0  0  0  0  0  0  0  0  0  0  0
  190.1440  178.1860  144.7330 O   0  0  0  0  0  0  0  0  0  0  0  0
  190.8310  177.1740  145.4090 C   0  0  0  0  0  0  0  0  0  0  0  0
  191.9770  176.8310  144.9990 O   0  0  0  0  0  0  0  0  0  0  0  0
  190.2410  176.5530  146.6420 C   0  0  1  0  0  3  0  0  0  0  0  0
  191.3330  176.0730  147.5870 C   0  0  0  0  0  1  0  0  0  0  0  0
  187.8650  177.3870  147.0500 N   0  0  0  0  0  1  0  0  0  0  0  0
  189.2640  177.4820  147.3080 C   0  0  0  0  0  0  0  0  0  0  0  0
  189.6710  178.2670  148.2080 O   0  0  0  0  0  0  0  0  0  0  0  0
  186.7190  178.7420  141.7300 C   0  0  0  0  0  2  0  0  0  0  0  0
  185.3840  178.7970  142.4600 C   0  0  0  0  0  2  0  0  0  0  0  0
  184.2960  178.6320  141.5080 N   0  0  0  0  0  2  0  0  0  0  0  0
  184.7970  179.0730  140.2180 C   0  0  0  0  0  2  0  0  0  0  0  0
  181.6790  178.8100  137.2770 C   0  0  0  0  0  3  0  0  0  0  0  0
  181.8030  179.9650  138.0610 C   0  0  0  0  0  3  0  0  0  0  0  0
  183.5900  177.8390  138.4110 C   0  0  0  0  0  3  0  0  0  0  0  0
  182.8190  180.0560  139.0210 C   0  0  0  0  0  3  0  0  0  0  0  0
  183.7170  178.9930  139.1930 C   0  0  0  0  0  0  0  0  0  0  0  0
  182.5720  177.7450  137.4510 C   0  0  0  0  0  0  0  0  0  0  0  0
  182.6180  175.2780  137.2360 C   0  0  0  0  0  0  0  0  0  0  0  0
  182.3420  176.6870  135.3050 O   0  0  0  0  0  1  0  0  0  0  0  0
  182.4440  176.5700  136.6490 N   0  0  0  0  0  0  0  0  0  0  0  0
  181.6670  174.7610  137.8820 O   0  0  0  0  0  0  0  0  0  0  0  0
  183.9860  173.2560  137.3410 C   0  0  0  0  0  3  0  0  0  0  0  0
  185.2920  172.5170  137.2560 C   0  0  0  0  0  2  0  0  0  0  0  0
  183.9080  174.5760  137.1200 C   0  0  0  0  0  0  0  0  0  0  0  0
  186.3280  174.7550  136.9610 C   0  0  0  0  0  3  0  0  0  0  0  0
  186.4110  173.4080  137.3390 O   0  0  0  0  0  0  0  0  0  0  0  0
  185.1370  175.3410  136.8380 C   0  0  0  0  0  3  0  0  0  0  0  0
  1  6  1  0  0  0  0
  2  8  1  0  0  0  0
  3  2  1  0  0  0  0
  3  8  1  0  0  0  0
  4 33  1  6  0  0  0
  4  7  1  0  0  0  0
  5  7  2  0  0  0  0
  5 25  1  0  0  0  0
  6  5  1  0  0  0  0
  8 11  1  1  0  0  0
  8 10  1  0  0  0  0
  9  6  2  0  0  0  0
  9  4  1  0  0  0  0
 10  1  2  0  0  0  0
 11  9  1  0  0  0  0
 12  3  1  0  0  0  0
 13 14  1  0  0  0  0
 13 12  1  0  0  0  0
 15 16  1  0  0  0  0
 15 14  1  1  0  0  0
 16 18  1  1  0  0  0
 17 15  1  0  0  0  0
 17 16  1  0  0  0  0
 18 20  1  0  0  0  0
 18 19  2  0  0  0  0
 20 21  1  1  0  0  0
 23 20  1  0  0  0  0
 23 22  2  0  0  0  0
 24 23  1  0  0  0  0
 25 26  1  0  0  0  0
 26 28  1  0  0  0  0
 27 26  2  0  0  0  0
 28 31  1  0  0  0  0
 28 29  1  1  0  0  0
 30 31  1  0  0  0  0
 31 32  2  0  0  0  0
 33 34  1  0  0  0  0
 35 34  1  0  0  0  0
 36 35  1  0  0  0  0
 37 42  2  0  0  0  0
 37 38  1  0  0  0  0
 38 40  2  0  0  0  0
 39 41  2  0  0  0  0
 40 41  1  0  0  0  0
 41 36  1  0  0  0  0
 42 39  1  0  0  0  0
 43 46  2  0  0  0  0
 44 45  1  0  0  0  0
 45 43  1  0  0  0  0
 45 42  1  0  0  0  0
 48 51  1  0  0  0  0
 48 47  1  0  0  0  0
 49 43  1  0  0  0  0
 49 47  2  0  0  0  0
 50 51  1  0  0  0  0
 52 50  2  0  0  0  0
 52 49  1  0  0  0  0
M  END
>  <MODEL>
9

>  <REMARK>
 VINA RESULT:      -6.9      2.912      4.946
  Name = 
  18 active torsions:
  status: ('A' for Active; 'I' for Inactive)
    1  A    between atoms: S_1  and  N_11
    2  A    between atoms: S_1  and  O_21
    3  A    between atoms: C_3  and  O_47
    4  A    between atoms: C_9  and  C_32
    5  A    between atoms: C_12  and  C_38
    6  A    between atoms: C_13  and  C_18
    7  A    between atoms: C_14  and  O_30
    8  A    between atoms: C_17  and  C_18
    9  A    between atoms: C_17  and  C_25
   10  A    between atoms: C_19  and  C_34
   11  A    between atoms: C_19  and  C_43
   12  A    between atoms: O_21  and  O_47
   13  A    between atoms: C_22  and  C_52
   14  A    between atoms: N_29  and  C_40
   15  A    between atoms: O_30  and  C_43
   16  A    between atoms: C_38  and  C_41
   17  A    between atoms: C_41  and  N_49
   18  A    between atoms: N_49  and  C_52
                            x       y       z     vdW  Elec       q    Type
                         _______ _______ _______ _____ _____    ______ ____

>  <TORSDO>
F 18

$$$$
