=
 OpenBabel10232407513D

 61 67  0  0  1  0  0  0  0  0999 V2000
  185.2630  176.2630  137.2560 C   0  0  1  0  0  3  0  0  0  0  0  0
  181.4590  177.3900  137.1420 S   0  0  0  0  0  0  0  0  0  0  0  0
  185.2270  174.7180  135.3250 N   0  0  0  0  0  0  0  0  0  0  0  0
  183.5310  176.4530  135.4830 C   0  0  1  0  0  3  0  0  0  0  0  0
  183.2270  177.4850  136.5900 C   0  0  2  0  0  3  0  0  0  0  0  0
  190.0800  176.9970  137.5960 C   0  0  0  0  0  2  0  0  0  0  0  0
  181.8690  174.7360  134.4490 C   0  0  0  0  0  3  0  0  0  0  0  0
  187.6540  174.5370  135.7290 C   0  0  0  0  0  3  0  0  0  0  0  0
  184.7420  175.7430  135.9640 C   0  0  0  0  0  0  0  0  0  0  0  0
  187.0950  177.1040  138.2160 C   0  0  0  0  0  2  0  0  0  0  0  0
  188.0160  178.3160  138.1930 C   0  0  2  0  0  3  0  0  0  0  0  0
  186.3960  177.0420  137.0070 O   0  0  0  0  0  0  0  0  0  0  0  0
  190.3520  175.7490  135.4370 C   0  0  0  0  0  2  0  0  0  0  0  0
  191.2030  173.5910  136.3200 C   0  0  0  0  0  3  0  0  0  0  0  0
  187.3590  171.7970  136.2180 C   0  0  0  0  0  3  0  0  0  0  0  0
  180.5670  174.6370  134.6700 O   0  0  0  0  0  0  0  0  0  0  0  0
  188.7930  173.7550  136.0000 C   0  0  0  0  0  0  0  0  0  0  0  0
  180.1750  175.3760  135.6730 N   0  0  0  0  0  0  0  0  0  0  0  0
  181.2920  175.9210  136.1730 C   0  0  0  0  0  0  0  0  0  0  0  0
  186.2370  172.5790  135.9390 C   0  0  0  0  0  0  0  0  0  0  0  0
  184.1350  177.1530  137.7710 C   0  0  0  0  0  2  0  0  0  0  0  0
  188.6250  172.3800  136.2480 C   0  0  0  0  0  3  0  0  0  0  0  0
  189.1410  178.1170  137.1810 C   0  0  0  0  0  2  0  0  0  0  0  0
  186.3760  173.9560  135.7100 C   0  0  0  0  0  0  0  0  0  0  0  0
  190.1570  174.3480  135.9630 C   0  0  0  0  0  0  0  0  0  0  0  0
  191.0220  176.6650  136.4560 C   0  0  0  0  0  2  0  0  0  0  0  0
  182.3510  175.5630  135.4390 C   0  0  0  0  0  0  0  0  0  0  0  0
  184.9830  171.9810  135.8940 O   0  0  0  0  0  1  0  0  0  0  0  0
  192.6290  174.0280  136.2540 C   0  0  0  0  0  2  0  0  0  0  0  0
  193.3930  173.1930  135.2370 C   0  0  0  0  0  2  0  0  0  0  0  0
  194.7010  173.8650  134.8340 C   0  0  0  0  0  2  0  0  0  0  0  0
  197.3200  174.3710  136.7020 C   0  0  1  0  0  3  0  0  0  0  0  0
  197.4350  173.9220  134.9640 S   0  0  0  0  0  0  0  0  0  0  0  0
  195.9030  172.9830  135.1520 C   0  0  1  0  0  3  0  0  0  0  0  0
  196.6150  173.2360  137.4310 C   0  0  2  0  0  3  0  0  0  0  0  0
  195.8010  172.4440  136.5060 N   0  0  0  0  0  2  0  0  0  0  0  0
  195.7560  173.7520  138.5880 C   0  0  0  0  0  0  0  0  0  0  0  0
  195.1500  174.9450  138.2360 F   0  0  0  0  0  0  0  0  0  0  0  0
  196.5590  173.9720  139.6930 F   0  0  0  0  0  0  0  0  0  0  0  0
  194.7800  172.8220  138.9130 F   0  0  0  0  0  0  0  0  0  0  0  0
  199.6980  174.5550  136.5230 O   0  0  0  0  0  0  0  0  0  0  0  0
  198.8210  174.8910  138.6600 N   0  0  0  0  0  2  0  0  0  0  0  0
  200.1190  175.1140  139.2740 C   0  0  0  0  0  1  0  0  0  0  0  0
  198.6820  174.6060  137.2690 C   0  0  0  0  0  0  0  0  0  0  0  0
  188.5670  178.5900  139.5140 N   0  0  0  0  0  2  0  0  0  0  0  0
  188.4920  176.1270  143.7380 O   0  0  0  0  0  1  0  0  0  0  0  0
  186.6970  178.8380  141.1000 C   0  0  0  0  0  3  0  0  0  0  0  0
  186.0790  178.5170  142.3080 C   0  0  0  0  0  3  0  0  0  0  0  0
  187.9020  177.0150  142.8460 C   0  0  0  0  0  0  0  0  0  0  0  0
  188.5220  177.3200  141.6180 C   0  0  0  0  0  0  0  0  0  0  0  0
  186.6820  177.6080  143.1810 C   0  0  0  0  0  3  0  0  0  0  0  0
  187.9190  178.2460  140.7450 C   0  0  0  0  0  0  0  0  0  0  0  0
  189.8580  176.7310  141.2650 C   0  0  0  0  0  2  0  0  0  0  0  0
  192.0770  177.6180  141.1890 O   0  0  0  0  0  0  0  0  0  0  0  0
  190.9930  177.5300  141.8250 C   0  0  0  0  0  0  0  0  0  0  0  0
  190.8470  178.2090  143.0340 O   0  0  0  0  0  0  0  0  0  0  0  0
  191.8650  178.2910  143.8990 O   0  0  0  0  0  0  0  0  0  0  0  0
  191.3750  177.7580  145.0920 C   0  0  0  0  0  2  0  0  0  0  0  0
  191.6950  176.2770  145.1490 C   0  0  0  0  0  2  0  0  0  0  0  0
  191.9510  176.9650  147.4240 O   0  0  0  0  0  1  0  0  0  0  0  0
  191.9960  175.8580  146.5760 C   0  0  0  0  0  2  0  0  0  0  0  0
  1 21  1  6  0  0  0
  3 24  1  0  0  0  0
  3  9  2  0  0  0  0
  4 27  1  1  0  0  0
  4  9  1  0  0  0  0
  4  5  1  0  0  0  0
  5  2  1  0  0  0  0
  5 21  1  1  0  0  0
  7 16  1  0  0  0  0
  7 27  2  0  0  0  0
  8 17  1  0  0  0  0
  9  1  1  0  0  0  0
 11 10  1  0  0  0  0
 11 45  1  1  0  0  0
 12  1  1  0  0  0  0
 12 10  1  0  0  0  0
 13 25  1  0  0  0  0
 13 26  1  0  0  0  0
 15 22  1  0  0  0  0
 16 18  1  0  0  0  0
 17 22  2  0  0  0  0
 18 19  2  0  0  0  0
 19  2  1  0  0  0  0
 20 15  2  0  0  0  0
 23  6  1  0  0  0  0
 23 11  1  0  0  0  0
 24  8  2  0  0  0  0
 24 20  1  0  0  0  0
 25 17  1  0  0  0  0
 25 14  2  0  0  0  0
 26  6  1  0  0  0  0
 27 19  1  0  0  0  0
 28 20  1  0  0  0  0
 29 14  1  0  0  0  0
 30 29  1  0  0  0  0
 31 30  1  0  0  0  0
 32 44  1  1  0  0  0
 32 35  1  0  0  0  0
 33 34  1  0  0  0  0
 33 32  1  0  0  0  0
 34 31  1  1  0  0  0
 34 36  1  0  0  0  0
 35 37  1  1  0  0  0
 36 35  1  0  0  0  0
 37 40  1  0  0  0  0
 37 39  1  0  0  0  0
 38 37  1  0  0  0  0
 41 44  2  0  0  0  0
 42 43  1  0  0  0  0
 44 42  1  0  0  0  0
 45 52  1  0  0  0  0
 47 48  1  0  0  0  0
 48 51  2  0  0  0  0
 49 51  1  0  0  0  0
 49 46  1  0  0  0  0
 50 49  2  0  0  0  0
 52 47  2  0  0  0  0
 52 50  1  0  0  0  0
 53 50  1  0  0  0  0
 53 55  1  0  0  0  0
 54 55  2  0  0  0  0
 55 56  1  0  0  0  0
 56 57  1  0  0  0  0
 57 58  1  0  0  0  0
 58 59  1  0  0  0  0
 59 61  1  0  0  0  0
 61 60  1  0  0  0  0
M  END
>  <MODEL>
1

>  <REMARK>
 VINA RESULT:      -7.8      0.000      0.000
  Name = 
  15 active torsions:
  status: ('A' for Active; 'I' for Inactive)
    1  A    between atoms: C_1  and  C_8
    2  A    between atoms: C_1  and  C_25
    3  A    between atoms: O_2  and  C_58
    4  A    between atoms: O_2  and  O_59
    5  A    between atoms: C_8  and  C_26
    6  A    between atoms: C_9  and  C_57
    7  A    between atoms: C_11  and  C_49
    8  A    between atoms: C_11  and  C_58
    9  A    between atoms: C_20  and  C_29
   10  A    between atoms: C_21  and  N_35
   11  A    between atoms: C_23  and  C_37
   12  A    between atoms: C_23  and  O_59
   13  A    between atoms: C_25  and  C_28
   14  A    between atoms: N_35  and  C_55
   15  A    between atoms: C_37  and  C_47
                            x       y       z     vdW  Elec       q    Type
                         _______ _______ _______ _____ _____    ______ ____

>  <TORSDO>
F 15

$$$$
=
 OpenBabel10232407513D

 61 67  0  0  1  0  0  0  0  0999 V2000
  191.5780  174.2630  136.6470 C   0  0  1  0  0  3  0  0  0  0  0  0
  194.4480  172.5160  134.5340 S   0  0  0  0  0  0  0  0  0  0  0  0
  192.7250  176.4120  137.0830 N   0  0  0  0  0  0  0  0  0  0  0  0
  193.4300  175.0570  135.1910 C   0  0  1  0  0  3  0  0  0  0  0  0
  192.9940  173.6520  134.7230 C   0  0  2  0  0  3  0  0  0  0  0  0
  186.9780  175.6160  137.5800 C   0  0  0  0  0  2  0  0  0  0  0  0
  195.8580  175.8510  135.6980 C   0  0  0  0  0  3  0  0  0  0  0  0
  190.5860  177.0680  138.1230 C   0  0  0  0  0  3  0  0  0  0  0  0
  192.5610  175.3430  136.3590 C   0  0  0  0  0  0  0  0  0  0  0  0
  189.3920  173.8810  136.8970 C   0  0  0  0  0  2  0  0  0  0  0  0
  188.0780  173.8710  136.1290 C   0  0  2  0  0  3  0  0  0  0  0  0
  190.3160  174.6710  136.2060 O   0  0  0  0  0  0  0  0  0  0  0  0
  187.7830  177.9850  137.7530 C   0  0  0  0  0  2  0  0  0  0  0  0
  187.7490  178.2470  140.2210 C   0  0  0  0  0  3  0  0  0  0  0  0
  191.8940  177.4090  140.5740 C   0  0  0  0  0  3  0  0  0  0  0  0
  196.9840  175.1840  135.5010 O   0  0  0  0  0  0  0  0  0  0  0  0
  189.8590  177.5300  139.2370 C   0  0  0  0  0  0  0  0  0  0  0  0
  196.7740  173.9290  135.2090 N   0  0  0  0  0  0  0  0  0  0  0  0
  195.4490  173.7580  135.2970 C   0  0  0  0  0  0  0  0  0  0  0  0
  192.6070  176.9620  139.4610 C   0  0  0  0  0  0  0  0  0  0  0  0
  192.0620  173.0940  135.7940 C   0  0  0  0  0  2  0  0  0  0  0  0
  190.5330  177.6910  140.4630 C   0  0  0  0  0  3  0  0  0  0  0  0
  187.4200  175.2480  136.1730 C   0  0  0  0  0  2  0  0  0  0  0  0
  191.9540  176.7720  138.2340 C   0  0  0  0  0  0  0  0  0  0  0  0
  188.4250  177.9040  139.1160 C   0  0  0  0  0  0  0  0  0  0  0  0
  186.5670  177.0730  137.6270 C   0  0  0  0  0  2  0  0  0  0  0  0
  194.8500  174.9200  135.5810 C   0  0  0  0  0  0  0  0  0  0  0  0
  193.9670  176.7020  139.5820 O   0  0  0  0  0  1  0  0  0  0  0  0
  186.3330  178.7200  140.2370 C   0  0  0  0  0  2  0  0  0  0  0  0
  185.7260  178.5300  141.6200 C   0  0  0  0  0  2  0  0  0  0  0  0
  186.7720  178.7080  142.7160 C   0  0  0  0  0  2  0  0  0  0  0  0
  188.1910  178.0540  145.5730 C   0  0  1  0  0  3  0  0  0  0  0  0
  188.7820  177.3770  144.0140 S   0  0  0  0  0  0  0  0  0  0  0  0
  187.0770  177.3880  143.4150 C   0  0  1  0  0  3  0  0  0  0  0  0
  186.7720  177.5490  145.7920 C   0  0  2  0  0  3  0  0  0  0  0  0
  186.1500  177.1660  144.5220 N   0  0  0  0  0  2  0  0  0  0  0  0
  185.9080  178.5830  146.5180 C   0  0  0  0  0  0  0  0  0  0  0  0
  184.6460  178.0680  146.7530 F   0  0  0  0  0  0  0  0  0  0  0  0
  185.7850  179.7130  145.7290 F   0  0  0  0  0  0  0  0  0  0  0  0
  186.4910  178.9330  147.7250 F   0  0  0  0  0  0  0  0  0  0  0  0
  188.7610  177.8710  147.8890 O   0  0  0  0  0  0  0  0  0  0  0  0
  190.3080  176.9620  146.3960 N   0  0  0  0  0  2  0  0  0  0  0  0
  191.2280  176.5410  147.4390 C   0  0  0  0  0  1  0  0  0  0  0  0
  189.0860  177.6340  146.6930 C   0  0  0  0  0  0  0  0  0  0  0  0
  187.1670  172.8580  136.6470 N   0  0  0  0  0  2  0  0  0  0  0  0
  183.5140  169.9750  135.1460 O   0  0  0  0  0  1  0  0  0  0  0  0
  187.5780  170.9860  135.0980 C   0  0  0  0  0  3  0  0  0  0  0  0
  187.1110  169.9070  134.3470 C   0  0  0  0  0  3  0  0  0  0  0  0
  184.8620  170.3150  135.1510 C   0  0  0  0  0  0  0  0  0  0  0  0
  185.3290  171.3930  135.9280 C   0  0  0  0  0  0  0  0  0  0  0  0
  185.7550  169.5730  134.3720 C   0  0  0  0  0  3  0  0  0  0  0  0
  186.6950  171.7370  135.8910 C   0  0  0  0  0  0  0  0  0  0  0  0
  184.3760  172.2320  136.7300 C   0  0  0  0  0  2  0  0  0  0  0  0
  183.2300  173.1420  134.8390 O   0  0  0  0  0  0  0  0  0  0  0  0
  183.8150  173.3670  135.9330 C   0  0  0  0  0  0  0  0  0  0  0  0
  183.9030  174.6740  136.4100 O   0  0  0  0  0  0  0  0  0  0  0  0
  183.6650  174.9490  137.6990 O   0  0  0  0  0  0  0  0  0  0  0  0
  182.5570  175.7960  137.6940 C   0  0  0  0  0  2  0  0  0  0  0  0
  182.9320  177.1100  137.0350 C   0  0  0  0  0  2  0  0  0  0  0  0
  182.9410  177.6660  139.3600 O   0  0  0  0  0  1  0  0  0  0  0  0
  183.0620  178.2040  138.0790 C   0  0  0  0  0  2  0  0  0  0  0  0
  1 21  1  6  0  0  0
  2  5  1  0  0  0  0
  2 19  1  0  0  0  0
  3 24  1  0  0  0  0
  4 27  1  1  0  0  0
  4  9  1  0  0  0  0
  5  4  1  0  0  0  0
  5 21  1  1  0  0  0
  6 26  1  0  0  0  0
  8 24  2  0  0  0  0
  8 17  1  0  0  0  0
  9  1  1  0  0  0  0
  9  3  2  0  0  0  0
 11 23  1  0  0  0  0
 11 45  1  1  0  0  0
 11 10  1  0  0  0  0
 12  1  1  0  0  0  0
 12 10  1  0  0  0  0
 13 25  1  0  0  0  0
 14 29  1  0  0  0  0
 16  7  1  0  0  0  0
 17 22  2  0  0  0  0
 18 19  2  0  0  0  0
 18 16  1  0  0  0  0
 19 27  1  0  0  0  0
 20 28  1  0  0  0  0
 20 15  2  0  0  0  0
 22 15  1  0  0  0  0
 23  6  1  0  0  0  0
 24 20  1  0  0  0  0
 25 17  1  0  0  0  0
 25 14  2  0  0  0  0
 26 13  1  0  0  0  0
 27  7  2  0  0  0  0
 29 30  1  0  0  0  0
 30 31  1  0  0  0  0
 32 35  1  0  0  0  0
 32 44  1  1  0  0  0
 33 32  1  0  0  0  0
 34 31  1  1  0  0  0
 34 33  1  0  0  0  0
 34 36  1  0  0  0  0
 35 37  1  6  0  0  0
 36 35  1  0  0  0  0
 37 38  1  0  0  0  0
 37 40  1  0  0  0  0
 39 37  1  0  0  0  0
 42 44  1  0  0  0  0
 42 43  1  0  0  0  0
 44 41  2  0  0  0  0
 46 49  1  0  0  0  0
 47 52  1  0  0  0  0
 48 51  1  0  0  0  0
 48 47  2  0  0  0  0
 49 50  1  0  0  0  0
 50 53  1  0  0  0  0
 51 49  2  0  0  0  0
 52 50  2  0  0  0  0
 52 45  1  0  0  0  0
 54 55  2  0  0  0  0
 55 56  1  0  0  0  0
 55 53  1  0  0  0  0
 56 57  1  0  0  0  0
 58 57  1  0  0  0  0
 59 58  1  0  0  0  0
 59 61  1  0  0  0  0
 61 60  1  0  0  0  0
M  END
>  <MODEL>
2

>  <REMARK>
 VINA RESULT:      -7.8      4.102     10.727
  Name = 
  15 active torsions:
  status: ('A' for Active; 'I' for Inactive)
    1  A    between atoms: C_1  and  C_8
    2  A    between atoms: C_1  and  C_25
    3  A    between atoms: O_2  and  C_58
    4  A    between atoms: O_2  and  O_59
    5  A    between atoms: C_8  and  C_26
    6  A    between atoms: C_9  and  C_57
    7  A    between atoms: C_11  and  C_49
    8  A    between atoms: C_11  and  C_58
    9  A    between atoms: C_20  and  C_29
   10  A    between atoms: C_21  and  N_35
   11  A    between atoms: C_23  and  C_37
   12  A    between atoms: C_23  and  O_59
   13  A    between atoms: C_25  and  C_28
   14  A    between atoms: N_35  and  C_55
   15  A    between atoms: C_37  and  C_47
                            x       y       z     vdW  Elec       q    Type
                         _______ _______ _______ _____ _____    ______ ____

>  <TORSDO>
F 15

$$$$
=
 OpenBabel10232407513D

 61 67  0  0  1  0  0  0  0  0999 V2000
  184.1690  175.0940  137.0920 C   0  0  1  0  0  3  0  0  0  0  0  0
  180.2690  174.4000  136.8600 S   0  0  0  0  0  0  0  0  0  0  0  0
  184.9000  173.5970  135.2630 N   0  0  0  0  0  0  0  0  0  0  0  0
  182.6050  174.4000  135.2890 C   0  0  1  0  0  3  0  0  0  0  0  0
  181.8310  175.2430  136.3250 C   0  0  2  0  0  3  0  0  0  0  0  0
  188.1420  177.9150  137.4430 C   0  0  0  0  0  2  0  0  0  0  0  0
  181.9210  172.0710  134.3460 C   0  0  0  0  0  3  0  0  0  0  0  0
  187.1370  174.5390  135.7070 C   0  0  0  0  0  3  0  0  0  0  0  0
  183.9850  174.3300  135.8290 C   0  0  0  0  0  0  0  0  0  0  0  0
  185.3980  176.7120  138.0190 C   0  0  0  0  0  2  0  0  0  0  0  0
  185.6850  178.2050  137.9300 C   0  0  2  0  0  3  0  0  0  0  0  0
  184.8470  176.2820  136.8070 O   0  0  0  0  0  0  0  0  0  0  0  0
  189.0250  176.8100  135.3720 C   0  0  0  0  0  2  0  0  0  0  0  0
  190.7100  175.3060  136.4010 C   0  0  0  0  0  3  0  0  0  0  0  0
  188.0700  171.9840  136.3670 C   0  0  0  0  0  3  0  0  0  0  0  0
  180.7910  171.4140  134.5570 O   0  0  0  0  0  0  0  0  0  0  0  0
  188.4930  174.3620  136.0420 C   0  0  0  0  0  0  0  0  0  0  0  0
  180.0720  171.9510  135.5060 N   0  0  0  0  0  0  0  0  0  0  0  0
  180.8100  172.9620  135.9840 C   0  0  0  0  0  0  0  0  0  0  0  0
  186.7300  172.1680  136.0240 C   0  0  0  0  0  0  0  0  0  0  0  0
  182.7440  175.4140  137.5350 C   0  0  0  0  0  2  0  0  0  0  0  0
  188.9440  173.0710  136.3740 C   0  0  0  0  0  3  0  0  0  0  0  0
  186.8190  178.4760  136.9460 C   0  0  0  0  0  2  0  0  0  0  0  0
  186.2520  173.4490  135.7100 C   0  0  0  0  0  0  0  0  0  0  0  0
  189.4510  175.4980  135.9830 C   0  0  0  0  0  0  0  0  0  0  0  0
  189.1770  177.9790  136.3390 C   0  0  0  0  0  2  0  0  0  0  0  0
  181.9460  173.0760  135.2870 C   0  0  0  0  0  0  0  0  0  0  0  0
  185.8750  171.0730  136.0020 O   0  0  0  0  0  1  0  0  0  0  0  0
  191.7950  176.3290  136.3250 C   0  0  0  0  0  2  0  0  0  0  0  0
  192.7720  175.9850  135.2090 C   0  0  0  0  0  2  0  0  0  0  0  0
  193.2180  174.5290  135.2900 C   0  0  0  0  0  2  0  0  0  0  0  0
  196.1200  174.5070  136.7680 C   0  0  1  0  0  3  0  0  0  0  0  0
  195.7260  175.6200  135.4100 S   0  0  0  0  0  0  0  0  0  0  0  0
  194.6300  174.3480  134.7450 C   0  0  1  0  0  3  0  0  0  0  0  0
  196.0090  173.0810  136.2480 C   0  0  2  0  0  3  0  0  0  0  0  0
  195.1400  173.0180  135.0700 N   0  0  0  0  0  2  0  0  0  0  0  0
  195.5100  172.1210  137.3300 C   0  0  0  0  0  0  0  0  0  0  0  0
  196.5730  171.6640  138.0880 F   0  0  0  0  0  0  0  0  0  0  0  0
  194.8940  171.0360  136.7320 F   0  0  0  0  0  0  0  0  0  0  0  0
  194.6000  172.7610  138.1570 F   0  0  0  0  0  0  0  0  0  0  0  0
  198.4430  174.9940  136.4780 O   0  0  0  0  0  0  0  0  0  0  0  0
  197.7220  174.8080  138.6900 N   0  0  0  0  0  2  0  0  0  0  0  0
  199.0380  175.0560  139.2530 C   0  0  0  0  0  1  0  0  0  0  0  0
  197.4950  174.7830  137.2830 C   0  0  0  0  0  0  0  0  0  0  0  0
  186.0040  178.7630  139.2370 N   0  0  0  0  0  2  0  0  0  0  0  0
  185.2570  179.0460  144.0620 O   0  0  0  0  0  1  0  0  0  0  0  0
  183.7380  178.5720  140.1880 C   0  0  0  0  0  3  0  0  0  0  0  0
  182.8800  178.5600  141.2880 C   0  0  0  0  0  3  0  0  0  0  0  0
  184.7700  178.8760  142.7710 C   0  0  0  0  0  0  0  0  0  0  0  0
  185.6450  178.8700  141.6670 C   0  0  0  0  0  0  0  0  0  0  0  0
  183.3950  178.7130  142.5770 C   0  0  0  0  0  3  0  0  0  0  0  0
  185.1220  178.7280  140.3660 C   0  0  0  0  0  0  0  0  0  0  0  0
  187.1180  179.0950  141.8520 C   0  0  0  0  0  2  0  0  0  0  0  0
  188.8490  177.5130  141.3870 O   0  0  0  0  0  0  0  0  0  0  0  0
  187.8570  177.8180  142.1010 C   0  0  0  0  0  0  0  0  0  0  0  0
  187.4750  176.9760  143.1450 O   0  0  0  0  0  0  0  0  0  0  0  0
  188.3800  176.5190  144.0200 O   0  0  0  0  0  0  0  0  0  0  0  0
  188.6030  177.5780  144.9010 C   0  0  0  0  0  2  0  0  0  0  0  0
  187.9040  177.2930  146.2160 C   0  0  0  0  0  2  0  0  0  0  0  0
  188.0470  178.1220  148.4540 O   0  0  0  0  0  1  0  0  0  0  0  0
  188.8060  177.6550  147.3810 C   0  0  0  0  0  2  0  0  0  0  0  0
  1 21  1  6  0  0  0
  3 24  1  0  0  0  0
  3  9  2  0  0  0  0
  4 27  1  1  0  0  0
  4  9  1  0  0  0  0
  4  5  1  0  0  0  0
  5  2  1  0  0  0  0
  5 21  1  1  0  0  0
  7 16  1  0  0  0  0
  7 27  2  0  0  0  0
  8 24  2  0  0  0  0
  8 17  1  0  0  0  0
  9  1  1  0  0  0  0
 11 10  1  0  0  0  0
 11 45  1  1  0  0  0
 12  1  1  0  0  0  0
 12 10  1  0  0  0  0
 13 25  1  0  0  0  0
 13 26  1  0  0  0  0
 15 22  1  0  0  0  0
 16 18  1  0  0  0  0
 17 22  2  0  0  0  0
 18 19  2  0  0  0  0
 19  2  1  0  0  0  0
 20 15  2  0  0  0  0
 23  6  1  0  0  0  0
 23 11  1  0  0  0  0
 24 20  1  0  0  0  0
 25 17  1  0  0  0  0
 25 14  2  0  0  0  0
 26  6  1  0  0  0  0
 27 19  1  0  0  0  0
 28 20  1  0  0  0  0
 29 14  1  0  0  0  0
 30 31  1  0  0  0  0
 30 29  1  0  0  0  0
 32 44  1  6  0  0  0
 33 32  1  0  0  0  0
 34 36  1  0  0  0  0
 34 31  1  1  0  0  0
 34 33  1  0  0  0  0
 35 32  1  0  0  0  0
 35 37  1  1  0  0  0
 36 35  1  0  0  0  0
 37 38  1  0  0  0  0
 37 40  1  0  0  0  0
 39 37  1  0  0  0  0
 41 44  2  0  0  0  0
 42 43  1  0  0  0  0
 44 42  1  0  0  0  0
 45 52  1  0  0  0  0
 47 52  2  0  0  0  0
 47 48  1  0  0  0  0
 48 51  2  0  0  0  0
 49 46  1  0  0  0  0
 50 53  1  0  0  0  0
 50 49  2  0  0  0  0
 51 49  1  0  0  0  0
 52 50  1  0  0  0  0
 53 55  1  0  0  0  0
 54 55  2  0  0  0  0
 55 56  1  0  0  0  0
 56 57  1  0  0  0  0
 57 58  1  0  0  0  0
 58 59  1  0  0  0  0
 59 61  1  0  0  0  0
 61 60  1  0  0  0  0
M  END
>  <MODEL>
3

>  <REMARK>
 VINA RESULT:      -7.2      1.975      2.572
  Name = 
  15 active torsions:
  status: ('A' for Active; 'I' for Inactive)
    1  A    between atoms: C_1  and  C_8
    2  A    between atoms: C_1  and  C_25
    3  A    between atoms: O_2  and  C_58
    4  A    between atoms: O_2  and  O_59
    5  A    between atoms: C_8  and  C_26
    6  A    between atoms: C_9  and  C_57
    7  A    between atoms: C_11  and  C_49
    8  A    between atoms: C_11  and  C_58
    9  A    between atoms: C_20  and  C_29
   10  A    between atoms: C_21  and  N_35
   11  A    between atoms: C_23  and  C_37
   12  A    between atoms: C_23  and  O_59
   13  A    between atoms: C_25  and  C_28
   14  A    between atoms: N_35  and  C_55
   15  A    between atoms: C_37  and  C_47
                            x       y       z     vdW  Elec       q    Type
                         _______ _______ _______ _____ _____    ______ ____

>  <TORSDO>
F 15

$$$$
=
 OpenBabel10232407513D

 61 67  0  0  1  0  0  0  0  0999 V2000
  184.3230  175.2360  137.2550 C   0  0  1  0  0  3  0  0  0  0  0  0
  180.4010  174.6570  137.4360 S   0  0  0  0  0  0  0  0  0  0  0  0
  184.8020  173.7760  135.3160 N   0  0  0  0  0  0  0  0  0  0  0  0
  182.5500  174.6410  135.6180 C   0  0  1  0  0  3  0  0  0  0  0  0
  181.9210  175.4730  136.7550 C   0  0  2  0  0  3  0  0  0  0  0  0
  188.3950  177.9340  137.2430 C   0  0  0  0  0  2  0  0  0  0  0  0
  181.6950  172.3620  134.6920 C   0  0  0  0  0  3  0  0  0  0  0  0
  187.1030  174.6420  135.5370 C   0  0  0  0  0  3  0  0  0  0  0  0
  183.9780  174.5160  135.9990 C   0  0  0  0  0  0  0  0  0  0  0  0
  185.6950  176.7900  138.0850 C   0  0  0  0  0  2  0  0  0  0  0  0
  186.0160  178.2760  138.0060 C   0  0  2  0  0  3  0  0  0  0  0  0
  185.0020  176.4130  136.9300 O   0  0  0  0  0  0  0  0  0  0  0  0
  189.0120  176.8690  135.0570 C   0  0  0  0  0  2  0  0  0  0  0  0
  190.7520  175.2880  135.8520 C   0  0  0  0  0  3  0  0  0  0  0  0
  188.0240  172.0430  136.0180 C   0  0  0  0  0  3  0  0  0  0  0  0
  180.5750  171.7300  135.0080 O   0  0  0  0  0  0  0  0  0  0  0  0
  188.4810  174.4170  135.7140 C   0  0  0  0  0  0  0  0  0  0  0  0
  179.9820  172.2580  136.0450 N   0  0  0  0  0  0  0  0  0  0  0  0
  180.7990  173.2320  136.4670 C   0  0  0  0  0  0  0  0  0  0  0  0
  186.6600  172.2750  135.8310 C   0  0  0  0  0  0  0  0  0  0  0  0
  182.9660  175.5810  137.8610 C   0  0  0  0  0  2  0  0  0  0  0  0
  188.9260  173.1040  135.9600 C   0  0  0  0  0  3  0  0  0  0  0  0
  187.0440  178.5460  136.9110 C   0  0  0  0  0  2  0  0  0  0  0  0
  186.1900  173.5770  135.6070 C   0  0  0  0  0  0  0  0  0  0  0  0
  189.4620  175.5270  135.5820 C   0  0  0  0  0  0  0  0  0  0  0  0
  189.3050  178.0040  136.0330 C   0  0  0  0  0  2  0  0  0  0  0  0
  181.8550  173.3360  135.6520 C   0  0  0  0  0  0  0  0  0  0  0  0
  185.7750  171.2050  135.8740 O   0  0  0  0  0  1  0  0  0  0  0  0
  191.8530  176.2830  135.6860 C   0  0  0  0  0  2  0  0  0  0  0  0
  193.0900  175.6120  135.1040 C   0  0  0  0  0  2  0  0  0  0  0  0
  194.2670  175.6780  136.0710 C   0  0  0  0  0  2  0  0  0  0  0  0
  195.6120  172.7600  136.6030 C   0  0  1  0  0  3  0  0  0  0  0  0
  193.8310  173.0200  136.5630 S   0  0  0  0  0  0  0  0  0  0  0  0
  194.1050  174.6820  137.2140 C   0  0  1  0  0  3  0  0  0  0  0  0
  196.1780  173.5920  137.7450 C   0  0  2  0  0  3  0  0  0  0  0  0
  195.2800  174.7000  138.0810 N   0  0  0  0  0  2  0  0  0  0  0  0
  197.5770  174.1190  137.4220 C   0  0  0  0  0  0  0  0  0  0  0  0
  197.8370  175.2620  138.1570 F   0  0  0  0  0  0  0  0  0  0  0  0
  197.6510  174.4310  136.0760 F   0  0  0  0  0  0  0  0  0  0  0  0
  198.5320  173.1590  137.7180 F   0  0  0  0  0  0  0  0  0  0  0  0
  196.6020  170.6890  135.9340 O   0  0  0  0  0  0  0  0  0  0  0  0
  195.4390  170.6410  137.9570 N   0  0  0  0  0  2  0  0  0  0  0  0
  195.6920  169.2300  138.1930 C   0  0  0  0  0  1  0  0  0  0  0  0
  195.9200  171.3100  136.7930 C   0  0  0  0  0  0  0  0  0  0  0  0
  186.4940  178.7850  139.2850 N   0  0  0  0  0  2  0  0  0  0  0  0
  186.5520  178.2780  144.1490 O   0  0  0  0  0  1  0  0  0  0  0  0
  184.4000  178.5900  140.5690 C   0  0  0  0  0  3  0  0  0  0  0  0
  183.7300  178.4460  141.7840 C   0  0  0  0  0  3  0  0  0  0  0  0
  185.8520  178.3690  142.9500 C   0  0  0  0  0  0  0  0  0  0  0  0
  186.5360  178.4940  141.7250 C   0  0  0  0  0  0  0  0  0  0  0  0
  184.4550  178.3380  142.9730 C   0  0  0  0  0  3  0  0  0  0  0  0
  185.8030  178.6160  140.5290 C   0  0  0  0  0  0  0  0  0  0  0  0
  188.0350  178.5810  141.6870 C   0  0  0  0  0  2  0  0  0  0  0  0
  189.2060  176.8970  140.4580 O   0  0  0  0  0  0  0  0  0  0  0  0
  188.6750  177.2350  141.5500 C   0  0  0  0  0  0  0  0  0  0  0  0
  188.7190  176.3620  142.6360 O   0  0  0  0  0  0  0  0  0  0  0  0
  189.8450  175.7020  142.9380 O   0  0  0  0  0  0  0  0  0  0  0  0
  190.4800  176.4860  143.9010 C   0  0  0  0  0  2  0  0  0  0  0  0
  191.5730  177.3050  143.2400 C   0  0  0  0  0  2  0  0  0  0  0  0
  190.3990  179.1250  144.2510 O   0  0  0  0  0  1  0  0  0  0  0  0
  191.6670  178.6750  143.8860 C   0  0  0  0  0  2  0  0  0  0  0  0
  1 21  1  6  0  0  0
  3 24  1  0  0  0  0
  3  9  2  0  0  0  0
  4 27  1  1  0  0  0
  4  9  1  0  0  0  0
  4  5  1  0  0  0  0
  5  2  1  0  0  0  0
  5 21  1  1  0  0  0
  7 16  1  0  0  0  0
  7 27  2  0  0  0  0
  8 24  2  0  0  0  0
  8 17  1  0  0  0  0
  9  1  1  0  0  0  0
 11 10  1  0  0  0  0
 11 45  1  1  0  0  0
 12  1  1  0  0  0  0
 12 10  1  0  0  0  0
 13 25  1  0  0  0  0
 13 26  1  0  0  0  0
 16 18  1  0  0  0  0
 17 22  2  0  0  0  0
 18 19  2  0  0  0  0
 19  2  1  0  0  0  0
 20 28  1  0  0  0  0
 20 15  2  0  0  0  0
 22 15  1  0  0  0  0
 23  6  1  0  0  0  0
 23 11  1  0  0  0  0
 24 20  1  0  0  0  0
 25 17  1  0  0  0  0
 25 14  2  0  0  0  0
 26  6  1  0  0  0  0
 27 19  1  0  0  0  0
 29 14  1  0  0  0  0
 30 29  1  0  0  0  0
 30 31  1  0  0  0  0
 32 44  1  1  0  0  0
 32 35  1  0  0  0  0
 33 32  1  0  0  0  0
 33 34  1  0  0  0  0
 34 31  1  6  0  0  0
 34 36  1  0  0  0  0
 35 37  1  6  0  0  0
 35 36  1  0  0  0  0
 37 40  1  0  0  0  0
 37 38  1  0  0  0  0
 39 37  1  0  0  0  0
 41 44  2  0  0  0  0
 42 43  1  0  0  0  0
 44 42  1  0  0  0  0
 45 52  1  0  0  0  0
 47 48  1  0  0  0  0
 48 51  2  0  0  0  0
 49 51  1  0  0  0  0
 49 46  1  0  0  0  0
 50 49  2  0  0  0  0
 52 47  2  0  0  0  0
 52 50  1  0  0  0  0
 53 50  1  0  0  0  0
 54 55  2  0  0  0  0
 55 53  1  0  0  0  0
 55 56  1  0  0  0  0
 56 57  1  0  0  0  0
 57 58  1  0  0  0  0
 59 61  1  0  0  0  0
 59 58  1  0  0  0  0
 61 60  1  0  0  0  0
M  END
>  <MODEL>
4

>  <REMARK>
 VINA RESULT:      -7.1      2.023      2.735
  Name = 
  15 active torsions:
  status: ('A' for Active; 'I' for Inactive)
    1  A    between atoms: C_1  and  C_8
    2  A    between atoms: C_1  and  C_25
    3  A    between atoms: O_2  and  C_58
    4  A    between atoms: O_2  and  O_59
    5  A    between atoms: C_8  and  C_26
    6  A    between atoms: C_9  and  C_57
    7  A    between atoms: C_11  and  C_49
    8  A    between atoms: C_11  and  C_58
    9  A    between atoms: C_20  and  C_29
   10  A    between atoms: C_21  and  N_35
   11  A    between atoms: C_23  and  C_37
   12  A    between atoms: C_23  and  O_59
   13  A    between atoms: C_25  and  C_28
   14  A    between atoms: N_35  and  C_55
   15  A    between atoms: C_37  and  C_47
                            x       y       z     vdW  Elec       q    Type
                         _______ _______ _______ _____ _____    ______ ____

>  <TORSDO>
F 15

$$$$
=
 OpenBabel10232407513D

 61 67  0  0  1  0  0  0  0  0999 V2000
  185.1850  177.7840  139.2230 C   0  0  1  0  0  3  0  0  0  0  0  0
  181.7470  179.5720  140.0800 S   0  0  0  0  0  0  0  0  0  0  0  0
  184.7300  177.2720  136.8460 N   0  0  0  0  0  0  0  0  0  0  0  0
  183.4910  179.0610  137.9290 C   0  0  1  0  0  3  0  0  0  0  0  0
  183.4700  179.5470  139.3940 C   0  0  2  0  0  3  0  0  0  0  0  0
  190.0500  177.3340  139.2130 C   0  0  0  0  0  2  0  0  0  0  0  0
  181.4420  178.3280  136.4980 C   0  0  0  0  0  3  0  0  0  0  0  0
  187.0600  176.4600  136.8220 C   0  0  0  0  0  3  0  0  0  0  0  0
  184.5170  177.9900  137.9100 C   0  0  0  0  0  0  0  0  0  0  0  0
  187.1930  177.7460  140.2010 C   0  0  0  0  0  2  0  0  0  0  0  0
  188.3700  178.6400  140.5660 C   0  0  2  0  0  3  0  0  0  0  0  0
  186.4600  178.3540  139.1770 O   0  0  0  0  0  0  0  0  0  0  0  0
  189.9560  177.1220  136.7160 C   0  0  0  0  0  2  0  0  0  0  0  0
  190.3070  174.6740  136.5030 C   0  0  0  0  0  3  0  0  0  0  0  0
  186.1500  173.8970  136.1610 C   0  0  0  0  0  3  0  0  0  0  0  0
  180.1610  178.4010  136.8230 O   0  0  0  0  0  0  0  0  0  0  0  0
  187.9940  175.4310  136.5940 C   0  0  0  0  0  0  0  0  0  0  0  0
  179.9840  178.6930  138.0840 N   0  0  0  0  0  0  0  0  0  0  0  0
  181.2120  178.7340  138.6170 C   0  0  0  0  0  0  0  0  0  0  0  0
  185.2330  174.9260  136.3790 C   0  0  0  0  0  0  0  0  0  0  0  0
  184.3130  178.5640  140.2020 C   0  0  0  0  0  2  0  0  0  0  0  0
  187.5180  174.1470  136.2660 C   0  0  0  0  0  3  0  0  0  0  0  0
  189.3840  178.6840  139.4270 C   0  0  0  0  0  2  0  0  0  0  0  0
  185.6820  176.2080  136.7280 C   0  0  0  0  0  0  0  0  0  0  0  0
  189.4560  175.7000  136.6310 C   0  0  0  0  0  0  0  0  0  0  0  0
  190.8520  177.3520  137.9280 C   0  0  0  0  0  2  0  0  0  0  0  0
  182.1350  178.5300  137.6710 C   0  0  0  0  0  0  0  0  0  0  0  0
  183.8740  174.6670  136.2520 O   0  0  0  0  0  1  0  0  0  0  0  0
  191.7940  174.8060  136.4420 C   0  0  0  0  0  2  0  0  0  0  0  0
  192.4200  174.3530  137.7540 C   0  0  0  0  0  2  0  0  0  0  0  0
  193.9220  174.1320  137.6070 C   0  0  0  0  0  2  0  0  0  0  0  0
  196.7720  173.4660  136.1800 C   0  0  1  0  0  3  0  0  0  0  0  0
  195.9050  175.0250  135.9440 S   0  0  0  0  0  0  0  0  0  0  0  0
  194.3450  174.1350  136.1420 C   0  0  1  0  0  3  0  0  0  0  0  0
  195.8780  172.3520  135.6550 C   0  0  2  0  0  3  0  0  0  0  0  0
  194.4730  172.7690  135.6420 N   0  0  0  0  0  2  0  0  0  0  0  0
  196.0430  171.0640  136.4650 C   0  0  0  0  0  0  0  0  0  0  0  0
  196.8840  171.2830  137.5410 F   0  0  0  0  0  0  0  0  0  0  0  0
  196.5970  170.0850  135.6600 F   0  0  0  0  0  0  0  0  0  0  0  0
  194.8120  170.6280  136.9290 F   0  0  0  0  0  0  0  0  0  0  0  0
  198.5330  174.5680  134.9950 O   0  0  0  0  0  0  0  0  0  0  0  0
  198.8110  172.2710  135.3020 N   0  0  0  0  0  2  0  0  0  0  0  0
  200.0810  172.2220  134.5980 C   0  0  0  0  0  1  0  0  0  0  0  0
  198.0800  173.4860  135.4580 C   0  0  0  0  0  0  0  0  0  0  0  0
  189.0100  178.1990  141.7980 N   0  0  0  0  0  2  0  0  0  0  0  0
  189.0340  177.6990  146.6630 O   0  0  0  0  0  1  0  0  0  0  0  0
  186.9200  177.8270  143.0500 C   0  0  0  0  0  3  0  0  0  0  0  0
  186.2450  177.6280  144.2540 C   0  0  0  0  0  3  0  0  0  0  0  0
  188.3480  177.7300  145.4540 C   0  0  0  0  0  0  0  0  0  0  0  0
  189.0380  177.9130  144.2390 C   0  0  0  0  0  0  0  0  0  0  0  0
  186.9580  177.5820  145.4550 C   0  0  0  0  0  3  0  0  0  0  0  0
  188.3170  177.9720  143.0310 C   0  0  0  0  0  0  0  0  0  0  0  0
  190.5250  178.1260  144.2250 C   0  0  0  0  0  2  0  0  0  0  0  0
  191.5940  176.4050  142.9550 O   0  0  0  0  0  0  0  0  0  0  0  0
  191.2780  176.8390  144.0950 C   0  0  0  0  0  0  0  0  0  0  0  0
  191.6660  176.1320  145.2320 O   0  0  0  0  0  0  0  0  0  0  0  0
  192.0780  176.7780  146.3310 O   0  0  0  0  0  0  0  0  0  0  0  0
  191.7520  175.9350  147.3940 C   0  0  0  0  0  2  0  0  0  0  0  0
  192.9580  175.7800  148.3000 C   0  0  0  0  0  2  0  0  0  0  0  0
  194.2270  177.2200  149.7260 O   0  0  0  0  0  1  0  0  0  0  0  0
  192.9300  176.8290  149.3970 C   0  0  0  0  0  2  0  0  0  0  0  0
  1 21  1  1  0  0  0
  3  9  2  0  0  0  0
  4 27  1  1  0  0  0
  4  5  1  0  0  0  0
  5  2  1  0  0  0  0
  5 21  1  1  0  0  0
  6 23  1  0  0  0  0
  7 16  1  0  0  0  0
  7 27  2  0  0  0  0
  9  4  1  0  0  0  0
  9  1  1  0  0  0  0
 10 11  1  0  0  0  0
 11 45  1  1  0  0  0
 12  1  1  0  0  0  0
 12 10  1  0  0  0  0
 13 26  1  0  0  0  0
 14 25  2  0  0  0  0
 15 22  2  0  0  0  0
 15 20  1  0  0  0  0
 16 18  1  0  0  0  0
 17 25  1  0  0  0  0
 17  8  2  0  0  0  0
 18 19  2  0  0  0  0
 19  2  1  0  0  0  0
 20 24  2  0  0  0  0
 22 17  1  0  0  0  0
 23 11  1  0  0  0  0
 24  8  1  0  0  0  0
 24  3  1  0  0  0  0
 25 13  1  0  0  0  0
 26  6  1  0  0  0  0
 27 19  1  0  0  0  0
 28 20  1  0  0  0  0
 29 14  1  0  0  0  0
 29 30  1  0  0  0  0
 31 30  1  0  0  0  0
 32 44  1  6  0  0  0
 33 34  1  0  0  0  0
 33 32  1  0  0  0  0
 34 31  1  1  0  0  0
 35 32  1  0  0  0  0
 35 37  1  1  0  0  0
 36 35  1  0  0  0  0
 36 34  1  0  0  0  0
 37 40  1  0  0  0  0
 37 38  1  0  0  0  0
 39 37  1  0  0  0  0
 41 44  2  0  0  0  0
 42 44  1  0  0  0  0
 43 42  1  0  0  0  0
 45 52  1  0  0  0  0
 47 48  1  0  0  0  0
 48 51  2  0  0  0  0
 49 51  1  0  0  0  0
 49 46  1  0  0  0  0
 50 49  2  0  0  0  0
 52 47  2  0  0  0  0
 52 50  1  0  0  0  0
 53 50  1  0  0  0  0
 54 55  2  0  0  0  0
 55 53  1  0  0  0  0
 55 56  1  0  0  0  0
 56 57  1  0  0  0  0
 57 58  1  0  0  0  0
 58 59  1  0  0  0  0
 59 61  1  0  0  0  0
 61 60  1  0  0  0  0
M  END
>  <MODEL>
5

>  <REMARK>
 VINA RESULT:      -6.7      2.220      2.928
  Name = 
  15 active torsions:
  status: ('A' for Active; 'I' for Inactive)
    1  A    between atoms: C_1  and  C_8
    2  A    between atoms: C_1  and  C_25
    3  A    between atoms: O_2  and  C_58
    4  A    between atoms: O_2  and  O_59
    5  A    between atoms: C_8  and  C_26
    6  A    between atoms: C_9  and  C_57
    7  A    between atoms: C_11  and  C_49
    8  A    between atoms: C_11  and  C_58
    9  A    between atoms: C_20  and  C_29
   10  A    between atoms: C_21  and  N_35
   11  A    between atoms: C_23  and  C_37
   12  A    between atoms: C_23  and  O_59
   13  A    between atoms: C_25  and  C_28
   14  A    between atoms: N_35  and  C_55
   15  A    between atoms: C_37  and  C_47
                            x       y       z     vdW  Elec       q    Type
                         _______ _______ _______ _____ _____    ______ ____

>  <TORSDO>
F 15

$$$$
=
 OpenBabel10232407513D

 61 67  0  0  1  0  0  0  0  0999 V2000
  190.5780  174.1590  136.5240 C   0  0  1  0  0  3  0  0  0  0  0  0
  193.7680  172.2520  135.1320 S   0  0  0  0  0  0  0  0  0  0  0  0
  191.6300  176.3630  136.9120 N   0  0  0  0  0  0  0  0  0  0  0  0
  192.6500  174.8290  135.3260 C   0  0  1  0  0  3  0  0  0  0  0  0
  192.3020  173.3730  134.9470 C   0  0  2  0  0  3  0  0  0  0  0  0
  185.8840  175.5120  136.5090 C   0  0  0  0  0  2  0  0  0  0  0  0
  194.9540  175.7200  136.1490 C   0  0  0  0  0  3  0  0  0  0  0  0
  189.3440  177.0850  137.4960 C   0  0  0  0  0  3  0  0  0  0  0  0
  191.5940  175.2200  136.2910 C   0  0  0  0  0  0  0  0  0  0  0  0
  188.3810  173.7620  136.4390 C   0  0  0  0  0  2  0  0  0  0  0  0
  187.2180  173.6450  135.4640 C   0  0  2  0  0  3  0  0  0  0  0  0
  189.4090  174.4920  135.8340 O   0  0  0  0  0  0  0  0  0  0  0  0
  186.6440  177.9020  136.5570 C   0  0  0  0  0  2  0  0  0  0  0  0
  186.1890  178.4250  138.9400 C   0  0  0  0  0  3  0  0  0  0  0  0
  190.2130  177.7120  140.0820 C   0  0  0  0  0  3  0  0  0  0  0  0
  196.0990  175.0580  136.2200 O   0  0  0  0  0  0  0  0  0  0  0  0
  188.4370  177.6490  138.4140 C   0  0  0  0  0  0  0  0  0  0  0  0
  195.9430  173.7750  136.0350 N   0  0  0  0  0  0  0  0  0  0  0  0
  194.6220  173.5880  135.9140 C   0  0  0  0  0  0  0  0  0  0  0  0
  191.1060  177.1630  139.1610 C   0  0  0  0  0  0  0  0  0  0  0  0
  191.2010  172.9140  135.8980 C   0  0  0  0  0  2  0  0  0  0  0  0
  188.8910  177.9540  139.7110 C   0  0  0  0  0  3  0  0  0  0  0  0
  186.5610  175.0050  135.2460 C   0  0  0  0  0  2  0  0  0  0  0  0
  190.6730  176.8300  137.8700 C   0  0  0  0  0  0  0  0  0  0  0  0
  187.0450  177.9800  138.0110 C   0  0  0  0  0  0  0  0  0  0  0  0
  185.4690  176.9580  136.3270 C   0  0  0  0  0  2  0  0  0  0  0  0
  193.9830  174.7620  135.9640 C   0  0  0  0  0  0  0  0  0  0  0  0
  192.4260  176.9440  139.5390 O   0  0  0  0  0  1  0  0  0  0  0  0
  184.7900  178.8690  138.6640 C   0  0  0  0  0  2  0  0  0  0  0  0
  183.8330  178.2720  139.6860 C   0  0  0  0  0  2  0  0  0  0  0  0
  184.5510  177.9280  140.9870 C   0  0  0  0  0  2  0  0  0  0  0  0
  185.1240  178.3130  144.1690 C   0  0  1  0  0  3  0  0  0  0  0  0
  183.7910  179.1630  143.3090 S   0  0  0  0  0  0  0  0  0  0  0  0
  184.8180  179.1740  141.8230 C   0  0  1  0  0  3  0  0  0  0  0  0
  186.4390  178.7590  143.5460 C   0  0  2  0  0  3  0  0  0  0  0  0
  186.2310  179.2570  142.1840 N   0  0  0  0  0  2  0  0  0  0  0  0
  187.4770  177.6350  143.5490 C   0  0  0  0  0  0  0  0  0  0  0  0
  187.1070  176.6470  144.4450 F   0  0  0  0  0  0  0  0  0  0  0  0
  188.7040  178.1450  143.9340 F   0  0  0  0  0  0  0  0  0  0  0  0
  187.5910  177.0830  142.2830 F   0  0  0  0  0  0  0  0  0  0  0  0
  184.0310  178.4510  146.2920 O   0  0  0  0  0  0  0  0  0  0  0  0
  186.2590  179.1460  146.2600 N   0  0  0  0  0  2  0  0  0  0  0  0
  186.2840  179.4920  147.6710 C   0  0  0  0  0  1  0  0  0  0  0  0
  185.0870  178.6350  145.6280 C   0  0  0  0  0  0  0  0  0  0  0  0
  186.2330  172.6750  135.9270 N   0  0  0  0  0  2  0  0  0  0  0  0
  183.7030  168.7800  134.3970 O   0  0  0  0  0  1  0  0  0  0  0  0
  187.3670  170.5590  135.3710 C   0  0  0  0  0  3  0  0  0  0  0  0
  187.3200  169.2340  134.9370 C   0  0  0  0  0  3  0  0  0  0  0  0
  184.9100  169.3810  134.7370 C   0  0  0  0  0  0  0  0  0  0  0  0
  184.9470  170.7130  135.1940 C   0  0  0  0  0  0  0  0  0  0  0  0
  186.0940  168.6460  134.6180 C   0  0  0  0  0  3  0  0  0  0  0  0
  186.1860  171.3080  135.5020 C   0  0  0  0  0  0  0  0  0  0  0  0
  183.6910  171.5320  135.2780 C   0  0  0  0  0  2  0  0  0  0  0  0
  183.1820  170.2640  137.2400 O   0  0  0  0  0  0  0  0  0  0  0  0
  182.9500  171.2970  136.5570 C   0  0  0  0  0  0  0  0  0  0  0  0
  182.0250  172.2330  137.0170 O   0  0  0  0  0  0  0  0  0  0  0  0
  181.8030  173.3660  136.3370 O   0  0  0  0  0  0  0  0  0  0  0  0
  182.3860  174.3730  137.1060 C   0  0  0  0  0  2  0  0  0  0  0  0
  181.6500  175.6780  136.8650 C   0  0  0  0  0  2  0  0  0  0  0  0
  180.9770  175.2520  139.1190 O   0  0  0  0  0  1  0  0  0  0  0  0
  181.1770  176.2650  138.1820 C   0  0  0  0  0  2  0  0  0  0  0  0
  1 21  1  6  0  0  0
  2 19  1  0  0  0  0
  3 24  1  0  0  0  0
  4 27  1  1  0  0  0
  4  9  1  0  0  0  0
  5  2  1  0  0  0  0
  5  4  1  0  0  0  0
  5 21  1  1  0  0  0
  7 16  1  0  0  0  0
  8 24  2  0  0  0  0
  8 17  1  0  0  0  0
  9  1  1  0  0  0  0
  9  3  2  0  0  0  0
 11 45  1  1  0  0  0
 11 10  1  0  0  0  0
 12 10  1  0  0  0  0
 12  1  1  0  0  0  0
 13 25  1  0  0  0  0
 17 22  2  0  0  0  0
 18 16  1  0  0  0  0
 19 27  1  0  0  0  0
 19 18  2  0  0  0  0
 20 28  1  0  0  0  0
 20 15  2  0  0  0  0
 22 15  1  0  0  0  0
 23 11  1  0  0  0  0
 23  6  1  0  0  0  0
 24 20  1  0  0  0  0
 25 17  1  0  0  0  0
 25 14  2  0  0  0  0
 26  6  1  0  0  0  0
 26 13  1  0  0  0  0
 27  7  2  0  0  0  0
 29 14  1  0  0  0  0
 29 30  1  0  0  0  0
 30 31  1  0  0  0  0
 32 44  1  1  0  0  0
 33 32  1  0  0  0  0
 34 31  1  1  0  0  0
 34 36  1  0  0  0  0
 34 33  1  0  0  0  0
 35 37  1  6  0  0  0
 35 32  1  0  0  0  0
 36 35  1  0  0  0  0
 37 39  1  0  0  0  0
 37 38  1  0  0  0  0
 40 37  1  0  0  0  0
 42 43  1  0  0  0  0
 44 42  1  0  0  0  0
 44 41  2  0  0  0  0
 46 49  1  0  0  0  0
 47 52  1  0  0  0  0
 48 47  2  0  0  0  0
 49 50  1  0  0  0  0
 50 53  1  0  0  0  0
 50 52  2  0  0  0  0
 51 49  2  0  0  0  0
 51 48  1  0  0  0  0
 52 45  1  0  0  0  0
 53 55  1  0  0  0  0
 55 56  1  0  0  0  0
 55 54  2  0  0  0  0
 57 56  1  0  0  0  0
 57 58  1  0  0  0  0
 59 58  1  0  0  0  0
 59 61  1  0  0  0  0
 61 60  1  0  0  0  0
M  END
>  <MODEL>
6

>  <REMARK>
 VINA RESULT:      -6.5      3.618     11.031
  Name = 
  15 active torsions:
  status: ('A' for Active; 'I' for Inactive)
    1  A    between atoms: C_1  and  C_8
    2  A    between atoms: C_1  and  C_25
    3  A    between atoms: O_2  and  C_58
    4  A    between atoms: O_2  and  O_59
    5  A    between atoms: C_8  and  C_26
    6  A    between atoms: C_9  and  C_57
    7  A    between atoms: C_11  and  C_49
    8  A    between atoms: C_11  and  C_58
    9  A    between atoms: C_20  and  C_29
   10  A    between atoms: C_21  and  N_35
   11  A    between atoms: C_23  and  C_37
   12  A    between atoms: C_23  and  O_59
   13  A    between atoms: C_25  and  C_28
   14  A    between atoms: N_35  and  C_55
   15  A    between atoms: C_37  and  C_47
                            x       y       z     vdW  Elec       q    Type
                         _______ _______ _______ _____ _____    ______ ____

>  <TORSDO>
F 15

$$$$
=
 OpenBabel10232407513D

 61 67  0  0  1  0  0  0  0  0999 V2000
  187.5190  178.1480  142.3180 C   0  0  1  0  0  3  0  0  0  0  0  0
  185.9180  178.6460  145.9150 S   0  0  0  0  0  0  0  0  0  0  0  0
  189.4300  176.7240  142.9810 N   0  0  0  0  0  0  0  0  0  0  0  0
  187.4810  176.8360  144.4290 C   0  0  1  0  0  3  0  0  0  0  0  0
  186.1980  177.6920  144.3500 C   0  0  2  0  0  3  0  0  0  0  0  0
  187.4180  177.1620  137.5340 C   0  0  0  0  0  2  0  0  0  0  0  0
  189.1300  176.6780  146.4380 C   0  0  0  0  0  3  0  0  0  0  0  0
  189.8590  176.5840  140.5550 C   0  0  0  0  0  3  0  0  0  0  0  0
  188.2320  177.1830  143.1980 C   0  0  0  0  0  0  0  0  0  0  0  0
  186.7550  178.4140  140.2360 C   0  0  0  0  0  2  0  0  0  0  0  0
  185.7210  177.8770  139.2570 C   0  0  2  0  0  3  0  0  0  0  0  0
  186.9820  177.4550  141.2290 O   0  0  0  0  0  0  0  0  0  0  0  0
  189.1360  175.3790  137.9360 C   0  0  0  0  0  2  0  0  0  0  0  0
  191.1450  176.5480  137.0650 C   0  0  0  0  0  3  0  0  0  0  0  0
  192.3550  177.7940  140.9360 C   0  0  0  0  0  3  0  0  0  0  0  0
  188.9930  177.2130  147.6410 O   0  0  0  0  0  0  0  0  0  0  0  0
  190.7160  176.7680  139.4520 C   0  0  0  0  0  0  0  0  0  0  0  0
  188.0030  178.0630  147.6970 N   0  0  0  0  0  0  0  0  0  0  0  0
  187.5250  178.1390  146.4480 C   0  0  0  0  0  0  0  0  0  0  0  0
  191.5030  177.5970  142.0240 C   0  0  0  0  0  0  0  0  0  0  0  0
  186.3870  178.6720  143.1960 C   0  0  0  0  0  2  0  0  0  0  0  0
  191.9650  177.3820  139.6630 C   0  0  0  0  0  3  0  0  0  0  0  0
  186.2950  176.7130  138.4550 C   0  0  0  0  0  2  0  0  0  0  0  0
  190.2440  177.0080  141.8370 C   0  0  0  0  0  0  0  0  0  0  0  0
  190.3450  176.2680  138.1020 C   0  0  0  0  0  0  0  0  0  0  0  0
  188.1230  175.9540  136.9520 C   0  0  0  0  0  2  0  0  0  0  0  0
  188.1830  177.2910  145.6490 C   0  0  0  0  0  0  0  0  0  0  0  0
  191.9110  177.9960  143.2910 O   0  0  0  0  0  1  0  0  0  0  0  0
  190.9390  176.0460  135.6740 C   0  0  0  0  0  2  0  0  0  0  0  0
  192.2800  175.7730  135.0050 C   0  0  0  0  0  2  0  0  0  0  0  0
  193.1000  174.7600  135.7950 C   0  0  0  0  0  2  0  0  0  0  0  0
  196.1540  174.5730  136.9110 C   0  0  1  0  0  3  0  0  0  0  0  0
  195.6780  175.6490  135.5490 S   0  0  0  0  0  0  0  0  0  0  0  0
  194.4160  174.4390  135.0940 C   0  0  1  0  0  3  0  0  0  0  0  0
  195.8730  173.1380  136.4900 C   0  0  2  0  0  3  0  0  0  0  0  0
  194.8620  173.0890  135.4310 N   0  0  0  0  0  2  0  0  0  0  0  0
  195.4430  172.2730  137.6770 C   0  0  0  0  0  0  0  0  0  0  0  0
  196.4950  171.4750  138.0910 F   0  0  0  0  0  0  0  0  0  0  0  0
  194.3920  171.4580  137.2940 F   0  0  0  0  0  0  0  0  0  0  0  0
  195.0350  173.0740  138.7320 F   0  0  0  0  0  0  0  0  0  0  0  0
  198.4080  175.1420  136.3500 O   0  0  0  0  0  0  0  0  0  0  0  0
  198.0520  174.5080  138.5680 N   0  0  0  0  0  2  0  0  0  0  0  0
  199.4470  174.6580  138.9470 C   0  0  0  0  0  1  0  0  0  0  0  0
  197.5990  174.7610  137.2400 C   0  0  0  0  0  0  0  0  0  0  0  0
  185.2440  178.9220  138.3610 N   0  0  0  0  0  2  0  0  0  0  0  0
  180.6540  178.2000  136.8370 O   0  0  0  0  0  1  0  0  0  0  0  0
  183.4540  180.5260  138.9080 C   0  0  0  0  0  3  0  0  0  0  0  0
  182.1190  180.9260  138.8370 C   0  0  0  0  0  3  0  0  0  0  0  0
  181.5980  178.9680  137.5090 C   0  0  0  0  0  0  0  0  0  0  0  0
  182.9480  178.5680  137.5590 C   0  0  0  0  0  0  0  0  0  0  0  0
  181.1920  180.1470  138.1410 C   0  0  0  0  0  3  0  0  0  0  0  0
  183.8780  179.3470  138.2730 C   0  0  0  0  0  0  0  0  0  0  0  0
  183.3910  177.2780  136.9300 C   0  0  0  0  0  2  0  0  0  0  0  0
  182.7900  176.0570  138.8960 O   0  0  0  0  0  0  0  0  0  0  0  0
  182.8300  176.0830  137.6370 C   0  0  0  0  0  0  0  0  0  0  0  0
  182.3180  175.0100  136.9090 O   0  0  0  0  0  0  0  0  0  0  0  0
  183.0080  174.4850  135.8890 O   0  0  0  0  0  0  0  0  0  0  0  0
  183.8010  173.4890  136.4580 C   0  0  0  0  0  2  0  0  0  0  0  0
  185.2000  173.5680  135.8780 C   0  0  0  0  0  2  0  0  0  0  0  0
  185.6080  172.7950  138.1030 O   0  0  0  0  0  1  0  0  0  0  0  0
  186.2120  173.0170  136.8650 C   0  0  0  0  0  2  0  0  0  0  0  0
  1 21  1  1  0  0  0
  1  9  1  0  0  0  0
  2 19  1  0  0  0  0
  3  9  2  0  0  0  0
  4  9  1  6  0  0  0
  4 27  1  0  0  0  0
  5 21  1  6  0  0  0
  5  4  1  0  0  0  0
  5  2  1  0  0  0  0
  6 23  1  0  0  0  0
  7 16  1  0  0  0  0
  8 24  1  0  0  0  0
 10 12  1  0  0  0  0
 11 45  1  6  0  0  0
 11 10  1  0  0  0  0
 12  1  1  0  0  0  0
 13 25  1  0  0  0  0
 14 25  2  0  0  0  0
 15 20  1  0  0  0  0
 16 18  1  0  0  0  0
 17 22  1  0  0  0  0
 17  8  2  0  0  0  0
 19 18  2  0  0  0  0
 20 28  1  0  0  0  0
 22 15  2  0  0  0  0
 23 11  1  0  0  0  0
 24 20  2  0  0  0  0
 24  3  1  0  0  0  0
 25 17  1  0  0  0  0
 26  6  1  0  0  0  0
 26 13  1  0  0  0  0
 27  7  2  0  0  0  0
 27 19  1  0  0  0  0
 29 14  1  0  0  0  0
 30 29  1  0  0  0  0
 30 31  1  0  0  0  0
 32 44  1  6  0  0  0
 33 32  1  0  0  0  0
 34 36  1  0  0  0  0
 34 33  1  0  0  0  0
 34 31  1  1  0  0  0
 35 32  1  0  0  0  0
 35 37  1  1  0  0  0
 36 35  1  0  0  0  0
 37 38  1  0  0  0  0
 37 40  1  0  0  0  0
 39 37  1  0  0  0  0
 41 44  2  0  0  0  0
 42 43  1  0  0  0  0
 44 42  1  0  0  0  0
 46 49  1  0  0  0  0
 48 47  1  0  0  0  0
 49 50  2  0  0  0  0
 49 51  1  0  0  0  0
 50 52  1  0  0  0  0
 51 48  2  0  0  0  0
 52 45  1  0  0  0  0
 52 47  2  0  0  0  0
 53 50  1  0  0  0  0
 53 55  1  0  0  0  0
 55 54  2  0  0  0  0
 56 55  1  0  0  0  0
 57 58  1  0  0  0  0
 57 56  1  0  0  0  0
 59 58  1  0  0  0  0
 59 61  1  0  0  0  0
 61 60  1  0  0  0  0
M  END
>  <MODEL>
7

>  <REMARK>
 VINA RESULT:      -6.3      2.680      7.615
  Name = 
  15 active torsions:
  status: ('A' for Active; 'I' for Inactive)
    1  A    between atoms: C_1  and  C_8
    2  A    between atoms: C_1  and  C_25
    3  A    between atoms: O_2  and  C_58
    4  A    between atoms: O_2  and  O_59
    5  A    between atoms: C_8  and  C_26
    6  A    between atoms: C_9  and  C_57
    7  A    between atoms: C_11  and  C_49
    8  A    between atoms: C_11  and  C_58
    9  A    between atoms: C_20  and  C_29
   10  A    between atoms: C_21  and  N_35
   11  A    between atoms: C_23  and  C_37
   12  A    between atoms: C_23  and  O_59
   13  A    between atoms: C_25  and  C_28
   14  A    between atoms: N_35  and  C_55
   15  A    between atoms: C_37  and  C_47
                            x       y       z     vdW  Elec       q    Type
                         _______ _______ _______ _____ _____    ______ ____

>  <TORSDO>
F 15

$$$$
=
 OpenBabel10232407513D

 61 67  0  0  1  0  0  0  0  0999 V2000
  188.9410  174.5780  136.7170 C   0  0  1  0  0  3  0  0  0  0  0  0
  191.5250  172.7060  134.3570 S   0  0  0  0  0  0  0  0  0  0  0  0
  190.2010  176.6870  137.0100 N   0  0  0  0  0  0  0  0  0  0  0  0
  190.6680  175.2890  135.0770 C   0  0  1  0  0  3  0  0  0  0  0  0
  190.1380  173.8970  134.6720 C   0  0  2  0  0  3  0  0  0  0  0  0
  184.5060  176.1070  138.0790 C   0  0  0  0  0  2  0  0  0  0  0  0
  193.1600  175.9990  135.3330 C   0  0  0  0  0  3  0  0  0  0  0  0
  188.1990  177.4310  138.2470 C   0  0  0  0  0  3  0  0  0  0  0  0
  189.9290  175.6180  136.3200 C   0  0  0  0  0  0  0  0  0  0  0  0
  186.7780  174.2780  137.1850 C   0  0  0  0  0  2  0  0  0  0  0  0
  185.3950  174.3100  136.5500 C   0  0  2  0  0  3  0  0  0  0  0  0
  187.6570  175.0280  136.3970 O   0  0  0  0  0  0  0  0  0  0  0  0
  185.4070  178.4470  138.1410 C   0  0  0  0  0  2  0  0  0  0  0  0
  185.6260  178.7330  140.5970 C   0  0  0  0  0  3  0  0  0  0  0  0
  189.7530  177.7470  140.5530 C   0  0  0  0  0  3  0  0  0  0  0  0
  194.2370  175.2890  135.0360 O   0  0  0  0  0  0  0  0  0  0  0  0
  187.6020  177.9300  139.4210 C   0  0  0  0  0  0  0  0  0  0  0  0
  193.9550  174.0390  134.7820 N   0  0  0  0  0  0  0  0  0  0  0  0
  192.6390  173.9180  135.0010 C   0  0  0  0  0  0  0  0  0  0  0  0
  190.3370  177.2640  139.3810 C   0  0  0  0  0  0  0  0  0  0  0  0
  189.2970  173.3830  135.8370 C   0  0  0  0  0  2  0  0  0  0  0  0
  188.3990  178.0780  140.5720 C   0  0  0  0  0  3  0  0  0  0  0  0
  184.7940  175.7100  136.6410 C   0  0  0  0  0  2  0  0  0  0  0  0
  189.5600  177.0860  138.2270 C   0  0  0  0  0  0  0  0  0  0  0  0
  186.1780  178.3550  139.4360 C   0  0  0  0  0  0  0  0  0  0  0  0
  184.1540  177.5790  138.1470 C   0  0  0  0  0  2  0  0  0  0  0  0
  192.1130  175.1040  135.3270 C   0  0  0  0  0  0  0  0  0  0  0  0
  191.6920  176.9550  139.3720 O   0  0  0  0  0  1  0  0  0  0  0  0
  184.2360  179.2580  140.7460 C   0  0  0  0  0  2  0  0  0  0  0  0
  183.6570  178.8490  142.0930 C   0  0  0  0  0  2  0  0  0  0  0  0
  184.6660  179.0520  143.2180 C   0  0  0  0  0  2  0  0  0  0  0  0
  187.2650  178.3310  145.0410 C   0  0  1  0  0  3  0  0  0  0  0  0
  186.9770  177.6000  143.4220 S   0  0  0  0  0  0  0  0  0  0  0  0
  185.2020  177.7220  143.7340 C   0  0  1  0  0  3  0  0  0  0  0  0
  186.1110  177.9270  145.9470 C   0  0  2  0  0  3  0  0  0  0  0  0
  184.9250  177.5750  145.1600 N   0  0  0  0  0  2  0  0  0  0  0  0
  185.7730  179.0240  146.9580 C   0  0  0  0  0  0  0  0  0  0  0  0
  184.5120  178.8130  147.4860 F   0  0  0  0  0  0  0  0  0  0  0  0
  185.7870  180.2530  146.3220 F   0  0  0  0  0  0  0  0  0  0  0  0
  186.7030  179.0340  147.9850 F   0  0  0  0  0  0  0  0  0  0  0  0
  189.6530  178.3550  145.1790 O   0  0  0  0  0  0  0  0  0  0  0  0
  188.5780  176.8540  146.6060 N   0  0  0  0  0  2  0  0  0  0  0  0
  189.8140  176.3450  147.1760 C   0  0  0  0  0  1  0  0  0  0  0  0
  188.5700  177.8610  145.5970 C   0  0  0  0  0  0  0  0  0  0  0  0
  184.5040  173.3360  137.1680 N   0  0  0  0  0  2  0  0  0  0  0  0
  180.5210  170.9060  135.7010 O   0  0  0  0  0  1  0  0  0  0  0  0
  184.6890  171.3120  135.7740 C   0  0  0  0  0  3  0  0  0  0  0  0
  184.0960  170.2590  135.0780 C   0  0  0  0  0  3  0  0  0  0  0  0
  181.9040  171.0470  135.7460 C   0  0  0  0  0  0  0  0  0  0  0  0
  182.4970  172.1020  136.4670 C   0  0  0  0  0  0  0  0  0  0  0  0
  182.7050  170.1280  135.0630 C   0  0  0  0  0  3  0  0  0  0  0  0
  183.8990  172.2400  136.4710 C   0  0  0  0  0  0  0  0  0  0  0  0
  181.6500  173.1280  137.1640 C   0  0  0  0  0  2  0  0  0  0  0  0
  181.5870  174.2290  135.0430 O   0  0  0  0  0  0  0  0  0  0  0  0
  181.1520  174.1810  136.2240 C   0  0  0  0  0  0  0  0  0  0  0  0
  180.1790  175.0910  136.6370 O   0  0  0  0  0  0  0  0  0  0  0  0
  180.2250  175.6310  137.8620 O   0  0  0  0  0  0  0  0  0  0  0  0
  180.6670  176.9400  137.6670 C   0  0  0  0  0  2  0  0  0  0  0  0
  180.0950  177.8290  138.7540 C   0  0  0  0  0  2  0  0  0  0  0  0
  180.8490  177.6030  141.0110 O   0  0  0  0  0  1  0  0  0  0  0  0
  179.9850  177.0620  140.0590 C   0  0  0  0  0  2  0  0  0  0  0  0
  1 21  1  6  0  0  0
  2  5  1  0  0  0  0
  2 19  1  0  0  0  0
  3 24  1  0  0  0  0
  4 27  1  1  0  0  0
  4  9  1  0  0  0  0
  5  4  1  0  0  0  0
  5 21  1  1  0  0  0
  6 26  1  0  0  0  0
  8 17  1  0  0  0  0
  9  1  1  0  0  0  0
  9  3  2  0  0  0  0
 11 23  1  0  0  0  0
 11 45  1  1  0  0  0
 11 10  1  0  0  0  0
 12  1  1  0  0  0  0
 12 10  1  0  0  0  0
 13 26  1  0  0  0  0
 13 25  1  0  0  0  0
 14 29  1  0  0  0  0
 15 22  1  0  0  0  0
 16  7  1  0  0  0  0
 17 25  1  0  0  0  0
 17 22  2  0  0  0  0
 18 19  2  0  0  0  0
 18 16  1  0  0  0  0
 19 27  1  0  0  0  0
 20 15  2  0  0  0  0
 23  6  1  0  0  0  0
 24  8  2  0  0  0  0
 24 20  1  0  0  0  0
 25 14  2  0  0  0  0
 27  7  2  0  0  0  0
 28 20  1  0  0  0  0
 29 30  1  0  0  0  0
 30 31  1  0  0  0  0
 32 44  1  1  0  0  0
 32 35  1  0  0  0  0
 33 34  1  0  0  0  0
 33 32  1  0  0  0  0
 34 31  1  1  0  0  0
 34 36  1  0  0  0  0
 35 37  1  1  0  0  0
 36 35  1  0  0  0  0
 37 38  1  0  0  0  0
 37 40  1  0  0  0  0
 39 37  1  0  0  0  0
 41 44  2  0  0  0  0
 42 43  1  0  0  0  0
 44 42  1  0  0  0  0
 46 49  1  0  0  0  0
 47 52  1  0  0  0  0
 48 47  2  0  0  0  0
 49 50  1  0  0  0  0
 50 52  2  0  0  0  0
 50 53  1  0  0  0  0
 51 48  1  0  0  0  0
 51 49  2  0  0  0  0
 52 45  1  0  0  0  0
 54 55  2  0  0  0  0
 55 56  1  0  0  0  0
 55 53  1  0  0  0  0
 56 57  1  0  0  0  0
 58 57  1  0  0  0  0
 58 59  1  0  0  0  0
 59 61  1  0  0  0  0
 61 60  1  0  0  0  0
M  END
>  <MODEL>
8

>  <REMARK>
 VINA RESULT:      -6.2      4.339     10.732
  Name = 
  15 active torsions:
  status: ('A' for Active; 'I' for Inactive)
    1  A    between atoms: C_1  and  C_8
    2  A    between atoms: C_1  and  C_25
    3  A    between atoms: O_2  and  C_58
    4  A    between atoms: O_2  and  O_59
    5  A    between atoms: C_8  and  C_26
    6  A    between atoms: C_9  and  C_57
    7  A    between atoms: C_11  and  C_49
    8  A    between atoms: C_11  and  C_58
    9  A    between atoms: C_20  and  C_29
   10  A    between atoms: C_21  and  N_35
   11  A    between atoms: C_23  and  C_37
   12  A    between atoms: C_23  and  O_59
   13  A    between atoms: C_25  and  C_28
   14  A    between atoms: N_35  and  C_55
   15  A    between atoms: C_37  and  C_47
                            x       y       z     vdW  Elec       q    Type
                         _______ _______ _______ _____ _____    ______ ____

>  <TORSDO>
F 15

$$$$
=
 OpenBabel10232407513D

 61 67  0  0  1  0  0  0  0  0999 V2000
  187.9720  177.8050  141.5580 C   0  0  1  0  0  3  0  0  0  0  0  0
  185.9300  178.3610  144.9150 S   0  0  0  0  0  0  0  0  0  0  0  0
  189.9450  176.6750  142.5330 N   0  0  0  0  0  0  0  0  0  0  0  0
  187.8450  176.6530  143.7580 C   0  0  1  0  0  3  0  0  0  0  0  0
  186.4910  177.3380  143.4740 C   0  0  2  0  0  3  0  0  0  0  0  0
  188.5230  176.4740  136.8900 C   0  0  0  0  0  2  0  0  0  0  0  0
  189.2650  176.8410  145.9330 C   0  0  0  0  0  3  0  0  0  0  0  0
  190.6580  176.4150  140.1850 C   0  0  0  0  0  3  0  0  0  0  0  0
  188.6860  176.9990  142.5860 C   0  0  0  0  0  0  0  0  0  0  0  0
  187.4230  177.8270  139.3940 C   0  0  0  0  0  2  0  0  0  0  0  0
  186.5720  177.0990  138.3620 C   0  0  2  0  0  3  0  0  0  0  0  0
  187.6440  176.9760  140.4820 O   0  0  0  0  0  0  0  0  0  0  0  0
  190.3750  174.9470  137.6160 C   0  0  0  0  0  2  0  0  0  0  0  0
  192.3240  176.2860  136.8620 C   0  0  0  0  0  3  0  0  0  0  0  0
  192.9410  177.9430  140.7190 C   0  0  0  0  0  3  0  0  0  0  0  0
  188.9330  177.4400  147.0650 O   0  0  0  0  0  0  0  0  0  0  0  0
  191.6070  176.6220  139.1660 C   0  0  0  0  0  0  0  0  0  0  0  0
  187.8540  178.1660  146.9470 N   0  0  0  0  0  0  0  0  0  0  0  0
  187.5140  178.0930  145.6530 C   0  0  0  0  0  0  0  0  0  0  0  0
  192.0000  177.7230  141.7260 C   0  0  0  0  0  0  0  0  0  0  0  0
  186.6960  178.2500  142.2670 C   0  0  0  0  0  2  0  0  0  0  0  0
  192.7470  177.3970  139.4510 C   0  0  0  0  0  3  0  0  0  0  0  0
  187.3610  175.9590  137.7240 C   0  0  0  0  0  2  0  0  0  0  0  0
  190.8450  176.9740  141.4600 C   0  0  0  0  0  0  0  0  0  0  0  0
  191.4500  175.9850  137.8310 C   0  0  0  0  0  0  0  0  0  0  0  0
  189.4210  175.3220  136.4880 C   0  0  0  0  0  2  0  0  0  0  0  0
  188.3490  177.2760  145.0010 C   0  0  0  0  0  0  0  0  0  0  0  0
  192.2160  178.2590  142.9900 O   0  0  0  0  0  1  0  0  0  0  0  0
  192.3350  175.6640  135.5050 C   0  0  0  0  0  2  0  0  0  0  0  0
  193.6710  174.9810  135.2450 C   0  0  0  0  0  2  0  0  0  0  0  0
  193.5020  173.4770  135.0620 C   0  0  0  0  0  2  0  0  0  0  0  0
  195.5310  171.4730  136.6330 C   0  0  1  0  0  3  0  0  0  0  0  0
  193.8370  171.0230  136.2280 S   0  0  0  0  0  0  0  0  0  0  0  0
  193.3810  172.7620  136.4030 C   0  0  1  0  0  3  0  0  0  0  0  0
  195.4840  172.6790  137.5590 C   0  0  2  0  0  3  0  0  0  0  0  0
  194.2220  173.4090  137.4070 N   0  0  0  0  0  2  0  0  0  0  0  0
  196.6710  173.6170  137.3310 C   0  0  0  0  0  0  0  0  0  0  0  0
  197.5670  173.5160  138.3810 F   0  0  0  0  0  0  0  0  0  0  0  0
  196.2180  174.9220  137.2580 F   0  0  0  0  0  0  0  0  0  0  0  0
  197.3170  173.2940  136.1470 F   0  0  0  0  0  0  0  0  0  0  0  0
  197.4630  170.1390  137.0900 O   0  0  0  0  0  0  0  0  0  0  0  0
  195.4930  169.4470  138.1320 N   0  0  0  0  0  2  0  0  0  0  0  0
  196.1120  168.3050  138.7830 C   0  0  0  0  0  1  0  0  0  0  0  0
  196.2310  170.3250  137.2850 C   0  0  0  0  0  0  0  0  0  0  0  0
  186.0840  178.0120  137.3360 N   0  0  0  0  0  2  0  0  0  0  0  0
  181.2490  177.9770  136.6020 O   0  0  0  0  0  1  0  0  0  0  0  0
  185.1300  177.3040  135.1770 C   0  0  0  0  0  3  0  0  0  0  0  0
  184.0270  177.0710  134.3550 C   0  0  0  0  0  3  0  0  0  0  0  0
  182.5430  177.7450  136.1490 C   0  0  0  0  0  0  0  0  0  0  0  0
  183.6510  177.9640  136.9910 C   0  0  0  0  0  0  0  0  0  0  0  0
  182.7360  177.2940  134.8400 C   0  0  0  0  0  3  0  0  0  0  0  0
  184.9530  177.7510  136.4970 C   0  0  0  0  0  0  0  0  0  0  0  0
  183.4650  178.4980  138.3820 C   0  0  0  0  0  2  0  0  0  0  0  0
  183.3610  177.6800  140.6260 O   0  0  0  0  0  0  0  0  0  0  0  0
  183.3590  177.4030  139.3970 C   0  0  0  0  0  0  0  0  0  0  0  0
  183.2220  176.0770  138.9900 O   0  0  0  0  0  0  0  0  0  0  0  0
  182.0140  175.5010  138.9320 O   0  0  0  0  0  0  0  0  0  0  0  0
  182.0520  174.6860  137.8010 C   0  0  0  0  0  2  0  0  0  0  0  0
  183.4960  174.3820  137.4490 C   0  0  0  0  0  2  0  0  0  0  0  0
  182.3040  173.6030  135.5280 O   0  0  0  0  0  1  0  0  0  0  0  0
  183.5800  173.7530  136.0700 C   0  0  0  0  0  2  0  0  0  0  0  0
  1 21  1  1  0  0  0
  1  9  1  0  0  0  0
  2 19  1  0  0  0  0
  3  9  2  0  0  0  0
  4  9  1  6  0  0  0
  4 27  1  0  0  0  0
  5 21  1  6  0  0  0
  5  4  1  0  0  0  0
  5  2  1  0  0  0  0
  6 23  1  0  0  0  0
  7 16  1  0  0  0  0
  8 24  1  0  0  0  0
 10 12  1  0  0  0  0
 11 45  1  6  0  0  0
 11 10  1  0  0  0  0
 12  1  1  0  0  0  0
 13 25  1  0  0  0  0
 14 25  2  0  0  0  0
 15 20  1  0  0  0  0
 17 22  1  0  0  0  0
 17  8  2  0  0  0  0
 18 16  1  0  0  0  0
 19 18  2  0  0  0  0
 20 28  1  0  0  0  0
 22 15  2  0  0  0  0
 23 11  1  0  0  0  0
 24 20  2  0  0  0  0
 24  3  1  0  0  0  0
 25 17  1  0  0  0  0
 26  6  1  0  0  0  0
 26 13  1  0  0  0  0
 27 19  1  0  0  0  0
 27  7  2  0  0  0  0
 29 14  1  0  0  0  0
 30 29  1  0  0  0  0
 31 30  1  0  0  0  0
 32 44  1  1  0  0  0
 32 35  1  0  0  0  0
 33 34  1  0  0  0  0
 33 32  1  0  0  0  0
 34 31  1  6  0  0  0
 34 36  1  0  0  0  0
 35 37  1  6  0  0  0
 36 35  1  0  0  0  0
 37 38  1  0  0  0  0
 39 37  1  0  0  0  0
 40 37  1  0  0  0  0
 41 44  2  0  0  0  0
 42 43  1  0  0  0  0
 44 42  1  0  0  0  0
 47 52  1  0  0  0  0
 48 51  1  0  0  0  0
 48 47  2  0  0  0  0
 49 46  1  0  0  0  0
 49 50  1  0  0  0  0
 50 53  1  0  0  0  0
 51 49  2  0  0  0  0
 52 50  2  0  0  0  0
 52 45  1  0  0  0  0
 53 55  1  0  0  0  0
 55 54  2  0  0  0  0
 56 55  1  0  0  0  0
 57 56  1  0  0  0  0
 58 57  1  0  0  0  0
 59 58  1  0  0  0  0
 60 61  1  0  0  0  0
 61 59  1  0  0  0  0
M  END
>  <MODEL>
9

>  <REMARK>
 VINA RESULT:      -6.2      2.822      7.756
  Name = 
  15 active torsions:
  status: ('A' for Active; 'I' for Inactive)
    1  A    between atoms: C_1  and  C_8
    2  A    between atoms: C_1  and  C_25
    3  A    between atoms: O_2  and  C_58
    4  A    between atoms: O_2  and  O_59
    5  A    between atoms: C_8  and  C_26
    6  A    between atoms: C_9  and  C_57
    7  A    between atoms: C_11  and  C_49
    8  A    between atoms: C_11  and  C_58
    9  A    between atoms: C_20  and  C_29
   10  A    between atoms: C_21  and  N_35
   11  A    between atoms: C_23  and  C_37
   12  A    between atoms: C_23  and  O_59
   13  A    between atoms: C_25  and  C_28
   14  A    between atoms: N_35  and  C_55
   15  A    between atoms: C_37  and  C_47
                            x       y       z     vdW  Elec       q    Type
                         _______ _______ _______ _____ _____    ______ ____

>  <TORSDO>
F 15

$$$$
