=
 OpenBabel10222421483D

 31 34  0  0  1  0  0  0  0  0999 V2000
  189.9210  178.3710  141.4650 N   0  0  0  0  0  0  0  0  0  0  0  0
  189.9180  178.5510  142.8090 O   0  0  0  0  0  0  0  0  0  0  0  0
  193.3610  174.1920  137.5490 C   0  0  0  0  0  2  0  0  0  0  0  0
  191.2000  177.9250  140.9440 C   0  0  1  0  0  3  0  0  0  0  0  0
  192.3690  175.2460  138.0280 C   0  0  0  0  0  2  0  0  0  0  0  0
  189.8490  175.6370  138.2790 N   0  0  0  0  0  2  0  0  0  0  0  0
  189.9230  176.6350  139.3060 C   0  0  0  0  0  0  0  0  0  0  0  0
  193.0190  173.7820  136.1290 C   0  0  0  0  0  2  0  0  0  0  0  0
  188.6960  178.1370  140.7580 C   0  0  0  0  0  0  0  0  0  0  0  0
  190.6530  173.9950  136.8060 N   0  0  0  0  0  0  0  0  0  0  0  0
  191.8650  177.3470  142.1580 C   0  0  0  0  0  2  0  0  0  0  0  0
  188.6840  177.3070  139.7190 C   0  0  0  0  0  3  0  0  0  0  0  0
  190.8530  177.6060  143.2780 C   0  0  2  0  0  3  0  0  0  0  0  0
  190.9340  174.8910  137.7090 C   0  0  0  0  0  0  0  0  0  0  0  0
  191.6410  173.1350  136.1480 C   0  0  0  0  0  2  0  0  0  0  0  0
  191.0450  176.8930  139.9140 N   0  0  0  0  0  0  0  0  0  0  0  0
  190.1420  176.3110  143.6820 C   0  0  2  0  0  3  0  0  0  0  0  0
  190.2650  175.3510  142.6740 O   0  0  0  0  0  1  0  0  0  0  0  0
  188.6670  176.5300  144.0260 C   0  0  0  0  0  2  0  0  0  0  0  0
  188.4700  177.3950  145.2660 C   0  0  2  0  0  3  0  0  0  0  0  0
  189.1860  176.8040  146.4500 C   0  0  0  0  0  3  0  0  0  0  0  0
  188.9180  177.2750  147.6710 C   0  0  0  0  0  3  0  0  0  0  0  0
  186.9730  177.5360  145.5680 C   0  0  0  0  0  2  0  0  0  0  0  0
  186.6660  178.0960  146.9740 C   0  0  0  0  0  2  0  0  0  0  0  0
  187.9140  178.3810  147.8230 C   0  0  0  0  0  2  0  0  0  0  0  0
  187.4180  178.7230  141.2470 C   0  0  0  0  0  2  0  0  0  0  0  0
  185.0450  178.9110  140.4180 C   0  0  0  0  0  0  0  0  0  0  0  0
  184.6190  179.1140  141.5860 O   0  0  0  0  0  0  0  0  0  0  0  0
  186.4360  178.7160  140.1740 N   0  0  0  0  0  2  0  0  0  0  0  0
  183.3750  178.8380  138.4360 N   0  0  0  0  0  0  0  0  0  0  0  0
  184.1210  178.8710  139.3200 C   0  0  0  0  0  0  0  0  0  0  0  0
  1  2  1  0  0  0  0
  2 13  1  0  0  0  0
  3  5  1  0  0  0  0
  4  1  1  0  0  0  0
  4 11  1  1  0  0  0
  6  7  1  0  0  0  0
  7 12  1  0  0  0  0
  7 16  2  0  0  0  0
  8 15  1  0  0  0  0
  8  3  1  0  0  0  0
  9 26  1  0  0  0  0
  9  1  1  0  0  0  0
 10 14  2  0  0  0  0
 11 13  1  0  0  0  0
 12  9  2  0  0  0  0
 13 17  1  6  0  0  0
 14  5  1  0  0  0  0
 14  6  1  0  0  0  0
 15 10  1  0  0  0  0
 16  4  1  0  0  0  0
 17 18  1  6  0  0  0
 17 19  1  0  0  0  0
 20 19  1  6  0  0  0
 20 23  1  0  0  0  0
 20 21  1  0  0  0  0
 21 22  2  0  0  0  0
 22 25  1  0  0  0  0
 23 24  1  0  0  0  0
 24 25  1  0  0  0  0
 27 28  2  0  0  0  0
 29 27  1  0  0  0  0
 29 26  1  0  0  0  0
 30 31  3  0  0  0  0
 31 27  1  0  0  0  0
M  END
>  <MODEL>
1

>  <REMARK>
 VINA RESULT:      -8.1      0.000      0.000
  Name = 
  6 active torsions:
  status: ('A' for Active; 'I' for Inactive)
    1  A    between atoms: C_2  and  C_15
    2  A    between atoms: C_2  and  N_28
    3  A    between atoms: C_3  and  C_26
    4  A    between atoms: C_5  and  C_16
    5  A    between atoms: C_5  and  C_23
    6  A    between atoms: C_8  and  C_16
                            x       y       z     vdW  Elec       q    Type
                         _______ _______ _______ _____ _____    ______ ____

>  <TORSDO>
F 6

$$$$
=
 OpenBabel10222421483D

 31 34  0  0  1  0  0  0  0  0999 V2000
  188.8240  177.0420  144.3520 N   0  0  0  0  0  0  0  0  0  0  0  0
  188.0770  177.0530  145.4830 O   0  0  0  0  0  0  0  0  0  0  0  0
  187.1110  177.0850  137.8940 C   0  0  0  0  0  2  0  0  0  0  0  0
  188.1730  176.3840  143.2340 C   0  0  1  0  0  3  0  0  0  0  0  0
  187.9350  177.1140  139.1770 C   0  0  0  0  0  2  0  0  0  0  0  0
  189.4520  178.6710  140.5330 N   0  0  0  0  0  2  0  0  0  0  0  0
  189.2800  178.0300  141.8030 C   0  0  0  0  0  0  0  0  0  0  0  0
  187.9890  177.4740  136.7200 C   0  0  0  0  0  2  0  0  0  0  0  0
  189.8620  178.0120  144.1550 C   0  0  0  0  0  0  0  0  0  0  0  0
  189.0580  179.0860  138.2560 N   0  0  0  0  0  0  0  0  0  0  0  0
  186.7250  176.4270  143.6260 C   0  0  0  0  0  2  0  0  0  0  0  0
  190.0910  178.4920  142.9370 C   0  0  0  0  0  3  0  0  0  0  0  0
  186.7490  177.0830  145.0100 C   0  0  2  0  0  3  0  0  0  0  0  0
  188.7900  178.3540  139.2990 C   0  0  0  0  0  0  0  0  0  0  0  0
  188.4490  178.9090  136.9340 C   0  0  0  0  0  2  0  0  0  0  0  0
  188.3770  177.1080  141.9750 N   0  0  0  0  0  0  0  0  0  0  0  0
  186.2430  178.5270  144.9390 C   0  0  2  0  0  3  0  0  0  0  0  0
  186.4360  179.1730  146.1630 O   0  0  0  0  0  1  0  0  0  0  0  0
  184.7740  178.6180  144.5190 C   0  0  0  0  0  2  0  0  0  0  0  0
  184.5620  178.3200  143.0390 C   0  0  2  0  0  3  0  0  0  0  0  0
  185.4840  179.1510  142.1880 C   0  0  0  0  0  3  0  0  0  0  0  0
  185.2650  179.2180  140.8720 C   0  0  0  0  0  3  0  0  0  0  0  0
  183.1010  178.5910  142.6600 C   0  0  0  0  0  2  0  0  0  0  0  0
  182.8480  178.6520  141.1370 C   0  0  0  0  0  2  0  0  0  0  0  0
  184.1100  178.4610  140.2830 C   0  0  0  0  0  2  0  0  0  0  0  0
  190.6050  178.5700  145.3190 C   0  0  0  0  0  2  0  0  0  0  0  0
  191.2610  176.9460  147.1320 C   0  0  0  0  0  0  0  0  0  0  0  0
  190.2570  177.2630  147.8230 O   0  0  0  0  0  0  0  0  0  0  0  0
  191.4920  177.5540  145.8630 N   0  0  0  0  0  2  0  0  0  0  0  0
  192.9290  175.1740  148.0250 N   0  0  0  0  0  0  0  0  0  0  0  0
  192.1850  175.9650  147.6260 C   0  0  0  0  0  0  0  0  0  0  0  0
  1  2  1  0  0  0  0
  3  5  1  0  0  0  0
  4 11  1  1  0  0  0
  4  1  1  0  0  0  0
  5 14  1  0  0  0  0
  6  7  1  0  0  0  0
  7 16  2  0  0  0  0
  7 12  1  0  0  0  0
  8 15  1  0  0  0  0
  8  3  1  0  0  0  0
  9  1  1  0  0  0  0
  9 26  1  0  0  0  0
 10 14  2  0  0  0  0
 11 13  1  0  0  0  0
 12  9  2  0  0  0  0
 13 17  1  6  0  0  0
 13  2  1  0  0  0  0
 14  6  1  0  0  0  0
 15 10  1  0  0  0  0
 16  4  1  0  0  0  0
 17 18  1  1  0  0  0
 19 17  1  0  0  0  0
 20 19  1  1  0  0  0
 21 20  1  0  0  0  0
 22 21  2  0  0  0  0
 23 20  1  0  0  0  0
 24 23  1  0  0  0  0
 25 22  1  0  0  0  0
 25 24  1  0  0  0  0
 26 29  1  0  0  0  0
 27 31  1  0  0  0  0
 27 28  2  0  0  0  0
 29 27  1  0  0  0  0
 31 30  3  0  0  0  0
M  END
>  <MODEL>
2

>  <REMARK>
 VINA RESULT:      -7.3      3.379      6.458
  Name = 
  6 active torsions:
  status: ('A' for Active; 'I' for Inactive)
    1  A    between atoms: C_2  and  C_15
    2  A    between atoms: C_2  and  N_28
    3  A    between atoms: C_3  and  C_26
    4  A    between atoms: C_5  and  C_16
    5  A    between atoms: C_5  and  C_23
    6  A    between atoms: C_8  and  C_16
                            x       y       z     vdW  Elec       q    Type
                         _______ _______ _______ _____ _____    ______ ____

>  <TORSDO>
F 6

$$$$
=
 OpenBabel10222421483D

 31 34  0  0  1  0  0  0  0  0999 V2000
  190.0620  177.5640  137.1500 N   0  0  0  0  0  0  0  0  0  0  0  0
  189.6850  177.2820  135.8780 O   0  0  0  0  0  0  0  0  0  0  0  0
  186.5580  178.0860  142.8140 C   0  0  0  0  0  2  0  0  0  0  0  0
  189.0390  178.2460  137.9200 C   0  0  1  0  0  3  0  0  0  0  0  0
  187.7170  178.0260  141.8250 C   0  0  0  0  0  2  0  0  0  0  0  0
  189.7410  176.5760  141.2180 N   0  0  0  0  0  2  0  0  0  0  0  0
  189.8710  177.0090  139.8580 C   0  0  0  0  0  0  0  0  0  0  0  0
  187.0950  178.0050  144.2300 C   0  0  0  0  0  2  0  0  0  0  0  0
  191.1070  176.8130  137.7840 C   0  0  0  0  0  0  0  0  0  0  0  0
  188.7520  176.4050  143.3410 N   0  0  0  0  0  0  0  0  0  0  0  0
  187.7850  177.9130  137.1660 C   0  0  0  0  0  2  0  0  0  0  0  0
  191.0270  176.5420  139.0820 C   0  0  0  0  0  3  0  0  0  0  0  0
  188.2910  177.0950  135.9740 C   0  0  2  0  0  3  0  0  0  0  0  0
  188.7150  176.9390  142.1540 C   0  0  0  0  0  0  0  0  0  0  0  0
  187.7680  176.6510  144.3990 C   0  0  0  0  0  2  0  0  0  0  0  0
  188.9520  177.7380  139.2930 N   0  0  0  0  0  0  0  0  0  0  0  0
  187.9660  175.6090  136.1550 C   0  0  2  0  0  3  0  0  0  0  0  0
  187.4760  175.0670  134.9630 O   0  0  0  0  0  1  0  0  0  0  0  0
  186.9770  175.3560  137.2960 C   0  0  0  0  0  2  0  0  0  0  0  0
  185.7550  174.5580  136.8540 C   0  0  2  0  0  3  0  0  0  0  0  0
  184.4860  175.2660  137.2440 C   0  0  0  0  0  3  0  0  0  0  0  0
  183.3280  174.6040  137.1750 C   0  0  0  0  0  3  0  0  0  0  0  0
  185.7950  173.1590  137.4810 C   0  0  0  0  0  2  0  0  0  0  0  0
  184.4600  172.3890  137.3840 C   0  0  0  0  0  2  0  0  0  0  0  0
  183.3280  173.1770  136.7080 C   0  0  0  0  0  2  0  0  0  0  0  0
  192.2190  176.2380  136.9780 C   0  0  0  0  0  2  0  0  0  0  0  0
  194.2650  174.9140  137.6230 C   0  0  0  0  0  0  0  0  0  0  0  0
  194.9960  175.6190  136.8780 O   0  0  0  0  0  0  0  0  0  0  0  0
  192.8670  175.1740  137.7290 N   0  0  0  0  0  2  0  0  0  0  0  0
  195.3070  172.9640  138.9770 N   0  0  0  0  0  0  0  0  0  0  0  0
  194.8420  173.8350  138.3730 C   0  0  0  0  0  0  0  0  0  0  0  0
  1  9  1  0  0  0  0
  1  4  1  0  0  0  0
  2 13  1  0  0  0  0
  2  1  1  0  0  0  0
  3  8  1  0  0  0  0
  4 11  1  6  0  0  0
  4 16  1  0  0  0  0
  5 14  1  0  0  0  0
  5  3  1  0  0  0  0
  6 14  1  0  0  0  0
  7  6  1  0  0  0  0
  8 15  1  0  0  0  0
  9 12  2  0  0  0  0
 10 15  1  0  0  0  0
 12  7  1  0  0  0  0
 13 17  1  1  0  0  0
 13 11  1  0  0  0  0
 14 10  2  0  0  0  0
 16  7  2  0  0  0  0
 17 18  1  6  0  0  0
 17 19  1  0  0  0  0
 20 21  1  0  0  0  0
 20 19  1  1  0  0  0
 20 23  1  0  0  0  0
 22 21  2  0  0  0  0
 24 23  1  0  0  0  0
 25 22  1  0  0  0  0
 25 24  1  0  0  0  0
 26 29  1  0  0  0  0
 26  9  1  0  0  0  0
 27 29  1  0  0  0  0
 27 31  1  0  0  0  0
 28 27  2  0  0  0  0
 31 30  3  0  0  0  0
M  END
>  <MODEL>
3

>  <REMARK>
 VINA RESULT:      -7.3      3.950      8.496
  Name = 
  6 active torsions:
  status: ('A' for Active; 'I' for Inactive)
    1  A    between atoms: C_2  and  C_15
    2  A    between atoms: C_2  and  N_28
    3  A    between atoms: C_3  and  C_26
    4  A    between atoms: C_5  and  C_16
    5  A    between atoms: C_5  and  C_23
    6  A    between atoms: C_8  and  C_16
                            x       y       z     vdW  Elec       q    Type
                         _______ _______ _______ _____ _____    ______ ____

>  <TORSDO>
F 6

$$$$
=
 OpenBabel10222421483D

 31 34  0  0  1  0  0  0  0  0999 V2000
  190.0580  178.0820  140.1890 N   0  0  0  0  0  0  0  0  0  0  0  0
  189.6870  178.4760  141.4330 O   0  0  0  0  0  0  0  0  0  0  0  0
  194.9170  174.0100  138.0800 C   0  0  0  0  0  2  0  0  0  0  0  0
  191.4760  177.7950  140.0710 C   0  0  1  0  0  3  0  0  0  0  0  0
  193.7020  174.9310  138.0990 C   0  0  0  0  0  2  0  0  0  0  0  0
  191.1720  174.8950  137.6920 N   0  0  0  0  0  2  0  0  0  0  0  0
  190.8460  176.0440  138.4850 C   0  0  0  0  0  0  0  0  0  0  0  0
  195.0060  173.3180  136.7330 C   0  0  0  0  0  2  0  0  0  0  0  0
  189.0970  177.5160  139.2870 C   0  0  0  0  0  0  0  0  0  0  0  0
  192.5410  173.2070  136.8030 N   0  0  0  0  0  0  0  0  0  0  0  0
  191.8820  177.5540  141.4950 C   0  0  0  0  0  2  0  0  0  0  0  0
  189.4630  176.5390  138.4640 C   0  0  0  0  0  3  0  0  0  0  0  0
  190.5920  177.8050  142.2820 C   0  0  2  0  0  3  0  0  0  0  0  0
  192.4580  174.2750  137.5440 C   0  0  0  0  0  0  0  0  0  0  0  0
  193.7710  172.4440  136.5720 C   0  0  0  0  0  2  0  0  0  0  0  0
  191.7300  176.5970  139.2640 N   0  0  0  0  0  0  0  0  0  0  0  0
  189.9840  176.4870  142.7700 C   0  0  2  0  0  3  0  0  0  0  0  0
  190.4820  175.4140  142.0260 O   0  0  0  0  0  1  0  0  0  0  0  0
  188.4540  176.4920  142.7310 C   0  0  0  0  0  2  0  0  0  0  0  0
  187.8270  176.6690  144.1090 C   0  0  2  0  0  3  0  0  0  0  0  0
  186.6950  177.6580  144.0590 C   0  0  0  0  0  3  0  0  0  0  0  0
  186.1990  178.1340  145.2050 C   0  0  0  0  0  3  0  0  0  0  0  0
  188.8940  177.1330  145.1090 C   0  0  0  0  0  2  0  0  0  0  0  0
  188.3190  177.6670  146.4390 C   0  0  0  0  0  2  0  0  0  0  0  0
  186.7840  177.6640  146.5050 C   0  0  0  0  0  2  0  0  0  0  0  0
  187.6690  177.9330  139.3470 C   0  0  0  0  0  2  0  0  0  0  0  0
  186.9110  178.2130  136.9590 C   0  0  0  0  0  0  0  0  0  0  0  0
  187.4840  179.3310  136.8750 O   0  0  0  0  0  0  0  0  0  0  0  0
  186.9710  177.4540  138.1650 N   0  0  0  0  0  2  0  0  0  0  0  0
  185.6060  177.2800  134.9220 N   0  0  0  0  0  0  0  0  0  0  0  0
  186.1880  177.6960  135.8320 C   0  0  0  0  0  0  0  0  0  0  0  0
  1  2  1  0  0  0  0
  2 13  1  0  0  0  0
  3  5  1  0  0  0  0
  4  1  1  0  0  0  0
  4 11  1  1  0  0  0
  6  7  1  0  0  0  0
  7 16  2  0  0  0  0
  8  3  1  0  0  0  0
  9 26  1  0  0  0  0
  9  1  1  0  0  0  0
 10 14  2  0  0  0  0
 11 13  1  0  0  0  0
 12  7  1  0  0  0  0
 12  9  2  0  0  0  0
 13 17  1  6  0  0  0
 14  6  1  0  0  0  0
 14  5  1  0  0  0  0
 15  8  1  0  0  0  0
 15 10  1  0  0  0  0
 16  4  1  0  0  0  0
 17 18  1  6  0  0  0
 19 17  1  0  0  0  0
 20 19  1  6  0  0  0
 20 23  1  0  0  0  0
 21 20  1  0  0  0  0
 21 22  2  0  0  0  0
 22 25  1  0  0  0  0
 23 24  1  0  0  0  0
 24 25  1  0  0  0  0
 27 29  1  0  0  0  0
 28 27  2  0  0  0  0
 29 26  1  0  0  0  0
 30 31  3  0  0  0  0
 31 27  1  0  0  0  0
M  END
>  <MODEL>
4

>  <REMARK>
 VINA RESULT:      -7.2      2.001      2.380
  Name = 
  6 active torsions:
  status: ('A' for Active; 'I' for Inactive)
    1  A    between atoms: C_2  and  C_15
    2  A    between atoms: C_2  and  N_28
    3  A    between atoms: C_3  and  C_26
    4  A    between atoms: C_5  and  C_16
    5  A    between atoms: C_5  and  C_23
    6  A    between atoms: C_8  and  C_16
                            x       y       z     vdW  Elec       q    Type
                         _______ _______ _______ _____ _____    ______ ____

>  <TORSDO>
F 6

$$$$
=
 OpenBabel10222421483D

 31 34  0  0  1  0  0  0  0  0999 V2000
  188.1640  178.0500  137.2150 N   0  0  0  0  0  0  0  0  0  0  0  0
  188.4440  178.8760  138.2530 O   0  0  0  0  0  0  0  0  0  0  0  0
  190.9140  172.2850  135.2560 C   0  0  0  0  0  2  0  0  0  0  0  0
  189.3220  177.3310  136.7180 C   0  0  1  0  0  3  0  0  0  0  0  0
  189.9870  173.4920  135.3520 C   0  0  0  0  0  2  0  0  0  0  0  0
  187.5640  174.1000  135.9240 N   0  0  0  0  0  2  0  0  0  0  0  0
  187.8000  175.4700  136.2710 C   0  0  0  0  0  0  0  0  0  0  0  0
  190.2940  171.2410  134.3460 C   0  0  0  0  0  2  0  0  0  0  0  0
  186.8310  177.5640  137.0100 C   0  0  0  0  0  0  0  0  0  0  0  0
  188.1260  171.8980  135.3300 N   0  0  0  0  0  0  0  0  0  0  0  0
  190.2730  177.3990  137.8770 C   0  0  0  0  0  2  0  0  0  0  0  0
  186.6430  176.3290  136.5560 C   0  0  0  0  0  3  0  0  0  0  0  0
  189.5170  178.2400  138.9100 C   0  0  2  0  0  3  0  0  0  0  0  0
  188.5420  173.1080  135.5770 C   0  0  0  0  0  0  0  0  0  0  0  0
  188.9970  170.7700  134.9890 C   0  0  0  0  0  2  0  0  0  0  0  0
  189.0090  175.9330  136.4030 N   0  0  0  0  0  0  0  0  0  0  0  0
  188.9940  177.3620  140.0520 C   0  0  2  0  0  3  0  0  0  0  0  0
  187.9570  178.0080  140.7290 O   0  0  0  0  0  1  0  0  0  0  0  0
  190.0950  176.9540  141.0340 C   0  0  0  0  0  2  0  0  0  0  0  0
  189.9110  177.5690  142.4170 C   0  0  2  0  0  3  0  0  0  0  0  0
  191.2380  177.9580  143.0100 C   0  0  0  0  0  3  0  0  0  0  0  0
  191.3020  178.2680  144.3080 C   0  0  0  0  0  3  0  0  0  0  0  0
  189.1910  176.5720  143.3350 C   0  0  0  0  0  2  0  0  0  0  0  0
  189.2520  176.9430  144.8340 C   0  0  0  0  0  2  0  0  0  0  0  0
  190.0470  178.2220  145.1330 C   0  0  0  0  0  2  0  0  0  0  0  0
  185.6570  178.3880  137.4100 C   0  0  0  0  0  2  0  0  0  0  0  0
  184.6840  179.0530  139.6390 C   0  0  0  0  0  0  0  0  0  0  0  0
  184.4190  180.2080  139.2150 O   0  0  0  0  0  0  0  0  0  0  0  0
  185.2950  178.0870  138.7860 N   0  0  0  0  0  2  0  0  0  0  0  0
  184.1180  178.4210  142.0890 N   0  0  0  0  0  0  0  0  0  0  0  0
  184.3710  178.7020  140.9950 C   0  0  0  0  0  0  0  0  0  0  0  0
  1  2  1  0  0  0  0
  2 13  1  0  0  0  0
  3  5  1  0  0  0  0
  4  1  1  0  0  0  0
  4 11  1  1  0  0  0
  5 14  1  0  0  0  0
  6  7  1  0  0  0  0
  7 16  2  0  0  0  0
  7 12  1  0  0  0  0
  8 15  1  0  0  0  0
  8  3  1  0  0  0  0
  9  1  1  0  0  0  0
  9 26  1  0  0  0  0
 10 14  2  0  0  0  0
 11 13  1  0  0  0  0
 12  9  2  0  0  0  0
 13 17  1  1  0  0  0
 14  6  1  0  0  0  0
 15 10  1  0  0  0  0
 16  4  1  0  0  0  0
 17 18  1  1  0  0  0
 17 19  1  0  0  0  0
 20 19  1  6  0  0  0
 20 21  1  0  0  0  0
 20 23  1  0  0  0  0
 21 22  2  0  0  0  0
 22 25  1  0  0  0  0
 23 24  1  0  0  0  0
 24 25  1  0  0  0  0
 26 29  1  0  0  0  0
 27 31  1  0  0  0  0
 28 27  2  0  0  0  0
 29 27  1  0  0  0  0
 31 30  3  0  0  0  0
M  END
>  <MODEL>
5

>  <REMARK>
 VINA RESULT:      -7.1      2.513      3.788
  Name = 
  6 active torsions:
  status: ('A' for Active; 'I' for Inactive)
    1  A    between atoms: C_2  and  C_15
    2  A    between atoms: C_2  and  N_28
    3  A    between atoms: C_3  and  C_26
    4  A    between atoms: C_5  and  C_16
    5  A    between atoms: C_5  and  C_23
    6  A    between atoms: C_8  and  C_16
                            x       y       z     vdW  Elec       q    Type
                         _______ _______ _______ _____ _____    ______ ____

>  <TORSDO>
F 6

$$$$
=
 OpenBabel10222421483D

 31 34  0  0  1  0  0  0  0  0999 V2000
  184.0890  179.1760  138.8680 N   0  0  0  0  0  0  0  0  0  0  0  0
  184.4250  179.9550  139.9250 O   0  0  0  0  0  0  0  0  0  0  0  0
  186.0140  173.0320  137.0830 C   0  0  0  0  0  2  0  0  0  0  0  0
  185.1500  178.2780  138.4500 C   0  0  1  0  0  3  0  0  0  0  0  0
  185.2870  174.3720  137.1180 C   0  0  0  0  0  2  0  0  0  0  0  0
  182.9590  175.3620  137.5230 N   0  0  0  0  0  2  0  0  0  0  0  0
  183.3850  176.6810  137.8910 C   0  0  0  0  0  0  0  0  0  0  0  0
  185.3000  172.0940  136.1280 C   0  0  0  0  0  2  0  0  0  0  0  0
  182.7130  178.9070  138.5690 C   0  0  0  0  0  0  0  0  0  0  0  0
  183.2020  173.0950  136.9610 N   0  0  0  0  0  0  0  0  0  0  0  0
  186.0160  178.2020  139.6720 C   0  0  0  0  0  2  0  0  0  0  0  0
  182.3620  177.7140  138.0980 C   0  0  0  0  0  3  0  0  0  0  0  0
  185.3340  179.1600  140.6540 C   0  0  2  0  0  3  0  0  0  0  0  0
  183.7870  174.2250  137.2420 C   0  0  0  0  0  0  0  0  0  0  0  0
  183.9030  171.8400  136.6770 C   0  0  0  0  0  2  0  0  0  0  0  0
  184.6400  176.9460  138.1090 N   0  0  0  0  0  0  0  0  0  0  0  0
  184.6010  178.3860  141.7530 C   0  0  2  0  0  3  0  0  0  0  0  0
  183.3000  178.0760  141.3470 O   0  0  0  0  0  1  0  0  0  0  0  0
  184.5750  179.1360  143.0870 C   0  0  0  0  0  2  0  0  0  0  0  0
  185.1890  178.3340  144.2290 C   0  0  2  0  0  3  0  0  0  0  0  0
  185.2760  179.1660  145.4790 C   0  0  0  0  0  3  0  0  0  0  0  0
  186.0170  178.7250  146.5000 C   0  0  0  0  0  3  0  0  0  0  0  0
  186.5830  177.8380  143.8230 C   0  0  0  0  0  2  0  0  0  0  0  0
  187.4310  177.3130  145.0030 C   0  0  0  0  0  2  0  0  0  0  0  0
  186.7350  177.4130  146.3690 C   0  0  0  0  0  2  0  0  0  0  0  0
  181.6600  179.9110  138.8890 C   0  0  0  0  0  2  0  0  0  0  0  0
  180.9840  182.2250  138.1530 C   0  0  0  0  0  0  0  0  0  0  0  0
  179.9860  182.2130  138.9210 O   0  0  0  0  0  0  0  0  0  0  0  0
  181.8710  181.1100  138.0930 N   0  0  0  0  0  2  0  0  0  0  0  0
  181.4300  184.2960  136.6580 N   0  0  0  0  0  0  0  0  0  0  0  0
  181.2320  183.3710  137.3260 C   0  0  0  0  0  0  0  0  0  0  0  0
  1  2  1  0  0  0  0
  2 13  1  0  0  0  0
  3  5  1  0  0  0  0
  4  1  1  0  0  0  0
  4 11  1  1  0  0  0
  5 14  1  0  0  0  0
  6  7  1  0  0  0  0
  7 12  1  0  0  0  0
  7 16  2  0  0  0  0
  8 15  1  0  0  0  0
  8  3  1  0  0  0  0
  9  1  1  0  0  0  0
  9 26  1  0  0  0  0
 10 14  2  0  0  0  0
 11 13  1  0  0  0  0
 12  9  2  0  0  0  0
 13 17  1  1  0  0  0
 14  6  1  0  0  0  0
 15 10  1  0  0  0  0
 16  4  1  0  0  0  0
 17 18  1  6  0  0  0
 17 19  1  0  0  0  0
 20 19  1  6  0  0  0
 20 21  1  0  0  0  0
 21 22  2  0  0  0  0
 23 20  1  0  0  0  0
 23 24  1  0  0  0  0
 24 25  1  0  0  0  0
 25 22  1  0  0  0  0
 27 28  2  0  0  0  0
 29 27  1  0  0  0  0
 29 26  1  0  0  0  0
 30 31  3  0  0  0  0
 31 27  1  0  0  0  0
M  END
>  <MODEL>
6

>  <REMARK>
 VINA RESULT:      -7.1      4.499      6.111
  Name = 
  6 active torsions:
  status: ('A' for Active; 'I' for Inactive)
    1  A    between atoms: C_2  and  C_15
    2  A    between atoms: C_2  and  N_28
    3  A    between atoms: C_3  and  C_26
    4  A    between atoms: C_5  and  C_16
    5  A    between atoms: C_5  and  C_23
    6  A    between atoms: C_8  and  C_16
                            x       y       z     vdW  Elec       q    Type
                         _______ _______ _______ _____ _____    ______ ____

>  <TORSDO>
F 6

$$$$
=
 OpenBabel10222421483D

 31 34  0  0  1  0  0  0  0  0999 V2000
  188.0220  177.5600  137.7960 N   0  0  0  0  0  0  0  0  0  0  0  0
  187.4360  178.2790  138.7860 O   0  0  0  0  0  0  0  0  0  0  0  0
  194.2450  175.2390  137.0760 C   0  0  0  0  0  2  0  0  0  0  0  0
  189.4400  177.8310  137.6460 C   0  0  1  0  0  3  0  0  0  0  0  0
  192.7640  175.5180  136.8420 C   0  0  0  0  0  2  0  0  0  0  0  0
  190.4980  174.3220  136.7900 N   0  0  0  0  0  2  0  0  0  0  0  0
  189.6820  175.4720  137.0470 C   0  0  0  0  0  0  0  0  0  0  0  0
  194.7020  174.1230  136.1540 C   0  0  0  0  0  2  0  0  0  0  0  0
  187.4370  176.3330  137.3430 C   0  0  0  0  0  0  0  0  0  0  0  0
  192.4900  173.1010  136.5530 N   0  0  0  0  0  0  0  0  0  0  0  0
  189.8050  178.4170  138.9780 C   0  0  0  0  0  2  0  0  0  0  0  0
  188.2220  175.3240  136.9790 C   0  0  0  0  0  3  0  0  0  0  0  0
  188.4700  178.4610  139.7280 C   0  0  2  0  0  3  0  0  0  0  0  0
  191.9320  174.2580  136.7710 C   0  0  0  0  0  0  0  0  0  0  0  0
  193.9360  172.8630  136.5280 C   0  0  0  0  0  2  0  0  0  0  0  0
  190.2110  176.6070  137.4050 N   0  0  0  0  0  0  0  0  0  0  0  0
  188.4090  177.3690  140.8000 C   0  0  2  0  0  3  0  0  0  0  0  0
  187.6770  177.8090  141.9050 O   0  0  0  0  0  1  0  0  0  0  0  0
  189.7970  176.8960  141.2400 C   0  0  0  0  0  2  0  0  0  0  0  0
  190.0690  177.1530  142.7180 C   0  0  2  0  0  3  0  0  0  0  0  0
  190.9170  178.3830  142.8990 C   0  0  0  0  0  3  0  0  0  0  0  0
  191.4700  178.6170  144.0920 C   0  0  0  0  0  3  0  0  0  0  0  0
  190.7650  175.9330  143.3360 C   0  0  0  0  0  2  0  0  0  0  0  0
  191.3900  176.2030  144.7230 C   0  0  0  0  0  2  0  0  0  0  0  0
  191.2270  177.6490  145.2140 C   0  0  0  0  0  2  0  0  0  0  0  0
  185.9610  176.1380  137.3850 C   0  0  0  0  0  2  0  0  0  0  0  0
  184.4110  174.1530  137.4720 C   0  0  0  0  0  0  0  0  0  0  0  0
  183.5430  174.8160  138.0970 O   0  0  0  0  0  0  0  0  0  0  0  0
  185.6420  174.7540  137.0750 N   0  0  0  0  0  2  0  0  0  0  0  0
  183.9610  171.6630  136.9010 N   0  0  0  0  0  0  0  0  0  0  0  0
  184.1630  172.7750  137.1560 C   0  0  0  0  0  0  0  0  0  0  0  0
  1  2  1  0  0  0  0
  2 13  1  0  0  0  0
  4  1  1  0  0  0  0
  4 11  1  1  0  0  0
  5  3  1  0  0  0  0
  6  7  1  0  0  0  0
  7 16  2  0  0  0  0
  8 15  1  0  0  0  0
  8  3  1  0  0  0  0
  9 26  1  0  0  0  0
  9  1  1  0  0  0  0
 10 14  2  0  0  0  0
 11 13  1  0  0  0  0
 12  7  1  0  0  0  0
 12  9  2  0  0  0  0
 13 17  1  1  0  0  0
 14  6  1  0  0  0  0
 14  5  1  0  0  0  0
 15 10  1  0  0  0  0
 16  4  1  0  0  0  0
 17 19  1  0  0  0  0
 17 18  1  1  0  0  0
 20 19  1  6  0  0  0
 20 21  1  0  0  0  0
 20 23  1  0  0  0  0
 21 22  2  0  0  0  0
 22 25  1  0  0  0  0
 23 24  1  0  0  0  0
 24 25  1  0  0  0  0
 27 28  2  0  0  0  0
 29 26  1  0  0  0  0
 29 27  1  0  0  0  0
 30 31  3  0  0  0  0
 31 27  1  0  0  0  0
M  END
>  <MODEL>
7

>  <REMARK>
 VINA RESULT:      -6.7      2.965      4.084
  Name = 
  6 active torsions:
  status: ('A' for Active; 'I' for Inactive)
    1  A    between atoms: C_2  and  C_15
    2  A    between atoms: C_2  and  N_28
    3  A    between atoms: C_3  and  C_26
    4  A    between atoms: C_5  and  C_16
    5  A    between atoms: C_5  and  C_23
    6  A    between atoms: C_8  and  C_16
                            x       y       z     vdW  Elec       q    Type
                         _______ _______ _______ _____ _____    ______ ____

>  <TORSDO>
F 6

$$$$
=
 OpenBabel10222421483D

 31 34  0  0  1  0  0  0  0  0999 V2000
  186.8800  178.4170  137.3910 N   0  0  0  0  0  0  0  0  0  0  0  0
  186.4510  177.8110  136.2560 O   0  0  0  0  0  0  0  0  0  0  0  0
  184.4630  178.4090  143.6190 C   0  0  0  0  0  2  0  0  0  0  0  0
  185.8070  178.7530  138.3080 C   0  0  1  0  0  3  0  0  0  0  0  0
  185.3610  178.6550  142.4110 C   0  0  0  0  0  2  0  0  0  0  0  0
  187.6750  178.0450  141.4970 N   0  0  0  0  0  2  0  0  0  0  0  0
  187.3870  178.2700  140.1110 C   0  0  0  0  0  0  0  0  0  0  0  0
  185.2100  178.7730  144.8880 C   0  0  0  0  0  2  0  0  0  0  0  0
  188.2310  178.2510  137.8410 C   0  0  0  0  0  0  0  0  0  0  0  0
  187.2140  177.8370  143.7900 N   0  0  0  0  0  0  0  0  0  0  0  0
  184.7020  177.8370  137.8700 C   0  0  0  0  0  2  0  0  0  0  0  0
  188.4870  178.1810  139.1430 C   0  0  0  0  0  3  0  0  0  0  0  0
  185.3000  177.1060  136.6650 C   0  0  2  0  0  3  0  0  0  0  0  0
  186.7610  178.1170  142.6010 C   0  0  0  0  0  0  0  0  0  0  0  0
  186.4060  177.8400  145.0130 C   0  0  0  0  0  2  0  0  0  0  0  0
  186.1680  178.4780  139.7030 N   0  0  0  0  0  0  0  0  0  0  0  0
  185.6610  175.6620  137.0250 C   0  0  2  0  0  3  0  0  0  0  0  0
  186.1130  174.9750  135.8960 O   0  0  0  0  0  1  0  0  0  0  0  0
  184.4980  174.9080  137.6730 C   0  0  0  0  0  2  0  0  0  0  0  0
  183.9410  173.8010  136.7850 C   0  0  2  0  0  3  0  0  0  0  0  0
  182.4440  173.8970  136.6850 C   0  0  0  0  0  3  0  0  0  0  0  0
  181.7610  172.8720  136.1680 C   0  0  0  0  0  3  0  0  0  0  0  0
  184.3490  172.4320  137.3460 C   0  0  0  0  0  2  0  0  0  0  0  0
  183.5700  171.2460  136.7350 C   0  0  0  0  0  2  0  0  0  0  0  0
  182.5110  171.6570  135.7010 C   0  0  0  0  0  2  0  0  0  0  0  0
  189.3330  178.0410  136.8600 C   0  0  0  0  0  2  0  0  0  0  0  0
  190.8680  176.0880  137.2820 C   0  0  0  0  0  0  0  0  0  0  0  0
  191.7170  176.8330  137.8390 O   0  0  0  0  0  0  0  0  0  0  0  0
  189.6470  176.6240  136.7770 N   0  0  0  0  0  2  0  0  0  0  0  0
  191.3430  173.5500  137.0440 N   0  0  0  0  0  0  0  0  0  0  0  0
  191.1320  174.6830  137.1500 C   0  0  0  0  0  0  0  0  0  0  0  0
  1  9  1  0  0  0  0
  1  4  1  0  0  0  0
  2 13  1  0  0  0  0
  2  1  1  0  0  0  0
  3  8  1  0  0  0  0
  4 11  1  6  0  0  0
  4 16  1  0  0  0  0
  5 14  1  0  0  0  0
  5  3  1  0  0  0  0
  6 14  1  0  0  0  0
  7  6  1  0  0  0  0
  8 15  1  0  0  0  0
  9 12  2  0  0  0  0
 10 15  1  0  0  0  0
 12  7  1  0  0  0  0
 13 17  1  1  0  0  0
 13 11  1  0  0  0  0
 14 10  2  0  0  0  0
 16  7  2  0  0  0  0
 17 18  1  6  0  0  0
 17 19  1  0  0  0  0
 20 23  1  0  0  0  0
 20 19  1  1  0  0  0
 21 20  1  0  0  0  0
 22 21  2  0  0  0  0
 24 23  1  0  0  0  0
 25 22  1  0  0  0  0
 25 24  1  0  0  0  0
 26  9  1  0  0  0  0
 27 28  2  0  0  0  0
 29 26  1  0  0  0  0
 29 27  1  0  0  0  0
 30 31  3  0  0  0  0
 31 27  1  0  0  0  0
M  END
>  <MODEL>
8

>  <REMARK>
 VINA RESULT:      -6.6      4.154      8.847
  Name = 
  6 active torsions:
  status: ('A' for Active; 'I' for Inactive)
    1  A    between atoms: C_2  and  C_15
    2  A    between atoms: C_2  and  N_28
    3  A    between atoms: C_3  and  C_26
    4  A    between atoms: C_5  and  C_16
    5  A    between atoms: C_5  and  C_23
    6  A    between atoms: C_8  and  C_16
                            x       y       z     vdW  Elec       q    Type
                         _______ _______ _______ _____ _____    ______ ____

>  <TORSDO>
F 6

$$$$
=
 OpenBabel10222421483D

 31 34  0  0  1  0  0  0  0  0999 V2000
  185.9610  178.3740  137.1440 N   0  0  0  0  0  0  0  0  0  0  0  0
  187.0490  179.1640  137.3170 O   0  0  0  0  0  0  0  0  0  0  0  0
  185.2750  172.2660  134.5250 C   0  0  0  0  0  2  0  0  0  0  0  0
  186.0600  177.4970  135.9920 C   0  0  1  0  0  3  0  0  0  0  0  0
  184.9720  173.5910  135.2180 C   0  0  0  0  0  2  0  0  0  0  0  0
  184.3070  174.5320  137.5070 N   0  0  0  0  0  2  0  0  0  0  0  0
  184.8070  175.8600  137.3070 C   0  0  0  0  0  0  0  0  0  0  0  0
  184.1160  171.3090  134.7340 C   0  0  0  0  0  2  0  0  0  0  0  0
  185.0950  178.0740  138.2470 C   0  0  0  0  0  0  0  0  0  0  0  0
  183.9380  172.2680  137.0020 N   0  0  0  0  0  0  0  0  0  0  0  0
  187.5390  177.4450  135.7450 C   0  0  0  0  0  2  0  0  0  0  0  0
  184.5340  176.8720  138.3360 C   0  0  0  0  0  3  0  0  0  0  0  0
  188.1120  178.3920  136.8030 C   0  0  2  0  0  3  0  0  0  0  0  0
  184.4310  173.4110  136.6180 C   0  0  0  0  0  0  0  0  0  0  0  0
  184.0040  171.0270  136.2250 C   0  0  0  0  0  2  0  0  0  0  0  0
  185.5480  176.1530  136.2780 N   0  0  0  0  0  0  0  0  0  0  0  0
  188.7900  177.6060  137.9290 C   0  0  2  0  0  3  0  0  0  0  0  0
  188.1570  176.3750  138.1160 O   0  0  0  0  0  1  0  0  0  0  0  0
  188.8360  178.3830  139.2470 C   0  0  0  0  0  2  0  0  0  0  0  0
  188.6720  177.4860  140.4690 C   0  0  2  0  0  3  0  0  0  0  0  0
  187.8600  178.1740  141.5320 C   0  0  0  0  0  3  0  0  0  0  0  0
  187.8320  177.6550  142.7630 C   0  0  0  0  0  3  0  0  0  0  0  0
  190.0520  177.1040  141.0200 C   0  0  0  0  0  2  0  0  0  0  0  0
  190.0150  176.4890  142.4360 C   0  0  0  0  0  2  0  0  0  0  0  0
  188.6080  176.4010  143.0450 C   0  0  0  0  0  2  0  0  0  0  0  0
  184.9120  179.0560  139.3520 C   0  0  0  0  0  2  0  0  0  0  0  0
  182.6830  180.1700  138.9710 C   0  0  0  0  0  0  0  0  0  0  0  0
  182.0720  179.1930  139.4800 O   0  0  0  0  0  0  0  0  0  0  0  0
  184.1060  180.1730  138.8830 N   0  0  0  0  0  2  0  0  0  0  0  0
  181.3430  182.1970  138.0660 N   0  0  0  0  0  0  0  0  0  0  0  0
  181.9400  181.2920  138.4700 C   0  0  0  0  0  0  0  0  0  0  0  0
  1  2  1  0  0  0  0
  1  9  1  0  0  0  0
  3  8  1  0  0  0  0
  3  5  1  0  0  0  0
  4 11  1  1  0  0  0
  4 16  1  0  0  0  0
  4  1  1  0  0  0  0
  5 14  1  0  0  0  0
  7  6  1  0  0  0  0
  7 12  1  0  0  0  0
  8 15  1  0  0  0  0
  9 12  2  0  0  0  0
  9 26  1  0  0  0  0
 11 13  1  0  0  0  0
 13  2  1  0  0  0  0
 13 17  1  1  0  0  0
 14 10  2  0  0  0  0
 14  6  1  0  0  0  0
 15 10  1  0  0  0  0
 16  7  2  0  0  0  0
 17 18  1  1  0  0  0
 17 19  1  0  0  0  0
 20 19  1  6  0  0  0
 20 23  1  0  0  0  0
 20 21  1  0  0  0  0
 21 22  2  0  0  0  0
 22 25  1  0  0  0  0
 23 24  1  0  0  0  0
 24 25  1  0  0  0  0
 27 28  2  0  0  0  0
 29 27  1  0  0  0  0
 29 26  1  0  0  0  0
 30 31  3  0  0  0  0
 31 27  1  0  0  0  0
M  END
>  <MODEL>
9

>  <REMARK>
 VINA RESULT:      -6.5      4.075      5.933
  Name = 
  6 active torsions:
  status: ('A' for Active; 'I' for Inactive)
    1  A    between atoms: C_2  and  C_15
    2  A    between atoms: C_2  and  N_28
    3  A    between atoms: C_3  and  C_26
    4  A    between atoms: C_5  and  C_16
    5  A    between atoms: C_5  and  C_23
    6  A    between atoms: C_8  and  C_16
                            x       y       z     vdW  Elec       q    Type
                         _______ _______ _______ _____ _____    ______ ____

>  <TORSDO>
F 6

$$$$
