=
 OpenBabel10232412393D

 37 43  0  0  1  0  0  0  0  0999 V2000
  189.4180  176.3150  141.7810 C   0  0  0  0  0  2  0  0  0  0  0  0
  191.6350  175.8340  147.3290 C   0  0  0  0  0  2  0  0  0  0  0  0
  187.7490  177.8440  145.9740 C   0  0  0  0  0  0  0  0  0  0  0  0
  190.5190  176.9110  140.8840 C   0  0  1  0  0  3  0  0  0  0  0  0
  185.9490  177.6920  142.6270 O   0  0  0  0  0  0  0  0  0  0  0  0
  189.8120  177.5690  147.3220 C   0  0  0  0  0  0  0  0  0  0  0  0
  187.3530  177.7740  144.5690 C   0  0  0  0  0  0  0  0  0  0  0  0
  189.0660  177.4550  146.0560 C   0  0  0  0  0  0  0  0  0  0  0  0
  186.0960  177.9870  143.9870 C   0  0  0  0  0  0  0  0  0  0  0  0
  189.2070  178.0600  148.3620 N   0  0  0  0  0  0  0  0  0  0  0  0
  190.2640  178.3710  140.4650 C   0  0  0  0  0  2  0  0  0  0  0  0
  189.5360  177.1690  144.7820 C   0  0  0  0  0  0  0  0  0  0  0  0
  191.3310  175.4830  144.8770 C   0  0  0  0  0  2  0  0  0  0  0  0
  185.7490  178.7390  147.0670 C   0  0  0  0  0  3  0  0  0  0  0  0
  187.7810  178.4220  148.4120 C   0  0  0  0  0  2  0  0  0  0  0  0
  190.9510  176.8750  144.4160 C   0  0  0  0  0  2  0  0  0  0  0  0
  188.7780  178.6780  140.3180 C   0  0  2  0  0  3  0  0  0  0  0  0
  186.5540  178.4610  141.5940 C   0  0  0  0  0  2  0  0  0  0  0  0
  187.0700  178.3340  147.0800 C   0  0  0  0  0  0  0  0  0  0  0  0
  188.4920  177.3560  143.8820 C   0  0  0  0  0  0  0  0  0  0  0  0
  191.1930  177.2170  147.4260 N   0  0  0  0  0  2  0  0  0  0  0  0
  184.9460  178.4200  144.6730 C   0  0  0  0  0  0  0  0  0  0  0  0
  192.3380  175.5800  146.0070 C   0  0  0  0  0  2  0  0  0  0  0  0
  188.0830  178.4820  141.6840 C   0  0  1  0  0  3  0  0  0  0  0  0
  188.6310  177.3550  142.4500 N   0  0  0  0  0  0  0  0  0  0  0  0
  184.8350  178.7610  146.0230 C   0  0  0  0  0  3  0  0  0  0  0  0
  182.4740  178.6870  144.5720 C   0  0  0  0  0  3  0  0  0  0  0  0
  183.7050  178.5870  143.9040 C   0  0  0  0  0  0  0  0  0  0  0  0
  183.7450  178.6330  142.5050 C   0  0  0  0  0  3  0  0  0  0  0  0
  182.6040  178.8200  140.3920 O   0  0  0  0  0  1  0  0  0  0  0  0
  181.3360  178.8740  142.4440 C   0  0  0  0  0  3  0  0  0  0  0  0
  182.5620  178.7770  141.7770 C   0  0  0  0  0  0  0  0  0  0  0  0
  181.2920  178.8300  143.8420 C   0  0  0  0  0  3  0  0  0  0  0  0
  188.1690  177.8420  139.1910 C   0  0  0  0  0  2  0  0  0  0  0  0
  187.6370  178.6770  138.2090 O   0  0  0  0  0  1  0  0  0  0  0  0
  192.6550  177.4490  140.6530 C   0  0  0  0  0  1  0  0  0  0  0  0
  191.7570  176.8130  141.5150 O   0  0  0  0  0  0  0  0  0  0  0  0
  1 25  1  0  0  0  0
  2 21  1  0  0  0  0
  3  8  1  0  0  0  0
  3 19  2  0  0  0  0
  4 37  1  1  0  0  0
  4  1  1  0  0  0  0
  5  9  1  0  0  0  0
  6 21  1  0  0  0  0
  6 10  2  0  0  0  0
  7  3  1  0  0  0  0
  8  6  1  0  0  0  0
  9  7  1  0  0  0  0
  9 22  2  0  0  0  0
 10 15  1  0  0  0  0
 11  4  1  0  0  0  0
 12  8  2  0  0  0  0
 13 23  1  0  0  0  0
 14 19  1  0  0  0  0
 16 12  1  0  0  0  0
 16 13  1  0  0  0  0
 17 34  1  6  0  0  0
 17 11  1  0  0  0  0
 17 24  1  0  0  0  0
 18  5  1  0  0  0  0
 19 15  1  0  0  0  0
 20  7  2  0  0  0  0
 20 12  1  0  0  0  0
 22 26  1  0  0  0  0
 23  2  1  0  0  0  0
 24 18  1  6  0  0  0
 24 25  1  0  0  0  0
 25 20  1  0  0  0  0
 26 14  2  0  0  0  0
 28 27  1  0  0  0  0
 28 22  1  0  0  0  0
 29 28  2  0  0  0  0
 30 32  1  0  0  0  0
 31 33  1  0  0  0  0
 32 31  2  0  0  0  0
 32 29  1  0  0  0  0
 33 27  2  0  0  0  0
 35 34  1  0  0  0  0
 36 37  1  0  0  0  0
M  END
>  <MODEL>
1

>  <REMARK>
 VINA RESULT:     -11.9      0.000      0.000
  Name = 
  3 active torsions:
  status: ('A' for Active; 'I' for Inactive)
    1  A    between atoms: C_5  and  O_23
    2  A    between atoms: C_6  and  C_31
    3  A    between atoms: C_11  and  C_26
                            x       y       z     vdW  Elec       q    Type
                         _______ _______ _______ _____ _____    ______ ____

>  <TORSDO>
F 3

$$$$
=
 OpenBabel10232412393D

 37 43  0  0  1  0  0  0  0  0999 V2000
  188.5360  176.7410  143.8400 C   0  0  0  0  0  2  0  0  0  0  0  0
  183.4640  178.5710  141.2240 C   0  0  0  0  0  2  0  0  0  0  0  0
  187.5750  177.9010  139.3200 C   0  0  0  0  0  0  0  0  0  0  0  0
  188.7940  177.6510  145.0560 C   0  0  1  0  0  3  0  0  0  0  0  0
  190.6700  176.1860  140.7120 O   0  0  0  0  0  0  0  0  0  0  0  0
  185.3950  179.0290  139.6770 C   0  0  0  0  0  0  0  0  0  0  0  0
  188.6670  177.3680  140.1310 C   0  0  0  0  0  0  0  0  0  0  0  0
  186.5740  178.2980  140.1760 C   0  0  0  0  0  0  0  0  0  0  0  0
  189.8650  176.7640  139.7250 C   0  0  0  0  0  0  0  0  0  0  0  0
  185.3220  179.3060  138.4090 N   0  0  0  0  0  0  0  0  0  0  0  0
  189.9580  178.6410  144.8620 C   0  0  0  0  0  2  0  0  0  0  0  0
  186.9790  178.0730  141.4840 C   0  0  0  0  0  0  0  0  0  0  0  0
  185.0320  177.6580  142.9370 C   0  0  0  0  0  2  0  0  0  0  0  0
  188.4680  177.7780  137.0430 C   0  0  0  0  0  3  0  0  0  0  0  0
  186.2870  178.8540  137.3930 C   0  0  0  0  0  2  0  0  0  0  0  0
  186.2600  178.5170  142.7120 C   0  0  0  0  0  2  0  0  0  0  0  0
  191.0550  178.0730  143.9670 C   0  0  2  0  0  3  0  0  0  0  0  0
  191.3860  176.9490  141.6770 C   0  0  0  0  0  2  0  0  0  0  0  0
  187.5010  178.1510  137.9570 C   0  0  0  0  0  0  0  0  0  0  0  0
  188.2470  177.5010  141.4540 C   0  0  0  0  0  0  0  0  0  0  0  0
  184.3630  179.4940  140.5490 N   0  0  0  0  0  2  0  0  0  0  0  0
  190.2990  176.6370  138.3930 C   0  0  0  0  0  0  0  0  0  0  0  0
  183.7830  178.4880  142.7060 C   0  0  0  0  0  2  0  0  0  0  0  0
  190.4710  177.7980  142.5640 C   0  0  1  0  0  3  0  0  0  0  0  0
  189.0880  177.3050  142.6050 N   0  0  0  0  0  0  0  0  0  0  0  0
  189.6700  177.1120  137.2400 C   0  0  0  0  0  3  0  0  0  0  0  0
  192.7850  176.6000  138.5040 C   0  0  0  0  0  3  0  0  0  0  0  0
  191.5850  175.9670  138.1460 C   0  0  0  0  0  0  0  0  0  0  0  0
  191.6150  174.7050  137.5410 C   0  0  0  0  0  3  0  0  0  0  0  0
  192.8660  172.8300  136.6920 O   0  0  0  0  0  1  0  0  0  0  0  0
  194.0340  174.7110  137.6490 C   0  0  0  0  0  3  0  0  0  0  0  0
  192.8390  174.0780  137.2930 C   0  0  0  0  0  0  0  0  0  0  0  0
  194.0070  175.9720  138.2550 C   0  0  0  0  0  3  0  0  0  0  0  0
  191.6960  176.8470  144.6200 C   0  0  0  0  0  2  0  0  0  0  0  0
  191.9250  177.0890  145.9730 O   0  0  0  0  0  1  0  0  0  0  0  0
  187.0700  177.6310  146.4450 C   0  0  0  0  0  1  0  0  0  0  0  0
  187.6340  178.3490  145.3860 O   0  0  0  0  0  0  0  0  0  0  0  0
  1  4  1  0  0  0  0
  2 23  1  0  0  0  0
  3  7  1  0  0  0  0
  3  8  2  0  0  0  0
  4 37  1  6  0  0  0
  5 18  1  0  0  0  0
  6  8  1  0  0  0  0
  6 21  1  0  0  0  0
  7 20  1  0  0  0  0
  8 12  1  0  0  0  0
  9  7  2  0  0  0  0
  9  5  1  0  0  0  0
 10  6  2  0  0  0  0
 11  4  1  0  0  0  0
 12 16  1  0  0  0  0
 14 26  1  0  0  0  0
 14 19  2  0  0  0  0
 15 19  1  0  0  0  0
 15 10  1  0  0  0  0
 16 13  1  0  0  0  0
 17 34  1  1  0  0  0
 17 11  1  0  0  0  0
 19  3  1  0  0  0  0
 20 12  2  0  0  0  0
 20 25  1  0  0  0  0
 21  2  1  0  0  0  0
 22  9  1  0  0  0  0
 23 13  1  0  0  0  0
 24 18  1  1  0  0  0
 24 25  1  0  0  0  0
 24 17  1  0  0  0  0
 25  1  1  0  0  0  0
 26 22  2  0  0  0  0
 28 22  1  0  0  0  0
 28 27  2  0  0  0  0
 29 28  1  0  0  0  0
 30 32  1  0  0  0  0
 31 33  2  0  0  0  0
 32 29  2  0  0  0  0
 32 31  1  0  0  0  0
 33 27  1  0  0  0  0
 34 35  1  0  0  0  0
 37 36  1  0  0  0  0
M  END
>  <MODEL>
2

>  <REMARK>
 VINA RESULT:     -10.0      2.703      8.441
  Name = 
  3 active torsions:
  status: ('A' for Active; 'I' for Inactive)
    1  A    between atoms: C_5  and  O_23
    2  A    between atoms: C_6  and  C_31
    3  A    between atoms: C_11  and  C_26
                            x       y       z     vdW  Elec       q    Type
                         _______ _______ _______ _____ _____    ______ ____

>  <TORSDO>
F 3

$$$$
=
 OpenBabel10232412393D

 37 43  0  0  1  0  0  0  0  0999 V2000
  189.3590  178.6230  143.0010 C   0  0  0  0  0  2  0  0  0  0  0  0
  192.8820  176.8750  138.4770 C   0  0  0  0  0  2  0  0  0  0  0  0
  188.3150  177.2060  138.5730 C   0  0  0  0  0  0  0  0  0  0  0  0
  189.7320  177.7860  144.2390 C   0  0  1  0  0  3  0  0  0  0  0  0
  186.0310  178.8550  141.1270 O   0  0  0  0  0  0  0  0  0  0  0  0
  190.5070  176.2160  137.9680 C   0  0  0  0  0  0  0  0  0  0  0  0
  187.6550  177.7380  139.7630 C   0  0  0  0  0  0  0  0  0  0  0  0
  189.6180  176.9190  138.9100 C   0  0  0  0  0  0  0  0  0  0  0  0
  186.3600  178.2520  139.9080 C   0  0  0  0  0  0  0  0  0  0  0  0
  190.0350  175.8560  136.8120 N   0  0  0  0  0  0  0  0  0  0  0  0
  188.6800  176.7280  144.6210 C   0  0  0  0  0  2  0  0  0  0  0  0
  189.8140  177.2120  140.2520 C   0  0  0  0  0  0  0  0  0  0  0  0
  192.1650  177.8230  140.6710 C   0  0  0  0  0  2  0  0  0  0  0  0
  186.5040  177.1280  136.9260 C   0  0  0  0  0  3  0  0  0  0  0  0
  188.6910  176.1890  136.3130 C   0  0  0  0  0  2  0  0  0  0  0  0
  191.0320  176.8900  141.0500 C   0  0  0  0  0  2  0  0  0  0  0  0
  187.2620  177.1780  144.2850 C   0  0  2  0  0  3  0  0  0  0  0  0
  185.8730  178.1250  142.3380 C   0  0  0  0  0  2  0  0  0  0  0  0
  187.8000  176.8670  137.3300 C   0  0  0  0  0  0  0  0  0  0  0  0
  188.6250  177.7170  140.7660 C   0  0  0  0  0  0  0  0  0  0  0  0
  191.8500  175.8630  138.3080 N   0  0  0  0  0  2  0  0  0  0  0  0
  185.3750  178.2660  138.9030 C   0  0  0  0  0  0  0  0  0  0  0  0
  193.2430  177.0430  139.9430 C   0  0  0  0  0  2  0  0  0  0  0  0
  187.1460  177.3850  142.7590 C   0  0  1  0  0  3  0  0  0  0  0  0
  188.3640  177.9490  142.1620 N   0  0  0  0  0  0  0  0  0  0  0  0
  185.4660  177.7450  137.6100 C   0  0  0  0  0  3  0  0  0  0  0  0
  183.1560  178.1380  140.0230 C   0  0  0  0  0  3  0  0  0  0  0  0
  184.0650  178.8510  139.2270 C   0  0  0  0  0  0  0  0  0  0  0  0
  183.7180  180.1130  138.7310 C   0  0  0  0  0  3  0  0  0  0  0  0
  182.1250  181.9100  138.5330 O   0  0  0  0  0  1  0  0  0  0  0  0
  181.5610  179.9480  139.8190 C   0  0  0  0  0  3  0  0  0  0  0  0
  182.4680  180.6600  139.0270 C   0  0  0  0  0  0  0  0  0  0  0  0
  181.9060  178.6860  140.3180 C   0  0  0  0  0  3  0  0  0  0  0  0
  186.8840  178.4120  145.1060 C   0  0  0  0  0  2  0  0  0  0  0  0
  186.7260  178.0660  146.4470 O   0  0  0  0  0  1  0  0  0  0  0  0
  191.4610  176.9400  145.3350 C   0  0  0  0  0  1  0  0  0  0  0  0
  190.9680  177.1710  144.0470 O   0  0  0  0  0  0  0  0  0  0  0  0
  1  4  1  0  0  0  0
  2 23  1  0  0  0  0
  3  8  2  0  0  0  0
  3  7  1  0  0  0  0
  4 37  1  6  0  0  0
  4 11  1  0  0  0  0
  5 18  1  0  0  0  0
  6 21  1  0  0  0  0
  6  8  1  0  0  0  0
  7  9  2  0  0  0  0
  7 20  1  0  0  0  0
  8 12  1  0  0  0  0
  9  5  1  0  0  0  0
 10  6  2  0  0  0  0
 12 20  2  0  0  0  0
 12 16  1  0  0  0  0
 13 16  1  0  0  0  0
 14 19  2  0  0  0  0
 14 26  1  0  0  0  0
 15 10  1  0  0  0  0
 15 19  1  0  0  0  0
 17 11  1  0  0  0  0
 17 34  1  1  0  0  0
 19  3  1  0  0  0  0
 20 25  1  0  0  0  0
 21  2  1  0  0  0  0
 22 28  1  0  0  0  0
 22  9  1  0  0  0  0
 23 13  1  0  0  0  0
 24 18  1  1  0  0  0
 24 17  1  0  0  0  0
 25 24  1  0  0  0  0
 25  1  1  0  0  0  0
 26 22  2  0  0  0  0
 27 33  1  0  0  0  0
 28 27  2  0  0  0  0
 29 32  2  0  0  0  0
 29 28  1  0  0  0  0
 30 32  1  0  0  0  0
 31 33  2  0  0  0  0
 32 31  1  0  0  0  0
 34 35  1  0  0  0  0
 37 36  1  0  0  0  0
M  END
>  <MODEL>
3

>  <REMARK>
 VINA RESULT:      -9.6      2.489      6.199
  Name = 
  3 active torsions:
  status: ('A' for Active; 'I' for Inactive)
    1  A    between atoms: C_5  and  O_23
    2  A    between atoms: C_6  and  C_31
    3  A    between atoms: C_11  and  C_26
                            x       y       z     vdW  Elec       q    Type
                         _______ _______ _______ _____ _____    ______ ____

>  <TORSDO>
F 3

$$$$
=
 OpenBabel10232412393D

 37 43  0  0  1  0  0  0  0  0999 V2000
  188.6340  176.7990  144.5000 C   0  0  0  0  0  2  0  0  0  0  0  0
  183.1160  178.7230  143.1640 C   0  0  0  0  0  2  0  0  0  0  0  0
  186.6840  178.1160  140.3570 C   0  0  0  0  0  0  0  0  0  0  0  0
  189.1680  177.6670  145.6550 C   0  0  1  0  0  3  0  0  0  0  0  0
  189.9990  176.3510  140.9530 O   0  0  0  0  0  0  0  0  0  0  0  0
  184.6510  179.2330  141.2360 C   0  0  0  0  0  0  0  0  0  0  0  0
  187.9270  177.5550  140.8810 C   0  0  0  0  0  0  0  0  0  0  0  0
  185.9060  178.4840  141.4310 C   0  0  0  0  0  0  0  0  0  0  0  0
  188.9960  176.9640  140.1950 C   0  0  0  0  0  0  0  0  0  0  0  0
  184.2960  179.5550  140.0280 N   0  0  0  0  0  0  0  0  0  0  0  0
  190.2660  178.6610  145.2370 C   0  0  0  0  0  2  0  0  0  0  0  0
  186.5950  178.2140  142.6040 C   0  0  0  0  0  0  0  0  0  0  0  0
  185.0240  177.7500  144.4460 C   0  0  0  0  0  2  0  0  0  0  0  0
  187.0370  178.0720  137.9340 C   0  0  0  0  0  3  0  0  0  0  0  0
  185.0010  179.1370  138.8060 C   0  0  0  0  0  2  0  0  0  0  0  0
  186.1760  178.6150  143.9780 C   0  0  0  0  0  2  0  0  0  0  0  0
  191.1270  178.1240  144.0980 C   0  0  2  0  0  3  0  0  0  0  0  0
  190.9210  177.0800  141.7560 C   0  0  0  0  0  2  0  0  0  0  0  0
  186.3050  178.4140  139.0560 C   0  0  0  0  0  0  0  0  0  0  0  0
  187.8180  177.6420  142.2690 C   0  0  0  0  0  0  0  0  0  0  0  0
  183.8470  179.6690  142.3340 N   0  0  0  0  0  2  0  0  0  0  0  0
  189.1160  176.8830  138.7950 C   0  0  0  0  0  0  0  0  0  0  0  0
  183.7620  178.5890  144.5320 C   0  0  0  0  0  2  0  0  0  0  0  0
  190.2380  177.8980  142.8550 C   0  0  1  0  0  3  0  0  0  0  0  0
  188.8950  177.4050  143.1920 N   0  0  0  0  0  0  0  0  0  0  0  0
  188.2460  177.3980  137.8310 C   0  0  0  0  0  3  0  0  0  0  0  0
  190.2090  174.9210  137.7230 C   0  0  0  0  0  3  0  0  0  0  0  0
  190.3060  176.2210  138.2400 C   0  0  0  0  0  0  0  0  0  0  0  0
  191.5410  176.8820  138.2400 C   0  0  0  0  0  3  0  0  0  0  0  0
  193.8950  176.9000  137.7290 O   0  0  0  0  0  1  0  0  0  0  0  0
  192.5750  174.9480  137.2130 C   0  0  0  0  0  3  0  0  0  0  0  0
  192.6730  176.2450  137.7260 C   0  0  0  0  0  0  0  0  0  0  0  0
  191.3430  174.2850  137.2110 C   0  0  0  0  0  3  0  0  0  0  0  0
  191.8880  176.8760  144.5470 C   0  0  0  0  0  2  0  0  0  0  0  0
  191.9800  176.8440  145.9380 O   0  0  0  0  0  1  0  0  0  0  0  0
  187.9180  177.7000  147.4830 C   0  0  0  0  0  1  0  0  0  0  0  0
  188.1190  178.3540  146.2640 O   0  0  0  0  0  0  0  0  0  0  0  0
  1  4  1  0  0  0  0
  2 23  1  0  0  0  0
  3  7  1  0  0  0  0
  3  8  2  0  0  0  0
  4 37  1  6  0  0  0
  5 18  1  0  0  0  0
  6  8  1  0  0  0  0
  6 21  1  0  0  0  0
  7 20  1  0  0  0  0
  8 12  1  0  0  0  0
  9  7  2  0  0  0  0
  9  5  1  0  0  0  0
 10  6  2  0  0  0  0
 11  4  1  0  0  0  0
 12 16  1  0  0  0  0
 13 23  1  0  0  0  0
 14 19  2  0  0  0  0
 15 19  1  0  0  0  0
 15 10  1  0  0  0  0
 16 13  1  0  0  0  0
 17 34  1  1  0  0  0
 17 11  1  0  0  0  0
 19  3  1  0  0  0  0
 20 12  2  0  0  0  0
 20 25  1  0  0  0  0
 21  2  1  0  0  0  0
 22  9  1  0  0  0  0
 24 18  1  6  0  0  0
 24 25  1  0  0  0  0
 24 17  1  0  0  0  0
 25  1  1  0  0  0  0
 26 14  1  0  0  0  0
 26 22  2  0  0  0  0
 27 28  1  0  0  0  0
 28 22  1  0  0  0  0
 29 28  2  0  0  0  0
 31 32  2  0  0  0  0
 32 30  1  0  0  0  0
 32 29  1  0  0  0  0
 33 31  1  0  0  0  0
 33 27  2  0  0  0  0
 34 35  1  0  0  0  0
 37 36  1  0  0  0  0
M  END
>  <MODEL>
4

>  <REMARK>
 VINA RESULT:      -9.4      2.570      7.797
  Name = 
  3 active torsions:
  status: ('A' for Active; 'I' for Inactive)
    1  A    between atoms: C_5  and  O_23
    2  A    between atoms: C_6  and  C_31
    3  A    between atoms: C_11  and  C_26
                            x       y       z     vdW  Elec       q    Type
                         _______ _______ _______ _____ _____    ______ ____

>  <TORSDO>
F 3

$$$$
=
 OpenBabel10232412393D

 37 43  0  0  1  0  0  0  0  0999 V2000
  184.8490  177.6360  143.2310 C   0  0  0  0  0  2  0  0  0  0  0  0
  185.6610  177.9910  137.3020 C   0  0  0  0  0  2  0  0  0  0  0  0
  188.8230  177.7010  140.6030 C   0  0  0  0  0  0  0  0  0  0  0  0
  183.9280  178.7980  143.6500 C   0  0  1  0  0  3  0  0  0  0  0  0
  188.4440  176.8680  144.2940 O   0  0  0  0  0  0  0  0  0  0  0  0
  187.8440  178.4730  138.4590 C   0  0  0  0  0  0  0  0  0  0  0  0
  188.4020  177.5400  141.9930 C   0  0  0  0  0  0  0  0  0  0  0  0
  187.7180  178.0740  139.8730 C   0  0  0  0  0  0  0  0  0  0  0  0
  189.1360  177.0900  143.0990 C   0  0  0  0  0  0  0  0  0  0  0  0
  189.0230  178.4800  137.9140 N   0  0  0  0  0  0  0  0  0  0  0  0
  184.6470  179.9210  144.4210 C   0  0  0  0  0  2  0  0  0  0  0  0
  186.6280  178.1850  140.7230 C   0  0  0  0  0  0  0  0  0  0  0  0
  184.5320  177.7230  139.5120 C   0  0  0  0  0  2  0  0  0  0  0  0
  191.2370  177.2960  140.7060 C   0  0  0  0  0  3  0  0  0  0  0  0
  190.2560  178.0160  138.5710 C   0  0  0  0  0  2  0  0  0  0  0  0
  185.2860  178.7250  140.3620 C   0  0  0  0  0  2  0  0  0  0  0  0
  185.8010  179.3930  145.2660 C   0  0  2  0  0  3  0  0  0  0  0  0
  187.9020  177.9190  145.0850 C   0  0  0  0  0  2  0  0  0  0  0  0
  190.0870  177.6630  140.0320 C   0  0  0  0  0  0  0  0  0  0  0  0
  187.0430  177.8520  142.0080 C   0  0  0  0  0  0  0  0  0  0  0  0
  186.7220  178.9090  137.6890 N   0  0  0  0  0  2  0  0  0  0  0  0
  190.5100  176.7840  143.0910 C   0  0  0  0  0  0  0  0  0  0  0  0
  184.3960  178.2570  138.0980 C   0  0  0  0  0  2  0  0  0  0  0  0
  186.8550  178.7500  144.3380 C   0  0  1  0  0  3  0  0  0  0  0  0
  186.2590  178.0370  143.2000 N   0  0  0  0  0  0  0  0  0  0  0  0
  191.4070  176.9050  142.0270 C   0  0  0  0  0  3  0  0  0  0  0  0
  191.7900  175.0850  144.3830 C   0  0  0  0  0  3  0  0  0  0  0  0
  191.1210  176.3180  144.3450 C   0  0  0  0  0  0  0  0  0  0  0  0
  191.0250  177.0960  145.5050 C   0  0  0  0  0  3  0  0  0  0  0  0
  191.4950  177.4140  147.8460 O   0  0  0  0  0  1  0  0  0  0  0  0
  192.2580  175.4130  146.7350 C   0  0  0  0  0  3  0  0  0  0  0  0
  191.5930  176.6430  146.6980 C   0  0  0  0  0  0  0  0  0  0  0  0
  192.3570  174.6340  145.5770 C   0  0  0  0  0  3  0  0  0  0  0  0
  185.2800  178.4520  146.3530 C   0  0  0  0  0  2  0  0  0  0  0  0
  185.6070  178.9480  147.6140 O   0  0  0  0  0  1  0  0  0  0  0  0
  182.0000  178.7880  142.5610 C   0  0  0  0  0  1  0  0  0  0  0  0
  183.2890  179.3300  142.5320 O   0  0  0  0  0  0  0  0  0  0  0  0
  1  4  1  0  0  0  0
  2 21  1  0  0  0  0
  2 23  1  0  0  0  0
  3  7  1  0  0  0  0
  4 37  1  6  0  0  0
  4 11  1  0  0  0  0
  5 18  1  0  0  0  0
  6  8  1  0  0  0  0
  7 20  1  0  0  0  0
  7  9  2  0  0  0  0
  8  3  2  0  0  0  0
  8 12  1  0  0  0  0
  9  5  1  0  0  0  0
 10  6  2  0  0  0  0
 10 15  1  0  0  0  0
 11 17  1  0  0  0  0
 12 20  2  0  0  0  0
 13 16  1  0  0  0  0
 14 26  1  0  0  0  0
 15 19  1  0  0  0  0
 16 12  1  0  0  0  0
 17 34  1  1  0  0  0
 19  3  1  0  0  0  0
 19 14  2  0  0  0  0
 20 25  1  0  0  0  0
 21  6  1  0  0  0  0
 22  9  1  0  0  0  0
 22 28  1  0  0  0  0
 23 13  1  0  0  0  0
 24 18  1  1  0  0  0
 24 17  1  0  0  0  0
 25  1  1  0  0  0  0
 25 24  1  0  0  0  0
 26 22  2  0  0  0  0
 27 33  1  0  0  0  0
 28 27  2  0  0  0  0
 28 29  1  0  0  0  0
 29 32  2  0  0  0  0
 32 31  1  0  0  0  0
 32 30  1  0  0  0  0
 33 31  2  0  0  0  0
 34 35  1  0  0  0  0
 37 36  1  0  0  0  0
M  END
>  <MODEL>
5

>  <REMARK>
 VINA RESULT:      -9.2      2.368      8.200
  Name = 
  3 active torsions:
  status: ('A' for Active; 'I' for Inactive)
    1  A    between atoms: C_5  and  O_23
    2  A    between atoms: C_6  and  C_31
    3  A    between atoms: C_11  and  C_26
                            x       y       z     vdW  Elec       q    Type
                         _______ _______ _______ _____ _____    ______ ____

>  <TORSDO>
F 3

$$$$
=
 OpenBabel10232412393D

 37 43  0  0  1  0  0  0  0  0999 V2000
  184.2300  179.6660  142.5880 C   0  0  0  0  0  2  0  0  0  0  0  0
  187.3350  178.5850  147.6000 C   0  0  0  0  0  2  0  0  0  0  0  0
  188.4100  177.4860  143.2860 C   0  0  0  0  0  0  0  0  0  0  0  0
  182.7990  179.1370  142.7980 C   0  0  1  0  0  3  0  0  0  0  0  0
  186.8590  178.6290  140.0070 O   0  0  0  0  0  0  0  0  0  0  0  0
  188.2610  177.1650  145.7400 C   0  0  0  0  0  0  0  0  0  0  0  0
  187.5420  177.9220  142.1930 C   0  0  0  0  0  0  0  0  0  0  0  0
  187.7190  177.6610  144.4620 C   0  0  0  0  0  0  0  0  0  0  0  0
  187.8180  178.0200  140.8230 C   0  0  0  0  0  0  0  0  0  0  0  0
  189.4020  176.5430  145.7360 N   0  0  0  0  0  0  0  0  0  0  0  0
  182.4800  177.8570  142.0030 C   0  0  0  0  0  2  0  0  0  0  0  0
  186.4540  178.1560  144.1770 C   0  0  0  0  0  0  0  0  0  0  0  0
  185.6100  179.5130  146.0540 C   0  0  0  0  0  2  0  0  0  0  0  0
  190.3950  176.6560  142.1160 C   0  0  0  0  0  3  0  0  0  0  0  0
  190.2660  176.3800  144.5550 C   0  0  0  0  0  2  0  0  0  0  0  0
  185.3390  178.3250  145.1530 C   0  0  0  0  0  2  0  0  0  0  0  0
  183.2290  177.8000  140.6770 C   0  0  2  0  0  3  0  0  0  0  0  0
  185.6010  178.0330  139.7070 C   0  0  0  0  0  2  0  0  0  0  0  0
  189.6480  176.8610  143.2610 C   0  0  0  0  0  0  0  0  0  0  0  0
  186.3520  178.3210  142.8000 C   0  0  0  0  0  0  0  0  0  0  0  0
  187.5450  177.2900  146.9710 N   0  0  0  0  0  2  0  0  0  0  0  0
  189.0130  177.6090  140.2030 C   0  0  0  0  0  0  0  0  0  0  0  0
  185.8890  179.0270  147.4640 C   0  0  0  0  0  2  0  0  0  0  0  0
  184.7490  177.7810  140.9550 C   0  0  1  0  0  3  0  0  0  0  0  0
  185.1340  178.6220  142.0960 N   0  0  0  0  0  0  0  0  0  0  0  0
  190.1170  176.9950  140.8000 C   0  0  0  0  0  3  0  0  0  0  0  0
  188.9760  179.0660  138.1870 C   0  0  0  0  0  3  0  0  0  0  0  0
  189.1360  177.7910  138.7500 C   0  0  0  0  0  0  0  0  0  0  0  0
  189.4010  176.6920  137.9230 C   0  0  0  0  0  3  0  0  0  0  0  0
  189.7620  175.7760  135.7250 O   0  0  0  0  0  1  0  0  0  0  0  0
  189.3390  178.1370  135.9810 C   0  0  0  0  0  3  0  0  0  0  0  0
  189.5020  176.8660  136.5410 C   0  0  0  0  0  0  0  0  0  0  0  0
  189.0770  179.2380  136.8040 C   0  0  0  0  0  3  0  0  0  0  0  0
  182.7840  178.9420  139.7620 C   0  0  0  0  0  2  0  0  0  0  0  0
  181.4140  178.8550  139.5190 O   0  0  0  0  0  1  0  0  0  0  0  0
  181.1920  178.6580  144.2440 C   0  0  0  0  0  1  0  0  0  0  0  0
  182.5620  178.9200  144.1540 O   0  0  0  0  0  0  0  0  0  0  0  0
  1  4  1  0  0  0  0
  3  8  2  0  0  0  0
  4 37  1  1  0  0  0
  5  9  1  0  0  0  0
  6 21  1  0  0  0  0
  7 20  1  0  0  0  0
  7  3  1  0  0  0  0
  8  6  1  0  0  0  0
  9  7  2  0  0  0  0
 10  6  2  0  0  0  0
 11  4  1  0  0  0  0
 12  8  1  0  0  0  0
 12 16  1  0  0  0  0
 13 23  1  0  0  0  0
 14 19  2  0  0  0  0
 15 10  1  0  0  0  0
 16 13  1  0  0  0  0
 17 34  1  6  0  0  0
 17 24  1  0  0  0  0
 17 11  1  0  0  0  0
 18  5  1  0  0  0  0
 19  3  1  0  0  0  0
 19 15  1  0  0  0  0
 20 12  2  0  0  0  0
 21  2  1  0  0  0  0
 22 26  2  0  0  0  0
 22  9  1  0  0  0  0
 23  2  1  0  0  0  0
 24 18  1  6  0  0  0
 24 25  1  0  0  0  0
 25  1  1  0  0  0  0
 25 20  1  0  0  0  0
 26 14  1  0  0  0  0
 27 28  1  0  0  0  0
 28 22  1  0  0  0  0
 29 28  2  0  0  0  0
 30 32  1  0  0  0  0
 31 32  2  0  0  0  0
 31 33  1  0  0  0  0
 32 29  1  0  0  0  0
 33 27  2  0  0  0  0
 35 34  1  0  0  0  0
 37 36  1  0  0  0  0
M  END
>  <MODEL>
6

>  <REMARK>
 VINA RESULT:      -9.0      1.913      6.505
  Name = 
  3 active torsions:
  status: ('A' for Active; 'I' for Inactive)
    1  A    between atoms: C_5  and  O_23
    2  A    between atoms: C_6  and  C_31
    3  A    between atoms: C_11  and  C_26
                            x       y       z     vdW  Elec       q    Type
                         _______ _______ _______ _____ _____    ______ ____

>  <TORSDO>
F 3

$$$$
=
 OpenBabel10232412393D

 37 43  0  0  1  0  0  0  0  0999 V2000
  186.8240  178.8320  137.6590 C   0  0  0  0  0  2  0  0  0  0  0  0
  181.4030  180.1120  139.8720 C   0  0  0  0  0  2  0  0  0  0  0  0
  185.0780  178.5010  142.0800 C   0  0  0  0  0  0  0  0  0  0  0  0
  186.6310  177.8940  136.4520 C   0  0  1  0  0  3  0  0  0  0  0  0
  188.6960  178.2290  140.9410 O   0  0  0  0  0  0  0  0  0  0  0  0
  182.6650  178.7230  141.5490 C   0  0  0  0  0  0  0  0  0  0  0  0
  186.3380  178.3350  141.3580 C   0  0  0  0  0  0  0  0  0  0  0  0
  184.0830  178.6860  141.1470 C   0  0  0  0  0  0  0  0  0  0  0  0
  187.6400  178.2060  141.8590 C   0  0  0  0  0  0  0  0  0  0  0  0
  182.3670  178.5640  142.8040 N   0  0  0  0  0  0  0  0  0  0  0  0
  187.0560  176.4380  136.7150 C   0  0  0  0  0  2  0  0  0  0  0  0
  184.6350  178.6200  139.8760 C   0  0  0  0  0  0  0  0  0  0  0  0
  183.3290  179.9830  138.2910 C   0  0  0  0  0  2  0  0  0  0  0  0
  185.7350  178.1830  144.4180 C   0  0  0  0  0  3  0  0  0  0  0  0
  183.3500  178.4500  143.8930 C   0  0  0  0  0  2  0  0  0  0  0  0
  183.8770  178.6030  138.5920 C   0  0  0  0  0  2  0  0  0  0  0  0
  188.2200  176.3460  137.6960 C   0  0  2  0  0  3  0  0  0  0  0  0
  188.9490  177.1740  140.0200 C   0  0  0  0  0  2  0  0  0  0  0  0
  184.7860  178.3680  143.4300 C   0  0  0  0  0  0  0  0  0  0  0  0
  186.0050  178.4150  140.0060 C   0  0  0  0  0  0  0  0  0  0  0  0
  181.6090  178.8670  140.5980 N   0  0  0  0  0  2  0  0  0  0  0  0
  187.9810  178.1140  143.2210 C   0  0  0  0  0  0  0  0  0  0  0  0
  181.8180  179.9680  138.4190 C   0  0  0  0  0  2  0  0  0  0  0  0
  187.7830  176.9310  139.0570 C   0  0  1  0  0  3  0  0  0  0  0  0
  186.8950  178.0940  138.9230 N   0  0  0  0  0  0  0  0  0  0  0  0
  187.1160  178.0870  144.3180 C   0  0  0  0  0  3  0  0  0  0  0  0
  190.1740  179.1370  143.7990 C   0  0  0  0  0  3  0  0  0  0  0  0
  189.4030  177.9870  143.5710 C   0  0  0  0  0  0  0  0  0  0  0  0
  189.9940  176.7210  143.6630 C   0  0  0  0  0  3  0  0  0  0  0  0
  191.9330  175.3500  144.0680 O   0  0  0  0  0  1  0  0  0  0  0  0
  192.1170  177.7510  144.2050 C   0  0  0  0  0  3  0  0  0  0  0  0
  191.3490  176.6040  143.9800 C   0  0  0  0  0  0  0  0  0  0  0  0
  191.5290  179.0180  144.1160 C   0  0  0  0  0  3  0  0  0  0  0  0
  189.4660  177.0110  137.1090 C   0  0  0  0  0  2  0  0  0  0  0  0
  190.4960  176.0800  136.9880 O   0  0  0  0  0  1  0  0  0  0  0  0
  185.0100  176.6110  135.6570 C   0  0  0  0  0  1  0  0  0  0  0  0
  185.3040  177.9270  136.0280 O   0  0  0  0  0  0  0  0  0  0  0  0
  1 25  1  0  0  0  0
  2 21  1  0  0  0  0
  3 19  2  0  0  0  0
  4 37  1  1  0  0  0
  4 11  1  0  0  0  0
  4  1  1  0  0  0  0
  5  9  1  0  0  0  0
  6 10  2  0  0  0  0
  7  9  1  0  0  0  0
  7  3  1  0  0  0  0
  8  6  1  0  0  0  0
  8  3  1  0  0  0  0
  9 22  2  0  0  0  0
 10 15  1  0  0  0  0
 11 17  1  0  0  0  0
 12 20  1  0  0  0  0
 12  8  2  0  0  0  0
 13 23  1  0  0  0  0
 13 16  1  0  0  0  0
 16 12  1  0  0  0  0
 17 34  1  6  0  0  0
 17 24  1  0  0  0  0
 18  5  1  0  0  0  0
 19 15  1  0  0  0  0
 19 14  1  0  0  0  0
 20  7  2  0  0  0  0
 21  6  1  0  0  0  0
 22 28  1  0  0  0  0
 22 26  1  0  0  0  0
 23  2  1  0  0  0  0
 24 18  1  6  0  0  0
 25 24  1  0  0  0  0
 25 20  1  0  0  0  0
 26 14  2  0  0  0  0
 27 33  1  0  0  0  0
 28 29  1  0  0  0  0
 28 27  2  0  0  0  0
 29 32  2  0  0  0  0
 32 30  1  0  0  0  0
 32 31  1  0  0  0  0
 33 31  2  0  0  0  0
 35 34  1  0  0  0  0
 36 37  1  0  0  0  0
M  END
>  <MODEL>
7

>  <REMARK>
 VINA RESULT:      -9.0      3.134      7.408
  Name = 
  3 active torsions:
  status: ('A' for Active; 'I' for Inactive)
    1  A    between atoms: C_5  and  O_23
    2  A    between atoms: C_6  and  C_31
    3  A    between atoms: C_11  and  C_26
                            x       y       z     vdW  Elec       q    Type
                         _______ _______ _______ _____ _____    ______ ____

>  <TORSDO>
F 3

$$$$
