=
 OpenBabel10232410323D

 38 43  0  0  1  0  0  0  0  0999 V2000
  187.4910  177.9490  143.8640 C   0  0  0  0  0  0  0  0  0  0  0  0
  185.6410  178.0780  146.0150 C   0  0  0  0  0  3  0  0  0  0  0  0
  190.5070  177.5190  146.0510 C   0  0  0  0  0  2  0  0  0  0  0  0
  186.9910  177.8800  146.3130 C   0  0  0  0  0  0  0  0  0  0  0  0
  187.9200  177.8540  145.1960 C   0  0  0  0  0  0  0  0  0  0  0  0
  185.2090  178.2610  144.7000 C   0  0  0  0  0  0  0  0  0  0  0  0
  189.1830  177.6880  145.6640 C   0  0  0  0  0  0  0  0  0  0  0  0
  188.7370  177.4980  148.1240 N   0  0  0  0  0  0  0  0  0  0  0  0
  186.1270  178.1490  143.6270 C   0  0  0  0  0  3  0  0  0  0  0  0
  187.4130  177.6860  147.7150 C   0  0  0  0  0  3  0  0  0  0  0  0
  189.5390  177.5300  147.0470 C   0  0  0  0  0  0  0  0  0  0  0  0
  182.5370  178.7100  142.1930 C   0  0  0  0  0  0  0  0  0  0  0  0
  182.8150  177.8580  141.0300 C   0  0  0  0  0  3  0  0  0  0  0  0
  179.9820  178.8290  138.8280 O   0  0  0  0  0  1  0  0  0  0  0  0
  181.5330  179.8170  142.1050 C   0  0  2  0  0  3  0  0  0  0  0  0
  183.7700  178.4070  144.4820 C   0  0  0  0  0  3  0  0  0  0  0  0
  183.1970  178.5380  143.3120 C   0  0  0  0  0  0  0  0  0  0  0  0
  180.7580  179.8770  143.2490 F   0  0  0  0  0  0  0  0  0  0  0  0
  180.8650  178.8390  139.9000 C   0  0  0  0  0  0  0  0  0  0  0  0
  182.0460  177.9130  139.9350 C   0  0  0  0  0  0  0  0  0  0  0  0
  180.6250  179.6870  140.9070 C   0  0  0  0  0  3  0  0  0  0  0  0
  182.3740  177.0600  138.8680 O   0  0  0  0  0  0  0  0  0  0  0  0
  182.9170  175.7560  139.0260 C   0  0  0  0  0  1  0  0  0  0  0  0
  188.2340  178.0650  141.4340 C   0  0  0  0  0  0  0  0  0  0  0  0
  189.0940  177.6170  140.4230 C   0  0  0  0  0  3  0  0  0  0  0  0
  188.3890  177.5750  142.7450 C   0  0  0  0  0  0  0  0  0  0  0  0
  190.2520  176.1990  141.9970 C   0  0  0  0  0  3  0  0  0  0  0  0
  189.4080  176.6530  143.0120 C   0  0  0  0  0  3  0  0  0  0  0  0
  190.1090  176.6830  140.7000 C   0  0  0  0  0  0  0  0  0  0  0  0
  187.1820  179.0730  141.1060 C   0  0  0  0  0  1  0  0  0  0  0  0
  190.9030  176.0960  139.6620 N   0  0  0  0  0  2  0  0  0  0  0  0
  192.8440  177.4190  139.7880 O   0  0  0  0  0  0  0  0  0  0  0  0
  192.1560  176.5800  139.1450 C   0  0  0  0  0  0  0  0  0  0  0  0
  192.8750  173.7930  136.8530 C   0  0  0  0  0  2  0  0  0  0  0  0
  194.2670  174.3700  137.0680 C   0  0  0  0  0  2  0  0  0  0  0  0
  191.8930  174.8470  137.3330 C   0  0  0  0  0  2  0  0  0  0  0  0
  192.7270  176.0040  137.8820 C   0  0  0  0  0  3  0  0  0  0  0  0
  194.1000  175.4350  138.1330 C   0  0  0  0  0  2  0  0  0  0  0  0
  1  5  1  0  0  0  0
  2  4  1  0  0  0  0
  3 11  1  0  0  0  0
  4 10  1  0  0  0  0
  5  7  1  0  0  0  0
  5  4  2  0  0  0  0
  6  2  2  0  0  0  0
  7  3  1  0  0  0  0
  7 11  2  0  0  0  0
  9  1  2  0  0  0  0
  9  6  1  0  0  0  0
 10  8  2  0  0  0  0
 11  8  1  0  0  0  0
 12 17  2  0  0  0  0
 13 12  1  0  0  0  0
 14 19  1  0  0  0  0
 15 12  1  0  0  0  0
 15 18  1  1  0  0  0
 16  6  1  0  0  0  0
 17 16  2  0  0  0  0
 19 20  1  0  0  0  0
 19 21  2  0  0  0  0
 20 13  2  0  0  0  0
 21 15  1  0  0  0  0
 22 23  1  0  0  0  0
 22 20  1  0  0  0  0
 24 26  1  0  0  0  0
 25 29  1  0  0  0  0
 25 24  2  0  0  0  0
 26 28  2  0  0  0  0
 26  1  1  0  0  0  0
 27 28  1  0  0  0  0
 29 27  2  0  0  0  0
 30 24  1  0  0  0  0
 31 29  1  0  0  0  0
 33 31  1  0  0  0  0
 33 32  2  0  0  0  0
 34 35  1  0  0  0  0
 34 36  1  0  0  0  0
 35 38  1  0  0  0  0
 36 37  1  0  0  0  0
 37 38  1  0  0  0  0
 37 33  1  0  0  0  0
M  END
>  <MODEL>
1

>  <REMARK>
 VINA RESULT:      -9.8      0.000      0.000
  Name = 
  5 active torsions:
  status: ('A' for Active; 'I' for Inactive)
    1  A    between atoms: N_2  and  C_35
    2  A    between atoms: C_3  and  C_14
    3  A    between atoms: O_12  and  C_30
    4  A    between atoms: C_17  and  C_23
    5  A    between atoms: C_19  and  C_25
                            x       y       z     vdW  Elec       q    Type
                         _______ _______ _______ _____ _____    ______ ____

>  <TORSDO>
F 5

$$$$
=
 OpenBabel10232410323D

 38 43  0  0  1  0  0  0  0  0999 V2000
  189.7830  176.7190  138.1940 C   0  0  0  0  0  0  0  0  0  0  0  0
  187.4140  178.2820  138.3050 C   0  0  0  0  0  3  0  0  0  0  0  0
  189.7260  176.3030  134.4670 C   0  0  0  0  0  2  0  0  0  0  0  0
  187.8750  177.8650  137.0540 C   0  0  0  0  0  0  0  0  0  0  0  0
  189.0690  177.0370  137.0290 C   0  0  0  0  0  0  0  0  0  0  0  0
  188.0650  177.9010  139.4800 C   0  0  0  0  0  0  0  0  0  0  0  0
  189.3550  176.6990  135.7470 C   0  0  0  0  0  0  0  0  0  0  0  0
  187.5310  177.9190  134.5340 N   0  0  0  0  0  0  0  0  0  0  0  0
  189.2720  177.1620  139.4180 C   0  0  0  0  0  3  0  0  0  0  0  0
  187.1650  178.2910  135.8300 C   0  0  0  0  0  3  0  0  0  0  0  0
  188.6100  177.1210  134.5920 C   0  0  0  0  0  0  0  0  0  0  0  0
  188.2240  177.7230  143.1640 C   0  0  0  0  0  0  0  0  0  0  0  0
  189.6250  177.6040  143.5840 C   0  0  0  0  0  3  0  0  0  0  0  0
  189.1730  177.2920  147.2600 O   0  0  0  0  0  1  0  0  0  0  0  0
  187.1130  177.4170  144.1200 C   0  0  2  0  0  3  0  0  0  0  0  0
  187.5390  178.4300  140.7380 C   0  0  0  0  0  3  0  0  0  0  0  0
  187.9280  178.0560  141.9320 C   0  0  0  0  0  0  0  0  0  0  0  0
  186.0870  178.3370  144.0000 F   0  0  0  0  0  0  0  0  0  0  0  0
  188.8640  177.3600  145.9070 C   0  0  0  0  0  0  0  0  0  0  0  0
  189.9480  177.4200  144.8700 C   0  0  0  0  0  0  0  0  0  0  0  0
  187.5730  177.3840  145.5570 C   0  0  0  0  0  3  0  0  0  0  0  0
  191.3120  177.3250  145.1910 O   0  0  0  0  0  0  0  0  0  0  0  0
  191.8770  176.2810  145.9730 C   0  0  0  0  0  1  0  0  0  0  0  0
  191.4580  174.8650  137.7150 C   0  0  0  0  0  0  0  0  0  0  0  0
  192.7870  174.4210  137.7250 C   0  0  0  0  0  3  0  0  0  0  0  0
  191.1630  176.1820  138.1190 C   0  0  0  0  0  0  0  0  0  0  0  0
  193.5290  176.5700  138.5380 C   0  0  0  0  0  3  0  0  0  0  0  0
  192.2080  177.0240  138.5170 C   0  0  0  0  0  3  0  0  0  0  0  0
  193.8300  175.2730  138.1350 C   0  0  0  0  0  0  0  0  0  0  0  0
  190.3810  173.9400  137.2520 C   0  0  0  0  0  1  0  0  0  0  0  0
  195.1720  174.8020  138.2980 N   0  0  0  0  0  2  0  0  0  0  0  0
  196.1150  175.4260  136.2350 O   0  0  0  0  0  0  0  0  0  0  0  0
  196.2060  174.7530  137.2980 C   0  0  0  0  0  0  0  0  0  0  0  0
  199.3260  173.1340  136.2110 C   0  0  0  0  0  2  0  0  0  0  0  0
  198.6390  171.9950  136.9510 C   0  0  0  0  0  2  0  0  0  0  0  0
  198.6100  174.4080  136.6240 C   0  0  0  0  0  2  0  0  0  0  0  0
  197.4720  173.9890  137.5540 C   0  0  0  0  0  3  0  0  0  0  0  0
  197.2620  172.5180  137.3040 C   0  0  0  0  0  2  0  0  0  0  0  0
  1  9  1  0  0  0  0
  2  6  1  0  0  0  0
  3 11  1  0  0  0  0
  3  7  1  0  0  0  0
  4  2  2  0  0  0  0
  5  4  1  0  0  0  0
  5  1  2  0  0  0  0
  6 16  1  0  0  0  0
  7  5  1  0  0  0  0
  8 11  1  0  0  0  0
  8 10  2  0  0  0  0
  9  6  2  0  0  0  0
 10  4  1  0  0  0  0
 11  7  2  0  0  0  0
 12 13  1  0  0  0  0
 12 15  1  0  0  0  0
 13 20  2  0  0  0  0
 15 18  1  1  0  0  0
 15 21  1  0  0  0  0
 16 17  2  0  0  0  0
 17 12  2  0  0  0  0
 19 14  1  0  0  0  0
 20 22  1  0  0  0  0
 20 19  1  0  0  0  0
 21 19  2  0  0  0  0
 22 23  1  0  0  0  0
 24 25  2  0  0  0  0
 24 26  1  0  0  0  0
 25 29  1  0  0  0  0
 26  1  1  0  0  0  0
 26 28  2  0  0  0  0
 28 27  1  0  0  0  0
 29 31  1  0  0  0  0
 29 27  2  0  0  0  0
 30 24  1  0  0  0  0
 32 33  2  0  0  0  0
 33 37  1  0  0  0  0
 33 31  1  0  0  0  0
 34 36  1  0  0  0  0
 34 35  1  0  0  0  0
 35 38  1  0  0  0  0
 36 37  1  0  0  0  0
 38 37  1  0  0  0  0
M  END
>  <MODEL>
2

>  <REMARK>
 VINA RESULT:      -9.5      4.618      7.909
  Name = 
  5 active torsions:
  status: ('A' for Active; 'I' for Inactive)
    1  A    between atoms: N_2  and  C_35
    2  A    between atoms: C_3  and  C_14
    3  A    between atoms: O_12  and  C_30
    4  A    between atoms: C_17  and  C_23
    5  A    between atoms: C_19  and  C_25
                            x       y       z     vdW  Elec       q    Type
                         _______ _______ _______ _____ _____    ______ ____

>  <TORSDO>
F 5

$$$$
=
 OpenBabel10232410323D

 38 43  0  0  1  0  0  0  0  0999 V2000
  189.6330  175.8980  137.9770 C   0  0  0  0  0  0  0  0  0  0  0  0
  190.9990  177.2460  140.0700 C   0  0  0  0  0  3  0  0  0  0  0  0
  192.7500  174.7590  136.2310 C   0  0  0  0  0  2  0  0  0  0  0  0
  191.7580  176.5810  139.1030 C   0  0  0  0  0  0  0  0  0  0  0  0
  191.0340  175.9310  138.0250 C   0  0  0  0  0  0  0  0  0  0  0  0
  189.6060  177.2960  139.9890 C   0  0  0  0  0  0  0  0  0  0  0  0
  191.9190  175.3680  137.1640 C   0  0  0  0  0  0  0  0  0  0  0  0
  194.0820  175.9240  138.3050 N   0  0  0  0  0  0  0  0  0  0  0  0
  188.9260  176.5830  138.9710 C   0  0  0  0  0  3  0  0  0  0  0  0
  193.2300  176.5450  139.2220 C   0  0  0  0  0  3  0  0  0  0  0  0
  193.3480  175.3860  137.3170 C   0  0  0  0  0  0  0  0  0  0  0  0
  189.0540  177.4460  143.6360 C   0  0  0  0  0  0  0  0  0  0  0  0
  190.3370  177.2800  144.3280 C   0  0  0  0  0  3  0  0  0  0  0  0
  189.1770  177.3340  147.8590 O   0  0  0  0  0  1  0  0  0  0  0  0
  187.7620  177.2990  144.3780 C   0  0  2  0  0  3  0  0  0  0  0  0
  188.8960  177.9690  141.0760 C   0  0  0  0  0  3  0  0  0  0  0  0
  189.0220  177.6830  142.3470 C   0  0  0  0  0  0  0  0  0  0  0  0
  186.8530  178.2660  143.9900 F   0  0  0  0  0  0  0  0  0  0  0  0
  189.1340  177.2970  146.4710 C   0  0  0  0  0  0  0  0  0  0  0  0
  190.3960  177.1950  145.6630 C   0  0  0  0  0  0  0  0  0  0  0  0
  187.9390  177.3690  145.8750 C   0  0  0  0  0  3  0  0  0  0  0  0
  191.6640  177.0460  146.2500 O   0  0  0  0  0  0  0  0  0  0  0  0
  192.2040  175.8020  146.6760 C   0  0  0  0  0  1  0  0  0  0  0  0
  188.0210  175.3640  136.0830 C   0  0  0  0  0  0  0  0  0  0  0  0
  187.3500  174.4000  135.3180 C   0  0  0  0  0  3  0  0  0  0  0  0
  188.9220  174.9510  137.0830 C   0  0  0  0  0  0  0  0  0  0  0  0
  188.4510  172.6280  136.5330 C   0  0  0  0  0  3  0  0  0  0  0  0
  189.1340  173.5830  137.2890 C   0  0  0  0  0  3  0  0  0  0  0  0
  187.5630  173.0270  135.5390 C   0  0  0  0  0  0  0  0  0  0  0  0
  187.7840  176.8120  135.8050 C   0  0  0  0  0  1  0  0  0  0  0  0
  186.7830  172.0240  134.8790 N   0  0  0  0  0  2  0  0  0  0  0  0
  184.7670  172.1660  136.0820 O   0  0  0  0  0  0  0  0  0  0  0  0
  185.4910  171.5270  135.2710 C   0  0  0  0  0  0  0  0  0  0  0  0
  183.3700  168.5200  135.2660 C   0  0  0  0  0  2  0  0  0  0  0  0
  184.7280  167.9290  134.9130 C   0  0  0  0  0  2  0  0  0  0  0  0
  183.4830  170.0190  135.0490 C   0  0  0  0  0  2  0  0  0  0  0  0
  184.9270  170.2920  134.6300 C   0  0  0  0  0  3  0  0  0  0  0  0
  185.7110  169.0740  135.0460 C   0  0  0  0  0  2  0  0  0  0  0  0
  1  5  2  0  0  0  0
  1  9  1  0  0  0  0
  3  7  1  0  0  0  0
  3 11  1  0  0  0  0
  4 10  1  0  0  0  0
  4  2  2  0  0  0  0
  5  4  1  0  0  0  0
  6  2  1  0  0  0  0
  6 16  1  0  0  0  0
  7 11  2  0  0  0  0
  7  5  1  0  0  0  0
  8 10  2  0  0  0  0
  9  6  2  0  0  0  0
 11  8  1  0  0  0  0
 12 13  1  0  0  0  0
 12 15  1  0  0  0  0
 13 20  2  0  0  0  0
 15 18  1  6  0  0  0
 15 21  1  0  0  0  0
 16 17  2  0  0  0  0
 17 12  2  0  0  0  0
 19 14  1  0  0  0  0
 20 22  1  0  0  0  0
 20 19  1  0  0  0  0
 21 19  2  0  0  0  0
 22 23  1  0  0  0  0
 24 26  1  0  0  0  0
 25 29  1  0  0  0  0
 25 24  2  0  0  0  0
 26 28  2  0  0  0  0
 26  1  1  0  0  0  0
 27 28  1  0  0  0  0
 29 27  2  0  0  0  0
 30 24  1  0  0  0  0
 31 33  1  0  0  0  0
 31 29  1  0  0  0  0
 33 32  2  0  0  0  0
 35 38  1  0  0  0  0
 35 34  1  0  0  0  0
 36 34  1  0  0  0  0
 37 38  1  0  0  0  0
 37 36  1  0  0  0  0
 37 33  1  0  0  0  0
M  END
>  <MODEL>
3

>  <REMARK>
 VINA RESULT:      -9.2      4.539      8.902
  Name = 
  5 active torsions:
  status: ('A' for Active; 'I' for Inactive)
    1  A    between atoms: N_2  and  C_35
    2  A    between atoms: C_3  and  C_14
    3  A    between atoms: O_12  and  C_30
    4  A    between atoms: C_17  and  C_23
    5  A    between atoms: C_19  and  C_25
                            x       y       z     vdW  Elec       q    Type
                         _______ _______ _______ _____ _____    ______ ____

>  <TORSDO>
F 5

$$$$
=
 OpenBabel10232410323D

 38 43  0  0  1  0  0  0  0  0999 V2000
  183.9720  178.2590  141.9460 C   0  0  0  0  0  0  0  0  0  0  0  0
  183.2250  179.1720  144.5300 C   0  0  0  0  0  3  0  0  0  0  0  0
  180.6740  179.0570  140.3500 C   0  0  0  0  0  2  0  0  0  0  0  0
  182.2960  179.2850  143.4930 C   0  0  0  0  0  0  0  0  0  0  0  0
  182.6920  178.7770  142.1900 C   0  0  0  0  0  0  0  0  0  0  0  0
  184.4730  178.5790  144.3230 C   0  0  0  0  0  0  0  0  0  0  0  0
  181.6670  178.9350  141.3150 C   0  0  0  0  0  0  0  0  0  0  0  0
  179.9820  180.0690  142.7850 N   0  0  0  0  0  0  0  0  0  0  0  0
  184.8590  178.1690  143.0240 C   0  0  0  0  0  3  0  0  0  0  0  0
  180.9870  179.9210  143.7450 C   0  0  0  0  0  3  0  0  0  0  0  0
  180.4000  179.5390  141.6240 C   0  0  0  0  0  0  0  0  0  0  0  0
  187.8760  177.7120  145.4590 C   0  0  0  0  0  0  0  0  0  0  0  0
  188.8470  178.1150  144.4350 C   0  0  0  0  0  3  0  0  0  0  0  0
  191.9840  176.8710  145.9930 O   0  0  0  0  0  1  0  0  0  0  0  0
  188.2690  176.7680  146.5530 C   0  0  2  0  0  3  0  0  0  0  0  0
  185.3980  178.5540  145.4560 C   0  0  0  0  0  3  0  0  0  0  0  0
  186.6390  178.1390  145.4030 C   0  0  0  0  0  0  0  0  0  0  0  0
  187.7400  177.1650  147.7670 F   0  0  0  0  0  0  0  0  0  0  0  0
  190.6280  177.0850  145.7790 C   0  0  0  0  0  0  0  0  0  0  0  0
  190.1470  177.8190  144.5610 C   0  0  0  0  0  0  0  0  0  0  0  0
  189.7650  176.6310  146.6950 C   0  0  0  0  0  3  0  0  0  0  0  0
  191.0130  178.2490  143.5410 O   0  0  0  0  0  0  0  0  0  0  0  0
  191.1430  177.6040  142.2810 C   0  0  0  0  0  1  0  0  0  0  0  0
  183.8790  177.1890  139.6400 C   0  0  0  0  0  0  0  0  0  0  0  0
  184.4450  177.0360  138.3680 C   0  0  0  0  0  3  0  0  0  0  0  0
  184.4700  178.0760  140.5610 C   0  0  0  0  0  0  0  0  0  0  0  0
  186.1780  178.6250  138.9170 C   0  0  0  0  0  3  0  0  0  0  0  0
  185.6100  178.7930  140.1820 C   0  0  0  0  0  3  0  0  0  0  0  0
  185.5980  177.7550  137.9990 C   0  0  0  0  0  0  0  0  0  0  0  0
  182.6430  176.4250  139.9870 C   0  0  0  0  0  1  0  0  0  0  0  0
  186.2830  177.5080  136.7670 N   0  0  0  0  0  2  0  0  0  0  0  0
  187.1630  175.3650  137.1700 O   0  0  0  0  0  0  0  0  0  0  0  0
  187.1600  176.4090  136.4620 C   0  0  0  0  0  0  0  0  0  0  0  0
  190.0190  175.3010  134.4290 C   0  0  0  0  0  2  0  0  0  0  0  0
  190.2360  176.8070  134.4550 C   0  0  0  0  0  2  0  0  0  0  0  0
  188.5880  175.0640  134.8790 C   0  0  0  0  0  2  0  0  0  0  0  0
  188.0050  176.4350  135.2220 C   0  0  0  0  0  3  0  0  0  0  0  0
  189.1910  177.3470  135.4100 C   0  0  0  0  0  2  0  0  0  0  0  0
  1  5  2  0  0  0  0
  1  9  1  0  0  0  0
  3  7  1  0  0  0  0
  3 11  1  0  0  0  0
  4 10  1  0  0  0  0
  4  2  2  0  0  0  0
  5  4  1  0  0  0  0
  6  2  1  0  0  0  0
  6 16  1  0  0  0  0
  7 11  2  0  0  0  0
  7  5  1  0  0  0  0
  8 10  2  0  0  0  0
  9  6  2  0  0  0  0
 11  8  1  0  0  0  0
 12 15  1  0  0  0  0
 13 20  2  0  0  0  0
 13 12  1  0  0  0  0
 15 21  1  0  0  0  0
 15 18  1  1  0  0  0
 17 16  2  0  0  0  0
 17 12  2  0  0  0  0
 19 14  1  0  0  0  0
 19 21  2  0  0  0  0
 20 19  1  0  0  0  0
 22 20  1  0  0  0  0
 23 22  1  0  0  0  0
 24 30  1  0  0  0  0
 24 26  1  0  0  0  0
 25 24  2  0  0  0  0
 26  1  1  0  0  0  0
 27 28  1  0  0  0  0
 28 26  2  0  0  0  0
 29 25  1  0  0  0  0
 29 27  2  0  0  0  0
 31 29  1  0  0  0  0
 33 31  1  0  0  0  0
 33 32  2  0  0  0  0
 34 35  1  0  0  0  0
 34 36  1  0  0  0  0
 35 38  1  0  0  0  0
 36 37  1  0  0  0  0
 37 38  1  0  0  0  0
 37 33  1  0  0  0  0
M  END
>  <MODEL>
4

>  <REMARK>
 VINA RESULT:      -9.2      3.650      7.257
  Name = 
  5 active torsions:
  status: ('A' for Active; 'I' for Inactive)
    1  A    between atoms: N_2  and  C_35
    2  A    between atoms: C_3  and  C_14
    3  A    between atoms: O_12  and  C_30
    4  A    between atoms: C_17  and  C_23
    5  A    between atoms: C_19  and  C_25
                            x       y       z     vdW  Elec       q    Type
                         _______ _______ _______ _____ _____    ______ ____

>  <TORSDO>
F 5

$$$$
=
 OpenBabel10232410323D

 38 43  0  0  1  0  0  0  0  0999 V2000
  191.0840  176.5540  138.6130 C   0  0  0  0  0  0  0  0  0  0  0  0
  191.5460  175.4070  136.0560 C   0  0  0  0  0  3  0  0  0  0  0  0
  188.4820  178.9770  137.4200 C   0  0  0  0  0  2  0  0  0  0  0  0
  190.5780  176.4070  136.1690 C   0  0  0  0  0  0  0  0  0  0  0  0
  190.3870  177.0010  137.4810 C   0  0  0  0  0  0  0  0  0  0  0  0
  192.3090  175.0110  137.1560 C   0  0  0  0  0  0  0  0  0  0  0  0
  189.4400  177.9700  137.4030 C   0  0  0  0  0  0  0  0  0  0  0  0
  188.8050  177.7960  134.9840 N   0  0  0  0  0  0  0  0  0  0  0  0
  192.0430  175.5510  138.4380 C   0  0  0  0  0  3  0  0  0  0  0  0
  189.7850  176.7990  134.9850 C   0  0  0  0  0  3  0  0  0  0  0  0
  188.7170  178.3290  136.2140 C   0  0  0  0  0  0  0  0  0  0  0  0
  195.8650  174.0210  137.2030 C   0  0  0  0  0  0  0  0  0  0  0  0
  196.5220  174.6260  138.3680 C   0  0  0  0  0  3  0  0  0  0  0  0
  200.0100  173.4680  137.8150 O   0  0  0  0  0  1  0  0  0  0  0  0
  196.6760  173.4480  136.0820 C   0  0  2  0  0  3  0  0  0  0  0  0
  193.2620  173.9200  136.9530 C   0  0  0  0  0  3  0  0  0  0  0  0
  194.5580  174.0150  137.1090 C   0  0  0  0  0  0  0  0  0  0  0  0
  196.1350  172.2570  135.6350 F   0  0  0  0  0  0  0  0  0  0  0  0
  198.6640  173.7140  137.5800 C   0  0  0  0  0  0  0  0  0  0  0  0
  197.8410  174.5030  138.5580 C   0  0  0  0  0  0  0  0  0  0  0  0
  198.1170  173.2150  136.4650 C   0  0  0  0  0  3  0  0  0  0  0  0
  198.3920  175.1030  139.7030 O   0  0  0  0  0  0  0  0  0  0  0  0
  197.6560  175.3970  140.8830 C   0  0  0  0  0  1  0  0  0  0  0  0
  191.5070  177.3970  140.9750 C   0  0  0  0  0  0  0  0  0  0  0  0
  191.0090  177.6670  142.2570 C   0  0  0  0  0  3  0  0  0  0  0  0
  190.6350  176.9190  139.9780 C   0  0  0  0  0  0  0  0  0  0  0  0
  188.7960  176.9840  141.5720 C   0  0  0  0  0  3  0  0  0  0  0  0
  189.2840  176.7280  140.2890 C   0  0  0  0  0  3  0  0  0  0  0  0
  189.6500  177.4630  142.5610 C   0  0  0  0  0  0  0  0  0  0  0  0
  192.9510  177.6460  140.6840 C   0  0  0  0  0  1  0  0  0  0  0  0
  189.1460  177.5860  143.8960 N   0  0  0  0  0  2  0  0  0  0  0  0
  190.8820  176.5740  145.1200 O   0  0  0  0  0  0  0  0  0  0  0  0
  189.6960  177.0040  145.0920 C   0  0  0  0  0  0  0  0  0  0  0  0
  187.3810  178.5380  147.5040 C   0  0  0  0  0  2  0  0  0  0  0  0
  188.5760  178.2240  148.3950 C   0  0  0  0  0  2  0  0  0  0  0  0
  187.5690  177.7330  146.2310 C   0  0  0  0  0  2  0  0  0  0  0  0
  188.9060  177.0050  146.3680 C   0  0  0  0  0  3  0  0  0  0  0  0
  189.6570  177.7300  147.4550 C   0  0  0  0  0  2  0  0  0  0  0  0
  1 26  1  0  0  0  0
  2  4  2  0  0  0  0
  2  6  1  0  0  0  0
  4  5  1  0  0  0  0
  5  1  2  0  0  0  0
  6  9  2  0  0  0  0
  7  3  1  0  0  0  0
  7  5  1  0  0  0  0
  8 10  2  0  0  0  0
  8 11  1  0  0  0  0
  9  1  1  0  0  0  0
 10  4  1  0  0  0  0
 11  7  2  0  0  0  0
 11  3  1  0  0  0  0
 12 13  1  0  0  0  0
 13 20  2  0  0  0  0
 15 18  1  1  0  0  0
 15 21  1  0  0  0  0
 15 12  1  0  0  0  0
 16 17  2  0  0  0  0
 16  6  1  0  0  0  0
 17 12  2  0  0  0  0
 19 14  1  0  0  0  0
 19 20  1  0  0  0  0
 20 22  1  0  0  0  0
 21 19  2  0  0  0  0
 22 23  1  0  0  0  0
 24 25  1  0  0  0  0
 25 29  2  0  0  0  0
 26 28  1  0  0  0  0
 26 24  2  0  0  0  0
 27 29  1  0  0  0  0
 28 27  2  0  0  0  0
 29 31  1  0  0  0  0
 30 24  1  0  0  0  0
 31 33  1  0  0  0  0
 33 32  2  0  0  0  0
 33 37  1  0  0  0  0
 34 35  1  0  0  0  0
 36 37  1  0  0  0  0
 36 34  1  0  0  0  0
 37 38  1  0  0  0  0
 38 35  1  0  0  0  0
M  END
>  <MODEL>
5

>  <REMARK>
 VINA RESULT:      -9.2      5.547     11.839
  Name = 
  5 active torsions:
  status: ('A' for Active; 'I' for Inactive)
    1  A    between atoms: N_2  and  C_35
    2  A    between atoms: C_3  and  C_14
    3  A    between atoms: O_12  and  C_30
    4  A    between atoms: C_17  and  C_23
    5  A    between atoms: C_19  and  C_25
                            x       y       z     vdW  Elec       q    Type
                         _______ _______ _______ _____ _____    ______ ____

>  <TORSDO>
F 5

$$$$
=
 OpenBabel10232410323D

 38 43  0  0  1  0  0  0  0  0999 V2000
  185.8240  177.5940  138.0060 C   0  0  0  0  0  0  0  0  0  0  0  0
  183.7290  178.8410  139.4630 C   0  0  0  0  0  3  0  0  0  0  0  0
  183.7270  176.8460  134.9890 C   0  0  0  0  0  2  0  0  0  0  0  0
  183.4560  178.3790  138.1730 C   0  0  0  0  0  0  0  0  0  0  0  0
  184.5360  177.7130  137.4650 C   0  0  0  0  0  0  0  0  0  0  0  0
  184.9820  178.6520  140.0490 C   0  0  0  0  0  0  0  0  0  0  0  0
  184.0920  177.3020  136.2500 C   0  0  0  0  0  0  0  0  0  0  0  0
  181.7380  178.1640  136.3090 N   0  0  0  0  0  0  0  0  0  0  0  0
  186.0380  178.0730  139.3030 C   0  0  0  0  0  3  0  0  0  0  0  0
  182.1210  178.5990  137.5820 C   0  0  0  0  0  3  0  0  0  0  0  0
  182.7680  177.5210  135.7350 C   0  0  0  0  0  0  0  0  0  0  0  0
  186.4910  178.1340  143.3780 C   0  0  0  0  0  0  0  0  0  0  0  0
  187.8240  177.5390  143.2190 C   0  0  0  0  0  3  0  0  0  0  0  0
  188.7590  177.0910  146.7890 O   0  0  0  0  0  1  0  0  0  0  0  0
  185.8050  178.1240  144.7090 C   0  0  2  0  0  3  0  0  0  0  0  0
  185.1900  179.2180  141.3820 C   0  0  0  0  0  3  0  0  0  0  0  0
  185.8670  178.6430  142.3450 C   0  0  0  0  0  0  0  0  0  0  0  0
  185.1740  179.3300  144.9520 F   0  0  0  0  0  0  0  0  0  0  0  0
  187.9890  177.3640  145.6650 C   0  0  0  0  0  0  0  0  0  0  0  0
  188.5410  177.1580  144.2840 C   0  0  0  0  0  0  0  0  0  0  0  0
  186.7480  177.8290  145.8490 C   0  0  0  0  0  3  0  0  0  0  0  0
  189.8110  176.6060  144.0480 O   0  0  0  0  0  0  0  0  0  0  0  0
  190.1360  175.8070  142.9180 C   0  0  0  0  0  1  0  0  0  0  0  0
  187.2740  175.9130  136.7630 C   0  0  0  0  0  0  0  0  0  0  0  0
  188.4190  175.6560  135.9970 C   0  0  0  0  0  3  0  0  0  0  0  0
  186.9810  177.2360  137.1500 C   0  0  0  0  0  0  0  0  0  0  0  0
  188.9870  178.0030  136.0040 C   0  0  0  0  0  3  0  0  0  0  0  0
  187.8390  178.2680  136.7550 C   0  0  0  0  0  3  0  0  0  0  0  0
  189.2800  176.7010  135.6120 C   0  0  0  0  0  0  0  0  0  0  0  0
  186.3720  174.7820  137.1330 C   0  0  0  0  0  1  0  0  0  0  0  0
  190.5310  176.4500  134.9610 N   0  0  0  0  0  2  0  0  0  0  0  0
  191.6060  175.1090  136.5670 O   0  0  0  0  0  0  0  0  0  0  0  0
  191.6910  175.8070  135.5210 C   0  0  0  0  0  0  0  0  0  0  0  0
  194.9780  174.4290  134.6100 C   0  0  0  0  0  2  0  0  0  0  0  0
  195.3680  175.7950  135.1550 C   0  0  0  0  0  2  0  0  0  0  0  0
  193.4840  174.4800  134.3460 C   0  0  0  0  0  2  0  0  0  0  0  0
  193.0070  175.8590  134.8000 C   0  0  0  0  0  3  0  0  0  0  0  0
  194.0870  176.3860  135.7100 C   0  0  0  0  0  2  0  0  0  0  0  0
  1  9  1  0  0  0  0
  2  6  1  0  0  0  0
  3 11  1  0  0  0  0
  3  7  1  0  0  0  0
  4  2  2  0  0  0  0
  5  1  2  0  0  0  0
  5  4  1  0  0  0  0
  6 16  1  0  0  0  0
  7  5  1  0  0  0  0
  8 10  2  0  0  0  0
  9  6  2  0  0  0  0
 10  4  1  0  0  0  0
 11  7  2  0  0  0  0
 11  8  1  0  0  0  0
 12 15  1  0  0  0  0
 13 12  1  0  0  0  0
 13 20  2  0  0  0  0
 15 18  1  1  0  0  0
 15 21  1  0  0  0  0
 16 17  2  0  0  0  0
 17 12  2  0  0  0  0
 19 21  2  0  0  0  0
 19 14  1  0  0  0  0
 20 19  1  0  0  0  0
 22 20  1  0  0  0  0
 23 22  1  0  0  0  0
 24 30  1  0  0  0  0
 24 26  1  0  0  0  0
 25 24  2  0  0  0  0
 26  1  1  0  0  0  0
 27 28  1  0  0  0  0
 28 26  2  0  0  0  0
 29 25  1  0  0  0  0
 29 27  2  0  0  0  0
 31 33  1  0  0  0  0
 31 29  1  0  0  0  0
 33 32  2  0  0  0  0
 34 35  1  0  0  0  0
 35 38  1  0  0  0  0
 36 34  1  0  0  0  0
 36 37  1  0  0  0  0
 37 33  1  0  0  0  0
 37 38  1  0  0  0  0
M  END
>  <MODEL>
6

>  <REMARK>
 VINA RESULT:      -9.0      4.003      7.267
  Name = 
  5 active torsions:
  status: ('A' for Active; 'I' for Inactive)
    1  A    between atoms: N_2  and  C_35
    2  A    between atoms: C_3  and  C_14
    3  A    between atoms: O_12  and  C_30
    4  A    between atoms: C_17  and  C_23
    5  A    between atoms: C_19  and  C_25
                            x       y       z     vdW  Elec       q    Type
                         _______ _______ _______ _____ _____    ______ ____

>  <TORSDO>
F 5

$$$$
=
 OpenBabel10232410323D

 38 43  0  0  1  0  0  0  0  0999 V2000
  187.0770  177.1290  138.0680 C   0  0  0  0  0  0  0  0  0  0  0  0
  184.5680  178.3290  138.6460 C   0  0  0  0  0  3  0  0  0  0  0  0
  186.0020  175.6870  134.7780 C   0  0  0  0  0  2  0  0  0  0  0  0
  184.7140  177.6460  137.4360 C   0  0  0  0  0  0  0  0  0  0  0  0
  185.9970  177.0120  137.1830 C   0  0  0  0  0  0  0  0  0  0  0  0
  185.6080  178.3810  139.5770 C   0  0  0  0  0  0  0  0  0  0  0  0
  185.9530  176.3710  135.9870 C   0  0  0  0  0  0  0  0  0  0  0  0
  183.6290  176.9480  135.2430 N   0  0  0  0  0  0  0  0  0  0  0  0
  186.8720  177.8230  139.2660 C   0  0  0  0  0  3  0  0  0  0  0  0
  183.5960  177.6140  136.4720 C   0  0  0  0  0  3  0  0  0  0  0  0
  184.8240  176.3510  135.0990 C   0  0  0  0  0  0  0  0  0  0  0  0
  185.8340  178.4250  143.2610 C   0  0  0  0  0  0  0  0  0  0  0  0
  187.0960  177.8000  143.6780 C   0  0  0  0  0  3  0  0  0  0  0  0
  186.7070  177.9590  147.3710 O   0  0  0  0  0  1  0  0  0  0  0  0
  184.7320  178.6490  144.2490 C   0  0  2  0  0  3  0  0  0  0  0  0
  185.3800  179.1640  140.7920 C   0  0  0  0  0  3  0  0  0  0  0  0
  185.6420  178.7560  142.0080 C   0  0  0  0  0  0  0  0  0  0  0  0
  184.1400  179.8840  144.0620 F   0  0  0  0  0  0  0  0  0  0  0  0
  186.3940  178.0430  146.0200 C   0  0  0  0  0  0  0  0  0  0  0  0
  187.3730  177.6000  144.9720 C   0  0  0  0  0  0  0  0  0  0  0  0
  185.2010  178.5440  145.6800 C   0  0  0  0  0  3  0  0  0  0  0  0
  188.6060  177.0040  145.2880 O   0  0  0  0  0  0  0  0  0  0  0  0
  189.8110  177.7270  145.5010 C   0  0  0  0  0  1  0  0  0  0  0  0
  189.3490  177.7210  137.0870 C   0  0  0  0  0  0  0  0  0  0  0  0
  190.6140  177.2980  136.6580 C   0  0  0  0  0  3  0  0  0  0  0  0
  188.4550  176.7830  137.6410 C   0  0  0  0  0  0  0  0  0  0  0  0
  190.1100  175.0290  137.3130 C   0  0  0  0  0  3  0  0  0  0  0  0
  188.8530  175.4470  137.7560 C   0  0  0  0  0  3  0  0  0  0  0  0
  191.0020  175.9500  136.7710 C   0  0  0  0  0  0  0  0  0  0  0  0
  188.9810  179.1640  136.9710 C   0  0  0  0  0  1  0  0  0  0  0  0
  192.2240  175.4640  136.2060 N   0  0  0  0  0  2  0  0  0  0  0  0
  193.8000  176.4360  137.6570 O   0  0  0  0  0  0  0  0  0  0  0  0
  193.5640  175.8480  136.5670 C   0  0  0  0  0  0  0  0  0  0  0  0
  197.1470  175.2730  135.9660 C   0  0  0  0  0  2  0  0  0  0  0  0
  196.8060  176.2380  134.8390 C   0  0  0  0  0  2  0  0  0  0  0  0
  195.8270  174.7390  136.4910 C   0  0  0  0  0  2  0  0  0  0  0  0
  194.7250  175.4480  135.7040 C   0  0  0  0  0  3  0  0  0  0  0  0
  195.3750  176.6640  135.0960 C   0  0  0  0  0  2  0  0  0  0  0  0
  1  9  1  0  0  0  0
  2  6  1  0  0  0  0
  3 11  1  0  0  0  0
  3  7  1  0  0  0  0
  4  2  2  0  0  0  0
  5  4  1  0  0  0  0
  5  1  2  0  0  0  0
  6 16  1  0  0  0  0
  7  5  1  0  0  0  0
  8 10  2  0  0  0  0
  9  6  2  0  0  0  0
 10  4  1  0  0  0  0
 11  8  1  0  0  0  0
 11  7  2  0  0  0  0
 12 13  1  0  0  0  0
 12 15  1  0  0  0  0
 13 20  2  0  0  0  0
 15 18  1  1  0  0  0
 15 21  1  0  0  0  0
 16 17  2  0  0  0  0
 17 12  2  0  0  0  0
 19 14  1  0  0  0  0
 20 22  1  0  0  0  0
 20 19  1  0  0  0  0
 21 19  2  0  0  0  0
 22 23  1  0  0  0  0
 24 26  1  0  0  0  0
 25 29  1  0  0  0  0
 25 24  2  0  0  0  0
 26 28  2  0  0  0  0
 26  1  1  0  0  0  0
 27 28  1  0  0  0  0
 29 27  2  0  0  0  0
 30 24  1  0  0  0  0
 31 33  1  0  0  0  0
 31 29  1  0  0  0  0
 33 32  2  0  0  0  0
 34 36  1  0  0  0  0
 35 38  1  0  0  0  0
 35 34  1  0  0  0  0
 37 36  1  0  0  0  0
 37 33  1  0  0  0  0
 38 37  1  0  0  0  0
M  END
>  <MODEL>
7

>  <REMARK>
 VINA RESULT:      -8.9      3.869      6.981
  Name = 
  5 active torsions:
  status: ('A' for Active; 'I' for Inactive)
    1  A    between atoms: N_2  and  C_35
    2  A    between atoms: C_3  and  C_14
    3  A    between atoms: O_12  and  C_30
    4  A    between atoms: C_17  and  C_23
    5  A    between atoms: C_19  and  C_25
                            x       y       z     vdW  Elec       q    Type
                         _______ _______ _______ _____ _____    ______ ____

>  <TORSDO>
F 5

$$$$
=
 OpenBabel10232410323D

 38 43  0  0  1  0  0  0  0  0999 V2000
  190.7330  176.4990  137.3070 C   0  0  0  0  0  0  0  0  0  0  0  0
  191.8540  175.1550  135.0700 C   0  0  0  0  0  3  0  0  0  0  0  0
  187.1900  175.5590  136.5120 C   0  0  0  0  0  2  0  0  0  0  0  0
  190.4730  175.0820  135.2630 C   0  0  0  0  0  0  0  0  0  0  0  0
  189.9220  175.8080  136.3940 C   0  0  0  0  0  0  0  0  0  0  0  0
  192.6650  175.9090  135.9200 C   0  0  0  0  0  0  0  0  0  0  0  0
  188.5730  175.6580  136.4120 C   0  0  0  0  0  0  0  0  0  0  0  0
  188.2560  174.1440  134.4390 N   0  0  0  0  0  0  0  0  0  0  0  0
  192.1090  176.5380  137.0610 C   0  0  0  0  0  3  0  0  0  0  0  0
  189.6450  174.2710  134.3460 C   0  0  0  0  0  3  0  0  0  0  0  0
  187.8150  174.8760  135.4750 C   0  0  0  0  0  0  0  0  0  0  0  0
  195.8360  174.1330  136.5670 C   0  0  0  0  0  0  0  0  0  0  0  0
  195.6070  172.6860  136.4880 C   0  0  0  0  0  3  0  0  0  0  0  0
  198.9970  171.4450  137.3730 O   0  0  0  0  0  1  0  0  0  0  0  0
  197.0840  174.6750  137.1930 C   0  0  2  0  0  3  0  0  0  0  0  0
  194.1060  175.8810  135.6710 C   0  0  0  0  0  3  0  0  0  0  0  0
  194.9310  174.9720  136.1270 C   0  0  0  0  0  0  0  0  0  0  0  0
  197.5850  175.7380  136.4640 F   0  0  0  0  0  0  0  0  0  0  0  0
  197.9370  172.3220  137.1790 C   0  0  0  0  0  0  0  0  0  0  0  0
  196.5800  171.8150  136.7840 C   0  0  0  0  0  0  0  0  0  0  0  0
  198.1640  173.6310  137.3380 C   0  0  0  0  0  3  0  0  0  0  0  0
  196.2820  170.4460  136.6760 O   0  0  0  0  0  0  0  0  0  0  0  0
  195.8620  169.6320  137.7640 C   0  0  0  0  0  1  0  0  0  0  0  0
  189.3970  178.0710  138.7950 C   0  0  0  0  0  0  0  0  0  0  0  0
  188.9840  178.4370  140.0830 C   0  0  0  0  0  3  0  0  0  0  0  0
  190.2030  176.9290  138.6240 C   0  0  0  0  0  0  0  0  0  0  0  0
  190.1680  176.5580  141.0290 C   0  0  0  0  0  3  0  0  0  0  0  0
  190.5710  176.1790  139.7470 C   0  0  0  0  0  3  0  0  0  0  0  0
  189.3660  177.6810  141.2060 C   0  0  0  0  0  0  0  0  0  0  0  0
  188.9530  178.8860  137.6250 C   0  0  0  0  0  1  0  0  0  0  0  0
  189.0860  178.1140  142.5420 N   0  0  0  0  0  2  0  0  0  0  0  0
  188.0030  176.2140  143.4060 O   0  0  0  0  0  0  0  0  0  0  0  0
  188.2860  177.4370  143.5280 C   0  0  0  0  0  0  0  0  0  0  0  0
  187.6380  177.5700  147.1470 C   0  0  0  0  0  2  0  0  0  0  0  0
  186.3070  178.0520  146.5870 C   0  0  0  0  0  2  0  0  0  0  0  0
  188.6420  177.6660  146.0130 C   0  0  0  0  0  2  0  0  0  0  0  0
  187.8700  178.1450  144.7840 C   0  0  0  0  0  3  0  0  0  0  0  0
  186.4180  177.8800  145.0860 C   0  0  0  0  0  2  0  0  0  0  0  0
  1 26  1  0  0  0  0
  2  4  2  0  0  0  0
  2  6  1  0  0  0  0
  4  5  1  0  0  0  0
  5  7  1  0  0  0  0
  5  1  2  0  0  0  0
  6  9  2  0  0  0  0
  7  3  1  0  0  0  0
  8 11  1  0  0  0  0
  9  1  1  0  0  0  0
 10  8  2  0  0  0  0
 10  4  1  0  0  0  0
 11  7  2  0  0  0  0
 11  3  1  0  0  0  0
 12 15  1  0  0  0  0
 13 12  1  0  0  0  0
 13 20  2  0  0  0  0
 15 18  1  6  0  0  0
 15 21  1  0  0  0  0
 16  6  1  0  0  0  0
 16 17  2  0  0  0  0
 17 12  2  0  0  0  0
 19 21  2  0  0  0  0
 19 14  1  0  0  0  0
 20 19  1  0  0  0  0
 22 20  1  0  0  0  0
 22 23  1  0  0  0  0
 24 25  1  0  0  0  0
 25 29  2  0  0  0  0
 26 24  2  0  0  0  0
 26 28  1  0  0  0  0
 27 29  1  0  0  0  0
 28 27  2  0  0  0  0
 29 31  1  0  0  0  0
 30 24  1  0  0  0  0
 31 33  1  0  0  0  0
 32 33  2  0  0  0  0
 33 37  1  0  0  0  0
 35 34  1  0  0  0  0
 36 34  1  0  0  0  0
 37 38  1  0  0  0  0
 37 36  1  0  0  0  0
 38 35  1  0  0  0  0
M  END
>  <MODEL>
8

>  <REMARK>
 VINA RESULT:      -8.9      4.901     11.972
  Name = 
  5 active torsions:
  status: ('A' for Active; 'I' for Inactive)
    1  A    between atoms: N_2  and  C_35
    2  A    between atoms: C_3  and  C_14
    3  A    between atoms: O_12  and  C_30
    4  A    between atoms: C_17  and  C_23
    5  A    between atoms: C_19  and  C_25
                            x       y       z     vdW  Elec       q    Type
                         _______ _______ _______ _____ _____    ______ ____

>  <TORSDO>
F 5

$$$$
=
 OpenBabel10232410323D

 38 43  0  0  1  0  0  0  0  0999 V2000
  185.0870  178.5530  141.6740 C   0  0  0  0  0  0  0  0  0  0  0  0
  183.1360  178.4890  139.6110 C   0  0  0  0  0  3  0  0  0  0  0  0
  182.6130  179.0440  144.4490 C   0  0  0  0  0  2  0  0  0  0  0  0
  182.7010  178.6320  140.9300 C   0  0  0  0  0  0  0  0  0  0  0  0
  183.7220  178.6970  141.9620 C   0  0  0  0  0  0  0  0  0  0  0  0
  184.4960  178.4300  139.2990 C   0  0  0  0  0  0  0  0  0  0  0  0
  183.1300  178.8690  143.1710 C   0  0  0  0  0  0  0  0  0  0  0  0
  180.7130  178.8440  142.5040 N   0  0  0  0  0  0  0  0  0  0  0  0
  185.4630  178.4140  140.3340 C   0  0  0  0  0  3  0  0  0  0  0  0
  181.2540  178.6870  141.2250 C   0  0  0  0  0  3  0  0  0  0  0  0
  181.7120  178.9430  143.3960 C   0  0  0  0  0  0  0  0  0  0  0  0
  187.1710  177.4700  136.9440 C   0  0  0  0  0  0  0  0  0  0  0  0
  187.9140  176.3280  137.4920 C   0  0  0  0  0  3  0  0  0  0  0  0
  190.5120  175.9260  134.8650 O   0  0  0  0  0  1  0  0  0  0  0  0
  187.7340  178.2730  135.8120 C   0  0  2  0  0  3  0  0  0  0  0  0
  184.8530  178.2260  137.8960 C   0  0  0  0  0  3  0  0  0  0  0  0
  186.0250  177.8280  137.4690 C   0  0  0  0  0  0  0  0  0  0  0  0
  186.7510  178.5910  134.8930 F   0  0  0  0  0  0  0  0  0  0  0  0
  189.4600  176.4750  135.5890 C   0  0  0  0  0  0  0  0  0  0  0  0
  189.0020  175.8520  136.8750 C   0  0  0  0  0  0  0  0  0  0  0  0
  188.8590  177.5650  135.0980 C   0  0  0  0  0  3  0  0  0  0  0  0
  189.6510  174.7510  137.4600 O   0  0  0  0  0  0  0  0  0  0  0  0
  189.5250  173.4130  136.9980 C   0  0  0  0  0  1  0  0  0  0  0  0
  187.4360  178.0460  142.5070 C   0  0  0  0  0  0  0  0  0  0  0  0
  188.2850  177.7340  143.5770 C   0  0  0  0  0  3  0  0  0  0  0  0
  186.0680  178.2730  142.7510 C   0  0  0  0  0  0  0  0  0  0  0  0
  186.4340  177.8640  145.1220 C   0  0  0  0  0  3  0  0  0  0  0  0
  185.5850  178.1900  144.0620 C   0  0  0  0  0  3  0  0  0  0  0  0
  187.7880  177.6440  144.8910 C   0  0  0  0  0  0  0  0  0  0  0  0
  188.0040  178.1540  141.1300 C   0  0  0  0  0  1  0  0  0  0  0  0
  188.5990  177.1820  145.9770 N   0  0  0  0  0  2  0  0  0  0  0  0
  190.7380  177.8200  145.2360 O   0  0  0  0  0  0  0  0  0  0  0  0
  190.0360  177.1440  146.0370 C   0  0  0  0  0  0  0  0  0  0  0  0
  192.5740  176.8060  148.6790 C   0  0  0  0  0  2  0  0  0  0  0  0
  192.8700  175.5830  147.8230 C   0  0  0  0  0  2  0  0  0  0  0  0
  191.1970  177.2960  148.2700 C   0  0  0  0  0  2  0  0  0  0  0  0
  190.7300  176.3880  147.1330 C   0  0  0  0  0  3  0  0  0  0  0  0
  191.9730  175.7180  146.6080 C   0  0  0  0  0  2  0  0  0  0  0  0
  1  5  1  0  0  0  0
  1 26  1  0  0  0  0
  2  4  1  0  0  0  0
  4 10  2  0  0  0  0
  4  5  1  0  0  0  0
  5  7  2  0  0  0  0
  6  2  2  0  0  0  0
  6  9  1  0  0  0  0
  7 11  1  0  0  0  0
  7  3  1  0  0  0  0
  8 11  2  0  0  0  0
  9  1  2  0  0  0  0
 10  8  1  0  0  0  0
 11  3  1  0  0  0  0
 12 17  2  0  0  0  0
 12 13  1  0  0  0  0
 14 19  1  0  0  0  0
 15 18  1  6  0  0  0
 15 12  1  0  0  0  0
 16  6  1  0  0  0  0
 17 16  2  0  0  0  0
 19 20  1  0  0  0  0
 20 22  1  0  0  0  0
 20 13  2  0  0  0  0
 21 19  2  0  0  0  0
 21 15  1  0  0  0  0
 23 22  1  0  0  0  0
 24 26  2  0  0  0  0
 24 25  1  0  0  0  0
 25 29  2  0  0  0  0
 26 28  1  0  0  0  0
 28 27  2  0  0  0  0
 29 27  1  0  0  0  0
 29 31  1  0  0  0  0
 30 24  1  0  0  0  0
 31 33  1  0  0  0  0
 32 33  2  0  0  0  0
 33 37  1  0  0  0  0
 35 34  1  0  0  0  0
 36 34  1  0  0  0  0
 37 36  1  0  0  0  0
 38 37  1  0  0  0  0
 38 35  1  0  0  0  0
M  END
>  <MODEL>
9

>  <REMARK>
 VINA RESULT:      -8.8      3.664      7.620
  Name = 
  5 active torsions:
  status: ('A' for Active; 'I' for Inactive)
    1  A    between atoms: N_2  and  C_35
    2  A    between atoms: C_3  and  C_14
    3  A    between atoms: O_12  and  C_30
    4  A    between atoms: C_17  and  C_23
    5  A    between atoms: C_19  and  C_25
                            x       y       z     vdW  Elec       q    Type
                         _______ _______ _______ _____ _____    ______ ____

>  <TORSDO>
F 5

$$$$
