=
 OpenBabel10232409123D

 57 63  0  0  1  0  0  0  0  0999 V2000
  189.5480  176.3290  137.1010 C   0  0  0  0  0  2  0  0  0  0  0  0
  183.4920  179.1550  138.7640 C   0  0  0  0  0  0  0  0  0  0  0  0
  189.7170  177.7000  139.1950 C   0  0  0  0  0  2  0  0  0  0  0  0
  184.6050  178.3380  138.2150 C   0  0  1  0  0  3  0  0  0  0  0  0
  187.7050  178.5580  136.9880 C   0  0  0  0  0  2  0  0  0  0  0  0
  189.0820  176.9470  135.8010 C   0  0  0  0  0  0  0  0  0  0  0  0
  189.5200  176.3890  134.5590 N   0  0  0  0  0  2  0  0  0  0  0  0
  184.9930  179.2280  140.5070 C   0  0  1  0  0  3  0  0  0  0  0  0
  188.2270  177.9260  135.7800 N   0  0  0  0  0  0  0  0  0  0  0  0
  182.2940  179.1240  138.2680 N   0  0  0  0  0  0  0  0  0  0  0  0
  185.5680  178.4070  139.3750 C   0  0  0  0  0  0  0  0  0  0  0  0
  187.7280  178.4840  140.3570 O   0  0  0  0  0  0  0  0  0  0  0  0
  184.0260  176.9550  137.8600 C   0  0  1  0  0  3  0  0  0  0  0  0
  182.7970  177.1420  137.0030 C   0  0  0  0  0  3  0  0  0  0  0  0
  186.8800  178.1160  139.2990 C   0  0  0  0  0  0  0  0  0  0  0  0
  183.8020  179.7760  139.9570 O   0  0  0  0  0  0  0  0  0  0  0  0
  189.0380  177.9450  140.5320 C   0  0  0  0  0  2  0  0  0  0  0  0
  181.9780  178.1770  137.2330 C   0  0  0  0  0  3  0  0  0  0  0  0
  187.4770  177.4990  138.0580 C   0  0  2  0  0  3  0  0  0  0  0  0
  188.8110  176.8010  138.3620 C   0  0  1  0  0  3  0  0  0  0  0  0
  185.0160  176.1020  137.0920 C   0  0  0  0  0  1  0  0  0  0  0  0
  184.6040  178.3300  141.6830 C   0  0  0  0  0  2  0  0  0  0  0  0
  183.3550  178.8070  142.4060 C   0  0  0  0  0  2  0  0  0  0  0  0
  183.6020  178.8840  143.9000 C   0  0  0  0  0  2  0  0  0  0  0  0
  185.0800  179.1210  144.1510 C   0  0  0  0  0  2  0  0  0  0  0  0
  185.3670  179.0070  145.6390 C   0  0  0  0  0  2  0  0  0  0  0  0
  188.5390  177.3830  145.7840 C   0  0  1  0  0  3  0  0  0  0  0  0
  186.6160  177.1330  144.6260 C   0  0  0  0  0  2  0  0  0  0  0  0
  186.1930  177.7650  145.9250 C   0  0  1  0  0  3  0  0  0  0  0  0
  187.4920  178.1500  146.5620 C   0  0  1  0  0  3  0  0  0  0  0  0
  187.5130  177.6300  148.3030 S   0  0  0  0  0  1  0  0  0  0  0  0
  187.9220  176.6340  144.7660 O   0  0  0  0  0  0  0  0  0  0  0  0
  189.5390  178.3600  145.1860 C   0  0  0  0  0  2  0  0  0  0  0  0
  192.1320  175.6980  145.5150 C   0  0  0  0  0  2  0  0  0  0  0  0
  190.7110  177.1720  143.5740 C   0  0  0  0  0  2  0  0  0  0  0  0
  191.9230  176.3070  143.2460 C   0  0  0  0  0  2  0  0  0  0  0  0
  191.9670  175.1750  144.1640 N   0  0  0  0  0  2  0  0  0  0  0  0
  190.9390  176.5790  145.8940 C   0  0  2  0  0  3  0  0  0  0  0  0
  190.8110  177.6950  144.9390 N   0  0  0  0  0  0  0  0  0  0  0  0
  192.2790  176.4330  147.8690 O   0  0  0  0  0  1  0  0  0  0  0  0
  191.1970  177.1010  147.3010 C   0  0  0  0  0  2  0  0  0  0  0  0
  190.5000  175.3220  134.5030 C   0  0  0  0  0  2  0  0  0  0  0  0
  191.8920  175.9160  134.3870 C   0  0  0  0  0  2  0  0  0  0  0  0
  192.5600  173.5650  134.4330 N   0  0  0  0  0  1  0  0  0  0  0  0
  192.9210  174.9070  134.8700 C   0  0  2  0  0  3  0  0  0  0  0  0
  193.0670  174.9740  136.3910 C   0  0  2  0  0  3  0  0  0  0  0  0
  194.7310  176.8230  135.9730 N   0  0  0  0  0  1  0  0  0  0  0  0
  193.4520  176.7920  137.9080 O   0  0  0  0  0  0  0  0  0  0  0  0
  193.7420  176.2410  136.8130 C   0  0  0  0  0  0  0  0  0  0  0  0
  193.7510  173.8540  136.8910 O   0  0  0  0  0  0  0  0  0  0  0  0
  195.0320  174.1640  136.8000 O   0  0  0  0  0  0  0  0  0  0  0  0
  195.6580  172.9830  136.3850 C   0  0  0  0  0  2  0  0  0  0  0  0
  197.8270  172.1660  136.7000 C   0  0  0  0  0  2  0  0  0  0  0  0
  199.0350  172.7770  137.3620 C   0  0  0  0  0  2  0  0  0  0  0  0
  197.4230  174.4620  136.8400 C   0  0  0  0  0  2  0  0  0  0  0  0
  197.0610  173.2510  136.1090 N   0  0  0  0  0  0  0  0  0  0  0  0
  198.5550  174.1330  137.7930 C   0  0  0  0  0  2  0  0  0  0  0  0
  2 16  1  0  0  0  0
  3 17  1  0  0  0  0
  4  2  1  1  0  0  0
  4 11  1  0  0  0  0
  6  1  1  0  0  0  0
  7  6  1  0  0  0  0
  8 22  1  1  0  0  0
  9  6  2  0  0  0  0
  9  5  1  0  0  0  0
 10  2  2  0  0  0  0
 11  8  1  0  0  0  0
 12 17  1  0  0  0  0
 13 21  1  6  0  0  0
 13  4  1  0  0  0  0
 14 18  2  0  0  0  0
 14 13  1  0  0  0  0
 15 11  2  0  0  0  0
 15 12  1  0  0  0  0
 16  8  1  0  0  0  0
 18 10  1  0  0  0  0
 19  5  1  6  0  0  0
 19 20  1  0  0  0  0
 19 15  1  0  0  0  0
 20  1  1  6  0  0  0
 20  3  1  0  0  0  0
 22 23  1  0  0  0  0
 23 24  1  0  0  0  0
 24 25  1  0  0  0  0
 25 26  1  0  0  0  0
 27 33  1  6  0  0  0
 27 30  1  0  0  0  0
 28 32  1  0  0  0  0
 28 29  1  0  0  0  0
 29 26  1  6  0  0  0
 29 30  1  0  0  0  0
 30 31  1  1  0  0  0
 32 27  1  0  0  0  0
 34 38  1  0  0  0  0
 35 39  1  0  0  0  0
 36 35  1  0  0  0  0
 36 37  1  0  0  0  0
 37 34  1  0  0  0  0
 38 41  1  1  0  0  0
 39 33  1  0  0  0  0
 39 38  1  0  0  0  0
 41 40  1  0  0  0  0
 42  7  1  0  0  0  0
 43 42  1  0  0  0  0
 43 45  1  0  0  0  0
 45 44  1  1  0  0  0
 45 46  1  0  0  0  0
 46 49  1  6  0  0  0
 46 50  1  0  0  0  0
 47 49  1  0  0  0  0
 49 48  2  0  0  0  0
 51 50  1  0  0  0  0
 52 51  1  0  0  0  0
 53 54  1  0  0  0  0
 54 57  1  0  0  0  0
 55 57  1  0  0  0  0
 56 52  1  0  0  0  0
 56 53  1  0  0  0  0
 56 55  1  0  0  0  0
M  END
>  <MODEL>
1

>  <REMARK>
 VINA RESULT:      -7.9      0.000      0.000
  Name = 
  18 active torsions:
  status: ('A' for Active; 'I' for Inactive)
    1  A    between atoms: C_6  and  C_28
    2  A    between atoms: C_10  and  C_14
    3  A    between atoms: C_10  and  C_24
    4  A    between atoms: C_12  and  C_18
    5  A    between atoms: C_12  and  C_20
    6  A    between atoms: C_14  and  C_53
    7  A    between atoms: O_15  and  O_19
    8  A    between atoms: O_15  and  C_23
    9  A    between atoms: C_18  and  C_23
   10  A    between atoms: O_19  and  C_42
   11  A    between atoms: C_20  and  N_30
   12  A    between atoms: C_22  and  C_57
   13  A    between atoms: C_23  and  C_56
   14  A    between atoms: C_24  and  C_57
   15  A    between atoms: C_28  and  N_38
   16  A    between atoms: C_31  and  C_53
   17  A    between atoms: C_35  and  C_41
   18  A    between atoms: C_42  and  N_49
                            x       y       z     vdW  Elec       q    Type
                         _______ _______ _______ _____ _____    ______ ____

>  <TORSDO>
F 18

$$$$
=
 OpenBabel10232409123D

 57 63  0  0  1  0  0  0  0  0999 V2000
  189.5030  175.2820  136.3240 C   0  0  0  0  0  2  0  0  0  0  0  0
  182.7230  174.1670  135.8450 C   0  0  0  0  0  0  0  0  0  0  0  0
  188.2540  177.4020  135.8360 C   0  0  0  0  0  2  0  0  0  0  0  0
  184.1830  174.1060  136.1090 C   0  0  1  0  0  3  0  0  0  0  0  0
  187.1600  174.7170  134.7190 C   0  0  0  0  0  2  0  0  0  0  0  0
  189.4080  174.0910  135.3950 C   0  0  0  0  0  0  0  0  0  0  0  0
  190.4940  173.1630  135.3270 N   0  0  0  0  0  2  0  0  0  0  0  0
  183.2220  176.4020  136.0750 C   0  0  1  0  0  3  0  0  0  0  0  0
  188.3310  173.8430  134.7110 N   0  0  0  0  0  0  0  0  0  0  0  0
  181.9480  173.1350  135.9710 N   0  0  0  0  0  0  0  0  0  0  0  0
  184.4790  175.5790  136.2520 C   0  0  0  0  0  0  0  0  0  0  0  0
  185.8310  177.5180  136.0370 O   0  0  0  0  0  0  0  0  0  0  0  0
  184.3880  173.2220  137.3540 C   0  0  1  0  0  3  0  0  0  0  0  0
  183.6500  171.9190  137.1580 C   0  0  0  0  0  3  0  0  0  0  0  0
  185.7070  176.1250  136.1740 C   0  0  0  0  0  0  0  0  0  0  0  0
  182.2510  175.4510  135.6600 O   0  0  0  0  0  0  0  0  0  0  0  0
  187.0510  178.2200  136.2760 C   0  0  0  0  0  2  0  0  0  0  0  0
  182.4780  171.9110  136.5100 C   0  0  0  0  0  3  0  0  0  0  0  0
  186.9460  175.2670  136.1220 C   0  0  2  0  0  3  0  0  0  0  0  0
  188.1950  176.0550  136.5460 C   0  0  1  0  0  3  0  0  0  0  0  0
  185.8510  172.9080  137.5980 C   0  0  0  0  0  1  0  0  0  0  0  0
  182.7690  176.9920  137.4110 C   0  0  0  0  0  2  0  0  0  0  0  0
  181.7890  176.0990  138.1530 C   0  0  0  0  0  2  0  0  0  0  0  0
  182.1220  176.0550  139.6310 C   0  0  0  0  0  2  0  0  0  0  0  0
  183.0080  177.2370  139.9800 C   0  0  0  0  0  2  0  0  0  0  0  0
  182.8300  177.5900  141.4460 C   0  0  0  0  0  2  0  0  0  0  0  0
  185.5960  178.7810  143.3560 C   0  0  1  0  0  3  0  0  0  0  0  0
  183.3890  179.2350  143.2010 C   0  0  0  0  0  2  0  0  0  0  0  0
  183.7650  178.7220  141.8370 C   0  0  1  0  0  3  0  0  0  0  0  0
  185.1520  178.1960  142.0340 C   0  0  1  0  0  3  0  0  0  0  0  0
  186.2390  178.7830  140.7020 S   0  0  0  0  0  1  0  0  0  0  0  0
  184.5610  179.5600  143.9040 O   0  0  0  0  0  0  0  0  0  0  0  0
  185.9660  177.6540  144.3090 C   0  0  0  0  0  2  0  0  0  0  0  0
  188.1720  177.8920  147.3070 C   0  0  0  0  0  2  0  0  0  0  0  0
  188.1860  177.0560  144.6130 C   0  0  0  0  0  2  0  0  0  0  0  0
  189.4520  177.2050  145.4490 C   0  0  0  0  0  2  0  0  0  0  0  0
  189.1440  176.9090  146.8430 N   0  0  0  0  0  2  0  0  0  0  0  0
  186.8790  177.7860  146.4950 C   0  0  2  0  0  3  0  0  0  0  0  0
  187.1610  178.0010  145.0640 N   0  0  0  0  0  0  0  0  0  0  0  0
  184.6290  178.3590  147.0660 O   0  0  0  0  0  1  0  0  0  0  0  0
  185.9300  178.8540  147.0230 C   0  0  0  0  0  2  0  0  0  0  0  0
  191.7410  173.3910  136.0310 C   0  0  0  0  0  2  0  0  0  0  0  0
  192.7220  174.0950  135.1120 C   0  0  0  0  0  2  0  0  0  0  0  0
  193.9940  173.8580  137.1850 N   0  0  0  0  0  1  0  0  0  0  0  0
  193.9300  174.5600  135.9100 C   0  0  2  0  0  3  0  0  0  0  0  0
  193.8900  176.0750  136.1110 C   0  0  2  0  0  3  0  0  0  0  0  0
  196.1800  175.9160  135.0670 N   0  0  0  0  0  1  0  0  0  0  0  0
  195.2280  177.9790  135.5330 O   0  0  0  0  0  0  0  0  0  0  0  0
  195.1190  176.7250  135.5580 C   0  0  0  0  0  0  0  0  0  0  0  0
  193.7150  176.4080  137.4640 O   0  0  0  0  0  0  0  0  0  0  0  0
  192.4590  176.8050  137.5610 O   0  0  0  0  0  0  0  0  0  0  0  0
  192.0290  176.3340  138.8070 C   0  0  0  0  0  2  0  0  0  0  0  0
  191.9380  177.2850  140.9420 C   0  0  0  0  0  2  0  0  0  0  0  0
  190.7740  177.5810  141.8510 C   0  0  0  0  0  2  0  0  0  0  0  0
  190.0220  177.2490  139.6080 C   0  0  0  0  0  2  0  0  0  0  0  0
  191.4690  177.4360  139.5730 N   0  0  0  0  0  0  0  0  0  0  0  0
  189.5810  177.1400  141.0530 C   0  0  0  0  0  2  0  0  0  0  0  0
  1 20  1  0  0  0  0
  2 10  2  0  0  0  0
  3 17  1  0  0  0  0
  4  2  1  1  0  0  0
  4 11  1  0  0  0  0
  4 13  1  0  0  0  0
  6  1  1  0  0  0  0
  7  6  1  0  0  0  0
  7 42  1  0  0  0  0
  8 11  1  0  0  0  0
  8 22  1  1  0  0  0
  9  5  1  0  0  0  0
  9  6  2  0  0  0  0
 10 18  1  0  0  0  0
 12 15  1  0  0  0  0
 12 17  1  0  0  0  0
 13 21  1  6  0  0  0
 14 13  1  0  0  0  0
 15 11  2  0  0  0  0
 16  2  1  0  0  0  0
 16  8  1  0  0  0  0
 18 14  2  0  0  0  0
 19  5  1  6  0  0  0
 19 15  1  0  0  0  0
 19 20  1  0  0  0  0
 20  3  1  6  0  0  0
 22 23  1  0  0  0  0
 23 24  1  0  0  0  0
 24 25  1  0  0  0  0
 25 26  1  0  0  0  0
 27 32  1  0  0  0  0
 27 33  1  1  0  0  0
 28 32  1  0  0  0  0
 29 26  1  1  0  0  0
 29 30  1  0  0  0  0
 29 28  1  0  0  0  0
 30 31  1  6  0  0  0
 30 27  1  0  0  0  0
 33 39  1  0  0  0  0
 35 39  1  0  0  0  0
 35 36  1  0  0  0  0
 36 37  1  0  0  0  0
 37 34  1  0  0  0  0
 38 41  1  1  0  0  0
 38 34  1  0  0  0  0
 39 38  1  0  0  0  0
 41 40  1  0  0  0  0
 43 45  1  0  0  0  0
 43 42  1  0  0  0  0
 45 46  1  0  0  0  0
 45 44  1  1  0  0  0
 46 49  1  1  0  0  0
 46 50  1  0  0  0  0
 47 49  1  0  0  0  0
 48 49  2  0  0  0  0
 50 51  1  0  0  0  0
 51 52  1  0  0  0  0
 52 56  1  0  0  0  0
 53 54  1  0  0  0  0
 55 57  1  0  0  0  0
 56 55  1  0  0  0  0
 56 53  1  0  0  0  0
 57 54  1  0  0  0  0
M  END
>  <MODEL>
2

>  <REMARK>
 VINA RESULT:      -7.8      2.951      5.027
  Name = 
  18 active torsions:
  status: ('A' for Active; 'I' for Inactive)
    1  A    between atoms: C_6  and  C_28
    2  A    between atoms: C_10  and  C_14
    3  A    between atoms: C_10  and  C_24
    4  A    between atoms: C_12  and  C_18
    5  A    between atoms: C_12  and  C_20
    6  A    between atoms: C_14  and  C_53
    7  A    between atoms: O_15  and  O_19
    8  A    between atoms: O_15  and  C_23
    9  A    between atoms: C_18  and  C_23
   10  A    between atoms: O_19  and  C_42
   11  A    between atoms: C_20  and  N_30
   12  A    between atoms: C_22  and  C_57
   13  A    between atoms: C_23  and  C_56
   14  A    between atoms: C_24  and  C_57
   15  A    between atoms: C_28  and  N_38
   16  A    between atoms: C_31  and  C_53
   17  A    between atoms: C_35  and  C_41
   18  A    between atoms: C_42  and  N_49
                            x       y       z     vdW  Elec       q    Type
                         _______ _______ _______ _____ _____    ______ ____

>  <TORSDO>
F 18

$$$$
=
 OpenBabel10232409123D

 57 63  0  0  1  0  0  0  0  0999 V2000
  189.5750  176.5210  137.1420 C   0  0  0  0  0  2  0  0  0  0  0  0
  182.8090  177.7380  136.7370 C   0  0  0  0  0  0  0  0  0  0  0  0
  188.8360  178.1920  138.8610 C   0  0  0  0  0  2  0  0  0  0  0  0
  184.1880  177.1950  136.6470 C   0  0  1  0  0  3  0  0  0  0  0  0
  187.3650  178.0910  136.1260 C   0  0  0  0  0  2  0  0  0  0  0  0
  189.3520  176.7710  135.6660 C   0  0  0  0  0  0  0  0  0  0  0  0
  190.2320  176.1740  134.7110 N   0  0  0  0  0  2  0  0  0  0  0  0
  183.7120  178.5040  138.7100 C   0  0  1  0  0  3  0  0  0  0  0  0
  188.3310  177.4530  135.2370 N   0  0  0  0  0  0  0  0  0  0  0  0
  181.8340  177.2920  136.0060 N   0  0  0  0  0  0  0  0  0  0  0  0
  184.7520  177.7140  137.9470 C   0  0  0  0  0  0  0  0  0  0  0  0
  186.4790  178.5520  139.3440 O   0  0  0  0  0  0  0  0  0  0  0  0
  184.0700  175.6670  136.4890 C   0  0  1  0  0  3  0  0  0  0  0  0
  183.1150  175.3620  135.3600 C   0  0  0  0  0  3  0  0  0  0  0  0
  186.0650  177.7980  138.2330 C   0  0  0  0  0  0  0  0  0  0  0  0
  182.6250  178.5990  137.8000 O   0  0  0  0  0  0  0  0  0  0  0  0
  187.7790  178.4400  139.9240 C   0  0  0  0  0  2  0  0  0  0  0  0
  182.0450  176.1450  135.1650 C   0  0  0  0  0  3  0  0  0  0  0  0
  187.1070  177.1900  137.3270 C   0  0  2  0  0  3  0  0  0  0  0  0
  188.4300  176.9560  138.0690 C   0  0  1  0  0  3  0  0  0  0  0  0
  185.4040  175.0200  136.1720 C   0  0  0  0  0  1  0  0  0  0  0  0
  183.2370  177.7270  139.9390 C   0  0  0  0  0  2  0  0  0  0  0  0
  182.3560  178.5540  140.8600 C   0  0  0  0  0  2  0  0  0  0  0  0
  183.0190  178.7350  142.2110 C   0  0  0  0  0  2  0  0  0  0  0  0
  184.4340  179.2450  142.0100 C   0  0  0  0  0  2  0  0  0  0  0  0
  185.0680  179.5340  143.3600 C   0  0  0  0  0  2  0  0  0  0  0  0
  187.0570  177.4480  145.4600 C   0  0  1  0  0  3  0  0  0  0  0  0
  186.1390  177.3100  143.4000 C   0  0  0  0  0  2  0  0  0  0  0  0
  185.2350  178.2490  144.1530 C   0  0  1  0  0  3  0  0  0  0  0  0
  185.9920  178.5210  145.4150 C   0  0  1  0  0  3  0  0  0  0  0  0
  184.8910  178.3600  146.8520 S   0  0  0  0  0  1  0  0  0  0  0  0
  186.9570  176.6310  144.3190 O   0  0  0  0  0  0  0  0  0  0  0  0
  188.4290  178.0990  145.5210 C   0  0  0  0  0  2  0  0  0  0  0  0
  191.8520  176.6230  145.3650 C   0  0  0  0  0  2  0  0  0  0  0  0
  189.7310  177.1010  147.1620 C   0  0  0  0  0  2  0  0  0  0  0  0
  190.9160  176.1990  147.4880 C   0  0  0  0  0  2  0  0  0  0  0  0
  192.1000  176.6970  146.8000 N   0  0  0  0  0  2  0  0  0  0  0  0
  190.6660  177.5130  144.9840 C   0  0  2  0  0  3  0  0  0  0  0  0
  189.4610  177.0910  145.7220 N   0  0  0  0  0  0  0  0  0  0  0  0
  191.4430  176.5420  142.9420 O   0  0  0  0  0  1  0  0  0  0  0  0
  190.4580  177.3640  143.4830 C   0  0  0  0  0  2  0  0  0  0  0  0
  191.4110  175.4340  135.1140 C   0  0  0  0  0  2  0  0  0  0  0  0
  191.2550  173.9760  134.7190 C   0  0  0  0  0  2  0  0  0  0  0  0
  191.8800  173.7740  137.0730 N   0  0  0  0  0  1  0  0  0  0  0  0
  191.8700  173.0870  135.7890 C   0  0  2  0  0  3  0  0  0  0  0  0
  193.2780  172.6510  135.3810 C   0  0  2  0  0  3  0  0  0  0  0  0
  192.1360  170.4650  134.8560 N   0  0  0  0  0  1  0  0  0  0  0  0
  194.4320  170.5600  135.1700 O   0  0  0  0  0  0  0  0  0  0  0  0
  193.3360  171.1770  135.1300 C   0  0  0  0  0  0  0  0  0  0  0  0
  194.2310  173.0320  136.3400 O   0  0  0  0  0  0  0  0  0  0  0  0
  194.9100  174.0170  135.7790 O   0  0  0  0  0  0  0  0  0  0  0  0
  195.2790  174.8490  136.8420 C   0  0  0  0  0  2  0  0  0  0  0  0
  195.7330  174.6440  139.1270 C   0  0  0  0  0  2  0  0  0  0  0  0
  197.0290  174.7070  139.8940 C   0  0  0  0  0  2  0  0  0  0  0  0
  197.4470  174.3270  137.5730 C   0  0  0  0  0  2  0  0  0  0  0  0
  196.0300  174.0780  137.8210 N   0  0  0  0  0  0  0  0  0  0  0  0
  198.0630  174.9160  138.8260 C   0  0  0  0  0  2  0  0  0  0  0  0
  2 16  1  0  0  0  0
  3 17  1  0  0  0  0
  4  2  1  1  0  0  0
  4 11  1  0  0  0  0
  6  1  1  0  0  0  0
  7 42  1  0  0  0  0
  7  6  1  0  0  0  0
  8 22  1  1  0  0  0
  9  6  2  0  0  0  0
  9  5  1  0  0  0  0
 10  2  2  0  0  0  0
 11 15  2  0  0  0  0
 11  8  1  0  0  0  0
 12 17  1  0  0  0  0
 13 21  1  6  0  0  0
 13  4  1  0  0  0  0
 14 13  1  0  0  0  0
 15 12  1  0  0  0  0
 16  8  1  0  0  0  0
 18 14  2  0  0  0  0
 18 10  1  0  0  0  0
 19  5  1  6  0  0  0
 19 20  1  0  0  0  0
 19 15  1  0  0  0  0
 20  1  1  6  0  0  0
 20  3  1  0  0  0  0
 22 23  1  0  0  0  0
 23 24  1  0  0  0  0
 25 24  1  0  0  0  0
 25 26  1  0  0  0  0
 27 33  1  6  0  0  0
 28 29  1  0  0  0  0
 28 32  1  0  0  0  0
 29 26  1  6  0  0  0
 29 30  1  0  0  0  0
 30 27  1  0  0  0  0
 30 31  1  1  0  0  0
 32 27  1  0  0  0  0
 33 39  1  0  0  0  0
 34 37  1  0  0  0  0
 35 36  1  0  0  0  0
 37 36  1  0  0  0  0
 38 41  1  6  0  0  0
 38 34  1  0  0  0  0
 38 39  1  0  0  0  0
 39 35  1  0  0  0  0
 40 41  1  0  0  0  0
 43 42  1  0  0  0  0
 43 45  1  0  0  0  0
 45 44  1  1  0  0  0
 46 49  1  1  0  0  0
 46 45  1  0  0  0  0
 46 50  1  0  0  0  0
 47 49  1  0  0  0  0
 49 48  2  0  0  0  0
 51 50  1  0  0  0  0
 51 52  1  0  0  0  0
 52 56  1  0  0  0  0
 53 54  1  0  0  0  0
 55 56  1  0  0  0  0
 55 57  1  0  0  0  0
 56 53  1  0  0  0  0
 57 54  1  0  0  0  0
M  END
>  <MODEL>
3

>  <REMARK>
 VINA RESULT:      -7.5      1.794      2.629
  Name = 
  18 active torsions:
  status: ('A' for Active; 'I' for Inactive)
    1  A    between atoms: C_6  and  C_28
    2  A    between atoms: C_10  and  C_14
    3  A    between atoms: C_10  and  C_24
    4  A    between atoms: C_12  and  C_18
    5  A    between atoms: C_12  and  C_20
    6  A    between atoms: C_14  and  C_53
    7  A    between atoms: O_15  and  O_19
    8  A    between atoms: O_15  and  C_23
    9  A    between atoms: C_18  and  C_23
   10  A    between atoms: O_19  and  C_42
   11  A    between atoms: C_20  and  N_30
   12  A    between atoms: C_22  and  C_57
   13  A    between atoms: C_23  and  C_56
   14  A    between atoms: C_24  and  C_57
   15  A    between atoms: C_28  and  N_38
   16  A    between atoms: C_31  and  C_53
   17  A    between atoms: C_35  and  C_41
   18  A    between atoms: C_42  and  N_49
                            x       y       z     vdW  Elec       q    Type
                         _______ _______ _______ _____ _____    ______ ____

>  <TORSDO>
F 18

$$$$
=
 OpenBabel10232409123D

 57 63  0  0  1  0  0  0  0  0999 V2000
  190.0520  178.0130  140.1660 C   0  0  0  0  0  2  0  0  0  0  0  0
  187.3200  177.1000  146.4220 C   0  0  0  0  0  0  0  0  0  0  0  0
  187.5460  178.1220  140.1010 C   0  0  0  0  0  2  0  0  0  0  0  0
  188.1930  177.3650  145.2500 C   0  0  1  0  0  3  0  0  0  0  0  0
  188.9210  176.2660  142.1790 C   0  0  0  0  0  2  0  0  0  0  0  0
  190.7650  176.7820  140.6830 C   0  0  0  0  0  0  0  0  0  0  0  0
  192.0770  176.4760  140.2060 N   0  0  0  0  0  2  0  0  0  0  0  0
  185.7980  177.9650  144.9270 C   0  0  1  0  0  3  0  0  0  0  0  0
  190.2470  176.0350  141.6120 N   0  0  0  0  0  0  0  0  0  0  0  0
  187.7920  176.9120  147.6150 N   0  0  0  0  0  0  0  0  0  0  0  0
  187.1710  177.9270  144.2920 C   0  0  0  0  0  0  0  0  0  0  0  0
  186.2340  178.2990  142.1430 O   0  0  0  0  0  0  0  0  0  0  0  0
  189.3150  178.3120  145.7180 C   0  0  1  0  0  3  0  0  0  0  0  0
  189.9540  177.7390  146.9610 C   0  0  0  0  0  3  0  0  0  0  0  0
  187.3450  178.0320  142.9610 C   0  0  0  0  0  0  0  0  0  0  0  0
  185.9760  177.2780  146.1590 O   0  0  0  0  0  0  0  0  0  0  0  0
  186.3500  178.7520  140.7940 C   0  0  0  0  0  2  0  0  0  0  0  0
  189.1980  177.0920  147.8580 C   0  0  0  0  0  3  0  0  0  0  0  0
  188.6840  177.7640  142.3200 C   0  0  2  0  0  3  0  0  0  0  0  0
  188.7860  178.4190  140.9350 C   0  0  1  0  0  3  0  0  0  0  0  0
  190.3920  178.4870  144.6670 C   0  0  0  0  0  1  0  0  0  0  0  0
  185.3880  179.4040  145.2410 C   0  0  0  0  0  2  0  0  0  0  0  0
  184.2990  179.9260  144.3190 C   0  0  0  0  0  2  0  0  0  0  0  0
  183.2880  178.8370  144.0190 C   0  0  0  0  0  2  0  0  0  0  0  0
  182.8100  178.9780  142.5860 C   0  0  0  0  0  2  0  0  0  0  0  0
  181.3540  178.5550  142.4920 C   0  0  0  0  0  2  0  0  0  0  0  0
  182.0030  177.7230  139.0850 C   0  0  1  0  0  3  0  0  0  0  0  0
  181.6080  179.6040  140.2720 C   0  0  0  0  0  2  0  0  0  0  0  0
  180.9040  178.5200  141.0410 C   0  0  1  0  0  3  0  0  0  0  0  0
  181.3850  177.2620  140.3870 C   0  0  1  0  0  3  0  0  0  0  0  0
  179.9820  176.1580  140.0480 S   0  0  0  0  0  1  0  0  0  0  0  0
  181.9200  179.1240  138.9890 O   0  0  0  0  0  0  0  0  0  0  0  0
  183.4560  177.2780  139.0300 C   0  0  0  0  0  2  0  0  0  0  0  0
  185.4970  175.5780  136.4120 C   0  0  0  0  0  2  0  0  0  0  0  0
  183.3380  175.1270  138.1700 C   0  0  0  0  0  2  0  0  0  0  0  0
  183.7060  174.1760  137.0370 C   0  0  0  0  0  2  0  0  0  0  0  0
  185.1470  174.2230  136.8210 N   0  0  0  0  0  2  0  0  0  0  0  0
  185.1440  176.5750  137.5180 C   0  0  2  0  0  3  0  0  0  0  0  0
  183.7030  176.5020  137.8230 N   0  0  0  0  0  0  0  0  0  0  0  0
  186.5500  177.8660  136.0780 O   0  0  0  0  0  1  0  0  0  0  0  0
  185.5170  177.9610  137.0070 C   0  0  0  0  0  2  0  0  0  0  0  0
  192.7030  177.2410  139.1450 C   0  0  0  0  0  2  0  0  0  0  0  0
  192.5070  176.5280  137.8200 C   0  0  0  0  0  2  0  0  0  0  0  0
  193.8950  176.1090  135.8520 N   0  0  0  0  0  1  0  0  0  0  0  0
  193.8470  176.0250  137.3060 C   0  0  2  0  0  3  0  0  0  0  0  0
  194.1070  174.5970  137.7880 C   0  0  2  0  0  3  0  0  0  0  0  0
  196.5930  174.9850  137.6210 N   0  0  0  0  0  1  0  0  0  0  0  0
  195.6840  173.8710  139.4410 O   0  0  0  0  0  0  0  0  0  0  0  0
  195.4880  174.4580  138.3450 C   0  0  0  0  0  0  0  0  0  0  0  0
  193.8850  173.6620  136.7640 O   0  0  0  0  0  0  0  0  0  0  0  0
  194.2610  172.5010  137.2710 O   0  0  0  0  0  0  0  0  0  0  0  0
  194.8200  171.8030  136.1940 C   0  0  0  0  0  2  0  0  0  0  0  0
  195.1960  169.5070  135.9590 C   0  0  0  0  0  2  0  0  0  0  0  0
  195.0910  168.3750  136.9480 C   0  0  0  0  0  2  0  0  0  0  0  0
  195.2150  170.4720  138.0860 C   0  0  0  0  0  2  0  0  0  0  0  0
  195.6090  170.6900  136.6980 N   0  0  0  0  0  0  0  0  0  0  0  0
  194.6930  169.0560  138.2260 C   0  0  0  0  0  2  0  0  0  0  0  0
  1  6  1  0  0  0  0
  1 20  1  0  0  0  0
  2 10  2  0  0  0  0
  3 17  1  0  0  0  0
  4 11  1  6  0  0  0
  4 13  1  0  0  0  0
  4  2  1  0  0  0  0
  6  9  2  0  0  0  0
  7  6  1  0  0  0  0
  8 22  1  1  0  0  0
  8 16  1  0  0  0  0
  9  5  1  0  0  0  0
 10 18  1  0  0  0  0
 11  8  1  0  0  0  0
 12 15  1  0  0  0  0
 13 21  1  6  0  0  0
 13 14  1  0  0  0  0
 14 18  2  0  0  0  0
 15 11  2  0  0  0  0
 16  2  1  0  0  0  0
 17 12  1  0  0  0  0
 19  5  1  6  0  0  0
 19 15  1  0  0  0  0
 20  3  1  6  0  0  0
 20 19  1  0  0  0  0
 23 22  1  0  0  0  0
 24 23  1  0  0  0  0
 25 24  1  0  0  0  0
 26 25  1  0  0  0  0
 27 33  1  1  0  0  0
 27 30  1  0  0  0  0
 28 29  1  0  0  0  0
 29 26  1  1  0  0  0
 30 31  1  6  0  0  0
 30 29  1  0  0  0  0
 32 27  1  0  0  0  0
 32 28  1  0  0  0  0
 34 37  1  0  0  0  0
 34 38  1  0  0  0  0
 36 35  1  0  0  0  0
 37 36  1  0  0  0  0
 38 41  1  6  0  0  0
 38 39  1  0  0  0  0
 39 35  1  0  0  0  0
 39 33  1  0  0  0  0
 40 41  1  0  0  0  0
 42  7  1  0  0  0  0
 43 42  1  0  0  0  0
 45 44  1  6  0  0  0
 45 46  1  0  0  0  0
 45 43  1  0  0  0  0
 46 50  1  6  0  0  0
 46 49  1  0  0  0  0
 47 49  1  0  0  0  0
 49 48  2  0  0  0  0
 50 51  1  0  0  0  0
 52 56  1  0  0  0  0
 52 51  1  0  0  0  0
 53 56  1  0  0  0  0
 53 54  1  0  0  0  0
 54 57  1  0  0  0  0
 55 57  1  0  0  0  0
 56 55  1  0  0  0  0
M  END
>  <MODEL>
4

>  <REMARK>
 VINA RESULT:      -7.4      2.905      7.068
  Name = 
  18 active torsions:
  status: ('A' for Active; 'I' for Inactive)
    1  A    between atoms: C_6  and  C_28
    2  A    between atoms: C_10  and  C_14
    3  A    between atoms: C_10  and  C_24
    4  A    between atoms: C_12  and  C_18
    5  A    between atoms: C_12  and  C_20
    6  A    between atoms: C_14  and  C_53
    7  A    between atoms: O_15  and  O_19
    8  A    between atoms: O_15  and  C_23
    9  A    between atoms: C_18  and  C_23
   10  A    between atoms: O_19  and  C_42
   11  A    between atoms: C_20  and  N_30
   12  A    between atoms: C_22  and  C_57
   13  A    between atoms: C_23  and  C_56
   14  A    between atoms: C_24  and  C_57
   15  A    between atoms: C_28  and  N_38
   16  A    between atoms: C_31  and  C_53
   17  A    between atoms: C_35  and  C_41
   18  A    between atoms: C_42  and  N_49
                            x       y       z     vdW  Elec       q    Type
                         _______ _______ _______ _____ _____    ______ ____

>  <TORSDO>
F 18

$$$$
=
 OpenBabel10232409123D

 57 63  0  0  1  0  0  0  0  0999 V2000
  192.5290  173.2830  136.8370 C   0  0  0  0  0  2  0  0  0  0  0  0
  186.7410  176.8060  135.6060 C   0  0  0  0  0  0  0  0  0  0  0  0
  192.8130  175.7240  137.3420 C   0  0  0  0  0  2  0  0  0  0  0  0
  187.7790  175.7770  135.8740 C   0  0  1  0  0  3  0  0  0  0  0  0
  190.8890  174.8690  135.0560 C   0  0  0  0  0  2  0  0  0  0  0  0
  192.1220  172.8140  135.4570 C   0  0  0  0  0  0  0  0  0  0  0  0
  192.5120  171.5130  135.0120 N   0  0  0  0  0  2  0  0  0  0  0  0
  188.2390  178.0100  136.8730 C   0  0  1  0  0  3  0  0  0  0  0  0
  191.3560  173.5350  134.6920 N   0  0  0  0  0  0  0  0  0  0  0  0
  185.5460  176.5030  135.2040 N   0  0  0  0  0  0  0  0  0  0  0  0
  188.7420  176.5950  136.6990 C   0  0  0  0  0  0  0  0  0  0  0  0
  190.8980  177.2190  137.4710 O   0  0  0  0  0  0  0  0  0  0  0  0
  187.0820  174.5930  136.5710 C   0  0  1  0  0  3  0  0  0  0  0  0
  185.8760  174.1850  135.7580 C   0  0  0  0  0  3  0  0  0  0  0  0
  190.0240  176.2580  136.9370 C   0  0  0  0  0  0  0  0  0  0  0  0
  187.1020  178.0720  136.0220 O   0  0  0  0  0  0  0  0  0  0  0  0
  192.1560  176.8890  138.0610 C   0  0  0  0  0  2  0  0  0  0  0  0
  185.1500  175.1220  135.1320 C   0  0  0  0  0  3  0  0  0  0  0  0
  190.5670  174.9070  136.5440 C   0  0  2  0  0  3  0  0  0  0  0  0
  191.8340  174.5570  137.3380 C   0  0  1  0  0  3  0  0  0  0  0  0
  187.9950  173.3890  136.7020 C   0  0  0  0  0  1  0  0  0  0  0  0
  187.7700  178.2450  138.3090 C   0  0  0  0  0  2  0  0  0  0  0  0
  188.3520  177.2450  139.2950 C   0  0  0  0  0  2  0  0  0  0  0  0
  189.1120  177.9620  140.3940 C   0  0  0  0  0  2  0  0  0  0  0  0
  189.7770  176.9360  141.2930 C   0  0  0  0  0  2  0  0  0  0  0  0
  191.1830  177.3950  141.6350 C   0  0  0  0  0  2  0  0  0  0  0  0
  189.7860  177.2290  144.9120 C   0  0  1  0  0  3  0  0  0  0  0  0
  190.5730  178.8420  143.5400 C   0  0  0  0  0  2  0  0  0  0  0  0
  191.3240  177.6030  143.1340 C   0  0  1  0  0  3  0  0  0  0  0  0
  190.6140  176.5100  143.8700 C   0  0  1  0  0  3  0  0  0  0  0  0
  191.8190  175.4200  144.6840 S   0  0  0  0  0  1  0  0  0  0  0  0
  189.9680  178.6190  144.7880 O   0  0  0  0  0  0  0  0  0  0  0  0
  188.3200  176.8730  144.7270 C   0  0  0  0  0  2  0  0  0  0  0  0
  185.1770  178.8510  145.0770 C   0  0  0  0  0  2  0  0  0  0  0  0
  187.2430  177.6940  146.6100 C   0  0  0  0  0  2  0  0  0  0  0  0
  186.2280  178.6780  147.1820 C   0  0  0  0  0  2  0  0  0  0  0  0
  184.9600  178.5200  146.4810 N   0  0  0  0  0  2  0  0  0  0  0  0
  186.1930  177.8910  144.4550 C   0  0  2  0  0  3  0  0  0  0  0  0
  187.4710  177.9620  145.1880 N   0  0  0  0  0  0  0  0  0  0  0  0
  185.2410  178.0060  142.2650 O   0  0  0  0  0  1  0  0  0  0  0  0
  186.3800  178.3150  143.0040 C   0  0  0  0  0  2  0  0  0  0  0  0
  193.3940  170.6690  135.7930 C   0  0  0  0  0  2  0  0  0  0  0  0
  194.7330  170.5440  135.0890 C   0  0  0  0  0  2  0  0  0  0  0  0
  196.4890  172.0730  134.3460 N   0  0  0  0  0  1  0  0  0  0  0  0
  195.6190  171.7230  135.4600 C   0  0  2  0  0  3  0  0  0  0  0  0
  196.4280  171.4120  136.7200 C   0  0  2  0  0  3  0  0  0  0  0  0
  196.4480  169.1220  137.7770 N   0  0  0  0  0  1  0  0  0  0  0  0
  197.6480  169.5460  135.8370 O   0  0  0  0  0  0  0  0  0  0  0  0
  196.8800  169.9860  136.7330 C   0  0  0  0  0  0  0  0  0  0  0  0
  195.7020  171.7160  137.8840 O   0  0  0  0  0  0  0  0  0  0  0  0
  196.4340  172.6110  138.5220 O   0  0  0  0  0  0  0  0  0  0  0  0
  195.5710  173.6910  138.7390 C   0  0  0  0  0  2  0  0  0  0  0  0
  197.7300  174.5750  138.5740 C   0  0  0  0  0  2  0  0  0  0  0  0
  198.6030  175.2660  139.5890 C   0  0  0  0  0  2  0  0  0  0  0  0
  196.3230  175.2700  140.3040 C   0  0  0  0  0  2  0  0  0  0  0  0
  196.3500  174.9100  138.8890 N   0  0  0  0  0  0  0  0  0  0  0  0
  197.7470  175.3100  140.8210 C   0  0  0  0  0  2  0  0  0  0  0  0
  2 16  1  0  0  0  0
  3 17  1  0  0  0  0
  4  2  1  1  0  0  0
  4 13  1  0  0  0  0
  4 11  1  0  0  0  0
  6  1  1  0  0  0  0
  7  6  1  0  0  0  0
  7 42  1  0  0  0  0
  8 22  1  1  0  0  0
  9  5  1  0  0  0  0
  9  6  2  0  0  0  0
 10  2  2  0  0  0  0
 11  8  1  0  0  0  0
 11 15  2  0  0  0  0
 12 17  1  0  0  0  0
 13 21  1  6  0  0  0
 14 13  1  0  0  0  0
 15 12  1  0  0  0  0
 16  8  1  0  0  0  0
 18 10  1  0  0  0  0
 18 14  2  0  0  0  0
 19  5  1  6  0  0  0
 19 15  1  0  0  0  0
 19 20  1  0  0  0  0
 20  1  1  6  0  0  0
 20  3  1  0  0  0  0
 22 23  1  0  0  0  0
 23 24  1  0  0  0  0
 24 25  1  0  0  0  0
 25 26  1  0  0  0  0
 27 33  1  6  0  0  0
 28 32  1  0  0  0  0
 29 26  1  6  0  0  0
 29 28  1  0  0  0  0
 29 30  1  0  0  0  0
 30 31  1  1  0  0  0
 30 27  1  0  0  0  0
 32 27  1  0  0  0  0
 33 39  1  0  0  0  0
 34 37  1  0  0  0  0
 35 36  1  0  0  0  0
 37 36  1  0  0  0  0
 38 41  1  6  0  0  0
 38 34  1  0  0  0  0
 38 39  1  0  0  0  0
 39 35  1  0  0  0  0
 40 41  1  0  0  0  0
 43 45  1  0  0  0  0
 43 42  1  0  0  0  0
 45 44  1  6  0  0  0
 45 46  1  0  0  0  0
 46 49  1  1  0  0  0
 46 50  1  0  0  0  0
 48 49  2  0  0  0  0
 49 47  1  0  0  0  0
 50 51  1  0  0  0  0
 51 52  1  0  0  0  0
 52 56  1  0  0  0  0
 53 56  1  0  0  0  0
 53 54  1  0  0  0  0
 54 57  1  0  0  0  0
 55 57  1  0  0  0  0
 56 55  1  0  0  0  0
M  END
>  <MODEL>
5

>  <REMARK>
 VINA RESULT:      -7.3      2.629      5.203
  Name = 
  18 active torsions:
  status: ('A' for Active; 'I' for Inactive)
    1  A    between atoms: C_6  and  C_28
    2  A    between atoms: C_10  and  C_14
    3  A    between atoms: C_10  and  C_24
    4  A    between atoms: C_12  and  C_18
    5  A    between atoms: C_12  and  C_20
    6  A    between atoms: C_14  and  C_53
    7  A    between atoms: O_15  and  O_19
    8  A    between atoms: O_15  and  C_23
    9  A    between atoms: C_18  and  C_23
   10  A    between atoms: O_19  and  C_42
   11  A    between atoms: C_20  and  N_30
   12  A    between atoms: C_22  and  C_57
   13  A    between atoms: C_23  and  C_56
   14  A    between atoms: C_24  and  C_57
   15  A    between atoms: C_28  and  N_38
   16  A    between atoms: C_31  and  C_53
   17  A    between atoms: C_35  and  C_41
   18  A    between atoms: C_42  and  N_49
                            x       y       z     vdW  Elec       q    Type
                         _______ _______ _______ _____ _____    ______ ____

>  <TORSDO>
F 18

$$$$
=
 OpenBabel10232409123D

 57 63  0  0  1  0  0  0  0  0999 V2000
  189.9030  175.2400  136.8120 C   0  0  0  0  0  2  0  0  0  0  0  0
  183.0300  175.2740  136.3740 C   0  0  0  0  0  0  0  0  0  0  0  0
  188.9710  177.5470  137.1330 C   0  0  0  0  0  2  0  0  0  0  0  0
  184.4680  174.9320  136.5190 C   0  0  1  0  0  3  0  0  0  0  0  0
  187.4900  175.5720  135.2460 C   0  0  0  0  0  2  0  0  0  0  0  0
  189.6290  174.4580  135.5450 C   0  0  0  0  0  0  0  0  0  0  0  0
  190.5670  173.4710  135.1100 N   0  0  0  0  0  2  0  0  0  0  0  0
  183.8500  177.2100  137.3090 C   0  0  1  0  0  3  0  0  0  0  0  0
  188.5210  174.6040  134.8810 N   0  0  0  0  0  0  0  0  0  0  0  0
  182.1130  174.3730  136.1920 N   0  0  0  0  0  0  0  0  0  0  0  0
  184.9750  176.2150  137.1300 C   0  0  0  0  0  0  0  0  0  0  0  0
  186.5940  177.9120  137.4990 O   0  0  0  0  0  0  0  0  0  0  0  0
  184.5520  173.6590  137.3840 C   0  0  1  0  0  3  0  0  0  0  0  0
  183.6310  172.6110  136.8050 C   0  0  0  0  0  3  0  0  0  0  0  0
  186.2690  176.5850  137.1690 C   0  0  0  0  0  0  0  0  0  0  0  0
  182.7470  176.5950  136.6570 O   0  0  0  0  0  0  0  0  0  0  0  0
  187.9050  178.3210  137.8890 C   0  0  0  0  0  2  0  0  0  0  0  0
  182.4640  172.9810  136.2600 C   0  0  0  0  0  3  0  0  0  0  0  0
  187.3700  175.6370  136.7630 C   0  0  2  0  0  3  0  0  0  0  0  0
  188.7230  176.0600  137.3540 C   0  0  1  0  0  3  0  0  0  0  0  0
  185.9550  173.0870  137.4250 C   0  0  0  0  0  1  0  0  0  0  0  0
  183.4990  177.3670  138.7890 C   0  0  0  0  0  2  0  0  0  0  0  0
  183.8310  178.7460  139.3350 C   0  0  0  0  0  2  0  0  0  0  0  0
  183.9020  178.7170  140.8490 C   0  0  0  0  0  2  0  0  0  0  0  0
  185.3520  178.8200  141.2850 C   0  0  0  0  0  2  0  0  0  0  0  0
  185.4190  179.3610  142.7020 C   0  0  0  0  0  2  0  0  0  0  0  0
  186.9050  177.6490  145.4560 C   0  0  1  0  0  3  0  0  0  0  0  0
  186.4000  177.1770  143.3050 C   0  0  0  0  0  2  0  0  0  0  0  0
  185.3940  178.2220  143.7070 C   0  0  1  0  0  3  0  0  0  0  0  0
  185.9000  178.6980  145.0330 C   0  0  1  0  0  3  0  0  0  0  0  0
  184.5380  178.7670  146.2340 S   0  0  0  0  0  1  0  0  0  0  0  0
  187.0050  176.6580  144.4620 O   0  0  0  0  0  0  0  0  0  0  0  0
  188.2580  178.3060  145.6800 C   0  0  0  0  0  2  0  0  0  0  0  0
  191.6930  176.8850  145.3770 C   0  0  0  0  0  2  0  0  0  0  0  0
  189.5820  177.1900  147.2230 C   0  0  0  0  0  2  0  0  0  0  0  0
  190.7790  176.2770  147.4640 C   0  0  0  0  0  2  0  0  0  0  0  0
  191.9530  176.8430  146.8110 N   0  0  0  0  0  2  0  0  0  0  0  0
  190.4950  177.7900  145.0800 C   0  0  2  0  0  3  0  0  0  0  0  0
  189.3000  177.2960  145.7890 N   0  0  0  0  0  0  0  0  0  0  0  0
  191.4910  177.9220  142.9100 O   0  0  0  0  0  1  0  0  0  0  0  0
  190.2760  177.7630  143.5730 C   0  0  0  0  0  2  0  0  0  0  0  0
  191.8400  173.2780  135.7780 C   0  0  0  0  0  2  0  0  0  0  0  0
  192.8740  174.2150  135.1810 C   0  0  0  0  0  2  0  0  0  0  0  0
  194.1530  172.2100  135.7460 N   0  0  0  0  0  1  0  0  0  0  0  0
  194.2560  173.5920  135.2950 C   0  0  2  0  0  3  0  0  0  0  0  0
  195.1420  174.4160  136.2300 C   0  0  2  0  0  3  0  0  0  0  0  0
  193.9080  176.0460  137.7060 N   0  0  0  0  0  1  0  0  0  0  0  0
  194.2950  173.8690  138.4060 O   0  0  0  0  0  0  0  0  0  0  0  0
  194.4290  174.7380  137.5050 C   0  0  0  0  0  0  0  0  0  0  0  0
  195.5990  175.5870  135.6030 O   0  0  0  0  0  0  0  0  0  0  0  0
  196.7380  175.8780  136.2050 O   0  0  0  0  0  0  0  0  0  0  0  0
  197.7260  175.6180  135.2490 C   0  0  0  0  0  2  0  0  0  0  0  0
  199.2660  173.8590  135.1630 C   0  0  0  0  0  2  0  0  0  0  0  0
  199.6220  172.7990  136.1720 C   0  0  0  0  0  2  0  0  0  0  0  0
  198.4790  174.6100  137.2300 C   0  0  0  0  0  2  0  0  0  0  0  0
  198.8960  175.0550  135.9040 N   0  0  0  0  0  0  0  0  0  0  0  0
  198.7530  173.1250  137.3520 C   0  0  0  0  0  2  0  0  0  0  0  0
  2 16  1  0  0  0  0
  3 20  1  0  0  0  0
  3 17  1  0  0  0  0
  4  2  1  1  0  0  0
  4 11  1  0  0  0  0
  4 13  1  0  0  0  0
  6  1  1  0  0  0  0
  7  6  1  0  0  0  0
  7 42  1  0  0  0  0
  8 22  1  1  0  0  0
  9  5  1  0  0  0  0
  9  6  2  0  0  0  0
 10 18  1  0  0  0  0
 10  2  2  0  0  0  0
 11 15  2  0  0  0  0
 11  8  1  0  0  0  0
 12 17  1  0  0  0  0
 13 21  1  6  0  0  0
 14 13  1  0  0  0  0
 15 12  1  0  0  0  0
 16  8  1  0  0  0  0
 18 14  2  0  0  0  0
 19  5  1  6  0  0  0
 19 15  1  0  0  0  0
 19 20  1  0  0  0  0
 20  1  1  6  0  0  0
 22 23  1  0  0  0  0
 23 24  1  0  0  0  0
 24 25  1  0  0  0  0
 25 26  1  0  0  0  0
 27 33  1  6  0  0  0
 28 29  1  0  0  0  0
 28 32  1  0  0  0  0
 29 26  1  6  0  0  0
 29 30  1  0  0  0  0
 30 27  1  0  0  0  0
 30 31  1  1  0  0  0
 32 27  1  0  0  0  0
 33 39  1  0  0  0  0
 34 37  1  0  0  0  0
 35 36  1  0  0  0  0
 37 36  1  0  0  0  0
 38 41  1  6  0  0  0
 38 34  1  0  0  0  0
 38 39  1  0  0  0  0
 39 35  1  0  0  0  0
 40 41  1  0  0  0  0
 43 45  1  0  0  0  0
 43 42  1  0  0  0  0
 45 44  1  1  0  0  0
 45 46  1  0  0  0  0
 46 50  1  6  0  0  0
 46 49  1  0  0  0  0
 49 47  1  0  0  0  0
 49 48  2  0  0  0  0
 50 51  1  0  0  0  0
 52 56  1  0  0  0  0
 52 51  1  0  0  0  0
 53 56  1  0  0  0  0
 53 54  1  0  0  0  0
 54 57  1  0  0  0  0
 55 57  1  0  0  0  0
 56 55  1  0  0  0  0
M  END
>  <MODEL>
6

>  <REMARK>
 VINA RESULT:      -7.1      2.123      3.024
  Name = 
  18 active torsions:
  status: ('A' for Active; 'I' for Inactive)
    1  A    between atoms: C_6  and  C_28
    2  A    between atoms: C_10  and  C_14
    3  A    between atoms: C_10  and  C_24
    4  A    between atoms: C_12  and  C_18
    5  A    between atoms: C_12  and  C_20
    6  A    between atoms: C_14  and  C_53
    7  A    between atoms: O_15  and  O_19
    8  A    between atoms: O_15  and  C_23
    9  A    between atoms: C_18  and  C_23
   10  A    between atoms: O_19  and  C_42
   11  A    between atoms: C_20  and  N_30
   12  A    between atoms: C_22  and  C_57
   13  A    between atoms: C_23  and  C_56
   14  A    between atoms: C_24  and  C_57
   15  A    between atoms: C_28  and  N_38
   16  A    between atoms: C_31  and  C_53
   17  A    between atoms: C_35  and  C_41
   18  A    between atoms: C_42  and  N_49
                            x       y       z     vdW  Elec       q    Type
                         _______ _______ _______ _____ _____    ______ ____

>  <TORSDO>
F 18

$$$$
=
 OpenBabel10232409123D

 57 63  0  0  1  0  0  0  0  0999 V2000
  189.1750  177.0550  137.9030 C   0  0  0  0  0  2  0  0  0  0  0  0
  182.5270  178.7400  138.5390 C   0  0  0  0  0  0  0  0  0  0  0  0
  188.7840  178.5200  139.9010 C   0  0  0  0  0  2  0  0  0  0  0  0
  183.8380  178.1280  138.2020 C   0  0  1  0  0  3  0  0  0  0  0  0
  186.9900  178.8840  137.3900 C   0  0  0  0  0  2  0  0  0  0  0  0
  188.7960  177.5170  136.5120 C   0  0  0  0  0  0  0  0  0  0  0  0
  189.5040  177.0010  135.3820 N   0  0  0  0  0  2  0  0  0  0  0  0
  183.7200  179.1720  140.4590 C   0  0  1  0  0  3  0  0  0  0  0  0
  187.7880  178.3130  136.3090 N   0  0  0  0  0  0  0  0  0  0  0  0
  181.4390  178.4600  137.8900 N   0  0  0  0  0  0  0  0  0  0  0  0
  184.5940  178.4290  139.4730 C   0  0  0  0  0  0  0  0  0  0  0  0
  186.5380  178.9580  140.7280 O   0  0  0  0  0  0  0  0  0  0  0  0
  183.5810  176.6460  137.8680 C   0  0  1  0  0  3  0  0  0  0  0  0
  182.4750  176.5580  136.8430 C   0  0  0  0  0  3  0  0  0  0  0  0
  185.9340  178.3900  139.5940 C   0  0  0  0  0  0  0  0  0  0  0  0
  182.5420  179.4580  139.7180 O   0  0  0  0  0  0  0  0  0  0  0  0
  187.8850  178.6870  141.1150 C   0  0  0  0  0  2  0  0  0  0  0  0
  181.4560  177.4270  136.8900 C   0  0  0  0  0  3  0  0  0  0  0  0
  186.8080  177.8470  138.4900 C   0  0  2  0  0  3  0  0  0  0  0  0
  188.1880  177.4300  139.0180 C   0  0  1  0  0  3  0  0  0  0  0  0
  184.8100  175.9660  137.3010 C   0  0  0  0  0  1  0  0  0  0  0  0
  183.3370  178.2670  141.6300 C   0  0  0  0  0  2  0  0  0  0  0  0
  182.6250  179.0110  142.7480 C   0  0  0  0  0  2  0  0  0  0  0  0
  183.2940  178.7370  144.0810 C   0  0  0  0  0  2  0  0  0  0  0  0
  184.7670  179.0870  143.9830 C   0  0  0  0  0  2  0  0  0  0  0  0
  185.3620  179.1780  145.3780 C   0  0  0  0  0  2  0  0  0  0  0  0
  188.4830  177.4660  145.5950 C   0  0  1  0  0  3  0  0  0  0  0  0
  186.5640  177.2450  144.4230 C   0  0  0  0  0  2  0  0  0  0  0  0
  186.1480  177.9190  145.7020 C   0  0  1  0  0  3  0  0  0  0  0  0
  187.4510  178.2810  146.3430 C   0  0  1  0  0  3  0  0  0  0  0  0
  187.4400  177.8030  148.0960 S   0  0  0  0  0  1  0  0  0  0  0  0
  187.8540  176.7120  144.5880 O   0  0  0  0  0  0  0  0  0  0  0  0
  189.5170  178.3980  144.9840 C   0  0  0  0  0  2  0  0  0  0  0  0
  192.0090  175.6540  145.3990 C   0  0  0  0  0  2  0  0  0  0  0  0
  190.7320  177.1980  143.4140 C   0  0  0  0  0  2  0  0  0  0  0  0
  191.9310  176.3000  143.1320 C   0  0  0  0  0  2  0  0  0  0  0  0
  191.8950  175.1550  144.0330 N   0  0  0  0  0  2  0  0  0  0  0  0
  190.8260  176.5650  145.7320 C   0  0  2  0  0  3  0  0  0  0  0  0
  190.7790  177.6980  144.7900 N   0  0  0  0  0  0  0  0  0  0  0  0
  192.1240  176.4210  147.7350 O   0  0  0  0  0  1  0  0  0  0  0  0
  191.0290  177.0590  147.1590 C   0  0  0  0  0  2  0  0  0  0  0  0
  190.6600  176.1390  135.5310 C   0  0  0  0  0  2  0  0  0  0  0  0
  190.2060  174.7390  135.9020 C   0  0  0  0  0  2  0  0  0  0  0  0
  191.7740  175.2560  137.7040 N   0  0  0  0  0  1  0  0  0  0  0  0
  191.1140  174.1760  136.9840 C   0  0  2  0  0  3  0  0  0  0  0  0
  192.1320  173.2070  136.3800 C   0  0  2  0  0  3  0  0  0  0  0  0
  194.0350  174.4780  135.3190 N   0  0  0  0  0  1  0  0  0  0  0  0
  194.2300  173.6210  137.4650 O   0  0  0  0  0  0  0  0  0  0  0  0
  193.5160  173.7730  136.4400 C   0  0  0  0  0  0  0  0  0  0  0  0
  191.7910  172.8600  135.0630 O   0  0  0  0  0  0  0  0  0  0  0  0
  191.5750  171.5570  135.0960 O   0  0  0  0  0  0  0  0  0  0  0  0
  192.7450  170.9860  134.5830 C   0  0  0  0  0  2  0  0  0  0  0  0
  193.7430  169.9680  136.4380 C   0  0  0  0  0  2  0  0  0  0  0  0
  194.8080  168.9080  136.5380 C   0  0  0  0  0  2  0  0  0  0  0  0
  193.8510  168.9290  134.3490 C   0  0  0  0  0  2  0  0  0  0  0  0
  192.9790  169.7030  135.2280 N   0  0  0  0  0  0  0  0  0  0  0  0
  195.1160  168.5780  135.1060 C   0  0  0  0  0  2  0  0  0  0  0  0
  2 16  1  0  0  0  0
  3 17  1  0  0  0  0
  4  2  1  1  0  0  0
  4 11  1  0  0  0  0
  6  1  1  0  0  0  0
  7 42  1  0  0  0  0
  7  6  1  0  0  0  0
  8 22  1  1  0  0  0
  9  6  2  0  0  0  0
  9  5  1  0  0  0  0
 10  2  2  0  0  0  0
 11 15  2  0  0  0  0
 11  8  1  0  0  0  0
 12 17  1  0  0  0  0
 13 21  1  6  0  0  0
 13  4  1  0  0  0  0
 14 18  2  0  0  0  0
 14 13  1  0  0  0  0
 15 12  1  0  0  0  0
 16  8  1  0  0  0  0
 18 10  1  0  0  0  0
 19  5  1  6  0  0  0
 19 20  1  0  0  0  0
 19 15  1  0  0  0  0
 20  1  1  6  0  0  0
 20  3  1  0  0  0  0
 22 23  1  0  0  0  0
 23 24  1  0  0  0  0
 25 24  1  0  0  0  0
 25 26  1  0  0  0  0
 27 33  1  6  0  0  0
 27 30  1  0  0  0  0
 28 32  1  0  0  0  0
 28 29  1  0  0  0  0
 29 26  1  6  0  0  0
 29 30  1  0  0  0  0
 30 31  1  1  0  0  0
 32 27  1  0  0  0  0
 34 38  1  0  0  0  0
 35 39  1  0  0  0  0
 36 35  1  0  0  0  0
 36 37  1  0  0  0  0
 37 34  1  0  0  0  0
 38 41  1  1  0  0  0
 39 33  1  0  0  0  0
 39 38  1  0  0  0  0
 41 40  1  0  0  0  0
 42 43  1  0  0  0  0
 43 45  1  0  0  0  0
 45 44  1  6  0  0  0
 46 50  1  6  0  0  0
 46 49  1  0  0  0  0
 46 45  1  0  0  0  0
 47 49  1  0  0  0  0
 49 48  2  0  0  0  0
 50 51  1  0  0  0  0
 52 51  1  0  0  0  0
 52 56  1  0  0  0  0
 53 54  1  0  0  0  0
 55 57  1  0  0  0  0
 55 56  1  0  0  0  0
 56 53  1  0  0  0  0
 57 54  1  0  0  0  0
M  END
>  <MODEL>
7

>  <REMARK>
 VINA RESULT:      -6.8      1.795      2.350
  Name = 
  18 active torsions:
  status: ('A' for Active; 'I' for Inactive)
    1  A    between atoms: C_6  and  C_28
    2  A    between atoms: C_10  and  C_14
    3  A    between atoms: C_10  and  C_24
    4  A    between atoms: C_12  and  C_18
    5  A    between atoms: C_12  and  C_20
    6  A    between atoms: C_14  and  C_53
    7  A    between atoms: O_15  and  O_19
    8  A    between atoms: O_15  and  C_23
    9  A    between atoms: C_18  and  C_23
   10  A    between atoms: O_19  and  C_42
   11  A    between atoms: C_20  and  N_30
   12  A    between atoms: C_22  and  C_57
   13  A    between atoms: C_23  and  C_56
   14  A    between atoms: C_24  and  C_57
   15  A    between atoms: C_28  and  N_38
   16  A    between atoms: C_31  and  C_53
   17  A    between atoms: C_35  and  C_41
   18  A    between atoms: C_42  and  N_49
                            x       y       z     vdW  Elec       q    Type
                         _______ _______ _______ _____ _____    ______ ____

>  <TORSDO>
F 18

$$$$
=
 OpenBabel10232409123D

 57 63  0  0  1  0  0  0  0  0999 V2000
  190.3300  177.8930  140.0660 C   0  0  0  0  0  2  0  0  0  0  0  0
  187.3320  177.1930  146.2260 C   0  0  0  0  0  0  0  0  0  0  0  0
  187.8290  177.9020  139.8780 C   0  0  0  0  0  2  0  0  0  0  0  0
  188.2510  177.4320  145.0840 C   0  0  1  0  0  3  0  0  0  0  0  0
  189.1670  176.2080  142.1130 C   0  0  0  0  0  2  0  0  0  0  0  0
  191.0610  176.7180  140.6800 C   0  0  0  0  0  0  0  0  0  0  0  0
  192.4060  176.4400  140.2810 N   0  0  0  0  0  2  0  0  0  0  0  0
  185.8550  177.9220  144.6190 C   0  0  1  0  0  3  0  0  0  0  0  0
  190.5260  175.9990  141.6210 N   0  0  0  0  0  0  0  0  0  0  0  0
  187.7520  177.0840  147.4490 N   0  0  0  0  0  0  0  0  0  0  0  0
  187.2570  177.9040  144.0520 C   0  0  0  0  0  0  0  0  0  0  0  0
  186.4140  178.1320  141.8440 O   0  0  0  0  0  0  0  0  0  0  0  0
  189.3140  178.4440  145.5550 C   0  0  1  0  0  3  0  0  0  0  0  0
  189.9120  177.9590  146.8540 C   0  0  0  0  0  3  0  0  0  0  0  0
  187.4910  177.9490  142.7270 C   0  0  0  0  0  0  0  0  0  0  0  0
  185.9970  177.3050  145.8920 O   0  0  0  0  0  0  0  0  0  0  0  0
  186.5780  178.5200  140.4800 C   0  0  0  0  0  2  0  0  0  0  0  0
  189.1370  177.3290  147.7480 C   0  0  0  0  0  3  0  0  0  0  0  0
  188.8690  177.7010  142.1640 C   0  0  2  0  0  3  0  0  0  0  0  0
  189.0150  178.2880  140.7530 C   0  0  1  0  0  3  0  0  0  0  0  0
  190.4340  178.6060  144.5470 C   0  0  0  0  0  1  0  0  0  0  0  0
  185.3780  179.3580  144.8380 C   0  0  0  0  0  2  0  0  0  0  0  0
  184.0910  179.6770  144.0940 C   0  0  0  0  0  2  0  0  0  0  0  0
  183.4210  178.4020  143.6210 C   0  0  0  0  0  2  0  0  0  0  0  0
  183.2330  178.4650  142.1160 C   0  0  0  0  0  2  0  0  0  0  0  0
  181.8020  178.8630  141.7980 C   0  0  0  0  0  2  0  0  0  0  0  0
  182.6160  178.0270  138.4290 C   0  0  1  0  0  3  0  0  0  0  0  0
  182.8580  179.8190  139.7820 C   0  0  0  0  0  2  0  0  0  0  0  0
  181.6390  179.1120  140.3090 C   0  0  1  0  0  3  0  0  0  0  0  0
  181.6460  177.8110  139.5690 C   0  0  1  0  0  3  0  0  0  0  0  0
  179.9900  177.4560  138.9110 S   0  0  0  0  0  1  0  0  0  0  0  0
  183.1540  179.3250  138.5000 O   0  0  0  0  0  0  0  0  0  0  0  0
  183.7290  176.9930  138.5090 C   0  0  0  0  0  2  0  0  0  0  0  0
  184.9260  174.3800  136.1310 C   0  0  0  0  0  2  0  0  0  0  0  0
  182.7570  175.0010  137.8240 C   0  0  0  0  0  2  0  0  0  0  0  0
  182.7170  173.8820  136.7900 C   0  0  0  0  0  2  0  0  0  0  0  0
  184.0550  173.3250  136.6340 N   0  0  0  0  0  2  0  0  0  0  0  0
  184.9990  175.5330  137.1350 C   0  0  2  0  0  3  0  0  0  0  0  0
  183.6500  176.0750  137.3820 N   0  0  0  0  0  0  0  0  0  0  0  0
  185.5030  176.8830  135.2260 O   0  0  0  0  0  1  0  0  0  0  0  0
  185.9050  176.5980  136.5290 C   0  0  0  0  0  2  0  0  0  0  0  0
  193.0550  177.1730  139.2120 C   0  0  0  0  0  2  0  0  0  0  0  0
  192.6610  176.5760  137.8730 C   0  0  0  0  0  2  0  0  0  0  0  0
  193.9130  176.3860  135.7830 N   0  0  0  0  0  1  0  0  0  0  0  0
  193.8900  176.0010  137.1880 C   0  0  2  0  0  3  0  0  0  0  0  0
  193.9330  174.4810  137.3480 C   0  0  2  0  0  3  0  0  0  0  0  0
  196.4440  174.5670  137.5590 N   0  0  0  0  0  1  0  0  0  0  0  0
  195.1820  173.2070  138.9500 O   0  0  0  0  0  0  0  0  0  0  0  0
  195.2010  174.0430  138.0090 C   0  0  0  0  0  0  0  0  0  0  0  0
  193.7620  173.8300  136.1140 O   0  0  0  0  0  0  0  0  0  0  0  0
  192.8380  172.9120  136.3350 O   0  0  0  0  0  0  0  0  0  0  0  0
  191.8210  173.5850  137.0210 C   0  0  0  0  0  2  0  0  0  0  0  0
  189.6900  174.5380  136.8710 C   0  0  0  0  0  2  0  0  0  0  0  0
  188.3910  173.9910  136.3410 C   0  0  0  0  0  2  0  0  0  0  0  0
  190.2320  172.6970  135.5390 C   0  0  0  0  0  2  0  0  0  0  0  0
  190.7630  173.9410  136.0900 N   0  0  0  0  0  0  0  0  0  0  0  0
  188.7540  172.6160  135.8620 C   0  0  0  0  0  2  0  0  0  0  0  0
  1  6  1  0  0  0  0
  1 20  1  0  0  0  0
  2 10  2  0  0  0  0
  3 17  1  0  0  0  0
  4 11  1  6  0  0  0
  4 13  1  0  0  0  0
  4  2  1  0  0  0  0
  6  9  2  0  0  0  0
  7  6  1  0  0  0  0
  8 22  1  1  0  0  0
  8 16  1  0  0  0  0
  9  5  1  0  0  0  0
 10 18  1  0  0  0  0
 11  8  1  0  0  0  0
 12 15  1  0  0  0  0
 13 21  1  6  0  0  0
 13 14  1  0  0  0  0
 14 18  2  0  0  0  0
 15 11  2  0  0  0  0
 16  2  1  0  0  0  0
 17 12  1  0  0  0  0
 19  5  1  6  0  0  0
 19 15  1  0  0  0  0
 20  3  1  6  0  0  0
 20 19  1  0  0  0  0
 23 22  1  0  0  0  0
 24 23  1  0  0  0  0
 25 24  1  0  0  0  0
 26 25  1  0  0  0  0
 27 32  1  0  0  0  0
 27 33  1  1  0  0  0
 27 30  1  0  0  0  0
 28 29  1  0  0  0  0
 29 26  1  1  0  0  0
 30 31  1  6  0  0  0
 30 29  1  0  0  0  0
 32 28  1  0  0  0  0
 34 37  1  0  0  0  0
 34 38  1  0  0  0  0
 36 35  1  0  0  0  0
 37 36  1  0  0  0  0
 38 41  1  6  0  0  0
 38 39  1  0  0  0  0
 39 35  1  0  0  0  0
 39 33  1  0  0  0  0
 40 41  1  0  0  0  0
 42  7  1  0  0  0  0
 43 42  1  0  0  0  0
 45 44  1  6  0  0  0
 45 46  1  0  0  0  0
 45 43  1  0  0  0  0
 46 50  1  6  0  0  0
 46 49  1  0  0  0  0
 47 49  1  0  0  0  0
 49 48  2  0  0  0  0
 50 51  1  0  0  0  0
 51 52  1  0  0  0  0
 54 53  1  0  0  0  0
 55 57  1  0  0  0  0
 55 56  1  0  0  0  0
 56 53  1  0  0  0  0
 56 52  1  0  0  0  0
 57 54  1  0  0  0  0
M  END
>  <MODEL>
8

>  <REMARK>
 VINA RESULT:      -6.8      2.826      7.549
  Name = 
  18 active torsions:
  status: ('A' for Active; 'I' for Inactive)
    1  A    between atoms: C_6  and  C_28
    2  A    between atoms: C_10  and  C_14
    3  A    between atoms: C_10  and  C_24
    4  A    between atoms: C_12  and  C_18
    5  A    between atoms: C_12  and  C_20
    6  A    between atoms: C_14  and  C_53
    7  A    between atoms: O_15  and  O_19
    8  A    between atoms: O_15  and  C_23
    9  A    between atoms: C_18  and  C_23
   10  A    between atoms: O_19  and  C_42
   11  A    between atoms: C_20  and  N_30
   12  A    between atoms: C_22  and  C_57
   13  A    between atoms: C_23  and  C_56
   14  A    between atoms: C_24  and  C_57
   15  A    between atoms: C_28  and  N_38
   16  A    between atoms: C_31  and  C_53
   17  A    between atoms: C_35  and  C_41
   18  A    between atoms: C_42  and  N_49
                            x       y       z     vdW  Elec       q    Type
                         _______ _______ _______ _____ _____    ______ ____

>  <TORSDO>
F 18

$$$$
=
 OpenBabel10232409123D

 57 63  0  0  1  0  0  0  0  0999 V2000
  190.1200  178.0090  140.1140 C   0  0  0  0  0  2  0  0  0  0  0  0
  187.3490  177.1630  146.3620 C   0  0  0  0  0  0  0  0  0  0  0  0
  187.6140  178.0870  140.0270 C   0  0  0  0  0  2  0  0  0  0  0  0
  188.2280  177.4210  145.1930 C   0  0  1  0  0  3  0  0  0  0  0  0
  188.9940  176.2820  142.1460 C   0  0  0  0  0  2  0  0  0  0  0  0
  190.8430  176.7960  140.6560 C   0  0  0  0  0  0  0  0  0  0  0  0
  192.1630  176.4980  140.1940 N   0  0  0  0  0  2  0  0  0  0  0  0
  185.8290  177.9860  144.8420 C   0  0  1  0  0  3  0  0  0  0  0  0
  190.3270  176.0570  141.5930 N   0  0  0  0  0  0  0  0  0  0  0  0
  187.8140  177.0010  147.5620 N   0  0  0  0  0  0  0  0  0  0  0  0
  187.2070  177.9540  144.2180 C   0  0  0  0  0  0  0  0  0  0  0  0
  186.2840  178.2810  142.0550 O   0  0  0  0  0  0  0  0  0  0  0  0
  189.3350  178.3880  145.6550 C   0  0  1  0  0  3  0  0  0  0  0  0
  189.9710  177.8430  146.9110 C   0  0  0  0  0  3  0  0  0  0  0  0
  187.3900  178.0400  142.8870 C   0  0  0  0  0  0  0  0  0  0  0  0
  186.0050  177.3210  146.0850 O   0  0  0  0  0  0  0  0  0  0  0  0
  186.4040  178.7140  140.7000 C   0  0  0  0  0  2  0  0  0  0  0  0
  189.2160  177.2010  147.8130 C   0  0  0  0  0  3  0  0  0  0  0  0
  188.7380  177.7780  142.2610 C   0  0  2  0  0  3  0  0  0  0  0  0
  188.8440  178.4120  140.8660 C   0  0  1  0  0  3  0  0  0  0  0  0
  190.4180  178.5590  144.6090 C   0  0  0  0  0  1  0  0  0  0  0  0
  185.3990  179.4250  145.1290 C   0  0  0  0  0  2  0  0  0  0  0  0
  184.0230  179.7560  144.5750 C   0  0  0  0  0  2  0  0  0  0  0  0
  183.5700  178.6850  143.6020 C   0  0  0  0  0  2  0  0  0  0  0  0
  182.3910  179.2050  142.8000 C   0  0  0  0  0  2  0  0  0  0  0  0
  181.2100  178.2630  142.9640 C   0  0  0  0  0  2  0  0  0  0  0  0
  180.6470  178.9090  139.5030 C   0  0  1  0  0  3  0  0  0  0  0  0
  180.0750  179.8650  141.4680 C   0  0  0  0  0  2  0  0  0  0  0  0
  180.2500  178.4070  141.7960 C   0  0  1  0  0  3  0  0  0  0  0  0
  180.8680  177.8440  140.5540 C   0  0  1  0  0  3  0  0  0  0  0  0
  180.0170  176.3130  140.0700 S   0  0  0  0  0  1  0  0  0  0  0  0
  179.9830  180.0100  140.0730 O   0  0  0  0  0  0  0  0  0  0  0  0
  181.9880  179.3420  138.9320 C   0  0  0  0  0  2  0  0  0  0  0  0
  181.7820  178.0460  135.4400 C   0  0  0  0  0  2  0  0  0  0  0  0
  180.5680  179.9010  137.1850 C   0  0  0  0  0  2  0  0  0  0  0  0
  180.3080  179.8720  135.6830 C   0  0  0  0  0  2  0  0  0  0  0  0
  180.4160  178.4990  135.2040 N   0  0  0  0  0  2  0  0  0  0  0  0
  182.0950  178.0590  136.9380 C   0  0  2  0  0  3  0  0  0  0  0  0
  181.9200  179.4200  137.4790 N   0  0  0  0  0  0  0  0  0  0  0  0
  183.9450  176.8990  135.9640 O   0  0  0  0  0  1  0  0  0  0  0  0
  183.5380  177.5980  137.0980 C   0  0  0  0  0  2  0  0  0  0  0  0
  192.7890  177.2530  139.1260 C   0  0  0  0  0  2  0  0  0  0  0  0
  192.6020  176.5220  137.8100 C   0  0  0  0  0  2  0  0  0  0  0  0
  194.5540  176.6710  136.3460 N   0  0  0  0  0  1  0  0  0  0  0  0
  193.9150  175.8800  137.3890 C   0  0  2  0  0  3  0  0  0  0  0  0
  193.6870  174.4390  136.9320 C   0  0  2  0  0  3  0  0  0  0  0  0
  194.6660  172.1320  137.2130 N   0  0  0  0  0  1  0  0  0  0  0  0
  195.4850  173.9260  138.4340 O   0  0  0  0  0  0  0  0  0  0  0  0
  194.6670  173.5080  137.5730 C   0  0  0  0  0  0  0  0  0  0  0  0
  193.7360  174.3310  135.5320 O   0  0  0  0  0  0  0  0  0  0  0  0
  192.6100  173.7300  135.1940 O   0  0  0  0  0  0  0  0  0  0  0  0
  191.7780  174.7590  134.7370 C   0  0  0  0  0  2  0  0  0  0  0  0
  189.5590  175.4970  134.6960 C   0  0  0  0  0  2  0  0  0  0  0  0
  188.4280  175.3030  135.6720 C   0  0  0  0  0  2  0  0  0  0  0  0
  190.1580  173.7040  136.0680 C   0  0  0  0  0  2  0  0  0  0  0  0
  190.3950  174.3080  134.7600 N   0  0  0  0  0  0  0  0  0  0  0  0
  189.0320  174.4530  136.7520 C   0  0  0  0  0  2  0  0  0  0  0  0
  1  6  1  0  0  0  0
  1 20  1  0  0  0  0
  2 10  2  0  0  0  0
  3 17  1  0  0  0  0
  4 11  1  6  0  0  0
  4 13  1  0  0  0  0
  4  2  1  0  0  0  0
  6  9  2  0  0  0  0
  7  6  1  0  0  0  0
  8 22  1  1  0  0  0
  8 16  1  0  0  0  0
  9  5  1  0  0  0  0
 10 18  1  0  0  0  0
 11  8  1  0  0  0  0
 12 15  1  0  0  0  0
 13 21  1  6  0  0  0
 13 14  1  0  0  0  0
 14 18  2  0  0  0  0
 15 11  2  0  0  0  0
 16  2  1  0  0  0  0
 17 12  1  0  0  0  0
 19  5  1  6  0  0  0
 19 15  1  0  0  0  0
 20  3  1  6  0  0  0
 20 19  1  0  0  0  0
 23 22  1  0  0  0  0
 24 23  1  0  0  0  0
 25 26  1  0  0  0  0
 25 24  1  0  0  0  0
 27 33  1  1  0  0  0
 27 32  1  0  0  0  0
 27 30  1  0  0  0  0
 28 29  1  0  0  0  0
 29 26  1  1  0  0  0
 30 31  1  6  0  0  0
 30 29  1  0  0  0  0
 32 28  1  0  0  0  0
 34 38  1  0  0  0  0
 35 39  1  0  0  0  0
 36 35  1  0  0  0  0
 37 34  1  0  0  0  0
 37 36  1  0  0  0  0
 38 41  1  6  0  0  0
 38 39  1  0  0  0  0
 39 33  1  0  0  0  0
 40 41  1  0  0  0  0
 42  7  1  0  0  0  0
 43 42  1  0  0  0  0
 45 44  1  6  0  0  0
 45 43  1  0  0  0  0
 46 50  1  6  0  0  0
 46 45  1  0  0  0  0
 46 49  1  0  0  0  0
 47 49  1  0  0  0  0
 49 48  2  0  0  0  0
 51 50  1  0  0  0  0
 52 56  1  0  0  0  0
 52 51  1  0  0  0  0
 53 56  1  0  0  0  0
 53 54  1  0  0  0  0
 54 57  1  0  0  0  0
 55 57  1  0  0  0  0
 56 55  1  0  0  0  0
M  END
>  <MODEL>
9

>  <REMARK>
 VINA RESULT:      -6.7      2.723      8.110
  Name = 
  18 active torsions:
  status: ('A' for Active; 'I' for Inactive)
    1  A    between atoms: C_6  and  C_28
    2  A    between atoms: C_10  and  C_14
    3  A    between atoms: C_10  and  C_24
    4  A    between atoms: C_12  and  C_18
    5  A    between atoms: C_12  and  C_20
    6  A    between atoms: C_14  and  C_53
    7  A    between atoms: O_15  and  O_19
    8  A    between atoms: O_15  and  C_23
    9  A    between atoms: C_18  and  C_23
   10  A    between atoms: O_19  and  C_42
   11  A    between atoms: C_20  and  N_30
   12  A    between atoms: C_22  and  C_57
   13  A    between atoms: C_23  and  C_56
   14  A    between atoms: C_24  and  C_57
   15  A    between atoms: C_28  and  N_38
   16  A    between atoms: C_31  and  C_53
   17  A    between atoms: C_35  and  C_41
   18  A    between atoms: C_42  and  N_49
                            x       y       z     vdW  Elec       q    Type
                         _______ _______ _______ _____ _____    ______ ____

>  <TORSDO>
F 18

$$$$
