=
 OpenBabel10232408233D

 30 34  0  0  1  0  0  0  0  0999 V2000
  186.9260  178.0530  142.9380 C   0  0  0  0  0  0  0  0  0  0  0  0
  184.4300  178.8630  139.8190 C   0  0  0  0  0  3  0  0  0  0  0  0
  183.8220  178.6890  141.0350 N   0  0  0  0  0  0  0  0  0  0  0  0
  186.7680  177.7890  144.3980 C   0  0  0  0  0  1  0  0  0  0  0  0
  186.5100  178.4860  140.8160 C   0  0  0  0  0  0  0  0  0  0  0  0
  187.8480  178.3500  140.8960 N   0  0  0  0  0  0  0  0  0  0  0  0
  185.9210  178.3110  142.0330 C   0  0  0  0  0  0  0  0  0  0  0  0
  185.7890  178.7600  139.7010 N   0  0  0  0  0  0  0  0  0  0  0  0
  188.1130  178.0880  142.2010 C   0  0  0  0  0  0  0  0  0  0  0  0
  184.5430  178.4120  142.1610 C   0  0  0  0  0  3  0  0  0  0  0  0
  188.9360  177.5800  136.4620 C   0  0  0  0  0  2  0  0  0  0  0  0
  188.8280  178.4620  139.8180 C   0  0  2  0  0  3  0  0  0  0  0  0
  190.0910  177.5560  137.3710 N   0  0  1  0  0  0  0  0  0  0  0  0
  190.8170  175.4750  138.4080 C   0  0  0  0  0  1  0  0  0  0  0  0
  189.1570  178.7190  137.3430 C   0  0  2  0  0  3  0  0  0  0  0  0
  188.1330  178.7200  138.4820 C   0  0  0  0  0  2  0  0  0  0  0  0
  189.7450  177.2330  139.7900 C   0  0  0  0  0  2  0  0  0  0  0  0
  189.7750  176.5740  138.4130 C   0  0  1  0  0  3  0  0  0  0  0  0
  191.6300  177.7720  144.6120 C   0  0  0  0  0  2  0  0  0  0  0  0
  191.3680  178.8100  143.5100 C   0  0  0  0  0  2  0  0  0  0  0  0
  190.3810  176.9400  144.9450 C   0  0  2  0  0  3  0  0  0  0  0  0
  190.0290  175.4330  142.9800 C   0  0  0  0  0  1  0  0  0  0  0  0
  189.4930  177.8580  142.7340 C   0  0  1  0  0  3  0  0  0  0  0  0
  189.9910  179.0280  143.3360 O   0  0  0  0  0  0  0  0  0  0  0  0
  189.5180  176.6630  143.7040 C   0  0  2  0  0  3  0  0  0  0  0  0
  189.6200  177.6130  145.9030 O   0  0  0  0  0  0  0  0  0  0  0  0
  189.8670  176.9380  147.0990 C   0  0  0  0  0  2  0  0  0  0  0  0
  188.5730  176.7680  147.8760 C   0  0  0  0  0  2  0  0  0  0  0  0
  188.2000  178.0660  148.5660 C   0  0  0  0  0  2  0  0  0  0  0  0
  186.9720  178.6550  147.9050 C   0  0  0  0  0  1  0  0  0  0  0  0
  1  4  1  0  0  0  0
  2  3  1  0  0  0  0
  3 10  2  0  0  0  0
  5  6  1  0  0  0  0
  5  7  2  0  0  0  0
  6  9  1  0  0  0  0
  7 10  1  0  0  0  0
  7  1  1  0  0  0  0
  8  2  2  0  0  0  0
  8  5  1  0  0  0  0
  9  1  2  0  0  0  0
 12 16  1  6  0  0  0
 12  6  1  0  0  0  0
 13 11  1  6  0  0  0
 13 18  1  0  0  0  0
 15 11  1  6  0  0  0
 15 13  1  0  0  0  0
 15 16  1  0  0  0  0
 17 12  1  0  0  0  0
 18 14  1  1  0  0  0
 18 17  1  0  0  0  0
 19 21  1  0  0  0  0
 20 19  1  0  0  0  0
 21 26  1  1  0  0  0
 23  9  1  1  0  0  0
 23 24  1  0  0  0  0
 23 25  1  0  0  0  0
 24 20  1  0  0  0  0
 25 22  1  6  0  0  0
 25 21  1  0  0  0  0
 26 27  1  0  0  0  0
 27 28  1  0  0  0  0
 28 29  1  0  0  0  0
 30 29  1  0  0  0  0
M  END
>  <MODEL>
1

>  <REMARK>
 VINA RESULT:      -8.5      0.000      0.000
  Name = 
  6 active torsions:
  status: ('A' for Active; 'I' for Inactive)
    1  A    between atoms: C_5  and  O_18
    2  A    between atoms: C_7  and  N_15
    3  A    between atoms: C_8  and  C_10
    4  A    between atoms: C_8  and  C_17
    5  A    between atoms: C_12  and  C_27
    6  A    between atoms: C_17  and  O_18
                            x       y       z     vdW  Elec       q    Type
                         _______ _______ _______ _____ _____    ______ ____

>  <TORSDO>
F 6

$$$$
=
 OpenBabel10232408233D

 30 34  0  0  1  0  0  0  0  0999 V2000
  186.6220  178.2750  142.6760 C   0  0  0  0  0  0  0  0  0  0  0  0
  183.3740  178.9660  145.0390 C   0  0  0  0  0  3  0  0  0  0  0  0
  183.2300  179.3080  143.7200 N   0  0  0  0  0  0  0  0  0  0  0  0
  186.9620  178.4690  141.2360 C   0  0  0  0  0  1  0  0  0  0  0  0
  185.5570  178.2520  144.6070 C   0  0  0  0  0  0  0  0  0  0  0  0
  186.7760  177.7430  144.8670 N   0  0  0  0  0  0  0  0  0  0  0  0
  185.4300  178.5870  143.2920 C   0  0  0  0  0  0  0  0  0  0  0  0
  184.5480  178.4330  145.4950 N   0  0  0  0  0  0  0  0  0  0  0  0
  187.4370  177.7490  143.6820 C   0  0  0  0  0  0  0  0  0  0  0  0
  184.2430  179.1290  142.8220 C   0  0  0  0  0  3  0  0  0  0  0  0
  189.0280  178.6990  148.7980 C   0  0  0  0  0  2  0  0  0  0  0  0
  187.2990  177.2710  146.1480 C   0  0  2  0  0  3  0  0  0  0  0  0
  189.2000  177.3140  148.3360 N   0  0  1  0  0  0  0  0  0  0  0  0
  191.0460  176.7140  146.8640 C   0  0  0  0  0  1  0  0  0  0  0  0
  187.8410  177.9020  148.5170 C   0  0  2  0  0  3  0  0  0  0  0  0
  187.1860  178.3640  147.2110 C   0  0  0  0  0  2  0  0  0  0  0  0
  188.7260  176.7350  145.9870 C   0  0  0  0  0  2  0  0  0  0  0  0
  189.6990  177.3990  146.9600 C   0  0  1  0  0  3  0  0  0  0  0  0
  191.2020  176.3590  142.2050 C   0  0  0  0  0  2  0  0  0  0  0  0
  190.1690  175.5370  142.9900 C   0  0  0  0  0  2  0  0  0  0  0  0
  190.6620  177.7360  141.7860 C   0  0  2  0  0  3  0  0  0  0  0  0
  190.5220  179.0780  143.8930 C   0  0  0  0  0  1  0  0  0  0  0  0
  188.8460  177.2670  143.5190 C   0  0  1  0  0  3  0  0  0  0  0  0
  188.8730  176.0500  142.8140 O   0  0  0  0  0  0  0  0  0  0  0  0
  189.7190  178.3380  142.8410 C   0  0  2  0  0  3  0  0  0  0  0  0
  189.9860  177.6170  140.5700 O   0  0  0  0  0  0  0  0  0  0  0  0
  190.9100  177.0360  139.7000 C   0  0  0  0  0  2  0  0  0  0  0  0
  190.4120  177.1400  138.2680 C   0  0  0  0  0  2  0  0  0  0  0  0
  189.0840  177.8730  138.2270 C   0  0  0  0  0  2  0  0  0  0  0  0
  189.0560  178.8010  137.0320 C   0  0  0  0  0  1  0  0  0  0  0  0
  1  7  1  0  0  0  0
  1  9  2  0  0  0  0
  2  8  1  0  0  0  0
  3  2  2  0  0  0  0
  4  1  1  0  0  0  0
  5  6  1  0  0  0  0
  5  8  2  0  0  0  0
  7  5  1  0  0  0  0
  9  6  1  0  0  0  0
 10  7  2  0  0  0  0
 10  3  1  0  0  0  0
 12  6  1  6  0  0  0
 12 16  1  0  0  0  0
 13 15  1  0  0  0  0
 13 11  1  1  0  0  0
 15 16  1  6  0  0  0
 15 11  1  0  0  0  0
 17 12  1  0  0  0  0
 17 18  1  0  0  0  0
 18 14  1  1  0  0  0
 18 13  1  0  0  0  0
 19 20  1  0  0  0  0
 21 26  1  6  0  0  0
 21 19  1  0  0  0  0
 21 25  1  0  0  0  0
 23  9  1  6  0  0  0
 24 20  1  0  0  0  0
 24 23  1  0  0  0  0
 25 23  1  0  0  0  0
 25 22  1  1  0  0  0
 27 26  1  0  0  0  0
 28 27  1  0  0  0  0
 29 28  1  0  0  0  0
 30 29  1  0  0  0  0
M  END
>  <MODEL>
2

>  <REMARK>
 VINA RESULT:      -8.3      2.425      6.586
  Name = 
  6 active torsions:
  status: ('A' for Active; 'I' for Inactive)
    1  A    between atoms: C_5  and  O_18
    2  A    between atoms: C_7  and  N_15
    3  A    between atoms: C_8  and  C_10
    4  A    between atoms: C_8  and  C_17
    5  A    between atoms: C_12  and  C_27
    6  A    between atoms: C_17  and  O_18
                            x       y       z     vdW  Elec       q    Type
                         _______ _______ _______ _____ _____    ______ ____

>  <TORSDO>
F 6

$$$$
=
 OpenBabel10232408233D

 30 34  0  0  1  0  0  0  0  0999 V2000
  186.8890  178.0850  142.8630 C   0  0  0  0  0  0  0  0  0  0  0  0
  184.3740  178.8510  139.7480 C   0  0  0  0  0  3  0  0  0  0  0  0
  183.7720  178.6790  140.9670 N   0  0  0  0  0  0  0  0  0  0  0  0
  186.7390  177.8280  144.3240 C   0  0  0  0  0  1  0  0  0  0  0  0
  186.4610  178.5010  140.7390 C   0  0  0  0  0  0  0  0  0  0  0  0
  187.8000  178.3780  140.8150 N   0  0  0  0  0  0  0  0  0  0  0  0
  185.8780  178.3270  141.9590 C   0  0  0  0  0  0  0  0  0  0  0  0
  185.7330  178.7610  139.6250 N   0  0  0  0  0  0  0  0  0  0  0  0
  188.0730  178.1270  142.1200 C   0  0  0  0  0  0  0  0  0  0  0  0
  184.5000  178.4160  142.0920 C   0  0  0  0  0  3  0  0  0  0  0  0
  188.8990  177.5450  136.3950 C   0  0  0  0  0  2  0  0  0  0  0  0
  188.7760  178.4920  139.7330 C   0  0  2  0  0  3  0  0  0  0  0  0
  190.0570  177.5690  137.3020 N   0  0  1  0  0  0  0  0  0  0  0  0
  190.8380  175.5290  138.3790 C   0  0  0  0  0  1  0  0  0  0  0  0
  189.0930  178.7070  137.2520 C   0  0  2  0  0  3  0  0  0  0  0  0
  188.0720  178.7060  138.3930 C   0  0  0  0  0  2  0  0  0  0  0  0
  189.7230  177.2870  139.7280 C   0  0  0  0  0  2  0  0  0  0  0  0
  189.7680  176.6010  138.3640 C   0  0  1  0  0  3  0  0  0  0  0  0
  191.6000  177.8510  144.5230 C   0  0  0  0  0  2  0  0  0  0  0  0
  191.3220  178.8870  143.4240 C   0  0  0  0  0  2  0  0  0  0  0  0
  190.3620  177.0020  144.8560 C   0  0  2  0  0  3  0  0  0  0  0  0
  190.0240  175.4950  142.8890 C   0  0  0  0  0  1  0  0  0  0  0  0
  189.4570  177.9130  142.6500 C   0  0  1  0  0  3  0  0  0  0  0  0
  189.9420  179.0890  143.2520 O   0  0  0  0  0  0  0  0  0  0  0  0
  189.4990  176.7170  143.6170 C   0  0  2  0  0  3  0  0  0  0  0  0
  189.5950  177.6630  145.8180 O   0  0  0  0  0  0  0  0  0  0  0  0
  189.6030  176.8190  146.9290 C   0  0  0  0  0  2  0  0  0  0  0  0
  190.9280  176.9400  147.6630 C   0  0  0  0  0  2  0  0  0  0  0  0
  191.7030  175.6400  147.5620 C   0  0  0  0  0  2  0  0  0  0  0  0
  192.9700  175.7420  148.3850 C   0  0  0  0  0  1  0  0  0  0  0  0
  1  4  1  0  0  0  0
  2  3  1  0  0  0  0
  3 10  2  0  0  0  0
  5  6  1  0  0  0  0
  5  7  2  0  0  0  0
  6  9  1  0  0  0  0
  7 10  1  0  0  0  0
  7  1  1  0  0  0  0
  8  2  2  0  0  0  0
  8  5  1  0  0  0  0
  9  1  2  0  0  0  0
 12 16  1  6  0  0  0
 12  6  1  0  0  0  0
 13 11  1  6  0  0  0
 13 18  1  0  0  0  0
 15 11  1  6  0  0  0
 15 13  1  0  0  0  0
 15 16  1  0  0  0  0
 17 12  1  0  0  0  0
 18 14  1  1  0  0  0
 18 17  1  0  0  0  0
 19 21  1  0  0  0  0
 20 19  1  0  0  0  0
 21 26  1  1  0  0  0
 23  9  1  1  0  0  0
 23 24  1  0  0  0  0
 23 25  1  0  0  0  0
 24 20  1  0  0  0  0
 25 22  1  6  0  0  0
 25 21  1  0  0  0  0
 26 27  1  0  0  0  0
 27 28  1  0  0  0  0
 29 28  1  0  0  0  0
 29 30  1  0  0  0  0
M  END
>  <MODEL>
3

>  <REMARK>
 VINA RESULT:      -8.0      0.812      1.526
  Name = 
  6 active torsions:
  status: ('A' for Active; 'I' for Inactive)
    1  A    between atoms: C_5  and  O_18
    2  A    between atoms: C_7  and  N_15
    3  A    between atoms: C_8  and  C_10
    4  A    between atoms: C_8  and  C_17
    5  A    between atoms: C_12  and  C_27
    6  A    between atoms: C_17  and  O_18
                            x       y       z     vdW  Elec       q    Type
                         _______ _______ _______ _____ _____    ______ ____

>  <TORSDO>
F 6

$$$$
=
 OpenBabel10232408233D

 30 34  0  0  1  0  0  0  0  0999 V2000
  185.4580  178.7790  140.6340 C   0  0  0  0  0  0  0  0  0  0  0  0
  185.7050  178.1470  144.6540 C   0  0  0  0  0  3  0  0  0  0  0  0
  184.4840  178.5650  144.1940 N   0  0  0  0  0  0  0  0  0  0  0  0
  184.3990  179.2240  139.6810 C   0  0  0  0  0  1  0  0  0  0  0  0
  186.5390  178.2130  142.4710 C   0  0  0  0  0  0  0  0  0  0  0  0
  187.4390  178.0930  141.4760 N   0  0  0  0  0  0  0  0  0  0  0  0
  185.3300  178.6290  141.9980 C   0  0  0  0  0  0  0  0  0  0  0  0
  186.7490  177.9690  143.7880 N   0  0  0  0  0  0  0  0  0  0  0  0
  186.7800  178.4350  140.3410 C   0  0  0  0  0  0  0  0  0  0  0  0
  184.2670  178.8140  142.8690 C   0  0  0  0  0  3  0  0  0  0  0  0
  190.7430  175.9140  143.8790 C   0  0  0  0  0  2  0  0  0  0  0  0
  188.8370  177.6770  141.5750 C   0  0  2  0  0  3  0  0  0  0  0  0
  191.2400  177.0290  143.0600 N   0  0  1  0  0  0  0  0  0  0  0  0
  191.3880  179.2800  143.9800 C   0  0  0  0  0  1  0  0  0  0  0  0
  190.4180  175.9390  142.4590 C   0  0  2  0  0  3  0  0  0  0  0  0
  188.9470  176.3130  142.2550 C   0  0  0  0  0  2  0  0  0  0  0  0
  189.6770  178.7600  142.2620 C   0  0  0  0  0  2  0  0  0  0  0  0
  190.4600  178.2070  143.4520 C   0  0  1  0  0  3  0  0  0  0  0  0
  189.3400  177.9110  136.9560 C   0  0  0  0  0  2  0  0  0  0  0  0
  189.1120  179.2140  137.7350 C   0  0  0  0  0  2  0  0  0  0  0  0
  188.7060  176.6940  137.6480 C   0  0  2  0  0  3  0  0  0  0  0  0
  186.2350  176.9640  137.3630 C   0  0  0  0  0  1  0  0  0  0  0  0
  187.4180  178.4460  138.9860 C   0  0  1  0  0  3  0  0  0  0  0  0
  188.7280  178.9520  139.0620 O   0  0  0  0  0  0  0  0  0  0  0  0
  187.3840  177.0450  138.3490 C   0  0  2  0  0  3  0  0  0  0  0  0
  189.6050  176.1720  138.5800 O   0  0  0  0  0  0  0  0  0  0  0  0
  190.6180  175.5880  137.8170 C   0  0  0  0  0  2  0  0  0  0  0  0
  191.9750  175.9280  138.4090 C   0  0  0  0  0  2  0  0  0  0  0  0
  191.8360  177.0300  139.4420 C   0  0  0  0  0  2  0  0  0  0  0  0
  193.2000  177.3740  140.0010 C   0  0  0  0  0  1  0  0  0  0  0  0
  1  7  1  0  0  0  0
  3  2  1  0  0  0  0
  4  1  1  0  0  0  0
  5  8  1  0  0  0  0
  6  5  1  0  0  0  0
  7  5  2  0  0  0  0
  7 10  1  0  0  0  0
  8  2  2  0  0  0  0
  9  1  2  0  0  0  0
  9  6  1  0  0  0  0
 10  3  2  0  0  0  0
 12  6  1  1  0  0  0
 12 16  1  0  0  0  0
 12 17  1  0  0  0  0
 13 18  1  0  0  0  0
 13 11  1  1  0  0  0
 15 16  1  1  0  0  0
 15 13  1  0  0  0  0
 15 11  1  0  0  0  0
 17 18  1  0  0  0  0
 18 14  1  6  0  0  0
 19 21  1  0  0  0  0
 19 20  1  0  0  0  0
 20 24  1  0  0  0  0
 21 25  1  0  0  0  0
 21 26  1  1  0  0  0
 23 24  1  0  0  0  0
 23  9  1  1  0  0  0
 25 22  1  6  0  0  0
 25 23  1  0  0  0  0
 27 28  1  0  0  0  0
 27 26  1  0  0  0  0
 28 29  1  0  0  0  0
 29 30  1  0  0  0  0
M  END
>  <MODEL>
4

>  <REMARK>
 VINA RESULT:      -7.9      2.595      5.959
  Name = 
  6 active torsions:
  status: ('A' for Active; 'I' for Inactive)
    1  A    between atoms: C_5  and  O_18
    2  A    between atoms: C_7  and  N_15
    3  A    between atoms: C_8  and  C_10
    4  A    between atoms: C_8  and  C_17
    5  A    between atoms: C_12  and  C_27
    6  A    between atoms: C_17  and  O_18
                            x       y       z     vdW  Elec       q    Type
                         _______ _______ _______ _____ _____    ______ ____

>  <TORSDO>
F 6

$$$$
=
 OpenBabel10232408233D

 30 34  0  0  1  0  0  0  0  0999 V2000
  187.8950  178.2400  140.5610 C   0  0  0  0  0  0  0  0  0  0  0  0
  187.5230  177.3420  136.6030 C   0  0  0  0  0  3  0  0  0  0  0  0
  186.4800  178.0400  137.1520 N   0  0  0  0  0  0  0  0  0  0  0  0
  187.0700  178.9480  141.5830 C   0  0  0  0  0  1  0  0  0  0  0  0
  188.6040  177.3440  138.6750 C   0  0  0  0  0  0  0  0  0  0  0  0
  189.5710  177.0860  139.5770 N   0  0  0  0  0  0  0  0  0  0  0  0
  187.5750  178.0390  139.2370 C   0  0  0  0  0  0  0  0  0  0  0  0
  188.6000  176.9860  137.3670 N   0  0  0  0  0  0  0  0  0  0  0  0
  189.1440  177.6380  140.7410 C   0  0  0  0  0  0  0  0  0  0  0  0
  186.4780  178.4030  138.4690 C   0  0  0  0  0  3  0  0  0  0  0  0
  193.4290  176.5390  137.0780 C   0  0  0  0  0  2  0  0  0  0  0  0
  190.8260  176.3670  139.3680 C   0  0  2  0  0  3  0  0  0  0  0  0
  192.9440  175.2990  137.7030 N   0  0  1  0  0  0  0  0  0  0  0  0
  191.4000  173.8310  136.5210 C   0  0  0  0  0  1  0  0  0  0  0  0
  193.1810  176.5290  138.5140 C   0  0  2  0  0  3  0  0  0  0  0  0
  191.9060  177.3110  138.8400 C   0  0  0  0  0  2  0  0  0  0  0  0
  190.6070  175.1430  138.4710 C   0  0  0  0  0  2  0  0  0  0  0  0
  191.5530  175.1390  137.2710 C   0  0  1  0  0  3  0  0  0  0  0  0
  190.5400  177.9810  144.7680 C   0  0  0  0  0  2  0  0  0  0  0  0
  191.0830  178.7360  143.5460 C   0  0  0  0  0  2  0  0  0  0  0  0
  189.2500  177.2060  144.4540 C   0  0  2  0  0  3  0  0  0  0  0  0
  189.9480  175.2860  143.0100 C   0  0  0  0  0  1  0  0  0  0  0  0
  189.9210  177.5770  142.0190 C   0  0  1  0  0  3  0  0  0  0  0  0
  190.0980  178.8670  142.5510 O   0  0  0  0  0  0  0  0  0  0  0  0
  189.2470  176.6310  143.0290 C   0  0  2  0  0  3  0  0  0  0  0  0
  188.1520  178.0520  144.6190 O   0  0  0  0  0  0  0  0  0  0  0  0
  187.0700  177.1990  144.8480 C   0  0  0  0  0  2  0  0  0  0  0  0
  186.3300  177.6260  146.1050 C   0  0  0  0  0  2  0  0  0  0  0  0
  185.6070  178.9380  145.8680 C   0  0  0  0  0  2  0  0  0  0  0  0
  184.6560  178.7880  144.7010 C   0  0  0  0  0  1  0  0  0  0  0  0
  1  9  2  0  0  0  0
  1  4  1  0  0  0  0
  2  3  2  0  0  0  0
  2  8  1  0  0  0  0
  3 10  1  0  0  0  0
  5  7  1  0  0  0  0
  5  6  1  0  0  0  0
  6  9  1  0  0  0  0
  7  1  1  0  0  0  0
  8  5  2  0  0  0  0
 10  7  2  0  0  0  0
 12 17  1  6  0  0  0
 12  6  1  0  0  0  0
 13 11  1  6  0  0  0
 13 15  1  0  0  0  0
 15 11  1  6  0  0  0
 15 16  1  0  0  0  0
 16 12  1  0  0  0  0
 18 14  1  1  0  0  0
 18 13  1  0  0  0  0
 18 17  1  0  0  0  0
 20 19  1  0  0  0  0
 21 26  1  6  0  0  0
 21 19  1  0  0  0  0
 23  9  1  6  0  0  0
 23 24  1  0  0  0  0
 23 25  1  0  0  0  0
 24 20  1  0  0  0  0
 25 22  1  1  0  0  0
 25 21  1  0  0  0  0
 26 27  1  0  0  0  0
 27 28  1  0  0  0  0
 29 28  1  0  0  0  0
 30 29  1  0  0  0  0
M  END
>  <MODEL>
5

>  <REMARK>
 VINA RESULT:      -7.7      1.929      3.102
  Name = 
  6 active torsions:
  status: ('A' for Active; 'I' for Inactive)
    1  A    between atoms: C_5  and  O_18
    2  A    between atoms: C_7  and  N_15
    3  A    between atoms: C_8  and  C_10
    4  A    between atoms: C_8  and  C_17
    5  A    between atoms: C_12  and  C_27
    6  A    between atoms: C_17  and  O_18
                            x       y       z     vdW  Elec       q    Type
                         _______ _______ _______ _____ _____    ______ ____

>  <TORSDO>
F 6

$$$$
=
 OpenBabel10232408233D

 30 34  0  0  1  0  0  0  0  0999 V2000
  186.5810  178.1320  144.3850 C   0  0  0  0  0  0  0  0  0  0  0  0
  182.6290  179.0890  144.6680 C   0  0  0  0  0  3  0  0  0  0  0  0
  183.3250  179.0920  145.8490 N   0  0  0  0  0  0  0  0  0  0  0  0
  187.7220  177.9940  145.3360 C   0  0  0  0  0  1  0  0  0  0  0  0
  184.5770  178.4760  143.5320 C   0  0  0  0  0  0  0  0  0  0  0  0
  185.3580  178.1480  142.4850 N   0  0  0  0  0  0  0  0  0  0  0  0
  185.2840  178.4740  144.6970 C   0  0  0  0  0  0  0  0  0  0  0  0
  183.2550  178.7780  143.4930 N   0  0  0  0  0  0  0  0  0  0  0  0
  186.5960  177.9390  143.0010 C   0  0  0  0  0  0  0  0  0  0  0  0
  184.6560  178.7880  145.8940 C   0  0  0  0  0  3  0  0  0  0  0  0
  183.1640  179.9790  138.8420 C   0  0  0  0  0  2  0  0  0  0  0  0
  184.9770  178.0380  141.0780 C   0  0  2  0  0  3  0  0  0  0  0  0
  183.1950  178.5090  138.8410 N   0  0  1  0  0  0  0  0  0  0  0  0
  181.4030  177.2270  139.8810 C   0  0  0  0  0  1  0  0  0  0  0  0
  184.4490  179.3050  138.9760 C   0  0  2  0  0  3  0  0  0  0  0  0
  184.9620  179.4150  140.4150 C   0  0  0  0  0  2  0  0  0  0  0  0
  183.6470  177.2880  140.9340 C   0  0  0  0  0  2  0  0  0  0  0  0
  182.6260  178.0860  140.1250 C   0  0  1  0  0  3  0  0  0  0  0  0
  190.4280  177.6110  141.1320 C   0  0  0  0  0  2  0  0  0  0  0  0
  189.1290  178.0990  140.4730 C   0  0  0  0  0  2  0  0  0  0  0  0
  190.2860  177.4370  142.6530 C   0  0  2  0  0  3  0  0  0  0  0  0
  188.8340  175.4250  142.9720 C   0  0  0  0  0  1  0  0  0  0  0  0
  187.7800  177.5430  142.1750 C   0  0  1  0  0  3  0  0  0  0  0  0
  188.2480  178.6380  141.4260 O   0  0  0  0  0  0  0  0  0  0  0  0
  188.8890  176.9390  143.0550 C   0  0  2  0  0  3  0  0  0  0  0  0
  190.5460  178.6560  143.2830 O   0  0  0  0  0  0  0  0  0  0  0  0
  191.6600  178.4150  144.0900 C   0  0  0  0  0  2  0  0  0  0  0  0
  191.6040  177.0010  144.6420 C   0  0  0  0  0  2  0  0  0  0  0  0
  191.3830  177.0320  146.1430 C   0  0  0  0  0  2  0  0  0  0  0  0
  191.9810  175.7910  146.7680 C   0  0  0  0  0  1  0  0  0  0  0  0
  1  7  1  0  0  0  0
  1  4  1  0  0  0  0
  2  3  1  0  0  0  0
  3 10  2  0  0  0  0
  5  7  2  0  0  0  0
  6  9  1  0  0  0  0
  6  5  1  0  0  0  0
  7 10  1  0  0  0  0
  8  5  1  0  0  0  0
  8  2  2  0  0  0  0
  9  1  2  0  0  0  0
 12 16  1  1  0  0  0
 12  6  1  0  0  0  0
 13 11  1  1  0  0  0
 13 15  1  0  0  0  0
 13 18  1  0  0  0  0
 15 11  1  1  0  0  0
 15 16  1  0  0  0  0
 17 12  1  0  0  0  0
 18 14  1  6  0  0  0
 18 17  1  0  0  0  0
 19 21  1  0  0  0  0
 20 19  1  0  0  0  0
 20 24  1  0  0  0  0
 21 25  1  0  0  0  0
 21 26  1  1  0  0  0
 23  9  1  1  0  0  0
 23 25  1  0  0  0  0
 24 23  1  0  0  0  0
 25 22  1  6  0  0  0
 26 27  1  0  0  0  0
 27 28  1  0  0  0  0
 28 29  1  0  0  0  0
 29 30  1  0  0  0  0
M  END
>  <MODEL>
6

>  <REMARK>
 VINA RESULT:      -7.5      2.421      4.475
  Name = 
  6 active torsions:
  status: ('A' for Active; 'I' for Inactive)
    1  A    between atoms: C_5  and  O_18
    2  A    between atoms: C_7  and  N_15
    3  A    between atoms: C_8  and  C_10
    4  A    between atoms: C_8  and  C_17
    5  A    between atoms: C_12  and  C_27
    6  A    between atoms: C_17  and  O_18
                            x       y       z     vdW  Elec       q    Type
                         _______ _______ _______ _____ _____    ______ ____

>  <TORSDO>
F 6

$$$$
=
 OpenBabel10232408233D

 30 34  0  0  1  0  0  0  0  0999 V2000
  191.5440  177.0050  140.4710 C   0  0  0  0  0  0  0  0  0  0  0  0
  192.5810  176.4220  136.5720 C   0  0  0  0  0  3  0  0  0  0  0  0
  193.6160  176.7050  137.4250 N   0  0  0  0  0  0  0  0  0  0  0  0
  192.2650  177.3290  141.7360 C   0  0  0  0  0  1  0  0  0  0  0  0
  191.0820  176.5660  138.3590 C   0  0  0  0  0  0  0  0  0  0  0  0
  189.8950  176.5370  138.9970 N   0  0  0  0  0  0  0  0  0  0  0  0
  192.1000  176.8480  139.2200 C   0  0  0  0  0  0  0  0  0  0  0  0
  191.2970  176.3520  137.0380 N   0  0  0  0  0  0  0  0  0  0  0  0
  190.1720  176.8020  140.2990 C   0  0  0  0  0  0  0  0  0  0  0  0
  193.4050  176.9230  138.7560 C   0  0  0  0  0  3  0  0  0  0  0  0
  187.3800  174.9340  135.4560 C   0  0  0  0  0  2  0  0  0  0  0  0
  188.5760  176.2740  138.4270 C   0  0  2  0  0  3  0  0  0  0  0  0
  186.7240  176.0110  136.2130 N   0  0  1  0  0  0  0  0  0  0  0  0
  187.0190  178.3420  135.5700 C   0  0  0  0  0  1  0  0  0  0  0  0
  187.2430  174.7930  136.9000 C   0  0  2  0  0  3  0  0  0  0  0  0
  188.5970  174.9980  137.5860 C   0  0  0  0  0  2  0  0  0  0  0  0
  188.0660  177.4950  137.6520 C   0  0  0  0  0  2  0  0  0  0  0  0
  187.6630  177.1370  136.2230 C   0  0  1  0  0  3  0  0  0  0  0  0
  187.9990  177.2460  143.9550 C   0  0  0  0  0  2  0  0  0  0  0  0
  188.2960  175.9290  143.2230 C   0  0  0  0  0  2  0  0  0  0  0  0
  188.7610  178.4380  143.3520 C   0  0  2  0  0  3  0  0  0  0  0  0
  187.6730  178.8920  141.1460 C   0  0  0  0  0  1  0  0  0  0  0  0
  189.1250  176.8740  141.3670 C   0  0  1  0  0  3  0  0  0  0  0  0
  189.4600  176.0320  142.4440 O   0  0  0  0  0  0  0  0  0  0  0  0
  188.9050  178.3260  141.8260 C   0  0  2  0  0  3  0  0  0  0  0  0
  190.0270  178.5180  143.9360 O   0  0  0  0  0  0  0  0  0  0  0  0
  189.8620  178.0160  145.2280 C   0  0  0  0  0  2  0  0  0  0  0  0
  191.1050  177.2510  145.6510 C   0  0  0  0  0  2  0  0  0  0  0  0
  190.9290  176.6990  147.0520 C   0  0  0  0  0  2  0  0  0  0  0  0
  192.0660  175.7500  147.3680 C   0  0  0  0  0  1  0  0  0  0  0  0
  1  4  1  0  0  0  0
  2  8  2  0  0  0  0
  2  3  1  0  0  0  0
  3 10  2  0  0  0  0
  5  6  1  0  0  0  0
  5  7  2  0  0  0  0
  6  9  1  0  0  0  0
  7  1  1  0  0  0  0
  8  5  1  0  0  0  0
  9  1  2  0  0  0  0
 10  7  1  0  0  0  0
 12 16  1  6  0  0  0
 12  6  1  0  0  0  0
 13 11  1  6  0  0  0
 13 18  1  0  0  0  0
 13 15  1  0  0  0  0
 15 11  1  6  0  0  0
 15 16  1  0  0  0  0
 17 12  1  0  0  0  0
 18 14  1  1  0  0  0
 18 17  1  0  0  0  0
 20 19  1  0  0  0  0
 21 26  1  1  0  0  0
 21 19  1  0  0  0  0
 23  9  1  6  0  0  0
 23 25  1  0  0  0  0
 23 24  1  0  0  0  0
 24 20  1  0  0  0  0
 25 22  1  6  0  0  0
 25 21  1  0  0  0  0
 26 27  1  0  0  0  0
 27 28  1  0  0  0  0
 28 29  1  0  0  0  0
 29 30  1  0  0  0  0
M  END
>  <MODEL>
7

>  <REMARK>
 VINA RESULT:      -7.0      2.435      5.027
  Name = 
  6 active torsions:
  status: ('A' for Active; 'I' for Inactive)
    1  A    between atoms: C_5  and  O_18
    2  A    between atoms: C_7  and  N_15
    3  A    between atoms: C_8  and  C_10
    4  A    between atoms: C_8  and  C_17
    5  A    between atoms: C_12  and  C_27
    6  A    between atoms: C_17  and  O_18
                            x       y       z     vdW  Elec       q    Type
                         _______ _______ _______ _____ _____    ______ ____

>  <TORSDO>
F 6

$$$$
=
 OpenBabel10232408233D

 30 34  0  0  1  0  0  0  0  0999 V2000
  184.0810  178.4420  143.5590 C   0  0  0  0  0  0  0  0  0  0  0  0
  186.4290  178.4460  146.8910 C   0  0  0  0  0  3  0  0  0  0  0  0
  185.1200  178.8010  147.0890 N   0  0  0  0  0  0  0  0  0  0  0  0
  182.6520  178.7430  143.2530 C   0  0  0  0  0  1  0  0  0  0  0  0
  185.9980  178.1590  144.6120 C   0  0  0  0  0  0  0  0  0  0  0  0
  186.2550  177.8730  143.3210 N   0  0  0  0  0  0  0  0  0  0  0  0
  184.6930  178.5090  144.7920 C   0  0  0  0  0  0  0  0  0  0  0  0
  186.8800  178.1220  145.6420 N   0  0  0  0  0  0  0  0  0  0  0  0
  185.0780  178.0400  142.6670 C   0  0  0  0  0  0  0  0  0  0  0  0
  184.2280  178.8410  146.0560 C   0  0  0  0  0  3  0  0  0  0  0  0
  190.3920  175.8660  143.8640 C   0  0  0  0  0  2  0  0  0  0  0  0
  187.5260  177.4620  142.7280 C   0  0  2  0  0  3  0  0  0  0  0  0
  190.3710  176.9170  142.8360 N   0  0  1  0  0  0  0  0  0  0  0  0
  190.8840  179.2290  143.4100 C   0  0  0  0  0  1  0  0  0  0  0  0
  189.3960  175.7880  142.8040 C   0  0  2  0  0  3  0  0  0  0  0  0
  188.0100  176.1500  143.3460 C   0  0  0  0  0  2  0  0  0  0  0  0
  188.5600  178.5900  142.8270 C   0  0  0  0  0  2  0  0  0  0  0  0
  189.8530  178.1220  143.4920 C   0  0  1  0  0  3  0  0  0  0  0  0
  183.8750  178.1710  138.5650 C   0  0  0  0  0  2  0  0  0  0  0  0
  183.5960  177.0370  139.5630 C   0  0  0  0  0  2  0  0  0  0  0  0
  184.4710  179.4160  139.2420 C   0  0  2  0  0  3  0  0  0  0  0  0
  186.8080  178.7880  139.8780 C   0  0  0  0  0  1  0  0  0  0  0  0
  184.9150  177.8300  141.1930 C   0  0  1  0  0  3  0  0  0  0  0  0
  183.5790  177.5160  140.8840 O   0  0  0  0  0  0  0  0  0  0  0  0
  185.4110  179.0550  140.4040 C   0  0  2  0  0  3  0  0  0  0  0  0
  183.4350  180.2250  139.7130 O   0  0  0  0  0  0  0  0  0  0  0  0
  182.4740  180.2080  138.7010 C   0  0  0  0  0  2  0  0  0  0  0  0
  181.1620  180.7700  139.2210 C   0  0  0  0  0  2  0  0  0  0  0  0
  180.6000  179.8700  140.3060 C   0  0  0  0  0  2  0  0  0  0  0  0
  180.2290  178.5290  139.7090 C   0  0  0  0  0  1  0  0  0  0  0  0
  1  7  1  0  0  0  0
  2  3  1  0  0  0  0
  4  1  1  0  0  0  0
  5  7  2  0  0  0  0
  5  8  1  0  0  0  0
  6  5  1  0  0  0  0
  7 10  1  0  0  0  0
  8  2  2  0  0  0  0
  9  6  1  0  0  0  0
  9  1  2  0  0  0  0
 10  3  2  0  0  0  0
 12 17  1  1  0  0  0
 12  6  1  0  0  0  0
 12 16  1  0  0  0  0
 13 18  1  0  0  0  0
 13 11  1  1  0  0  0
 15 13  1  0  0  0  0
 15 16  1  1  0  0  0
 15 11  1  0  0  0  0
 17 18  1  0  0  0  0
 18 14  1  6  0  0  0
 19 21  1  0  0  0  0
 19 20  1  0  0  0  0
 20 24  1  0  0  0  0
 21 26  1  1  0  0  0
 21 25  1  0  0  0  0
 23  9  1  1  0  0  0
 24 23  1  0  0  0  0
 25 22  1  6  0  0  0
 25 23  1  0  0  0  0
 27 28  1  0  0  0  0
 27 26  1  0  0  0  0
 28 29  1  0  0  0  0
 30 29  1  0  0  0  0
M  END
>  <MODEL>
8

>  <REMARK>
 VINA RESULT:      -6.9      3.189      6.973
  Name = 
  6 active torsions:
  status: ('A' for Active; 'I' for Inactive)
    1  A    between atoms: C_5  and  O_18
    2  A    between atoms: C_7  and  N_15
    3  A    between atoms: C_8  and  C_10
    4  A    between atoms: C_8  and  C_17
    5  A    between atoms: C_12  and  C_27
    6  A    between atoms: C_17  and  O_18
                            x       y       z     vdW  Elec       q    Type
                         _______ _______ _______ _____ _____    ______ ____

>  <TORSDO>
F 6

$$$$
=
 OpenBabel10232408233D

 30 34  0  0  1  0  0  0  0  0999 V2000
  186.7190  178.0060  143.2000 C   0  0  0  0  0  0  0  0  0  0  0  0
  184.4090  179.1630  140.0470 C   0  0  0  0  0  3  0  0  0  0  0  0
  183.7920  179.1780  141.2710 N   0  0  0  0  0  0  0  0  0  0  0  0
  186.5260  177.8500  144.6710 C   0  0  0  0  0  1  0  0  0  0  0  0
  186.3780  178.4130  141.0600 C   0  0  0  0  0  0  0  0  0  0  0  0
  187.6600  178.0070  141.1450 N   0  0  0  0  0  0  0  0  0  0  0  0
  185.7780  178.4220  142.2840 C   0  0  0  0  0  0  0  0  0  0  0  0
  185.7160  178.7770  139.9330 N   0  0  0  0  0  0  0  0  0  0  0  0
  187.8790  177.7590  142.4610 C   0  0  0  0  0  0  0  0  0  0  0  0
  184.4530  178.8110  142.4080 C   0  0  0  0  0  3  0  0  0  0  0  0
  188.7740  178.7910  136.7200 C   0  0  0  0  0  2  0  0  0  0  0  0
  188.6300  177.8620  140.0620 C   0  0  2  0  0  3  0  0  0  0  0  0
  189.3630  177.5630  137.2730 N   0  0  1  0  0  0  0  0  0  0  0  0
  188.1930  175.4330  137.1000 C   0  0  0  0  0  1  0  0  0  0  0  0
  189.5420  178.8780  137.9550 C   0  0  2  0  0  3  0  0  0  0  0  0
  188.6080  179.0890  139.1500 C   0  0  0  0  0  2  0  0  0  0  0  0
  188.4050  176.5480  139.3050 C   0  0  0  0  0  2  0  0  0  0  0  0
  188.2470  176.7740  137.8030 C   0  0  1  0  0  3  0  0  0  0  0  0
  191.8360  176.2300  143.0000 C   0  0  0  0  0  2  0  0  0  0  0  0
  190.5230  175.5040  143.3300 C   0  0  0  0  0  2  0  0  0  0  0  0
  191.6060  177.5370  142.2250 C   0  0  2  0  0  3  0  0  0  0  0  0
  190.6080  179.1340  143.8720 C   0  0  0  0  0  1  0  0  0  0  0  0
  189.1880  177.2750  143.0030 C   0  0  1  0  0  3  0  0  0  0  0  0
  189.4670  175.9780  142.5340 O   0  0  0  0  0  0  0  0  0  0  0  0
  190.3230  178.2590  142.6670 C   0  0  2  0  0  3  0  0  0  0  0  0
  191.5370  177.2580  140.8580 O   0  0  0  0  0  0  0  0  0  0  0  0
  192.7700  177.6630  140.3450 C   0  0  0  0  0  2  0  0  0  0  0  0
  193.1680  176.7690  139.1830 C   0  0  0  0  0  2  0  0  0  0  0  0
  191.9320  176.2230  138.4940 C   0  0  0  0  0  2  0  0  0  0  0  0
  192.2940  174.9730  137.7210 C   0  0  0  0  0  1  0  0  0  0  0  0
  1  4  1  0  0  0  0
  2  3  1  0  0  0  0
  3 10  2  0  0  0  0
  5  6  1  0  0  0  0
  5  7  2  0  0  0  0
  6  9  1  0  0  0  0
  7 10  1  0  0  0  0
  7  1  1  0  0  0  0
  8  2  2  0  0  0  0
  8  5  1  0  0  0  0
  9  1  2  0  0  0  0
 12 16  1  6  0  0  0
 12  6  1  0  0  0  0
 13 11  1  6  0  0  0
 13 18  1  0  0  0  0
 13 15  1  0  0  0  0
 15 11  1  6  0  0  0
 15 16  1  0  0  0  0
 17 12  1  0  0  0  0
 18 14  1  6  0  0  0
 18 17  1  0  0  0  0
 19 20  1  0  0  0  0
 21 26  1  6  0  0  0
 21 25  1  0  0  0  0
 21 19  1  0  0  0  0
 23  9  1  6  0  0  0
 24 23  1  0  0  0  0
 24 20  1  0  0  0  0
 25 23  1  0  0  0  0
 25 22  1  1  0  0  0
 27 26  1  0  0  0  0
 28 27  1  0  0  0  0
 29 28  1  0  0  0  0
 30 29  1  0  0  0  0
M  END
>  <MODEL>
9

>  <REMARK>
 VINA RESULT:      -6.8      1.893      4.164
  Name = 
  6 active torsions:
  status: ('A' for Active; 'I' for Inactive)
    1  A    between atoms: C_5  and  O_18
    2  A    between atoms: C_7  and  N_15
    3  A    between atoms: C_8  and  C_10
    4  A    between atoms: C_8  and  C_17
    5  A    between atoms: C_12  and  C_27
    6  A    between atoms: C_17  and  O_18
                            x       y       z     vdW  Elec       q    Type
                         _______ _______ _______ _____ _____    ______ ____

>  <TORSDO>
F 6

$$$$
