=
 OpenBabel10232408363D

 28 29  0  0  1  0  0  0  0  0999 V2000
  190.7140  178.4020  144.0260 C   0  0  1  0  0  3  0  0  0  0  0  0
  189.2460  178.3400  144.3590 C   0  0  0  0  0  3  0  0  0  0  0  0
  191.0450  176.6560  145.7950 C   0  0  2  0  0  3  0  0  0  0  0  0
  191.6030  177.9360  145.1810 C   0  0  0  0  0  2  0  0  0  0  0  0
  189.6500  176.9170  146.3560 C   0  0  0  0  0  2  0  0  0  0  0  0
  188.7470  177.6120  145.3730 C   0  0  0  0  0  0  0  0  0  0  0  0
  192.5860  175.0820  146.6950 O   0  0  0  0  0  0  0  0  0  0  0  0
  192.1300  176.8800  148.0390 O   0  0  0  0  0  1  0  0  0  0  0  0
  191.9550  176.1570  146.8650 C   0  0  0  0  0  0  0  0  0  0  0  0
  192.1430  177.5920  142.3170 O   0  0  0  0  0  0  0  0  0  0  0  0
  191.0080  177.6330  142.7710 C   0  0  0  0  0  0  0  0  0  0  0  0
  190.0520  175.5360  142.2050 O   0  0  0  0  0  1  0  0  0  0  0  0
  189.8910  176.9170  142.0780 C   0  0  2  0  0  3  0  0  0  0  0  0
  188.7460  179.1830  137.9150 N   0  0  0  0  0  1  0  0  0  0  0  0
  189.3140  178.2620  138.8360 C   0  0  0  0  0  0  0  0  0  0  0  0
  190.0670  177.2130  138.4510 N   0  0  0  0  0  0  0  0  0  0  0  0
  190.3950  176.5940  139.6000 C   0  0  0  0  0  2  0  0  0  0  0  0
  189.8270  177.3050  140.6360 C   0  0  0  0  0  0  0  0  0  0  0  0
  189.1310  178.3560  140.1660 N   0  0  0  0  0  0  0  0  0  0  0  0
  187.3380  177.5860  145.6180 N   0  0  0  0  0  2  0  0  0  0  0  0
  186.3300  177.8100  144.5890 C   0  0  0  0  0  2  0  0  0  0  0  0
  185.3400  178.8840  145.0330 C   0  0  2  0  0  3  0  0  0  0  0  0
  184.6960  178.5160  146.3600 C   0  0  0  0  0  1  0  0  0  0  0  0
  184.2590  179.1360  143.9790 C   0  0  2  0  0  3  0  0  0  0  0  0
  182.1120  179.0630  143.4330 C   0  0  0  0  0  1  0  0  0  0  0  0
  183.0280  178.6100  144.3840 O   0  0  0  0  0  0  0  0  0  0  0  0
  185.2220  179.5310  141.8250 O   0  0  0  0  0  1  0  0  0  0  0  0
  184.6540  178.5440  142.6330 C   0  0  0  0  0  2  0  0  0  0  0  0
  1 11  1  6  0  0  0
  1  2  1  0  0  0  0
  1  4  1  0  0  0  0
  2  6  2  0  0  0  0
  3  5  1  0  0  0  0
  3  9  1  1  0  0  0
  4  3  1  0  0  0  0
  6 20  1  0  0  0  0
  6  5  1  0  0  0  0
  7  9  2  0  0  0  0
  9  8  1  0  0  0  0
 10 11  2  0  0  0  0
 13 12  1  6  0  0  0
 13 11  1  0  0  0  0
 14 15  1  0  0  0  0
 15 19  1  0  0  0  0
 16 15  2  0  0  0  0
 16 17  1  0  0  0  0
 17 18  1  0  0  0  0
 18 13  1  0  0  0  0
 19 18  2  0  0  0  0
 21 22  1  0  0  0  0
 21 20  1  0  0  0  0
 22 23  1  1  0  0  0
 24 28  1  6  0  0  0
 24 26  1  0  0  0  0
 24 22  1  0  0  0  0
 25 26  1  0  0  0  0
 27 28  1  0  0  0  0
M  END
>  <MODEL>
1

>  <REMARK>
 VINA RESULT:      -7.9      0.000      0.000
  Name = 
  10 active torsions:
  status: ('A' for Active; 'I' for Inactive)
    1  A    between atoms: C_1  and  C_13
    2  A    between atoms: C_4  and  C_11
    3  A    between atoms: C_4  and  O_25
    4  A    between atoms: C_4  and  C_28
    5  A    between atoms: C_11  and  C_24
    6  A    between atoms: C_13  and  C_23
    7  A    between atoms: C_14  and  C_26
    8  A    between atoms: N_15  and  C_22
    9  A    between atoms: N_15  and  C_24
   10  A    between atoms: C_17  and  C_23
                            x       y       z     vdW  Elec       q    Type
                         _______ _______ _______ _____ _____    ______ ____

>  <TORSDO>
F 10

$$$$
=
 OpenBabel10232408363D

 28 29  0  0  1  0  0  0  0  0999 V2000
  189.4880  177.9140  143.4880 C   0  0  1  0  0  3  0  0  0  0  0  0
  187.9840  178.0000  143.4890 C   0  0  0  0  0  3  0  0  0  0  0  0
  189.3010  177.0720  145.8430 C   0  0  2  0  0  3  0  0  0  0  0  0
  190.0840  177.9750  144.8970 C   0  0  0  0  0  2  0  0  0  0  0  0
  187.8520  177.5470  145.9290 C   0  0  0  0  0  2  0  0  0  0  0  0
  187.2300  177.7660  144.5770 C   0  0  0  0  0  0  0  0  0  0  0  0
  190.9450  176.3540  147.4060 O   0  0  0  0  0  0  0  0  0  0  0  0
  189.4230  177.8640  148.2140 O   0  0  0  0  0  1  0  0  0  0  0  0
  189.9310  177.0680  147.1940 C   0  0  0  0  0  0  0  0  0  0  0  0
  189.4640  175.5940  143.0020 O   0  0  0  0  0  0  0  0  0  0  0  0
  189.9510  176.6890  142.7560 C   0  0  0  0  0  0  0  0  0  0  0  0
  191.9180  177.8300  142.0780 O   0  0  0  0  0  1  0  0  0  0  0  0
  191.0210  176.8230  141.7180 C   0  0  2  0  0  3  0  0  0  0  0  0
  188.3360  178.7500  138.1330 N   0  0  0  0  0  1  0  0  0  0  0  0
  189.2510  177.9180  138.8350 C   0  0  0  0  0  0  0  0  0  0  0  0
  189.8840  176.8790  138.2570 N   0  0  0  0  0  0  0  0  0  0  0  0
  190.6360  176.3530  139.2420 C   0  0  0  0  0  2  0  0  0  0  0  0
  190.4270  177.1090  140.3770 C   0  0  0  0  0  0  0  0  0  0  0  0
  189.5440  178.0940  140.1360 N   0  0  0  0  0  0  0  0  0  0  0  0
  185.8030  177.8470  144.4980 N   0  0  0  0  0  2  0  0  0  0  0  0
  185.0370  179.0390  144.8410 C   0  0  0  0  0  2  0  0  0  0  0  0
  183.9770  179.3180  143.7780 C   0  0  2  0  0  3  0  0  0  0  0  0
  182.6350  178.7280  144.1770 C   0  0  0  0  0  1  0  0  0  0  0  0
  184.3940  178.7880  142.4030 C   0  0  2  0  0  3  0  0  0  0  0  0
  185.9760  178.8490  140.8520 C   0  0  0  0  0  1  0  0  0  0  0  0
  185.3180  179.6440  141.7930 O   0  0  0  0  0  0  0  0  0  0  0  0
  183.2350  177.3510  140.8820 O   0  0  0  0  0  1  0  0  0  0  0  0
  183.1850  178.6040  141.4950 C   0  0  0  0  0  2  0  0  0  0  0  0
  1 11  1  1  0  0  0
  1  2  1  0  0  0  0
  1  4  1  0  0  0  0
  2  6  2  0  0  0  0
  3  5  1  0  0  0  0
  3  9  1  1  0  0  0
  4  3  1  0  0  0  0
  6  5  1  0  0  0  0
  9  7  2  0  0  0  0
  9  8  1  0  0  0  0
 11 10  2  0  0  0  0
 13 12  1  1  0  0  0
 13 11  1  0  0  0  0
 14 15  1  0  0  0  0
 15 19  1  0  0  0  0
 16 15  2  0  0  0  0
 16 17  1  0  0  0  0
 17 18  1  0  0  0  0
 18 13  1  0  0  0  0
 19 18  2  0  0  0  0
 20  6  1  0  0  0  0
 20 21  1  0  0  0  0
 22 23  1  1  0  0  0
 22 21  1  0  0  0  0
 24 28  1  6  0  0  0
 24 22  1  0  0  0  0
 25 26  1  0  0  0  0
 26 24  1  0  0  0  0
 27 28  1  0  0  0  0
M  END
>  <MODEL>
2

>  <REMARK>
 VINA RESULT:      -7.3      1.307      2.159
  Name = 
  10 active torsions:
  status: ('A' for Active; 'I' for Inactive)
    1  A    between atoms: C_1  and  C_13
    2  A    between atoms: C_4  and  C_11
    3  A    between atoms: C_4  and  O_25
    4  A    between atoms: C_4  and  C_28
    5  A    between atoms: C_11  and  C_24
    6  A    between atoms: C_13  and  C_23
    7  A    between atoms: C_14  and  C_26
    8  A    between atoms: N_15  and  C_22
    9  A    between atoms: N_15  and  C_24
   10  A    between atoms: C_17  and  C_23
                            x       y       z     vdW  Elec       q    Type
                         _______ _______ _______ _____ _____    ______ ____

>  <TORSDO>
F 10

$$$$
=
 OpenBabel10232408363D

 28 29  0  0  1  0  0  0  0  0999 V2000
  189.7110  176.7860  142.1360 C   0  0  1  0  0  3  0  0  0  0  0  0
  188.4030  177.5060  142.3380 C   0  0  0  0  0  3  0  0  0  0  0  0
  189.7700  177.8250  139.8550 C   0  0  2  0  0  3  0  0  0  0  0  0
  190.0380  176.5570  140.6580 C   0  0  0  0  0  2  0  0  0  0  0  0
  188.2920  178.1980  139.9540 C   0  0  0  0  0  2  0  0  0  0  0  0
  187.7880  178.2080  141.3720 C   0  0  0  0  0  0  0  0  0  0  0  0
  189.5070  178.1920  137.5190 O   0  0  0  0  0  0  0  0  0  0  0  0
  191.2690  176.8490  138.1040 O   0  0  0  0  0  1  0  0  0  0  0  0
  190.1650  177.6290  138.4320 C   0  0  0  0  0  0  0  0  0  0  0  0
  191.9860  177.3570  142.4690 O   0  0  0  0  0  0  0  0  0  0  0  0
  190.8280  177.5030  142.8340 C   0  0  0  0  0  0  0  0  0  0  0  0
  191.3520  179.5140  143.9810 O   0  0  0  0  0  1  0  0  0  0  0  0
  190.5080  178.4010  143.9880 C   0  0  2  0  0  3  0  0  0  0  0  0
  192.2760  175.8280  147.7330 N   0  0  0  0  0  1  0  0  0  0  0  0
  191.3770  176.5320  146.8850 C   0  0  0  0  0  0  0  0  0  0  0  0
  190.0580  176.6290  147.1390 N   0  0  0  0  0  0  0  0  0  0  0  0
  189.5700  177.3500  146.1120 C   0  0  0  0  0  2  0  0  0  0  0  0
  190.6260  177.6650  145.2820 C   0  0  0  0  0  0  0  0  0  0  0  0
  191.7730  177.1430  145.7540 N   0  0  0  0  0  0  0  0  0  0  0  0
  186.5570  178.8850  141.6430 N   0  0  0  0  0  2  0  0  0  0  0  0
  185.7080  178.5980  142.7940 C   0  0  0  0  0  2  0  0  0  0  0  0
  184.3050  178.2020  142.3400 C   0  0  2  0  0  3  0  0  0  0  0  0
  183.9980  178.7690  140.9640 C   0  0  0  0  0  1  0  0  0  0  0  0
  183.2350  178.6460  143.3400 C   0  0  2  0  0  3  0  0  0  0  0  0
  181.0220  178.7810  143.3860 C   0  0  0  0  0  1  0  0  0  0  0  0
  182.1440  179.2280  142.6850 O   0  0  0  0  0  0  0  0  0  0  0  0
  183.7250  179.0790  145.6410 O   0  0  0  0  0  1  0  0  0  0  0  0
  183.8050  179.6240  144.3590 C   0  0  0  0  0  2  0  0  0  0  0  0
  1  2  1  0  0  0  0
  1 11  1  6  0  0  0
  3  9  1  6  0  0  0
  3  5  1  0  0  0  0
  3  4  1  0  0  0  0
  4  1  1  0  0  0  0
  5  6  1  0  0  0  0
  6 20  1  0  0  0  0
  6  2  2  0  0  0  0
  7  9  2  0  0  0  0
  8  9  1  0  0  0  0
 10 11  2  0  0  0  0
 11 13  1  0  0  0  0
 13 12  1  1  0  0  0
 13 18  1  0  0  0  0
 15 16  2  0  0  0  0
 15 14  1  0  0  0  0
 17 16  1  0  0  0  0
 18 19  2  0  0  0  0
 18 17  1  0  0  0  0
 19 15  1  0  0  0  0
 20 21  1  0  0  0  0
 22 23  1  6  0  0  0
 22 21  1  0  0  0  0
 22 24  1  0  0  0  0
 24 28  1  1  0  0  0
 26 24  1  0  0  0  0
 26 25  1  0  0  0  0
 28 27  1  0  0  0  0
M  END
>  <MODEL>
3

>  <REMARK>
 VINA RESULT:      -7.3      2.365      5.692
  Name = 
  10 active torsions:
  status: ('A' for Active; 'I' for Inactive)
    1  A    between atoms: C_1  and  C_13
    2  A    between atoms: C_4  and  C_11
    3  A    between atoms: C_4  and  O_25
    4  A    between atoms: C_4  and  C_28
    5  A    between atoms: C_11  and  C_24
    6  A    between atoms: C_13  and  C_23
    7  A    between atoms: C_14  and  C_26
    8  A    between atoms: N_15  and  C_22
    9  A    between atoms: N_15  and  C_24
   10  A    between atoms: C_17  and  C_23
                            x       y       z     vdW  Elec       q    Type
                         _______ _______ _______ _____ _____    ______ ____

>  <TORSDO>
F 10

$$$$
=
 OpenBabel10232408363D

 28 29  0  0  1  0  0  0  0  0999 V2000
  189.9020  176.7250  141.5610 C   0  0  1  0  0  3  0  0  0  0  0  0
  188.6170  177.2180  142.1720 C   0  0  0  0  0  3  0  0  0  0  0  0
  189.3910  178.2280  139.6200 C   0  0  2  0  0  3  0  0  0  0  0  0
  189.9220  176.8600  140.0360 C   0  0  0  0  0  2  0  0  0  0  0  0
  187.9450  178.3840  140.0830 C   0  0  0  0  0  2  0  0  0  0  0  0
  187.7560  178.0280  141.5340 C   0  0  0  0  0  0  0  0  0  0  0  0
  190.1370  177.5540  137.4630 O   0  0  0  0  0  0  0  0  0  0  0  0
  188.8450  179.4460  137.5030 O   0  0  0  0  0  1  0  0  0  0  0  0
  189.4870  178.3910  138.1410 C   0  0  0  0  0  0  0  0  0  0  0  0
  192.1440  177.4950  141.5760 O   0  0  0  0  0  0  0  0  0  0  0  0
  191.0840  177.4090  142.1810 C   0  0  0  0  0  0  0  0  0  0  0  0
  191.6950  179.1630  143.6590 O   0  0  0  0  0  1  0  0  0  0  0  0
  190.9530  177.9850  143.5560 C   0  0  2  0  0  3  0  0  0  0  0  0
  192.3710  175.9780  147.7680 N   0  0  0  0  0  1  0  0  0  0  0  0
  192.0310  176.1360  146.3960 C   0  0  0  0  0  0  0  0  0  0  0  0
  192.1500  175.1420  145.4950 N   0  0  0  0  0  0  0  0  0  0  0  0
  191.7460  175.6900  144.3340 C   0  0  0  0  0  2  0  0  0  0  0  0
  191.3930  176.9990  144.5890 C   0  0  0  0  0  0  0  0  0  0  0  0
  191.5800  177.2970  145.8870 N   0  0  0  0  0  0  0  0  0  0  0  0
  186.5630  178.4730  142.1860 N   0  0  0  0  0  2  0  0  0  0  0  0
  185.8700  177.7130  143.2200 C   0  0  0  0  0  2  0  0  0  0  0  0
  186.1490  178.3070  144.5980 C   0  0  2  0  0  3  0  0  0  0  0  0
  187.2330  177.5240  145.3200 C   0  0  0  0  0  1  0  0  0  0  0  0
  184.8850  178.3670  145.4600 C   0  0  2  0  0  3  0  0  0  0  0  0
  182.9450  178.9640  144.5710 C   0  0  0  0  0  1  0  0  0  0  0  0
  184.1100  179.4860  145.1370 O   0  0  0  0  0  0  0  0  0  0  0  0
  185.7290  179.6460  147.2970 O   0  0  0  0  0  1  0  0  0  0  0  0
  185.2310  178.3910  146.9430 C   0  0  0  0  0  2  0  0  0  0  0  0
  1  2  1  0  0  0  0
  1 11  1  1  0  0  0
  3  9  1  6  0  0  0
  3  4  1  0  0  0  0
  3  5  1  0  0  0  0
  4  1  1  0  0  0  0
  5  6  1  0  0  0  0
  6  2  2  0  0  0  0
  6 20  1  0  0  0  0
  7  9  2  0  0  0  0
  8  9  1  0  0  0  0
 10 11  2  0  0  0  0
 11 13  1  0  0  0  0
 13 12  1  6  0  0  0
 13 18  1  0  0  0  0
 15 14  1  0  0  0  0
 16 15  2  0  0  0  0
 17 18  1  0  0  0  0
 17 16  1  0  0  0  0
 18 19  2  0  0  0  0
 19 15  1  0  0  0  0
 20 21  1  0  0  0  0
 21 22  1  0  0  0  0
 22 23  1  1  0  0  0
 22 24  1  0  0  0  0
 24 28  1  1  0  0  0
 25 26  1  0  0  0  0
 26 24  1  0  0  0  0
 28 27  1  0  0  0  0
M  END
>  <MODEL>
4

>  <REMARK>
 VINA RESULT:      -7.2      2.666      5.666
  Name = 
  10 active torsions:
  status: ('A' for Active; 'I' for Inactive)
    1  A    between atoms: C_1  and  C_13
    2  A    between atoms: C_4  and  C_11
    3  A    between atoms: C_4  and  O_25
    4  A    between atoms: C_4  and  C_28
    5  A    between atoms: C_11  and  C_24
    6  A    between atoms: C_13  and  C_23
    7  A    between atoms: C_14  and  C_26
    8  A    between atoms: N_15  and  C_22
    9  A    between atoms: N_15  and  C_24
   10  A    between atoms: C_17  and  C_23
                            x       y       z     vdW  Elec       q    Type
                         _______ _______ _______ _____ _____    ______ ____

>  <TORSDO>
F 10

$$$$
=
 OpenBabel10232408363D

 28 29  0  0  1  0  0  0  0  0999 V2000
  189.5060  177.9030  143.5060 C   0  0  1  0  0  3  0  0  0  0  0  0
  188.0040  178.0120  143.5080 C   0  0  0  0  0  3  0  0  0  0  0  0
  189.3090  177.0700  145.8620 C   0  0  2  0  0  3  0  0  0  0  0  0
  190.1050  177.9590  144.9130 C   0  0  0  0  0  2  0  0  0  0  0  0
  187.8670  177.5670  145.9490 C   0  0  0  0  0  2  0  0  0  0  0  0
  187.2470  177.7920  144.5970 C   0  0  0  0  0  0  0  0  0  0  0  0
  189.4050  177.6990  148.1550 O   0  0  0  0  0  1  0  0  0  0  0  0
  191.1010  176.3310  147.4460 O   0  0  0  0  0  0  0  0  0  0  0  0
  189.9400  177.0600  147.2130 C   0  0  0  0  0  0  0  0  0  0  0  0
  189.4730  175.5770  143.0510 O   0  0  0  0  0  0  0  0  0  0  0  0
  189.9500  176.6690  142.7760 C   0  0  0  0  0  0  0  0  0  0  0  0
  191.9380  177.7500  142.0610 O   0  0  0  0  0  1  0  0  0  0  0  0
  190.9880  176.7910  141.7050 C   0  0  2  0  0  3  0  0  0  0  0  0
  187.9210  178.5090  138.3260 N   0  0  0  0  0  1  0  0  0  0  0  0
  189.0260  177.8560  138.9360 C   0  0  0  0  0  0  0  0  0  0  0  0
  189.9460  177.1660  138.2340 N   0  0  0  0  0  0  0  0  0  0  0  0
  190.8010  176.7020  139.1640 C   0  0  0  0  0  2  0  0  0  0  0  0
  190.3600  177.1410  140.3950 C   0  0  0  0  0  0  0  0  0  0  0  0
  189.2320  177.8620  140.2660 N   0  0  0  0  0  0  0  0  0  0  0  0
  185.8220  177.8940  144.5190 N   0  0  0  0  0  2  0  0  0  0  0  0
  185.0750  177.8980  143.2660 C   0  0  0  0  0  2  0  0  0  0  0  0
  184.0450  179.0250  143.2610 C   0  0  2  0  0  3  0  0  0  0  0  0
  183.0260  178.8380  144.3720 C   0  0  0  0  0  1  0  0  0  0  0  0
  183.3320  179.1410  141.9110 C   0  0  2  0  0  3  0  0  0  0  0  0
  181.4000  178.9800  140.8370 C   0  0  0  0  0  1  0  0  0  0  0  0
  182.1010  178.4760  141.9340 O   0  0  0  0  0  0  0  0  0  0  0  0
  184.9090  179.6240  140.1790 O   0  0  0  0  0  1  0  0  0  0  0  0
  184.1940  178.5890  140.7840 C   0  0  0  0  0  2  0  0  0  0  0  0
  1 11  1  1  0  0  0
  1  2  1  0  0  0  0
  1  4  1  0  0  0  0
  2  6  2  0  0  0  0
  3  5  1  0  0  0  0
  3  9  1  1  0  0  0
  4  3  1  0  0  0  0
  6  5  1  0  0  0  0
  9  8  2  0  0  0  0
  9  7  1  0  0  0  0
 11 10  2  0  0  0  0
 13 12  1  1  0  0  0
 13 11  1  0  0  0  0
 14 15  1  0  0  0  0
 15 19  1  0  0  0  0
 16 15  2  0  0  0  0
 16 17  1  0  0  0  0
 17 18  1  0  0  0  0
 18 13  1  0  0  0  0
 19 18  2  0  0  0  0
 20  6  1  0  0  0  0
 21 20  1  0  0  0  0
 22 21  1  0  0  0  0
 22 23  1  1  0  0  0
 24 28  1  6  0  0  0
 24 26  1  0  0  0  0
 24 22  1  0  0  0  0
 25 26  1  0  0  0  0
 27 28  1  0  0  0  0
M  END
>  <MODEL>
5

>  <REMARK>
 VINA RESULT:      -7.1      1.399      2.008
  Name = 
  10 active torsions:
  status: ('A' for Active; 'I' for Inactive)
    1  A    between atoms: C_1  and  C_13
    2  A    between atoms: C_4  and  C_11
    3  A    between atoms: C_4  and  O_25
    4  A    between atoms: C_4  and  C_28
    5  A    between atoms: C_11  and  C_24
    6  A    between atoms: C_13  and  C_23
    7  A    between atoms: C_14  and  C_26
    8  A    between atoms: N_15  and  C_22
    9  A    between atoms: N_15  and  C_24
   10  A    between atoms: C_17  and  C_23
                            x       y       z     vdW  Elec       q    Type
                         _______ _______ _______ _____ _____    ______ ____

>  <TORSDO>
F 10

$$$$
=
 OpenBabel10232408363D

 28 29  0  0  1  0  0  0  0  0999 V2000
  189.4190  176.9510  142.1670 C   0  0  1  0  0  3  0  0  0  0  0  0
  188.0820  177.5210  142.5660 C   0  0  0  0  0  3  0  0  0  0  0  0
  189.1710  178.2370  140.0300 C   0  0  2  0  0  3  0  0  0  0  0  0
  189.6190  176.9180  140.6500 C   0  0  0  0  0  2  0  0  0  0  0  0
  187.6850  178.4580  140.2990 C   0  0  0  0  0  2  0  0  0  0  0  0
  187.3210  178.2650  141.7470 C   0  0  0  0  0  0  0  0  0  0  0  0
  190.0850  177.2850  138.0500 O   0  0  0  0  0  1  0  0  0  0  0  0
  188.9710  179.2650  137.7560 O   0  0  0  0  0  0  0  0  0  0  0  0
  189.4420  178.2370  138.5640 C   0  0  0  0  0  0  0  0  0  0  0  0
  191.6800  177.6130  142.4210 O   0  0  0  0  0  0  0  0  0  0  0  0
  190.5360  177.6870  142.8460 C   0  0  0  0  0  0  0  0  0  0  0  0
  191.0290  179.6610  144.0670 O   0  0  0  0  0  1  0  0  0  0  0  0
  190.2330  178.5150  144.0560 C   0  0  2  0  0  3  0  0  0  0  0  0
  192.2650  175.8050  147.5640 N   0  0  0  0  0  1  0  0  0  0  0  0
  191.3060  176.5310  146.8060 C   0  0  0  0  0  0  0  0  0  0  0  0
  190.0040  176.5960  147.1450 N   0  0  0  0  0  0  0  0  0  0  0  0
  189.4440  177.3550  146.1840 C   0  0  0  0  0  2  0  0  0  0  0  0
  190.4410  177.7230  145.3060 C   0  0  0  0  0  0  0  0  0  0  0  0
  191.6220  177.1990  145.6810 N   0  0  0  0  0  0  0  0  0  0  0  0
  186.0700  178.7900  142.2010 N   0  0  0  0  0  2  0  0  0  0  0  0
  184.8360  178.0160  142.2570 C   0  0  0  0  0  2  0  0  0  0  0  0
  183.6780  178.8090  141.6550 C   0  0  2  0  0  3  0  0  0  0  0  0
  182.4960  178.8560  142.6070 C   0  0  0  0  0  1  0  0  0  0  0  0
  183.2400  178.2410  140.3020 C   0  0  2  0  0  3  0  0  0  0  0  0
  182.0300  176.5040  139.6440 C   0  0  0  0  0  1  0  0  0  0  0  0
  183.1960  176.8430  140.3350 O   0  0  0  0  0  0  0  0  0  0  0  0
  184.4390  180.0630  139.3210 O   0  0  0  0  0  1  0  0  0  0  0  0
  184.1660  178.7010  139.1850 C   0  0  0  0  0  2  0  0  0  0  0  0
  1  2  1  0  0  0  0
  1 11  1  1  0  0  0
  3  9  1  6  0  0  0
  3  5  1  0  0  0  0
  3  4  1  0  0  0  0
  4  1  1  0  0  0  0
  5  6  1  0  0  0  0
  6 20  1  0  0  0  0
  6  2  2  0  0  0  0
  7  9  1  0  0  0  0
  8  9  2  0  0  0  0
 10 11  2  0  0  0  0
 11 13  1  0  0  0  0
 13 12  1  1  0  0  0
 13 18  1  0  0  0  0
 15 16  2  0  0  0  0
 15 14  1  0  0  0  0
 17 16  1  0  0  0  0
 18 19  2  0  0  0  0
 18 17  1  0  0  0  0
 19 15  1  0  0  0  0
 20 21  1  0  0  0  0
 22 21  1  0  0  0  0
 22 23  1  1  0  0  0
 24 28  1  6  0  0  0
 24 26  1  0  0  0  0
 24 22  1  0  0  0  0
 25 26  1  0  0  0  0
 28 27  1  0  0  0  0
M  END
>  <MODEL>
6

>  <REMARK>
 VINA RESULT:      -7.1      2.795      5.826
  Name = 
  10 active torsions:
  status: ('A' for Active; 'I' for Inactive)
    1  A    between atoms: C_1  and  C_13
    2  A    between atoms: C_4  and  C_11
    3  A    between atoms: C_4  and  O_25
    4  A    between atoms: C_4  and  C_28
    5  A    between atoms: C_11  and  C_24
    6  A    between atoms: C_13  and  C_23
    7  A    between atoms: C_14  and  C_26
    8  A    between atoms: N_15  and  C_22
    9  A    between atoms: N_15  and  C_24
   10  A    between atoms: C_17  and  C_23
                            x       y       z     vdW  Elec       q    Type
                         _______ _______ _______ _____ _____    ______ ____

>  <TORSDO>
F 10

$$$$
=
 OpenBabel10232408363D

 28 29  0  0  1  0  0  0  0  0999 V2000
  188.1380  178.7490  141.6920 C   0  0  1  0  0  3  0  0  0  0  0  0
  189.4050  178.6790  142.5050 C   0  0  0  0  0  3  0  0  0  0  0  0
  189.2030  177.0830  140.1500 C   0  0  2  0  0  3  0  0  0  0  0  0
  188.3500  178.3440  140.2310 C   0  0  0  0  0  2  0  0  0  0  0  0
  190.5760  177.3460  140.7650 C   0  0  0  0  0  2  0  0  0  0  0  0
  190.4920  177.9870  142.1240 C   0  0  0  0  0  0  0  0  0  0  0  0
  188.6740  177.2180  137.8340 O   0  0  0  0  0  0  0  0  0  0  0  0
  190.2160  175.6180  138.3910 O   0  0  0  0  0  1  0  0  0  0  0  0
  189.3400  176.6420  138.7330 C   0  0  0  0  0  0  0  0  0  0  0  0
  187.3180  176.9110  142.9430 O   0  0  0  0  0  0  0  0  0  0  0  0
  187.0520  177.9340  142.3290 C   0  0  0  0  0  0  0  0  0  0  0  0
  185.5590  179.5210  141.3880 O   0  0  0  0  0  1  0  0  0  0  0  0
  185.6310  178.3880  142.2000 C   0  0  2  0  0  3  0  0  0  0  0  0
  184.9880  178.7290  147.0220 N   0  0  0  0  0  1  0  0  0  0  0  0
  184.7500  178.7950  145.6220 C   0  0  0  0  0  0  0  0  0  0  0  0
  183.5670  179.1710  145.0990 N   0  0  0  0  0  0  0  0  0  0  0  0
  183.7470  179.0900  143.7670 C   0  0  0  0  0  2  0  0  0  0  0  0
  185.0420  178.6720  143.5440 C   0  0  0  0  0  0  0  0  0  0  0  0
  185.6840  178.4700  144.7090 N   0  0  0  0  0  0  0  0  0  0  0  0
  191.6540  177.9490  142.9580 N   0  0  0  0  0  2  0  0  0  0  0  0
  191.6310  178.1990  144.3950 C   0  0  0  0  0  2  0  0  0  0  0  0
  191.6300  176.8810  145.1670 C   0  0  2  0  0  3  0  0  0  0  0  0
  191.5940  175.6950  144.2190 C   0  0  0  0  0  1  0  0  0  0  0  0
  190.4620  176.7990  146.1530 C   0  0  2  0  0  3  0  0  0  0  0  0
  188.3650  177.5080  146.2710 C   0  0  0  0  0  1  0  0  0  0  0  0
  189.6770  177.9560  146.1020 O   0  0  0  0  0  0  0  0  0  0  0  0
  192.3520  176.5240  147.5930 O   0  0  0  0  0  1  0  0  0  0  0  0
  190.9580  176.5760  147.5760 C   0  0  0  0  0  2  0  0  0  0  0  0
  1 11  1  1  0  0  0
  1  2  1  0  0  0  0
  3  9  1  6  0  0  0
  3  4  1  0  0  0  0
  3  5  1  0  0  0  0
  4  1  1  0  0  0  0
  5  6  1  0  0  0  0
  6  2  2  0  0  0  0
  6 20  1  0  0  0  0
  7  9  2  0  0  0  0
  8  9  1  0  0  0  0
 11 10  2  0  0  0  0
 13 12  1  6  0  0  0
 13 11  1  0  0  0  0
 13 18  1  0  0  0  0
 15 14  1  0  0  0  0
 16 15  2  0  0  0  0
 17 16  1  0  0  0  0
 18 17  1  0  0  0  0
 18 19  2  0  0  0  0
 19 15  1  0  0  0  0
 20 21  1  0  0  0  0
 21 22  1  0  0  0  0
 22 23  1  6  0  0  0
 22 24  1  0  0  0  0
 24 28  1  1  0  0  0
 26 24  1  0  0  0  0
 26 25  1  0  0  0  0
 28 27  1  0  0  0  0
M  END
>  <MODEL>
7

>  <REMARK>
 VINA RESULT:      -6.9      2.339      6.951
  Name = 
  10 active torsions:
  status: ('A' for Active; 'I' for Inactive)
    1  A    between atoms: C_1  and  C_13
    2  A    between atoms: C_4  and  C_11
    3  A    between atoms: C_4  and  O_25
    4  A    between atoms: C_4  and  C_28
    5  A    between atoms: C_11  and  C_24
    6  A    between atoms: C_13  and  C_23
    7  A    between atoms: C_14  and  C_26
    8  A    between atoms: N_15  and  C_22
    9  A    between atoms: N_15  and  C_24
   10  A    between atoms: C_17  and  C_23
                            x       y       z     vdW  Elec       q    Type
                         _______ _______ _______ _____ _____    ______ ____

>  <TORSDO>
F 10

$$$$
=
 OpenBabel10232408363D

 28 29  0  0  1  0  0  0  0  0999 V2000
  188.8390  177.8530  143.4440 C   0  0  1  0  0  3  0  0  0  0  0  0
  187.3460  178.0240  143.3380 C   0  0  0  0  0  3  0  0  0  0  0  0
  188.4430  177.0950  145.8010 C   0  0  2  0  0  3  0  0  0  0  0  0
  189.3410  177.9230  144.8890 C   0  0  0  0  0  2  0  0  0  0  0  0
  187.0220  177.6530  145.7740 C   0  0  0  0  0  2  0  0  0  0  0  0
  186.5070  177.8660  144.3760 C   0  0  0  0  0  0  0  0  0  0  0  0
  190.2060  176.9000  147.3880 O   0  0  0  0  0  0  0  0  0  0  0  0
  188.1380  177.3360  148.2740 O   0  0  0  0  0  1  0  0  0  0  0  0
  188.9780  177.0960  147.1920 C   0  0  0  0  0  0  0  0  0  0  0  0
  188.6540  175.5440  142.9420 O   0  0  0  0  0  0  0  0  0  0  0  0
  189.2790  176.5830  142.7790 C   0  0  0  0  0  0  0  0  0  0  0  0
  191.4690  177.4400  142.4580 O   0  0  0  0  0  1  0  0  0  0  0  0
  190.4980  176.6010  141.9090 C   0  0  2  0  0  3  0  0  0  0  0  0
  188.3250  178.7630  138.1170 N   0  0  0  0  0  1  0  0  0  0  0  0
  189.2020  177.9480  138.8830 C   0  0  0  0  0  0  0  0  0  0  0  0
  190.1060  177.1200  138.3240 N   0  0  0  0  0  0  0  0  0  0  0  0
  190.7150  176.5320  139.3700 C   0  0  0  0  0  2  0  0  0  0  0  0
  190.1530  177.0390  140.5230 C   0  0  0  0  0  0  0  0  0  0  0  0
  189.1870  177.9270  140.2290 N   0  0  0  0  0  0  0  0  0  0  0  0
  185.0970  178.0250  144.1950 N   0  0  0  0  0  2  0  0  0  0  0  0
  184.4770  178.4030  142.9300 C   0  0  0  0  0  2  0  0  0  0  0  0
  183.1230  179.0650  143.1750 C   0  0  2  0  0  3  0  0  0  0  0  0
  182.6590  178.8430  144.6040 C   0  0  0  0  0  1  0  0  0  0  0  0
  182.0580  178.5650  142.1950 C   0  0  2  0  0  3  0  0  0  0  0  0
  181.7430  178.0920  140.0520 C   0  0  0  0  0  1  0  0  0  0  0  0
  182.2940  179.0510  140.9050 O   0  0  0  0  0  0  0  0  0  0  0  0
  180.4410  180.3180  142.3800 O   0  0  0  0  0  1  0  0  0  0  0  0
  180.6610  178.9660  142.6480 C   0  0  0  0  0  2  0  0  0  0  0  0
  1 11  1  1  0  0  0
  1  4  1  0  0  0  0
  2  1  1  0  0  0  0
  2  6  2  0  0  0  0
  3  9  1  1  0  0  0
  4  3  1  0  0  0  0
  5  3  1  0  0  0  0
  6  5  1  0  0  0  0
  9  7  2  0  0  0  0
  9  8  1  0  0  0  0
 11 10  2  0  0  0  0
 13 12  1  1  0  0  0
 13 11  1  0  0  0  0
 14 15  1  0  0  0  0
 15 19  1  0  0  0  0
 16 15  2  0  0  0  0
 16 17  1  0  0  0  0
 17 18  1  0  0  0  0
 18 13  1  0  0  0  0
 19 18  2  0  0  0  0
 20  6  1  0  0  0  0
 21 22  1  0  0  0  0
 21 20  1  0  0  0  0
 22 23  1  1  0  0  0
 24 28  1  1  0  0  0
 24 22  1  0  0  0  0
 25 26  1  0  0  0  0
 26 24  1  0  0  0  0
 27 28  1  0  0  0  0
M  END
>  <MODEL>
8

>  <REMARK>
 VINA RESULT:      -6.9      1.770      2.684
  Name = 
  10 active torsions:
  status: ('A' for Active; 'I' for Inactive)
    1  A    between atoms: C_1  and  C_13
    2  A    between atoms: C_4  and  C_11
    3  A    between atoms: C_4  and  O_25
    4  A    between atoms: C_4  and  C_28
    5  A    between atoms: C_11  and  C_24
    6  A    between atoms: C_13  and  C_23
    7  A    between atoms: C_14  and  C_26
    8  A    between atoms: N_15  and  C_22
    9  A    between atoms: N_15  and  C_24
   10  A    between atoms: C_17  and  C_23
                            x       y       z     vdW  Elec       q    Type
                         _______ _______ _______ _____ _____    ______ ____

>  <TORSDO>
F 10

$$$$
=
 OpenBabel10232408363D

 28 29  0  0  1  0  0  0  0  0999 V2000
  186.7450  177.2190  142.9450 C   0  0  1  0  0  3  0  0  0  0  0  0
  187.6170  176.9190  144.1370 C   0  0  0  0  0  3  0  0  0  0  0  0
  185.3980  178.6780  144.4760 C   0  0  2  0  0  3  0  0  0  0  0  0
  185.3340  177.6610  143.3410 C   0  0  0  0  0  2  0  0  0  0  0  0
  186.0490  178.0440  145.7030 C   0  0  0  0  0  2  0  0  0  0  0  0
  187.3450  177.3490  145.3800 C   0  0  0  0  0  0  0  0  0  0  0  0
  183.6060  179.0870  145.9880 O   0  0  0  0  0  1  0  0  0  0  0  0
  183.2260  179.7400  143.8250 O   0  0  0  0  0  0  0  0  0  0  0  0
  184.0300  179.1690  144.8060 C   0  0  0  0  0  0  0  0  0  0  0  0
  186.7290  179.0700  141.4640 O   0  0  0  0  0  0  0  0  0  0  0  0
  187.3980  178.2290  142.0480 C   0  0  0  0  0  0  0  0  0  0  0  0
  189.4120  179.4830  141.9740 O   0  0  0  0  0  1  0  0  0  0  0  0
  188.8840  178.1940  141.8740 C   0  0  2  0  0  3  0  0  0  0  0  0
  190.8970  175.3440  138.4670 N   0  0  0  0  0  1  0  0  0  0  0  0
  190.1380  176.3730  139.0870 C   0  0  0  0  0  0  0  0  0  0  0  0
  189.4640  177.3070  138.3870 N   0  0  0  0  0  0  0  0  0  0  0  0
  188.8970  178.0870  139.3270 C   0  0  0  0  0  2  0  0  0  0  0  0
  189.2500  177.5820  140.5600 C   0  0  0  0  0  0  0  0  0  0  0  0
  190.0440  176.5050  140.4230 N   0  0  0  0  0  0  0  0  0  0  0  0
  188.2300  177.0420  146.4610 N   0  0  0  0  0  2  0  0  0  0  0  0
  189.5320  177.6730  146.6500 C   0  0  0  0  0  2  0  0  0  0  0  0
  190.6520  176.7270  146.2230 C   0  0  2  0  0  3  0  0  0  0  0  0
  191.6080  176.4610  147.3730 C   0  0  0  0  0  1  0  0  0  0  0  0
  191.4230  177.2640  145.0140 C   0  0  2  0  0  3  0  0  0  0  0  0
  192.0060  179.2100  144.1270 C   0  0  0  0  0  1  0  0  0  0  0  0
  190.9020  178.4910  144.5900 O   0  0  0  0  0  0  0  0  0  0  0  0
  192.0960  175.1120  144.2170 O   0  0  0  0  0  1  0  0  0  0  0  0
  191.4020  176.2700  143.8620 C   0  0  0  0  0  2  0  0  0  0  0  0
  1 11  1  1  0  0  0
  1  4  1  0  0  0  0
  1  2  1  0  0  0  0
  2  6  2  0  0  0  0
  3  9  1  1  0  0  0
  3  5  1  0  0  0  0
  4  3  1  0  0  0  0
  6  5  1  0  0  0  0
  6 20  1  0  0  0  0
  8  9  2  0  0  0  0
  9  7  1  0  0  0  0
 10 11  2  0  0  0  0
 13 12  1  6  0  0  0
 13 11  1  0  0  0  0
 14 15  1  0  0  0  0
 15 19  1  0  0  0  0
 16 15  2  0  0  0  0
 16 17  1  0  0  0  0
 17 18  1  0  0  0  0
 18 13  1  0  0  0  0
 19 18  2  0  0  0  0
 20 21  1  0  0  0  0
 22 21  1  0  0  0  0
 22 23  1  1  0  0  0
 24 28  1  6  0  0  0
 24 22  1  0  0  0  0
 25 26  1  0  0  0  0
 26 24  1  0  0  0  0
 28 27  1  0  0  0  0
M  END
>  <MODEL>
9

>  <REMARK>
 VINA RESULT:      -6.7      1.730      5.800
  Name = 
  10 active torsions:
  status: ('A' for Active; 'I' for Inactive)
    1  A    between atoms: C_1  and  C_13
    2  A    between atoms: C_4  and  C_11
    3  A    between atoms: C_4  and  O_25
    4  A    between atoms: C_4  and  C_28
    5  A    between atoms: C_11  and  C_24
    6  A    between atoms: C_13  and  C_23
    7  A    between atoms: C_14  and  C_26
    8  A    between atoms: N_15  and  C_22
    9  A    between atoms: N_15  and  C_24
   10  A    between atoms: C_17  and  C_23
                            x       y       z     vdW  Elec       q    Type
                         _______ _______ _______ _____ _____    ______ ____

>  <TORSDO>
F 10

$$$$
