=
 OpenBabel10232409313D

 53 55  0  0  1  0  0  0  0  0999 V2000
  184.0640  178.5030  141.8220 C   0  0  0  0  0  0  0  0  0  0  0  0
  185.3810  178.7190  141.6870 C   0  0  0  0  0  3  0  0  0  0  0  0
  179.9850  175.5980  137.3460 C   0  0  0  0  0  3  0  0  0  0  0  0
  181.7610  176.6790  139.2440 C   0  0  0  0  0  0  0  0  0  0  0  0
  180.2610  176.9650  137.3460 C   0  0  0  0  0  3  0  0  0  0  0  0
  181.1660  177.5290  138.2650 C   0  0  0  0  0  0  0  0  0  0  0  0
  181.3790  179.0330  138.2430 C   0  0  1  0  0  3  0  0  0  0  0  0
  182.5930  179.5410  139.9990 C   0  0  0  0  0  2  0  0  0  0  0  0
  180.5960  174.7680  138.2810 C   0  0  0  0  0  3  0  0  0  0  0  0
  183.1000  178.3180  140.6940 C   0  0  0  0  0  0  0  0  0  0  0  0
  182.6920  177.0930  140.3240 C   0  0  0  0  0  3  0  0  0  0  0  0
  181.4720  175.3090  139.2210 C   0  0  0  0  0  3  0  0  0  0  0  0
  182.6810  179.3650  138.6210 O   0  0  0  0  0  0  0  0  0  0  0  0
  181.5490  179.2210  135.8980 O   0  0  0  0  0  0  0  0  0  0  0  0
  181.0650  179.6790  136.9230 C   0  0  0  0  0  0  0  0  0  0  0  0
  180.9290  182.0230  137.2190 O   0  0  0  0  0  1  0  0  0  0  0  0
  180.1950  180.8940  136.8560 C   0  0  0  0  0  2  0  0  0  0  0  0
  183.5450  178.4640  143.2240 C   0  0  0  0  0  2  0  0  0  0  0  0
  184.1930  179.5300  144.0360 C   0  0  0  0  0  3  0  0  0  0  0  0
  185.6320  179.6500  147.2360 O   0  0  0  0  0  1  0  0  0  0  0  0
  184.9470  179.2140  145.0500 C   0  0  0  0  0  0  0  0  0  0  0  0
  185.7030  178.9050  146.0650 C   0  0  0  0  0  0  0  0  0  0  0  0
  186.6590  177.7690  145.9610 C   0  0  0  0  0  2  0  0  0  0  0  0
  187.2920  177.7910  144.7050 O   0  0  0  0  0  0  0  0  0  0  0  0
  189.4660  177.5490  143.5950 C   0  0  0  0  0  2  0  0  0  0  0  0
  188.6920  177.8030  144.8940 C   0  0  2  0  0  3  0  0  0  0  0  0
  191.9830  177.0910  142.7540 O   0  0  0  0  0  0  0  0  0  0  0  0
  190.5760  177.2490  146.4810 C   0  0  0  0  0  2  0  0  0  0  0  0
  191.5760  176.8430  145.4060 C   0  0  0  0  0  2  0  0  0  0  0  0
  191.2150  177.7050  143.8900 S   0  0  0  0  0  0  0  0  0  0  0  0
  189.1470  176.9140  146.0640 C   0  0  0  0  0  2  0  0  0  0  0  0
  191.5830  179.1550  144.0240 O   0  0  0  0  0  0  0  0  0  0  0  0
  186.1270  178.7980  140.3970 C   0  0  0  0  0  2  0  0  0  0  0  0
  187.5770  178.4160  140.6210 C   0  0  0  0  0  2  0  0  0  0  0  0
  188.2370  178.0850  139.2950 C   0  0  2  0  0  3  0  0  0  0  0  0
  188.9390  179.1970  138.8250 O   0  0  0  0  0  1  0  0  0  0  0  0
  187.1710  177.6880  138.2880 C   0  0  0  0  0  2  0  0  0  0  0  0
  187.6770  177.8430  136.8610 C   0  0  2  0  0  3  0  0  0  0  0  0
  186.7260  178.1060  134.6720 O   0  0  0  0  0  0  0  0  0  0  0  0
  185.3140  177.2840  136.2810 O   0  0  0  0  0  1  0  0  0  0  0  0
  186.5530  177.7580  135.8710 C   0  0  0  0  0  0  0  0  0  0  0  0
  188.7150  176.7710  136.5760 C   0  0  0  0  0  2  0  0  0  0  0  0
  188.6880  174.3180  136.3860 C   0  0  0  0  0  0  0  0  0  0  0  0
  188.0820  175.4590  136.5490 N   0  0  0  0  0  0  0  0  0  0  0  0
  190.1710  174.1940  136.2640 C   0  0  0  0  0  0  0  0  0  0  0  0
  190.6960  174.0980  135.1220 O   0  0  0  0  0  0  0  0  0  0  0  0
  192.4520  174.0060  137.3310 C   0  0  0  0  0  1  0  0  0  0  0  0
  191.0080  174.1420  137.4240 N   0  0  0  0  0  2  0  0  0  0  0  0
  188.1010  172.2080  137.3940 O   0  0  0  0  0  1  0  0  0  0  0  0
  187.8130  173.0950  136.3500 C   0  0  1  0  0  3  0  0  0  0  0  0
  186.3230  173.4240  136.2830 C   0  0  0  0  0  2  0  0  0  0  0  0
  185.5910  173.0710  137.5680 C   0  0  0  0  0  2  0  0  0  0  0  0
  184.3370  173.9140  137.6800 C   0  0  0  0  0  1  0  0  0  0  0  0
  1 18  1  0  0  0  0
  2  1  2  0  0  0  0
  3  9  1  0  0  0  0
  4 11  1  0  0  0  0
  5  3  2  0  0  0  0
  5  6  1  0  0  0  0
  6  4  2  0  0  0  0
  7 15  1  6  0  0  0
  7  6  1  0  0  0  0
  7 13  1  0  0  0  0
  8 10  1  0  0  0  0
  9 12  2  0  0  0  0
 10  1  1  0  0  0  0
 11 10  2  0  0  0  0
 12  4  1  0  0  0  0
 13  8  1  0  0  0  0
 14 15  2  0  0  0  0
 17 15  1  0  0  0  0
 17 16  1  0  0  0  0
 18 19  1  0  0  0  0
 19 21  2  0  0  0  0
 21 22  2  0  0  0  0
 22 20  1  0  0  0  0
 23 22  1  0  0  0  0
 24 23  1  0  0  0  0
 25 30  1  0  0  0  0
 25 26  1  0  0  0  0
 26 24  1  6  0  0  0
 26 31  1  0  0  0  0
 27 30  2  0  0  0  0
 29 28  1  0  0  0  0
 30 32  2  0  0  0  0
 30 29  1  0  0  0  0
 31 28  1  0  0  0  0
 33 34  1  0  0  0  0
 33  2  1  0  0  0  0
 35 36  1  6  0  0  0
 35 34  1  0  0  0  0
 37 35  1  0  0  0  0
 38 42  1  6  0  0  0
 38 37  1  0  0  0  0
 39 41  2  0  0  0  0
 41 40  1  0  0  0  0
 41 38  1  0  0  0  0
 43 44  2  0  0  0  0
 44 42  1  0  0  0  0
 45 43  1  0  0  0  0
 45 48  1  0  0  0  0
 46 45  2  0  0  0  0
 47 48  1  0  0  0  0
 50 43  1  0  0  0  0
 50 49  1  1  0  0  0
 51 50  1  0  0  0  0
 51 52  1  0  0  0  0
 52 53  1  0  0  0  0
M  END
>  <MODEL>
1

>  <REMARK>
 VINA RESULT:      -7.4      0.000      0.000
  Name = 
  20 active torsions:
  status: ('A' for Active; 'I' for Inactive)
    1  A    between atoms: C_4  and  C_10
    2  A    between atoms: C_6  and  O_15
    3  A    between atoms: C_7  and  C_10
    4  A    between atoms: C_7  and  C_42
    5  A    between atoms: C_8  and  C_19
    6  A    between atoms: C_9  and  C_14
    7  A    between atoms: C_9  and  C_21
    8  A    between atoms: C_11  and  C_19
    9  A    between atoms: C_11  and  C_39
   10  A    between atoms: C_14  and  C_33
   11  A    between atoms: C_14  and  C_40
   12  A    between atoms: O_15  and  C_16
   13  A    between atoms: C_16  and  C_30
   14  A    between atoms: C_20  and  C_39
   15  A    between atoms: C_21  and  C_28
   16  A    between atoms: C_22  and  C_28
   17  A    between atoms: C_22  and  C_50
   18  A    between atoms: C_32  and  C_51
   19  A    between atoms: C_35  and  C_51
   20  A    between atoms: C_40  and  N_48
                            x       y       z     vdW  Elec       q    Type
                         _______ _______ _______ _____ _____    ______ ____

>  <TORSDO>
F 20

$$$$
=
 OpenBabel10232409313D

 53 55  0  0  1  0  0  0  0  0999 V2000
  190.5030  176.6310  137.2200 C   0  0  0  0  0  0  0  0  0  0  0  0
  189.8750  176.9070  138.3730 C   0  0  0  0  0  3  0  0  0  0  0  0
  194.2270  171.2530  135.6970 C   0  0  0  0  0  3  0  0  0  0  0  0
  192.5410  173.4190  136.3260 C   0  0  0  0  0  0  0  0  0  0  0  0
  194.7340  172.3600  136.3770 C   0  0  0  0  0  3  0  0  0  0  0  0
  193.9090  173.4450  136.7300 C   0  0  0  0  0  0  0  0  0  0  0  0
  194.5390  174.6400  137.4230 C   0  0  1  0  0  3  0  0  0  0  0  0
  193.0130  176.2150  137.5130 C   0  0  0  0  0  2  0  0  0  0  0  0
  192.8830  171.2180  135.3370 C   0  0  0  0  0  3  0  0  0  0  0  0
  191.6740  175.7150  137.0740 C   0  0  0  0  0  0  0  0  0  0  0  0
  191.5330  174.4850  136.5540 C   0  0  0  0  0  3  0  0  0  0  0  0
  192.0530  172.2940  135.6470 C   0  0  0  0  0  3  0  0  0  0  0  0
  193.6390  175.2500  138.2980 O   0  0  0  0  0  0  0  0  0  0  0  0
  195.7530  173.8760  139.2950 O   0  0  0  0  0  0  0  0  0  0  0  0
  195.8100  174.3240  138.1590 C   0  0  0  0  0  0  0  0  0  0  0  0
  197.9400  175.3270  138.3980 O   0  0  0  0  0  1  0  0  0  0  0  0
  197.1420  174.5840  137.5290 C   0  0  0  0  0  2  0  0  0  0  0  0
  189.9740  177.3220  136.0030 C   0  0  0  0  0  2  0  0  0  0  0  0
  189.2760  176.3440  135.1260 C   0  0  0  0  0  3  0  0  0  0  0  0
  187.1630  173.5990  135.6990 O   0  0  0  0  0  1  0  0  0  0  0  0
  188.2800  175.6420  135.5880 C   0  0  0  0  0  0  0  0  0  0  0  0
  187.2820  174.9390  136.0450 C   0  0  0  0  0  0  0  0  0  0  0  0
  186.2600  175.5790  136.9170 C   0  0  0  0  0  2  0  0  0  0  0  0
  185.9910  176.8820  136.4610 O   0  0  0  0  0  0  0  0  0  0  0  0
  185.8790  178.2190  138.5140 C   0  0  0  0  0  2  0  0  0  0  0  0
  185.1250  177.5220  137.3750 C   0  0  2  0  0  3  0  0  0  0  0  0
  185.3860  179.4580  140.8540 O   0  0  0  0  0  0  0  0  0  0  0  0
  182.8750  177.4290  138.5160 C   0  0  0  0  0  2  0  0  0  0  0  0
  183.3380  178.0350  139.8340 C   0  0  0  0  0  2  0  0  0  0  0  0
  184.7320  179.1060  139.5470 S   0  0  0  0  0  0  0  0  0  0  0  0
  183.9850  176.6110  137.8600 C   0  0  0  0  0  2  0  0  0  0  0  0
  184.2810  180.3600  138.8530 O   0  0  0  0  0  0  0  0  0  0  0  0
  190.2150  176.3430  139.7120 C   0  0  0  0  0  2  0  0  0  0  0  0
  190.5490  177.4670  140.6720 C   0  0  0  0  0  2  0  0  0  0  0  0
  189.4970  177.5500  141.7620 C   0  0  2  0  0  3  0  0  0  0  0  0
  188.3210  178.0970  141.2440 O   0  0  0  0  0  1  0  0  0  0  0  0
  190.0140  178.4230  142.8930 C   0  0  0  0  0  2  0  0  0  0  0  0
  189.8960  177.7130  144.2350 C   0  0  2  0  0  3  0  0  0  0  0  0
  191.5950  176.0700  143.8130 O   0  0  0  0  0  0  0  0  0  0  0  0
  191.8470  177.2970  145.7350 O   0  0  0  0  0  1  0  0  0  0  0  0
  191.1550  176.9740  144.5740 C   0  0  0  0  0  0  0  0  0  0  0  0
  188.7150  176.7570  144.1960 C   0  0  0  0  0  2  0  0  0  0  0  0
  187.0460  177.7980  145.6750 C   0  0  0  0  0  0  0  0  0  0  0  0
  187.4830  177.4770  144.4910 N   0  0  0  0  0  0  0  0  0  0  0  0
  187.8100  177.5160  146.9280 C   0  0  0  0  0  0  0  0  0  0  0  0
  187.5370  176.4880  147.6050 O   0  0  0  0  0  0  0  0  0  0  0  0
  189.5650  178.1700  148.6210 C   0  0  0  0  0  1  0  0  0  0  0  0
  188.8200  178.4150  147.3970 N   0  0  0  0  0  2  0  0  0  0  0  0
  185.6840  179.4830  146.7310 O   0  0  0  0  0  1  0  0  0  0  0  0
  185.7200  178.5050  145.7310 C   0  0  1  0  0  3  0  0  0  0  0  0
  185.2790  179.0620  144.3790 C   0  0  0  0  0  2  0  0  0  0  0  0
  183.9130  179.7260  144.4410 C   0  0  0  0  0  2  0  0  0  0  0  0
  182.8340  178.6660  144.3640 C   0  0  0  0  0  1  0  0  0  0  0  0
  1  2  2  0  0  0  0
  2 33  1  0  0  0  0
  3  5  1  0  0  0  0
  4 11  1  0  0  0  0
  4  6  1  0  0  0  0
  5  6  2  0  0  0  0
  6  7  1  0  0  0  0
  7 15  1  1  0  0  0
  7 13  1  0  0  0  0
  8 13  1  0  0  0  0
  9 12  1  0  0  0  0
  9  3  2  0  0  0  0
 10  1  1  0  0  0  0
 10  8  1  0  0  0  0
 11 10  2  0  0  0  0
 12  4  2  0  0  0  0
 15 14  2  0  0  0  0
 17 15  1  0  0  0  0
 17 16  1  0  0  0  0
 18  1  1  0  0  0  0
 19 21  2  0  0  0  0
 19 18  1  0  0  0  0
 20 22  1  0  0  0  0
 21 22  2  0  0  0  0
 22 23  1  0  0  0  0
 24 23  1  0  0  0  0
 25 30  1  0  0  0  0
 26 24  1  1  0  0  0
 26 31  1  0  0  0  0
 26 25  1  0  0  0  0
 28 29  1  0  0  0  0
 30 29  1  0  0  0  0
 30 27  2  0  0  0  0
 31 28  1  0  0  0  0
 32 30  2  0  0  0  0
 33 34  1  0  0  0  0
 34 35  1  0  0  0  0
 35 36  1  6  0  0  0
 35 37  1  0  0  0  0
 38 37  1  6  0  0  0
 38 41  1  0  0  0  0
 39 41  2  0  0  0  0
 41 40  1  0  0  0  0
 42 38  1  0  0  0  0
 42 44  1  0  0  0  0
 43 50  1  0  0  0  0
 43 45  1  0  0  0  0
 44 43  2  0  0  0  0
 45 48  1  0  0  0  0
 45 46  2  0  0  0  0
 48 47  1  0  0  0  0
 50 49  1  1  0  0  0
 51 52  1  0  0  0  0
 51 50  1  0  0  0  0
 53 52  1  0  0  0  0
M  END
>  <MODEL>
2

>  <REMARK>
 VINA RESULT:      -7.3      3.319     10.805
  Name = 
  20 active torsions:
  status: ('A' for Active; 'I' for Inactive)
    1  A    between atoms: C_4  and  C_10
    2  A    between atoms: C_6  and  O_15
    3  A    between atoms: C_7  and  C_10
    4  A    between atoms: C_7  and  C_42
    5  A    between atoms: C_8  and  C_19
    6  A    between atoms: C_9  and  C_14
    7  A    between atoms: C_9  and  C_21
    8  A    between atoms: C_11  and  C_19
    9  A    between atoms: C_11  and  C_39
   10  A    between atoms: C_14  and  C_33
   11  A    between atoms: C_14  and  C_40
   12  A    between atoms: O_15  and  C_16
   13  A    between atoms: C_16  and  C_30
   14  A    between atoms: C_20  and  C_39
   15  A    between atoms: C_21  and  C_28
   16  A    between atoms: C_22  and  C_28
   17  A    between atoms: C_22  and  C_50
   18  A    between atoms: C_32  and  C_51
   19  A    between atoms: C_35  and  C_51
   20  A    between atoms: C_40  and  N_48
                            x       y       z     vdW  Elec       q    Type
                         _______ _______ _______ _____ _____    ______ ____

>  <TORSDO>
F 20

$$$$
=
 OpenBabel10232409313D

 53 55  0  0  1  0  0  0  0  0999 V2000
  191.1410  175.6580  137.8020 C   0  0  0  0  0  0  0  0  0  0  0  0
  190.8370  176.2900  138.9460 C   0  0  0  0  0  3  0  0  0  0  0  0
  197.0360  172.5480  136.9790 C   0  0  0  0  0  3  0  0  0  0  0  0
  194.5450  173.7700  137.4520 C   0  0  0  0  0  0  0  0  0  0  0  0
  196.7450  173.7860  136.4080 C   0  0  0  0  0  3  0  0  0  0  0  0
  195.5190  174.4340  136.6490 C   0  0  0  0  0  0  0  0  0  0  0  0
  195.2460  175.7560  135.9520 C   0  0  1  0  0  3  0  0  0  0  0  0
  193.1480  176.2690  136.3320 C   0  0  0  0  0  2  0  0  0  0  0  0
  196.0950  171.9220  137.7910 C   0  0  0  0  0  3  0  0  0  0  0  0
  192.5230  175.3460  137.3280 C   0  0  0  0  0  0  0  0  0  0  0  0
  193.1820  174.2630  137.7740 C   0  0  0  0  0  3  0  0  0  0  0  0
  194.8620  172.5300  138.0200 C   0  0  0  0  0  3  0  0  0  0  0  0
  194.4420  176.5850  136.7340 O   0  0  0  0  0  0  0  0  0  0  0  0
  197.4990  176.3990  136.2230 O   0  0  0  0  0  0  0  0  0  0  0  0
  196.4860  176.5040  135.5470 C   0  0  0  0  0  0  0  0  0  0  0  0
  195.7670  178.5630  134.6300 O   0  0  0  0  0  1  0  0  0  0  0  0
  196.4810  177.3990  134.3490 C   0  0  0  0  0  2  0  0  0  0  0  0
  189.9810  175.2600  136.9450 C   0  0  0  0  0  2  0  0  0  0  0  0
  189.5340  176.4180  136.1240 C   0  0  0  0  0  3  0  0  0  0  0  0
  186.4200  177.8810  135.4260 O   0  0  0  0  0  1  0  0  0  0  0  0
  188.3600  176.9470  136.3200 C   0  0  0  0  0  0  0  0  0  0  0  0
  187.1870  177.4810  136.5130 C   0  0  0  0  0  0  0  0  0  0  0  0
  186.6810  177.6840  137.8980 C   0  0  0  0  0  2  0  0  0  0  0  0
  185.8030  178.7830  137.9290 O   0  0  0  0  0  0  0  0  0  0  0  0
  183.7350  177.4920  137.6530 C   0  0  0  0  0  2  0  0  0  0  0  0
  184.5950  178.3920  138.5490 C   0  0  2  0  0  3  0  0  0  0  0  0
  181.2760  176.3970  137.5900 O   0  0  0  0  0  0  0  0  0  0  0  0
  182.7570  179.0850  140.1340 C   0  0  0  0  0  2  0  0  0  0  0  0
  181.6360  178.3510  139.4100 C   0  0  0  0  0  2  0  0  0  0  0  0
  182.2990  176.9400  138.5470 S   0  0  0  0  0  0  0  0  0  0  0  0
  183.8220  179.5740  139.1560 C   0  0  0  0  0  2  0  0  0  0  0  0
  182.6880  175.8740  139.5320 O   0  0  0  0  0  0  0  0  0  0  0  0
  191.8160  176.7800  139.9600 C   0  0  0  0  0  2  0  0  0  0  0  0
  191.0970  177.6070  141.0070 C   0  0  0  0  0  2  0  0  0  0  0  0
  189.6690  177.1170  141.1660 C   0  0  2  0  0  3  0  0  0  0  0  0
  188.7870  178.1980  141.0910 O   0  0  0  0  0  1  0  0  0  0  0  0
  189.5220  176.4280  142.5120 C   0  0  0  0  0  2  0  0  0  0  0  0
  189.1200  177.4180  143.5970 C   0  0  2  0  0  3  0  0  0  0  0  0
  190.2510  176.9110  145.6530 O   0  0  0  0  0  1  0  0  0  0  0  0
  191.2120  178.5440  144.3610 O   0  0  0  0  0  0  0  0  0  0  0  0
  190.2180  177.6040  144.6000 C   0  0  0  0  0  0  0  0  0  0  0  0
  187.8550  176.9280  144.2810 C   0  0  0  0  0  2  0  0  0  0  0  0
  185.9550  178.4360  144.6980 C   0  0  0  0  0  0  0  0  0  0  0  0
  186.7240  177.7610  143.8920 N   0  0  0  0  0  0  0  0  0  0  0  0
  186.1770  178.4960  146.1740 C   0  0  0  0  0  0  0  0  0  0  0  0
  185.3150  179.0470  146.9110 O   0  0  0  0  0  0  0  0  0  0  0  0
  187.6160  178.0370  148.1970 C   0  0  0  0  0  1  0  0  0  0  0  0
  187.3720  177.9760  146.7650 N   0  0  0  0  0  2  0  0  0  0  0  0
  185.0750  179.5010  142.7230 O   0  0  0  0  0  1  0  0  0  0  0  0
  184.8200  179.1920  144.0640 C   0  0  1  0  0  3  0  0  0  0  0  0
  183.4680  178.5030  144.2370 C   0  0  0  0  0  2  0  0  0  0  0  0
  182.3300  179.2870  143.6040 C   0  0  0  0  0  2  0  0  0  0  0  0
  181.0120  178.6210  143.9410 C   0  0  0  0  0  1  0  0  0  0  0  0
  1  2  2  0  0  0  0
  2 33  1  0  0  0  0
  3  9  1  0  0  0  0
  4 11  1  0  0  0  0
  4 12  1  0  0  0  0
  5  6  1  0  0  0  0
  5  3  2  0  0  0  0
  6  4  2  0  0  0  0
  7 15  1  1  0  0  0
  7  6  1  0  0  0  0
  7 13  1  0  0  0  0
  8 13  1  0  0  0  0
  8 10  1  0  0  0  0
  9 12  2  0  0  0  0
 10 11  2  0  0  0  0
 10  1  1  0  0  0  0
 15 14  2  0  0  0  0
 17 16  1  0  0  0  0
 17 15  1  0  0  0  0
 18  1  1  0  0  0  0
 19 21  2  0  0  0  0
 19 18  1  0  0  0  0
 20 22  1  0  0  0  0
 21 22  2  0  0  0  0
 22 23  1  0  0  0  0
 23 24  1  0  0  0  0
 25 30  1  0  0  0  0
 25 26  1  0  0  0  0
 26 24  1  6  0  0  0
 26 31  1  0  0  0  0
 27 30  2  0  0  0  0
 29 28  1  0  0  0  0
 30 29  1  0  0  0  0
 30 32  2  0  0  0  0
 31 28  1  0  0  0  0
 33 34  1  0  0  0  0
 34 35  1  0  0  0  0
 35 36  1  1  0  0  0
 35 37  1  0  0  0  0
 38 37  1  6  0  0  0
 38 42  1  0  0  0  0
 38 41  1  0  0  0  0
 40 41  2  0  0  0  0
 41 39  1  0  0  0  0
 43 45  1  0  0  0  0
 44 42  1  0  0  0  0
 44 43  2  0  0  0  0
 45 48  1  0  0  0  0
 45 46  2  0  0  0  0
 48 47  1  0  0  0  0
 50 49  1  6  0  0  0
 50 51  1  0  0  0  0
 50 43  1  0  0  0  0
 52 53  1  0  0  0  0
 52 51  1  0  0  0  0
M  END
>  <MODEL>
3

>  <REMARK>
 VINA RESULT:      -6.8      3.685     11.046
  Name = 
  20 active torsions:
  status: ('A' for Active; 'I' for Inactive)
    1  A    between atoms: C_4  and  C_10
    2  A    between atoms: C_6  and  O_15
    3  A    between atoms: C_7  and  C_10
    4  A    between atoms: C_7  and  C_42
    5  A    between atoms: C_8  and  C_19
    6  A    between atoms: C_9  and  C_14
    7  A    between atoms: C_9  and  C_21
    8  A    between atoms: C_11  and  C_19
    9  A    between atoms: C_11  and  C_39
   10  A    between atoms: C_14  and  C_33
   11  A    between atoms: C_14  and  C_40
   12  A    between atoms: O_15  and  C_16
   13  A    between atoms: C_16  and  C_30
   14  A    between atoms: C_20  and  C_39
   15  A    between atoms: C_21  and  C_28
   16  A    between atoms: C_22  and  C_28
   17  A    between atoms: C_22  and  C_50
   18  A    between atoms: C_32  and  C_51
   19  A    between atoms: C_35  and  C_51
   20  A    between atoms: C_40  and  N_48
                            x       y       z     vdW  Elec       q    Type
                         _______ _______ _______ _____ _____    ______ ____

>  <TORSDO>
F 20

$$$$
=
 OpenBabel10232409313D

 53 55  0  0  1  0  0  0  0  0999 V2000
  189.3080  177.5820  139.4630 C   0  0  0  0  0  0  0  0  0  0  0  0
  190.2080  177.0470  138.6240 C   0  0  0  0  0  3  0  0  0  0  0  0
  187.3220  177.4960  145.8790 C   0  0  0  0  0  3  0  0  0  0  0  0
  188.0290  177.6140  143.1560 C   0  0  0  0  0  0  0  0  0  0  0  0
  188.6510  177.3240  145.4930 C   0  0  0  0  0  3  0  0  0  0  0  0
  189.0390  177.4050  144.1420 C   0  0  0  0  0  0  0  0  0  0  0  0
  190.4940  177.1530  143.7880 C   0  0  1  0  0  3  0  0  0  0  0  0
  190.6220  177.0590  141.6000 C   0  0  0  0  0  2  0  0  0  0  0  0
  186.3470  177.7360  144.9150 C   0  0  0  0  0  3  0  0  0  0  0  0
  189.3330  177.4530  140.9520 C   0  0  0  0  0  0  0  0  0  0  0  0
  188.2300  177.6740  141.6860 C   0  0  0  0  0  3  0  0  0  0  0  0
  186.7020  177.7900  143.5680 C   0  0  0  0  0  3  0  0  0  0  0  0
  190.8820  177.9020  142.6760 O   0  0  0  0  0  0  0  0  0  0  0  0
  191.9740  178.5060  145.0280 O   0  0  0  0  0  0  0  0  0  0  0  0
  191.4530  177.4060  144.9170 C   0  0  0  0  0  0  0  0  0  0  0  0
  191.7560  176.8080  147.1860 O   0  0  0  0  0  1  0  0  0  0  0  0
  191.8020  176.3180  145.8820 C   0  0  0  0  0  2  0  0  0  0  0  0
  188.1930  178.3490  138.8270 C   0  0  0  0  0  2  0  0  0  0  0  0
  187.8530  177.7520  137.5070 C   0  0  0  0  0  3  0  0  0  0  0  0
  185.4420  175.4530  136.3970 O   0  0  0  0  0  1  0  0  0  0  0  0
  186.6910  177.1920  137.3200 C   0  0  0  0  0  0  0  0  0  0  0  0
  185.5310  176.6320  137.1270 C   0  0  0  0  0  0  0  0  0  0  0  0
  184.2990  177.2680  137.6690 C   0  0  0  0  0  2  0  0  0  0  0  0
  184.5770  177.8610  138.9140 O   0  0  0  0  0  0  0  0  0  0  0  0
  182.5050  177.4700  140.1680 C   0  0  0  0  0  2  0  0  0  0  0  0
  183.3990  178.4610  139.4130 C   0  0  2  0  0  3  0  0  0  0  0  0
  180.0500  177.3370  141.2670 O   0  0  0  0  0  0  0  0  0  0  0  0
  181.6280  180.2120  139.0010 C   0  0  0  0  0  2  0  0  0  0  0  0
  180.4800  179.4290  139.6230 C   0  0  0  0  0  2  0  0  0  0  0  0
  181.1110  178.3250  140.8710 S   0  0  0  0  0  0  0  0  0  0  0  0
  182.6470  179.2810  138.3510 C   0  0  0  0  0  2  0  0  0  0  0  0
  181.5470  179.1090  142.0760 O   0  0  0  0  0  0  0  0  0  0  0  0
  191.4030  176.2450  139.0190 C   0  0  0  0  0  2  0  0  0  0  0  0
  192.6330  176.7760  138.3110 C   0  0  0  0  0  2  0  0  0  0  0  0
  193.1200  175.7670  137.2880 C   0  0  2  0  0  3  0  0  0  0  0  0
  192.7550  176.1800  136.0040 O   0  0  0  0  0  1  0  0  0  0  0  0
  192.5010  174.4120  137.5850 C   0  0  0  0  0  2  0  0  0  0  0  0
  191.9990  173.7440  136.3120 C   0  0  2  0  0  3  0  0  0  0  0  0
  189.8990  173.6300  137.4710 O   0  0  0  0  0  1  0  0  0  0  0  0
  189.8770  172.9190  135.2910 O   0  0  0  0  0  0  0  0  0  0  0  0
  190.5360  173.4290  136.4010 C   0  0  0  0  0  0  0  0  0  0  0  0
  192.7990  172.4770  136.0590 C   0  0  0  0  0  2  0  0  0  0  0  0
  195.2430  172.4630  136.3440 C   0  0  0  0  0  0  0  0  0  0  0  0
  194.1690  172.8180  135.6990 N   0  0  0  0  0  0  0  0  0  0  0  0
  195.2150  171.5750  137.5450 C   0  0  0  0  0  0  0  0  0  0  0  0
  195.1540  172.0870  138.6960 O   0  0  0  0  0  0  0  0  0  0  0  0
  195.2870  169.2690  138.5710 C   0  0  0  0  0  1  0  0  0  0  0  0
  195.2970  170.1520  137.4170 N   0  0  0  0  0  2  0  0  0  0  0  0
  196.4050  174.2010  135.1440 O   0  0  0  0  0  1  0  0  0  0  0  0
  196.5500  172.9750  135.8020 C   0  0  1  0  0  3  0  0  0  0  0  0
  197.6570  173.0250  136.8530 C   0  0  0  0  0  2  0  0  0  0  0  0
  198.3150  174.3920  136.9410 C   0  0  0  0  0  2  0  0  0  0  0  0
  199.7160  174.3140  136.3720 C   0  0  0  0  0  1  0  0  0  0  0  0
  1 10  1  0  0  0  0
  2 33  1  0  0  0  0
  2  1  2  0  0  0  0
  4 12  2  0  0  0  0
  4  6  1  0  0  0  0
  5  3  1  0  0  0  0
  6  5  2  0  0  0  0
  7  6  1  0  0  0  0
  7 15  1  1  0  0  0
  8 13  1  0  0  0  0
  9  3  2  0  0  0  0
 10  8  1  0  0  0  0
 10 11  2  0  0  0  0
 11  4  1  0  0  0  0
 12  9  1  0  0  0  0
 13  7  1  0  0  0  0
 15 14  2  0  0  0  0
 15 17  1  0  0  0  0
 17 16  1  0  0  0  0
 18  1  1  0  0  0  0
 19 18  1  0  0  0  0
 20 22  1  0  0  0  0
 21 19  2  0  0  0  0
 22 21  2  0  0  0  0
 22 23  1  0  0  0  0
 23 24  1  0  0  0  0
 25 30  1  0  0  0  0
 26 24  1  6  0  0  0
 26 25  1  0  0  0  0
 28 29  1  0  0  0  0
 29 30  1  0  0  0  0
 30 27  2  0  0  0  0
 30 32  2  0  0  0  0
 31 28  1  0  0  0  0
 31 26  1  0  0  0  0
 34 33  1  0  0  0  0
 35 36  1  6  0  0  0
 35 37  1  0  0  0  0
 35 34  1  0  0  0  0
 38 42  1  1  0  0  0
 38 41  1  0  0  0  0
 38 37  1  0  0  0  0
 40 41  2  0  0  0  0
 41 39  1  0  0  0  0
 43 45  1  0  0  0  0
 44 42  1  0  0  0  0
 44 43  2  0  0  0  0
 45 46  2  0  0  0  0
 48 45  1  0  0  0  0
 48 47  1  0  0  0  0
 50 49  1  1  0  0  0
 50 43  1  0  0  0  0
 50 51  1  0  0  0  0
 51 52  1  0  0  0  0
 53 52  1  0  0  0  0
M  END
>  <MODEL>
4

>  <REMARK>
 VINA RESULT:      -6.7      3.315      9.212
  Name = 
  20 active torsions:
  status: ('A' for Active; 'I' for Inactive)
    1  A    between atoms: C_4  and  C_10
    2  A    between atoms: C_6  and  O_15
    3  A    between atoms: C_7  and  C_10
    4  A    between atoms: C_7  and  C_42
    5  A    between atoms: C_8  and  C_19
    6  A    between atoms: C_9  and  C_14
    7  A    between atoms: C_9  and  C_21
    8  A    between atoms: C_11  and  C_19
    9  A    between atoms: C_11  and  C_39
   10  A    between atoms: C_14  and  C_33
   11  A    between atoms: C_14  and  C_40
   12  A    between atoms: O_15  and  C_16
   13  A    between atoms: C_16  and  C_30
   14  A    between atoms: C_20  and  C_39
   15  A    between atoms: C_21  and  C_28
   16  A    between atoms: C_22  and  C_28
   17  A    between atoms: C_22  and  C_50
   18  A    between atoms: C_32  and  C_51
   19  A    between atoms: C_35  and  C_51
   20  A    between atoms: C_40  and  N_48
                            x       y       z     vdW  Elec       q    Type
                         _______ _______ _______ _____ _____    ______ ____

>  <TORSDO>
F 20

$$$$
=
 OpenBabel10232409313D

 53 55  0  0  1  0  0  0  0  0999 V2000
  188.5050  177.6250  140.0440 C   0  0  0  0  0  0  0  0  0  0  0  0
  189.4780  177.1000  139.2830 C   0  0  0  0  0  3  0  0  0  0  0  0
  190.5360  177.0800  146.4220 C   0  0  0  0  0  3  0  0  0  0  0  0
  189.7940  177.2080  143.7100 C   0  0  0  0  0  0  0  0  0  0  0  0
  189.2530  177.4940  146.0670 C   0  0  0  0  0  3  0  0  0  0  0  0
  188.8450  177.5420  144.7210 C   0  0  0  0  0  0  0  0  0  0  0  0
  187.4510  178.0540  144.4020 C   0  0  1  0  0  3  0  0  0  0  0  0
  187.3210  178.2670  142.2230 C   0  0  0  0  0  2  0  0  0  0  0  0
  191.4470  176.7210  145.4330 C   0  0  0  0  0  3  0  0  0  0  0  0
  188.5170  177.6880  141.5370 C   0  0  0  0  0  0  0  0  0  0  0  0
  189.5720  177.2500  142.2420 C   0  0  0  0  0  3  0  0  0  0  0  0
  191.0750  176.7890  144.0910 C   0  0  0  0  0  3  0  0  0  0  0  0
  186.9300  177.4330  143.2660 O   0  0  0  0  0  0  0  0  0  0  0  0
  186.2600  176.8150  146.0170 O   0  0  0  0  0  0  0  0  0  0  0  0
  186.4730  177.9180  145.5350 C   0  0  0  0  0  0  0  0  0  0  0  0
  184.4960  178.7180  146.5600 O   0  0  0  0  0  1  0  0  0  0  0  0
  185.7340  179.1110  146.0540 C   0  0  0  0  0  2  0  0  0  0  0  0
  187.3200  178.1680  139.3110 C   0  0  0  0  0  2  0  0  0  0  0  0
  187.4220  177.8390  137.8630 C   0  0  0  0  0  3  0  0  0  0  0  0
  185.7080  175.6590  135.7110 O   0  0  0  0  0  1  0  0  0  0  0  0
  186.4340  177.2490  137.2530 C   0  0  0  0  0  0  0  0  0  0  0  0
  185.4480  176.6600  136.6380 C   0  0  0  0  0  0  0  0  0  0  0  0
  184.0460  177.0780  136.9100 C   0  0  0  0  0  2  0  0  0  0  0  0
  183.3210  175.9960  137.4430 O   0  0  0  0  0  0  0  0  0  0  0  0
  182.6740  177.5930  139.1890 C   0  0  0  0  0  2  0  0  0  0  0  0
  182.2440  176.4950  138.2090 C   0  0  2  0  0  3  0  0  0  0  0  0
  181.6750  179.0330  141.2340 O   0  0  0  0  0  0  0  0  0  0  0  0
  180.0590  175.9220  139.3370 C   0  0  0  0  0  2  0  0  0  0  0  0
  180.2290  176.8780  140.5100 C   0  0  0  0  0  2  0  0  0  0  0  0
  181.2460  178.2560  140.0220 S   0  0  0  0  0  0  0  0  0  0  0  0
  181.4060  175.3830  138.8610 C   0  0  0  0  0  2  0  0  0  0  0  0
  180.4820  179.1530  139.0900 O   0  0  0  0  0  0  0  0  0  0  0  0
  190.7510  176.5020  139.7810 C   0  0  0  0  0  2  0  0  0  0  0  0
  191.9300  177.2830  139.2360 C   0  0  0  0  0  2  0  0  0  0  0  0
  192.9220  176.3380  138.5830 C   0  0  2  0  0  3  0  0  0  0  0  0
  193.6730  177.0270  137.6260 O   0  0  0  0  0  1  0  0  0  0  0  0
  192.1670  175.1990  137.9190 C   0  0  0  0  0  2  0  0  0  0  0  0
  192.2700  175.2810  136.4020 C   0  0  2  0  0  3  0  0  0  0  0  0
  190.4070  174.4950  135.1070 O   0  0  0  0  0  0  0  0  0  0  0  0
  190.2220  176.6270  135.9310 O   0  0  0  0  0  1  0  0  0  0  0  0
  190.9180  175.4360  135.7720 C   0  0  0  0  0  0  0  0  0  0  0  0
  192.9590  174.0330  135.8760 C   0  0  0  0  0  2  0  0  0  0  0  0
  195.1840  173.6450  136.8540 C   0  0  0  0  0  0  0  0  0  0  0  0
  193.8870  173.5190  136.8740 N   0  0  0  0  0  0  0  0  0  0  0  0
  195.9100  174.4140  135.7990 C   0  0  0  0  0  0  0  0  0  0  0  0
  196.3280  173.8170  134.7700 O   0  0  0  0  0  0  0  0  0  0  0  0
  196.8960  176.5770  134.9480 C   0  0  0  0  0  1  0  0  0  0  0  0
  196.1770  175.8120  135.9530 N   0  0  0  0  0  2  0  0  0  0  0  0
  195.1930  172.9480  139.1610 O   0  0  0  0  0  1  0  0  0  0  0  0
  195.9380  172.9890  137.9780 C   0  0  1  0  0  3  0  0  0  0  0  0
  196.4880  171.6130  137.6090 C   0  0  0  0  0  2  0  0  0  0  0  0
  195.4470  170.5140  137.7480 C   0  0  0  0  0  2  0  0  0  0  0  0
  195.4100  169.6920  136.4760 C   0  0  0  0  0  1  0  0  0  0  0  0
  1 10  1  0  0  0  0
  2 33  1  0  0  0  0
  2  1  2  0  0  0  0
  4 12  2  0  0  0  0
  4  6  1  0  0  0  0
  5  3  1  0  0  0  0
  6  5  2  0  0  0  0
  7  6  1  0  0  0  0
  7 15  1  1  0  0  0
  8 13  1  0  0  0  0
  9  3  2  0  0  0  0
 10  8  1  0  0  0  0
 10 11  2  0  0  0  0
 11  4  1  0  0  0  0
 12  9  1  0  0  0  0
 13  7  1  0  0  0  0
 15 14  2  0  0  0  0
 15 17  1  0  0  0  0
 17 16  1  0  0  0  0
 18  1  1  0  0  0  0
 19 18  1  0  0  0  0
 20 22  1  0  0  0  0
 21 19  2  0  0  0  0
 22 23  1  0  0  0  0
 22 21  2  0  0  0  0
 23 24  1  0  0  0  0
 25 30  1  0  0  0  0
 26 24  1  1  0  0  0
 26 31  1  0  0  0  0
 26 25  1  0  0  0  0
 28 29  1  0  0  0  0
 30 29  1  0  0  0  0
 30 27  2  0  0  0  0
 31 28  1  0  0  0  0
 32 30  2  0  0  0  0
 34 33  1  0  0  0  0
 35 36  1  6  0  0  0
 35 34  1  0  0  0  0
 37 35  1  0  0  0  0
 38 42  1  6  0  0  0
 38 37  1  0  0  0  0
 39 41  2  0  0  0  0
 41 40  1  0  0  0  0
 41 38  1  0  0  0  0
 42 44  1  0  0  0  0
 43 44  2  0  0  0  0
 43 50  1  0  0  0  0
 45 48  1  0  0  0  0
 45 43  1  0  0  0  0
 46 45  2  0  0  0  0
 47 48  1  0  0  0  0
 50 49  1  1  0  0  0
 51 52  1  0  0  0  0
 51 50  1  0  0  0  0
 53 52  1  0  0  0  0
M  END
>  <MODEL>
5

>  <REMARK>
 VINA RESULT:      -6.4      3.088      8.724
  Name = 
  20 active torsions:
  status: ('A' for Active; 'I' for Inactive)
    1  A    between atoms: C_4  and  C_10
    2  A    between atoms: C_6  and  O_15
    3  A    between atoms: C_7  and  C_10
    4  A    between atoms: C_7  and  C_42
    5  A    between atoms: C_8  and  C_19
    6  A    between atoms: C_9  and  C_14
    7  A    between atoms: C_9  and  C_21
    8  A    between atoms: C_11  and  C_19
    9  A    between atoms: C_11  and  C_39
   10  A    between atoms: C_14  and  C_33
   11  A    between atoms: C_14  and  C_40
   12  A    between atoms: O_15  and  C_16
   13  A    between atoms: C_16  and  C_30
   14  A    between atoms: C_20  and  C_39
   15  A    between atoms: C_21  and  C_28
   16  A    between atoms: C_22  and  C_28
   17  A    between atoms: C_22  and  C_50
   18  A    between atoms: C_32  and  C_51
   19  A    between atoms: C_35  and  C_51
   20  A    between atoms: C_40  and  N_48
                            x       y       z     vdW  Elec       q    Type
                         _______ _______ _______ _____ _____    ______ ____

>  <TORSDO>
F 20

$$$$
=
 OpenBabel10232409313D

 53 55  0  0  1  0  0  0  0  0999 V2000
  190.4410  176.8880  138.8690 C   0  0  0  0  0  0  0  0  0  0  0  0
  190.6200  177.4150  140.0900 C   0  0  0  0  0  3  0  0  0  0  0  0
  193.1850  172.1520  134.9770 C   0  0  0  0  0  3  0  0  0  0  0  0
  191.9110  174.0470  136.6240 C   0  0  0  0  0  0  0  0  0  0  0  0
  193.9400  173.1000  135.6670 C   0  0  0  0  0  3  0  0  0  0  0  0
  193.3340  174.0420  136.5190 C   0  0  0  0  0  0  0  0  0  0  0  0
  194.2120  175.0800  137.1960 C   0  0  1  0  0  3  0  0  0  0  0  0
  192.8760  176.5270  138.1640 C   0  0  0  0  0  2  0  0  0  0  0  0
  191.7990  172.1390  135.1130 C   0  0  0  0  0  3  0  0  0  0  0  0
  191.4500  176.0790  138.1210 C   0  0  0  0  0  0  0  0  0  0  0  0
  191.0890  174.9910  137.4220 C   0  0  0  0  0  3  0  0  0  0  0  0
  191.1730  173.0820  135.9260 C   0  0  0  0  0  3  0  0  0  0  0  0
  193.7000  175.4400  138.4430 O   0  0  0  0  0  0  0  0  0  0  0  0
  195.9930  174.0530  138.3520 O   0  0  0  0  0  0  0  0  0  0  0  0
  195.6480  174.6630  137.3500 C   0  0  0  0  0  0  0  0  0  0  0  0
  197.6880  175.7660  136.8810 O   0  0  0  0  0  1  0  0  0  0  0  0
  196.6610  175.0160  136.3080 C   0  0  0  0  0  2  0  0  0  0  0  0
  189.1190  177.1620  138.2240 C   0  0  0  0  0  2  0  0  0  0  0  0
  188.2100  177.8330  139.1930 C   0  0  0  0  0  3  0  0  0  0  0  0
  185.2120  179.6380  138.9070 O   0  0  0  0  0  1  0  0  0  0  0  0
  186.9880  178.1290  138.8490 C   0  0  0  0  0  0  0  0  0  0  0  0
  185.7660  178.4260  138.5120 C   0  0  0  0  0  0  0  0  0  0  0  0
  184.9550  177.4570  137.7240 C   0  0  0  0  0  2  0  0  0  0  0  0
  185.6940  177.0100  136.6130 O   0  0  0  0  0  0  0  0  0  0  0  0
  186.8070  174.8590  137.0000 C   0  0  0  0  0  2  0  0  0  0  0  0
  185.5630  175.6080  136.5060 C   0  0  2  0  0  3  0  0  0  0  0  0
  187.8210  172.3650  137.0550 O   0  0  0  0  0  0  0  0  0  0  0  0
  184.5850  173.7110  135.1570 C   0  0  0  0  0  2  0  0  0  0  0  0
  185.7300  172.7360  135.3970 C   0  0  0  0  0  2  0  0  0  0  0  0
  186.5160  173.1030  136.9530 S   0  0  0  0  0  0  0  0  0  0  0  0
  185.0830  175.1540  135.1180 C   0  0  0  0  0  2  0  0  0  0  0  0
  185.6180  172.7030  138.0890 O   0  0  0  0  0  0  0  0  0  0  0  0
  191.8460  177.2780  140.9300 C   0  0  0  0  0  2  0  0  0  0  0  0
  191.4610  177.2440  142.3950 C   0  0  0  0  0  2  0  0  0  0  0  0
  190.0210  177.6910  142.5650 C   0  0  2  0  0  3  0  0  0  0  0  0
  189.9840  178.9440  143.1830 O   0  0  0  0  0  1  0  0  0  0  0  0
  189.2770  176.6770  143.4170 C   0  0  0  0  0  2  0  0  0  0  0  0
  188.6300  177.3410  144.6250 C   0  0  2  0  0  3  0  0  0  0  0  0
  188.7880  177.0180  146.9990 O   0  0  0  0  0  1  0  0  0  0  0  0
  190.7370  176.7460  145.8230 O   0  0  0  0  0  0  0  0  0  0  0  0
  189.3800  177.0310  145.8860 C   0  0  0  0  0  0  0  0  0  0  0  0
  187.1870  176.8800  144.7400 C   0  0  0  0  0  2  0  0  0  0  0  0
  185.4320  178.5730  144.4060 C   0  0  0  0  0  0  0  0  0  0  0  0
  186.3240  177.7440  143.9440 N   0  0  0  0  0  0  0  0  0  0  0  0
  185.2120  178.8020  145.8660 C   0  0  0  0  0  0  0  0  0  0  0  0
  184.1360  178.4180  146.4000 O   0  0  0  0  0  0  0  0  0  0  0  0
  185.9850  179.7320  148.0820 C   0  0  0  0  0  1  0  0  0  0  0  0
  186.1840  179.4850  146.6640 N   0  0  0  0  0  2  0  0  0  0  0  0
  184.6880  178.7350  142.1190 O   0  0  0  0  0  1  0  0  0  0  0  0
  184.6280  179.3300  143.3840 C   0  0  1  0  0  3  0  0  0  0  0  0
  183.1870  179.5850  143.8220 C   0  0  0  0  0  2  0  0  0  0  0  0
  182.2690  178.4140  143.5100 C   0  0  0  0  0  2  0  0  0  0  0  0
  180.8420  178.7900  143.8480 C   0  0  0  0  0  1  0  0  0  0  0  0
  1  2  2  0  0  0  0
  2 33  1  0  0  0  0
  3  9  2  0  0  0  0
  3  5  1  0  0  0  0
  4 11  1  0  0  0  0
  5  6  2  0  0  0  0
  6  4  1  0  0  0  0
  6  7  1  0  0  0  0
  7 15  1  1  0  0  0
  7 13  1  0  0  0  0
  8 13  1  0  0  0  0
  9 12  1  0  0  0  0
 10  8  1  0  0  0  0
 10  1  1  0  0  0  0
 11 10  2  0  0  0  0
 12  4  2  0  0  0  0
 15 14  2  0  0  0  0
 17 16  1  0  0  0  0
 17 15  1  0  0  0  0
 18  1  1  0  0  0  0
 18 19  1  0  0  0  0
 21 19  2  0  0  0  0
 22 21  2  0  0  0  0
 22 20  1  0  0  0  0
 23 22  1  0  0  0  0
 24 23  1  0  0  0  0
 26 24  1  6  0  0  0
 26 25  1  0  0  0  0
 28 29  1  0  0  0  0
 29 30  1  0  0  0  0
 30 25  1  0  0  0  0
 30 27  2  0  0  0  0
 30 32  2  0  0  0  0
 31 28  1  0  0  0  0
 31 26  1  0  0  0  0
 33 34  1  0  0  0  0
 34 35  1  0  0  0  0
 35 36  1  1  0  0  0
 35 37  1  0  0  0  0
 38 37  1  6  0  0  0
 38 42  1  0  0  0  0
 38 41  1  0  0  0  0
 40 41  2  0  0  0  0
 41 39  1  0  0  0  0
 43 45  1  0  0  0  0
 44 43  2  0  0  0  0
 44 42  1  0  0  0  0
 45 46  2  0  0  0  0
 45 48  1  0  0  0  0
 48 47  1  0  0  0  0
 50 49  1  6  0  0  0
 50 51  1  0  0  0  0
 50 43  1  0  0  0  0
 52 51  1  0  0  0  0
 52 53  1  0  0  0  0
M  END
>  <MODEL>
6

>  <REMARK>
 VINA RESULT:      -6.4      3.482     10.545
  Name = 
  20 active torsions:
  status: ('A' for Active; 'I' for Inactive)
    1  A    between atoms: C_4  and  C_10
    2  A    between atoms: C_6  and  O_15
    3  A    between atoms: C_7  and  C_10
    4  A    between atoms: C_7  and  C_42
    5  A    between atoms: C_8  and  C_19
    6  A    between atoms: C_9  and  C_14
    7  A    between atoms: C_9  and  C_21
    8  A    between atoms: C_11  and  C_19
    9  A    between atoms: C_11  and  C_39
   10  A    between atoms: C_14  and  C_33
   11  A    between atoms: C_14  and  C_40
   12  A    between atoms: O_15  and  C_16
   13  A    between atoms: C_16  and  C_30
   14  A    between atoms: C_20  and  C_39
   15  A    between atoms: C_21  and  C_28
   16  A    between atoms: C_22  and  C_28
   17  A    between atoms: C_22  and  C_50
   18  A    between atoms: C_32  and  C_51
   19  A    between atoms: C_35  and  C_51
   20  A    between atoms: C_40  and  N_48
                            x       y       z     vdW  Elec       q    Type
                         _______ _______ _______ _____ _____    ______ ____

>  <TORSDO>
F 20

$$$$
=
 OpenBabel10232409313D

 53 55  0  0  1  0  0  0  0  0999 V2000
  184.5490  178.3890  141.6360 C   0  0  0  0  0  0  0  0  0  0  0  0
  185.8710  178.5900  141.5230 C   0  0  0  0  0  3  0  0  0  0  0  0
  180.9370  176.0970  136.4580 C   0  0  0  0  0  3  0  0  0  0  0  0
  182.5470  176.9390  138.6090 C   0  0  0  0  0  0  0  0  0  0  0  0
  180.9140  177.4290  136.8690 C   0  0  0  0  0  3  0  0  0  0  0  0
  181.7280  177.8850  137.9230 C   0  0  0  0  0  0  0  0  0  0  0  0
  181.6120  179.3370  138.3550 C   0  0  1  0  0  3  0  0  0  0  0  0
  182.7880  179.5630  140.1930 C   0  0  0  0  0  2  0  0  0  0  0  0
  181.7650  175.1860  137.1080 C   0  0  0  0  0  3  0  0  0  0  0  0
  183.5840  178.3340  140.4960 C   0  0  0  0  0  0  0  0  0  0  0  0
  183.4270  177.2140  139.7720 C   0  0  0  0  0  3  0  0  0  0  0  0
  182.5580  175.6080  138.1740 C   0  0  0  0  0  3  0  0  0  0  0  0
  182.8320  179.8240  138.8260 O   0  0  0  0  0  0  0  0  0  0  0  0
  181.1380  179.9050  136.1150 O   0  0  0  0  0  0  0  0  0  0  0  0
  181.0910  180.2550  137.2850 C   0  0  0  0  0  0  0  0  0  0  0  0
  180.5620  182.4280  136.5100 O   0  0  0  0  0  1  0  0  0  0  0  0
  180.5490  181.6050  137.6360 C   0  0  0  0  0  2  0  0  0  0  0  0
  184.0270  178.2250  143.0280 C   0  0  0  0  0  2  0  0  0  0  0  0
  184.5320  179.3250  143.8940 C   0  0  0  0  0  3  0  0  0  0  0  0
  185.6150  179.5300  147.2270 O   0  0  0  0  0  1  0  0  0  0  0  0
  185.1880  179.0510  144.9850 C   0  0  0  0  0  0  0  0  0  0  0  0
  185.8460  178.7840  146.0780 C   0  0  0  0  0  0  0  0  0  0  0  0
  186.8610  177.6950  146.0870 C   0  0  0  0  0  2  0  0  0  0  0  0
  186.9500  177.1150  144.8080 O   0  0  0  0  0  0  0  0  0  0  0  0
  189.1400  178.2060  144.6360 C   0  0  0  0  0  2  0  0  0  0  0  0
  188.3110  176.9250  144.4810 C   0  0  2  0  0  3  0  0  0  0  0  0
  191.6080  179.1380  144.0960 O   0  0  0  0  0  0  0  0  0  0  0  0
  189.9350  175.6920  142.9930 C   0  0  0  0  0  2  0  0  0  0  0  0
  190.9410  176.8290  142.8770 C   0  0  0  0  0  2  0  0  0  0  0  0
  190.8590  177.8570  144.3300 S   0  0  0  0  0  0  0  0  0  0  0  0
  188.5100  176.2240  143.1270 C   0  0  0  0  0  2  0  0  0  0  0  0
  191.4500  177.1310  145.5050 O   0  0  0  0  0  0  0  0  0  0  0  0
  186.6210  178.7780  140.2470 C   0  0  0  0  0  2  0  0  0  0  0  0
  188.0550  178.3200  140.4250 C   0  0  0  0  0  2  0  0  0  0  0  0
  188.6070  177.8140  139.1040 C   0  0  2  0  0  3  0  0  0  0  0  0
  189.2930  178.8410  138.4530 O   0  0  0  0  0  1  0  0  0  0  0  0
  187.4590  177.3310  138.2330 C   0  0  0  0  0  2  0  0  0  0  0  0
  187.8470  177.3310  136.7610 C   0  0  2  0  0  3  0  0  0  0  0  0
  187.0140  178.4290  134.7960 O   0  0  0  0  0  0  0  0  0  0  0  0
  185.4360  177.8210  136.3440 O   0  0  0  0  0  1  0  0  0  0  0  0
  186.7520  177.8960  135.9070 C   0  0  0  0  0  0  0  0  0  0  0  0
  188.1780  175.9120  136.3280 C   0  0  0  0  0  2  0  0  0  0  0  0
  190.0570  174.3660  136.6990 C   0  0  0  0  0  0  0  0  0  0  0  0
  189.4930  175.5330  136.8290 N   0  0  0  0  0  0  0  0  0  0  0  0
  189.4340  173.2420  135.9380 C   0  0  0  0  0  0  0  0  0  0  0  0
  189.7700  173.0390  134.7400 O   0  0  0  0  0  0  0  0  0  0  0  0
  187.7980  171.3230  135.8060 C   0  0  0  0  0  1  0  0  0  0  0  0
  188.4290  172.4130  136.5310 N   0  0  0  0  0  2  0  0  0  0  0  0
  192.3660  173.7240  136.4390 O   0  0  0  0  0  1  0  0  0  0  0  0
  191.4070  174.2000  137.3410 C   0  0  1  0  0  3  0  0  0  0  0  0
  191.8870  175.4550  138.0660 C   0  0  0  0  0  2  0  0  0  0  0  0
  193.1820  176.0020  137.4880 C   0  0  0  0  0  2  0  0  0  0  0  0
  194.3180  175.0560  137.8160 C   0  0  0  0  0  1  0  0  0  0  0  0
  1 18  1  0  0  0  0
  2  1  2  0  0  0  0
  3  5  2  0  0  0  0
  3  9  1  0  0  0  0
  4 11  1  0  0  0  0
  5  6  1  0  0  0  0
  6  7  1  0  0  0  0
  6  4  2  0  0  0  0
  7 15  1  6  0  0  0
  7 13  1  0  0  0  0
  8 10  1  0  0  0  0
  9 12  2  0  0  0  0
 10  1  1  0  0  0  0
 11 10  2  0  0  0  0
 12  4  1  0  0  0  0
 13  8  1  0  0  0  0
 14 15  2  0  0  0  0
 15 17  1  0  0  0  0
 16 17  1  0  0  0  0
 18 19  1  0  0  0  0
 19 21  2  0  0  0  0
 21 22  2  0  0  0  0
 22 23  1  0  0  0  0
 22 20  1  0  0  0  0
 24 23  1  0  0  0  0
 26 25  1  0  0  0  0
 26 24  1  6  0  0  0
 27 30  2  0  0  0  0
 28 31  1  0  0  0  0
 29 28  1  0  0  0  0
 29 30  1  0  0  0  0
 30 25  1  0  0  0  0
 30 32  2  0  0  0  0
 31 26  1  0  0  0  0
 33 34  1  0  0  0  0
 33  2  1  0  0  0  0
 35 36  1  6  0  0  0
 35 34  1  0  0  0  0
 37 35  1  0  0  0  0
 38 42  1  6  0  0  0
 38 37  1  0  0  0  0
 39 41  2  0  0  0  0
 41 40  1  0  0  0  0
 41 38  1  0  0  0  0
 42 44  1  0  0  0  0
 43 44  2  0  0  0  0
 43 50  1  0  0  0  0
 45 48  1  0  0  0  0
 45 43  1  0  0  0  0
 46 45  2  0  0  0  0
 47 48  1  0  0  0  0
 50 49  1  6  0  0  0
 50 51  1  0  0  0  0
 52 53  1  0  0  0  0
 52 51  1  0  0  0  0
M  END
>  <MODEL>
7

>  <REMARK>
 VINA RESULT:      -6.3      1.333      2.598
  Name = 
  20 active torsions:
  status: ('A' for Active; 'I' for Inactive)
    1  A    between atoms: C_4  and  C_10
    2  A    between atoms: C_6  and  O_15
    3  A    between atoms: C_7  and  C_10
    4  A    between atoms: C_7  and  C_42
    5  A    between atoms: C_8  and  C_19
    6  A    between atoms: C_9  and  C_14
    7  A    between atoms: C_9  and  C_21
    8  A    between atoms: C_11  and  C_19
    9  A    between atoms: C_11  and  C_39
   10  A    between atoms: C_14  and  C_33
   11  A    between atoms: C_14  and  C_40
   12  A    between atoms: O_15  and  C_16
   13  A    between atoms: C_16  and  C_30
   14  A    between atoms: C_20  and  C_39
   15  A    between atoms: C_21  and  C_28
   16  A    between atoms: C_22  and  C_28
   17  A    between atoms: C_22  and  C_50
   18  A    between atoms: C_32  and  C_51
   19  A    between atoms: C_35  and  C_51
   20  A    between atoms: C_40  and  N_48
                            x       y       z     vdW  Elec       q    Type
                         _______ _______ _______ _____ _____    ______ ____

>  <TORSDO>
F 20

$$$$
=
 OpenBabel10232409313D

 53 55  0  0  1  0  0  0  0  0999 V2000
  184.5240  178.4140  142.1050 C   0  0  0  0  0  0  0  0  0  0  0  0
  185.8360  178.6310  141.9240 C   0  0  0  0  0  3  0  0  0  0  0  0
  180.2620  175.8800  137.5740 C   0  0  0  0  0  3  0  0  0  0  0  0
  182.1180  176.8060  139.4780 C   0  0  0  0  0  0  0  0  0  0  0  0
  180.5190  177.2450  137.6950 C   0  0  0  0  0  3  0  0  0  0  0  0
  181.4620  177.7350  138.6180 C   0  0  0  0  0  0  0  0  0  0  0  0
  181.6520  179.2380  138.7330 C   0  0  1  0  0  3  0  0  0  0  0  0
  182.9470  179.5960  140.4680 C   0  0  0  0  0  2  0  0  0  0  0  0
  180.9330  174.9750  138.3920 C   0  0  0  0  0  3  0  0  0  0  0  0
  183.5060  178.3210  141.0140 C   0  0  0  0  0  0  0  0  0  0  0  0
  183.0970  177.1310  140.5460 C   0  0  0  0  0  3  0  0  0  0  0  0
  181.8480  175.4390  139.3360 C   0  0  0  0  0  3  0  0  0  0  0  0
  182.9660  179.5570  139.0760 O   0  0  0  0  0  0  0  0  0  0  0  0
  181.4310  179.4980  136.4000 O   0  0  0  0  0  0  0  0  0  0  0  0
  181.2610  180.0030  137.5000 C   0  0  0  0  0  0  0  0  0  0  0  0
  180.4740  181.7040  138.9440 O   0  0  0  0  0  1  0  0  0  0  0  0
  180.7000  181.3850  137.6050 C   0  0  0  0  0  2  0  0  0  0  0  0
  184.0710  178.2750  143.5240 C   0  0  0  0  0  2  0  0  0  0  0  0
  184.6290  179.3820  144.3470 C   0  0  0  0  0  3  0  0  0  0  0  0
  185.8760  179.6240  147.6200 O   0  0  0  0  0  1  0  0  0  0  0  0
  185.3350  179.1170  145.4090 C   0  0  0  0  0  0  0  0  0  0  0  0
  186.0430  178.8590  146.4720 C   0  0  0  0  0  0  0  0  0  0  0  0
  187.0470  177.7600  146.4480 C   0  0  0  0  0  2  0  0  0  0  0  0
  187.2470  177.3260  145.1250 O   0  0  0  0  0  0  0  0  0  0  0  0
  189.4630  177.0170  146.1310 C   0  0  0  0  0  2  0  0  0  0  0  0
  188.6340  177.2650  144.8650 C   0  0  2  0  0  3  0  0  0  0  0  0
  192.0340  176.9720  146.9320 O   0  0  0  0  0  0  0  0  0  0  0  0
  190.5190  178.1530  143.4390 C   0  0  0  0  0  2  0  0  0  0  0  0
  191.5810  178.1040  144.5290 C   0  0  0  0  0  2  0  0  0  0  0  0
  191.1810  176.8260  145.7040 S   0  0  0  0  0  0  0  0  0  0  0  0
  189.1390  178.4470  144.0210 C   0  0  0  0  0  2  0  0  0  0  0  0
  191.4070  175.4740  145.0880 O   0  0  0  0  0  0  0  0  0  0  0  0
  186.5210  178.8000  140.6100 C   0  0  0  0  0  2  0  0  0  0  0  0
  187.8980  178.1700  140.6660 C   0  0  0  0  0  2  0  0  0  0  0  0
  188.2890  177.6500  139.2950 C   0  0  2  0  0  3  0  0  0  0  0  0
  189.4820  178.2480  138.8840 O   0  0  0  0  0  1  0  0  0  0  0  0
  187.1850  177.9740  138.3020 C   0  0  0  0  0  2  0  0  0  0  0  0
  187.3830  177.2220  136.9930 C   0  0  2  0  0  3  0  0  0  0  0  0
  189.2020  178.3760  135.9320 O   0  0  0  0  0  1  0  0  0  0  0  0
  187.1460  178.6380  134.9510 O   0  0  0  0  0  0  0  0  0  0  0  0
  187.9700  178.1110  135.9370 C   0  0  0  0  0  0  0  0  0  0  0  0
  186.0510  176.6570  136.5300 C   0  0  0  0  0  2  0  0  0  0  0  0
  185.0620  174.4040  136.4920 C   0  0  0  0  0  0  0  0  0  0  0  0
  185.9330  175.2630  136.9380 N   0  0  0  0  0  0  0  0  0  0  0  0
  184.0740  174.7290  135.4190 C   0  0  0  0  0  0  0  0  0  0  0  0
  184.0810  174.0670  134.3460 O   0  0  0  0  0  0  0  0  0  0  0  0
  182.1860  176.1520  134.5340 C   0  0  0  0  0  1  0  0  0  0  0  0
  183.1450  175.8070  135.5700 N   0  0  0  0  0  2  0  0  0  0  0  0
  183.8600  172.6240  137.5850 O   0  0  0  0  0  1  0  0  0  0  0  0
  185.1070  173.0280  137.0970 C   0  0  1  0  0  3  0  0  0  0  0  0
  185.7170  171.9820  136.1660 C   0  0  0  0  0  2  0  0  0  0  0  0
  187.2180  172.1540  136.0020 C   0  0  0  0  0  2  0  0  0  0  0  0
  187.8560  172.3310  137.3630 C   0  0  0  0  0  1  0  0  0  0  0  0
  1 18  1  0  0  0  0
  2  1  2  0  0  0  0
  3  5  2  0  0  0  0
  3  9  1  0  0  0  0
  4 11  1  0  0  0  0
  5  6  1  0  0  0  0
  6  7  1  0  0  0  0
  6  4  2  0  0  0  0
  7 15  1  6  0  0  0
  7 13  1  0  0  0  0
  8 10  1  0  0  0  0
  9 12  2  0  0  0  0
 10  1  1  0  0  0  0
 11 10  2  0  0  0  0
 12  4  1  0  0  0  0
 13  8  1  0  0  0  0
 14 15  2  0  0  0  0
 15 17  1  0  0  0  0
 17 16  1  0  0  0  0
 18 19  1  0  0  0  0
 19 21  2  0  0  0  0
 21 22  2  0  0  0  0
 22 20  1  0  0  0  0
 23 22  1  0  0  0  0
 24 23  1  0  0  0  0
 26 24  1  1  0  0  0
 26 25  1  0  0  0  0
 28 31  1  0  0  0  0
 28 29  1  0  0  0  0
 29 30  1  0  0  0  0
 30 25  1  0  0  0  0
 30 27  2  0  0  0  0
 31 26  1  0  0  0  0
 32 30  2  0  0  0  0
 33 34  1  0  0  0  0
 33  2  1  0  0  0  0
 35 36  1  6  0  0  0
 35 34  1  0  0  0  0
 37 35  1  0  0  0  0
 38 42  1  6  0  0  0
 38 37  1  0  0  0  0
 39 41  1  0  0  0  0
 40 41  2  0  0  0  0
 41 38  1  0  0  0  0
 42 44  1  0  0  0  0
 43 44  2  0  0  0  0
 43 50  1  0  0  0  0
 45 48  1  0  0  0  0
 45 43  1  0  0  0  0
 46 45  2  0  0  0  0
 47 48  1  0  0  0  0
 50 49  1  6  0  0  0
 51 50  1  0  0  0  0
 52 51  1  0  0  0  0
 52 53  1  0  0  0  0
M  END
>  <MODEL>
8

>  <REMARK>
 VINA RESULT:      -6.3      1.805      2.865
  Name = 
  20 active torsions:
  status: ('A' for Active; 'I' for Inactive)
    1  A    between atoms: C_4  and  C_10
    2  A    between atoms: C_6  and  O_15
    3  A    between atoms: C_7  and  C_10
    4  A    between atoms: C_7  and  C_42
    5  A    between atoms: C_8  and  C_19
    6  A    between atoms: C_9  and  C_14
    7  A    between atoms: C_9  and  C_21
    8  A    between atoms: C_11  and  C_19
    9  A    between atoms: C_11  and  C_39
   10  A    between atoms: C_14  and  C_33
   11  A    between atoms: C_14  and  C_40
   12  A    between atoms: O_15  and  C_16
   13  A    between atoms: C_16  and  C_30
   14  A    between atoms: C_20  and  C_39
   15  A    between atoms: C_21  and  C_28
   16  A    between atoms: C_22  and  C_28
   17  A    between atoms: C_22  and  C_50
   18  A    between atoms: C_32  and  C_51
   19  A    between atoms: C_35  and  C_51
   20  A    between atoms: C_40  and  N_48
                            x       y       z     vdW  Elec       q    Type
                         _______ _______ _______ _____ _____    ______ ____

>  <TORSDO>
F 20

$$$$
=
 OpenBabel10232409313D

 53 55  0  0  1  0  0  0  0  0999 V2000
  188.7110  177.4590  139.4510 C   0  0  0  0  0  0  0  0  0  0  0  0
  189.5280  176.9070  138.5410 C   0  0  0  0  0  3  0  0  0  0  0  0
  187.4580  177.6570  146.0470 C   0  0  0  0  0  3  0  0  0  0  0  0
  187.8530  177.6520  143.2590 C   0  0  0  0  0  0  0  0  0  0  0  0
  188.7380  177.4820  145.5220 C   0  0  0  0  0  3  0  0  0  0  0  0
  188.9700  177.5020  144.1340 C   0  0  0  0  0  0  0  0  0  0  0  0
  190.3810  177.2510  143.6300 C   0  0  1  0  0  3  0  0  0  0  0  0
  190.2640  177.0540  141.4480 C   0  0  0  0  0  2  0  0  0  0  0  0
  186.3770  177.8390  145.1890 C   0  0  0  0  0  3  0  0  0  0  0  0
  188.9040  177.4020  140.9320 C   0  0  0  0  0  0  0  0  0  0  0  0
  187.8870  177.6440  141.7750 C   0  0  0  0  0  3  0  0  0  0  0  0
  186.5780  177.8320  143.8090 C   0  0  0  0  0  3  0  0  0  0  0  0
  190.6290  177.9510  142.4480 O   0  0  0  0  0  0  0  0  0  0  0  0
  192.0030  178.6620  144.5990 O   0  0  0  0  0  0  0  0  0  0  0  0
  191.4560  177.5690  144.6300 C   0  0  0  0  0  0  0  0  0  0  0  0
  191.9730  175.2970  145.0380 O   0  0  0  0  0  1  0  0  0  0  0  0
  191.8860  176.5520  145.6390 C   0  0  0  0  0  2  0  0  0  0  0  0
  187.5090  178.1670  138.9100 C   0  0  0  0  0  2  0  0  0  0  0  0
  187.2390  177.7180  137.5170 C   0  0  0  0  0  3  0  0  0  0  0  0
  185.2940  175.1660  136.0920 O   0  0  0  0  0  1  0  0  0  0  0  0
  186.2060  176.9650  137.2600 C   0  0  0  0  0  0  0  0  0  0  0  0
  185.1750  176.2140  136.9970 C   0  0  0  0  0  0  0  0  0  0  0  0
  183.8660  176.4930  137.6460 C   0  0  0  0  0  2  0  0  0  0  0  0
  184.0670  177.2380  138.8230 O   0  0  0  0  0  0  0  0  0  0  0  0
  182.9370  178.3120  140.7170 C   0  0  0  0  0  2  0  0  0  0  0  0
  182.8120  177.5380  139.3990 C   0  0  2  0  0  3  0  0  0  0  0  0
  181.4000  179.1640  142.7580 O   0  0  0  0  0  0  0  0  0  0  0  0
  180.4420  176.7400  139.7410 C   0  0  0  0  0  2  0  0  0  0  0  0
  180.2730  177.3320  141.1340 C   0  0  0  0  0  2  0  0  0  0  0  0
  181.3210  178.7620  141.3120 S   0  0  0  0  0  0  0  0  0  0  0  0
  181.8860  176.3140  139.4910 C   0  0  0  0  0  2  0  0  0  0  0  0
  180.7760  179.9020  140.4990 O   0  0  0  0  0  0  0  0  0  0  0  0
  190.7830  176.1550  138.8350 C   0  0  0  0  0  2  0  0  0  0  0  0
  191.9690  176.8880  138.2400 C   0  0  0  0  0  2  0  0  0  0  0  0
  192.7040  175.9850  137.2670 C   0  0  2  0  0  3  0  0  0  0  0  0
  192.1040  176.0590  136.0070 O   0  0  0  0  0  1  0  0  0  0  0  0
  192.6530  174.5530  137.7740 C   0  0  0  0  0  2  0  0  0  0  0  0
  194.0170  173.8850  137.6740 C   0  0  2  0  0  3  0  0  0  0  0  0
  195.1230  175.3330  139.2370 O   0  0  0  0  0  1  0  0  0  0  0  0
  196.1340  175.1150  137.1900 O   0  0  0  0  0  0  0  0  0  0  0  0
  195.1140  174.8200  138.0860 C   0  0  0  0  0  0  0  0  0  0  0  0
  194.2380  173.4020  136.2500 C   0  0  0  0  0  2  0  0  0  0  0  0
  195.0860  171.1020  136.0370 C   0  0  0  0  0  0  0  0  0  0  0  0
  194.1110  171.9520  136.1910 N   0  0  0  0  0  0  0  0  0  0  0  0
  196.5200  171.5140  135.9620 C   0  0  0  0  0  0  0  0  0  0  0  0
  197.1600  171.7380  137.0250 O   0  0  0  0  0  0  0  0  0  0  0  0
  198.5620  172.1140  134.6040 C   0  0  0  0  0  1  0  0  0  0  0  0
  197.1730  171.6990  134.7020 N   0  0  0  0  0  2  0  0  0  0  0  0
  195.7560  168.8480  135.5100 O   0  0  0  0  0  1  0  0  0  0  0  0
  194.7030  169.6500  135.9620 C   0  0  1  0  0  3  0  0  0  0  0  0
  194.1060  169.1180  137.2640 C   0  0  0  0  0  2  0  0  0  0  0  0
  195.0080  169.3660  138.4610 C   0  0  0  0  0  2  0  0  0  0  0  0
  195.5990  168.0520  138.9270 C   0  0  0  0  0  1  0  0  0  0  0  0
  1 10  1  0  0  0  0
  2 33  1  0  0  0  0
  2  1  2  0  0  0  0
  4 12  2  0  0  0  0
  4  6  1  0  0  0  0
  5  3  1  0  0  0  0
  6  5  2  0  0  0  0
  7  6  1  0  0  0  0
  7 15  1  1  0  0  0
  8 13  1  0  0  0  0
  9  3  2  0  0  0  0
 10  8  1  0  0  0  0
 10 11  2  0  0  0  0
 11  4  1  0  0  0  0
 12  9  1  0  0  0  0
 13  7  1  0  0  0  0
 14 15  2  0  0  0  0
 15 17  1  0  0  0  0
 16 17  1  0  0  0  0
 18  1  1  0  0  0  0
 19 18  1  0  0  0  0
 20 22  1  0  0  0  0
 21 19  2  0  0  0  0
 22 21  2  0  0  0  0
 22 23  1  0  0  0  0
 23 24  1  0  0  0  0
 25 30  1  0  0  0  0
 26 24  1  1  0  0  0
 26 31  1  0  0  0  0
 26 25  1  0  0  0  0
 28 29  1  0  0  0  0
 29 30  1  0  0  0  0
 30 27  2  0  0  0  0
 31 28  1  0  0  0  0
 32 30  2  0  0  0  0
 34 33  1  0  0  0  0
 35 36  1  6  0  0  0
 35 37  1  0  0  0  0
 35 34  1  0  0  0  0
 38 42  1  6  0  0  0
 38 37  1  0  0  0  0
 38 41  1  0  0  0  0
 40 41  2  0  0  0  0
 41 39  1  0  0  0  0
 43 44  2  0  0  0  0
 44 42  1  0  0  0  0
 45 43  1  0  0  0  0
 45 46  2  0  0  0  0
 47 48  1  0  0  0  0
 48 45  1  0  0  0  0
 50 49  1  1  0  0  0
 50 43  1  0  0  0  0
 50 51  1  0  0  0  0
 51 52  1  0  0  0  0
 52 53  1  0  0  0  0
M  END
>  <MODEL>
9

>  <REMARK>
 VINA RESULT:      -6.2      3.646      9.196
  Name = 
  20 active torsions:
  status: ('A' for Active; 'I' for Inactive)
    1  A    between atoms: C_4  and  C_10
    2  A    between atoms: C_6  and  O_15
    3  A    between atoms: C_7  and  C_10
    4  A    between atoms: C_7  and  C_42
    5  A    between atoms: C_8  and  C_19
    6  A    between atoms: C_9  and  C_14
    7  A    between atoms: C_9  and  C_21
    8  A    between atoms: C_11  and  C_19
    9  A    between atoms: C_11  and  C_39
   10  A    between atoms: C_14  and  C_33
   11  A    between atoms: C_14  and  C_40
   12  A    between atoms: O_15  and  C_16
   13  A    between atoms: C_16  and  C_30
   14  A    between atoms: C_20  and  C_39
   15  A    between atoms: C_21  and  C_28
   16  A    between atoms: C_22  and  C_28
   17  A    between atoms: C_22  and  C_50
   18  A    between atoms: C_32  and  C_51
   19  A    between atoms: C_35  and  C_51
   20  A    between atoms: C_40  and  N_48
                            x       y       z     vdW  Elec       q    Type
                         _______ _______ _______ _____ _____    ______ ____

>  <TORSDO>
F 20

$$$$
