=
 OpenBabel10232409503D

 45 51  0  0  1  0  0  0  0  0999 V2000
  190.2020  176.8230  136.8270 C   0  0  2  0  0  3  0  0  0  0  0  0
  188.6080  176.5020  138.5110 C   0  0  0  0  0  2  0  0  0  0  0  0
  188.4680  173.2480  135.5330 O   0  0  0  0  0  1  0  0  0  0  0  0
  191.0480  175.5510  136.5640 C   0  0  1  0  0  0  0  0  0  0  0  0
  191.4120  174.8410  137.8700 C   0  0  0  0  0  1  0  0  0  0  0  0
  190.6950  177.5260  137.9500 O   0  0  0  0  0  0  0  0  0  0  0  0
  190.2640  174.5860  135.6770 C   0  0  0  0  0  2  0  0  0  0  0  0
  188.0250  177.7480  136.6000 O   0  0  0  0  0  1  0  0  0  0  0  0
  188.1240  175.3800  136.2630 C   0  0  1  0  0  3  0  0  0  0  0  0
  188.7030  176.6010  137.0210 C   0  0  1  0  0  0  0  0  0  0  0  0
  189.7170  177.4300  138.9670 C   0  0  2  0  0  3  0  0  0  0  0  0
  189.0100  174.2130  136.3170 N   0  0  0  0  0  0  0  0  0  0  0  0
  186.5400  174.0460  137.4770 O   0  0  0  0  0  0  0  0  0  0  0  0
  186.7330  175.0470  136.7320 C   0  0  0  0  0  0  0  0  0  0  0  0
  185.6470  175.9070  136.3670 N   0  0  0  0  0  2  0  0  0  0  0  0
  182.3450  176.9220  136.2050 C   0  0  0  0  0  0  0  0  0  0  0  0
  183.9780  176.9260  137.9040 C   0  0  0  0  0  2  0  0  0  0  0  0
  182.2470  178.7350  137.4530 N   0  0  0  0  0  0  0  0  0  0  0  0
  181.5740  177.8480  135.5350 C   0  0  0  0  0  3  0  0  0  0  0  0
  182.7320  177.4880  137.3550 C   0  0  0  0  0  0  0  0  0  0  0  0
  183.2480  175.8520  135.7450 C   0  0  0  0  0  2  0  0  0  0  0  0
  180.7950  180.1460  136.0690 C   0  0  0  0  0  1  0  0  0  0  0  0
  181.4900  178.9080  136.3730 N   0  0  0  0  0  0  0  0  0  0  0  0
  184.2880  175.7930  136.8930 C   0  0  1  0  0  3  0  0  0  0  0  0
  190.3420  176.9470  140.2790 C   0  0  1  0  0  3  0  0  0  0  0  0
  191.7230  177.5500  140.4940 C   0  0  0  0  0  1  0  0  0  0  0  0
  189.4750  177.2000  141.4350 N   0  0  0  0  0  0  0  0  0  0  0  0
  189.6760  176.8220  142.6680 C   0  0  0  0  0  0  0  0  0  0  0  0
  186.6690  177.8260  142.4360 N   0  0  0  0  0  2  0  0  0  0  0  0
  188.6930  177.2030  143.6980 C   0  0  0  0  0  0  0  0  0  0  0  0
  187.4420  177.6160  143.4840 N   0  0  0  0  0  0  0  0  0  0  0  0
  185.5740  178.2780  144.3570 C   0  0  0  0  0  0  0  0  0  0  0  0
  185.4770  178.2460  142.9560 C   0  0  0  0  0  3  0  0  0  0  0  0
  186.8530  177.8640  144.6130 C   0  0  0  0  0  0  0  0  0  0  0  0
  187.6840  177.6310  145.6910 C   0  0  0  0  0  3  0  0  0  0  0  0
  188.8880  177.2000  145.0870 C   0  0  0  0  0  3  0  0  0  0  0  0
  183.3280  179.1520  145.5630 N   0  0  0  0  0  0  0  0  0  0  0  0
  184.1130  178.7710  146.6000 O   0  0  0  0  0  0  0  0  0  0  0  0
  184.5400  178.6600  145.3150 C   0  0  0  0  0  0  0  0  0  0  0  0
  190.8480  176.0650  143.0460 C   0  0  0  0  0  0  0  0  0  0  0  0
  191.7870  175.4620  143.3470 N   0  0  0  0  0  0  0  0  0  0  0  0
  192.3280  175.9950  135.8450 C   0  0  0  0  0  2  0  0  0  0  0  0
  193.5620  175.9080  136.6900 C   0  0  0  0  0  0  0  0  0  0  0  0
  193.8530  176.9130  137.6010 O   0  0  0  0  0  1  0  0  0  0  0  0
  194.3260  174.9140  136.5880 O   0  0  0  0  0  0  0  0  0  0  0  0
  1 10  1  0  0  0  0
  1  6  1  1  0  0  0
  2 11  1  0  0  0  0
  3 12  1  0  0  0  0
  4  1  1  0  0  0  0
  4  5  1  1  0  0  0
  6 11  1  0  0  0  0
  7 12  1  0  0  0  0
  7  4  1  0  0  0  0
  9 12  1  0  0  0  0
  9 14  1  1  0  0  0
  9 10  1  0  0  0  0
 10  8  1  6  0  0  0
 10  2  1  0  0  0  0
 11 25  1  1  0  0  0
 14 13  2  0  0  0  0
 15 14  1  0  0  0  0
 16 20  1  0  0  0  0
 19 16  2  0  0  0  0
 19 23  1  0  0  0  0
 20 18  2  0  0  0  0
 20 17  1  0  0  0  0
 21 16  1  0  0  0  0
 21 24  1  0  0  0  0
 22 23  1  0  0  0  0
 23 18  1  0  0  0  0
 24 15  1  6  0  0  0
 24 17  1  0  0  0  0
 25 26  1  1  0  0  0
 25 27  1  0  0  0  0
 27 28  2  0  0  0  0
 28 40  1  0  0  0  0
 28 30  1  0  0  0  0
 29 33  1  0  0  0  0
 29 31  1  0  0  0  0
 30 36  2  0  0  0  0
 31 30  1  0  0  0  0
 31 34  1  0  0  0  0
 32 34  1  0  0  0  0
 32 39  1  0  0  0  0
 33 32  2  0  0  0  0
 34 35  2  0  0  0  0
 36 35  1  0  0  0  0
 37 38  1  0  0  0  0
 39 37  2  0  0  0  0
 39 38  1  0  0  0  0
 40 41  3  0  0  0  0
 42  4  1  0  0  0  0
 42 43  1  0  0  0  0
 43 44  1  0  0  0  0
 45 43  2  0  0  0  0
M  END
>  <MODEL>
1

>  <REMARK>
 VINA RESULT:      -8.2      0.000      0.000
  Name = 
  9 active torsions:
  status: ('A' for Active; 'I' for Inactive)
    1  A    between atoms: C_6  and  C_37
    2  A    between atoms: C_8  and  C_37
    3  A    between atoms: C_9  and  C_44
    4  A    between atoms: C_13  and  C_41
    5  A    between atoms: C_16  and  C_44
    6  A    between atoms: C_26  and  C_27
    7  A    between atoms: N_28  and  C_42
    8  A    between atoms: N_31  and  C_38
    9  A    between atoms: C_38  and  C_39
                            x       y       z     vdW  Elec       q    Type
                         _______ _______ _______ _____ _____    ______ ____

>  <TORSDO>
F 9

$$$$
=
 OpenBabel10232409503D

 45 51  0  0  1  0  0  0  0  0999 V2000
  186.4320  176.2410  135.5450 C   0  0  2  0  0  3  0  0  0  0  0  0
  185.8790  177.6160  137.3570 C   0  0  0  0  0  2  0  0  0  0  0  0
  183.9510  173.6610  137.7020 O   0  0  0  0  0  1  0  0  0  0  0  0
  186.9040  174.8340  135.9930 C   0  0  1  0  0  0  0  0  0  0  0  0
  187.8070  174.9140  137.2270 C   0  0  0  0  0  1  0  0  0  0  0  0
  187.4860  177.1770  135.6420 O   0  0  0  0  0  0  0  0  0  0  0  0
  185.6930  173.9640  136.3210 C   0  0  0  0  0  2  0  0  0  0  0  0
  184.5350  177.6680  135.4240 O   0  0  0  0  0  1  0  0  0  0  0  0
  184.2250  175.7420  136.8110 C   0  0  1  0  0  3  0  0  0  0  0  0
  185.2200  176.8060  136.2850 C   0  0  1  0  0  0  0  0  0  0  0  0
  187.1490  178.0830  136.6740 C   0  0  2  0  0  3  0  0  0  0  0  0
  184.9020  174.5720  137.3820 N   0  0  0  0  0  0  0  0  0  0  0  0
  183.2210  175.9630  138.9800 O   0  0  0  0  0  0  0  0  0  0  0  0
  183.2350  176.3380  137.7750 C   0  0  0  0  0  0  0  0  0  0  0  0
  182.3510  177.3700  137.3200 N   0  0  0  0  0  2  0  0  0  0  0  0
  180.4320  180.2120  137.7670 C   0  0  0  0  0  0  0  0  0  0  0  0
  182.2450  179.2590  138.9330 C   0  0  0  0  0  2  0  0  0  0  0  0
  181.8400  181.7360  138.5100 N   0  0  0  0  0  0  0  0  0  0  0  0
  180.1550  181.3920  137.1090 C   0  0  0  0  0  3  0  0  0  0  0  0
  181.4510  180.4550  138.6010 C   0  0  0  0  0  0  0  0  0  0  0  0
  180.3250  178.7970  137.3690 C   0  0  0  0  0  2  0  0  0  0  0  0
  181.0840  183.6930  137.2410 C   0  0  0  0  0  1  0  0  0  0  0  0
  180.9970  182.3040  137.6520 N   0  0  0  0  0  0  0  0  0  0  0  0
  181.4670  178.1450  138.1890 C   0  0  1  0  0  3  0  0  0  0  0  0
  188.3010  178.2220  137.6740 C   0  0  1  0  0  3  0  0  0  0  0  0
  189.1200  179.4770  137.4110 C   0  0  0  0  0  1  0  0  0  0  0  0
  187.8370  178.1820  139.0660 N   0  0  0  0  0  0  0  0  0  0  0  0
  188.4820  177.7110  140.0970 C   0  0  0  0  0  0  0  0  0  0  0  0
  185.6960  178.9180  141.0360 N   0  0  0  0  0  2  0  0  0  0  0  0
  187.8520  177.7880  141.4270 C   0  0  0  0  0  0  0  0  0  0  0  0
  186.6630  178.3250  141.7090 N   0  0  0  0  0  0  0  0  0  0  0  0
  185.1880  178.7730  143.2300 C   0  0  0  0  0  0  0  0  0  0  0  0
  184.7460  179.2140  141.9710 C   0  0  0  0  0  3  0  0  0  0  0  0
  186.4150  178.2200  142.9780 C   0  0  0  0  0  0  0  0  0  0  0  0
  187.4410  177.5920  143.6560 C   0  0  0  0  0  3  0  0  0  0  0  0
  188.3800  177.3120  142.6360 C   0  0  0  0  0  3  0  0  0  0  0  0
  184.5030  178.7790  145.8360 N   0  0  0  0  0  0  0  0  0  0  0  0
  183.3610  179.1520  145.2110 O   0  0  0  0  0  0  0  0  0  0  0  0
  184.4910  178.8790  144.5090 C   0  0  0  0  0  0  0  0  0  0  0  0
  189.8050  177.1420  139.9670 C   0  0  0  0  0  0  0  0  0  0  0  0
  190.8630  176.6870  139.8660 N   0  0  0  0  0  0  0  0  0  0  0  0
  187.6850  174.2210  134.8240 C   0  0  0  0  0  2  0  0  0  0  0  0
  189.1540  174.0830  135.0770 C   0  0  0  0  0  0  0  0  0  0  0  0
  190.0000  175.1640  134.8730 O   0  0  0  0  0  0  0  0  0  0  0  0
  189.6210  172.9920  135.4950 O   0  0  0  0  0  1  0  0  0  0  0  0
  1  6  1  1  0  0  0
  1  4  1  0  0  0  0
  1 10  1  0  0  0  0
  4  7  1  0  0  0  0
  4  5  1  1  0  0  0
  6 11  1  0  0  0  0
  7 12  1  0  0  0  0
  9 12  1  0  0  0  0
  9 14  1  1  0  0  0
 10  8  1  6  0  0  0
 10  9  1  0  0  0  0
 10  2  1  0  0  0  0
 11  2  1  0  0  0  0
 11 25  1  1  0  0  0
 12  3  1  0  0  0  0
 14 13  2  0  0  0  0
 15 14  1  0  0  0  0
 16 20  1  0  0  0  0
 18 20  2  0  0  0  0
 19 23  1  0  0  0  0
 19 16  2  0  0  0  0
 20 17  1  0  0  0  0
 21 16  1  0  0  0  0
 21 24  1  0  0  0  0
 22 23  1  0  0  0  0
 23 18  1  0  0  0  0
 24 15  1  6  0  0  0
 24 17  1  0  0  0  0
 25 26  1  6  0  0  0
 25 27  1  0  0  0  0
 27 28  2  0  0  0  0
 28 30  1  0  0  0  0
 29 31  1  0  0  0  0
 29 33  1  0  0  0  0
 30 31  1  0  0  0  0
 30 36  2  0  0  0  0
 31 34  1  0  0  0  0
 32 39  1  0  0  0  0
 33 32  2  0  0  0  0
 34 32  1  0  0  0  0
 34 35  2  0  0  0  0
 36 35  1  0  0  0  0
 38 37  1  0  0  0  0
 39 38  1  0  0  0  0
 39 37  2  0  0  0  0
 40 28  1  0  0  0  0
 41 40  3  0  0  0  0
 42 43  1  0  0  0  0
 42  4  1  0  0  0  0
 43 45  1  0  0  0  0
 44 43  2  0  0  0  0
M  END
>  <MODEL>
2

>  <REMARK>
 VINA RESULT:      -8.0      2.364      3.603
  Name = 
  9 active torsions:
  status: ('A' for Active; 'I' for Inactive)
    1  A    between atoms: C_6  and  C_37
    2  A    between atoms: C_8  and  C_37
    3  A    between atoms: C_9  and  C_44
    4  A    between atoms: C_13  and  C_41
    5  A    between atoms: C_16  and  C_44
    6  A    between atoms: C_26  and  C_27
    7  A    between atoms: N_28  and  C_42
    8  A    between atoms: N_31  and  C_38
    9  A    between atoms: C_38  and  C_39
                            x       y       z     vdW  Elec       q    Type
                         _______ _______ _______ _____ _____    ______ ____

>  <TORSDO>
F 9

$$$$
=
 OpenBabel10232409503D

 45 51  0  0  1  0  0  0  0  0999 V2000
  182.1310  175.8970  137.5570 C   0  0  2  0  0  3  0  0  0  0  0  0
  183.8910  176.6780  138.8880 C   0  0  0  0  0  2  0  0  0  0  0  0
  184.6820  177.3970  134.6060 O   0  0  0  0  0  1  0  0  0  0  0  0
  181.6580  176.9520  136.5240 C   0  0  1  0  0  0  0  0  0  0  0  0
  181.6230  178.3560  137.1340 C   0  0  0  0  0  1  0  0  0  0  0  0
  181.5600  176.1490  138.8250 O   0  0  0  0  0  0  0  0  0  0  0  0
  182.6020  176.9570  135.3230 C   0  0  0  0  0  2  0  0  0  0  0  0
  183.9310  174.4520  138.1210 O   0  0  0  0  0  1  0  0  0  0  0  0
  184.4740  176.0950  136.4660 C   0  0  1  0  0  3  0  0  0  0  0  0
  183.6430  175.7630  137.7310 C   0  0  1  0  0  0  0  0  0  0  0  0
  182.6090  176.5420  139.6870 C   0  0  2  0  0  3  0  0  0  0  0  0
  183.9610  177.2650  135.7470 N   0  0  0  0  0  0  0  0  0  0  0  0
  186.7170  175.2550  136.6320 O   0  0  0  0  0  0  0  0  0  0  0  0
  185.9380  176.2360  136.7880 C   0  0  0  0  0  0  0  0  0  0  0  0
  186.4400  177.5060  137.2200 N   0  0  0  0  0  2  0  0  0  0  0  0
  189.7310  176.7240  136.5010 C   0  0  0  0  0  0  0  0  0  0  0  0
  188.4950  176.9320  138.4970 C   0  0  0  0  0  2  0  0  0  0  0  0
  190.2910  175.2010  137.9930 N   0  0  0  0  0  0  0  0  0  0  0  0
  190.4470  175.7430  135.8470 C   0  0  0  0  0  3  0  0  0  0  0  0
  189.6570  176.3660  137.7890 C   0  0  0  0  0  0  0  0  0  0  0  0
  188.6370  177.6140  136.0750 C   0  0  0  0  0  2  0  0  0  0  0  0
  191.5770  173.6570  136.5870 C   0  0  0  0  0  1  0  0  0  0  0  0
  190.8230  174.8760  136.8170 N   0  0  0  0  0  0  0  0  0  0  0  0
  187.8560  177.8200  137.3990 C   0  0  1  0  0  3  0  0  0  0  0  0
  182.2620  177.8480  140.4080 C   0  0  1  0  0  3  0  0  0  0  0  0
  180.7560  178.0520  140.4980 C   0  0  0  0  0  1  0  0  0  0  0  0
  182.8810  177.9330  141.7360 N   0  0  0  0  0  0  0  0  0  0  0  0
  184.0470  178.4400  142.0280 C   0  0  0  0  0  0  0  0  0  0  0  0
  186.7840  177.5720  143.3930 N   0  0  0  0  0  2  0  0  0  0  0  0
  184.4820  178.4570  143.4360 C   0  0  0  0  0  0  0  0  0  0  0  0
  185.6700  178.0640  143.9010 N   0  0  0  0  0  0  0  0  0  0  0  0
  186.9490  177.8100  145.6310 C   0  0  0  0  0  0  0  0  0  0  0  0
  187.6150  177.4010  144.4630 C   0  0  0  0  0  3  0  0  0  0  0  0
  185.7190  178.2170  145.1890 C   0  0  0  0  0  0  0  0  0  0  0  0
  184.5430  178.7360  145.6930 C   0  0  0  0  0  3  0  0  0  0  0  0
  183.7360  178.8900  144.5420 C   0  0  0  0  0  3  0  0  0  0  0  0
  188.0010  177.1470  148.0210 N   0  0  0  0  0  0  0  0  0  0  0  0
  187.7350  178.4680  148.1520 O   0  0  0  0  0  0  0  0  0  0  0  0
  187.4610  177.8050  146.9980 C   0  0  0  0  0  0  0  0  0  0  0  0
  184.9040  179.0070  141.0100 C   0  0  0  0  0  0  0  0  0  0  0  0
  185.5900  179.4570  140.1970 N   0  0  0  0  0  0  0  0  0  0  0  0
  180.2470  176.5510  136.0760 C   0  0  0  0  0  2  0  0  0  0  0  0
  180.1430  175.1410  135.5810 C   0  0  0  0  0  0  0  0  0  0  0  0
  179.9830  174.0990  136.4820 O   0  0  0  0  0  1  0  0  0  0  0  0
  180.1790  174.9030  134.3460 O   0  0  0  0  0  0  0  0  0  0  0  0
  1 10  1  0  0  0  0
  1  6  1  1  0  0  0
  2 11  1  0  0  0  0
  3 12  1  0  0  0  0
  4  5  1  1  0  0  0
  4  1  1  0  0  0  0
  6 11  1  0  0  0  0
  7 12  1  0  0  0  0
  7  4  1  0  0  0  0
  9 14  1  1  0  0  0
  9 10  1  0  0  0  0
 10  8  1  1  0  0  0
 10  2  1  0  0  0  0
 11 25  1  6  0  0  0
 12  9  1  0  0  0  0
 13 14  2  0  0  0  0
 14 15  1  0  0  0  0
 16 20  1  0  0  0  0
 19 16  2  0  0  0  0
 19 23  1  0  0  0  0
 20 18  2  0  0  0  0
 20 17  1  0  0  0  0
 21 16  1  0  0  0  0
 21 24  1  0  0  0  0
 22 23  1  0  0  0  0
 23 18  1  0  0  0  0
 24 15  1  6  0  0  0
 24 17  1  0  0  0  0
 25 26  1  1  0  0  0
 25 27  1  0  0  0  0
 27 28  2  0  0  0  0
 28 30  1  0  0  0  0
 29 31  1  0  0  0  0
 29 33  1  0  0  0  0
 30 31  1  0  0  0  0
 30 36  2  0  0  0  0
 31 34  1  0  0  0  0
 32 39  1  0  0  0  0
 33 32  2  0  0  0  0
 34 32  1  0  0  0  0
 34 35  2  0  0  0  0
 36 35  1  0  0  0  0
 37 38  1  0  0  0  0
 39 37  2  0  0  0  0
 39 38  1  0  0  0  0
 40 28  1  0  0  0  0
 41 40  3  0  0  0  0
 42  4  1  0  0  0  0
 43 42  1  0  0  0  0
 43 44  1  0  0  0  0
 45 43  2  0  0  0  0
M  END
>  <MODEL>
3

>  <REMARK>
 VINA RESULT:      -7.9      2.732      7.429
  Name = 
  9 active torsions:
  status: ('A' for Active; 'I' for Inactive)
    1  A    between atoms: C_6  and  C_37
    2  A    between atoms: C_8  and  C_37
    3  A    between atoms: C_9  and  C_44
    4  A    between atoms: C_13  and  C_41
    5  A    between atoms: C_16  and  C_44
    6  A    between atoms: C_26  and  C_27
    7  A    between atoms: N_28  and  C_42
    8  A    between atoms: N_31  and  C_38
    9  A    between atoms: C_38  and  C_39
                            x       y       z     vdW  Elec       q    Type
                         _______ _______ _______ _____ _____    ______ ____

>  <TORSDO>
F 9

$$$$
=
 OpenBabel10232409503D

 45 51  0  0  1  0  0  0  0  0999 V2000
  186.7160  175.9970  135.3950 C   0  0  2  0  0  3  0  0  0  0  0  0
  185.7610  177.4060  137.0010 C   0  0  0  0  0  2  0  0  0  0  0  0
  184.0540  173.3420  137.2220 O   0  0  0  0  0  1  0  0  0  0  0  0
  187.1870  174.6480  135.9980 C   0  0  1  0  0  0  0  0  0  0  0  0
  187.8460  174.8470  137.3650 C   0  0  0  0  0  1  0  0  0  0  0  0
  187.6750  177.0090  135.6240 O   0  0  0  0  0  0  0  0  0  0  0  0
  185.9940  173.7080  136.1540 C   0  0  0  0  0  2  0  0  0  0  0  0
  184.7860  177.2770  134.8620 O   0  0  0  0  0  1  0  0  0  0  0  0
  184.3530  175.3960  136.2780 C   0  0  1  0  0  3  0  0  0  0  0  0
  185.3580  176.5050  135.8770 C   0  0  1  0  0  0  0  0  0  0  0  0
  187.1020  177.9330  136.5280 C   0  0  2  0  0  3  0  0  0  0  0  0
  184.9890  174.3050  137.0240 N   0  0  0  0  0  0  0  0  0  0  0  0
  183.2410  176.1660  138.2610 O   0  0  0  0  0  0  0  0  0  0  0  0
  183.1710  175.9620  137.0170 C   0  0  0  0  0  0  0  0  0  0  0  0
  181.9900  176.3130  136.2850 N   0  0  0  0  0  2  0  0  0  0  0  0
  180.8000  178.5710  138.6180 C   0  0  0  0  0  0  0  0  0  0  0  0
  180.3170  176.3170  138.1240 C   0  0  0  0  0  2  0  0  0  0  0  0
  180.4470  177.3750  140.4360 N   0  0  0  0  0  0  0  0  0  0  0  0
  181.2660  179.2980  139.6930 C   0  0  0  0  0  3  0  0  0  0  0  0
  180.3140  177.4210  139.1010 C   0  0  0  0  0  0  0  0  0  0  0  0
  181.2260  178.4820  137.2110 C   0  0  0  0  0  2  0  0  0  0  0  0
  181.2970  178.9110  142.1470 C   0  0  0  0  0  1  0  0  0  0  0  0
  180.9620  178.5520  140.7820 N   0  0  0  0  0  0  0  0  0  0  0  0
  180.8450  177.0240  136.8500 C   0  0  1  0  0  3  0  0  0  0  0  0
  188.0430  178.1980  137.7070 C   0  0  1  0  0  3  0  0  0  0  0  0
  188.9930  179.3500  137.4130 C   0  0  0  0  0  1  0  0  0  0  0  0
  187.3150  178.4260  138.9600 N   0  0  0  0  0  0  0  0  0  0  0  0
  187.7000  178.1000  140.1630 C   0  0  0  0  0  0  0  0  0  0  0  0
  187.8890  177.3480  143.2460 N   0  0  0  0  0  2  0  0  0  0  0  0
  186.8330  178.4430  141.3050 C   0  0  0  0  0  0  0  0  0  0  0  0
  187.0110  178.0660  142.5730 N   0  0  0  0  0  0  0  0  0  0  0  0
  186.2790  178.1490  144.6110 C   0  0  0  0  0  0  0  0  0  0  0  0
  187.4540  177.3810  144.5400 C   0  0  0  0  0  3  0  0  0  0  0  0
  186.0640  178.5480  143.3190 C   0  0  0  0  0  0  0  0  0  0  0  0
  185.1620  179.2980  142.5910 C   0  0  0  0  0  3  0  0  0  0  0  0
  185.6700  179.2250  141.2720 C   0  0  0  0  0  3  0  0  0  0  0  0
  185.3980  178.9300  147.0340 N   0  0  0  0  0  0  0  0  0  0  0  0
  184.2820  178.4530  146.4340 O   0  0  0  0  0  0  0  0  0  0  0  0
  185.4810  178.4520  145.7950 C   0  0  0  0  0  0  0  0  0  0  0  0
  188.9630  177.4370  140.4010 C   0  0  0  0  0  0  0  0  0  0  0  0
  189.9740  176.9080  140.5880 N   0  0  0  0  0  0  0  0  0  0  0  0
  188.2020  174.0420  135.0200 C   0  0  0  0  0  2  0  0  0  0  0  0
  189.0180  172.9290  135.6020 C   0  0  0  0  0  0  0  0  0  0  0  0
  190.2750  173.1900  136.1270 O   0  0  0  0  0  1  0  0  0  0  0  0
  188.5570  171.7590  135.6320 O   0  0  0  0  0  0  0  0  0  0  0  0
  1  6  1  1  0  0  0
  1 10  1  0  0  0  0
  1  4  1  0  0  0  0
  4  7  1  0  0  0  0
  4  5  1  1  0  0  0
  6 11  1  0  0  0  0
  7 12  1  0  0  0  0
  9 14  1  1  0  0  0
  9 12  1  0  0  0  0
 10  8  1  6  0  0  0
 10  9  1  0  0  0  0
 10  2  1  0  0  0  0
 11  2  1  0  0  0  0
 11 25  1  1  0  0  0
 12  3  1  0  0  0  0
 14 13  2  0  0  0  0
 15 14  1  0  0  0  0
 16 20  1  0  0  0  0
 16 19  2  0  0  0  0
 17 20  1  0  0  0  0
 18 23  1  0  0  0  0
 19 23  1  0  0  0  0
 20 18  2  0  0  0  0
 21 16  1  0  0  0  0
 23 22  1  0  0  0  0
 24 15  1  1  0  0  0
 24 21  1  0  0  0  0
 24 17  1  0  0  0  0
 25 26  1  6  0  0  0
 25 27  1  0  0  0  0
 27 28  2  0  0  0  0
 28 40  1  0  0  0  0
 28 30  1  0  0  0  0
 29 33  1  0  0  0  0
 30 31  1  0  0  0  0
 31 29  1  0  0  0  0
 31 34  1  0  0  0  0
 32 39  1  0  0  0  0
 33 32  2  0  0  0  0
 34 32  1  0  0  0  0
 35 34  2  0  0  0  0
 36 30  2  0  0  0  0
 36 35  1  0  0  0  0
 38 37  1  0  0  0  0
 39 38  1  0  0  0  0
 39 37  2  0  0  0  0
 40 41  3  0  0  0  0
 42 43  1  0  0  0  0
 42  4  1  0  0  0  0
 43 45  2  0  0  0  0
 43 44  1  0  0  0  0
M  END
>  <MODEL>
4

>  <REMARK>
 VINA RESULT:      -7.9      2.506      3.846
  Name = 
  9 active torsions:
  status: ('A' for Active; 'I' for Inactive)
    1  A    between atoms: C_6  and  C_37
    2  A    between atoms: C_8  and  C_37
    3  A    between atoms: C_9  and  C_44
    4  A    between atoms: C_13  and  C_41
    5  A    between atoms: C_16  and  C_44
    6  A    between atoms: C_26  and  C_27
    7  A    between atoms: N_28  and  C_42
    8  A    between atoms: N_31  and  C_38
    9  A    between atoms: C_38  and  C_39
                            x       y       z     vdW  Elec       q    Type
                         _______ _______ _______ _____ _____    ______ ____

>  <TORSDO>
F 9

$$$$
=
 OpenBabel10232409503D

 45 51  0  0  1  0  0  0  0  0999 V2000
  186.1670  174.8770  134.9370 C   0  0  2  0  0  3  0  0  0  0  0  0
  186.4910  176.9030  136.0640 C   0  0  0  0  0  2  0  0  0  0  0  0
  183.4460  174.4220  138.0770 O   0  0  0  0  0  1  0  0  0  0  0  0
  186.2130  173.6560  135.8920 C   0  0  1  0  0  0  0  0  0  0  0  0
  187.3190  173.8070  136.9400 C   0  0  0  0  0  1  0  0  0  0  0  0
  187.4730  175.2920  134.5930 O   0  0  0  0  0  0  0  0  0  0  0  0
  184.8710  173.5080  136.6040 C   0  0  0  0  0  2  0  0  0  0  0  0
  184.8850  176.7890  134.3460 O   0  0  0  0  0  1  0  0  0  0  0  0
  184.2250  175.7660  136.4080 C   0  0  1  0  0  3  0  0  0  0  0  0
  185.3950  176.0940  135.4460 C   0  0  1  0  0  0  0  0  0  0  0  0
  187.6790  176.5600  135.1860 C   0  0  2  0  0  3  0  0  0  0  0  0
  184.5650  174.7100  137.3670 N   0  0  0  0  0  0  0  0  0  0  0  0
  182.8810  177.7520  136.5150 O   0  0  0  0  0  0  0  0  0  0  0  0
  183.7130  177.0020  137.0970 C   0  0  0  0  0  0  0  0  0  0  0  0
  184.1400  177.2850  138.4350 N   0  0  0  0  0  2  0  0  0  0  0  0
  184.4490  179.2430  141.2690 C   0  0  0  0  0  0  0  0  0  0  0  0
  182.7910  177.7720  140.4670 C   0  0  0  0  0  2  0  0  0  0  0  0
  183.5380  178.0510  142.8840 N   0  0  0  0  0  0  0  0  0  0  0  0
  185.2650  179.3470  142.3750 C   0  0  0  0  0  3  0  0  0  0  0  0
  183.4210  178.4560  141.6100 C   0  0  0  0  0  0  0  0  0  0  0  0
  184.7220  179.2560  139.8210 C   0  0  0  0  0  2  0  0  0  0  0  0
  185.1360  178.4690  144.6960 C   0  0  0  0  0  1  0  0  0  0  0  0
  184.6260  178.6590  143.3510 N   0  0  0  0  0  0  0  0  0  0  0  0
  183.5910  178.3500  139.2720 C   0  0  1  0  0  3  0  0  0  0  0  0
  188.9860  176.5810  135.9850 C   0  0  1  0  0  3  0  0  0  0  0  0
  190.0470  177.4270  135.2960 C   0  0  0  0  0  1  0  0  0  0  0  0
  188.7850  177.0210  137.3700 N   0  0  0  0  0  0  0  0  0  0  0  0
  189.5570  176.7770  138.3930 C   0  0  0  0  0  0  0  0  0  0  0  0
  190.4440  175.9700  141.3370 N   0  0  0  0  0  2  0  0  0  0  0  0
  189.1940  177.3350  139.7080 C   0  0  0  0  0  0  0  0  0  0  0  0
  189.6320  176.9110  140.8950 N   0  0  0  0  0  0  0  0  0  0  0  0
  189.5900  177.1720  143.0450 C   0  0  0  0  0  0  0  0  0  0  0  0
  190.4390  176.1080  142.6960 C   0  0  0  0  0  3  0  0  0  0  0  0
  189.1150  177.6290  141.8460 C   0  0  0  0  0  0  0  0  0  0  0  0
  188.2750  178.6080  141.3550 C   0  0  0  0  0  3  0  0  0  0  0  0
  188.3280  178.4100  139.9550 C   0  0  0  0  0  3  0  0  0  0  0  0
  189.6660  178.3460  145.4690 N   0  0  0  0  0  0  0  0  0  0  0  0
  188.4300  177.7930  145.4280 O   0  0  0  0  0  0  0  0  0  0  0  0
  189.2910  177.6730  144.3840 C   0  0  0  0  0  0  0  0  0  0  0  0
  190.7670  175.9970  138.2590 C   0  0  0  0  0  0  0  0  0  0  0  0
  191.7370  175.3770  138.1540 N   0  0  0  0  0  0  0  0  0  0  0  0
  186.4860  172.4150  135.0320 C   0  0  0  0  0  2  0  0  0  0  0  0
  187.8330  171.8010  135.2590 C   0  0  0  0  0  0  0  0  0  0  0  0
  187.9640  170.7070  136.1030 O   0  0  0  0  0  1  0  0  0  0  0  0
  188.8430  172.2620  134.6690 O   0  0  0  0  0  0  0  0  0  0  0  0
  1  6  1  1  0  0  0
  1 10  1  0  0  0  0
  1  4  1  0  0  0  0
  4  7  1  0  0  0  0
  4  5  1  1  0  0  0
  6 11  1  0  0  0  0
  7 12  1  0  0  0  0
  9 14  1  1  0  0  0
  9 12  1  0  0  0  0
 10  8  1  6  0  0  0
 10  2  1  0  0  0  0
 10  9  1  0  0  0  0
 11 25  1  1  0  0  0
 11  2  1  0  0  0  0
 12  3  1  0  0  0  0
 13 14  2  0  0  0  0
 14 15  1  0  0  0  0
 16 20  1  0  0  0  0
 16 19  2  0  0  0  0
 17 20  1  0  0  0  0
 18 23  1  0  0  0  0
 19 23  1  0  0  0  0
 20 18  2  0  0  0  0
 21 16  1  0  0  0  0
 23 22  1  0  0  0  0
 24 15  1  1  0  0  0
 24 21  1  0  0  0  0
 24 17  1  0  0  0  0
 25 26  1  6  0  0  0
 25 27  1  0  0  0  0
 27 28  2  0  0  0  0
 28 30  1  0  0  0  0
 29 33  1  0  0  0  0
 30 36  2  0  0  0  0
 30 31  1  0  0  0  0
 31 29  1  0  0  0  0
 31 34  1  0  0  0  0
 32 39  1  0  0  0  0
 33 32  2  0  0  0  0
 34 32  1  0  0  0  0
 35 34  2  0  0  0  0
 36 35  1  0  0  0  0
 38 37  1  0  0  0  0
 39 38  1  0  0  0  0
 39 37  2  0  0  0  0
 40 28  1  0  0  0  0
 41 40  3  0  0  0  0
 42 43  1  0  0  0  0
 42  4  1  0  0  0  0
 43 44  1  0  0  0  0
 45 43  2  0  0  0  0
M  END
>  <MODEL>
5

>  <REMARK>
 VINA RESULT:      -7.5      2.656      5.282
  Name = 
  9 active torsions:
  status: ('A' for Active; 'I' for Inactive)
    1  A    between atoms: C_6  and  C_37
    2  A    between atoms: C_8  and  C_37
    3  A    between atoms: C_9  and  C_44
    4  A    between atoms: C_13  and  C_41
    5  A    between atoms: C_16  and  C_44
    6  A    between atoms: C_26  and  C_27
    7  A    between atoms: N_28  and  C_42
    8  A    between atoms: N_31  and  C_38
    9  A    between atoms: C_38  and  C_39
                            x       y       z     vdW  Elec       q    Type
                         _______ _______ _______ _____ _____    ______ ____

>  <TORSDO>
F 9

$$$$
=
 OpenBabel10232409503D

 45 51  0  0  1  0  0  0  0  0999 V2000
  180.7380  177.6110  138.8200 C   0  0  2  0  0  3  0  0  0  0  0  0
  182.4860  176.1590  139.3810 C   0  0  0  0  0  2  0  0  0  0  0  0
  181.3650  175.7470  135.1320 O   0  0  0  0  0  1  0  0  0  0  0  0
  181.0330  178.4210  137.5310 C   0  0  1  0  0  0  0  0  0  0  0  0
  182.4910  178.8870  137.4850 C   0  0  0  0  0  1  0  0  0  0  0  0
  181.3710  178.2010  139.9370 O   0  0  0  0  0  0  0  0  0  0  0  0
  180.7490  177.5590  136.3030 C   0  0  0  0  0  2  0  0  0  0  0  0
  180.2620  175.4300  139.6340 O   0  0  0  0  0  1  0  0  0  0  0  0
  181.0510  175.4810  137.3750 C   0  0  1  0  0  3  0  0  0  0  0  0
  181.1170  176.1310  138.7790 C   0  0  1  0  0  0  0  0  0  0  0  0
  182.3840  177.3100  140.3630 C   0  0  2  0  0  3  0  0  0  0  0  0
  181.5750  176.3590  136.3230 N   0  0  0  0  0  0  0  0  0  0  0  0
  181.0210  173.0820  137.4510 O   0  0  0  0  0  0  0  0  0  0  0  0
  181.7160  174.1320  137.3580 C   0  0  0  0  0  0  0  0  0  0  0  0
  183.1360  174.0540  137.1830 N   0  0  0  0  0  2  0  0  0  0  0  0
  186.1870  172.5150  136.6460 C   0  0  0  0  0  0  0  0  0  0  0  0
  184.1420  172.5530  135.4740 C   0  0  0  0  0  2  0  0  0  0  0  0
  186.4770  172.5780  134.4620 N   0  0  0  0  0  0  0  0  0  0  0  0
  187.4990  172.8650  136.4100 C   0  0  0  0  0  3  0  0  0  0  0  0
  185.6010  172.3500  135.4530 C   0  0  0  0  0  0  0  0  0  0  0  0
  185.2390  172.8570  137.7220 C   0  0  0  0  0  2  0  0  0  0  0  0
  188.8590  173.1480  134.3490 C   0  0  0  0  0  1  0  0  0  0  0  0
  187.6390  172.8190  135.0630 N   0  0  0  0  0  0  0  0  0  0  0  0
  183.8790  172.8120  136.9790 C   0  0  1  0  0  3  0  0  0  0  0  0
  183.7240  178.0380  140.5090 C   0  0  1  0  0  3  0  0  0  0  0  0
  183.6660  179.4380  139.9140 C   0  0  0  0  0  1  0  0  0  0  0  0
  184.1850  178.0800  141.9020 N   0  0  0  0  0  0  0  0  0  0  0  0
  185.3970  178.3180  142.3220 C   0  0  0  0  0  0  0  0  0  0  0  0
  187.9400  177.4530  144.0210 N   0  0  0  0  0  2  0  0  0  0  0  0
  185.6550  178.3440  143.7730 C   0  0  0  0  0  0  0  0  0  0  0  0
  186.7740  177.9510  144.3840 N   0  0  0  0  0  0  0  0  0  0  0  0
  187.8280  177.7080  146.2610 C   0  0  0  0  0  0  0  0  0  0  0  0
  188.6320  177.2880  145.1870 C   0  0  0  0  0  3  0  0  0  0  0  0
  186.6640  178.1140  145.6670 C   0  0  0  0  0  0  0  0  0  0  0  0
  185.4360  178.6400  146.0180 C   0  0  0  0  0  3  0  0  0  0  0  0
  184.7790  178.7870  144.7740 C   0  0  0  0  0  3  0  0  0  0  0  0
  189.0050  178.0400  148.6620 N   0  0  0  0  0  0  0  0  0  0  0  0
  187.8580  177.3860  148.9630 O   0  0  0  0  0  0  0  0  0  0  0  0
  188.1670  177.7120  147.6810 C   0  0  0  0  0  0  0  0  0  0  0  0
  186.4800  178.5790  141.4010 C   0  0  0  0  0  0  0  0  0  0  0  0
  187.3440  178.7880  140.6620 N   0  0  0  0  0  0  0  0  0  0  0  0
  180.1040  179.6410  137.5370 C   0  0  0  0  0  2  0  0  0  0  0  0
  180.7180  180.8790  136.9600 C   0  0  0  0  0  0  0  0  0  0  0  0
  181.2770  181.8330  137.7970 O   0  0  0  0  0  1  0  0  0  0  0  0
  180.7470  181.0450  135.7130 O   0  0  0  0  0  0  0  0  0  0  0  0
  1  6  1  1  0  0  0
  2 11  1  0  0  0  0
  3 12  1  0  0  0  0
  4  5  1  6  0  0  0
  4 42  1  0  0  0  0
  4  1  1  0  0  0  0
  6 11  1  0  0  0  0
  7 12  1  0  0  0  0
  7  4  1  0  0  0  0
  9 14  1  1  0  0  0
  9 10  1  0  0  0  0
 10  1  1  0  0  0  0
 10  2  1  0  0  0  0
 10  8  1  1  0  0  0
 11 25  1  6  0  0  0
 12  9  1  0  0  0  0
 14 13  2  0  0  0  0
 15 14  1  0  0  0  0
 16 21  1  0  0  0  0
 17 24  1  0  0  0  0
 18 23  1  0  0  0  0
 18 20  2  0  0  0  0
 19 16  2  0  0  0  0
 20 17  1  0  0  0  0
 20 16  1  0  0  0  0
 22 23  1  0  0  0  0
 23 19  1  0  0  0  0
 24 15  1  6  0  0  0
 24 21  1  0  0  0  0
 25 26  1  1  0  0  0
 25 27  1  0  0  0  0
 27 28  2  0  0  0  0
 28 30  1  0  0  0  0
 29 31  1  0  0  0  0
 29 33  1  0  0  0  0
 30 31  1  0  0  0  0
 30 36  2  0  0  0  0
 31 34  1  0  0  0  0
 32 39  1  0  0  0  0
 33 32  2  0  0  0  0
 34 35  2  0  0  0  0
 34 32  1  0  0  0  0
 36 35  1  0  0  0  0
 37 38  1  0  0  0  0
 39 37  2  0  0  0  0
 39 38  1  0  0  0  0
 40 28  1  0  0  0  0
 41 40  3  0  0  0  0
 43 42  1  0  0  0  0
 43 44  1  0  0  0  0
 45 43  2  0  0  0  0
M  END
>  <MODEL>
6

>  <REMARK>
 VINA RESULT:      -7.5      4.587      7.516
  Name = 
  9 active torsions:
  status: ('A' for Active; 'I' for Inactive)
    1  A    between atoms: C_6  and  C_37
    2  A    between atoms: C_8  and  C_37
    3  A    between atoms: C_9  and  C_44
    4  A    between atoms: C_13  and  C_41
    5  A    between atoms: C_16  and  C_44
    6  A    between atoms: C_26  and  C_27
    7  A    between atoms: N_28  and  C_42
    8  A    between atoms: N_31  and  C_38
    9  A    between atoms: C_38  and  C_39
                            x       y       z     vdW  Elec       q    Type
                         _______ _______ _______ _____ _____    ______ ____

>  <TORSDO>
F 9

$$$$
=
 OpenBabel10232409503D

 45 51  0  0  1  0  0  0  0  0999 V2000
  190.4110  176.9790  136.7260 C   0  0  2  0  0  3  0  0  0  0  0  0
  188.6030  176.9600  138.2120 C   0  0  0  0  0  2  0  0  0  0  0  0
  188.1410  173.8700  135.0960 O   0  0  0  0  0  1  0  0  0  0  0  0
  191.0030  175.5630  136.4980 C   0  0  1  0  0  0  0  0  0  0  0  0
  191.0630  174.7660  137.8030 C   0  0  0  0  0  1  0  0  0  0  0  0
  190.9050  177.5400  137.9240 O   0  0  0  0  0  0  0  0  0  0  0  0
  190.1440  174.8020  135.4900 C   0  0  0  0  0  2  0  0  0  0  0  0
  188.5090  178.3400  136.3070 O   0  0  0  0  0  1  0  0  0  0  0  0
  188.1590  176.0110  135.8790 C   0  0  1  0  0  3  0  0  0  0  0  0
  188.8850  177.0690  136.7470 C   0  0  1  0  0  0  0  0  0  0  0  0
  189.8190  177.6270  138.8260 C   0  0  2  0  0  3  0  0  0  0  0  0
  188.7760  174.6840  135.9750 N   0  0  0  0  0  0  0  0  0  0  0  0
  186.2390  175.1400  137.0270 O   0  0  0  0  0  0  0  0  0  0  0  0
  186.6860  175.9650  136.1810 C   0  0  0  0  0  0  0  0  0  0  0  0
  185.8090  176.8990  135.5390 N   0  0  0  0  0  2  0  0  0  0  0  0
  182.9950  175.6610  137.1230 C   0  0  0  0  0  0  0  0  0  0  0  0
  183.4890  176.2720  134.9010 C   0  0  0  0  0  2  0  0  0  0  0  0
  182.0740  174.2970  135.6580 N   0  0  0  0  0  0  0  0  0  0  0  0
  182.5980  174.5280  137.8010 C   0  0  0  0  0  3  0  0  0  0  0  0
  182.6650  175.4880  135.8370 C   0  0  0  0  0  0  0  0  0  0  0  0
  184.1100  176.6050  137.3200 C   0  0  0  0  0  2  0  0  0  0  0  0
  181.4240  172.4440  137.1270 C   0  0  0  0  0  1  0  0  0  0  0  0
  181.9800  173.7600  136.8720 N   0  0  0  0  0  0  0  0  0  0  0  0
  184.3960  177.0720  135.8700 C   0  0  1  0  0  3  0  0  0  0  0  0
  190.1790  176.9970  140.1750 C   0  0  1  0  0  3  0  0  0  0  0  0
  191.5430  177.4640  140.6620 C   0  0  0  0  0  1  0  0  0  0  0  0
  189.1500  177.2370  141.1930 N   0  0  0  0  0  0  0  0  0  0  0  0
  189.1280  176.7760  142.4130 C   0  0  0  0  0  0  0  0  0  0  0  0
  186.2950  178.0730  141.7850 N   0  0  0  0  0  2  0  0  0  0  0  0
  188.0130  177.1560  143.2980 C   0  0  0  0  0  0  0  0  0  0  0  0
  186.8540  177.7010  142.9200 N   0  0  0  0  0  0  0  0  0  0  0  0
  184.9190  178.4570  143.5310 C   0  0  0  0  0  0  0  0  0  0  0  0
  185.0680  178.5560  142.1370 C   0  0  0  0  0  3  0  0  0  0  0  0
  186.0970  177.9050  143.9550 C   0  0  0  0  0  0  0  0  0  0  0  0
  186.7060  177.5030  145.1270 C   0  0  0  0  0  3  0  0  0  0  0  0
  187.9600  177.0150  144.6920 C   0  0  0  0  0  3  0  0  0  0  0  0
  182.4630  179.1070  144.4290 N   0  0  0  0  0  0  0  0  0  0  0  0
  183.2400  179.2200  145.5340 O   0  0  0  0  0  0  0  0  0  0  0  0
  183.7660  178.8510  144.3360 C   0  0  0  0  0  0  0  0  0  0  0  0
  190.1830  175.9260  142.9200 C   0  0  0  0  0  0  0  0  0  0  0  0
  191.0270  175.2490  143.3260 N   0  0  0  0  0  0  0  0  0  0  0  0
  192.4200  175.7470  135.9410 C   0  0  0  0  0  2  0  0  0  0  0  0
  193.5060  175.4620  136.9320 C   0  0  0  0  0  0  0  0  0  0  0  0
  194.1390  174.2280  136.9350 O   0  0  0  0  0  0  0  0  0  0  0  0
  193.8590  176.3500  137.7510 O   0  0  0  0  0  1  0  0  0  0  0  0
  1 10  1  0  0  0  0
  1  6  1  1  0  0  0
  2 11  1  0  0  0  0
  3 12  1  0  0  0  0
  4  1  1  0  0  0  0
  4  5  1  1  0  0  0
  6 11  1  0  0  0  0
  7 12  1  0  0  0  0
  7  4  1  0  0  0  0
  9 12  1  0  0  0  0
  9 14  1  1  0  0  0
  9 10  1  0  0  0  0
 10  8  1  6  0  0  0
 10  2  1  0  0  0  0
 11 25  1  1  0  0  0
 14 13  2  0  0  0  0
 15 14  1  0  0  0  0
 16 21  1  0  0  0  0
 16 19  2  0  0  0  0
 17 20  1  0  0  0  0
 17 24  1  0  0  0  0
 18 20  2  0  0  0  0
 18 23  1  0  0  0  0
 20 16  1  0  0  0  0
 23 22  1  0  0  0  0
 23 19  1  0  0  0  0
 24 15  1  6  0  0  0
 24 21  1  0  0  0  0
 25 26  1  1  0  0  0
 25 27  1  0  0  0  0
 27 28  2  0  0  0  0
 28 40  1  0  0  0  0
 28 30  1  0  0  0  0
 29 33  1  0  0  0  0
 29 31  1  0  0  0  0
 30 36  2  0  0  0  0
 31 30  1  0  0  0  0
 31 34  1  0  0  0  0
 32 34  1  0  0  0  0
 32 39  1  0  0  0  0
 33 32  2  0  0  0  0
 34 35  2  0  0  0  0
 36 35  1  0  0  0  0
 37 38  1  0  0  0  0
 39 37  2  0  0  0  0
 39 38  1  0  0  0  0
 40 41  3  0  0  0  0
 42  4  1  0  0  0  0
 42 43  1  0  0  0  0
 43 44  2  0  0  0  0
 43 45  1  0  0  0  0
M  END
>  <MODEL>
7

>  <REMARK>
 VINA RESULT:      -7.5      1.489      2.041
  Name = 
  9 active torsions:
  status: ('A' for Active; 'I' for Inactive)
    1  A    between atoms: C_6  and  C_37
    2  A    between atoms: C_8  and  C_37
    3  A    between atoms: C_9  and  C_44
    4  A    between atoms: C_13  and  C_41
    5  A    between atoms: C_16  and  C_44
    6  A    between atoms: C_26  and  C_27
    7  A    between atoms: N_28  and  C_42
    8  A    between atoms: N_31  and  C_38
    9  A    between atoms: C_38  and  C_39
                            x       y       z     vdW  Elec       q    Type
                         _______ _______ _______ _____ _____    ______ ____

>  <TORSDO>
F 9

$$$$
=
 OpenBabel10232409503D

 45 51  0  0  1  0  0  0  0  0999 V2000
  189.2550  175.3370  136.4430 C   0  0  2  0  0  3  0  0  0  0  0  0
  190.5780  175.9740  138.2660 C   0  0  0  0  0  2  0  0  0  0  0  0
  192.8600  176.1530  134.4930 O   0  0  0  0  0  1  0  0  0  0  0  0
  189.3410  176.3460  135.2690 C   0  0  1  0  0  0  0  0  0  0  0  0
  189.3460  177.7910  135.7730 C   0  0  0  0  0  1  0  0  0  0  0  0
  188.3460  175.7900  137.4250 O   0  0  0  0  0  0  0  0  0  0  0  0
  190.6170  176.0950  134.4670 C   0  0  0  0  0  2  0  0  0  0  0  0
  190.4890  173.7030  137.6490 O   0  0  0  0  0  1  0  0  0  0  0  0
  191.8250  175.0810  136.2180 C   0  0  1  0  0  3  0  0  0  0  0  0
  190.5760  174.9980  137.1320 C   0  0  1  0  0  0  0  0  0  0  0  0
  189.1000  176.1060  138.5800 C   0  0  2  0  0  3  0  0  0  0  0  0
  191.7890  176.2400  135.3200 N   0  0  0  0  0  0  0  0  0  0  0  0
  193.4960  176.0620  137.6360 O   0  0  0  0  0  0  0  0  0  0  0  0
  193.0990  175.0350  137.0180 C   0  0  0  0  0  0  0  0  0  0  0  0
  193.8220  173.8020  137.1120 N   0  0  0  0  0  2  0  0  0  0  0  0
  197.2330  173.3150  137.4080 C   0  0  0  0  0  0  0  0  0  0  0  0
  195.3390  172.0760  138.0640 C   0  0  0  0  0  2  0  0  0  0  0  0
  197.5220  171.1460  137.1450 N   0  0  0  0  0  0  0  0  0  0  0  0
  198.3320  173.1360  136.5950 C   0  0  0  0  0  3  0  0  0  0  0  0
  196.7710  172.0980  137.7210 C   0  0  0  0  0  0  0  0  0  0  0  0
  196.2070  174.3690  137.4840 C   0  0  0  0  0  2  0  0  0  0  0  0
  199.5330  171.1340  135.7420 C   0  0  0  0  0  1  0  0  0  0  0  0
  198.5040  171.7940  136.5250 N   0  0  0  0  0  0  0  0  0  0  0  0
  194.9720  173.5800  137.9880 C   0  0  1  0  0  3  0  0  0  0  0  0
  188.7610  177.5120  139.0840 C   0  0  1  0  0  3  0  0  0  0  0  0
  187.6690  178.1580  138.2440 C   0  0  0  0  0  1  0  0  0  0  0  0
  188.4010  177.5210  140.5070 N   0  0  0  0  0  0  0  0  0  0  0  0
  189.2160  177.5630  141.5240 C   0  0  0  0  0  0  0  0  0  0  0  0
  190.6180  177.6080  144.3770 N   0  0  0  0  0  2  0  0  0  0  0  0
  188.6540  177.5940  142.8860 C   0  0  0  0  0  0  0  0  0  0  0  0
  189.3460  177.6100  144.0270 N   0  0  0  0  0  0  0  0  0  0  0  0
  189.2780  177.6620  146.1920 C   0  0  0  0  0  0  0  0  0  0  0  0
  190.6090  177.6410  145.7420 C   0  0  0  0  0  3  0  0  0  0  0  0
  188.5370  177.6400  145.0410 C   0  0  0  0  0  0  0  0  0  0  0  0
  187.2140  177.6450  144.6460 C   0  0  0  0  0  3  0  0  0  0  0  0
  187.2960  177.6140  143.2340 C   0  0  0  0  0  3  0  0  0  0  0  0
  187.8560  177.4390  148.4700 N   0  0  0  0  0  0  0  0  0  0  0  0
  189.0010  178.0410  148.8720 O   0  0  0  0  0  0  0  0  0  0  0  0
  188.8020  177.7040  147.5710 C   0  0  0  0  0  0  0  0  0  0  0  0
  190.6500  177.6070  141.3440 C   0  0  0  0  0  0  0  0  0  0  0  0
  191.7970  177.6380  141.2000 N   0  0  0  0  0  0  0  0  0  0  0  0
  188.1140  176.1160  134.3790 C   0  0  0  0  0  2  0  0  0  0  0  0
  186.9150  176.9230  134.7720 C   0  0  0  0  0  0  0  0  0  0  0  0
  186.7920  178.2370  134.3460 O   0  0  0  0  0  0  0  0  0  0  0  0
  186.0090  176.4030  135.4740 O   0  0  0  0  0  1  0  0  0  0  0  0
  1 10  1  0  0  0  0
  1  6  1  1  0  0  0
  2 11  1  0  0  0  0
  3 12  1  0  0  0  0
  4  5  1  1  0  0  0
  4  1  1  0  0  0  0
  6 11  1  0  0  0  0
  7  4  1  0  0  0  0
  7 12  1  0  0  0  0
  9 14  1  1  0  0  0
  9 10  1  0  0  0  0
 10  8  1  1  0  0  0
 10  2  1  0  0  0  0
 11 25  1  6  0  0  0
 12  9  1  0  0  0  0
 14 15  1  0  0  0  0
 14 13  2  0  0  0  0
 16 21  1  0  0  0  0
 16 20  1  0  0  0  0
 18 20  2  0  0  0  0
 19 16  2  0  0  0  0
 20 17  1  0  0  0  0
 21 24  1  0  0  0  0
 22 23  1  0  0  0  0
 23 19  1  0  0  0  0
 23 18  1  0  0  0  0
 24 15  1  6  0  0  0
 24 17  1  0  0  0  0
 25 26  1  6  0  0  0
 25 27  1  0  0  0  0
 27 28  2  0  0  0  0
 28 30  1  0  0  0  0
 29 33  1  0  0  0  0
 30 36  2  0  0  0  0
 30 31  1  0  0  0  0
 31 29  1  0  0  0  0
 31 34  1  0  0  0  0
 32 39  1  0  0  0  0
 33 32  2  0  0  0  0
 34 32  1  0  0  0  0
 35 34  2  0  0  0  0
 36 35  1  0  0  0  0
 37 38  1  0  0  0  0
 39 37  2  0  0  0  0
 39 38  1  0  0  0  0
 40 28  1  0  0  0  0
 41 40  3  0  0  0  0
 42 43  1  0  0  0  0
 42  4  1  0  0  0  0
 43 45  1  0  0  0  0
 44 43  2  0  0  0  0
M  END
>  <MODEL>
8

>  <REMARK>
 VINA RESULT:      -7.5      3.493      8.154
  Name = 
  9 active torsions:
  status: ('A' for Active; 'I' for Inactive)
    1  A    between atoms: C_6  and  C_37
    2  A    between atoms: C_8  and  C_37
    3  A    between atoms: C_9  and  C_44
    4  A    between atoms: C_13  and  C_41
    5  A    between atoms: C_16  and  C_44
    6  A    between atoms: C_26  and  C_27
    7  A    between atoms: N_28  and  C_42
    8  A    between atoms: N_31  and  C_38
    9  A    between atoms: C_38  and  C_39
                            x       y       z     vdW  Elec       q    Type
                         _______ _______ _______ _____ _____    ______ ____

>  <TORSDO>
F 9

$$$$
=
 OpenBabel10232409503D

 45 51  0  0  1  0  0  0  0  0999 V2000
  181.4820  176.4440  136.5320 C   0  0  2  0  0  3  0  0  0  0  0  0
  183.5670  177.3000  137.1650 C   0  0  0  0  0  2  0  0  0  0  0  0
  180.9450  176.7220  140.6680 O   0  0  0  0  0  1  0  0  0  0  0  0
  181.0610  175.2220  137.3880 C   0  0  1  0  0  0  0  0  0  0  0  0
  182.2470  174.2920  137.6560 C   0  0  0  0  0  1  0  0  0  0  0  0
  182.3740  176.0540  135.5080 O   0  0  0  0  0  0  0  0  0  0  0  0
  180.4920  175.6990  138.7230 C   0  0  0  0  0  2  0  0  0  0  0  0
  181.8350  178.7930  136.6050 O   0  0  0  0  0  1  0  0  0  0  0  0
  181.6200  177.7680  138.7570 C   0  0  1  0  0  3  0  0  0  0  0  0
  182.1090  177.6100  137.2960 C   0  0  1  0  0  0  0  0  0  0  0  0
  183.6330  176.6250  135.8080 C   0  0  2  0  0  3  0  0  0  0  0  0
  181.4850  176.4800  139.4470 N   0  0  0  0  0  0  0  0  0  0  0  0
  182.1860  179.9520  139.5780 O   0  0  0  0  0  0  0  0  0  0  0  0
  182.4860  178.7260  139.5290 C   0  0  0  0  0  0  0  0  0  0  0  0
  183.6180  178.2230  140.2490 N   0  0  0  0  0  2  0  0  0  0  0  0
  186.6660  178.6730  141.8200 C   0  0  0  0  0  0  0  0  0  0  0  0
  184.4560  178.3850  142.5850 C   0  0  0  0  0  2  0  0  0  0  0  0
  186.5650  177.4130  143.6250 N   0  0  0  0  0  0  0  0  0  0  0  0
  187.8770  178.0250  141.9440 C   0  0  0  0  0  3  0  0  0  0  0  0
  185.9020  178.2820  142.8470 C   0  0  0  0  0  0  0  0  0  0  0  0
  185.8910  179.1270  140.6520 C   0  0  0  0  0  2  0  0  0  0  0  0
  188.8230  176.4570  143.6240 C   0  0  0  0  0  1  0  0  0  0  0  0
  187.7840  177.3250  143.1000 N   0  0  0  0  0  0  0  0  0  0  0  0
  184.4340  179.0130  141.1690 C   0  0  1  0  0  3  0  0  0  0  0  0
  184.7370  175.5640  135.7670 C   0  0  1  0  0  3  0  0  0  0  0  0
  184.9790  175.0660  134.3500 C   0  0  0  0  0  1  0  0  0  0  0  0
  185.9850  176.0360  136.3770 N   0  0  0  0  0  0  0  0  0  0  0  0
  186.8290  175.3360  137.0840 C   0  0  0  0  0  0  0  0  0  0  0  0
  189.8880  174.4840  136.9340 N   0  0  0  0  0  2  0  0  0  0  0  0
  188.0490  175.9900  137.5890 C   0  0  0  0  0  0  0  0  0  0  0  0
  189.2990  175.5360  137.4680 N   0  0  0  0  0  0  0  0  0  0  0  0
  191.4000  175.8700  137.8760 C   0  0  0  0  0  0  0  0  0  0  0  0
  191.2200  174.6650  137.1750 C   0  0  0  0  0  3  0  0  0  0  0  0
  190.1310  176.3620  138.0240 C   0  0  0  0  0  0  0  0  0  0  0  0
  189.4880  177.4550  138.5700 C   0  0  0  0  0  3  0  0  0  0  0  0
  188.1250  177.2060  138.2840 C   0  0  0  0  0  3  0  0  0  0  0  0
  193.4090  176.9320  139.3230 N   0  0  0  0  0  0  0  0  0  0  0  0
  193.9040  176.9170  138.0620 O   0  0  0  0  0  0  0  0  0  0  0  0
  192.6550  176.4570  138.3340 C   0  0  0  0  0  0  0  0  0  0  0  0
  186.6070  173.9330  137.3580 C   0  0  0  0  0  0  0  0  0  0  0  0
  186.4300  172.8130  137.5800 N   0  0  0  0  0  0  0  0  0  0  0  0
  179.9820  174.4650  136.6030 C   0  0  0  0  0  2  0  0  0  0  0  0
  180.2770  173.0100  136.4080 C   0  0  0  0  0  0  0  0  0  0  0  0
  180.8860  172.5740  135.2400 O   0  0  0  0  0  0  0  0  0  0  0  0
  179.9910  172.1830  137.3120 O   0  0  0  0  0  1  0  0  0  0  0  0
  1  6  1  6  0  0  0
  1 10  1  0  0  0  0
  1  4  1  0  0  0  0
  2 10  1  0  0  0  0
  4  5  1  1  0  0  0
  4  7  1  0  0  0  0
  6 11  1  0  0  0  0
  7 12  1  0  0  0  0
  9 12  1  0  0  0  0
  9 14  1  1  0  0  0
 10  8  1  6  0  0  0
 10  9  1  0  0  0  0
 11 25  1  1  0  0  0
 11  2  1  0  0  0  0
 12  3  1  0  0  0  0
 14 13  2  0  0  0  0
 14 15  1  0  0  0  0
 16 19  2  0  0  0  0
 16 20  1  0  0  0  0
 17 20  1  0  0  0  0
 19 23  1  0  0  0  0
 20 18  2  0  0  0  0
 21 24  1  0  0  0  0
 21 16  1  0  0  0  0
 23 22  1  0  0  0  0
 23 18  1  0  0  0  0
 24 15  1  6  0  0  0
 24 17  1  0  0  0  0
 25 26  1  6  0  0  0
 25 27  1  0  0  0  0
 27 28  2  0  0  0  0
 28 40  1  0  0  0  0
 28 30  1  0  0  0  0
 29 33  1  0  0  0  0
 29 31  1  0  0  0  0
 30 36  2  0  0  0  0
 31 30  1  0  0  0  0
 31 34  1  0  0  0  0
 32 34  1  0  0  0  0
 32 39  1  0  0  0  0
 33 32  2  0  0  0  0
 34 35  2  0  0  0  0
 36 35  1  0  0  0  0
 38 39  1  0  0  0  0
 38 37  1  0  0  0  0
 39 37  2  0  0  0  0
 40 41  3  0  0  0  0
 42  4  1  0  0  0  0
 43 42  1  0  0  0  0
 43 45  1  0  0  0  0
 44 43  2  0  0  0  0
M  END
>  <MODEL>
9

>  <REMARK>
 VINA RESULT:      -7.4      3.002      8.796
  Name = 
  9 active torsions:
  status: ('A' for Active; 'I' for Inactive)
    1  A    between atoms: C_6  and  C_37
    2  A    between atoms: C_8  and  C_37
    3  A    between atoms: C_9  and  C_44
    4  A    between atoms: C_13  and  C_41
    5  A    between atoms: C_16  and  C_44
    6  A    between atoms: C_26  and  C_27
    7  A    between atoms: N_28  and  C_42
    8  A    between atoms: N_31  and  C_38
    9  A    between atoms: C_38  and  C_39
                            x       y       z     vdW  Elec       q    Type
                         _______ _______ _______ _____ _____    ______ ____

>  <TORSDO>
F 9

$$$$
