=
 OpenBabel10232407453D

 63 69  0  0  1  0  0  0  0  0999 V2000
  186.6370  172.8560  135.8110 C   0  0  1  0  0  3  0  0  0  0  0  0
  186.7720  174.1900  135.0450 C   0  0  0  0  0  2  0  0  0  0  0  0
  185.9360  175.1160  135.8430 C   0  0  2  0  0  3  0  0  0  0  0  0
  183.9790  176.1880  136.3400 C   0  0  0  0  0  0  0  0  0  0  0  0
  184.0560  175.1350  137.0960 N   0  0  0  0  0  0  0  0  0  0  0  0
  185.2970  174.5140  136.7950 C   0  0  1  0  0  3  0  0  0  0  0  0
  185.1100  176.2480  135.3430 C   0  0  1  0  0  3  0  0  0  0  0  0
  185.5850  173.0700  136.9080 C   0  0  0  0  0  2  0  0  0  0  0  0
  186.2820  171.6710  134.8940 C   0  0  1  0  0  3  0  0  0  0  0  0
  187.5090  170.9000  134.3460 C   0  0  1  0  0  3  0  0  0  0  0  0
  188.6570  171.6970  134.3470 O   0  0  0  0  0  1  0  0  0  0  0  0
  187.7750  169.6620  135.1430 C   0  0  0  0  0  0  0  0  0  0  0  0
  187.5740  168.3270  134.5090 C   0  0  0  0  0  1  0  0  0  0  0  0
  188.1940  169.7370  136.2890 O   0  0  0  0  0  0  0  0  0  0  0  0
  185.2000  170.7870  135.5270 C   0  0  0  0  0  2  0  0  0  0  0  0
  183.8170  171.0050  134.9180 C   0  0  0  0  0  1  0  0  0  0  0  0
  185.8790  177.5600  135.3840 C   0  0  0  0  0  2  0  0  0  0  0  0
  187.7770  177.7190  137.0790 C   0  0  0  0  0  0  0  0  0  0  0  0
  188.2040  177.9530  138.4010 C   0  0  0  0  0  3  0  0  0  0  0  0
  185.4910  178.1260  137.7890 C   0  0  0  0  0  3  0  0  0  0  0  0
  186.4030  177.8370  136.7660 C   0  0  0  0  0  0  0  0  0  0  0  0
  185.9260  178.3670  139.0930 C   0  0  0  0  0  3  0  0  0  0  0  0
  187.2870  178.2780  139.3990 C   0  0  0  0  0  3  0  0  0  0  0  0
  188.7530  177.2740  136.0690 C   0  0  0  0  0  3  0  0  0  0  0  0
  189.2130  176.0610  136.0850 N   0  0  0  0  0  0  0  0  0  0  0  0
  190.1290  175.6580  135.1080 N   0  0  0  0  0  2  0  0  0  0  0  0
  191.4800  175.9810  135.2310 N   0  0  0  0  0  2  0  0  0  0  0  0
  192.1550  174.7980  135.7550 C   0  0  0  0  0  2  0  0  0  0  0  0
  192.7830  175.1020  137.1140 C   0  0  2  0  0  3  0  0  0  0  0  0
  193.5540  173.9580  137.5760 N   0  0  0  0  0  1  0  0  0  0  0  0
  191.7600  175.5000  138.1870 C   0  0  0  0  0  2  0  0  0  0  0  0
  191.3230  177.0260  141.4270 C   0  0  0  0  0  0  0  0  0  0  0  0
  193.0730  177.1780  139.1990 C   0  0  0  0  0  2  0  0  0  0  0  0
  189.9090  177.2160  141.6020 N   0  0  0  0  0  2  0  0  0  0  0  0
  192.0900  177.0500  142.4230 O   0  0  0  0  0  0  0  0  0  0  0  0
  191.8890  177.0280  140.1150 N   0  0  0  0  0  0  0  0  0  0  0  0
  191.8380  176.9600  138.6170 C   0  0  2  0  0  3  0  0  0  0  0  0
  190.2560  177.6370  145.6670 C   0  0  1  0  0  3  0  0  0  0  0  0
  189.2660  177.4510  142.9040 C   0  0  2  0  0  0  0  0  0  0  0  0
  187.7700  177.5520  142.6510 C   0  0  0  0  0  1  0  0  0  0  0  0
  189.2130  176.6800  145.0860 C   0  0  0  0  0  2  0  0  0  0  0  0
  191.4400  176.8470  146.1660 C   0  0  0  0  0  1  0  0  0  0  0  0
  189.7190  178.8250  143.4850 C   0  0  0  0  0  2  0  0  0  0  0  0
  190.7350  178.6570  144.6240 C   0  0  0  0  0  2  0  0  0  0  0  0
  189.5420  176.3450  143.7540 O   0  0  0  0  0  0  0  0  0  0  0  0
  182.7160  176.9840  136.2180 C   0  0  0  0  0  2  0  0  0  0  0  0
  180.3100  177.1980  136.8220 C   0  0  0  0  0  2  0  0  0  0  0  0
  180.4200  179.5330  137.6990 C   0  0  0  0  0  1  0  0  0  0  0  0
  181.8460  176.3950  138.4670 C   0  0  1  0  0  3  0  0  0  0  0  0
  180.2210  178.0680  138.0580 C   0  0  2  0  0  3  0  0  0  0  0  0
  181.5550  176.3570  136.9880 C   0  0  2  0  0  3  0  0  0  0  0  0
  181.2530  177.6420  139.0040 N   0  0  0  0  0  0  0  0  0  0  0  0
  180.7010  174.5230  138.0580 C   0  0  0  0  0  1  0  0  0  0  0  0
  181.3260  175.2440  139.0790 O   0  0  0  0  0  0  0  0  0  0  0  0
  180.6240  177.4070  140.2410 N   0  0  0  0  0  2  0  0  0  0  0  0
  180.6060  178.6730  140.9680 C   0  0  0  0  0  2  0  0  0  0  0  0
  182.3780  178.6240  144.2250 C   0  0  0  0  0  2  0  0  0  0  0  0
  183.8920  178.7930  144.3310 C   0  0  0  0  0  2  0  0  0  0  0  0
  184.2290  178.3470  141.9430 O   0  0  0  0  0  0  0  0  0  0  0  0
  184.5610  179.2240  143.0200 C   0  0  0  0  0  2  0  0  0  0  0  0
  181.7590  179.4910  143.1210 C   0  0  0  0  0  2  0  0  0  0  0  0
  182.9750  178.2760  141.3130 C   0  0  0  0  0  3  0  0  0  0  0  0
  181.8400  178.7940  141.7980 C   0  0  0  0  0  0  0  0  0  0  0  0
  1  9  1  6  0  0  0
  1  8  1  0  0  0  0
  2  1  1  0  0  0  0
  3  2  1  6  0  0  0
  3  6  1  0  0  0  0
  4  5  2  0  0  0  0
  6  8  1  6  0  0  0
  6  5  1  0  0  0  0
  7 17  1  1  0  0  0
  7  3  1  0  0  0  0
  7  4  1  0  0  0  0
  9 15  1  1  0  0  0
 10 11  1  1  0  0  0
 10  9  1  0  0  0  0
 10 12  1  0  0  0  0
 12 14  2  0  0  0  0
 13 12  1  0  0  0  0
 16 15  1  0  0  0  0
 17 21  1  0  0  0  0
 18 19  1  0  0  0  0
 19 23  2  0  0  0  0
 20 22  2  0  0  0  0
 21 18  2  0  0  0  0
 21 20  1  0  0  0  0
 22 23  1  0  0  0  0
 24 25  2  0  0  0  0
 24 18  1  0  0  0  0
 26 27  1  0  0  0  0
 26 25  1  0  0  0  0
 27 28  1  0  0  0  0
 28 29  1  0  0  0  0
 29 30  1  1  0  0  0
 29 31  1  0  0  0  0
 32 34  1  0  0  0  0
 32 35  2  0  0  0  0
 33 36  1  0  0  0  0
 34 39  1  0  0  0  0
 36 32  1  0  0  0  0
 37 31  1  1  0  0  0
 37 33  1  0  0  0  0
 37 36  1  0  0  0  0
 38 42  1  6  0  0  0
 39 40  1  6  0  0  0
 39 43  1  0  0  0  0
 39 45  1  0  0  0  0
 41 38  1  0  0  0  0
 43 44  1  0  0  0  0
 44 38  1  0  0  0  0
 45 41  1  0  0  0  0
 46  4  1  0  0  0  0
 47 51  1  0  0  0  0
 47 50  1  0  0  0  0
 49 52  1  0  0  0  0
 49 54  1  1  0  0  0
 50 48  1  6  0  0  0
 50 52  1  0  0  0  0
 51 46  1  6  0  0  0
 51 49  1  0  0  0  0
 52 55  1  0  0  0  0
 53 54  1  0  0  0  0
 55 56  1  0  0  0  0
 56 63  1  0  0  0  0
 57 58  1  0  0  0  0
 59 60  1  0  0  0  0
 60 58  1  0  0  0  0
 61 57  1  0  0  0  0
 62 63  2  0  0  0  0
 62 59  1  0  0  0  0
 63 61  1  0  0  0  0
M  END
>  <MODEL>
1

>  <REMARK>
 VINA RESULT:      -6.4      0.000      0.000
  Name = 
  20 active torsions:
  status: ('A' for Active; 'I' for Inactive)
    1  A    between atoms: C_1  and  C_15
    2  A    between atoms: C_1  and  C_41
    3  A    between atoms: C_6  and  C_14
    4  A    between atoms: C_8  and  C_28
    5  A    between atoms: N_12  and  N_16
    6  A    between atoms: N_12  and  C_61
    7  A    between atoms: C_15  and  C_61
    8  A    between atoms: N_16  and  N_20
    9  A    between atoms: C_17  and  N_27
   10  A    between atoms: C_18  and  C_28
   11  A    between atoms: C_23  and  O_50
   12  A    between atoms: C_28  and  C_42
   13  A    between atoms: C_31  and  C_32
   14  A    between atoms: C_31  and  C_59
   15  A    between atoms: C_33  and  C_42
   16  A    between atoms: C_34  and  C_43
   17  A    between atoms: C_34  and  C_52
   18  A    between atoms: N_40  and  N_49
   19  A    between atoms: N_40  and  C_51
   20  A    between atoms: C_51  and  C_54
                            x       y       z     vdW  Elec       q    Type
                         _______ _______ _______ _____ _____    ______ ____

>  <TORSDO>
F 20

$$$$
=
 OpenBabel10232407453D

 63 69  0  0  1  0  0  0  0  0999 V2000
  186.7640  177.5980  136.9920 C   0  0  1  0  0  3  0  0  0  0  0  0
  185.6690  176.6370  137.5030 C   0  0  0  0  0  2  0  0  0  0  0  0
  184.6950  177.5530  138.1400 C   0  0  2  0  0  3  0  0  0  0  0  0
  183.8190  178.6850  139.9240 C   0  0  0  0  0  0  0  0  0  0  0  0
  184.6180  179.4940  139.2960 N   0  0  0  0  0  0  0  0  0  0  0  0
  185.1140  178.7790  138.1740 C   0  0  1  0  0  3  0  0  0  0  0  0
  183.8600  177.2910  139.3440 C   0  0  1  0  0  3  0  0  0  0  0  0
  186.4230  178.9960  137.5270 C   0  0  0  0  0  2  0  0  0  0  0  0
  188.1830  177.1570  137.3910 C   0  0  1  0  0  3  0  0  0  0  0  0
  189.3060  177.7280  136.4890 C   0  0  1  0  0  3  0  0  0  0  0  0
  190.5560  177.2090  136.8370 O   0  0  0  0  0  1  0  0  0  0  0  0
  189.0440  177.4400  135.0450 C   0  0  0  0  0  0  0  0  0  0  0  0
  189.7340  176.2910  134.3910 C   0  0  0  0  0  1  0  0  0  0  0  0
  188.2400  178.1090  134.4120 O   0  0  0  0  0  0  0  0  0  0  0  0
  188.4170  177.3400  138.8970 C   0  0  0  0  0  2  0  0  0  0  0  0
  189.6940  178.1120  139.2150 C   0  0  0  0  0  1  0  0  0  0  0  0
  182.4870  176.7570  138.9640 C   0  0  0  0  0  2  0  0  0  0  0  0
  182.0520  176.7250  136.4520 C   0  0  0  0  0  0  0  0  0  0  0  0
  181.6070  177.3870  135.2920 C   0  0  0  0  0  3  0  0  0  0  0  0
  181.5430  178.7210  137.7370 C   0  0  0  0  0  3  0  0  0  0  0  0
  181.9900  177.3940  137.6960 C   0  0  0  0  0  0  0  0  0  0  0  0
  181.0940  179.3640  136.5820 C   0  0  0  0  0  3  0  0  0  0  0  0
  181.1280  178.6940  135.3560 C   0  0  0  0  0  3  0  0  0  0  0  0
  182.6510  175.3830  136.3390 C   0  0  0  0  0  3  0  0  0  0  0  0
  182.2250  174.5440  135.4450 N   0  0  0  0  0  0  0  0  0  0  0  0
  182.8160  173.2810  135.3470 N   0  0  0  0  0  2  0  0  0  0  0  0
  183.7520  173.0160  134.3480 N   0  0  0  0  0  2  0  0  0  0  0  0
  184.8140  172.2220  134.9580 C   0  0  0  0  0  2  0  0  0  0  0  0
  186.0330  173.0960  135.2500 C   0  0  2  0  0  3  0  0  0  0  0  0
  185.8930  174.3850  134.5890 N   0  0  0  0  0  1  0  0  0  0  0  0
  187.3630  172.4490  134.8410 C   0  0  0  0  0  2  0  0  0  0  0  0
  190.3520  173.3600  136.6440 C   0  0  0  0  0  0  0  0  0  0  0  0
  187.7490  172.3590  137.1660 C   0  0  0  0  0  2  0  0  0  0  0  0
  191.4610  172.8970  135.8570 N   0  0  0  0  0  2  0  0  0  0  0  0
  190.5300  174.2320  137.5320 O   0  0  0  0  0  0  0  0  0  0  0  0
  189.0950  172.6840  136.5770 N   0  0  0  0  0  0  0  0  0  0  0  0
  188.0930  171.7420  135.9760 C   0  0  2  0  0  3  0  0  0  0  0  0
  195.3330  172.1480  136.9850 C   0  0  1  0  0  3  0  0  0  0  0  0
  192.8420  173.3780  136.0200 C   0  0  2  0  0  0  0  0  0  0  0  0
  192.8520  174.8470  135.6260 C   0  0  0  0  0  1  0  0  0  0  0  0
  194.6120  173.3920  137.5110 C   0  0  0  0  0  2  0  0  0  0  0  0
  195.3590  171.0900  138.0590 C   0  0  0  0  0  1  0  0  0  0  0  0
  193.7880  172.6380  135.0260 C   0  0  0  0  0  2  0  0  0  0  0  0
  194.6460  171.5800  135.7350 C   0  0  0  0  0  2  0  0  0  0  0  0
  193.2140  173.2390  137.3850 O   0  0  0  0  0  0  0  0  0  0  0  0
  183.2680  179.0080  141.2780 C   0  0  0  0  0  2  0  0  0  0  0  0
  183.0680  177.8830  143.4910 C   0  0  0  0  0  2  0  0  0  0  0  0
  181.8450  179.7200  144.6590 C   0  0  0  0  0  1  0  0  0  0  0  0
  184.9660  179.2730  143.0690 C   0  0  1  0  0  3  0  0  0  0  0  0
  183.1550  178.9520  144.5600 C   0  0  2  0  0  3  0  0  0  0  0  0
  184.0270  178.3010  142.4000 C   0  0  2  0  0  3  0  0  0  0  0  0
  184.2440  179.8670  144.2180 N   0  0  0  0  0  0  0  0  0  0  0  0
  186.6570  178.0430  142.2860 C   0  0  0  0  0  1  0  0  0  0  0  0
  186.1380  178.6050  143.4570 O   0  0  0  0  0  0  0  0  0  0  0  0
  185.0850  179.9660  145.3430 N   0  0  0  0  0  2  0  0  0  0  0  0
  184.8640  178.7730  146.1570 C   0  0  0  0  0  2  0  0  0  0  0  0
  188.4010  177.7360  145.7570 C   0  0  0  0  0  2  0  0  0  0  0  0
  189.2820  177.3690  146.9490 C   0  0  0  0  0  2  0  0  0  0  0  0
  187.7430  178.4010  148.5560 O   0  0  0  0  0  0  0  0  0  0  0  0
  188.5140  177.2340  148.2700 C   0  0  0  0  0  2  0  0  0  0  0  0
  186.9480  177.2770  145.9300 C   0  0  0  0  0  2  0  0  0  0  0  0
  186.5720  178.7850  147.8800 C   0  0  0  0  0  3  0  0  0  0  0  0
  186.1650  178.2910  146.7050 C   0  0  0  0  0  0  0  0  0  0  0  0
  1  9  1  1  0  0  0
  1  2  1  0  0  0  0
  1  8  1  0  0  0  0
  3  2  1  1  0  0  0
  3  6  1  0  0  0  0
  3  7  1  0  0  0  0
  4 46  1  0  0  0  0
  5  4  2  0  0  0  0
  6  8  1  1  0  0  0
  6  5  1  0  0  0  0
  7 17  1  6  0  0  0
  7  4  1  0  0  0  0
  9 15  1  1  0  0  0
 10 11  1  1  0  0  0
 10  9  1  0  0  0  0
 12 10  1  0  0  0  0
 13 12  1  0  0  0  0
 14 12  2  0  0  0  0
 15 16  1  0  0  0  0
 18 21  1  0  0  0  0
 19 23  1  0  0  0  0
 19 18  2  0  0  0  0
 21 20  2  0  0  0  0
 21 17  1  0  0  0  0
 22 20  1  0  0  0  0
 23 22  2  0  0  0  0
 24 18  1  0  0  0  0
 25 24  2  0  0  0  0
 26 25  1  0  0  0  0
 27 28  1  0  0  0  0
 27 26  1  0  0  0  0
 28 29  1  0  0  0  0
 29 30  1  6  0  0  0
 31 29  1  0  0  0  0
 32 35  2  0  0  0  0
 34 39  1  0  0  0  0
 34 32  1  0  0  0  0
 36 32  1  0  0  0  0
 36 33  1  0  0  0  0
 37 31  1  6  0  0  0
 37 36  1  0  0  0  0
 37 33  1  0  0  0  0
 38 41  1  0  0  0  0
 38 42  1  1  0  0  0
 39 40  1  6  0  0  0
 39 45  1  0  0  0  0
 43 44  1  0  0  0  0
 43 39  1  0  0  0  0
 44 38  1  0  0  0  0
 45 41  1  0  0  0  0
 47 50  1  0  0  0  0
 49 54  1  1  0  0  0
 49 52  1  0  0  0  0
 50 48  1  6  0  0  0
 51 46  1  6  0  0  0
 51 49  1  0  0  0  0
 51 47  1  0  0  0  0
 52 50  1  0  0  0  0
 52 55  1  0  0  0  0
 53 54  1  0  0  0  0
 55 56  1  0  0  0  0
 56 63  1  0  0  0  0
 57 61  1  0  0  0  0
 57 58  1  0  0  0  0
 58 60  1  0  0  0  0
 60 59  1  0  0  0  0
 61 63  1  0  0  0  0
 62 59  1  0  0  0  0
 63 62  2  0  0  0  0
M  END
>  <MODEL>
2

>  <REMARK>
 VINA RESULT:      -5.5      2.847      7.235
  Name = 
  20 active torsions:
  status: ('A' for Active; 'I' for Inactive)
    1  A    between atoms: C_1  and  C_15
    2  A    between atoms: C_1  and  C_41
    3  A    between atoms: C_6  and  C_14
    4  A    between atoms: C_8  and  C_28
    5  A    between atoms: N_12  and  N_16
    6  A    between atoms: N_12  and  C_61
    7  A    between atoms: C_15  and  C_61
    8  A    between atoms: N_16  and  N_20
    9  A    between atoms: C_17  and  N_27
   10  A    between atoms: C_18  and  C_28
   11  A    between atoms: C_23  and  O_50
   12  A    between atoms: C_28  and  C_42
   13  A    between atoms: C_31  and  C_32
   14  A    between atoms: C_31  and  C_59
   15  A    between atoms: C_33  and  C_42
   16  A    between atoms: C_34  and  C_43
   17  A    between atoms: C_34  and  C_52
   18  A    between atoms: N_40  and  N_49
   19  A    between atoms: N_40  and  C_51
   20  A    between atoms: C_51  and  C_54
                            x       y       z     vdW  Elec       q    Type
                         _______ _______ _______ _____ _____    ______ ____

>  <TORSDO>
F 20

$$$$
=
 OpenBabel10232407453D

 63 69  0  0  1  0  0  0  0  0999 V2000
  184.8820  173.8480  134.9640 C   0  0  1  0  0  3  0  0  0  0  0  0
  184.1110  174.5310  136.1150 C   0  0  0  0  0  2  0  0  0  0  0  0
  184.5000  175.9530  135.9760 C   0  0  2  0  0  3  0  0  0  0  0  0
  185.8030  177.7710  136.4520 C   0  0  0  0  0  0  0  0  0  0  0  0
  186.2590  177.2320  135.3610 N   0  0  0  0  0  0  0  0  0  0  0  0
  185.4070  176.1340  135.0690 C   0  0  1  0  0  3  0  0  0  0  0  0
  184.6950  176.9480  137.0650 C   0  0  1  0  0  3  0  0  0  0  0  0
  185.8030  174.9090  134.3460 C   0  0  0  0  0  2  0  0  0  0  0  0
  185.6610  172.6020  135.4220 C   0  0  1  0  0  3  0  0  0  0  0  0
  186.9160  172.9130  136.2750 C   0  0  1  0  0  3  0  0  0  0  0  0
  186.5910  173.0740  137.6250 O   0  0  0  0  0  1  0  0  0  0  0  0
  187.9430  171.8330  136.1470 C   0  0  0  0  0  0  0  0  0  0  0  0
  188.4940  171.5010  134.8010 C   0  0  0  0  0  1  0  0  0  0  0  0
  188.3640  171.2520  137.1380 O   0  0  0  0  0  0  0  0  0  0  0  0
  184.7200  171.5520  136.0260 C   0  0  0  0  0  2  0  0  0  0  0  0
  184.8430  170.1840  135.3610 C   0  0  0  0  0  1  0  0  0  0  0  0
  183.4270  177.7470  137.3250 C   0  0  0  0  0  2  0  0  0  0  0  0
  181.7360  176.7830  138.9730 C   0  0  0  0  0  0  0  0  0  0  0  0
  180.6850  175.8860  139.2430 C   0  0  0  0  0  3  0  0  0  0  0  0
  181.7950  175.9620  136.6880 C   0  0  0  0  0  3  0  0  0  0  0  0
  182.2770  176.8400  137.6670 C   0  0  0  0  0  0  0  0  0  0  0  0
  180.7460  175.0840  136.9650 C   0  0  0  0  0  3  0  0  0  0  0  0
  180.1910  175.0460  138.2470 C   0  0  0  0  0  3  0  0  0  0  0  0
  182.3090  177.5830  140.0700 C   0  0  0  0  0  3  0  0  0  0  0  0
  181.7320  178.6780  140.4590 N   0  0  0  0  0  0  0  0  0  0  0  0
  182.2870  179.4140  141.5110 N   0  0  0  0  0  2  0  0  0  0  0  0
  182.2040  178.9440  142.8220 N   0  0  0  0  0  2  0  0  0  0  0  0
  183.4830  178.3130  143.1290 C   0  0  0  0  0  2  0  0  0  0  0  0
  184.5110  179.3660  143.5430 C   0  0  2  0  0  3  0  0  0  0  0  0
  185.7780  179.1190  142.8730 N   0  0  0  0  0  1  0  0  0  0  0  0
  184.7350  179.4410  145.0600 C   0  0  0  0  0  2  0  0  0  0  0  0
  187.8470  178.0560  146.2480 C   0  0  0  0  0  0  0  0  0  0  0  0
  185.1460  178.2960  147.0810 C   0  0  0  0  0  2  0  0  0  0  0  0
  188.4940  177.4650  145.1090 N   0  0  0  0  0  2  0  0  0  0  0  0
  188.5130  178.3230  147.2810 O   0  0  0  0  0  0  0  0  0  0  0  0
  186.4230  178.1420  146.2990 N   0  0  0  0  0  0  0  0  0  0  0  0
  185.0410  178.0990  145.7160 C   0  0  2  0  0  3  0  0  0  0  0  0
  192.0130  177.3920  143.0040 C   0  0  1  0  0  3  0  0  0  0  0  0
  189.9250  177.1300  145.0580 C   0  0  2  0  0  0  0  0  0  0  0  0
  190.2750  176.4660  146.3810 C   0  0  0  0  0  1  0  0  0  0  0  0
  191.5250  176.1300  143.7180 C   0  0  0  0  0  2  0  0  0  0  0  0
  191.7270  177.2780  141.5270 C   0  0  0  0  0  1  0  0  0  0  0  0
  190.7780  178.4310  144.9680 C   0  0  0  0  0  2  0  0  0  0  0  0
  191.3330  178.6540  143.5530 C   0  0  0  0  0  2  0  0  0  0  0  0
  190.1420  176.2210  143.9860 O   0  0  0  0  0  0  0  0  0  0  0  0
  186.5650  178.8270  137.1930 C   0  0  0  0  0  2  0  0  0  0  0  0
  189.0310  178.6830  136.8840 C   0  0  0  0  0  2  0  0  0  0  0  0
  188.9970  177.7660  134.5620 C   0  0  0  0  0  1  0  0  0  0  0  0
  187.8650  176.7900  137.7620 C   0  0  1  0  0  3  0  0  0  0  0  0
  189.3180  177.4730  136.0200 C   0  0  2  0  0  3  0  0  0  0  0  0
  187.8740  178.2990  137.7770 C   0  0  2  0  0  3  0  0  0  0  0  0
  188.4990  176.3560  136.4950 N   0  0  0  0  0  0  0  0  0  0  0  0
  188.4730  177.3310  139.8410 C   0  0  0  0  0  1  0  0  0  0  0  0
  188.5370  176.3040  138.8940 O   0  0  0  0  0  0  0  0  0  0  0  0
  189.3600  175.2630  136.7130 N   0  0  0  0  0  2  0  0  0  0  0  0
  190.2230  175.1480  135.5410 C   0  0  0  0  0  2  0  0  0  0  0  0
  193.8050  176.0530  135.2210 C   0  0  0  0  0  2  0  0  0  0  0  0
  194.8620  175.5530  136.2030 C   0  0  0  0  0  2  0  0  0  0  0  0
  193.1800  174.8850  137.8580 O   0  0  0  0  0  0  0  0  0  0  0  0
  194.3550  174.4690  137.1610 C   0  0  0  0  0  2  0  0  0  0  0  0
  192.7220  175.0070  134.9310 C   0  0  0  0  0  2  0  0  0  0  0  0
  191.9030  175.0190  137.2870 C   0  0  0  0  0  3  0  0  0  0  0  0
  191.6490  175.0590  135.9740 C   0  0  0  0  0  0  0  0  0  0  0  0
  1  9  1  1  0  0  0
  1  2  1  0  0  0  0
  3  2  1  1  0  0  0
  3  7  1  0  0  0  0
  4  7  1  0  0  0  0
  4 46  1  0  0  0  0
  5  4  2  0  0  0  0
  6  8  1  1  0  0  0
  6  5  1  0  0  0  0
  6  3  1  0  0  0  0
  7 17  1  6  0  0  0
  8  1  1  0  0  0  0
  9 15  1  1  0  0  0
  9 10  1  0  0  0  0
 10 11  1  1  0  0  0
 12 10  1  0  0  0  0
 12 14  2  0  0  0  0
 13 12  1  0  0  0  0
 16 15  1  0  0  0  0
 17 21  1  0  0  0  0
 18 19  1  0  0  0  0
 18 24  1  0  0  0  0
 20 22  2  0  0  0  0
 20 21  1  0  0  0  0
 21 18  2  0  0  0  0
 22 23  1  0  0  0  0
 23 19  2  0  0  0  0
 24 25  2  0  0  0  0
 25 26  1  0  0  0  0
 26 27  1  0  0  0  0
 27 28  1  0  0  0  0
 28 29  1  0  0  0  0
 29 30  1  6  0  0  0
 29 31  1  0  0  0  0
 32 36  1  0  0  0  0
 32 35  2  0  0  0  0
 34 32  1  0  0  0  0
 36 33  1  0  0  0  0
 37 31  1  6  0  0  0
 37 36  1  0  0  0  0
 37 33  1  0  0  0  0
 38 42  1  6  0  0  0
 38 44  1  0  0  0  0
 38 41  1  0  0  0  0
 39 34  1  0  0  0  0
 39 40  1  1  0  0  0
 41 45  1  0  0  0  0
 43 39  1  0  0  0  0
 44 43  1  0  0  0  0
 45 39  1  0  0  0  0
 47 51  1  0  0  0  0
 49 51  1  0  0  0  0
 49 54  1  1  0  0  0
 50 48  1  6  0  0  0
 50 52  1  0  0  0  0
 50 47  1  0  0  0  0
 51 46  1  6  0  0  0
 52 55  1  0  0  0  0
 52 49  1  0  0  0  0
 54 53  1  0  0  0  0
 56 63  1  0  0  0  0
 56 55  1  0  0  0  0
 57 58  1  0  0  0  0
 58 60  1  0  0  0  0
 60 59  1  0  0  0  0
 61 57  1  0  0  0  0
 61 63  1  0  0  0  0
 62 59  1  0  0  0  0
 63 62  2  0  0  0  0
M  END
>  <MODEL>
3

>  <REMARK>
 VINA RESULT:      -5.0      2.145      7.577
  Name = 
  20 active torsions:
  status: ('A' for Active; 'I' for Inactive)
    1  A    between atoms: C_1  and  C_15
    2  A    between atoms: C_1  and  C_41
    3  A    between atoms: C_6  and  C_14
    4  A    between atoms: C_8  and  C_28
    5  A    between atoms: N_12  and  N_16
    6  A    between atoms: N_12  and  C_61
    7  A    between atoms: C_15  and  C_61
    8  A    between atoms: N_16  and  N_20
    9  A    between atoms: C_17  and  N_27
   10  A    between atoms: C_18  and  C_28
   11  A    between atoms: C_23  and  O_50
   12  A    between atoms: C_28  and  C_42
   13  A    between atoms: C_31  and  C_32
   14  A    between atoms: C_31  and  C_59
   15  A    between atoms: C_33  and  C_42
   16  A    between atoms: C_34  and  C_43
   17  A    between atoms: C_34  and  C_52
   18  A    between atoms: N_40  and  N_49
   19  A    between atoms: N_40  and  C_51
   20  A    between atoms: C_51  and  C_54
                            x       y       z     vdW  Elec       q    Type
                         _______ _______ _______ _____ _____    ______ ____

>  <TORSDO>
F 20

$$$$
=
 OpenBabel10232407453D

 63 69  0  0  1  0  0  0  0  0999 V2000
  186.6970  176.4850  136.8740 C   0  0  1  0  0  3  0  0  0  0  0  0
  186.3820  176.6940  138.3710 C   0  0  0  0  0  2  0  0  0  0  0  0
  184.9590  177.1050  138.3550 C   0  0  2  0  0  3  0  0  0  0  0  0
  183.2810  178.6580  138.3070 C   0  0  0  0  0  0  0  0  0  0  0  0
  183.4870  178.2620  137.0870 N   0  0  0  0  0  0  0  0  0  0  0  0
  184.5030  177.2710  137.1540 C   0  0  1  0  0  3  0  0  0  0  0  0
  184.2850  178.0680  139.2680 C   0  0  1  0  0  3  0  0  0  0  0  0
  185.4710  176.9600  136.0830 C   0  0  0  0  0  2  0  0  0  0  0  0
  187.9860  177.1990  136.4280 C   0  0  1  0  0  3  0  0  0  0  0  0
  188.4580  176.8280  135.0000 C   0  0  1  0  0  3  0  0  0  0  0  0
  189.1120  177.8980  134.3820 O   0  0  0  0  0  1  0  0  0  0  0  0
  189.3720  175.6440  135.0180 C   0  0  0  0  0  0  0  0  0  0  0  0
  188.9480  174.3810  134.3470 C   0  0  0  0  0  1  0  0  0  0  0  0
  190.4770  175.7180  135.5380 O   0  0  0  0  0  0  0  0  0  0  0  0
  187.9080  178.7060  136.7050 C   0  0  0  0  0  2  0  0  0  0  0  0
  188.6800  179.1260  137.9530 C   0  0  0  0  0  1  0  0  0  0  0  0
  183.6400  177.3580  140.4490 C   0  0  0  0  0  2  0  0  0  0  0  0
  184.8990  178.5590  142.3120 C   0  0  0  0  0  0  0  0  0  0  0  0
  184.8710  179.3330  143.4890 C   0  0  0  0  0  3  0  0  0  0  0  0
  182.4710  178.6020  142.2760 C   0  0  0  0  0  3  0  0  0  0  0  0
  183.6800  178.2150  141.6840 C   0  0  0  0  0  0  0  0  0  0  0  0
  182.4570  179.3780  143.4360 C   0  0  0  0  0  3  0  0  0  0  0  0
  183.6610  179.7430  144.0440 C   0  0  0  0  0  3  0  0  0  0  0  0
  186.1860  178.0510  141.8070 C   0  0  0  0  0  3  0  0  0  0  0  0
  187.3000  178.3890  142.3800 N   0  0  0  0  0  0  0  0  0  0  0  0
  188.5090  177.8850  141.8910 N   0  0  0  0  0  2  0  0  0  0  0  0
  189.4660  177.3730  142.7670 N   0  0  0  0  0  2  0  0  0  0  0  0
  190.7680  177.8250  142.2860 C   0  0  0  0  0  2  0  0  0  0  0  0
  190.9810  177.3900  140.8370 C   0  0  2  0  0  3  0  0  0  0  0  0
  190.2550  176.1570  140.5730 N   0  0  0  0  0  1  0  0  0  0  0  0
  192.4580  177.2080  140.4630 C   0  0  0  0  0  2  0  0  0  0  0  0
  194.0430  174.9240  138.1630 C   0  0  0  0  0  0  0  0  0  0  0  0
  191.7830  176.6370  138.2760 C   0  0  0  0  0  2  0  0  0  0  0  0
  195.4590  175.1280  138.2950 N   0  0  0  0  0  2  0  0  0  0  0  0
  193.6040  173.8710  137.6330 O   0  0  0  0  0  0  0  0  0  0  0  0
  193.1370  175.9960  138.4280 N   0  0  0  0  0  0  0  0  0  0  0  0
  192.7500  177.3400  138.9730 C   0  0  2  0  0  3  0  0  0  0  0  0
  196.3940  171.7660  136.1390 C   0  0  1  0  0  3  0  0  0  0  0  0
  196.4740  174.1670  137.8350 C   0  0  2  0  0  0  0  0  0  0  0  0
  197.7930  174.5700  138.4780 C   0  0  0  0  0  1  0  0  0  0  0  0
  196.8700  171.9000  137.5870 C   0  0  0  0  0  2  0  0  0  0  0  0
  195.2030  170.8430  136.0840 C   0  0  0  0  0  1  0  0  0  0  0  0
  196.6680  174.2890  136.2940 C   0  0  0  0  0  2  0  0  0  0  0  0
  196.0050  173.1260  135.5410 C   0  0  0  0  0  2  0  0  0  0  0  0
  196.0990  172.8660  138.2700 O   0  0  0  0  0  0  0  0  0  0  0  0
  182.4300  179.8510  138.6180 C   0  0  0  0  0  2  0  0  0  0  0  0
  180.1170  178.9690  138.8810 C   0  0  0  0  0  2  0  0  0  0  0  0
  180.7430  176.5890  139.3040 C   0  0  0  0  0  1  0  0  0  0  0  0
  181.1190  178.9560  136.7110 C   0  0  1  0  0  3  0  0  0  0  0  0
  180.0960  177.5590  138.3270 C   0  0  2  0  0  3  0  0  0  0  0  0
  181.0430  179.7590  137.9850 C   0  0  2  0  0  3  0  0  0  0  0  0
  180.8240  177.5460  137.0570 N   0  0  0  0  0  0  0  0  0  0  0  0
  180.9730  180.3320  134.9590 C   0  0  0  0  0  1  0  0  0  0  0  0
  180.2180  179.4790  135.7700 O   0  0  0  0  0  0  0  0  0  0  0  0
  179.9840  176.9570  136.0930 N   0  0  0  0  0  2  0  0  0  0  0  0
  180.8420  176.3100  135.1040 C   0  0  0  0  0  2  0  0  0  0  0  0
  183.2170  173.9810  136.7400 C   0  0  0  0  0  2  0  0  0  0  0  0
  182.8780  172.5130  136.9890 C   0  0  0  0  0  2  0  0  0  0  0  0
  180.4820  172.8810  136.6160 O   0  0  0  0  0  0  0  0  0  0  0  0
  181.5950  172.0460  136.2910 C   0  0  0  0  0  2  0  0  0  0  0  0
  182.6520  174.5050  135.4150 C   0  0  0  0  0  2  0  0  0  0  0  0
  180.2910  174.1940  136.1540 C   0  0  0  0  0  3  0  0  0  0  0  0
  181.2350  174.9550  135.5890 C   0  0  0  0  0  0  0  0  0  0  0  0
  1  9  1  6  0  0  0
  1  2  1  0  0  0  0
  3  2  1  6  0  0  0
  3  7  1  0  0  0  0
  4 46  1  0  0  0  0
  4  7  1  0  0  0  0
  5  6  1  0  0  0  0
  5  4  2  0  0  0  0
  6  8  1  6  0  0  0
  6  3  1  0  0  0  0
  7 17  1  1  0  0  0
  8  1  1  0  0  0  0
  9 15  1  6  0  0  0
 10 11  1  1  0  0  0
 10 12  1  0  0  0  0
 10  9  1  0  0  0  0
 12 14  2  0  0  0  0
 13 12  1  0  0  0  0
 15 16  1  0  0  0  0
 17 21  1  0  0  0  0
 18 19  1  0  0  0  0
 19 23  2  0  0  0  0
 20 22  2  0  0  0  0
 21 20  1  0  0  0  0
 21 18  2  0  0  0  0
 22 23  1  0  0  0  0
 24 18  1  0  0  0  0
 24 25  2  0  0  0  0
 26 25  1  0  0  0  0
 26 27  1  0  0  0  0
 28 27  1  0  0  0  0
 29 30  1  1  0  0  0
 29 28  1  0  0  0  0
 31 29  1  0  0  0  0
 32 34  1  0  0  0  0
 32 36  1  0  0  0  0
 33 36  1  0  0  0  0
 33 37  1  0  0  0  0
 35 32  2  0  0  0  0
 36 37  1  0  0  0  0
 37 31  1  1  0  0  0
 38 42  1  1  0  0  0
 38 41  1  0  0  0  0
 39 45  1  0  0  0  0
 39 34  1  0  0  0  0
 39 40  1  1  0  0  0
 41 45  1  0  0  0  0
 43 39  1  0  0  0  0
 44 38  1  0  0  0  0
 44 43  1  0  0  0  0
 49 54  1  6  0  0  0
 49 52  1  0  0  0  0
 49 51  1  0  0  0  0
 50 47  1  0  0  0  0
 50 48  1  1  0  0  0
 51 46  1  1  0  0  0
 51 47  1  0  0  0  0
 52 50  1  0  0  0  0
 53 54  1  0  0  0  0
 55 52  1  0  0  0  0
 56 63  1  0  0  0  0
 56 55  1  0  0  0  0
 57 58  1  0  0  0  0
 60 59  1  0  0  0  0
 60 58  1  0  0  0  0
 61 63  1  0  0  0  0
 61 57  1  0  0  0  0
 62 59  1  0  0  0  0
 63 62  2  0  0  0  0
M  END
>  <MODEL>
4

>  <REMARK>
 VINA RESULT:      -4.9      3.003      6.804
  Name = 
  20 active torsions:
  status: ('A' for Active; 'I' for Inactive)
    1  A    between atoms: C_1  and  C_15
    2  A    between atoms: C_1  and  C_41
    3  A    between atoms: C_6  and  C_14
    4  A    between atoms: C_8  and  C_28
    5  A    between atoms: N_12  and  N_16
    6  A    between atoms: N_12  and  C_61
    7  A    between atoms: C_15  and  C_61
    8  A    between atoms: N_16  and  N_20
    9  A    between atoms: C_17  and  N_27
   10  A    between atoms: C_18  and  C_28
   11  A    between atoms: C_23  and  O_50
   12  A    between atoms: C_28  and  C_42
   13  A    between atoms: C_31  and  C_32
   14  A    between atoms: C_31  and  C_59
   15  A    between atoms: C_33  and  C_42
   16  A    between atoms: C_34  and  C_43
   17  A    between atoms: C_34  and  C_52
   18  A    between atoms: N_40  and  N_49
   19  A    between atoms: N_40  and  C_51
   20  A    between atoms: C_51  and  C_54
                            x       y       z     vdW  Elec       q    Type
                         _______ _______ _______ _____ _____    ______ ____

>  <TORSDO>
F 20

$$$$
=
 OpenBabel10232407453D

 63 69  0  0  1  0  0  0  0  0999 V2000
  190.5550  177.4690  145.7600 C   0  0  1  0  0  3  0  0  0  0  0  0
  190.5080  177.4550  144.2170 C   0  0  0  0  0  2  0  0  0  0  0  0
  189.1760  178.0320  143.9210 C   0  0  2  0  0  3  0  0  0  0  0  0
  186.9360  177.8830  143.4840 C   0  0  0  0  0  0  0  0  0  0  0  0
  187.0770  178.1020  144.7560 N   0  0  0  0  0  0  0  0  0  0  0  0
  188.4710  178.2300  144.9900 C   0  0  1  0  0  3  0  0  0  0  0  0
  188.2660  177.6780  142.7990 C   0  0  1  0  0  3  0  0  0  0  0  0
  189.1650  177.8980  146.2510 C   0  0  0  0  0  2  0  0  0  0  0  0
  190.9880  176.1190  146.3590 C   0  0  1  0  0  3  0  0  0  0  0  0
  192.2860  175.5360  145.7460 C   0  0  1  0  0  3  0  0  0  0  0  0
  193.0370  174.8420  146.7000 O   0  0  0  0  0  1  0  0  0  0  0  0
  191.9850  174.6200  144.6030 C   0  0  0  0  0  0  0  0  0  0  0  0
  191.6180  175.1990  143.2780 C   0  0  0  0  0  1  0  0  0  0  0  0
  192.0800  173.4080  144.7340 O   0  0  0  0  0  0  0  0  0  0  0  0
  190.9680  176.1620  147.8930 C   0  0  0  0  0  2  0  0  0  0  0  0
  192.3550  176.3350  148.5050 C   0  0  0  0  0  1  0  0  0  0  0  0
  188.4740  178.5950  141.6030 C   0  0  0  0  0  2  0  0  0  0  0  0
  189.2830  177.5890  139.4040 C   0  0  0  0  0  0  0  0  0  0  0  0
  190.3360  177.0770  138.6220 C   0  0  0  0  0  3  0  0  0  0  0  0
  190.8640  177.9800  141.2040 C   0  0  0  0  0  3  0  0  0  0  0  0
  189.5600  178.0740  140.7030 C   0  0  0  0  0  0  0  0  0  0  0  0
  191.9020  177.4810  140.4160 C   0  0  0  0  0  3  0  0  0  0  0  0
  191.6360  177.0270  139.1220 C   0  0  0  0  0  3  0  0  0  0  0  0
  187.9020  177.5320  138.8910 C   0  0  0  0  0  3  0  0  0  0  0  0
  187.6330  177.9090  137.6790 N   0  0  0  0  0  0  0  0  0  0  0  0
  186.3180  177.8350  137.2090 N   0  0  0  0  0  2  0  0  0  0  0  0
  185.7970  176.6210  136.7590 N   0  0  0  0  0  2  0  0  0  0  0  0
  186.3180  176.4080  135.4130 C   0  0  0  0  0  2  0  0  0  0  0  0
  187.5730  175.5370  135.4590 C   0  0  2  0  0  3  0  0  0  0  0  0
  188.7070  176.2640  134.9120 N   0  0  0  0  0  1  0  0  0  0  0  0
  187.4160  174.1980  134.7240 C   0  0  0  0  0  2  0  0  0  0  0  0
  190.4900  173.5730  136.5070 C   0  0  0  0  0  0  0  0  0  0  0  0
  187.6940  173.2590  136.8700 C   0  0  0  0  0  2  0  0  0  0  0  0
  191.4330  173.0860  135.5380 N   0  0  0  0  0  2  0  0  0  0  0  0
  190.8950  174.0230  137.6090 O   0  0  0  0  0  0  0  0  0  0  0  0
  189.0910  173.3510  136.3200 N   0  0  0  0  0  0  0  0  0  0  0  0
  187.8720  172.9840  135.5270 C   0  0  2  0  0  3  0  0  0  0  0  0
  194.9400  175.1540  136.0310 C   0  0  1  0  0  3  0  0  0  0  0  0
  192.8900  173.0670  135.7460 C   0  0  2  0  0  0  0  0  0  0  0  0
  193.3200  171.6080  135.7440 C   0  0  0  0  0  1  0  0  0  0  0  0
  194.8590  174.0260  135.0000 C   0  0  0  0  0  2  0  0  0  0  0  0
  194.8550  176.4860  135.3280 C   0  0  0  0  0  1  0  0  0  0  0  0
  193.2370  173.6380  137.1540 C   0  0  0  0  0  2  0  0  0  0  0  0
  193.8120  175.0590  137.0680 C   0  0  0  0  0  2  0  0  0  0  0  0
  193.5120  173.7580  134.6720 O   0  0  0  0  0  0  0  0  0  0  0  0
  185.6210  177.4810  142.8900 C   0  0  0  0  0  2  0  0  0  0  0  0
  184.3500  179.6060  143.1580 C   0  0  0  0  0  2  0  0  0  0  0  0
  182.5740  178.7120  144.6680 C   0  0  0  0  0  1  0  0  0  0  0  0
  183.7470  178.1140  141.3910 C   0  0  1  0  0  3  0  0  0  0  0  0
  182.8830  179.2520  143.2790 C   0  0  2  0  0  3  0  0  0  0  0  0
  184.9360  178.6350  142.1590 C   0  0  2  0  0  3  0  0  0  0  0  0
  182.5610  178.2430  142.2690 N   0  0  0  0  0  0  0  0  0  0  0  0
  184.9070  179.1970  139.8210 C   0  0  0  0  0  1  0  0  0  0  0  0
  183.6100  178.8300  140.1920 O   0  0  0  0  0  0  0  0  0  0  0  0
  181.4470  178.7090  141.5450 N   0  0  0  0  0  2  0  0  0  0  0  0
  180.4510  177.6410  141.5420 C   0  0  0  0  0  2  0  0  0  0  0  0
  181.6780  177.2400  138.0670 C   0  0  0  0  0  2  0  0  0  0  0  0
  181.1850  176.1200  137.1530 C   0  0  0  0  0  2  0  0  0  0  0  0
  180.2360  174.8500  139.0240 O   0  0  0  0  0  0  0  0  0  0  0  0
  179.9830  175.3490  137.7100 C   0  0  0  0  0  2  0  0  0  0  0  0
  180.5740  177.7950  138.9740 C   0  0  0  0  0  2  0  0  0  0  0  0
  180.3110  175.6330  140.1880 C   0  0  0  0  0  3  0  0  0  0  0  0
  180.4440  176.9640  140.2130 C   0  0  0  0  0  0  0  0  0  0  0  0
  1  8  1  0  0  0  0
  1  9  1  1  0  0  0
  2  1  1  0  0  0  0
  3  2  1  1  0  0  0
  3  6  1  0  0  0  0
  4  5  2  0  0  0  0
  5  6  1  0  0  0  0
  6  8  1  1  0  0  0
  7 17  1  6  0  0  0
  7  4  1  0  0  0  0
  7  3  1  0  0  0  0
  9 15  1  1  0  0  0
 10  9  1  0  0  0  0
 10 11  1  1  0  0  0
 12 14  2  0  0  0  0
 12 10  1  0  0  0  0
 13 12  1  0  0  0  0
 15 16  1  0  0  0  0
 18 21  1  0  0  0  0
 19 23  1  0  0  0  0
 19 18  2  0  0  0  0
 21 20  2  0  0  0  0
 21 17  1  0  0  0  0
 22 20  1  0  0  0  0
 23 22  2  0  0  0  0
 24 18  1  0  0  0  0
 25 24  2  0  0  0  0
 26 25  1  0  0  0  0
 27 26  1  0  0  0  0
 28 29  1  0  0  0  0
 28 27  1  0  0  0  0
 29 30  1  6  0  0  0
 31 29  1  0  0  0  0
 32 35  2  0  0  0  0
 34 39  1  0  0  0  0
 34 32  1  0  0  0  0
 36 32  1  0  0  0  0
 36 33  1  0  0  0  0
 37 31  1  6  0  0  0
 37 36  1  0  0  0  0
 37 33  1  0  0  0  0
 38 42  1  6  0  0  0
 38 44  1  0  0  0  0
 39 40  1  6  0  0  0
 39 43  1  0  0  0  0
 41 38  1  0  0  0  0
 44 43  1  0  0  0  0
 45 41  1  0  0  0  0
 45 39  1  0  0  0  0
 46  4  1  0  0  0  0
 47 50  1  0  0  0  0
 49 54  1  6  0  0  0
 49 51  1  0  0  0  0
 49 52  1  0  0  0  0
 50 48  1  1  0  0  0
 51 46  1  1  0  0  0
 51 47  1  0  0  0  0
 52 50  1  0  0  0  0
 53 54  1  0  0  0  0
 55 52  1  0  0  0  0
 56 55  1  0  0  0  0
 57 61  1  0  0  0  0
 58 60  1  0  0  0  0
 58 57  1  0  0  0  0
 59 62  1  0  0  0  0
 60 59  1  0  0  0  0
 61 63  1  0  0  0  0
 62 63  2  0  0  0  0
 63 56  1  0  0  0  0
M  END
>  <MODEL>
5

>  <REMARK>
 VINA RESULT:      -4.9      2.309      8.212
  Name = 
  20 active torsions:
  status: ('A' for Active; 'I' for Inactive)
    1  A    between atoms: C_1  and  C_15
    2  A    between atoms: C_1  and  C_41
    3  A    between atoms: C_6  and  C_14
    4  A    between atoms: C_8  and  C_28
    5  A    between atoms: N_12  and  N_16
    6  A    between atoms: N_12  and  C_61
    7  A    between atoms: C_15  and  C_61
    8  A    between atoms: N_16  and  N_20
    9  A    between atoms: C_17  and  N_27
   10  A    between atoms: C_18  and  C_28
   11  A    between atoms: C_23  and  O_50
   12  A    between atoms: C_28  and  C_42
   13  A    between atoms: C_31  and  C_32
   14  A    between atoms: C_31  and  C_59
   15  A    between atoms: C_33  and  C_42
   16  A    between atoms: C_34  and  C_43
   17  A    between atoms: C_34  and  C_52
   18  A    between atoms: N_40  and  N_49
   19  A    between atoms: N_40  and  C_51
   20  A    between atoms: C_51  and  C_54
                            x       y       z     vdW  Elec       q    Type
                         _______ _______ _______ _____ _____    ______ ____

>  <TORSDO>
F 20

$$$$
=
 OpenBabel10232407453D

 63 69  0  0  1  0  0  0  0  0999 V2000
  189.5510  178.0110  145.7350 C   0  0  1  0  0  3  0  0  0  0  0  0
  189.6360  177.8400  144.2030 C   0  0  0  0  0  2  0  0  0  0  0  0
  188.3120  178.3170  143.7420 C   0  0  2  0  0  3  0  0  0  0  0  0
  186.1260  178.0130  143.1430 C   0  0  0  0  0  0  0  0  0  0  0  0
  186.1480  178.3660  144.3930 N   0  0  0  0  0  0  0  0  0  0  0  0
  187.5110  178.5860  144.7240 C   0  0  1  0  0  3  0  0  0  0  0  0
  187.5170  177.8070  142.5920 C   0  0  1  0  0  3  0  0  0  0  0  0
  188.1070  178.4170  146.0640 C   0  0  0  0  0  2  0  0  0  0  0  0
  189.9860  176.7510  146.5040 C   0  0  1  0  0  3  0  0  0  0  0  0
  191.5200  176.5470  146.5760 C   0  0  1  0  0  3  0  0  0  0  0  0
  191.9320  176.2090  147.8690 O   0  0  0  0  0  1  0  0  0  0  0  0
  191.9740  175.4830  145.6270 C   0  0  0  0  0  0  0  0  0  0  0  0
  192.0250  175.7790  144.1660 C   0  0  0  0  0  1  0  0  0  0  0  0
  192.3410  174.3930  146.0420 O   0  0  0  0  0  0  0  0  0  0  0  0
  189.2630  176.6490  147.8540 C   0  0  0  0  0  2  0  0  0  0  0  0
  188.9780  178.0100  148.4840 C   0  0  0  0  0  1  0  0  0  0  0  0
  187.7880  178.6090  141.3280 C   0  0  0  0  0  2  0  0  0  0  0  0
  188.8610  177.5560  139.2690 C   0  0  0  0  0  0  0  0  0  0  0  0
  190.0010  177.0210  138.6370 C   0  0  0  0  0  3  0  0  0  0  0  0
  190.2030  177.9660  141.2510 C   0  0  0  0  0  3  0  0  0  0  0  0
  188.9750  178.0620  140.5840 C   0  0  0  0  0  0  0  0  0  0  0  0
  191.3280  177.4430  140.6110 C   0  0  0  0  0  3  0  0  0  0  0  0
  191.2250  176.9690  139.3010 C   0  0  0  0  0  3  0  0  0  0  0  0
  187.5580  177.5030  138.5830 C   0  0  0  0  0  3  0  0  0  0  0  0
  187.4620  177.8010  137.3240 N   0  0  0  0  0  0  0  0  0  0  0  0
  186.2180  177.7310  136.6910 N   0  0  0  0  0  2  0  0  0  0  0  0
  185.7140  176.5040  136.2580 N   0  0  0  0  0  2  0  0  0  0  0  0
  186.3210  176.2290  134.9600 C   0  0  0  0  0  2  0  0  0  0  0  0
  187.6400  175.4770  135.1370 C   0  0  2  0  0  3  0  0  0  0  0  0
  188.7160  176.1900  134.4670 N   0  0  0  0  0  1  0  0  0  0  0  0
  187.5900  174.0270  134.6360 C   0  0  0  0  0  2  0  0  0  0  0  0
  190.8420  173.7110  136.1650 C   0  0  0  0  0  0  0  0  0  0  0  0
  188.1030  173.5630  136.8910 C   0  0  0  0  0  2  0  0  0  0  0  0
  191.6680  173.0010  135.2270 N   0  0  0  0  0  2  0  0  0  0  0  0
  191.3710  174.3750  137.0930 O   0  0  0  0  0  0  0  0  0  0  0  0
  189.4310  173.4940  136.1850 N   0  0  0  0  0  0  0  0  0  0  0  0
  188.1280  173.0010  135.6270 C   0  0  2  0  0  3  0  0  0  0  0  0
  195.1270  171.0870  136.3190 C   0  0  1  0  0  3  0  0  0  0  0  0
  193.1390  172.9840  135.2750 C   0  0  2  0  0  0  0  0  0  0  0  0
  193.6180  174.2980  134.6770 C   0  0  0  0  0  1  0  0  0  0  0  0
  194.9200  172.5570  136.6880 C   0  0  0  0  0  2  0  0  0  0  0  0
  194.8770  170.2240  137.5310 C   0  0  0  0  0  1  0  0  0  0  0  0
  193.6910  171.8460  134.3640 C   0  0  0  0  0  2  0  0  0  0  0  0
  194.1890  170.6480  135.1860 C   0  0  0  0  0  2  0  0  0  0  0  0
  193.5490  172.8890  136.6320 O   0  0  0  0  0  0  0  0  0  0  0  0
  184.8840  177.4890  142.4890 C   0  0  0  0  0  2  0  0  0  0  0  0
  183.3790  179.3790  141.8870 C   0  0  0  0  0  2  0  0  0  0  0  0
  181.2810  178.4130  142.8340 C   0  0  0  0  0  1  0  0  0  0  0  0
  183.6390  177.5720  140.3440 C   0  0  1  0  0  3  0  0  0  0  0  0
  182.0190  178.7980  141.5610 C   0  0  2  0  0  3  0  0  0  0  0  0
  184.3950  178.3930  141.3580 C   0  0  2  0  0  3  0  0  0  0  0  0
  182.2060  177.6170  140.7170 N   0  0  0  0  0  0  0  0  0  0  0  0
  183.9810  179.4640  139.2100 C   0  0  0  0  0  1  0  0  0  0  0  0
  183.8760  178.0780  139.0570 O   0  0  0  0  0  0  0  0  0  0  0  0
  181.3940  177.7780  139.5780 N   0  0  0  0  0  2  0  0  0  0  0  0
  181.3060  176.4770  138.9190 C   0  0  0  0  0  2  0  0  0  0  0  0
  180.5400  178.6140  135.9880 C   0  0  0  0  0  2  0  0  0  0  0  0
  180.4100  178.0440  134.5760 C   0  0  0  0  0  2  0  0  0  0  0  0
  181.5010  175.9370  135.1980 O   0  0  0  0  0  0  0  0  0  0  0  0
  180.3790  176.5120  134.5260 C   0  0  0  0  0  2  0  0  0  0  0  0
  179.9820  177.6720  137.0620 C   0  0  0  0  0  2  0  0  0  0  0  0
  181.6900  175.9180  136.5900 C   0  0  0  0  0  3  0  0  0  0  0  0
  181.0150  176.6680  137.4680 C   0  0  0  0  0  0  0  0  0  0  0  0
  1  8  1  0  0  0  0
  1  9  1  1  0  0  0
  2  1  1  0  0  0  0
  3  2  1  1  0  0  0
  3  6  1  0  0  0  0
  4  5  2  0  0  0  0
  5  6  1  0  0  0  0
  6  8  1  1  0  0  0
  7 17  1  6  0  0  0
  7  4  1  0  0  0  0
  7  3  1  0  0  0  0
  9 10  1  0  0  0  0
  9 15  1  1  0  0  0
 10 11  1  1  0  0  0
 12 14  2  0  0  0  0
 12 10  1  0  0  0  0
 13 12  1  0  0  0  0
 15 16  1  0  0  0  0
 18 21  1  0  0  0  0
 19 18  2  0  0  0  0
 19 23  1  0  0  0  0
 21 20  2  0  0  0  0
 21 17  1  0  0  0  0
 22 20  1  0  0  0  0
 23 22  2  0  0  0  0
 24 18  1  0  0  0  0
 25 24  2  0  0  0  0
 26 25  1  0  0  0  0
 27 26  1  0  0  0  0
 28 29  1  0  0  0  0
 28 27  1  0  0  0  0
 29 30  1  6  0  0  0
 31 29  1  0  0  0  0
 32 36  1  0  0  0  0
 32 35  2  0  0  0  0
 34 39  1  0  0  0  0
 34 32  1  0  0  0  0
 36 33  1  0  0  0  0
 37 31  1  6  0  0  0
 37 36  1  0  0  0  0
 37 33  1  0  0  0  0
 38 41  1  0  0  0  0
 38 42  1  1  0  0  0
 39 40  1  6  0  0  0
 39 45  1  0  0  0  0
 43 44  1  0  0  0  0
 43 39  1  0  0  0  0
 44 38  1  0  0  0  0
 45 41  1  0  0  0  0
 46  4  1  0  0  0  0
 49 54  1  6  0  0  0
 49 52  1  0  0  0  0
 49 51  1  0  0  0  0
 50 47  1  0  0  0  0
 50 48  1  1  0  0  0
 51 47  1  0  0  0  0
 51 46  1  1  0  0  0
 52 50  1  0  0  0  0
 54 53  1  0  0  0  0
 55 52  1  0  0  0  0
 56 55  1  0  0  0  0
 57 61  1  0  0  0  0
 58 57  1  0  0  0  0
 59 62  1  0  0  0  0
 60 58  1  0  0  0  0
 60 59  1  0  0  0  0
 61 63  1  0  0  0  0
 62 63  2  0  0  0  0
 63 56  1  0  0  0  0
M  END
>  <MODEL>
6

>  <REMARK>
 VINA RESULT:      -4.6      2.508      8.447
  Name = 
  20 active torsions:
  status: ('A' for Active; 'I' for Inactive)
    1  A    between atoms: C_1  and  C_15
    2  A    between atoms: C_1  and  C_41
    3  A    between atoms: C_6  and  C_14
    4  A    between atoms: C_8  and  C_28
    5  A    between atoms: N_12  and  N_16
    6  A    between atoms: N_12  and  C_61
    7  A    between atoms: C_15  and  C_61
    8  A    between atoms: N_16  and  N_20
    9  A    between atoms: C_17  and  N_27
   10  A    between atoms: C_18  and  C_28
   11  A    between atoms: C_23  and  O_50
   12  A    between atoms: C_28  and  C_42
   13  A    between atoms: C_31  and  C_32
   14  A    between atoms: C_31  and  C_59
   15  A    between atoms: C_33  and  C_42
   16  A    between atoms: C_34  and  C_43
   17  A    between atoms: C_34  and  C_52
   18  A    between atoms: N_40  and  N_49
   19  A    between atoms: N_40  and  C_51
   20  A    between atoms: C_51  and  C_54
                            x       y       z     vdW  Elec       q    Type
                         _______ _______ _______ _____ _____    ______ ____

>  <TORSDO>
F 20

$$$$
=
 OpenBabel10232407453D

 63 69  0  0  1  0  0  0  0  0999 V2000
  190.4290  177.2200  139.3540 C   0  0  1  0  0  3  0  0  0  0  0  0
  191.3110  176.0450  138.8800 C   0  0  0  0  0  2  0  0  0  0  0  0
  190.4260  175.3290  137.9320 C   0  0  2  0  0  3  0  0  0  0  0  0
  188.8870  173.7280  137.3850 C   0  0  0  0  0  0  0  0  0  0  0  0
  188.2440  174.8340  137.6100 N   0  0  0  0  0  0  0  0  0  0  0  0
  189.2260  175.8160  137.9060 C   0  0  1  0  0  3  0  0  0  0  0  0
  190.3600  173.8620  137.6880 C   0  0  1  0  0  3  0  0  0  0  0  0
  189.0270  176.9970  138.7700 C   0  0  0  0  0  2  0  0  0  0  0  0
  190.4010  177.3690  140.8860 C   0  0  1  0  0  3  0  0  0  0  0  0
  189.3740  176.4510  141.5960 C   0  0  1  0  0  3  0  0  0  0  0  0
  190.0040  175.5440  142.4530 O   0  0  0  0  0  1  0  0  0  0  0  0
  188.3800  177.2490  142.3780 C   0  0  0  0  0  0  0  0  0  0  0  0
  187.6900  178.4000  141.7270 C   0  0  0  0  0  1  0  0  0  0  0  0
  188.0980  176.9400  143.5270 O   0  0  0  0  0  0  0  0  0  0  0  0
  191.8170  177.3190  141.4720 C   0  0  0  0  0  2  0  0  0  0  0  0
  191.9240  177.9930  142.8370 C   0  0  0  0  0  1  0  0  0  0  0  0
  191.2520  173.4490  136.5270 C   0  0  0  0  0  2  0  0  0  0  0  0
  191.6550  175.6330  135.2740 C   0  0  0  0  0  0  0  0  0  0  0  0
  192.5400  176.6500  134.8670 C   0  0  0  0  0  3  0  0  0  0  0  0
  193.4940  174.5520  136.4330 C   0  0  0  0  0  3  0  0  0  0  0  0
  192.1360  174.5860  136.0930 C   0  0  0  0  0  0  0  0  0  0  0  0
  194.3600  175.5710  136.0320 C   0  0  0  0  0  3  0  0  0  0  0  0
  193.8810  176.6220  135.2460 C   0  0  0  0  0  3  0  0  0  0  0  0
  190.2690  175.6310  134.7710 C   0  0  0  0  0  3  0  0  0  0  0  0
  189.5410  176.7030  134.8410 N   0  0  0  0  0  0  0  0  0  0  0  0
  188.2340  176.6820  134.3460 N   0  0  0  0  0  2  0  0  0  0  0  0
  187.1710  176.3280  135.1760 N   0  0  0  0  0  2  0  0  0  0  0  0
  185.9500  176.4680  134.3890 C   0  0  0  0  0  2  0  0  0  0  0  0
  184.7540  176.7310  135.3030 C   0  0  2  0  0  3  0  0  0  0  0  0
  185.0300  176.2370  136.6430 N   0  0  0  0  0  1  0  0  0  0  0  0
  183.4430  176.1200  134.7880 C   0  0  0  0  0  2  0  0  0  0  0  0
  181.7460  177.7850  137.5000 C   0  0  0  0  0  0  0  0  0  0  0  0
  181.2230  175.8190  135.5230 C   0  0  0  0  0  2  0  0  0  0  0  0
  182.6980  177.8980  138.5710 N   0  0  0  0  0  2  0  0  0  0  0  0
  180.7190  178.5110  137.4920 O   0  0  0  0  0  0  0  0  0  0  0  0
  181.8430  176.7100  136.5650 N   0  0  0  0  0  0  0  0  0  0  0  0
  182.5350  175.5690  135.8800 C   0  0  2  0  0  3  0  0  0  0  0  0
  181.5500  178.5560  142.4530 C   0  0  1  0  0  3  0  0  0  0  0  0
  182.5560  178.8270  139.7030 C   0  0  2  0  0  0  0  0  0  0  0  0
  183.0060  180.1960  139.2160 C   0  0  0  0  0  1  0  0  0  0  0  0
  181.0710  179.4970  141.3460 C   0  0  0  0  0  2  0  0  0  0  0  0
  180.4360  177.6100  142.8270 C   0  0  0  0  0  1  0  0  0  0  0  0
  183.5230  178.4180  140.8560 C   0  0  0  0  0  2  0  0  0  0  0  0
  182.7760  177.7420  142.0150 C   0  0  0  0  0  2  0  0  0  0  0  0
  181.1880  178.8720  140.0850 O   0  0  0  0  0  0  0  0  0  0  0  0
  188.1800  172.4150  137.2490 C   0  0  0  0  0  2  0  0  0  0  0  0
  187.3940  172.8970  134.9360 C   0  0  0  0  0  2  0  0  0  0  0  0
  184.9890  173.2600  135.4980 C   0  0  0  0  0  1  0  0  0  0  0  0
  187.3470  170.6410  135.7250 C   0  0  1  0  0  3  0  0  0  0  0  0
  185.9890  172.3480  134.8030 C   0  0  2  0  0  3  0  0  0  0  0  0
  188.1480  171.9170  135.8050 C   0  0  2  0  0  3  0  0  0  0  0  0
  185.9500  171.0150  135.4050 N   0  0  0  0  0  0  0  0  0  0  0  0
  188.5430  168.7720  135.4810 C   0  0  0  0  0  1  0  0  0  0  0  0
  187.9120  169.7910  134.7610 O   0  0  0  0  0  0  0  0  0  0  0  0
  185.4000  170.1360  134.4520 N   0  0  0  0  0  2  0  0  0  0  0  0
  184.6520  169.1160  135.1820 C   0  0  0  0  0  2  0  0  0  0  0  0
  182.2240  171.4820  136.6820 C   0  0  0  0  0  2  0  0  0  0  0  0
  180.7220  171.3790  136.4260 C   0  0  0  0  0  2  0  0  0  0  0  0
  181.0310  169.8920  134.5010 O   0  0  0  0  0  0  0  0  0  0  0  0
  180.3010  170.0890  135.7130 C   0  0  0  0  0  2  0  0  0  0  0  0
  182.9040  170.1120  136.7890 C   0  0  0  0  0  2  0  0  0  0  0  0
  182.3860  169.5300  134.4200 C   0  0  0  0  0  3  0  0  0  0  0  0
  183.2610  169.5950  135.4300 C   0  0  0  0  0  0  0  0  0  0  0  0
  1  9  1  1  0  0  0
  2  1  1  0  0  0  0
  3  2  1  1  0  0  0
  4  5  2  0  0  0  0
  4  7  1  0  0  0  0
  5  6  1  0  0  0  0
  6  3  1  0  0  0  0
  6  8  1  1  0  0  0
  7 17  1  6  0  0  0
  7  3  1  0  0  0  0
  8  1  1  0  0  0  0
  9 15  1  1  0  0  0
  9 10  1  0  0  0  0
 10 12  1  0  0  0  0
 10 11  1  1  0  0  0
 12 14  2  0  0  0  0
 13 12  1  0  0  0  0
 15 16  1  0  0  0  0
 18 21  1  0  0  0  0
 19 23  1  0  0  0  0
 19 18  2  0  0  0  0
 21 20  2  0  0  0  0
 21 17  1  0  0  0  0
 22 20  1  0  0  0  0
 23 22  2  0  0  0  0
 24 25  2  0  0  0  0
 24 18  1  0  0  0  0
 26 25  1  0  0  0  0
 26 27  1  0  0  0  0
 28 27  1  0  0  0  0
 28 29  1  0  0  0  0
 29 30  1  1  0  0  0
 31 29  1  0  0  0  0
 32 34  1  0  0  0  0
 33 37  1  0  0  0  0
 33 36  1  0  0  0  0
 34 39  1  0  0  0  0
 35 32  2  0  0  0  0
 36 32  1  0  0  0  0
 37 31  1  6  0  0  0
 37 36  1  0  0  0  0
 38 42  1  6  0  0  0
 39 40  1  6  0  0  0
 39 45  1  0  0  0  0
 39 43  1  0  0  0  0
 41 38  1  0  0  0  0
 43 44  1  0  0  0  0
 44 38  1  0  0  0  0
 45 41  1  0  0  0  0
 46  4  1  0  0  0  0
 47 51  1  0  0  0  0
 49 54  1  6  0  0  0
 49 51  1  0  0  0  0
 50 47  1  0  0  0  0
 50 52  1  0  0  0  0
 50 48  1  1  0  0  0
 51 46  1  1  0  0  0
 52 49  1  0  0  0  0
 54 53  1  0  0  0  0
 55 56  1  0  0  0  0
 55 52  1  0  0  0  0
 56 63  1  0  0  0  0
 57 61  1  0  0  0  0
 58 57  1  0  0  0  0
 59 60  1  0  0  0  0
 60 58  1  0  0  0  0
 62 59  1  0  0  0  0
 62 63  2  0  0  0  0
 63 61  1  0  0  0  0
M  END
>  <MODEL>
7

>  <REMARK>
 VINA RESULT:      -4.2      2.263      8.896
  Name = 
  20 active torsions:
  status: ('A' for Active; 'I' for Inactive)
    1  A    between atoms: C_1  and  C_15
    2  A    between atoms: C_1  and  C_41
    3  A    between atoms: C_6  and  C_14
    4  A    between atoms: C_8  and  C_28
    5  A    between atoms: N_12  and  N_16
    6  A    between atoms: N_12  and  C_61
    7  A    between atoms: C_15  and  C_61
    8  A    between atoms: N_16  and  N_20
    9  A    between atoms: C_17  and  N_27
   10  A    between atoms: C_18  and  C_28
   11  A    between atoms: C_23  and  O_50
   12  A    between atoms: C_28  and  C_42
   13  A    between atoms: C_31  and  C_32
   14  A    between atoms: C_31  and  C_59
   15  A    between atoms: C_33  and  C_42
   16  A    between atoms: C_34  and  C_43
   17  A    between atoms: C_34  and  C_52
   18  A    between atoms: N_40  and  N_49
   19  A    between atoms: N_40  and  C_51
   20  A    between atoms: C_51  and  C_54
                            x       y       z     vdW  Elec       q    Type
                         _______ _______ _______ _____ _____    ______ ____

>  <TORSDO>
F 20

$$$$
=
 OpenBabel10232407453D

 63 69  0  0  1  0  0  0  0  0999 V2000
  190.0580  176.9240  143.3990 C   0  0  1  0  0  3  0  0  0  0  0  0
  189.1450  177.0580  142.1610 C   0  0  0  0  0  2  0  0  0  0  0  0
  189.9700  176.4760  141.0780 C   0  0  2  0  0  3  0  0  0  0  0  0
  191.4690  176.6080  139.3550 C   0  0  0  0  0  0  0  0  0  0  0  0
  192.1280  176.2940  140.4290 N   0  0  0  0  0  0  0  0  0  0  0  0
  191.1690  176.1790  141.4700 C   0  0  1  0  0  3  0  0  0  0  0  0
  190.0160  176.8960  139.6510 C   0  0  1  0  0  3  0  0  0  0  0  0
  191.4230  176.4270  142.9030 C   0  0  0  0  0  2  0  0  0  0  0  0
  190.1760  178.2330  144.2010 C   0  0  1  0  0  3  0  0  0  0  0  0
  189.6810  178.1310  145.6660 C   0  0  1  0  0  3  0  0  0  0  0  0
  188.3210  177.8110  145.7260 O   0  0  0  0  0  1  0  0  0  0  0  0
  190.4560  177.1070  146.4330 C   0  0  0  0  0  0  0  0  0  0  0  0
  189.7240  176.0770  147.2250 C   0  0  0  0  0  1  0  0  0  0  0  0
  191.6780  177.0820  146.3800 O   0  0  0  0  0  0  0  0  0  0  0  0
  191.5670  178.8580  144.0380 C   0  0  0  0  0  2  0  0  0  0  0  0
  191.6340  180.3050  144.5190 C   0  0  0  0  0  1  0  0  0  0  0  0
  189.0560  176.0790  138.7980 C   0  0  0  0  0  2  0  0  0  0  0  0
  187.3830  176.4270  136.9060 C   0  0  0  0  0  0  0  0  0  0  0  0
  186.7980  177.2770  135.9480 C   0  0  0  0  0  3  0  0  0  0  0  0
  188.7760  178.2760  137.6380 C   0  0  0  0  0  3  0  0  0  0  0  0
  188.3650  176.9450  137.7820 C   0  0  0  0  0  0  0  0  0  0  0  0
  188.1810  179.1130  136.6920 C   0  0  0  0  0  3  0  0  0  0  0  0
  187.1910  178.6100  135.8440 C   0  0  0  0  0  3  0  0  0  0  0  0
  187.0260  174.9970  136.9240 C   0  0  0  0  0  3  0  0  0  0  0  0
  185.8380  174.6100  136.5730 N   0  0  0  0  0  0  0  0  0  0  0  0
  185.5250  173.2470  136.5850 N   0  0  0  0  0  2  0  0  0  0  0  0
  185.0500  172.6220  135.4320 N   0  0  0  0  0  2  0  0  0  0  0  0
  184.3310  171.4270  135.8620 C   0  0  0  0  0  2  0  0  0  0  0  0
  183.0450  171.2600  135.0520 C   0  0  2  0  0  3  0  0  0  0  0  0
  182.7340  172.4930  134.3470 N   0  0  0  0  0  1  0  0  0  0  0  0
  181.8390  170.8320  135.9000 C   0  0  0  0  0  2  0  0  0  0  0  0
  181.0950  174.3310  136.3670 C   0  0  0  0  0  0  0  0  0  0  0  0
  180.2890  171.8080  137.3850 C   0  0  0  0  0  2  0  0  0  0  0  0
  182.3500  175.0280  136.3020 N   0  0  0  0  0  2  0  0  0  0  0  0
  180.0170  174.9590  136.2120 O   0  0  0  0  0  0  0  0  0  0  0  0
  181.0500  172.9770  136.8200 N   0  0  0  0  0  0  0  0  0  0  0  0
  181.6460  171.6460  137.1740 C   0  0  2  0  0  3  0  0  0  0  0  0
  182.4070  178.8410  137.8110 C   0  0  1  0  0  3  0  0  0  0  0  0
  182.4760  176.4750  136.0670 C   0  0  2  0  0  0  0  0  0  0  0  0
  182.6130  176.6720  134.5650 C   0  0  0  0  0  1  0  0  0  0  0  0
  181.5160  178.5080  136.6130 C   0  0  0  0  0  2  0  0  0  0  0  0
  181.5640  178.9120  139.0600 C   0  0  0  0  0  1  0  0  0  0  0  0
  183.7880  177.0110  136.7140 C   0  0  0  0  0  2  0  0  0  0  0  0
  183.5110  177.7920  138.0070 C   0  0  0  0  0  2  0  0  0  0  0  0
  181.2970  177.1150  136.5350 O   0  0  0  0  0  0  0  0  0  0  0  0
  192.1610  177.0250  138.0940 C   0  0  0  0  0  2  0  0  0  0  0  0
  194.1070  176.6670  136.5820 C   0  0  0  0  0  2  0  0  0  0  0  0
  192.8380  175.6620  134.6820 C   0  0  0  0  0  1  0  0  0  0  0  0
  193.4670  174.9140  138.0750 C   0  0  1  0  0  3  0  0  0  0  0  0
  193.8480  175.4030  135.7900 C   0  0  2  0  0  3  0  0  0  0  0  0
  193.5570  176.4160  137.9670 C   0  0  2  0  0  3  0  0  0  0  0  0
  193.3360  174.3780  136.7000 N   0  0  0  0  0  0  0  0  0  0  0  0
  195.0290  175.4580  139.5750 C   0  0  0  0  0  1  0  0  0  0  0  0
  194.6000  174.4210  138.7410 O   0  0  0  0  0  0  0  0  0  0  0  0
  194.1310  173.2280  136.5320 N   0  0  0  0  0  2  0  0  0  0  0  0
  193.2340  172.1230  136.2040 C   0  0  0  0  0  2  0  0  0  0  0  0
  195.4000  169.5870  137.8230 C   0  0  0  0  0  2  0  0  0  0  0  0
  195.8060  168.2930  137.1200 C   0  0  0  0  0  2  0  0  0  0  0  0
  194.0650  168.5370  135.4100 O   0  0  0  0  0  0  0  0  0  0  0  0
  195.4490  168.2600  135.6290 C   0  0  0  0  0  2  0  0  0  0  0  0
  195.3320  170.7860  136.8700 C   0  0  0  0  0  2  0  0  0  0  0  0
  193.4570  169.7950  135.5580 C   0  0  0  0  0  3  0  0  0  0  0  0
  193.9990  170.8420  136.1900 C   0  0  0  0  0  0  0  0  0  0  0  0
  1  9  1  6  0  0  0
  2  1  1  0  0  0  0
  3  6  1  0  0  0  0
  3  2  1  1  0  0  0
  4  7  1  0  0  0  0
  4  5  2  0  0  0  0
  5  6  1  0  0  0  0
  6  8  1  1  0  0  0
  7 17  1  6  0  0  0
  7  3  1  0  0  0  0
  8  1  1  0  0  0  0
  9 15  1  1  0  0  0
  9 10  1  0  0  0  0
 10 11  1  6  0  0  0
 10 12  1  0  0  0  0
 12 13  1  0  0  0  0
 14 12  2  0  0  0  0
 15 16  1  0  0  0  0
 18 24  1  0  0  0  0
 18 21  1  0  0  0  0
 19 18  2  0  0  0  0
 20 21  2  0  0  0  0
 21 17  1  0  0  0  0
 22 20  1  0  0  0  0
 23 19  1  0  0  0  0
 23 22  2  0  0  0  0
 25 26  1  0  0  0  0
 25 24  2  0  0  0  0
 27 28  1  0  0  0  0
 27 26  1  0  0  0  0
 29 30  1  1  0  0  0
 29 28  1  0  0  0  0
 29 31  1  0  0  0  0
 32 36  1  0  0  0  0
 34 32  1  0  0  0  0
 35 32  2  0  0  0  0
 36 37  1  0  0  0  0
 36 33  1  0  0  0  0
 37 31  1  6  0  0  0
 37 33  1  0  0  0  0
 38 44  1  0  0  0  0
 38 42  1  1  0  0  0
 39 40  1  6  0  0  0
 39 34  1  0  0  0  0
 39 45  1  0  0  0  0
 39 43  1  0  0  0  0
 41 38  1  0  0  0  0
 43 44  1  0  0  0  0
 45 41  1  0  0  0  0
 46  4  1  0  0  0  0
 47 51  1  0  0  0  0
 49 54  1  6  0  0  0
 50 48  1  6  0  0  0
 50 47  1  0  0  0  0
 50 52  1  0  0  0  0
 51 49  1  0  0  0  0
 51 46  1  6  0  0  0
 52 49  1  0  0  0  0
 54 53  1  0  0  0  0
 55 52  1  0  0  0  0
 56 55  1  0  0  0  0
 58 57  1  0  0  0  0
 59 62  1  0  0  0  0
 59 60  1  0  0  0  0
 60 58  1  0  0  0  0
 61 57  1  0  0  0  0
 62 63  2  0  0  0  0
 63 56  1  0  0  0  0
 63 61  1  0  0  0  0
M  END
>  <MODEL>
8

>  <REMARK>
 VINA RESULT:      -4.2      2.813     11.439
  Name = 
  20 active torsions:
  status: ('A' for Active; 'I' for Inactive)
    1  A    between atoms: C_1  and  C_15
    2  A    between atoms: C_1  and  C_41
    3  A    between atoms: C_6  and  C_14
    4  A    between atoms: C_8  and  C_28
    5  A    between atoms: N_12  and  N_16
    6  A    between atoms: N_12  and  C_61
    7  A    between atoms: C_15  and  C_61
    8  A    between atoms: N_16  and  N_20
    9  A    between atoms: C_17  and  N_27
   10  A    between atoms: C_18  and  C_28
   11  A    between atoms: C_23  and  O_50
   12  A    between atoms: C_28  and  C_42
   13  A    between atoms: C_31  and  C_32
   14  A    between atoms: C_31  and  C_59
   15  A    between atoms: C_33  and  C_42
   16  A    between atoms: C_34  and  C_43
   17  A    between atoms: C_34  and  C_52
   18  A    between atoms: N_40  and  N_49
   19  A    between atoms: N_40  and  C_51
   20  A    between atoms: C_51  and  C_54
                            x       y       z     vdW  Elec       q    Type
                         _______ _______ _______ _____ _____    ______ ____

>  <TORSDO>
F 20

$$$$
=
 OpenBabel10232407453D

 63 69  0  0  1  0  0  0  0  0999 V2000
  189.5090  177.8700  141.8310 C   0  0  1  0  0  3  0  0  0  0  0  0
  190.8040  177.6000  141.0340 C   0  0  0  0  0  2  0  0  0  0  0  0
  190.2960  177.2210  139.6960 C   0  0  2  0  0  3  0  0  0  0  0  0
  189.6170  175.7080  138.1210 C   0  0  0  0  0  0  0  0  0  0  0  0
  188.5570  176.1550  138.7240 N   0  0  0  0  0  0  0  0  0  0  0  0
  189.0050  177.1190  139.6640 C   0  0  1  0  0  3  0  0  0  0  0  0
  190.8850  176.2340  138.7510 C   0  0  1  0  0  3  0  0  0  0  0  0
  188.3340  177.4570  140.9350 C   0  0  0  0  0  2  0  0  0  0  0  0
  189.4810  177.1500  143.1910 C   0  0  1  0  0  3  0  0  0  0  0  0
  188.0900  177.1310  143.8730 C   0  0  1  0  0  3  0  0  0  0  0  0
  187.4480  175.9030  143.6940 O   0  0  0  0  0  1  0  0  0  0  0  0
  188.1980  177.4150  145.3380 C   0  0  0  0  0  0  0  0  0  0  0  0
  186.9560  177.6320  146.1350 C   0  0  0  0  0  1  0  0  0  0  0  0
  189.2880  177.4260  145.8920 O   0  0  0  0  0  0  0  0  0  0  0  0
  190.1710  175.7820  143.1070 C   0  0  0  0  0  2  0  0  0  0  0  0
  191.3530  175.6480  144.0640 C   0  0  0  0  0  1  0  0  0  0  0  0
  191.8190  176.9030  137.7540 C   0  0  0  0  0  2  0  0  0  0  0  0
  193.2070  174.9380  136.9130 C   0  0  0  0  0  0  0  0  0  0  0  0
  193.5910  174.0910  135.8550 C   0  0  0  0  0  3  0  0  0  0  0  0
  191.7300  176.1100  135.3850 C   0  0  0  0  0  3  0  0  0  0  0  0
  192.2400  175.9420  136.6780 C   0  0  0  0  0  0  0  0  0  0  0  0
  192.1100  175.2580  134.3460 C   0  0  0  0  0  3  0  0  0  0  0  0
  193.0440  174.2470  134.5830 C   0  0  0  0  0  3  0  0  0  0  0  0
  193.8790  174.8180  138.2190 C   0  0  0  0  0  3  0  0  0  0  0  0
  194.5530  175.8130  138.7090 N   0  0  0  0  0  0  0  0  0  0  0  0
  195.1710  175.6820  139.9560 N   0  0  0  0  0  2  0  0  0  0  0  0
  196.2610  174.8260  140.1160 N   0  0  0  0  0  2  0  0  0  0  0  0
  197.4270  175.6650  140.3700 C   0  0  0  0  0  2  0  0  0  0  0  0
  198.6500  175.1150  139.6360 C   0  0  2  0  0  3  0  0  0  0  0  0
  199.6470  176.1610  139.4720 N   0  0  0  0  0  1  0  0  0  0  0  0
  198.3180  174.4990  138.2700 C   0  0  0  0  0  2  0  0  0  0  0  0
  197.9120  172.0150  135.6860 C   0  0  0  0  0  0  0  0  0  0  0  0
  199.9470  173.6590  136.7850 C   0  0  0  0  0  2  0  0  0  0  0  0
  197.0450  171.0030  136.2240 N   0  0  0  0  0  2  0  0  0  0  0  0
  198.0850  172.1000  134.4430 O   0  0  0  0  0  0  0  0  0  0  0  0
  198.7460  172.7810  136.5570 N   0  0  0  0  0  0  0  0  0  0  0  0
  199.1900  173.3090  137.8890 C   0  0  2  0  0  3  0  0  0  0  0  0
  193.5690  168.9860  135.4050 C   0  0  1  0  0  3  0  0  0  0  0  0
  196.3220  170.0180  135.4030 C   0  0  2  0  0  0  0  0  0  0  0  0
  197.3240  169.4420  134.4150 C   0  0  0  0  0  1  0  0  0  0  0  0
  194.8820  168.2140  135.5550 C   0  0  0  0  0  2  0  0  0  0  0  0
  192.7520  168.8380  136.6640 C   0  0  0  0  0  1  0  0  0  0  0  0
  195.2170  170.7280  134.5640 C   0  0  0  0  0  2  0  0  0  0  0  0
  193.8150  170.4770  135.1360 C   0  0  0  0  0  2  0  0  0  0  0  0
  195.8310  168.9910  136.2540 O   0  0  0  0  0  0  0  0  0  0  0  0
  189.5690  174.5210  137.2090 C   0  0  0  0  0  2  0  0  0  0  0  0
  188.9100  175.8440  135.2050 C   0  0  0  0  0  2  0  0  0  0  0  0
  188.9870  178.0940  136.2840 C   0  0  0  0  0  1  0  0  0  0  0  0
  187.2050  175.0730  136.6930 C   0  0  1  0  0  3  0  0  0  0  0  0
  188.0890  177.0240  135.6820 C   0  0  2  0  0  3  0  0  0  0  0  0
  188.5350  174.6820  136.0970 C   0  0  2  0  0  3  0  0  0  0  0  0
  187.1340  176.5530  136.6860 N   0  0  0  0  0  0  0  0  0  0  0  0
  186.1620  173.1330  136.3300 C   0  0  0  0  0  1  0  0  0  0  0  0
  186.1670  174.4800  135.9570 O   0  0  0  0  0  0  0  0  0  0  0  0
  185.8550  176.9920  136.2930 N   0  0  0  0  0  2  0  0  0  0  0  0
  185.0720  177.1940  137.5090 C   0  0  0  0  0  2  0  0  0  0  0  0
  181.8890  175.6030  138.5500 C   0  0  0  0  0  2  0  0  0  0  0  0
  180.6370  175.6380  137.6760 C   0  0  0  0  0  2  0  0  0  0  0  0
  181.5250  177.4400  136.2680 O   0  0  0  0  0  0  0  0  0  0  0  0
  180.8860  176.1620  136.2570 C   0  0  0  0  0  2  0  0  0  0  0  0
  183.1790  175.4620  137.7330 C   0  0  0  0  0  2  0  0  0  0  0  0
  182.8660  177.6720  136.6210 C   0  0  0  0  0  3  0  0  0  0  0  0
  183.6530  176.8020  137.2640 C   0  0  0  0  0  0  0  0  0  0  0  0
  1  9  1  1  0  0  0
  2  1  1  0  0  0  0
  3  2  1  1  0  0  0
  4  5  2  0  0  0  0
  4  7  1  0  0  0  0
  5  6  1  0  0  0  0
  6  3  1  0  0  0  0
  6  8  1  1  0  0  0
  7 17  1  6  0  0  0
  7  3  1  0  0  0  0
  8  1  1  0  0  0  0
  9 15  1  6  0  0  0
  9 10  1  0  0  0  0
 10 11  1  1  0  0  0
 10 12  1  0  0  0  0
 12 14  2  0  0  0  0
 12 13  1  0  0  0  0
 15 16  1  0  0  0  0
 18 24  1  0  0  0  0
 19 18  2  0  0  0  0
 20 21  2  0  0  0  0
 21 18  1  0  0  0  0
 21 17  1  0  0  0  0
 22 23  2  0  0  0  0
 22 20  1  0  0  0  0
 23 19  1  0  0  0  0
 24 25  2  0  0  0  0
 25 26  1  0  0  0  0
 26 27  1  0  0  0  0
 27 28  1  0  0  0  0
 29 30  1  6  0  0  0
 29 28  1  0  0  0  0
 31 29  1  0  0  0  0
 32 34  1  0  0  0  0
 32 36  1  0  0  0  0
 33 37  1  0  0  0  0
 35 32  2  0  0  0  0
 36 33  1  0  0  0  0
 36 37  1  0  0  0  0
 37 31  1  6  0  0  0
 38 41  1  0  0  0  0
 38 42  1  1  0  0  0
 39 40  1  6  0  0  0
 39 34  1  0  0  0  0
 39 45  1  0  0  0  0
 41 45  1  0  0  0  0
 43 44  1  0  0  0  0
 43 39  1  0  0  0  0
 44 38  1  0  0  0  0
 46  4  1  0  0  0  0
 47 50  1  0  0  0  0
 47 51  1  0  0  0  0
 49 54  1  6  0  0  0
 50 48  1  1  0  0  0
 50 52  1  0  0  0  0
 51 49  1  0  0  0  0
 51 46  1  1  0  0  0
 52 49  1  0  0  0  0
 54 53  1  0  0  0  0
 55 52  1  0  0  0  0
 55 56  1  0  0  0  0
 58 57  1  0  0  0  0
 59 62  1  0  0  0  0
 60 59  1  0  0  0  0
 60 58  1  0  0  0  0
 61 57  1  0  0  0  0
 62 63  2  0  0  0  0
 63 56  1  0  0  0  0
 63 61  1  0  0  0  0
M  END
>  <MODEL>
9

>  <REMARK>
 VINA RESULT:      -3.9      3.785      8.952
  Name = 
  20 active torsions:
  status: ('A' for Active; 'I' for Inactive)
    1  A    between atoms: C_1  and  C_15
    2  A    between atoms: C_1  and  C_41
    3  A    between atoms: C_6  and  C_14
    4  A    between atoms: C_8  and  C_28
    5  A    between atoms: N_12  and  N_16
    6  A    between atoms: N_12  and  C_61
    7  A    between atoms: C_15  and  C_61
    8  A    between atoms: N_16  and  N_20
    9  A    between atoms: C_17  and  N_27
   10  A    between atoms: C_18  and  C_28
   11  A    between atoms: C_23  and  O_50
   12  A    between atoms: C_28  and  C_42
   13  A    between atoms: C_31  and  C_32
   14  A    between atoms: C_31  and  C_59
   15  A    between atoms: C_33  and  C_42
   16  A    between atoms: C_34  and  C_43
   17  A    between atoms: C_34  and  C_52
   18  A    between atoms: N_40  and  N_49
   19  A    between atoms: N_40  and  C_51
   20  A    between atoms: C_51  and  C_54
                            x       y       z     vdW  Elec       q    Type
                         _______ _______ _______ _____ _____    ______ ____

>  <TORSDO>
F 20

$$$$
