=
 OpenBabel10232409293D

 53 57  0  0  1  0  0  0  0  0999 V2000
  193.2540  172.5570  136.2990 N   0  0  0  0  0  2  0  0  0  0  0  0
  194.6900  172.5650  136.3040 C   0  0  0  0  0  0  0  0  0  0  0  0
  190.6820  175.9380  136.1720 C   0  0  0  0  0  0  0  0  0  0  0  0
  191.0760  173.5970  135.9510 O   0  0  0  0  0  0  0  0  0  0  0  0
  192.0290  176.0550  136.8620 C   0  0  2  0  0  3  0  0  0  0  0  0
  190.2520  174.7140  135.7760 C   0  0  0  0  0  0  0  0  0  0  0  0
  195.4210  173.7930  136.3130 N   0  0  0  0  0  2  0  0  0  0  0  0
  195.3130  171.4650  136.2860 O   0  0  0  0  0  0  0  0  0  0  0  0
  192.8670  174.8610  136.7390 N   0  0  0  0  0  0  0  0  0  0  0  0
  192.4070  173.7120  136.3500 C   0  0  0  0  0  0  0  0  0  0  0  0
  192.8170  177.3390  140.3570 C   0  0  0  0  0  3  0  0  0  0  0  0
  192.9430  177.0500  138.9950 C   0  0  0  0  0  3  0  0  0  0  0  0
  190.7120  176.1130  138.9890 C   0  0  0  0  0  3  0  0  0  0  0  0
  190.5860  176.3970  140.3510 C   0  0  0  0  0  3  0  0  0  0  0  0
  191.8890  176.4370  138.3080 C   0  0  0  0  0  0  0  0  0  0  0  0
  191.6360  177.0250  141.0390 C   0  0  0  0  0  0  0  0  0  0  0  0
  189.5410  177.9650  143.7220 C   0  0  2  0  0  0  0  0  0  0  0  0
  189.8300  175.7160  143.0060 O   0  0  0  0  0  0  0  0  0  0  0  0
  188.3420  178.1970  143.0660 F   0  0  0  0  0  0  0  0  0  0  0  0
  191.7030  178.6970  142.8270 N   0  0  0  0  0  0  0  0  0  0  0  0
  191.5630  177.2740  142.5190 C   0  0  1  0  0  3  0  0  0  0  0  0
  190.4700  179.1530  143.4900 C   0  0  0  0  0  3  0  0  0  0  0  0
  190.2560  176.8590  143.0650 C   0  0  0  0  0  0  0  0  0  0  0  0
  187.5880  177.2170  147.0760 C   0  0  0  0  0  2  0  0  0  0  0  0
  190.3840  177.3250  145.9600 C   0  0  0  0  0  3  0  0  0  0  0  0
  189.3170  177.6700  145.1950 C   0  0  0  0  0  0  0  0  0  0  0  0
  190.3750  176.8970  147.4050 C   0  0  0  0  0  2  0  0  0  0  0  0
  187.8970  177.8220  145.7130 C   0  0  0  0  0  2  0  0  0  0  0  0
  188.3570  177.9520  148.1340 C   0  0  0  0  0  3  0  0  0  0  0  0
  189.6310  177.8110  148.2460 N   0  0  0  0  0  0  0  0  0  0  0  0
  189.9240  177.2450  135.9860 C   0  0  2  0  0  3  0  0  0  0  0  0
  188.7100  177.2660  136.8500 C   0  0  2  0  0  3  0  0  0  0  0  0
  188.6330  177.0590  135.4580 O   0  0  0  0  0  0  0  0  0  0  0  0
  188.1330  178.6530  137.1320 C   0  0  0  0  0  2  0  0  0  0  0  0
  187.9500  177.9950  139.5600 C   0  0  0  0  0  1  0  0  0  0  0  0
  187.3040  178.7540  138.4120 C   0  0  2  0  0  3  0  0  0  0  0  0
  184.8310  179.7970  139.5380 O   0  0  0  0  0  0  0  0  0  0  0  0
  185.9490  178.2690  138.1600 N   0  0  0  0  0  2  0  0  0  0  0  0
  184.7630  178.7960  138.7720 C   0  0  0  0  0  0  0  0  0  0  0  0
  183.4890  178.2300  138.4730 N   0  0  0  0  0  2  0  0  0  0  0  0
  183.2900  176.9150  137.3080 S   0  0  0  0  0  0  0  0  0  0  0  0
  182.8250  175.7380  138.6100 C   0  0  0  0  0  1  0  0  0  0  0  0
  196.8620  173.8560  136.0950 C   0  0  0  0  0  2  0  0  0  0  0  0
  197.5950  176.1110  136.3690 O   0  0  0  0  0  0  0  0  0  0  0  0
  198.1870  175.8050  139.0450 O   0  0  0  0  0  1  0  0  0  0  0  0
  197.4480  174.9760  136.8960 C   0  0  0  0  0  0  0  0  0  0  0  0
  197.7820  174.7720  138.2690 N   0  0  0  0  0  2  0  0  0  0  0  0
  188.9270  174.4820  135.1300 C   0  0  0  0  0  2  0  0  0  0  0  0
  188.0560  173.6120  136.0230 C   0  0  0  0  0  2  0  0  0  0  0  0
  186.6960  173.3870  135.3850 C   0  0  0  0  0  2  0  0  0  0  0  0
  185.6110  174.1010  136.1680 C   0  0  0  0  0  2  0  0  0  0  0  0
  185.2870  172.8920  138.1810 O   0  0  0  0  0  1  0  0  0  0  0  0
  184.7690  173.0790  136.9000 C   0  0  0  0  0  2  0  0  0  0  0  0
  1  2  1  0  0  0  0
  1 10  1  0  0  0  0
  2  7  1  0  0  0  0
  3  5  1  0  0  0  0
  4 10  1  0  0  0  0
  5 15  1  1  0  0  0
  6  4  1  0  0  0  0
  6  3  2  0  0  0  0
  8  2  2  0  0  0  0
  9  5  1  0  0  0  0
 10  9  2  0  0  0  0
 11 16  1  0  0  0  0
 12 11  2  0  0  0  0
 13 14  1  0  0  0  0
 14 16  2  0  0  0  0
 15 13  2  0  0  0  0
 15 12  1  0  0  0  0
 17 19  1  6  0  0  0
 17 26  1  0  0  0  0
 18 23  2  0  0  0  0
 20 22  2  0  0  0  0
 21 16  1  6  0  0  0
 21 20  1  0  0  0  0
 21 23  1  0  0  0  0
 22 17  1  0  0  0  0
 23 17  1  0  0  0  0
 24 29  1  0  0  0  0
 25 27  1  0  0  0  0
 26 28  1  0  0  0  0
 26 25  2  0  0  0  0
 27 30  1  0  0  0  0
 28 24  1  0  0  0  0
 29 30  2  0  0  0  0
 31  3  1  1  0  0  0
 31 32  1  0  0  0  0
 32 34  1  6  0  0  0
 33 31  1  0  0  0  0
 33 32  1  0  0  0  0
 34 36  1  0  0  0  0
 36 35  1  1  0  0  0
 38 36  1  0  0  0  0
 38 39  1  0  0  0  0
 39 37  2  0  0  0  0
 40 39  1  0  0  0  0
 41 40  1  0  0  0  0
 41 42  1  0  0  0  0
 43  7  1  0  0  0  0
 43 46  1  0  0  0  0
 44 46  2  0  0  0  0
 46 47  1  0  0  0  0
 47 45  1  0  0  0  0
 48  6  1  0  0  0  0
 48 49  1  0  0  0  0
 50 49  1  0  0  0  0
 50 51  1  0  0  0  0
 51 53  1  0  0  0  0
 53 52  1  0  0  0  0
M  END
>  <MODEL>
1

>  <REMARK>
 VINA RESULT:      -8.0      0.000      0.000
  Name = 
  15 active torsions:
  status: ('A' for Active; 'I' for Inactive)
    1  A    between atoms: C_2  and  C_7
    2  A    between atoms: C_5  and  C_33
    3  A    between atoms: C_5  and  N_44
    4  A    between atoms: C_8  and  C_39
    5  A    between atoms: C_8  and  C_48
    6  A    between atoms: C_9  and  C_16
    7  A    between atoms: C_9  and  C_52
    8  A    between atoms: C_11  and  C_21
    9  A    between atoms: S_14  and  N_28
   10  A    between atoms: N_18  and  C_52
   11  A    between atoms: C_29  and  C_35
   12  A    between atoms: C_29  and  C_48
   13  A    between atoms: C_37  and  C_46
   14  A    between atoms: C_38  and  C_51
   15  A    between atoms: C_39  and  C_43
                            x       y       z     vdW  Elec       q    Type
                         _______ _______ _______ _____ _____    ______ ____

>  <TORSDO>
F 15

$$$$
=
 OpenBabel10232409293D

 53 57  0  0  1  0  0  0  0  0999 V2000
  181.6940  177.1200  138.1130 N   0  0  0  0  0  2  0  0  0  0  0  0
  181.0980  177.5730  136.8870 C   0  0  0  0  0  0  0  0  0  0  0  0
  185.3130  178.5040  139.8590 C   0  0  0  0  0  0  0  0  0  0  0  0
  183.2420  177.3300  139.9850 O   0  0  0  0  0  0  0  0  0  0  0  0
  185.1690  178.5070  138.3470 C   0  0  2  0  0  3  0  0  0  0  0  0
  184.3630  177.8910  140.6070 C   0  0  0  0  0  0  0  0  0  0  0  0
  181.7390  178.5610  136.0770 N   0  0  0  0  0  2  0  0  0  0  0  0
  179.9830  177.0970  136.5320 O   0  0  0  0  0  0  0  0  0  0  0  0
  183.8400  178.1160  137.8750 N   0  0  0  0  0  0  0  0  0  0  0  0
  182.9630  177.5350  138.6340 C   0  0  0  0  0  0  0  0  0  0  0  0
  187.1000  175.4990  137.0380 C   0  0  0  0  0  3  0  0  0  0  0  0
  186.0830  176.2720  137.6050 C   0  0  0  0  0  3  0  0  0  0  0  0
  187.3760  178.2750  137.1890 C   0  0  0  0  0  3  0  0  0  0  0  0
  188.3940  177.5040  136.6250 C   0  0  0  0  0  3  0  0  0  0  0  0
  186.2190  177.6630  137.6800 C   0  0  0  0  0  0  0  0  0  0  0  0
  188.2540  176.1090  136.5360 C   0  0  0  0  0  0  0  0  0  0  0  0
  191.7370  175.5280  136.5520 C   0  0  2  0  0  0  0  0  0  0  0  0
  190.2330  174.5450  138.1110 O   0  0  0  0  0  0  0  0  0  0  0  0
  192.1830  176.5530  137.3740 F   0  0  0  0  0  0  0  0  0  0  0  0
  190.0080  175.8570  134.8460 N   0  0  0  0  0  0  0  0  0  0  0  0
  189.3640  175.2440  136.0080 C   0  0  1  0  0  3  0  0  0  0  0  0
  191.4230  176.1010  135.1730 C   0  0  0  0  0  3  0  0  0  0  0  0
  190.4220  175.0590  137.0190 C   0  0  0  0  0  0  0  0  0  0  0  0
  195.0180  173.4640  137.3290 C   0  0  0  0  0  2  0  0  0  0  0  0
  192.3540  173.2090  135.9450 C   0  0  0  0  0  3  0  0  0  0  0  0
  192.7370  174.3860  136.5030 C   0  0  0  0  0  0  0  0  0  0  0  0
  193.1420  171.9260  135.8810 C   0  0  0  0  0  2  0  0  0  0  0  0
  194.1220  174.6650  137.0610 C   0  0  0  0  0  2  0  0  0  0  0  0
  195.3620  172.7990  136.0290 C   0  0  0  0  0  3  0  0  0  0  0  0
  194.4830  172.1270  135.3740 N   0  0  0  0  0  0  0  0  0  0  0  0
  186.5470  179.2110  140.4010 C   0  0  2  0  0  3  0  0  0  0  0  0
  187.6000  178.2180  140.7530 C   0  0  2  0  0  3  0  0  0  0  0  0
  186.8310  178.8710  141.7370 O   0  0  0  0  0  0  0  0  0  0  0  0
  189.0200  178.7770  140.8470 C   0  0  0  0  0  2  0  0  0  0  0  0
  190.0890  176.4930  140.8550 C   0  0  0  0  0  1  0  0  0  0  0  0
  190.0280  177.8530  141.5310 C   0  0  2  0  0  3  0  0  0  0  0  0
  191.5830  178.8120  143.7970 O   0  0  0  0  0  0  0  0  0  0  0  0
  189.6930  177.7220  142.9460 N   0  0  0  0  0  2  0  0  0  0  0  0
  190.5160  178.1800  144.0290 C   0  0  0  0  0  0  0  0  0  0  0  0
  190.1030  177.9760  145.3790 N   0  0  0  0  0  2  0  0  0  0  0  0
  188.5590  177.2210  145.7910 S   0  0  0  0  0  0  0  0  0  0  0  0
  188.6350  177.8340  147.4990 C   0  0  0  0  0  1  0  0  0  0  0  0
  181.0760  179.2100  134.9520 C   0  0  0  0  0  2  0  0  0  0  0  0
  180.2230  181.3810  134.4450 O   0  0  0  0  0  0  0  0  0  0  0  0
  180.4240  182.2860  137.0420 O   0  0  0  0  0  1  0  0  0  0  0  0
  180.7140  180.6150  135.3170 C   0  0  0  0  0  0  0  0  0  0  0  0
  180.8700  181.0650  136.6630 N   0  0  0  0  0  2  0  0  0  0  0  0
  184.4300  177.7920  142.0940 C   0  0  0  0  0  2  0  0  0  0  0  0
  183.6800  178.9520  142.7300 C   0  0  0  0  0  2  0  0  0  0  0  0
  183.5790  178.7610  144.2340 C   0  0  0  0  0  2  0  0  0  0  0  0
  184.8180  179.2940  144.9260 C   0  0  0  0  0  2  0  0  0  0  0  0
  185.3140  179.3090  147.2450 O   0  0  0  0  0  1  0  0  0  0  0  0
  185.0980  178.4610  146.1580 C   0  0  0  0  0  2  0  0  0  0  0  0
  1 10  1  0  0  0  0
  2  1  1  0  0  0  0
  3  6  2  0  0  0  0
  4  6  1  0  0  0  0
  5 15  1  6  0  0  0
  5  3  1  0  0  0  0
  6 48  1  0  0  0  0
  7  2  1  0  0  0  0
  8  2  2  0  0  0  0
  9  5  1  0  0  0  0
  9 10  2  0  0  0  0
 10  4  1  0  0  0  0
 11 12  1  0  0  0  0
 12 15  2  0  0  0  0
 13 15  1  0  0  0  0
 14 13  2  0  0  0  0
 16 14  1  0  0  0  0
 16 11  2  0  0  0  0
 17 23  1  0  0  0  0
 17 19  1  1  0  0  0
 20 22  2  0  0  0  0
 20 21  1  0  0  0  0
 21 16  1  1  0  0  0
 21 23  1  0  0  0  0
 22 17  1  0  0  0  0
 23 18  2  0  0  0  0
 25 26  2  0  0  0  0
 26 17  1  0  0  0  0
 26 28  1  0  0  0  0
 27 25  1  0  0  0  0
 28 24  1  0  0  0  0
 29 24  1  0  0  0  0
 30 27  1  0  0  0  0
 30 29  2  0  0  0  0
 31  3  1  6  0  0  0
 31 32  1  0  0  0  0
 31 33  1  0  0  0  0
 32 34  1  1  0  0  0
 32 33  1  0  0  0  0
 34 36  1  0  0  0  0
 36 35  1  6  0  0  0
 36 38  1  0  0  0  0
 37 39  2  0  0  0  0
 38 39  1  0  0  0  0
 39 40  1  0  0  0  0
 40 41  1  0  0  0  0
 41 42  1  0  0  0  0
 43 46  1  0  0  0  0
 43  7  1  0  0  0  0
 44 46  2  0  0  0  0
 46 47  1  0  0  0  0
 47 45  1  0  0  0  0
 48 49  1  0  0  0  0
 49 50  1  0  0  0  0
 50 51  1  0  0  0  0
 51 53  1  0  0  0  0
 53 52  1  0  0  0  0
M  END
>  <MODEL>
2

>  <REMARK>
 VINA RESULT:      -6.8      3.418     10.525
  Name = 
  15 active torsions:
  status: ('A' for Active; 'I' for Inactive)
    1  A    between atoms: C_2  and  C_7
    2  A    between atoms: C_5  and  C_33
    3  A    between atoms: C_5  and  N_44
    4  A    between atoms: C_8  and  C_39
    5  A    between atoms: C_8  and  C_48
    6  A    between atoms: C_9  and  C_16
    7  A    between atoms: C_9  and  C_52
    8  A    between atoms: C_11  and  C_21
    9  A    between atoms: S_14  and  N_28
   10  A    between atoms: N_18  and  C_52
   11  A    between atoms: C_29  and  C_35
   12  A    between atoms: C_29  and  C_48
   13  A    between atoms: C_37  and  C_46
   14  A    between atoms: C_38  and  C_51
   15  A    between atoms: C_39  and  C_43
                            x       y       z     vdW  Elec       q    Type
                         _______ _______ _______ _____ _____    ______ ____

>  <TORSDO>
F 15

$$$$
=
 OpenBabel10232409293D

 53 57  0  0  1  0  0  0  0  0999 V2000
  191.2710  173.3730  135.0560 N   0  0  0  0  0  2  0  0  0  0  0  0
  192.6820  173.3690  134.7850 C   0  0  0  0  0  0  0  0  0  0  0  0
  188.8870  176.7230  136.1300 C   0  0  0  0  0  0  0  0  0  0  0  0
  189.1200  174.4790  135.3580 O   0  0  0  0  0  0  0  0  0  0  0  0
  190.3430  176.6810  136.5560 C   0  0  2  0  0  3  0  0  0  0  0  0
  188.3320  175.6150  135.5800 C   0  0  0  0  0  0  0  0  0  0  0  0
  193.4600  174.5610  134.9070 N   0  0  0  0  0  2  0  0  0  0  0  0
  193.2360  172.2930  134.4210 O   0  0  0  0  0  0  0  0  0  0  0  0
  191.0850  175.5340  136.0290 N   0  0  0  0  0  0  0  0  0  0  0  0
  190.5060  174.4970  135.5070 C   0  0  0  0  0  0  0  0  0  0  0  0
  189.5500  177.0550  140.2590 C   0  0  0  0  0  3  0  0  0  0  0  0
  189.3810  176.9300  138.8770 C   0  0  0  0  0  3  0  0  0  0  0  0
  191.7750  176.6930  138.6090 C   0  0  0  0  0  3  0  0  0  0  0  0
  191.9450  176.8210  139.9890 C   0  0  0  0  0  3  0  0  0  0  0  0
  190.4950  176.7480  138.0490 C   0  0  0  0  0  0  0  0  0  0  0  0
  190.8290  176.9900  140.8230 C   0  0  0  0  0  0  0  0  0  0  0  0
  189.1850  177.9310  143.8040 C   0  0  2  0  0  0  0  0  0  0  0  0
  189.2950  175.6900  143.0150 O   0  0  0  0  0  0  0  0  0  0  0  0
  187.9090  178.2100  143.3370 F   0  0  0  0  0  0  0  0  0  0  0  0
  191.2120  178.6210  142.6090 N   0  0  0  0  0  0  0  0  0  0  0  0
  190.9840  177.2090  142.3020 C   0  0  1  0  0  3  0  0  0  0  0  0
  190.1050  179.0970  143.4560 C   0  0  0  0  0  3  0  0  0  0  0  0
  189.7600  176.8190  143.0290 C   0  0  0  0  0  0  0  0  0  0  0  0
  187.7320  177.0510  147.3730 C   0  0  0  0  0  2  0  0  0  0  0  0
  190.3470  177.3160  145.9000 C   0  0  0  0  0  3  0  0  0  0  0  0
  189.1730  177.6120  145.2880 C   0  0  0  0  0  0  0  0  0  0  0  0
  190.5520  176.8750  147.3280 C   0  0  0  0  0  2  0  0  0  0  0  0
  187.8270  177.6830  145.9910 C   0  0  0  0  0  2  0  0  0  0  0  0
  188.5960  177.8150  148.3320 C   0  0  0  0  0  3  0  0  0  0  0  0
  189.8790  177.7410  148.2730 N   0  0  0  0  0  0  0  0  0  0  0  0
  188.1720  178.0450  136.3680 C   0  0  2  0  0  3  0  0  0  0  0  0
  186.8800  177.8140  137.0750 C   0  0  2  0  0  3  0  0  0  0  0  0
  186.9350  178.1270  135.7010 O   0  0  0  0  0  0  0  0  0  0  0  0
  186.3010  179.0340  137.7910 C   0  0  0  0  0  2  0  0  0  0  0  0
  185.9110  178.0470  140.0790 C   0  0  0  0  0  1  0  0  0  0  0  0
  185.2690  178.7120  138.8720 C   0  0  2  0  0  3  0  0  0  0  0  0
  182.4720  178.6390  139.6750 O   0  0  0  0  0  0  0  0  0  0  0  0
  184.2140  177.8720  138.3100 N   0  0  0  0  0  2  0  0  0  0  0  0
  182.8550  177.8470  138.7690 C   0  0  0  0  0  0  0  0  0  0  0  0
  181.9090  176.9680  138.1640 N   0  0  0  0  0  2  0  0  0  0  0  0
  182.3280  175.9250  136.8010 S   0  0  0  0  0  0  0  0  0  0  0  0
  181.7100  177.1330  135.5950 C   0  0  0  0  0  1  0  0  0  0  0  0
  194.8360  174.6580  134.4330 C   0  0  0  0  0  2  0  0  0  0  0  0
  195.1310  176.5770  135.8210 O   0  0  0  0  0  0  0  0  0  0  0  0
  197.6180  175.7930  136.7200 O   0  0  0  0  0  1  0  0  0  0  0  0
  195.6340  175.5160  135.3640 C   0  0  0  0  0  0  0  0  0  0  0  0
  196.9360  175.1010  135.7760 N   0  0  0  0  0  2  0  0  0  0  0  0
  186.9000  175.5340  135.1680 C   0  0  0  0  0  2  0  0  0  0  0  0
  186.3030  174.2060  135.6080 C   0  0  0  0  0  2  0  0  0  0  0  0
  185.6620  174.3380  136.9780 C   0  0  0  0  0  2  0  0  0  0  0  0
  185.5670  172.9850  137.6570 C   0  0  0  0  0  2  0  0  0  0  0  0
  183.3380  172.4970  137.0150 O   0  0  0  0  0  1  0  0  0  0  0  0
  184.6590  172.0840  136.8490 C   0  0  0  0  0  2  0  0  0  0  0  0
  1 10  1  0  0  0  0
  2  7  1  0  0  0  0
  2  1  1  0  0  0  0
  3  5  1  0  0  0  0
  4 10  1  0  0  0  0
  4  6  1  0  0  0  0
  5 15  1  1  0  0  0
  6  3  2  0  0  0  0
  8  2  2  0  0  0  0
  9  5  1  0  0  0  0
 10  9  2  0  0  0  0
 11 16  1  0  0  0  0
 12 11  2  0  0  0  0
 13 14  1  0  0  0  0
 14 16  2  0  0  0  0
 15 13  2  0  0  0  0
 15 12  1  0  0  0  0
 17 19  1  6  0  0  0
 17 26  1  0  0  0  0
 18 23  2  0  0  0  0
 20 22  2  0  0  0  0
 21 16  1  6  0  0  0
 21 20  1  0  0  0  0
 21 23  1  0  0  0  0
 22 17  1  0  0  0  0
 23 17  1  0  0  0  0
 24 29  1  0  0  0  0
 25 27  1  0  0  0  0
 26 25  2  0  0  0  0
 26 28  1  0  0  0  0
 27 30  1  0  0  0  0
 28 24  1  0  0  0  0
 30 29  2  0  0  0  0
 31  3  1  6  0  0  0
 31 32  1  0  0  0  0
 32 34  1  1  0  0  0
 33 31  1  0  0  0  0
 33 32  1  0  0  0  0
 34 36  1  0  0  0  0
 36 35  1  1  0  0  0
 38 39  1  0  0  0  0
 38 36  1  0  0  0  0
 39 37  2  0  0  0  0
 40 39  1  0  0  0  0
 41 40  1  0  0  0  0
 42 41  1  0  0  0  0
 43  7  1  0  0  0  0
 43 46  1  0  0  0  0
 46 47  1  0  0  0  0
 46 44  2  0  0  0  0
 47 45  1  0  0  0  0
 48  6  1  0  0  0  0
 48 49  1  0  0  0  0
 49 50  1  0  0  0  0
 50 51  1  0  0  0  0
 53 52  1  0  0  0  0
 53 51  1  0  0  0  0
M  END
>  <MODEL>
3

>  <REMARK>
 VINA RESULT:      -6.5      1.529      1.941
  Name = 
  15 active torsions:
  status: ('A' for Active; 'I' for Inactive)
    1  A    between atoms: C_2  and  C_7
    2  A    between atoms: C_5  and  C_33
    3  A    between atoms: C_5  and  N_44
    4  A    between atoms: C_8  and  C_39
    5  A    between atoms: C_8  and  C_48
    6  A    between atoms: C_9  and  C_16
    7  A    between atoms: C_9  and  C_52
    8  A    between atoms: C_11  and  C_21
    9  A    between atoms: S_14  and  N_28
   10  A    between atoms: N_18  and  C_52
   11  A    between atoms: C_29  and  C_35
   12  A    between atoms: C_29  and  C_48
   13  A    between atoms: C_37  and  C_46
   14  A    between atoms: C_38  and  C_51
   15  A    between atoms: C_39  and  C_43
                            x       y       z     vdW  Elec       q    Type
                         _______ _______ _______ _____ _____    ______ ____

>  <TORSDO>
F 15

$$$$
=
 OpenBabel10232409293D

 53 57  0  0  1  0  0  0  0  0999 V2000
  191.3700  172.9970  135.6000 N   0  0  0  0  0  2  0  0  0  0  0  0
  192.7140  173.2600  135.1680 C   0  0  0  0  0  0  0  0  0  0  0  0
  188.3700  175.8670  136.5050 C   0  0  0  0  0  0  0  0  0  0  0  0
  189.0530  173.6380  136.0080 O   0  0  0  0  0  0  0  0  0  0  0  0
  189.8270  176.2110  136.7580 C   0  0  2  0  0  3  0  0  0  0  0  0
  188.0450  174.5940  136.1720 C   0  0  0  0  0  0  0  0  0  0  0  0
  193.1990  174.5980  135.0410 N   0  0  0  0  0  2  0  0  0  0  0  0
  193.4710  172.2880  134.8830 O   0  0  0  0  0  0  0  0  0  0  0  0
  190.7680  175.1870  136.3000 N   0  0  0  0  0  0  0  0  0  0  0  0
  190.4050  173.9820  135.9890 C   0  0  0  0  0  0  0  0  0  0  0  0
  191.5430  176.5550  140.1380 C   0  0  0  0  0  3  0  0  0  0  0  0
  191.3400  176.3060  138.7770 C   0  0  0  0  0  3  0  0  0  0  0  0
  189.0370  177.0160  138.9920 C   0  0  0  0  0  3  0  0  0  0  0  0
  189.2360  177.2620  140.3520 C   0  0  0  0  0  3  0  0  0  0  0  0
  190.0850  176.5370  138.2020 C   0  0  0  0  0  0  0  0  0  0  0  0
  190.4980  177.0450  140.9290 C   0  0  0  0  0  0  0  0  0  0  0  0
  189.0430  178.0490  143.9860 C   0  0  2  0  0  0  0  0  0  0  0  0
  188.9570  175.8200  143.1590 O   0  0  0  0  0  0  0  0  0  0  0  0
  187.7750  178.4290  143.5750 F   0  0  0  0  0  0  0  0  0  0  0  0
  191.0680  178.6100  142.7230 N   0  0  0  0  0  0  0  0  0  0  0  0
  190.7250  177.2250  142.4040 C   0  0  1  0  0  3  0  0  0  0  0  0
  190.0330  179.1510  143.6210 C   0  0  0  0  0  3  0  0  0  0  0  0
  189.5050  176.9120  143.1730 C   0  0  0  0  0  0  0  0  0  0  0  0
  187.6670  177.1990  147.5930 C   0  0  0  0  0  2  0  0  0  0  0  0
  190.2390  177.3230  146.0280 C   0  0  0  0  0  3  0  0  0  0  0  0
  189.0640  177.7040  145.4650 C   0  0  0  0  0  0  0  0  0  0  0  0
  190.4660  176.8440  147.4400 C   0  0  0  0  0  2  0  0  0  0  0  0
  187.7530  177.8480  146.2190 C   0  0  0  0  0  2  0  0  0  0  0  0
  188.6130  177.8890  148.5310 C   0  0  0  0  0  3  0  0  0  0  0  0
  189.8850  177.7340  148.4230 N   0  0  0  0  0  0  0  0  0  0  0  0
  187.3890  177.0220  136.6530 C   0  0  2  0  0  3  0  0  0  0  0  0
  185.9890  176.5350  136.4880 C   0  0  2  0  0  3  0  0  0  0  0  0
  186.6500  177.2660  135.4800 O   0  0  0  0  0  0  0  0  0  0  0  0
  184.9090  177.4460  137.0700 C   0  0  0  0  0  2  0  0  0  0  0  0
  182.7560  176.9590  135.8510 C   0  0  0  0  0  1  0  0  0  0  0  0
  183.5190  176.8160  137.1580 C   0  0  2  0  0  3  0  0  0  0  0  0
  182.2290  175.4170  139.3600 O   0  0  0  0  0  0  0  0  0  0  0  0
  182.7780  177.4130  138.2660 N   0  0  0  0  0  2  0  0  0  0  0  0
  182.1260  176.6730  139.3090 C   0  0  0  0  0  0  0  0  0  0  0  0
  181.4060  177.3580  140.3320 N   0  0  0  0  0  2  0  0  0  0  0  0
  181.3260  179.1220  140.4110 S   0  0  0  0  0  0  0  0  0  0  0  0
  181.2330  179.1060  142.2250 C   0  0  0  0  0  1  0  0  0  0  0  0
  194.4690  174.9200  134.4000 C   0  0  0  0  0  2  0  0  0  0  0  0
  194.9630  175.8640  136.5350 O   0  0  0  0  0  0  0  0  0  0  0  0
  197.6490  176.1860  135.9950 O   0  0  0  0  0  1  0  0  0  0  0  0
  195.3940  175.5510  135.3930 C   0  0  0  0  0  0  0  0  0  0  0  0
  196.7700  175.7420  135.0650 N   0  0  0  0  0  2  0  0  0  0  0  0
  186.6410  174.1400  135.9460 C   0  0  0  0  0  2  0  0  0  0  0  0
  186.6330  172.8270  135.1790 C   0  0  0  0  0  2  0  0  0  0  0  0
  185.4440  171.9770  135.5900 C   0  0  0  0  0  2  0  0  0  0  0  0
  184.9030  172.4260  136.9340 C   0  0  0  0  0  2  0  0  0  0  0  0
  182.7680  172.5580  135.9110 O   0  0  0  0  0  1  0  0  0  0  0  0
  183.4370  172.0620  137.0290 C   0  0  0  0  0  2  0  0  0  0  0  0
  1 10  1  0  0  0  0
  2  1  1  0  0  0  0
  3  5  1  0  0  0  0
  4  6  1  0  0  0  0
  5 15  1  1  0  0  0
  6  3  2  0  0  0  0
  7  2  1  0  0  0  0
  8  2  2  0  0  0  0
  9  5  1  0  0  0  0
 10  4  1  0  0  0  0
 10  9  2  0  0  0  0
 11 16  1  0  0  0  0
 12 11  2  0  0  0  0
 13 14  1  0  0  0  0
 14 16  2  0  0  0  0
 15 12  1  0  0  0  0
 15 13  2  0  0  0  0
 17 19  1  6  0  0  0
 17 26  1  0  0  0  0
 18 23  2  0  0  0  0
 20 22  2  0  0  0  0
 21 16  1  6  0  0  0
 21 20  1  0  0  0  0
 21 23  1  0  0  0  0
 22 17  1  0  0  0  0
 23 17  1  0  0  0  0
 24 29  1  0  0  0  0
 25 27  1  0  0  0  0
 26 25  2  0  0  0  0
 26 28  1  0  0  0  0
 27 30  1  0  0  0  0
 28 24  1  0  0  0  0
 30 29  2  0  0  0  0
 31  3  1  6  0  0  0
 32 31  1  0  0  0  0
 32 34  1  1  0  0  0
 33 32  1  0  0  0  0
 33 31  1  0  0  0  0
 34 36  1  0  0  0  0
 36 35  1  6  0  0  0
 36 38  1  0  0  0  0
 38 39  1  0  0  0  0
 39 37  2  0  0  0  0
 39 40  1  0  0  0  0
 40 41  1  0  0  0  0
 41 42  1  0  0  0  0
 43  7  1  0  0  0  0
 43 46  1  0  0  0  0
 46 44  2  0  0  0  0
 47 46  1  0  0  0  0
 47 45  1  0  0  0  0
 48  6  1  0  0  0  0
 49 50  1  0  0  0  0
 49 48  1  0  0  0  0
 50 51  1  0  0  0  0
 51 53  1  0  0  0  0
 52 53  1  0  0  0  0
M  END
>  <MODEL>
4

>  <REMARK>
 VINA RESULT:      -6.5      1.902      2.548
  Name = 
  15 active torsions:
  status: ('A' for Active; 'I' for Inactive)
    1  A    between atoms: C_2  and  C_7
    2  A    between atoms: C_5  and  C_33
    3  A    between atoms: C_5  and  N_44
    4  A    between atoms: C_8  and  C_39
    5  A    between atoms: C_8  and  C_48
    6  A    between atoms: C_9  and  C_16
    7  A    between atoms: C_9  and  C_52
    8  A    between atoms: C_11  and  C_21
    9  A    between atoms: S_14  and  N_28
   10  A    between atoms: N_18  and  C_52
   11  A    between atoms: C_29  and  C_35
   12  A    between atoms: C_29  and  C_48
   13  A    between atoms: C_37  and  C_46
   14  A    between atoms: C_38  and  C_51
   15  A    between atoms: C_39  and  C_43
                            x       y       z     vdW  Elec       q    Type
                         _______ _______ _______ _____ _____    ______ ____

>  <TORSDO>
F 15

$$$$
=
 OpenBabel10232409293D

 53 57  0  0  1  0  0  0  0  0999 V2000
  193.2670  177.2430  138.4310 N   0  0  0  0  0  2  0  0  0  0  0  0
  193.5940  176.3730  137.3350 C   0  0  0  0  0  0  0  0  0  0  0  0
  190.1760  176.6920  141.2960 C   0  0  0  0  0  0  0  0  0  0  0  0
  192.1800  177.7510  140.5530 O   0  0  0  0  0  0  0  0  0  0  0  0
  189.9830  176.1670  139.8840 C   0  0  2  0  0  3  0  0  0  0  0  0
  191.2450  177.4830  141.5600 C   0  0  0  0  0  0  0  0  0  0  0  0
  192.8270  175.1960  137.0750 N   0  0  0  0  0  2  0  0  0  0  0  0
  194.5850  176.6520  136.6020 O   0  0  0  0  0  0  0  0  0  0  0  0
  191.1600  176.3160  139.0270 N   0  0  0  0  0  0  0  0  0  0  0  0
  192.1610  177.0840  139.3280 C   0  0  0  0  0  0  0  0  0  0  0  0
  187.0150  178.4310  139.1450 C   0  0  0  0  0  3  0  0  0  0  0  0
  188.1700  177.9180  139.7420 C   0  0  0  0  0  3  0  0  0  0  0  0
  188.2330  176.1460  138.0960 C   0  0  0  0  0  3  0  0  0  0  0  0
  187.0770  176.6550  137.4990 C   0  0  0  0  0  3  0  0  0  0  0  0
  188.7820  176.7740  139.2170 C   0  0  0  0  0  0  0  0  0  0  0  0
  186.4690  177.8100  138.0150 C   0  0  0  0  0  0  0  0  0  0  0  0
  183.0290  178.3330  138.6200 C   0  0  2  0  0  0  0  0  0  0  0  0
  184.7150  179.9210  139.1620 O   0  0  0  0  0  0  0  0  0  0  0  0
  182.8900  177.7970  139.8910 F   0  0  0  0  0  0  0  0  0  0  0  0
  184.3750  177.2620  136.8730 N   0  0  0  0  0  0  0  0  0  0  0  0
  185.1820  178.3380  137.4460 C   0  0  1  0  0  3  0  0  0  0  0  0
  183.1000  177.1940  137.6070 C   0  0  0  0  0  3  0  0  0  0  0  0
  184.3530  178.9640  138.4940 C   0  0  0  0  0  0  0  0  0  0  0  0
  180.1690  180.1550  136.5880 C   0  0  0  0  0  2  0  0  0  0  0  0
  181.4180  180.0720  139.3290 C   0  0  0  0  0  3  0  0  0  0  0  0
  181.9220  179.3260  138.3140 C   0  0  0  0  0  0  0  0  0  0  0  0
  180.2590  181.0360  139.2710 C   0  0  0  0  0  2  0  0  0  0  0  0
  181.4810  179.4320  136.8640 C   0  0  0  0  0  2  0  0  0  0  0  0
  180.3130  181.6030  136.9500 C   0  0  0  0  0  3  0  0  0  0  0  0
  180.3800  181.9770  138.1780 N   0  0  0  0  0  0  0  0  0  0  0  0
  189.1200  176.2650  142.3050 C   0  0  2  0  0  3  0  0  0  0  0  0
  188.3120  177.4400  142.7360 C   0  0  2  0  0  3  0  0  0  0  0  0
  189.2940  176.8640  143.5670 O   0  0  0  0  0  0  0  0  0  0  0  0
  186.9520  177.1070  143.3490 C   0  0  0  0  0  2  0  0  0  0  0  0
  186.6410  177.6720  145.7870 C   0  0  0  0  0  1  0  0  0  0  0  0
  186.4330  178.1350  144.3540 C   0  0  2  0  0  3  0  0  0  0  0  0
  185.3190  179.5340  142.0580 O   0  0  0  0  0  0  0  0  0  0  0  0
  185.0230  178.4110  144.0920 N   0  0  0  0  0  2  0  0  0  0  0  0
  184.5280  179.1410  142.9600 C   0  0  0  0  0  0  0  0  0  0  0  0
  183.1290  179.3760  142.8140 N   0  0  0  0  0  2  0  0  0  0  0  0
  181.9400  178.7440  143.9590 S   0  0  0  0  0  0  0  0  0  0  0  0
  180.5690  179.0370  142.8060 C   0  0  0  0  0  1  0  0  0  0  0  0
  193.2480  174.1740  136.1230 C   0  0  0  0  0  2  0  0  0  0  0  0
  194.3980  172.9870  137.8450 O   0  0  0  0  0  0  0  0  0  0  0  0
  196.5750  172.3920  136.2590 O   0  0  0  0  0  1  0  0  0  0  0  0
  194.4290  173.4310  136.6660 C   0  0  0  0  0  0  0  0  0  0  0  0
  195.5570  173.1760  135.8300 N   0  0  0  0  0  2  0  0  0  0  0  0
  191.5040  178.0880  142.9000 C   0  0  0  0  0  2  0  0  0  0  0  0
  191.9820  177.0200  143.8720 C   0  0  0  0  0  2  0  0  0  0  0  0
  191.6210  177.3970  145.2980 C   0  0  0  0  0  2  0  0  0  0  0  0
  191.6820  176.1830  146.2050 C   0  0  0  0  0  2  0  0  0  0  0  0
  189.6270  176.5990  147.3110 O   0  0  0  0  0  1  0  0  0  0  0  0
  191.0030  176.5080  147.5180 C   0  0  0  0  0  2  0  0  0  0  0  0
  1 10  1  0  0  0  0
  2  1  1  0  0  0  0
  3  6  2  0  0  0  0
  4  6  1  0  0  0  0
  5 15  1  6  0  0  0
  5  3  1  0  0  0  0
  6 48  1  0  0  0  0
  7  2  1  0  0  0  0
  8  2  2  0  0  0  0
  9 10  2  0  0  0  0
  9  5  1  0  0  0  0
 10  4  1  0  0  0  0
 11 12  1  0  0  0  0
 13 15  1  0  0  0  0
 14 16  1  0  0  0  0
 14 13  2  0  0  0  0
 15 12  2  0  0  0  0
 16 11  2  0  0  0  0
 17 19  1  1  0  0  0
 20 21  1  0  0  0  0
 20 22  2  0  0  0  0
 21 16  1  1  0  0  0
 21 23  1  0  0  0  0
 22 17  1  0  0  0  0
 23 17  1  0  0  0  0
 23 18  2  0  0  0  0
 24 28  1  0  0  0  0
 24 29  1  0  0  0  0
 26 17  1  0  0  0  0
 26 25  2  0  0  0  0
 27 25  1  0  0  0  0
 28 26  1  0  0  0  0
 29 30  2  0  0  0  0
 30 27  1  0  0  0  0
 31  3  1  6  0  0  0
 31 32  1  0  0  0  0
 31 33  1  0  0  0  0
 32 34  1  1  0  0  0
 32 33  1  0  0  0  0
 34 36  1  0  0  0  0
 36 35  1  1  0  0  0
 37 39  2  0  0  0  0
 38 36  1  0  0  0  0
 39 38  1  0  0  0  0
 40 39  1  0  0  0  0
 40 41  1  0  0  0  0
 42 41  1  0  0  0  0
 43 46  1  0  0  0  0
 43  7  1  0  0  0  0
 46 44  2  0  0  0  0
 47 45  1  0  0  0  0
 47 46  1  0  0  0  0
 48 49  1  0  0  0  0
 49 50  1  0  0  0  0
 50 51  1  0  0  0  0
 51 53  1  0  0  0  0
 52 53  1  0  0  0  0
M  END
>  <MODEL>
5

>  <REMARK>
 VINA RESULT:      -6.5      3.006      7.781
  Name = 
  15 active torsions:
  status: ('A' for Active; 'I' for Inactive)
    1  A    between atoms: C_2  and  C_7
    2  A    between atoms: C_5  and  C_33
    3  A    between atoms: C_5  and  N_44
    4  A    between atoms: C_8  and  C_39
    5  A    between atoms: C_8  and  C_48
    6  A    between atoms: C_9  and  C_16
    7  A    between atoms: C_9  and  C_52
    8  A    between atoms: C_11  and  C_21
    9  A    between atoms: S_14  and  N_28
   10  A    between atoms: N_18  and  C_52
   11  A    between atoms: C_29  and  C_35
   12  A    between atoms: C_29  and  C_48
   13  A    between atoms: C_37  and  C_46
   14  A    between atoms: C_38  and  C_51
   15  A    between atoms: C_39  and  C_43
                            x       y       z     vdW  Elec       q    Type
                         _______ _______ _______ _____ _____    ______ ____

>  <TORSDO>
F 15

$$$$
=
 OpenBabel10232409293D

 53 57  0  0  1  0  0  0  0  0999 V2000
  193.1980  177.1830  138.5900 N   0  0  0  0  0  2  0  0  0  0  0  0
  193.4810  176.3350  137.4660 C   0  0  0  0  0  0  0  0  0  0  0  0
  190.1070  176.6710  141.4620 C   0  0  0  0  0  0  0  0  0  0  0  0
  192.1470  177.6700  140.7350 O   0  0  0  0  0  0  0  0  0  0  0  0
  189.8830  176.1970  140.0370 C   0  0  2  0  0  3  0  0  0  0  0  0
  191.2090  177.4100  141.7410 C   0  0  0  0  0  0  0  0  0  0  0  0
  192.6660  175.1980  137.1770 N   0  0  0  0  0  2  0  0  0  0  0  0
  194.4780  176.5950  136.7340 O   0  0  0  0  0  0  0  0  0  0  0  0
  191.0600  176.3250  139.1750 N   0  0  0  0  0  0  0  0  0  0  0  0
  192.0930  177.0420  139.4910 C   0  0  0  0  0  0  0  0  0  0  0  0
  186.9990  178.5950  139.3940 C   0  0  0  0  0  3  0  0  0  0  0  0
  188.1360  178.0190  139.9670 C   0  0  0  0  0  3  0  0  0  0  0  0
  188.1260  176.3050  138.2580 C   0  0  0  0  0  3  0  0  0  0  0  0
  186.9880  176.8780  137.6870 C   0  0  0  0  0  3  0  0  0  0  0  0
  188.7030  176.8720  139.3990 C   0  0  0  0  0  0  0  0  0  0  0  0
  186.4260  178.0360  138.2460 C   0  0  0  0  0  0  0  0  0  0  0  0
  182.9510  178.4110  138.7490 C   0  0  2  0  0  0  0  0  0  0  0  0
  184.5750  179.9140  139.6220 O   0  0  0  0  0  0  0  0  0  0  0  0
  182.7610  177.6770  139.9100 F   0  0  0  0  0  0  0  0  0  0  0  0
  184.4020  177.6500  136.9250 N   0  0  0  0  0  0  0  0  0  0  0  0
  185.1580  178.6310  137.7030 C   0  0  1  0  0  3  0  0  0  0  0  0
  183.0950  177.4490  137.5730 C   0  0  0  0  0  3  0  0  0  0  0  0
  184.2660  179.0710  138.7930 C   0  0  0  0  0  0  0  0  0  0  0  0
  180.1970  180.5400  136.8760 C   0  0  0  0  0  2  0  0  0  0  0  0
  181.2360  179.9560  139.6430 C   0  0  0  0  0  3  0  0  0  0  0  0
  181.8390  179.4260  138.5480 C   0  0  0  0  0  0  0  0  0  0  0  0
  180.0560  180.8940  139.6750 C   0  0  0  0  0  2  0  0  0  0  0  0
  181.5060  179.8000  137.1140 C   0  0  0  0  0  2  0  0  0  0  0  0
  180.2670  181.8950  137.5150 C   0  0  0  0  0  3  0  0  0  0  0  0
  180.2300  182.0290  138.7930 N   0  0  0  0  0  0  0  0  0  0  0  0
  189.0420  176.2560  142.4670 C   0  0  2  0  0  3  0  0  0  0  0  0
  188.0420  177.3470  142.6400 C   0  0  2  0  0  3  0  0  0  0  0  0
  189.0230  177.0710  143.6140 O   0  0  0  0  0  0  0  0  0  0  0  0
  186.6970  176.9140  143.2210 C   0  0  0  0  0  2  0  0  0  0  0  0
  185.8400  179.2600  142.8690 C   0  0  0  0  0  1  0  0  0  0  0  0
  185.8480  178.0500  143.7910 C   0  0  2  0  0  3  0  0  0  0  0  0
  184.2430  178.7820  146.1070 O   0  0  0  0  0  0  0  0  0  0  0  0
  186.3350  178.4080  145.1210 N   0  0  0  0  0  2  0  0  0  0  0  0
  185.5000  178.7990  146.2210 C   0  0  0  0  0  0  0  0  0  0  0  0
  186.0830  179.1530  147.4730 N   0  0  0  0  0  2  0  0  0  0  0  0
  187.8250  179.0730  147.7600 S   0  0  0  0  0  0  0  0  0  0  0  0
  187.6870  177.4620  148.5860 C   0  0  0  0  0  1  0  0  0  0  0  0
  193.0390  174.1890  136.1920 C   0  0  0  0  0  2  0  0  0  0  0  0
  193.5970  171.8820  136.4460 O   0  0  0  0  0  0  0  0  0  0  0  0
  195.4100  172.3380  138.4750 O   0  0  0  0  0  1  0  0  0  0  0  0
  193.7540  173.0600  136.8660 C   0  0  0  0  0  0  0  0  0  0  0  0
  194.6540  173.3270  137.9410 N   0  0  0  0  0  2  0  0  0  0  0  0
  191.5020  177.9630  143.0960 C   0  0  0  0  0  2  0  0  0  0  0  0
  191.9820  176.8540  144.0210 C   0  0  0  0  0  2  0  0  0  0  0  0
  191.5890  177.1510  145.4570 C   0  0  0  0  0  2  0  0  0  0  0  0
  191.9240  175.9770  146.3570 C   0  0  0  0  0  2  0  0  0  0  0  0
  192.8020  176.3840  148.5220 O   0  0  0  0  0  1  0  0  0  0  0  0
  191.6140  176.3440  147.7920 C   0  0  0  0  0  2  0  0  0  0  0  0
  1 10  1  0  0  0  0
  2  1  1  0  0  0  0
  3  6  2  0  0  0  0
  4  6  1  0  0  0  0
  5 15  1  6  0  0  0
  5  3  1  0  0  0  0
  6 48  1  0  0  0  0
  7  2  1  0  0  0  0
  8  2  2  0  0  0  0
  9 10  2  0  0  0  0
  9  5  1  0  0  0  0
 10  4  1  0  0  0  0
 11 12  1  0  0  0  0
 13 15  1  0  0  0  0
 14 16  1  0  0  0  0
 14 13  2  0  0  0  0
 15 12  2  0  0  0  0
 16 11  2  0  0  0  0
 17 23  1  0  0  0  0
 17 19  1  1  0  0  0
 20 22  2  0  0  0  0
 20 21  1  0  0  0  0
 21 16  1  1  0  0  0
 21 23  1  0  0  0  0
 22 17  1  0  0  0  0
 23 18  2  0  0  0  0
 24 28  1  0  0  0  0
 24 29  1  0  0  0  0
 25 27  1  0  0  0  0
 26 17  1  0  0  0  0
 26 25  2  0  0  0  0
 28 26  1  0  0  0  0
 29 30  2  0  0  0  0
 30 27  1  0  0  0  0
 31  3  1  6  0  0  0
 31 32  1  0  0  0  0
 31 33  1  0  0  0  0
 32 34  1  1  0  0  0
 32 33  1  0  0  0  0
 34 36  1  0  0  0  0
 36 35  1  6  0  0  0
 36 38  1  0  0  0  0
 37 39  2  0  0  0  0
 38 39  1  0  0  0  0
 39 40  1  0  0  0  0
 40 41  1  0  0  0  0
 41 42  1  0  0  0  0
 43 46  1  0  0  0  0
 43  7  1  0  0  0  0
 44 46  2  0  0  0  0
 46 47  1  0  0  0  0
 47 45  1  0  0  0  0
 48 49  1  0  0  0  0
 49 50  1  0  0  0  0
 50 51  1  0  0  0  0
 51 53  1  0  0  0  0
 53 52  1  0  0  0  0
M  END
>  <MODEL>
6

>  <REMARK>
 VINA RESULT:      -6.4      3.349      8.226
  Name = 
  15 active torsions:
  status: ('A' for Active; 'I' for Inactive)
    1  A    between atoms: C_2  and  C_7
    2  A    between atoms: C_5  and  C_33
    3  A    between atoms: C_5  and  N_44
    4  A    between atoms: C_8  and  C_39
    5  A    between atoms: C_8  and  C_48
    6  A    between atoms: C_9  and  C_16
    7  A    between atoms: C_9  and  C_52
    8  A    between atoms: C_11  and  C_21
    9  A    between atoms: S_14  and  N_28
   10  A    between atoms: N_18  and  C_52
   11  A    between atoms: C_29  and  C_35
   12  A    between atoms: C_29  and  C_48
   13  A    between atoms: C_37  and  C_46
   14  A    between atoms: C_38  and  C_51
   15  A    between atoms: C_39  and  C_43
                            x       y       z     vdW  Elec       q    Type
                         _______ _______ _______ _____ _____    ______ ____

>  <TORSDO>
F 15

$$$$
=
 OpenBabel10232409293D

 53 57  0  0  1  0  0  0  0  0999 V2000
  189.4370  173.1590  135.6940 N   0  0  0  0  0  2  0  0  0  0  0  0
  190.7850  173.2110  135.2010 C   0  0  0  0  0  0  0  0  0  0  0  0
  186.9680  176.4580  136.7340 C   0  0  0  0  0  0  0  0  0  0  0  0
  187.2700  174.1520  136.2060 O   0  0  0  0  0  0  0  0  0  0  0  0
  188.4710  176.5670  136.9210 C   0  0  2  0  0  3  0  0  0  0  0  0
  186.4320  175.2540  136.4160 C   0  0  0  0  0  0  0  0  0  0  0  0
  191.4680  174.4570  135.0530 N   0  0  0  0  0  2  0  0  0  0  0  0
  191.3660  172.1350  134.8820 O   0  0  0  0  0  0  0  0  0  0  0  0
  189.2180  175.4110  136.4210 N   0  0  0  0  0  0  0  0  0  0  0  0
  188.6560  174.2800  136.1260 C   0  0  0  0  0  0  0  0  0  0  0  0
  190.3210  176.5340  140.2470 C   0  0  0  0  0  3  0  0  0  0  0  0
  190.0250  176.3260  138.8970 C   0  0  0  0  0  3  0  0  0  0  0  0
  187.9570  177.5550  139.1630 C   0  0  0  0  0  3  0  0  0  0  0  0
  188.2490  177.7610  140.5120 C   0  0  0  0  0  3  0  0  0  0  0  0
  188.8410  176.8370  138.3520 C   0  0  0  0  0  0  0  0  0  0  0  0
  189.4420  177.2610  141.0590 C   0  0  0  0  0  0  0  0  0  0  0  0
  188.1500  178.1500  144.2220 C   0  0  2  0  0  0  0  0  0  0  0  0
  188.0410  175.9480  143.3300 O   0  0  0  0  0  0  0  0  0  0  0  0
  186.8570  178.5280  143.8940 F   0  0  0  0  0  0  0  0  0  0  0  0
  190.0950  178.7760  142.8670 N   0  0  0  0  0  0  0  0  0  0  0  0
  189.7500  177.3970  142.5230 C   0  0  1  0  0  3  0  0  0  0  0  0
  189.1070  179.2750  143.8380 C   0  0  0  0  0  3  0  0  0  0  0  0
  188.5770  177.0460  143.3480 C   0  0  0  0  0  0  0  0  0  0  0  0
  187.0010  177.3750  147.9240 C   0  0  0  0  0  2  0  0  0  0  0  0
  189.4160  177.2110  146.1300 C   0  0  0  0  0  3  0  0  0  0  0  0
  188.2570  177.7600  145.6860 C   0  0  0  0  0  0  0  0  0  0  0  0
  189.7030  176.6630  147.5050 C   0  0  0  0  0  2  0  0  0  0  0  0
  187.0490  178.0510  146.5610 C   0  0  0  0  0  2  0  0  0  0  0  0
  188.1100  177.9060  148.7830 C   0  0  0  0  0  3  0  0  0  0  0  0
  189.3360  177.5890  148.5550 N   0  0  0  0  0  0  0  0  0  0  0  0
  186.1880  177.7500  136.9260 C   0  0  2  0  0  3  0  0  0  0  0  0
  185.2420  177.6190  138.0710 C   0  0  2  0  0  3  0  0  0  0  0  0
  184.8030  177.5890  136.7320 O   0  0  0  0  0  0  0  0  0  0  0  0
  184.7600  178.9370  138.6740 C   0  0  0  0  0  2  0  0  0  0  0  0
  184.7400  178.3370  141.1240 C   0  0  0  0  0  1  0  0  0  0  0  0
  183.9080  178.7910  139.9350 C   0  0  2  0  0  3  0  0  0  0  0  0
  181.2550  178.8490  141.1320 O   0  0  0  0  0  0  0  0  0  0  0  0
  182.8080  177.8650  139.6810 N   0  0  0  0  0  2  0  0  0  0  0  0
  181.5280  177.9150  140.3280 C   0  0  0  0  0  0  0  0  0  0  0  0
  180.5310  176.9420  140.0230 N   0  0  0  0  0  2  0  0  0  0  0  0
  180.7820  175.6820  138.8090 S   0  0  0  0  0  0  0  0  0  0  0  0
  180.0040  176.6810  137.5080 C   0  0  0  0  0  1  0  0  0  0  0  0
  192.7430  174.5810  134.3550 C   0  0  0  0  0  2  0  0  0  0  0  0
  194.3330  176.3080  134.7860 O   0  0  0  0  0  0  0  0  0  0  0  0
  194.7340  175.5600  137.4110 O   0  0  0  0  0  1  0  0  0  0  0  0
  193.7310  175.2910  135.2250 C   0  0  0  0  0  0  0  0  0  0  0  0
  193.9460  174.8520  136.5660 N   0  0  0  0  0  2  0  0  0  0  0  0
  184.9660  175.0270  136.2530 C   0  0  0  0  0  2  0  0  0  0  0  0
  184.6790  173.5410  136.1060 C   0  0  0  0  0  2  0  0  0  0  0  0
  183.4940  173.1390  136.9660 C   0  0  0  0  0  2  0  0  0  0  0  0
  182.5580  172.2270  136.1950 C   0  0  0  0  0  2  0  0  0  0  0  0
  180.5310  172.8070  137.2790 O   0  0  0  0  0  1  0  0  0  0  0  0
  181.2070  172.8960  136.0630 C   0  0  0  0  0  2  0  0  0  0  0  0
  1 10  1  0  0  0  0
  2  1  1  0  0  0  0
  3  5  1  0  0  0  0
  4  6  1  0  0  0  0
  5 15  1  1  0  0  0
  6  3  2  0  0  0  0
  7  2  1  0  0  0  0
  8  2  2  0  0  0  0
  9  5  1  0  0  0  0
 10  4  1  0  0  0  0
 10  9  2  0  0  0  0
 11 16  1  0  0  0  0
 12 11  2  0  0  0  0
 13 14  1  0  0  0  0
 14 16  2  0  0  0  0
 15 12  1  0  0  0  0
 15 13  2  0  0  0  0
 17 19  1  6  0  0  0
 17 26  1  0  0  0  0
 18 23  2  0  0  0  0
 20 22  2  0  0  0  0
 21 16  1  6  0  0  0
 21 20  1  0  0  0  0
 21 23  1  0  0  0  0
 22 17  1  0  0  0  0
 23 17  1  0  0  0  0
 24 29  1  0  0  0  0
 25 27  1  0  0  0  0
 26 25  2  0  0  0  0
 26 28  1  0  0  0  0
 27 30  1  0  0  0  0
 28 24  1  0  0  0  0
 30 29  2  0  0  0  0
 31  3  1  6  0  0  0
 31 32  1  0  0  0  0
 32 34  1  1  0  0  0
 33 31  1  0  0  0  0
 33 32  1  0  0  0  0
 34 36  1  0  0  0  0
 36 35  1  1  0  0  0
 38 36  1  0  0  0  0
 38 39  1  0  0  0  0
 39 37  2  0  0  0  0
 40 39  1  0  0  0  0
 41 40  1  0  0  0  0
 42 41  1  0  0  0  0
 43  7  1  0  0  0  0
 43 46  1  0  0  0  0
 44 46  2  0  0  0  0
 46 47  1  0  0  0  0
 47 45  1  0  0  0  0
 48  6  1  0  0  0  0
 49 48  1  0  0  0  0
 49 50  1  0  0  0  0
 51 50  1  0  0  0  0
 53 51  1  0  0  0  0
 53 52  1  0  0  0  0
M  END
>  <MODEL>
7

>  <REMARK>
 VINA RESULT:      -5.3      2.225      3.254
  Name = 
  15 active torsions:
  status: ('A' for Active; 'I' for Inactive)
    1  A    between atoms: C_2  and  C_7
    2  A    between atoms: C_5  and  C_33
    3  A    between atoms: C_5  and  N_44
    4  A    between atoms: C_8  and  C_39
    5  A    between atoms: C_8  and  C_48
    6  A    between atoms: C_9  and  C_16
    7  A    between atoms: C_9  and  C_52
    8  A    between atoms: C_11  and  C_21
    9  A    between atoms: S_14  and  N_28
   10  A    between atoms: N_18  and  C_52
   11  A    between atoms: C_29  and  C_35
   12  A    between atoms: C_29  and  C_48
   13  A    between atoms: C_37  and  C_46
   14  A    between atoms: C_38  and  C_51
   15  A    between atoms: C_39  and  C_43
                            x       y       z     vdW  Elec       q    Type
                         _______ _______ _______ _____ _____    ______ ____

>  <TORSDO>
F 15

$$$$
