=
 OpenBabel10232412163D

 48 52  0  0  1  0  0  0  0  0999 V2000
  188.2200  176.8060  142.7490 C   0  0  2  0  0  3  0  0  0  0  0  0
  191.0060  176.2820  142.1540 C   0  0  0  0  0  3  0  0  0  0  0  0
  185.8950  177.9040  142.9610 N   0  0  0  0  0  2  0  0  0  0  0  0
  190.6200  177.0560  146.4150 O   0  0  0  0  0  0  0  0  0  0  0  0
  188.7620  177.2970  145.0120 N   0  0  0  0  0  0  0  0  0  0  0  0
  189.4380  177.4630  146.2660 C   0  0  0  0  0  0  0  0  0  0  0  0
  187.4730  177.7700  144.7560 N   0  0  0  0  0  0  0  0  0  0  0  0
  189.2800  176.7730  143.7970 C   0  0  0  0  0  0  0  0  0  0  0  0
  188.8450  177.7680  141.3350 S   0  0  0  0  0  0  0  0  0  0  0  0
  190.5690  176.5330  143.5410 C   0  0  0  0  0  3  0  0  0  0  0  0
  190.2800  176.6760  141.0980 C   0  0  0  0  0  0  0  0  0  0  0  0
  187.1590  177.5400  143.5190 C   0  0  0  0  0  0  0  0  0  0  0  0
  188.7990  176.8260  138.5160 N   0  0  0  0  0  2  0  0  0  0  0  0
  191.2450  176.1780  135.1350 N   0  0  0  0  0  0  0  0  0  0  0  0
  192.3070  175.8720  135.8200 C   0  0  0  0  0  0  0  0  0  0  0  0
  190.2190  176.4450  136.0470 N   0  0  0  0  0  2  0  0  0  0  0  0
  190.7320  176.3010  139.7900 N   0  0  0  0  0  2  0  0  0  0  0  0
  192.0970  175.9200  137.2310 N   0  0  0  0  0  2  0  0  0  0  0  0
  190.7520  176.2790  137.3240 N   0  0  0  0  0  0  0  0  0  0  0  0
  190.0550  176.5190  138.5460 C   0  0  0  0  0  0  0  0  0  0  0  0
  195.8550  172.7060  135.7750 C   0  0  0  0  0  1  0  0  0  0  0  0
  193.9250  174.0680  135.0370 C   0  0  1  0  0  3  0  0  0  0  0  0
  193.6360  175.5550  135.2000 C   0  0  2  0  0  3  0  0  0  0  0  0
  194.7120  176.1240  136.0080 N   0  0  0  0  0  2  0  0  0  0  0  0
  195.4670  175.0130  136.5890 C   0  0  0  0  0  2  0  0  0  0  0  0
  194.8030  173.7070  136.2020 C   0  0  2  0  0  3  0  0  0  0  0  0
  192.4130  172.4550  136.0280 O   0  0  0  0  0  1  0  0  0  0  0  0
  192.7240  173.1360  134.8470 C   0  0  0  0  0  2  0  0  0  0  0  0
  185.0850  180.1460  143.4870 C   0  0  0  0  0  1  0  0  0  0  0  0
  184.8880  178.6560  143.7020 C   0  0  1  0  0  3  0  0  0  0  0  0
  182.5270  178.7800  144.1400 O   0  0  0  0  0  1  0  0  0  0  0  0
  183.4840  178.2510  143.2700 C   0  0  1  0  0  3  0  0  0  0  0  0
  183.2210  178.7160  141.8430 C   0  0  0  0  0  2  0  0  0  0  0  0
  183.3000  177.5660  140.8510 C   0  0  0  0  0  2  0  0  0  0  0  0
  183.5020  178.0670  139.4200 C   0  0  2  0  0  3  0  0  0  0  0  0
  183.6680  174.9510  136.8280 O   0  0  0  0  0  0  0  0  0  0  0  0
  182.6820  175.8910  138.8330 C   0  0  0  0  0  2  0  0  0  0  0  0
  183.4350  176.1550  136.1400 C   0  0  0  0  0  2  0  0  0  0  0  0
  183.6570  176.9330  138.4880 N   0  0  0  0  0  0  0  0  0  0  0  0
  183.5210  177.3620  137.0860 C   0  0  0  0  0  2  0  0  0  0  0  0
  182.6120  174.8080  137.7480 C   0  0  0  0  0  2  0  0  0  0  0  0
  184.6030  179.1090  139.3460 C   0  0  0  0  0  0  0  0  0  0  0  0
  185.8070  178.7880  139.5350 O   0  0  0  0  0  0  0  0  0  0  0  0
  184.3000  180.4480  138.9600 N   0  0  0  0  0  1  0  0  0  0  0  0
  188.7300  178.0860  147.4240 C   0  0  0  0  0  2  0  0  0  0  0  0
  187.3040  177.5660  147.5250 C   0  0  0  0  0  2  0  0  0  0  0  0
  184.9640  178.2760  147.0350 C   0  0  0  0  0  1  0  0  0  0  0  0
  186.3020  178.7080  147.6050 C   0  0  0  0  0  2  0  0  0  0  0  0
  1  9  1  6  0  0  0
  1 12  1  0  0  0  0
  1  8  1  0  0  0  0
  2 10  1  0  0  0  0
  3 12  1  0  0  0  0
  3 30  1  0  0  0  0
  5  6  1  0  0  0  0
  6  4  2  0  0  0  0
  6 45  1  0  0  0  0
  7  5  1  0  0  0  0
  8  5  1  0  0  0  0
 10  8  2  0  0  0  0
 11  9  1  0  0  0  0
 11  2  2  0  0  0  0
 12  7  2  0  0  0  0
 13 20  2  0  0  0  0
 14 15  2  0  0  0  0
 14 16  1  0  0  0  0
 15 18  1  0  0  0  0
 16 19  1  0  0  0  0
 17 11  1  0  0  0  0
 18 19  1  0  0  0  0
 19 20  1  0  0  0  0
 20 17  1  0  0  0  0
 22 28  1  1  0  0  0
 22 23  1  0  0  0  0
 22 26  1  0  0  0  0
 23 15  1  1  0  0  0
 23 24  1  0  0  0  0
 24 25  1  0  0  0  0
 26 21  1  6  0  0  0
 26 25  1  0  0  0  0
 28 27  1  0  0  0  0
 30 29  1  6  0  0  0
 32 30  1  0  0  0  0
 32 31  1  1  0  0  0
 33 32  1  0  0  0  0
 34 33  1  0  0  0  0
 35 34  1  1  0  0  0
 36 41  1  0  0  0  0
 38 36  1  0  0  0  0
 38 40  1  0  0  0  0
 39 37  1  0  0  0  0
 39 35  1  0  0  0  0
 40 39  1  0  0  0  0
 41 37  1  0  0  0  0
 42 35  1  0  0  0  0
 42 43  2  0  0  0  0
 44 42  1  0  0  0  0
 45 46  1  0  0  0  0
 46 48  1  0  0  0  0
 47 48  1  0  0  0  0
M  END
>  <MODEL>
1

>  <REMARK>
 VINA RESULT:      -8.0      0.000      0.000
  Name = 
  13 active torsions:
  status: ('A' for Active; 'I' for Inactive)
    1  A    between atoms: C_5  and  C_14
    2  A    between atoms: C_7  and  C_10
    3  A    between atoms: C_9  and  C_26
    4  A    between atoms: C_9  and  C_39
    5  A    between atoms: N_13  and  C_40
    6  A    between atoms: C_17  and  C_32
    7  A    between atoms: N_19  and  C_30
    8  A    between atoms: C_26  and  C_27
    9  A    between atoms: C_30  and  C_36
   10  A    between atoms: C_32  and  C_34
   11  A    between atoms: C_32  and  N_42
   12  A    between atoms: C_34  and  C_43
   13  A    between atoms: C_36  and  C_43
                            x       y       z     vdW  Elec       q    Type
                         _______ _______ _______ _____ _____    ______ ____

>  <TORSDO>
F 13

$$$$
=
 OpenBabel10232412163D

 48 52  0  0  1  0  0  0  0  0999 V2000
  186.9440  178.1370  137.7590 C   0  0  2  0  0  3  0  0  0  0  0  0
  188.3070  176.6260  135.6970 C   0  0  0  0  0  3  0  0  0  0  0  0
  185.9020  178.9020  139.9910 N   0  0  0  0  0  2  0  0  0  0  0  0
  184.0280  176.4530  134.9450 O   0  0  0  0  0  0  0  0  0  0  0  0
  184.8300  177.4830  136.8880 N   0  0  0  0  0  0  0  0  0  0  0  0
  183.7770  176.9450  136.0760 C   0  0  0  0  0  0  0  0  0  0  0  0
  184.6370  177.9950  138.1720 N   0  0  0  0  0  0  0  0  0  0  0  0
  186.2270  177.4810  136.6280 C   0  0  0  0  0  0  0  0  0  0  0  0
  188.1660  176.9610  138.4210 S   0  0  0  0  0  0  0  0  0  0  0  0
  186.8390  176.7800  135.6700 C   0  0  0  0  0  3  0  0  0  0  0  0
  189.0170  176.7910  136.8220 C   0  0  0  0  0  0  0  0  0  0  0  0
  185.7790  178.3360  138.6850 C   0  0  0  0  0  0  0  0  0  0  0  0
  190.9690  176.1030  138.9660 N   0  0  0  0  0  2  0  0  0  0  0  0
  194.8860  175.4550  137.5280 N   0  0  0  0  0  0  0  0  0  0  0  0
  194.6180  175.8060  136.3050 C   0  0  0  0  0  0  0  0  0  0  0  0
  193.7100  175.5880  138.2710 N   0  0  0  0  0  2  0  0  0  0  0  0
  190.4460  176.7200  136.7340 N   0  0  0  0  0  2  0  0  0  0  0  0
  193.2550  176.1860  136.1170 N   0  0  0  0  0  2  0  0  0  0  0  0
  192.7220  176.0400  137.3980 N   0  0  0  0  0  0  0  0  0  0  0  0
  191.3520  176.2460  137.7390 C   0  0  0  0  0  0  0  0  0  0  0  0
  198.0820  173.1920  134.3580 C   0  0  0  0  0  1  0  0  0  0  0  0
  195.9250  174.3690  134.6570 C   0  0  1  0  0  3  0  0  0  0  0  0
  195.6180  175.7650  135.1870 C   0  0  2  0  0  3  0  0  0  0  0  0
  196.8810  176.3550  135.6250 N   0  0  0  0  0  2  0  0  0  0  0  0
  197.8800  175.2850  135.6680 C   0  0  0  0  0  2  0  0  0  0  0  0
  197.2120  173.9690  135.3220 C   0  0  2  0  0  3  0  0  0  0  0  0
  195.0480  172.4310  135.8150 O   0  0  0  0  0  1  0  0  0  0  0  0
  194.8150  173.3190  134.7610 C   0  0  0  0  0  2  0  0  0  0  0  0
  183.7460  177.9610  140.6420 C   0  0  0  0  0  1  0  0  0  0  0  0
  184.7710  179.0510  140.9010 C   0  0  1  0  0  3  0  0  0  0  0  0
  184.3740  178.1960  143.1130 O   0  0  0  0  0  1  0  0  0  0  0  0
  185.2330  178.9930  142.3520 C   0  0  1  0  0  3  0  0  0  0  0  0
  186.6580  178.4610  142.4270 C   0  0  0  0  0  2  0  0  0  0  0  0
  186.8080  177.4010  143.5080 C   0  0  0  0  0  2  0  0  0  0  0  0
  187.7690  177.8500  144.6110 C   0  0  2  0  0  3  0  0  0  0  0  0
  191.3900  176.1870  143.8530 O   0  0  0  0  0  0  0  0  0  0  0  0
  189.0200  176.2410  143.3470 C   0  0  0  0  0  2  0  0  0  0  0  0
  191.4550  177.5870  143.7390 C   0  0  0  0  0  2  0  0  0  0  0  0
  189.0950  177.2310  144.4290 N   0  0  0  0  0  0  0  0  0  0  0  0
  190.1350  178.2420  144.1690 C   0  0  0  0  0  2  0  0  0  0  0  0
  190.4170  175.7570  142.9320 C   0  0  0  0  0  2  0  0  0  0  0  0
  187.1600  177.6630  145.9880 C   0  0  0  0  0  0  0  0  0  0  0  0
  187.8580  177.2420  146.9480 O   0  0  0  0  0  0  0  0  0  0  0  0
  185.8130  178.0580  146.2370 N   0  0  0  0  0  1  0  0  0  0  0  0
  182.3620  177.0000  136.5500 C   0  0  0  0  0  2  0  0  0  0  0  0
  181.6710  178.2540  136.0350 C   0  0  0  0  0  2  0  0  0  0  0  0
  180.6580  178.5820  138.2910 C   0  0  0  0  0  1  0  0  0  0  0  0
  181.4170  179.2480  137.1590 C   0  0  0  0  0  2  0  0  0  0  0  0
  1  8  1  6  0  0  0
  1  9  1  0  0  0  0
  1 12  1  0  0  0  0
  2 11  2  0  0  0  0
  3 30  1  0  0  0  0
  4  6  2  0  0  0  0
  5  7  1  0  0  0  0
  6 45  1  0  0  0  0
  6  5  1  0  0  0  0
  7 12  2  0  0  0  0
  8  5  1  0  0  0  0
 10  2  1  0  0  0  0
 10  8  2  0  0  0  0
 11  9  1  0  0  0  0
 12  3  1  0  0  0  0
 14 16  1  0  0  0  0
 15 14  2  0  0  0  0
 17 11  1  0  0  0  0
 17 20  1  0  0  0  0
 18 15  1  0  0  0  0
 18 19  1  0  0  0  0
 19 20  1  0  0  0  0
 19 16  1  0  0  0  0
 20 13  2  0  0  0  0
 22 28  1  1  0  0  0
 22 23  1  0  0  0  0
 22 26  1  0  0  0  0
 23 24  1  0  0  0  0
 23 15  1  1  0  0  0
 24 25  1  0  0  0  0
 26 21  1  6  0  0  0
 26 25  1  0  0  0  0
 28 27  1  0  0  0  0
 30 29  1  1  0  0  0
 30 32  1  0  0  0  0
 32 33  1  0  0  0  0
 32 31  1  1  0  0  0
 33 34  1  0  0  0  0
 35 34  1  6  0  0  0
 35 42  1  0  0  0  0
 37 39  1  0  0  0  0
 38 36  1  0  0  0  0
 38 40  1  0  0  0  0
 39 35  1  0  0  0  0
 40 39  1  0  0  0  0
 41 37  1  0  0  0  0
 41 36  1  0  0  0  0
 42 44  1  0  0  0  0
 42 43  2  0  0  0  0
 46 45  1  0  0  0  0
 46 48  1  0  0  0  0
 48 47  1  0  0  0  0
M  END
>  <MODEL>
2

>  <REMARK>
 VINA RESULT:      -7.8      2.019      6.795
  Name = 
  13 active torsions:
  status: ('A' for Active; 'I' for Inactive)
    1  A    between atoms: C_5  and  C_14
    2  A    between atoms: C_7  and  C_10
    3  A    between atoms: C_9  and  C_26
    4  A    between atoms: C_9  and  C_39
    5  A    between atoms: N_13  and  C_40
    6  A    between atoms: C_17  and  C_32
    7  A    between atoms: N_19  and  C_30
    8  A    between atoms: C_26  and  C_27
    9  A    between atoms: C_30  and  C_36
   10  A    between atoms: C_32  and  C_34
   11  A    between atoms: C_32  and  N_42
   12  A    between atoms: C_34  and  C_43
   13  A    between atoms: C_36  and  C_43
                            x       y       z     vdW  Elec       q    Type
                         _______ _______ _______ _____ _____    ______ ____

>  <TORSDO>
F 13

$$$$
=
 OpenBabel10232412163D

 48 52  0  0  1  0  0  0  0  0999 V2000
  186.7150  178.0960  137.7610 C   0  0  2  0  0  3  0  0  0  0  0  0
  188.1100  176.6640  135.6650 C   0  0  0  0  0  3  0  0  0  0  0  0
  185.5910  178.7540  139.9880 N   0  0  0  0  0  2  0  0  0  0  0  0
  183.8770  176.7920  134.6780 O   0  0  0  0  0  0  0  0  0  0  0  0
  184.6230  177.6290  136.7340 N   0  0  0  0  0  0  0  0  0  0  0  0
  183.5890  177.2130  135.8300 C   0  0  0  0  0  0  0  0  0  0  0  0
  184.3840  178.0560  138.0420 N   0  0  0  0  0  0  0  0  0  0  0  0
  186.0300  177.5660  136.5480 C   0  0  0  0  0  0  0  0  0  0  0  0
  187.8340  176.8060  138.3950 S   0  0  0  0  0  0  0  0  0  0  0  0
  186.6570  176.9040  135.5720 C   0  0  0  0  0  3  0  0  0  0  0  0
  188.7630  176.7050  136.8340 C   0  0  0  0  0  0  0  0  0  0  0  0
  185.5120  178.2930  138.6380 C   0  0  0  0  0  0  0  0  0  0  0  0
  190.7060  177.2640  139.0240 N   0  0  0  0  0  2  0  0  0  0  0  0
  194.5960  175.8240  138.2270 N   0  0  0  0  0  0  0  0  0  0  0  0
  194.3310  175.4490  137.0110 C   0  0  0  0  0  0  0  0  0  0  0  0
  193.4280  176.3770  138.7600 N   0  0  0  0  0  2  0  0  0  0  0  0
  190.1890  176.5600  136.8160 N   0  0  0  0  0  2  0  0  0  0  0  0
  192.9790  175.6980  136.6290 N   0  0  0  0  0  2  0  0  0  0  0  0
  192.4490  176.2980  137.7710 N   0  0  0  0  0  0  0  0  0  0  0  0
  191.0860  176.6950  137.9260 C   0  0  0  0  0  0  0  0  0  0  0  0
  198.0720  172.5110  136.9640 C   0  0  0  0  0  1  0  0  0  0  0  0
  195.7920  173.4030  136.5980 C   0  0  1  0  0  3  0  0  0  0  0  0
  195.3240  174.7700  136.1130 C   0  0  2  0  0  3  0  0  0  0  0  0
  196.5090  175.6080  135.9550 N   0  0  0  0  0  2  0  0  0  0  0  0
  197.6280  174.9220  136.6030 C   0  0  0  0  0  2  0  0  0  0  0  0
  197.1200  173.6520  137.2550 C   0  0  2  0  0  3  0  0  0  0  0  0
  195.2290  172.5270  138.7860 O   0  0  0  0  0  1  0  0  0  0  0  0
  194.8150  172.5890  137.4530 C   0  0  0  0  0  2  0  0  0  0  0  0
  183.5800  177.6350  140.8030 C   0  0  0  0  0  1  0  0  0  0  0  0
  184.4200  178.8990  140.8460 C   0  0  1  0  0  3  0  0  0  0  0  0
  183.7120  179.4050  143.0880 O   0  0  0  0  0  1  0  0  0  0  0  0
  184.8350  179.1980  142.2810 C   0  0  1  0  0  3  0  0  0  0  0  0
  185.6800  178.0550  142.8310 C   0  0  0  0  0  2  0  0  0  0  0  0
  186.3940  178.4480  144.1150 C   0  0  0  0  0  2  0  0  0  0  0  0
  187.3980  177.3800  144.5530 C   0  0  2  0  0  3  0  0  0  0  0  0
  189.1860  178.2990  148.0760 O   0  0  0  0  0  0  0  0  0  0  0  0
  187.1360  177.7400  146.9100 C   0  0  0  0  0  2  0  0  0  0  0  0
  189.8430  177.2230  147.4540 C   0  0  0  0  0  2  0  0  0  0  0  0
  188.0870  177.7900  145.7920 N   0  0  0  0  0  0  0  0  0  0  0  0
  189.2750  176.9600  146.0520 C   0  0  0  0  0  2  0  0  0  0  0  0
  187.8500  177.8970  148.2600 C   0  0  0  0  0  2  0  0  0  0  0  0
  188.3180  176.9800  143.4140 C   0  0  0  0  0  0  0  0  0  0  0  0
  188.3280  175.7980  142.9790 O   0  0  0  0  0  0  0  0  0  0  0  0
  189.1100  177.9640  142.7530 N   0  0  0  0  0  1  0  0  0  0  0  0
  182.1550  177.3150  136.2310 C   0  0  0  0  0  2  0  0  0  0  0  0
  181.4350  178.3630  135.3960 C   0  0  0  0  0  2  0  0  0  0  0  0
  181.3070  179.7600  137.4580 C   0  0  0  0  0  1  0  0  0  0  0  0
  180.5380  179.2390  136.2590 C   0  0  0  0  0  2  0  0  0  0  0  0
  1  8  1  6  0  0  0
  1  9  1  0  0  0  0
  1 12  1  0  0  0  0
  2 11  2  0  0  0  0
  3 30  1  0  0  0  0
  4  6  2  0  0  0  0
  5  7  1  0  0  0  0
  6 45  1  0  0  0  0
  6  5  1  0  0  0  0
  7 12  2  0  0  0  0
  8  5  1  0  0  0  0
 10  2  1  0  0  0  0
 10  8  2  0  0  0  0
 11  9  1  0  0  0  0
 12  3  1  0  0  0  0
 14 16  1  0  0  0  0
 15 14  2  0  0  0  0
 17 11  1  0  0  0  0
 17 20  1  0  0  0  0
 18 15  1  0  0  0  0
 18 19  1  0  0  0  0
 19 20  1  0  0  0  0
 19 16  1  0  0  0  0
 20 13  2  0  0  0  0
 22 26  1  0  0  0  0
 22 28  1  1  0  0  0
 23 22  1  0  0  0  0
 23 15  1  1  0  0  0
 24 23  1  0  0  0  0
 24 25  1  0  0  0  0
 25 26  1  0  0  0  0
 26 21  1  6  0  0  0
 28 27  1  0  0  0  0
 30 29  1  1  0  0  0
 30 32  1  0  0  0  0
 32 33  1  0  0  0  0
 32 31  1  1  0  0  0
 33 34  1  0  0  0  0
 35 34  1  6  0  0  0
 35 39  1  0  0  0  0
 36 41  1  0  0  0  0
 37 41  1  0  0  0  0
 38 36  1  0  0  0  0
 39 40  1  0  0  0  0
 39 37  1  0  0  0  0
 40 38  1  0  0  0  0
 42 35  1  0  0  0  0
 43 42  2  0  0  0  0
 44 42  1  0  0  0  0
 46 45  1  0  0  0  0
 46 48  1  0  0  0  0
 48 47  1  0  0  0  0
M  END
>  <MODEL>
3

>  <REMARK>
 VINA RESULT:      -7.7      2.115      7.171
  Name = 
  13 active torsions:
  status: ('A' for Active; 'I' for Inactive)
    1  A    between atoms: C_5  and  C_14
    2  A    between atoms: C_7  and  C_10
    3  A    between atoms: C_9  and  C_26
    4  A    between atoms: C_9  and  C_39
    5  A    between atoms: N_13  and  C_40
    6  A    between atoms: C_17  and  C_32
    7  A    between atoms: N_19  and  C_30
    8  A    between atoms: C_26  and  C_27
    9  A    between atoms: C_30  and  C_36
   10  A    between atoms: C_32  and  C_34
   11  A    between atoms: C_32  and  N_42
   12  A    between atoms: C_34  and  C_43
   13  A    between atoms: C_36  and  C_43
                            x       y       z     vdW  Elec       q    Type
                         _______ _______ _______ _____ _____    ______ ____

>  <TORSDO>
F 13

$$$$
=
 OpenBabel10232412163D

 48 52  0  0  1  0  0  0  0  0999 V2000
  188.9650  176.6090  139.2030 C   0  0  2  0  0  3  0  0  0  0  0  0
  187.6860  177.1240  136.6560 C   0  0  0  0  0  3  0  0  0  0  0  0
  190.0450  176.8690  141.5320 N   0  0  0  0  0  2  0  0  0  0  0  0
  191.8820  176.2310  135.9460 O   0  0  0  0  0  0  0  0  0  0  0  0
  191.0820  176.4150  138.1380 N   0  0  0  0  0  0  0  0  0  0  0  0
  192.1410  176.3180  137.1750 C   0  0  0  0  0  0  0  0  0  0  0  0
  191.2930  176.5670  139.5100 N   0  0  0  0  0  0  0  0  0  0  0  0
  189.6850  176.5120  137.9010 C   0  0  0  0  0  0  0  0  0  0  0  0
  187.9710  178.1350  139.1950 S   0  0  0  0  0  0  0  0  0  0  0  0
  189.1110  176.7460  136.7180 C   0  0  0  0  0  3  0  0  0  0  0  0
  187.0420  177.6400  137.7120 C   0  0  0  0  0  0  0  0  0  0  0  0
  190.1540  176.7020  140.1160 C   0  0  0  0  0  0  0  0  0  0  0  0
  184.8480  175.6580  137.3350 N   0  0  0  0  0  2  0  0  0  0  0  0
  180.9910  177.3060  137.8300 N   0  0  0  0  0  0  0  0  0  0  0  0
  181.4060  178.5320  137.9550 C   0  0  0  0  0  0  0  0  0  0  0  0
  182.1160  176.4990  137.6330 N   0  0  0  0  0  2  0  0  0  0  0  0
  185.6340  177.8840  137.5910 N   0  0  0  0  0  2  0  0  0  0  0  0
  182.8260  178.6540  137.8700 N   0  0  0  0  0  2  0  0  0  0  0  0
  183.2300  177.3360  137.6560 N   0  0  0  0  0  0  0  0  0  0  0  0
  184.5870  176.9060  137.5570 C   0  0  0  0  0  0  0  0  0  0  0  0
  180.2100  182.8760  136.4330 C   0  0  0  0  0  1  0  0  0  0  0  0
  180.0690  180.4650  136.9730 C   0  0  1  0  0  3  0  0  0  0  0  0
  180.4980  179.6970  138.2180 C   0  0  2  0  0  3  0  0  0  0  0  0
  181.1520  180.6470  139.1150 N   0  0  0  0  0  2  0  0  0  0  0  0
  181.4080  181.8720  138.3550 C   0  0  0  0  0  2  0  0  0  0  0  0
  180.9750  181.6630  136.9180 C   0  0  2  0  0  3  0  0  0  0  0  0
  181.0240  180.0330  134.7890 O   0  0  0  0  0  1  0  0  0  0  0  0
  179.9880  179.6820  135.6590 C   0  0  0  0  0  2  0  0  0  0  0  0
  191.5680  178.4690  142.5710 C   0  0  0  0  0  1  0  0  0  0  0  0
  191.2060  177.0040  142.4050 C   0  0  1  0  0  3  0  0  0  0  0  0
  191.7070  176.9920  144.7570 O   0  0  0  0  0  1  0  0  0  0  0  0
  190.9330  176.3790  143.7680 C   0  0  1  0  0  3  0  0  0  0  0  0
  189.4520  176.4910  144.1070 C   0  0  0  0  0  2  0  0  0  0  0  0
  189.1790  177.6350  145.0710 C   0  0  0  0  0  2  0  0  0  0  0  0
  187.9560  177.3560  145.9480 C   0  0  2  0  0  3  0  0  0  0  0  0
  184.7030  179.4530  144.7350 O   0  0  0  0  0  0  0  0  0  0  0  0
  186.4000  177.8130  144.1810 C   0  0  0  0  0  2  0  0  0  0  0  0
  184.4380  178.7830  145.9420 C   0  0  0  0  0  2  0  0  0  0  0  0
  186.8170  178.1980  145.5360 N   0  0  0  0  0  0  0  0  0  0  0  0
  185.7020  178.1090  146.4940 C   0  0  0  0  0  2  0  0  0  0  0  0
  185.0620  178.4640  143.8010 C   0  0  0  0  0  2  0  0  0  0  0  0
  188.3030  177.4290  147.4240 C   0  0  0  0  0  0  0  0  0  0  0  0
  188.2340  176.4030  148.1530 O   0  0  0  0  0  0  0  0  0  0  0  0
  188.8080  178.6390  147.9840 N   0  0  0  0  0  1  0  0  0  0  0  0
  193.5640  176.2760  137.6250 C   0  0  0  0  0  2  0  0  0  0  0  0
  194.1190  174.8630  137.5240 C   0  0  0  0  0  2  0  0  0  0  0  0
  194.6120  173.6810  135.3840 C   0  0  0  0  0  1  0  0  0  0  0  0
  195.0960  174.7330  136.3650 C   0  0  0  0  0  2  0  0  0  0  0  0
  1  8  1  6  0  0  0
  1 12  1  0  0  0  0
  2 10  1  0  0  0  0
  2 11  2  0  0  0  0
  3 30  1  0  0  0  0
  4  6  2  0  0  0  0
  5  7  1  0  0  0  0
  6 45  1  0  0  0  0
  6  5  1  0  0  0  0
  7 12  2  0  0  0  0
  8  5  1  0  0  0  0
  9  1  1  0  0  0  0
 10  8  2  0  0  0  0
 11  9  1  0  0  0  0
 12  3  1  0  0  0  0
 13 20  2  0  0  0  0
 14 15  2  0  0  0  0
 16 19  1  0  0  0  0
 16 14  1  0  0  0  0
 17 11  1  0  0  0  0
 18 15  1  0  0  0  0
 19 18  1  0  0  0  0
 20 17  1  0  0  0  0
 20 19  1  0  0  0  0
 22 28  1  6  0  0  0
 22 23  1  0  0  0  0
 23 15  1  6  0  0  0
 23 24  1  0  0  0  0
 25 24  1  0  0  0  0
 26 21  1  1  0  0  0
 26 22  1  0  0  0  0
 26 25  1  0  0  0  0
 27 28  1  0  0  0  0
 30 29  1  1  0  0  0
 30 32  1  0  0  0  0
 32 33  1  0  0  0  0
 32 31  1  1  0  0  0
 33 34  1  0  0  0  0
 35 34  1  6  0  0  0
 35 42  1  0  0  0  0
 36 38  1  0  0  0  0
 37 39  1  0  0  0  0
 38 40  1  0  0  0  0
 39 35  1  0  0  0  0
 39 40  1  0  0  0  0
 41 37  1  0  0  0  0
 41 36  1  0  0  0  0
 42 44  1  0  0  0  0
 42 43  2  0  0  0  0
 46 45  1  0  0  0  0
 47 48  1  0  0  0  0
 48 46  1  0  0  0  0
M  END
>  <MODEL>
4

>  <REMARK>
 VINA RESULT:      -7.6      2.622     10.017
  Name = 
  13 active torsions:
  status: ('A' for Active; 'I' for Inactive)
    1  A    between atoms: C_5  and  C_14
    2  A    between atoms: C_7  and  C_10
    3  A    between atoms: C_9  and  C_26
    4  A    between atoms: C_9  and  C_39
    5  A    between atoms: N_13  and  C_40
    6  A    between atoms: C_17  and  C_32
    7  A    between atoms: N_19  and  C_30
    8  A    between atoms: C_26  and  C_27
    9  A    between atoms: C_30  and  C_36
   10  A    between atoms: C_32  and  C_34
   11  A    between atoms: C_32  and  N_42
   12  A    between atoms: C_34  and  C_43
   13  A    between atoms: C_36  and  C_43
                            x       y       z     vdW  Elec       q    Type
                         _______ _______ _______ _____ _____    ______ ____

>  <TORSDO>
F 13

$$$$
=
 OpenBabel10232412163D

 48 52  0  0  1  0  0  0  0  0999 V2000
  188.2550  176.7910  143.0070 C   0  0  2  0  0  3  0  0  0  0  0  0
  191.0650  176.2830  142.5220 C   0  0  0  0  0  3  0  0  0  0  0  0
  185.9070  177.8580  143.0890 N   0  0  0  0  0  2  0  0  0  0  0  0
  190.5410  177.2880  146.7200 O   0  0  0  0  0  0  0  0  0  0  0  0
  188.7220  177.4180  145.2530 N   0  0  0  0  0  0  0  0  0  0  0  0
  189.3580  177.6660  146.5140 C   0  0  0  0  0  0  0  0  0  0  0  0
  187.4340  177.8520  144.9340 N   0  0  0  0  0  0  0  0  0  0  0  0
  189.2840  176.8350  144.0850 C   0  0  0  0  0  0  0  0  0  0  0  0
  188.9060  177.6820  141.5580 S   0  0  0  0  0  0  0  0  0  0  0  0
  190.5830  176.6040  143.8790 C   0  0  0  0  0  3  0  0  0  0  0  0
  190.3650  176.6040  141.4260 C   0  0  0  0  0  0  0  0  0  0  0  0
  187.1600  177.5480  143.7030 C   0  0  0  0  0  0  0  0  0  0  0  0
  189.2480  177.1450  138.7160 N   0  0  0  0  0  2  0  0  0  0  0  0
  191.8400  176.0280  135.5750 N   0  0  0  0  0  0  0  0  0  0  0  0
  192.7240  175.4730  136.3500 C   0  0  0  0  0  0  0  0  0  0  0  0
  190.8070  176.5030  136.3890 N   0  0  0  0  0  2  0  0  0  0  0  0
  190.8610  176.1640  140.1550 N   0  0  0  0  0  2  0  0  0  0  0  0
  192.3770  175.5370  137.7330 N   0  0  0  0  0  2  0  0  0  0  0  0
  191.1460  176.1920  137.7040 N   0  0  0  0  0  0  0  0  0  0  0  0
  190.3910  176.5580  138.8590 C   0  0  0  0  0  0  0  0  0  0  0  0
  195.7720  171.8780  136.9900 C   0  0  0  0  0  1  0  0  0  0  0  0
  194.0800  173.3530  135.9490 C   0  0  1  0  0  3  0  0  0  0  0  0
  194.0080  174.8730  135.8540 C   0  0  2  0  0  3  0  0  0  0  0  0
  195.1350  175.4130  136.6100 N   0  0  0  0  0  2  0  0  0  0  0  0
  195.7050  174.3200  137.4000 C   0  0  0  0  0  2  0  0  0  0  0  0
  194.8670  173.0740  137.1980 C   0  0  2  0  0  3  0  0  0  0  0  0
  192.6970  171.8150  134.6870 O   0  0  0  0  0  1  0  0  0  0  0  0
  192.7600  172.5810  135.8550 C   0  0  0  0  0  2  0  0  0  0  0  0
  185.2200  180.1090  143.7360 C   0  0  0  0  0  1  0  0  0  0  0  0
  184.8680  178.6320  143.7580 C   0  0  1  0  0  3  0  0  0  0  0  0
  182.8010  179.6120  143.0130 O   0  0  0  0  0  1  0  0  0  0  0  0
  183.5160  178.4120  143.0890 C   0  0  1  0  0  3  0  0  0  0  0  0
  183.7090  177.8210  141.6980 C   0  0  0  0  0  2  0  0  0  0  0  0
  183.8010  178.9020  140.6330 C   0  0  0  0  0  2  0  0  0  0  0  0
  182.8550  178.6240  139.4630 C   0  0  2  0  0  3  0  0  0  0  0  0
  185.1040  177.2880  136.3630 O   0  0  0  0  0  0  0  0  0  0  0  0
  185.0380  178.4620  138.4830 C   0  0  0  0  0  2  0  0  0  0  0  0
  184.3450  176.2400  136.9100 C   0  0  0  0  0  2  0  0  0  0  0  0
  183.6110  178.1810  138.2760 N   0  0  0  0  0  0  0  0  0  0  0  0
  183.3760  176.7560  137.9840 C   0  0  0  0  0  2  0  0  0  0  0  0
  185.9030  177.7890  137.4080 C   0  0  0  0  0  2  0  0  0  0  0  0
  181.9130  179.7890  139.2200 C   0  0  0  0  0  0  0  0  0  0  0  0
  182.1120  180.5910  138.2700 O   0  0  0  0  0  0  0  0  0  0  0  0
  180.7300  179.9310  140.0050 N   0  0  0  0  0  1  0  0  0  0  0  0
  188.6060  178.3410  147.6140 C   0  0  0  0  0  2  0  0  0  0  0  0
  187.4320  177.4850  148.0670 C   0  0  0  0  0  2  0  0  0  0  0  0
  186.1470  179.5380  147.4700 C   0  0  0  0  0  1  0  0  0  0  0  0
  186.1150  178.0220  147.5270 C   0  0  0  0  0  2  0  0  0  0  0  0
  1  9  1  6  0  0  0
  1 12  1  0  0  0  0
  1  8  1  0  0  0  0
  2 10  1  0  0  0  0
  3 12  1  0  0  0  0
  3 30  1  0  0  0  0
  5  6  1  0  0  0  0
  6  4  2  0  0  0  0
  6 45  1  0  0  0  0
  7  5  1  0  0  0  0
  8  5  1  0  0  0  0
 10  8  2  0  0  0  0
 11  9  1  0  0  0  0
 11  2  2  0  0  0  0
 12  7  2  0  0  0  0
 13 20  2  0  0  0  0
 14 15  2  0  0  0  0
 14 16  1  0  0  0  0
 15 18  1  0  0  0  0
 16 19  1  0  0  0  0
 17 11  1  0  0  0  0
 19 18  1  0  0  0  0
 19 20  1  0  0  0  0
 20 17  1  0  0  0  0
 22 28  1  1  0  0  0
 22 26  1  0  0  0  0
 23 22  1  0  0  0  0
 23 15  1  1  0  0  0
 23 24  1  0  0  0  0
 24 25  1  0  0  0  0
 26 21  1  6  0  0  0
 26 25  1  0  0  0  0
 27 28  1  0  0  0  0
 30 29  1  6  0  0  0
 32 31  1  6  0  0  0
 32 30  1  0  0  0  0
 33 32  1  0  0  0  0
 34 33  1  0  0  0  0
 35 34  1  1  0  0  0
 36 38  1  0  0  0  0
 36 41  1  0  0  0  0
 38 40  1  0  0  0  0
 39 37  1  0  0  0  0
 39 35  1  0  0  0  0
 40 39  1  0  0  0  0
 41 37  1  0  0  0  0
 42 35  1  0  0  0  0
 42 44  1  0  0  0  0
 43 42  2  0  0  0  0
 45 46  1  0  0  0  0
 47 48  1  0  0  0  0
 48 46  1  0  0  0  0
M  END
>  <MODEL>
5

>  <REMARK>
 VINA RESULT:      -7.1      1.292      1.518
  Name = 
  13 active torsions:
  status: ('A' for Active; 'I' for Inactive)
    1  A    between atoms: C_5  and  C_14
    2  A    between atoms: C_7  and  C_10
    3  A    between atoms: C_9  and  C_26
    4  A    between atoms: C_9  and  C_39
    5  A    between atoms: N_13  and  C_40
    6  A    between atoms: C_17  and  C_32
    7  A    between atoms: N_19  and  C_30
    8  A    between atoms: C_26  and  C_27
    9  A    between atoms: C_30  and  C_36
   10  A    between atoms: C_32  and  C_34
   11  A    between atoms: C_32  and  N_42
   12  A    between atoms: C_34  and  C_43
   13  A    between atoms: C_36  and  C_43
                            x       y       z     vdW  Elec       q    Type
                         _______ _______ _______ _____ _____    ______ ____

>  <TORSDO>
F 13

$$$$
=
 OpenBabel10232412163D

 48 52  0  0  1  0  0  0  0  0999 V2000
  190.4820  177.1700  138.2070 C   0  0  2  0  0  3  0  0  0  0  0  0
  190.8890  175.8650  135.6520 C   0  0  0  0  0  3  0  0  0  0  0  0
  190.2140  177.6560  140.7260 N   0  0  0  0  0  2  0  0  0  0  0  0
  186.6650  176.8100  136.0710 O   0  0  0  0  0  0  0  0  0  0  0  0
  188.1310  177.2000  137.8540 N   0  0  0  0  0  0  0  0  0  0  0  0
  186.8170  177.0940  137.2880 C   0  0  0  0  0  0  0  0  0  0  0  0
  188.3760  177.4590  139.2040 N   0  0  0  0  0  0  0  0  0  0  0  0
  189.3800  176.9430  137.2280 C   0  0  0  0  0  0  0  0  0  0  0  0
  191.4610  175.6380  138.3300 S   0  0  0  0  0  0  0  0  0  0  0  0
  189.5500  176.3430  136.0470 C   0  0  0  0  0  3  0  0  0  0  0  0
  191.8510  175.6260  136.5540 C   0  0  0  0  0  0  0  0  0  0  0  0
  189.6530  177.4210  139.4330 C   0  0  0  0  0  0  0  0  0  0  0  0
  194.3300  177.2800  136.4850 N   0  0  0  0  0  2  0  0  0  0  0  0
  197.8040  175.0630  135.5650 N   0  0  0  0  0  0  0  0  0  0  0  0
  197.1710  173.9550  135.3200 C   0  0  0  0  0  0  0  0  0  0  0  0
  196.8500  176.0270  135.9040 N   0  0  0  0  0  2  0  0  0  0  0  0
  193.1510  175.2610  136.0730 N   0  0  0  0  0  2  0  0  0  0  0  0
  195.7580  174.0690  135.4850 N   0  0  0  0  0  2  0  0  0  0  0  0
  195.6040  175.4070  135.8460 N   0  0  0  0  0  0  0  0  0  0  0  0
  194.3610  176.0220  136.1850 C   0  0  0  0  0  0  0  0  0  0  0  0
  200.1560  170.6160  136.9200 C   0  0  0  0  0  1  0  0  0  0  0  0
  198.0880  171.7190  136.1260 C   0  0  1  0  0  3  0  0  0  0  0  0
  197.8520  172.6680  134.9570 C   0  0  2  0  0  3  0  0  0  0  0  0
  199.1500  172.9440  134.3480 N   0  0  0  0  0  2  0  0  0  0  0  0
  200.1830  172.4590  135.2650 C   0  0  0  0  0  2  0  0  0  0  0  0
  199.5220  171.9320  136.5220 C   0  0  2  0  0  3  0  0  0  0  0  0
  196.0630  170.8630  137.1430 O   0  0  0  0  0  1  0  0  0  0  0  0
  197.1000  171.7870  137.2960 C   0  0  0  0  0  2  0  0  0  0  0  0
  187.9560  178.1230  141.5280 C   0  0  0  0  0  1  0  0  0  0  0  0
  189.3990  177.8560  141.9190 C   0  0  1  0  0  3  0  0  0  0  0  0
  190.1110  175.5740  142.1890 O   0  0  0  0  0  1  0  0  0  0  0  0
  189.4720  176.6380  142.8330 C   0  0  1  0  0  3  0  0  0  0  0  0
  190.2020  176.9940  144.1220 C   0  0  0  0  0  2  0  0  0  0  0  0
  189.5240  178.1410  144.8560 C   0  0  0  0  0  2  0  0  0  0  0  0
  188.6790  177.6400  146.0290 C   0  0  2  0  0  3  0  0  0  0  0  0
  184.9500  179.2360  145.9870 O   0  0  0  0  0  0  0  0  0  0  0  0
  186.6490  177.9810  144.7980 C   0  0  0  0  0  2  0  0  0  0  0  0
  185.1250  178.4180  147.1170 C   0  0  0  0  0  2  0  0  0  0  0  0
  187.3610  178.3030  146.0410 N   0  0  0  0  0  0  0  0  0  0  0  0
  186.5760  177.9280  147.2290 C   0  0  0  0  0  2  0  0  0  0  0  0
  185.1790  178.4180  144.8640 C   0  0  0  0  0  2  0  0  0  0  0  0
  189.4430  177.7160  147.3380 C   0  0  0  0  0  0  0  0  0  0  0  0
  189.0070  178.4030  148.3000 O   0  0  0  0  0  0  0  0  0  0  0  0
  190.6160  176.9290  147.5310 N   0  0  0  0  0  1  0  0  0  0  0  0
  185.6130  177.3600  138.1300 C   0  0  0  0  0  2  0  0  0  0  0  0
  185.5370  178.8310  138.5090 C   0  0  0  0  0  2  0  0  0  0  0  0
  184.0240  178.4810  140.4610 C   0  0  0  0  0  1  0  0  0  0  0  0
  184.1880  179.1760  139.1230 C   0  0  0  0  0  2  0  0  0  0  0  0
  1  8  1  6  0  0  0
  1  9  1  0  0  0  0
  1 12  1  0  0  0  0
  2 10  1  0  0  0  0
  2 11  2  0  0  0  0
  3 30  1  0  0  0  0
  4  6  2  0  0  0  0
  5  7  1  0  0  0  0
  6  5  1  0  0  0  0
  6 45  1  0  0  0  0
  7 12  2  0  0  0  0
  8  5  1  0  0  0  0
 10  8  2  0  0  0  0
 11  9  1  0  0  0  0
 12  3  1  0  0  0  0
 14 16  1  0  0  0  0
 15 18  1  0  0  0  0
 15 14  2  0  0  0  0
 17 20  1  0  0  0  0
 17 11  1  0  0  0  0
 18 19  1  0  0  0  0
 19 16  1  0  0  0  0
 19 20  1  0  0  0  0
 20 13  2  0  0  0  0
 22 26  1  0  0  0  0
 22 28  1  1  0  0  0
 23 15  1  1  0  0  0
 23 22  1  0  0  0  0
 24 23  1  0  0  0  0
 24 25  1  0  0  0  0
 25 26  1  0  0  0  0
 26 21  1  6  0  0  0
 27 28  1  0  0  0  0
 30 29  1  6  0  0  0
 30 32  1  0  0  0  0
 32 31  1  6  0  0  0
 32 33  1  0  0  0  0
 33 34  1  0  0  0  0
 35 34  1  6  0  0  0
 35 39  1  0  0  0  0
 35 42  1  0  0  0  0
 36 38  1  0  0  0  0
 37 41  1  0  0  0  0
 37 39  1  0  0  0  0
 38 40  1  0  0  0  0
 39 40  1  0  0  0  0
 41 36  1  0  0  0  0
 42 44  1  0  0  0  0
 42 43  2  0  0  0  0
 45 46  1  0  0  0  0
 46 48  1  0  0  0  0
 48 47  1  0  0  0  0
M  END
>  <MODEL>
6

>  <REMARK>
 VINA RESULT:      -6.8      2.472      7.196
  Name = 
  13 active torsions:
  status: ('A' for Active; 'I' for Inactive)
    1  A    between atoms: C_5  and  C_14
    2  A    between atoms: C_7  and  C_10
    3  A    between atoms: C_9  and  C_26
    4  A    between atoms: C_9  and  C_39
    5  A    between atoms: N_13  and  C_40
    6  A    between atoms: C_17  and  C_32
    7  A    between atoms: N_19  and  C_30
    8  A    between atoms: C_26  and  C_27
    9  A    between atoms: C_30  and  C_36
   10  A    between atoms: C_32  and  C_34
   11  A    between atoms: C_32  and  N_42
   12  A    between atoms: C_34  and  C_43
   13  A    between atoms: C_36  and  C_43
                            x       y       z     vdW  Elec       q    Type
                         _______ _______ _______ _____ _____    ______ ____

>  <TORSDO>
F 13

$$$$
=
 OpenBabel10232412163D

 48 52  0  0  1  0  0  0  0  0999 V2000
  183.8100  177.2260  139.0270 C   0  0  2  0  0  3  0  0  0  0  0  0
  182.5590  178.9170  141.0200 C   0  0  0  0  0  3  0  0  0  0  0  0
  185.3510  176.3000  137.1780 N   0  0  0  0  0  2  0  0  0  0  0  0
  179.9830  178.7590  137.5200 O   0  0  0  0  0  0  0  0  0  0  0  0
  182.0870  177.7330  137.4690 N   0  0  0  0  0  0  0  0  0  0  0  0
  180.8890  178.2090  136.8400 C   0  0  0  0  0  0  0  0  0  0  0  0
  183.1540  177.1620  136.7730 N   0  0  0  0  0  0  0  0  0  0  0  0
  182.4750  177.8600  138.8290 C   0  0  0  0  0  0  0  0  0  0  0  0
  184.9390  178.4760  139.7190 S   0  0  0  0  0  0  0  0  0  0  0  0
  181.8840  178.6420  139.7370 C   0  0  0  0  0  3  0  0  0  0  0  0
  183.8830  178.7720  141.1700 C   0  0  0  0  0  0  0  0  0  0  0  0
  184.1230  176.8990  137.5950 C   0  0  0  0  0  0  0  0  0  0  0  0
  182.5240  178.5280  143.8110 N   0  0  0  0  0  2  0  0  0  0  0  0
  185.1920  178.5680  147.0840 N   0  0  0  0  0  0  0  0  0  0  0  0
  186.2460  178.8230  146.3680 C   0  0  0  0  0  0  0  0  0  0  0  0
  184.0980  178.5060  146.2150 N   0  0  0  0  0  2  0  0  0  0  0  0
  184.4390  178.9640  142.4770 N   0  0  0  0  0  2  0  0  0  0  0  0
  185.9630  178.9380  144.9740 N   0  0  0  0  0  2  0  0  0  0  0  0
  184.5830  178.7380  144.9300 N   0  0  0  0  0  0  0  0  0  0  0  0
  183.8040  178.6990  143.7350 C   0  0  0  0  0  0  0  0  0  0  0  0
  190.1350  176.3190  147.4800 C   0  0  0  0  0  1  0  0  0  0  0  0
  188.6350  177.9370  146.3580 C   0  0  1  0  0  3  0  0  0  0  0  0
  187.6320  178.9300  146.9340 C   0  0  2  0  0  3  0  0  0  0  0  0
  187.5980  178.7280  148.3800 N   0  0  0  0  0  2  0  0  0  0  0  0
  188.2940  177.4740  148.6710 C   0  0  0  0  0  2  0  0  0  0  0  0
  188.7130  176.8260  147.3670 C   0  0  2  0  0  3  0  0  0  0  0  0
  188.7450  178.4490  143.9930 O   0  0  0  0  0  1  0  0  0  0  0  0
  188.4040  177.4610  144.9200 C   0  0  0  0  0  2  0  0  0  0  0  0
  186.1900  177.2820  135.1060 C   0  0  0  0  0  1  0  0  0  0  0  0
  185.6640  176.0260  135.7790 C   0  0  1  0  0  3  0  0  0  0  0  0
  187.5290  175.1160  134.5640 O   0  0  0  0  0  1  0  0  0  0  0  0
  186.6930  174.9080  135.6650 C   0  0  1  0  0  3  0  0  0  0  0  0
  187.5130  174.8170  136.9450 C   0  0  0  0  0  2  0  0  0  0  0  0
  188.9350  174.3490  136.6730 C   0  0  0  0  0  2  0  0  0  0  0  0
  189.9670  175.3810  137.1320 C   0  0  2  0  0  3  0  0  0  0  0  0
  188.3640  178.8320  138.5370 O   0  0  0  0  0  0  0  0  0  0  0  0
  189.6830  176.8530  139.0040 C   0  0  0  0  0  2  0  0  0  0  0  0
  189.1230  179.0750  137.3790 C   0  0  0  0  0  2  0  0  0  0  0  0
  189.3000  176.6080  137.6080 N   0  0  0  0  0  0  0  0  0  0  0  0
  189.6110  177.7630  136.7480 C   0  0  0  0  0  2  0  0  0  0  0  0
  189.2380  178.2460  139.4710 C   0  0  0  0  0  2  0  0  0  0  0  0
  191.0360  175.6040  136.0780 C   0  0  0  0  0  0  0  0  0  0  0  0
  192.1190  176.1780  136.3710 O   0  0  0  0  0  0  0  0  0  0  0  0
  190.8710  175.0750  134.7640 N   0  0  0  0  0  1  0  0  0  0  0  0
  180.6850  178.0200  135.3720 C   0  0  0  0  0  2  0  0  0  0  0  0
  180.0180  179.2430  134.7610 C   0  0  0  0  0  2  0  0  0  0  0  0
  180.2750  181.7190  134.9180 C   0  0  0  0  0  1  0  0  0  0  0  0
  180.9900  180.4080  134.6500 C   0  0  0  0  0  2  0  0  0  0  0  0
  1 12  1  6  0  0  0
  1  9  1  0  0  0  0
  2 11  2  0  0  0  0
  3 12  1  0  0  0  0
  5  8  1  0  0  0  0
  6  5  1  0  0  0  0
  6  4  2  0  0  0  0
  7  5  1  0  0  0  0
  7 12  2  0  0  0  0
  8  1  1  0  0  0  0
  8 10  2  0  0  0  0
  9 11  1  0  0  0  0
 10  2  1  0  0  0  0
 11 17  1  0  0  0  0
 15 14  2  0  0  0  0
 16 14  1  0  0  0  0
 17 20  1  0  0  0  0
 18 15  1  0  0  0  0
 19 18  1  0  0  0  0
 19 16  1  0  0  0  0
 20 13  2  0  0  0  0
 20 19  1  0  0  0  0
 22 28  1  6  0  0  0
 22 23  1  0  0  0  0
 22 26  1  0  0  0  0
 23 15  1  6  0  0  0
 23 24  1  0  0  0  0
 24 25  1  0  0  0  0
 26 21  1  1  0  0  0
 26 25  1  0  0  0  0
 27 28  1  0  0  0  0
 30 29  1  1  0  0  0
 30  3  1  0  0  0  0
 32 31  1  6  0  0  0
 32 30  1  0  0  0  0
 32 33  1  0  0  0  0
 34 33  1  0  0  0  0
 35 34  1  6  0  0  0
 35 39  1  0  0  0  0
 36 41  1  0  0  0  0
 37 41  1  0  0  0  0
 38 36  1  0  0  0  0
 39 37  1  0  0  0  0
 40 38  1  0  0  0  0
 40 39  1  0  0  0  0
 42 43  2  0  0  0  0
 42 35  1  0  0  0  0
 44 42  1  0  0  0  0
 45  6  1  0  0  0  0
 46 45  1  0  0  0  0
 48 46  1  0  0  0  0
 48 47  1  0  0  0  0
M  END
>  <MODEL>
7

>  <REMARK>
 VINA RESULT:      -6.6      2.784     10.251
  Name = 
  13 active torsions:
  status: ('A' for Active; 'I' for Inactive)
    1  A    between atoms: C_5  and  C_14
    2  A    between atoms: C_7  and  C_10
    3  A    between atoms: C_9  and  C_26
    4  A    between atoms: C_9  and  C_39
    5  A    between atoms: N_13  and  C_40
    6  A    between atoms: C_17  and  C_32
    7  A    between atoms: N_19  and  C_30
    8  A    between atoms: C_26  and  C_27
    9  A    between atoms: C_30  and  C_36
   10  A    between atoms: C_32  and  C_34
   11  A    between atoms: C_32  and  N_42
   12  A    between atoms: C_34  and  C_43
   13  A    between atoms: C_36  and  C_43
                            x       y       z     vdW  Elec       q    Type
                         _______ _______ _______ _____ _____    ______ ____

>  <TORSDO>
F 13

$$$$
=
 OpenBabel10232412163D

 48 52  0  0  1  0  0  0  0  0999 V2000
  188.2200  176.7160  142.7160 C   0  0  2  0  0  3  0  0  0  0  0  0
  191.0420  176.2880  142.2250 C   0  0  0  0  0  3  0  0  0  0  0  0
  185.8490  177.7270  142.8250 N   0  0  0  0  0  2  0  0  0  0  0  0
  190.4810  177.1320  146.4540 O   0  0  0  0  0  0  0  0  0  0  0  0
  188.6640  177.2730  144.9840 N   0  0  0  0  0  0  0  0  0  0  0  0
  189.2900  177.4900  146.2570 C   0  0  0  0  0  0  0  0  0  0  0  0
  187.3680  177.6900  144.6750 N   0  0  0  0  0  0  0  0  0  0  0  0
  189.2430  176.7450  143.7990 C   0  0  0  0  0  0  0  0  0  0  0  0
  188.8560  177.6720  141.3020 S   0  0  0  0  0  0  0  0  0  0  0  0
  190.5490  176.5500  143.5910 C   0  0  0  0  0  3  0  0  0  0  0  0
  190.3390  176.6320  141.1380 C   0  0  0  0  0  0  0  0  0  0  0  0
  187.1060  177.4230  143.4330 C   0  0  0  0  0  0  0  0  0  0  0  0
  188.9530  176.7010  138.5010 N   0  0  0  0  0  2  0  0  0  0  0  0
  191.5410  176.0650  135.2250 N   0  0  0  0  0  0  0  0  0  0  0  0
  192.5830  175.7990  135.9530 C   0  0  0  0  0  0  0  0  0  0  0  0
  190.4750  176.3190  136.0930 N   0  0  0  0  0  2  0  0  0  0  0  0
  190.8500  176.2480  139.8550 N   0  0  0  0  0  2  0  0  0  0  0  0
  192.3190  175.8640  137.3550 N   0  0  0  0  0  2  0  0  0  0  0  0
  190.9630  176.1880  137.3910 N   0  0  0  0  0  0  0  0  0  0  0  0
  190.2150  176.4280  138.5820 C   0  0  0  0  0  0  0  0  0  0  0  0
  195.9480  172.4560  135.5970 C   0  0  0  0  0  1  0  0  0  0  0  0
  194.1660  174.0570  134.9770 C   0  0  1  0  0  3  0  0  0  0  0  0
  193.9430  175.5080  135.3890 C   0  0  2  0  0  3  0  0  0  0  0  0
  194.9730  175.8480  136.3670 N   0  0  0  0  0  2  0  0  0  0  0  0
  195.6140  174.6020  136.7900 C   0  0  0  0  0  2  0  0  0  0  0  0
  194.9180  173.4350  136.1190 C   0  0  2  0  0  3  0  0  0  0  0  0
  192.4520  172.4460  135.5560 O   0  0  0  0  0  1  0  0  0  0  0  0
  192.9370  173.2590  134.5280 C   0  0  0  0  0  2  0  0  0  0  0  0
  185.0620  179.9460  143.4660 C   0  0  0  0  0  1  0  0  0  0  0  0
  184.7890  178.4540  143.5160 C   0  0  1  0  0  3  0  0  0  0  0  0
  182.5010  179.1370  143.2360 O   0  0  0  0  0  1  0  0  0  0  0  0
  183.4320  178.1530  142.8920 C   0  0  1  0  0  3  0  0  0  0  0  0
  183.5620  178.0510  141.3780 C   0  0  0  0  0  2  0  0  0  0  0  0
  182.5620  178.9470  140.6640 C   0  0  0  0  0  2  0  0  0  0  0  0
  182.9390  179.1580  139.1960 C   0  0  2  0  0  3  0  0  0  0  0  0
  180.1350  181.2010  137.0950 O   0  0  0  0  0  0  0  0  0  0  0  0
  182.0550  181.2980  138.5720 C   0  0  0  0  0  2  0  0  0  0  0  0
  180.8110  180.2910  136.2630 C   0  0  0  0  0  2  0  0  0  0  0  0
  181.8530  179.8470  138.4740 N   0  0  0  0  0  0  0  0  0  0  0  0
  181.7680  179.4040  137.0710 C   0  0  0  0  0  2  0  0  0  0  0  0
  181.1160  182.0600  137.6260 C   0  0  0  0  0  2  0  0  0  0  0  0
  183.4150  177.8680  138.5540 C   0  0  0  0  0  0  0  0  0  0  0  0
  184.5630  177.7890  138.0400 O   0  0  0  0  0  0  0  0  0  0  0  0
  182.6060  176.6950  138.6140 N   0  0  0  0  0  1  0  0  0  0  0  0
  188.5200  178.1090  147.3760 C   0  0  0  0  0  2  0  0  0  0  0  0
  187.1790  177.4130  147.5550 C   0  0  0  0  0  2  0  0  0  0  0  0
  186.1730  179.6900  147.7140 C   0  0  0  0  0  1  0  0  0  0  0  0
  186.0280  178.3050  147.1110 C   0  0  0  0  0  2  0  0  0  0  0  0
  1  9  1  6  0  0  0
  1 12  1  0  0  0  0
  1  8  1  0  0  0  0
  2 10  1  0  0  0  0
  3 12  1  0  0  0  0
  3 30  1  0  0  0  0
  5  6  1  0  0  0  0
  6  4  2  0  0  0  0
  6 45  1  0  0  0  0
  7  5  1  0  0  0  0
  8  5  1  0  0  0  0
 10  8  2  0  0  0  0
 11  9  1  0  0  0  0
 11  2  2  0  0  0  0
 12  7  2  0  0  0  0
 13 20  2  0  0  0  0
 14 15  2  0  0  0  0
 14 16  1  0  0  0  0
 15 18  1  0  0  0  0
 16 19  1  0  0  0  0
 17 11  1  0  0  0  0
 18 19  1  0  0  0  0
 19 20  1  0  0  0  0
 20 17  1  0  0  0  0
 22 28  1  1  0  0  0
 22 23  1  0  0  0  0
 22 26  1  0  0  0  0
 23 15  1  1  0  0  0
 23 24  1  0  0  0  0
 24 25  1  0  0  0  0
 26 21  1  6  0  0  0
 26 25  1  0  0  0  0
 28 27  1  0  0  0  0
 30 29  1  6  0  0  0
 32 31  1  6  0  0  0
 32 30  1  0  0  0  0
 33 32  1  0  0  0  0
 34 33  1  0  0  0  0
 35 34  1  1  0  0  0
 36 41  1  0  0  0  0
 38 40  1  0  0  0  0
 38 36  1  0  0  0  0
 39 37  1  0  0  0  0
 39 35  1  0  0  0  0
 40 39  1  0  0  0  0
 41 37  1  0  0  0  0
 42 44  1  0  0  0  0
 42 35  1  0  0  0  0
 43 42  2  0  0  0  0
 45 46  1  0  0  0  0
 48 46  1  0  0  0  0
 48 47  1  0  0  0  0
M  END
>  <MODEL>
8

>  <REMARK>
 VINA RESULT:      -6.5      1.618      2.127
  Name = 
  13 active torsions:
  status: ('A' for Active; 'I' for Inactive)
    1  A    between atoms: C_5  and  C_14
    2  A    between atoms: C_7  and  C_10
    3  A    between atoms: C_9  and  C_26
    4  A    between atoms: C_9  and  C_39
    5  A    between atoms: N_13  and  C_40
    6  A    between atoms: C_17  and  C_32
    7  A    between atoms: N_19  and  C_30
    8  A    between atoms: C_26  and  C_27
    9  A    between atoms: C_30  and  C_36
   10  A    between atoms: C_32  and  C_34
   11  A    between atoms: C_32  and  N_42
   12  A    between atoms: C_34  and  C_43
   13  A    between atoms: C_36  and  C_43
                            x       y       z     vdW  Elec       q    Type
                         _______ _______ _______ _____ _____    ______ ____

>  <TORSDO>
F 13

$$$$
=
 OpenBabel10232412163D

 48 52  0  0  1  0  0  0  0  0999 V2000
  187.9010  177.0490  142.9500 C   0  0  2  0  0  3  0  0  0  0  0  0
  190.7570  176.7730  142.5530 C   0  0  0  0  0  3  0  0  0  0  0  0
  185.5030  177.9810  143.1280 N   0  0  0  0  0  2  0  0  0  0  0  0
  189.9350  176.6820  146.8220 O   0  0  0  0  0  0  0  0  0  0  0  0
  188.2020  177.1120  145.3080 N   0  0  0  0  0  0  0  0  0  0  0  0
  188.7480  177.0580  146.6330 C   0  0  0  0  0  0  0  0  0  0  0  0
  186.9150  177.5680  145.0170 N   0  0  0  0  0  0  0  0  0  0  0  0
  188.8610  176.8580  144.0760 C   0  0  0  0  0  0  0  0  0  0  0  0
  188.5920  178.2950  141.8160 S   0  0  0  0  0  0  0  0  0  0  0  0
  190.1800  176.7300  143.9110 C   0  0  0  0  0  3  0  0  0  0  0  0
  190.1080  177.3340  141.5240 C   0  0  0  0  0  0  0  0  0  0  0  0
  186.7310  177.5710  143.7330 C   0  0  0  0  0  0  0  0  0  0  0  0
  192.9710  177.6710  140.7670 N   0  0  0  0  0  2  0  0  0  0  0  0
  193.8130  176.4830  136.8030 N   0  0  0  0  0  0  0  0  0  0  0  0
  192.5730  176.2600  136.4860 C   0  0  0  0  0  0  0  0  0  0  0  0
  193.8350  176.9210  138.1310 N   0  0  0  0  0  2  0  0  0  0  0  0
  190.7010  177.2420  140.2210 N   0  0  0  0  0  2  0  0  0  0  0  0
  191.6660  176.5100  137.5590 N   0  0  0  0  0  2  0  0  0  0  0  0
  192.5160  176.9370  138.5780 N   0  0  0  0  0  0  0  0  0  0  0  0
  192.0990  177.2630  139.9040 C   0  0  0  0  0  0  0  0  0  0  0  0
  189.8210  173.0220  134.3500 C   0  0  0  0  0  1  0  0  0  0  0  0
  190.7080  175.2040  135.1070 C   0  0  1  0  0  3  0  0  0  0  0  0
  192.1360  175.7380  135.1480 C   0  0  2  0  0  3  0  0  0  0  0  0
  193.0200  174.6570  134.7200 N   0  0  0  0  0  2  0  0  0  0  0  0
  192.2390  173.4200  134.7140 C   0  0  0  0  0  2  0  0  0  0  0  0
  190.8430  173.7120  135.2270 C   0  0  2  0  0  3  0  0  0  0  0  0
  188.9350  176.8150  135.4660 O   0  0  0  0  0  1  0  0  0  0  0  0
  189.7000  175.8210  136.0820 C   0  0  0  0  0  2  0  0  0  0  0  0
  184.6000  180.0120  144.1390 C   0  0  0  0  0  1  0  0  0  0  0  0
  184.3870  178.5290  143.8920 C   0  0  1  0  0  3  0  0  0  0  0  0
  182.0080  178.8810  143.8660 O   0  0  0  0  0  1  0  0  0  0  0  0
  183.0700  178.3100  143.1580 C   0  0  1  0  0  3  0  0  0  0  0  0
  183.1480  178.8960  141.7540 C   0  0  0  0  0  2  0  0  0  0  0  0
  182.9190  177.8360  140.6870 C   0  0  0  0  0  2  0  0  0  0  0  0
  181.5260  177.9540  140.0640 C   0  0  2  0  0  3  0  0  0  0  0  0
  180.9470  174.6580  137.7730 O   0  0  0  0  0  0  0  0  0  0  0  0
  182.5280  176.2020  138.7680 C   0  0  0  0  0  2  0  0  0  0  0  0
  180.2880  174.5240  139.0070 C   0  0  0  0  0  2  0  0  0  0  0  0
  181.2540  176.8060  139.1790 N   0  0  0  0  0  0  0  0  0  0  0  0
  180.3700  175.8210  139.8250 C   0  0  0  0  0  2  0  0  0  0  0  0
  182.3090  174.8540  138.0670 C   0  0  0  0  0  2  0  0  0  0  0  0
  181.3160  179.3160  139.4270 C   0  0  0  0  0  0  0  0  0  0  0  0
  181.7380  179.5540  138.2640 O   0  0  0  0  0  0  0  0  0  0  0  0
  180.5480  180.3120  140.0990 N   0  0  0  0  0  1  0  0  0  0  0  0
  187.9000  177.4120  147.8100 C   0  0  0  0  0  2  0  0  0  0  0  0
  187.8330  178.9210  147.9920 C   0  0  0  0  0  2  0  0  0  0  0  0
  185.4530  178.4770  147.3960 C   0  0  0  0  0  1  0  0  0  0  0  0
  186.5730  179.5000  147.3660 C   0  0  0  0  0  2  0  0  0  0  0  0
  1  9  1  6  0  0  0
  1 12  1  0  0  0  0
  1  8  1  0  0  0  0
  2 10  1  0  0  0  0
  3 12  1  0  0  0  0
  3 30  1  0  0  0  0
  5  6  1  0  0  0  0
  6  4  2  0  0  0  0
  6 45  1  0  0  0  0
  7  5  1  0  0  0  0
  8  5  1  0  0  0  0
 10  8  2  0  0  0  0
 11  9  1  0  0  0  0
 11  2  2  0  0  0  0
 12  7  2  0  0  0  0
 14 16  1  0  0  0  0
 15 14  2  0  0  0  0
 15 18  1  0  0  0  0
 16 19  1  0  0  0  0
 17 11  1  0  0  0  0
 18 19  1  0  0  0  0
 19 20  1  0  0  0  0
 20 17  1  0  0  0  0
 20 13  2  0  0  0  0
 22 23  1  0  0  0  0
 22 26  1  0  0  0  0
 22 28  1  1  0  0  0
 23 15  1  1  0  0  0
 24 23  1  0  0  0  0
 25 24  1  0  0  0  0
 25 26  1  0  0  0  0
 26 21  1  6  0  0  0
 27 28  1  0  0  0  0
 30 29  1  6  0  0  0
 32 31  1  1  0  0  0
 32 30  1  0  0  0  0
 33 32  1  0  0  0  0
 34 33  1  0  0  0  0
 35 34  1  6  0  0  0
 36 41  1  0  0  0  0
 36 38  1  0  0  0  0
 37 39  1  0  0  0  0
 38 40  1  0  0  0  0
 39 40  1  0  0  0  0
 39 35  1  0  0  0  0
 41 37  1  0  0  0  0
 42 35  1  0  0  0  0
 42 44  1  0  0  0  0
 43 42  2  0  0  0  0
 45 46  1  0  0  0  0
 48 47  1  0  0  0  0
 48 46  1  0  0  0  0
M  END
>  <MODEL>
9

>  <REMARK>
 VINA RESULT:      -6.5      1.927      2.593
  Name = 
  13 active torsions:
  status: ('A' for Active; 'I' for Inactive)
    1  A    between atoms: C_5  and  C_14
    2  A    between atoms: C_7  and  C_10
    3  A    between atoms: C_9  and  C_26
    4  A    between atoms: C_9  and  C_39
    5  A    between atoms: N_13  and  C_40
    6  A    between atoms: C_17  and  C_32
    7  A    between atoms: N_19  and  C_30
    8  A    between atoms: C_26  and  C_27
    9  A    between atoms: C_30  and  C_36
   10  A    between atoms: C_32  and  C_34
   11  A    between atoms: C_32  and  N_42
   12  A    between atoms: C_34  and  C_43
   13  A    between atoms: C_36  and  C_43
                            x       y       z     vdW  Elec       q    Type
                         _______ _______ _______ _____ _____    ______ ____

>  <TORSDO>
F 13

$$$$
