=
 OpenBabel10232408083D

 38 42  0  0  1  0  0  0  0  0999 V2000
  190.3940  175.3600  138.5930 C   0  0  0  0  0  3  0  0  0  0  0  0
  189.0730  178.0090  139.0800 C   0  0  0  0  0  0  0  0  0  0  0  0
  187.2270  177.5680  143.1580 C   0  0  2  0  0  3  0  0  0  0  0  0
  188.6930  177.2210  143.5700 C   0  0  1  0  0  3  0  0  0  0  0  0
  188.2800  178.6170  141.1820 C   0  0  1  0  0  3  0  0  0  0  0  0
  189.5880  176.9960  135.4520 N   0  0  0  0  0  1  0  0  0  0  0  0
  188.1470  178.7890  139.7720 O   0  0  0  0  0  0  0  0  0  0  0  0
  187.0400  178.0900  141.7650 N   0  0  0  0  0  0  0  0  0  0  0  0
  189.2010  178.0290  137.6050 C   0  0  0  0  0  0  0  0  0  0  0  0
  189.5800  176.9360  136.8750 C   0  0  0  0  0  0  0  0  0  0  0  0
  190.9230  176.4010  139.5140 C   0  0  0  0  0  2  0  0  0  0  0  0
  189.5280  176.8620  142.3700 C   0  0  0  0  0  0  0  0  0  0  0  0
  189.3360  177.5740  141.2600 C   0  0  0  0  0  0  0  0  0  0  0  0
  189.8130  177.3000  139.9140 C   0  0  0  0  0  0  0  0  0  0  0  0
  189.8330  175.6390  137.4540 N   0  0  0  0  0  0  0  0  0  0  0  0
  186.5680  178.3300  144.1360 O   0  0  0  0  0  1  0  0  0  0  0  0
  189.3560  178.3370  144.3280 C   0  0  0  0  0  3  0  0  0  0  0  0
  189.6010  178.3050  145.6050 N   0  0  0  0  0  0  0  0  0  0  0  0
  189.3430  177.2160  146.5050 C   0  0  0  0  0  0  0  0  0  0  0  0
  190.2540  176.4030  146.8270 O   0  0  0  0  0  0  0  0  0  0  0  0
  187.4810  178.4480  147.5730 C   0  0  0  0  0  2  0  0  0  0  0  0
  188.0640  177.4910  148.5880 C   0  0  0  0  0  2  0  0  0  0  0  0
  187.9890  177.0880  147.1260 C   0  0  0  0  0  3  0  0  0  0  0  0
  190.4550  175.8170  142.4010 O   0  0  0  0  0  0  0  0  0  0  0  0
  191.4070  175.6840  143.4470 C   0  0  0  0  0  1  0  0  0  0  0  0
  187.6250  179.6300  136.4800 C   0  0  0  0  0  2  0  0  0  0  0  0
  188.8120  179.3290  136.9970 C   0  0  0  0  0  3  0  0  0  0  0  0
  186.0330  179.1500  141.7040 C   0  0  0  0  0  2  0  0  0  0  0  0
  181.8350  179.0250  140.4690 C   0  0  0  0  0  2  0  0  0  0  0  0
  182.3190  178.3500  141.7470 C   0  0  1  0  0  3  0  0  0  0  0  0
  184.7070  178.5960  141.2050 C   0  0  1  0  0  3  0  0  0  0  0  0
  183.6260  178.9630  142.2060 C   0  0  0  0  0  2  0  0  0  0  0  0
  184.4020  179.1190  139.7890 C   0  0  1  0  0  3  0  0  0  0  0  0
  185.0680  178.2170  138.7630 C   0  0  0  0  0  1  0  0  0  0  0  0
  182.6100  179.6660  138.3560 O   0  0  0  0  0  0  0  0  0  0  0  0
  182.9300  179.2680  139.4630 C   0  0  0  0  0  0  0  0  0  0  0  0
  181.3070  178.5090  142.7920 C   0  0  0  0  0  0  0  0  0  0  0  0
  180.5060  178.6340  143.6190 N   0  0  0  0  0  0  0  0  0  0  0  0
  1 11  1  0  0  0  0
  2  7  1  0  0  0  0
  2 14  2  0  0  0  0
  3  4  1  0  0  0  0
  3 16  1  1  0  0  0
  4 17  1  6  0  0  0
  5  7  1  6  0  0  0
  5 13  1  0  0  0  0
  5  8  1  0  0  0  0
  6 10  1  0  0  0  0
  8  3  1  0  0  0  0
  9  2  1  0  0  0  0
 10 15  1  0  0  0  0
 10  9  2  0  0  0  0
 11 14  1  0  0  0  0
 12 24  1  0  0  0  0
 12  4  1  0  0  0  0
 13 12  2  0  0  0  0
 14 13  1  0  0  0  0
 15  1  2  0  0  0  0
 17 18  2  0  0  0  0
 18 19  1  0  0  0  0
 19 20  2  0  0  0  0
 19 23  1  0  0  0  0
 21 22  1  0  0  0  0
 23 21  1  0  0  0  0
 23 22  1  0  0  0  0
 24 25  1  0  0  0  0
 26 27  2  0  0  0  0
 27  9  1  0  0  0  0
 28  8  1  0  0  0  0
 29 30  1  0  0  0  0
 30 32  1  0  0  0  0
 30 37  1  1  0  0  0
 31 28  1  1  0  0  0
 31 32  1  0  0  0  0
 33 34  1  6  0  0  0
 33 31  1  0  0  0  0
 35 36  2  0  0  0  0
 36 33  1  0  0  0  0
 36 29  1  0  0  0  0
 37 38  3  0  0  0  0
M  END
>  <MODEL>
1

>  <REMARK>
 VINA RESULT:      -8.0      0.000      0.000
  Name = 
  8 active torsions:
  status: ('A' for Active; 'I' for Inactive)
    1  A    between atoms: C_1  and  C_13
    2  A    between atoms: C_3  and  N_20
    3  A    between atoms: C_3  and  C_37
    4  A    between atoms: O_6  and  C_33
    5  A    between atoms: C_7  and  C_12
    6  A    between atoms: C_16  and  C_32
    7  A    between atoms: C_22  and  C_27
    8  A    between atoms: N_23  and  C_32
                            x       y       z     vdW  Elec       q    Type
                         _______ _______ _______ _____ _____    ______ ____

>  <TORSDO>
F 8

$$$$
=
 OpenBabel10232408083D

 38 42  0  0  1  0  0  0  0  0999 V2000
  185.8090  175.3510  136.7170 C   0  0  0  0  0  3  0  0  0  0  0  0
  186.4980  177.7690  138.3530 C   0  0  0  0  0  0  0  0  0  0  0  0
  190.2620  176.5800  140.5110 C   0  0  2  0  0  3  0  0  0  0  0  0
  190.7780  176.3160  139.0610 C   0  0  1  0  0  3  0  0  0  0  0  0
  188.5660  177.9940  139.3990 C   0  0  1  0  0  3  0  0  0  0  0  0
  182.8450  177.3360  137.3990 N   0  0  0  0  0  1  0  0  0  0  0  0
  187.1850  178.3520  139.4180 O   0  0  0  0  0  0  0  0  0  0  0  0
  188.9390  177.2760  140.6230 N   0  0  0  0  0  0  0  0  0  0  0  0
  185.0620  178.0110  138.0920 C   0  0  0  0  0  0  0  0  0  0  0  0
  184.2380  177.0730  137.5320 C   0  0  0  0  0  0  0  0  0  0  0  0
  186.9110  176.2950  136.3900 C   0  0  0  0  0  2  0  0  0  0  0  0
  189.6370  176.2120  138.0850 C   0  0  0  0  0  0  0  0  0  0  0  0
  188.6180  177.0530  138.2480 C   0  0  0  0  0  0  0  0  0  0  0  0
  187.3060  177.0200  137.6220 C   0  0  0  0  0  0  0  0  0  0  0  0
  184.6640  175.7360  137.1960 N   0  0  0  0  0  0  0  0  0  0  0  0
  191.2560  177.1310  141.3360 O   0  0  0  0  0  1  0  0  0  0  0  0
  191.7440  177.3700  138.5940 C   0  0  0  0  0  3  0  0  0  0  0  0
  192.9430  177.1160  138.1570 N   0  0  0  0  0  0  0  0  0  0  0  0
  193.5430  175.8220  137.9900 C   0  0  0  0  0  0  0  0  0  0  0  0
  194.4090  175.3930  138.8030 O   0  0  0  0  0  0  0  0  0  0  0  0
  194.1110  174.9140  135.7590 C   0  0  0  0  0  2  0  0  0  0  0  0
  192.8770  175.7760  135.6220 C   0  0  0  0  0  2  0  0  0  0  0  0
  193.0800  174.9410  136.8750 C   0  0  0  0  0  3  0  0  0  0  0  0
  189.6280  175.2630  137.0580 O   0  0  0  0  0  0  0  0  0  0  0  0
  189.6680  173.8680  137.3210 C   0  0  0  0  0  1  0  0  0  0  0  0
  183.8780  179.5830  139.6540 C   0  0  0  0  0  2  0  0  0  0  0  0
  184.5940  179.3420  138.5590 C   0  0  0  0  0  3  0  0  0  0  0  0
  188.9120  178.2350  141.7280 C   0  0  0  0  0  2  0  0  0  0  0  0
  187.2510  177.8880  145.7630 C   0  0  0  0  0  2  0  0  0  0  0  0
  188.4310  177.0410  145.3030 C   0  0  1  0  0  3  0  0  0  0  0  0
  188.1890  177.6440  142.9280 C   0  0  1  0  0  3  0  0  0  0  0  0
  189.1240  177.6960  144.1240 C   0  0  0  0  0  2  0  0  0  0  0  0
  186.8650  178.3890  143.1820 C   0  0  1  0  0  3  0  0  0  0  0  0
  185.7690  177.7750  142.3270 C   0  0  0  0  0  1  0  0  0  0  0  0
  185.3770  178.9970  144.9080 O   0  0  0  0  0  0  0  0  0  0  0  0
  186.4220  178.4350  144.6310 C   0  0  0  0  0  0  0  0  0  0  0  0
  189.3790  176.8870  146.4070 C   0  0  0  0  0  0  0  0  0  0  0  0
  190.1290  176.7660  147.2810 N   0  0  0  0  0  0  0  0  0  0  0  0
  1 15  2  0  0  0  0
  2  7  1  0  0  0  0
  3  8  1  0  0  0  0
  3 16  1  1  0  0  0
  4 17  1  6  0  0  0
  4  3  1  0  0  0  0
  5 13  1  6  0  0  0
  5  7  1  0  0  0  0
  5  8  1  0  0  0  0
  6 10  1  0  0  0  0
  8 28  1  0  0  0  0
  9  2  1  0  0  0  0
  9 27  1  0  0  0  0
 10  9  2  0  0  0  0
 11  1  1  0  0  0  0
 11 14  1  0  0  0  0
 12 13  2  0  0  0  0
 12  4  1  0  0  0  0
 14 13  1  0  0  0  0
 14  2  2  0  0  0  0
 15 10  1  0  0  0  0
 18 17  2  0  0  0  0
 19 18  1  0  0  0  0
 19 20  2  0  0  0  0
 21 23  1  0  0  0  0
 22 21  1  0  0  0  0
 22 23  1  0  0  0  0
 23 19  1  0  0  0  0
 24 25  1  0  0  0  0
 24 12  1  0  0  0  0
 27 26  2  0  0  0  0
 30 29  1  0  0  0  0
 30 37  1  1  0  0  0
 31 28  1  6  0  0  0
 31 33  1  0  0  0  0
 31 32  1  0  0  0  0
 32 30  1  0  0  0  0
 33 34  1  6  0  0  0
 33 36  1  0  0  0  0
 36 35  2  0  0  0  0
 36 29  1  0  0  0  0
 37 38  3  0  0  0  0
M  END
>  <MODEL>
2

>  <REMARK>
 VINA RESULT:      -7.2      2.621      6.717
  Name = 
  8 active torsions:
  status: ('A' for Active; 'I' for Inactive)
    1  A    between atoms: C_1  and  C_13
    2  A    between atoms: C_3  and  N_20
    3  A    between atoms: C_3  and  C_37
    4  A    between atoms: O_6  and  C_33
    5  A    between atoms: C_7  and  C_12
    6  A    between atoms: C_16  and  C_32
    7  A    between atoms: C_22  and  C_27
    8  A    between atoms: N_23  and  C_32
                            x       y       z     vdW  Elec       q    Type
                         _______ _______ _______ _____ _____    ______ ____

>  <TORSDO>
F 8

$$$$
=
 OpenBabel10232408083D

 38 42  0  0  1  0  0  0  0  0999 V2000
  186.1260  173.0630  137.4120 C   0  0  0  0  0  3  0  0  0  0  0  0
  186.5020  176.0390  137.3960 C   0  0  0  0  0  0  0  0  0  0  0  0
  190.4920  176.6380  139.3850 C   0  0  2  0  0  3  0  0  0  0  0  0
  190.9810  175.6780  138.2540 C   0  0  1  0  0  3  0  0  0  0  0  0
  188.5520  177.0200  137.9000 C   0  0  1  0  0  3  0  0  0  0  0  0
  182.9220  174.7690  137.2710 N   0  0  0  0  0  1  0  0  0  0  0  0
  187.1350  177.1800  137.8900 O   0  0  0  0  0  0  0  0  0  0  0  0
  189.0840  177.1360  139.2630 N   0  0  0  0  0  0  0  0  0  0  0  0
  185.0350  175.9440  137.2210 C   0  0  0  0  0  0  0  0  0  0  0  0
  184.3440  174.7720  137.3560 C   0  0  0  0  0  0  0  0  0  0  0  0
  187.0530  173.7840  136.4990 C   0  0  0  0  0  2  0  0  0  0  0  0
  189.8290  174.9350  137.6320 C   0  0  0  0  0  0  0  0  0  0  0  0
  188.7000  175.6140  137.4380 C   0  0  0  0  0  0  0  0  0  0  0  0
  187.3840  175.1030  137.0910 C   0  0  0  0  0  0  0  0  0  0  0  0
  184.9560  173.5240  137.7430 N   0  0  0  0  0  0  0  0  0  0  0  0
  191.4240  177.6530  139.6580 O   0  0  0  0  0  1  0  0  0  0  0  0
  191.7510  176.3990  137.1820 C   0  0  0  0  0  3  0  0  0  0  0  0
  193.0290  176.2560  136.9840 N   0  0  0  0  0  0  0  0  0  0  0  0
  193.9180  175.3770  137.6900 C   0  0  0  0  0  0  0  0  0  0  0  0
  194.4900  175.7410  138.7550 O   0  0  0  0  0  0  0  0  0  0  0  0
  195.4750  173.8380  136.5350 C   0  0  0  0  0  2  0  0  0  0  0  0
  194.2400  173.9990  135.6770 C   0  0  0  0  0  2  0  0  0  0  0  0
  194.1120  173.9810  137.1910 C   0  0  0  0  0  3  0  0  0  0  0  0
  189.9240  173.5840  137.2850 O   0  0  0  0  0  0  0  0  0  0  0  0
  190.6170  173.1500  136.1240 C   0  0  0  0  0  1  0  0  0  0  0  0
  183.9070  178.0950  137.8640 C   0  0  0  0  0  2  0  0  0  0  0  0
  184.3870  177.2550  136.9520 C   0  0  0  0  0  3  0  0  0  0  0  0
  188.9560  178.5350  139.6730 C   0  0  0  0  0  2  0  0  0  0  0  0
  186.3310  177.4850  143.0160 C   0  0  0  0  0  2  0  0  0  0  0  0
  186.0250  178.6550  142.0880 C   0  0  1  0  0  3  0  0  0  0  0  0
  188.2380  178.6330  141.0110 C   0  0  1  0  0  3  0  0  0  0  0  0
  186.7470  178.4840  140.7670 C   0  0  0  0  0  2  0  0  0  0  0  0
  188.7820  177.5810  141.9960 C   0  0  1  0  0  3  0  0  0  0  0  0
  190.0040  178.1400  142.7070 C   0  0  0  0  0  1  0  0  0  0  0  0
  188.1430  176.2510  143.8350 O   0  0  0  0  0  0  0  0  0  0  0  0
  187.7810  177.0770  143.0140 C   0  0  0  0  0  0  0  0  0  0  0  0
  184.5810  178.7240  141.8560 C   0  0  0  0  0  0  0  0  0  0  0  0
  183.4400  178.7790  141.6710 N   0  0  0  0  0  0  0  0  0  0  0  0
  1 15  2  0  0  0  0
  2  7  1  0  0  0  0
  3 16  1  6  0  0  0
  4 17  1  6  0  0  0
  4  3  1  0  0  0  0
  5 13  1  1  0  0  0
  5  8  1  0  0  0  0
  6 10  1  0  0  0  0
  7  5  1  0  0  0  0
  8  3  1  0  0  0  0
  8 28  1  0  0  0  0
  9 10  2  0  0  0  0
  9  2  1  0  0  0  0
 10 15  1  0  0  0  0
 11 14  1  0  0  0  0
 11  1  1  0  0  0  0
 12  4  1  0  0  0  0
 13 12  2  0  0  0  0
 14  2  2  0  0  0  0
 14 13  1  0  0  0  0
 18 17  2  0  0  0  0
 18 19  1  0  0  0  0
 19 20  2  0  0  0  0
 21 23  1  0  0  0  0
 22 21  1  0  0  0  0
 22 23  1  0  0  0  0
 23 19  1  0  0  0  0
 24 12  1  0  0  0  0
 25 24  1  0  0  0  0
 27  9  1  0  0  0  0
 27 26  2  0  0  0  0
 30 37  1  6  0  0  0
 30 29  1  0  0  0  0
 31 28  1  6  0  0  0
 31 33  1  0  0  0  0
 32 31  1  0  0  0  0
 32 30  1  0  0  0  0
 33 34  1  1  0  0  0
 33 36  1  0  0  0  0
 36 29  1  0  0  0  0
 36 35  2  0  0  0  0
 38 37  3  0  0  0  0
M  END
>  <MODEL>
3

>  <REMARK>
 VINA RESULT:      -7.2      3.238      6.748
  Name = 
  8 active torsions:
  status: ('A' for Active; 'I' for Inactive)
    1  A    between atoms: C_1  and  C_13
    2  A    between atoms: C_3  and  N_20
    3  A    between atoms: C_3  and  C_37
    4  A    between atoms: O_6  and  C_33
    5  A    between atoms: C_7  and  C_12
    6  A    between atoms: C_16  and  C_32
    7  A    between atoms: C_22  and  C_27
    8  A    between atoms: N_23  and  C_32
                            x       y       z     vdW  Elec       q    Type
                         _______ _______ _______ _____ _____    ______ ____

>  <TORSDO>
F 8

$$$$
=
 OpenBabel10232408083D

 38 42  0  0  1  0  0  0  0  0999 V2000
  183.6480  175.2000  137.8790 C   0  0  0  0  0  3  0  0  0  0  0  0
  185.1550  177.7570  138.3160 C   0  0  0  0  0  0  0  0  0  0  0  0
  189.4740  176.5040  138.2040 C   0  0  2  0  0  3  0  0  0  0  0  0
  189.0720  175.9420  136.8030 C   0  0  1  0  0  3  0  0  0  0  0  0
  187.4510  177.9050  137.9610 C   0  0  1  0  0  3  0  0  0  0  0  0
  181.6060  177.6120  139.6700 N   0  0  0  0  0  1  0  0  0  0  0  0
  186.3280  178.4240  138.6720 O   0  0  0  0  0  0  0  0  0  0  0  0
  188.4520  177.3620  138.8870 N   0  0  0  0  0  0  0  0  0  0  0  0
  183.8260  178.1230  138.8560 C   0  0  0  0  0  0  0  0  0  0  0  0
  182.8270  177.2100  139.0560 C   0  0  0  0  0  0  0  0  0  0  0  0
  184.3710  175.9380  136.8090 C   0  0  0  0  0  2  0  0  0  0  0  0
  187.5770  175.8130  136.6730 C   0  0  0  0  0  0  0  0  0  0  0  0
  186.8350  176.7860  137.1990 C   0  0  0  0  0  0  0  0  0  0  0  0
  185.4000  176.8060  137.4320 C   0  0  0  0  0  0  0  0  0  0  0  0
  182.9810  175.7950  138.8240 N   0  0  0  0  0  0  0  0  0  0  0  0
  190.7630  177.0620  138.2010 O   0  0  0  0  0  1  0  0  0  0  0  0
  189.6030  176.7790  135.6730 C   0  0  0  0  0  3  0  0  0  0  0  0
  190.4460  176.3480  134.7810 N   0  0  0  0  0  0  0  0  0  0  0  0
  190.9790  175.0190  134.6700 C   0  0  0  0  0  0  0  0  0  0  0  0
  190.2440  174.0440  134.3460 O   0  0  0  0  0  0  0  0  0  0  0  0
  192.7400  174.5180  136.3350 C   0  0  0  0  0  2  0  0  0  0  0  0
  192.9990  175.8950  135.7670 C   0  0  0  0  0  2  0  0  0  0  0  0
  192.4440  174.8010  134.8720 C   0  0  0  0  0  3  0  0  0  0  0  0
  186.9830  174.7150  136.0470 O   0  0  0  0  0  0  0  0  0  0  0  0
  187.2870  173.3780  136.4190 C   0  0  0  0  0  1  0  0  0  0  0  0
  182.8250  180.4240  138.7340 C   0  0  0  0  0  2  0  0  0  0  0  0
  183.7120  179.5590  139.2200 C   0  0  0  0  0  3  0  0  0  0  0  0
  189.0620  178.4880  139.5940 C   0  0  0  0  0  2  0  0  0  0  0  0
  188.2620  176.5580  143.4410 C   0  0  0  0  0  2  0  0  0  0  0  0
  187.6650  177.9130  143.0800 C   0  0  1  0  0  3  0  0  0  0  0  0
  189.0830  178.2280  141.0930 C   0  0  1  0  0  3  0  0  0  0  0  0
  187.6490  178.1000  141.5760 C   0  0  0  0  0  2  0  0  0  0  0  0
  189.9270  176.9800  141.4130 C   0  0  1  0  0  3  0  0  0  0  0  0
  191.3870  177.3790  141.5480 C   0  0  0  0  0  1  0  0  0  0  0  0
  190.1170  175.2130  142.9630 O   0  0  0  0  0  0  0  0  0  0  0  0
  189.4890  176.2070  142.6400 C   0  0  0  0  0  0  0  0  0  0  0  0
  186.3000  177.9950  143.6010 C   0  0  0  0  0  0  0  0  0  0  0  0
  185.2200  178.0600  144.0140 N   0  0  0  0  0  0  0  0  0  0  0  0
  1 15  2  0  0  0  0
  2  7  1  0  0  0  0
  2  9  1  0  0  0  0
  3 16  1  6  0  0  0
  3  8  1  0  0  0  0
  4 17  1  6  0  0  0
  4  3  1  0  0  0  0
  5 13  1  6  0  0  0
  5  7  1  0  0  0  0
  5  8  1  0  0  0  0
  8 28  1  0  0  0  0
  9 10  2  0  0  0  0
  9 27  1  0  0  0  0
 10  6  1  0  0  0  0
 11 14  1  0  0  0  0
 11  1  1  0  0  0  0
 12  4  1  0  0  0  0
 12 13  2  0  0  0  0
 13 14  1  0  0  0  0
 14  2  2  0  0  0  0
 15 10  1  0  0  0  0
 18 17  2  0  0  0  0
 19 18  1  0  0  0  0
 19 23  1  0  0  0  0
 20 19  2  0  0  0  0
 22 21  1  0  0  0  0
 23 22  1  0  0  0  0
 23 21  1  0  0  0  0
 24 25  1  0  0  0  0
 24 12  1  0  0  0  0
 26 27  2  0  0  0  0
 30 29  1  0  0  0  0
 30 37  1  6  0  0  0
 31 28  1  6  0  0  0
 31 33  1  0  0  0  0
 31 32  1  0  0  0  0
 32 30  1  0  0  0  0
 33 34  1  1  0  0  0
 33 36  1  0  0  0  0
 36 35  2  0  0  0  0
 36 29  1  0  0  0  0
 37 38  3  0  0  0  0
M  END
>  <MODEL>
4

>  <REMARK>
 VINA RESULT:      -7.1      2.839      7.663
  Name = 
  8 active torsions:
  status: ('A' for Active; 'I' for Inactive)
    1  A    between atoms: C_1  and  C_13
    2  A    between atoms: C_3  and  N_20
    3  A    between atoms: C_3  and  C_37
    4  A    between atoms: O_6  and  C_33
    5  A    between atoms: C_7  and  C_12
    6  A    between atoms: C_16  and  C_32
    7  A    between atoms: C_22  and  C_27
    8  A    between atoms: N_23  and  C_32
                            x       y       z     vdW  Elec       q    Type
                         _______ _______ _______ _____ _____    ______ ____

>  <TORSDO>
F 8

$$$$
=
 OpenBabel10232408083D

 38 42  0  0  1  0  0  0  0  0999 V2000
  182.8720  176.1270  137.0000 C   0  0  0  0  0  3  0  0  0  0  0  0
  183.7510  178.5150  138.5900 C   0  0  0  0  0  0  0  0  0  0  0  0
  187.8560  177.3940  140.0490 C   0  0  2  0  0  3  0  0  0  0  0  0
  188.1310  177.1960  138.5240 C   0  0  1  0  0  3  0  0  0  0  0  0
  185.9560  178.7810  139.2870 C   0  0  1  0  0  3  0  0  0  0  0  0
  180.0040  177.9810  138.2390 N   0  0  0  0  0  1  0  0  0  0  0  0
  184.5880  179.0880  139.5480 O   0  0  0  0  0  0  0  0  0  0  0  0
  186.5500  178.0380  140.4040 N   0  0  0  0  0  0  0  0  0  0  0  0
  182.2850  178.7130  138.5800 C   0  0  0  0  0  0  0  0  0  0  0  0
  181.4080  177.7640  138.1290 C   0  0  0  0  0  0  0  0  0  0  0  0
  183.8750  177.1210  136.5320 C   0  0  0  0  0  2  0  0  0  0  0  0
  186.8470  177.0820  137.7470 C   0  0  0  0  0  0  0  0  0  0  0  0
  185.8440  177.8800  138.1080 C   0  0  0  0  0  0  0  0  0  0  0  0
  184.4480  177.8190  137.7080 C   0  0  0  0  0  0  0  0  0  0  0  0
  181.8120  176.4550  137.6770 N   0  0  0  0  0  0  0  0  0  0  0  0
  188.9570  177.9540  140.7180 O   0  0  0  0  0  1  0  0  0  0  0  0
  188.9730  178.2990  137.9440 C   0  0  0  0  0  3  0  0  0  0  0  0
  190.1080  178.1060  137.3370 N   0  0  0  0  0  0  0  0  0  0  0  0
  190.7360  176.8430  137.0640 C   0  0  0  0  0  0  0  0  0  0  0  0
  190.6530  176.3030  135.9260 O   0  0  0  0  0  0  0  0  0  0  0  0
  193.0300  176.5360  137.9380 C   0  0  0  0  0  2  0  0  0  0  0  0
  192.5060  175.1900  137.4920 C   0  0  0  0  0  2  0  0  0  0  0  0
  191.5620  176.1950  138.1280 C   0  0  0  0  0  3  0  0  0  0  0  0
  186.6960  176.1670  136.7010 O   0  0  0  0  0  0  0  0  0  0  0  0
  186.5830  174.7700  136.9310 C   0  0  0  0  0  1  0  0  0  0  0  0
  181.7810  181.1730  138.5300 C   0  0  0  0  0  2  0  0  0  0  0  0
  181.8600  180.0100  139.1690 C   0  0  0  0  0  3  0  0  0  0  0  0
  186.6790  178.9590  141.5340 C   0  0  0  0  0  2  0  0  0  0  0  0
  186.1080  178.2850  145.8210 C   0  0  0  0  0  2  0  0  0  0  0  0
  187.1240  177.4910  145.0100 C   0  0  1  0  0  3  0  0  0  0  0  0
  186.2840  178.2690  142.8310 C   0  0  1  0  0  3  0  0  0  0  0  0
  187.4950  178.2420  143.7470 C   0  0  0  0  0  2  0  0  0  0  0  0
  185.0750  178.9760  143.4730 C   0  0  1  0  0  3  0  0  0  0  0  0
  183.7920  178.4150  142.8830 C   0  0  0  0  0  1  0  0  0  0  0  0
  184.0850  179.4320  145.5640 O   0  0  0  0  0  0  0  0  0  0  0  0
  185.0200  178.9060  144.9850 C   0  0  0  0  0  0  0  0  0  0  0  0
  188.3230  177.2670  145.8190 C   0  0  0  0  0  0  0  0  0  0  0  0
  189.2710  177.0890  146.4600 N   0  0  0  0  0  0  0  0  0  0  0  0
  1 15  2  0  0  0  0
  2  7  1  0  0  0  0
  3  8  1  0  0  0  0
  3 16  1  6  0  0  0
  4 17  1  6  0  0  0
  4  3  1  0  0  0  0
  5 13  1  6  0  0  0
  5  7  1  0  0  0  0
  5  8  1  0  0  0  0
  8 28  1  0  0  0  0
  9  2  1  0  0  0  0
  9 27  1  0  0  0  0
 10  6  1  0  0  0  0
 10  9  2  0  0  0  0
 11  1  1  0  0  0  0
 11 14  1  0  0  0  0
 12 13  2  0  0  0  0
 12  4  1  0  0  0  0
 14 13  1  0  0  0  0
 14  2  2  0  0  0  0
 15 10  1  0  0  0  0
 18 17  2  0  0  0  0
 19 18  1  0  0  0  0
 19 23  1  0  0  0  0
 20 19  2  0  0  0  0
 21 23  1  0  0  0  0
 22 21  1  0  0  0  0
 22 23  1  0  0  0  0
 24 25  1  0  0  0  0
 24 12  1  0  0  0  0
 26 27  2  0  0  0  0
 30 37  1  1  0  0  0
 30 29  1  0  0  0  0
 31 28  1  6  0  0  0
 31 33  1  0  0  0  0
 31 32  1  0  0  0  0
 32 30  1  0  0  0  0
 33 34  1  6  0  0  0
 33 36  1  0  0  0  0
 36 35  2  0  0  0  0
 36 29  1  0  0  0  0
 37 38  3  0  0  0  0
M  END
>  <MODEL>
5

>  <REMARK>
 VINA RESULT:      -6.8      2.578      7.007
  Name = 
  8 active torsions:
  status: ('A' for Active; 'I' for Inactive)
    1  A    between atoms: C_1  and  C_13
    2  A    between atoms: C_3  and  N_20
    3  A    between atoms: C_3  and  C_37
    4  A    between atoms: O_6  and  C_33
    5  A    between atoms: C_7  and  C_12
    6  A    between atoms: C_16  and  C_32
    7  A    between atoms: C_22  and  C_27
    8  A    between atoms: N_23  and  C_32
                            x       y       z     vdW  Elec       q    Type
                         _______ _______ _______ _____ _____    ______ ____

>  <TORSDO>
F 8

$$$$
=
 OpenBabel10232408083D

 38 42  0  0  1  0  0  0  0  0999 V2000
  189.6210  176.6220  139.5920 C   0  0  0  0  0  3  0  0  0  0  0  0
  187.3470  178.2410  138.4920 C   0  0  0  0  0  0  0  0  0  0  0  0
  184.1120  177.8080  141.5860 C   0  0  2  0  0  3  0  0  0  0  0  0
  185.2170  178.3660  142.5380 C   0  0  1  0  0  3  0  0  0  0  0  0
  185.4940  178.7920  139.7880 C   0  0  1  0  0  3  0  0  0  0  0  0
  189.8500  176.8800  135.9760 N   0  0  0  0  0  1  0  0  0  0  0  0
  185.9890  178.5590  138.4700 O   0  0  0  0  0  0  0  0  0  0  0  0
  184.4250  177.8420  140.1210 N   0  0  0  0  0  0  0  0  0  0  0  0
  188.1380  178.0040  137.2630 C   0  0  0  0  0  0  0  0  0  0  0  0
  189.1940  177.1350  137.2140 C   0  0  0  0  0  0  0  0  0  0  0  0
  189.2190  177.9580  140.1080 C   0  0  0  0  0  2  0  0  0  0  0  0
  186.5850  178.2400  141.9220 C   0  0  0  0  0  0  0  0  0  0  0  0
  186.6900  178.4900  140.6180 C   0  0  0  0  0  0  0  0  0  0  0  0
  187.8080  178.2160  139.7300 C   0  0  0  0  0  0  0  0  0  0  0  0
  189.6070  176.3170  138.3280 N   0  0  0  0  0  0  0  0  0  0  0  0
  182.8390  178.3120  141.8990 O   0  0  0  0  0  1  0  0  0  0  0  0
  184.9720  179.7980  142.9260 C   0  0  0  0  0  3  0  0  0  0  0  0
  184.7350  180.1920  144.1430 N   0  0  0  0  0  0  0  0  0  0  0  0
  184.7140  179.3770  145.3240 C   0  0  0  0  0  0  0  0  0  0  0  0
  183.6600  178.7880  145.6950 O   0  0  0  0  0  0  0  0  0  0  0  0
  186.3050  177.6810  146.1710 C   0  0  0  0  0  2  0  0  0  0  0  0
  185.6830  178.3850  147.3570 C   0  0  0  0  0  2  0  0  0  0  0  0
  185.9820  179.1630  146.0870 C   0  0  0  0  0  3  0  0  0  0  0  0
  187.7000  177.8580  142.6730 O   0  0  0  0  0  0  0  0  0  0  0  0
  187.8570  176.5390  143.1730 C   0  0  0  0  0  1  0  0  0  0  0  0
  186.8340  178.2650  135.1320 C   0  0  0  0  0  2  0  0  0  0  0  0
  187.6300  178.7480  136.0810 C   0  0  0  0  0  3  0  0  0  0  0  0
  183.2540  178.1870  139.3150 C   0  0  0  0  0  2  0  0  0  0  0  0
  182.2470  174.7450  136.8050 C   0  0  0  0  0  2  0  0  0  0  0  0
  183.6810  175.0420  137.2260 C   0  0  1  0  0  3  0  0  0  0  0  0
  183.1690  177.2890  138.0890 C   0  0  1  0  0  3  0  0  0  0  0  0
  183.6980  175.9160  138.4640 C   0  0  0  0  0  2  0  0  0  0  0  0
  181.7250  177.2400  137.5560 C   0  0  1  0  0  3  0  0  0  0  0  0
  181.4960  178.4080  136.6100 C   0  0  0  0  0  1  0  0  0  0  0  0
  180.2130  175.8340  136.4150 O   0  0  0  0  0  0  0  0  0  0  0  0
  181.3370  175.9430  136.8740 C   0  0  0  0  0  0  0  0  0  0  0  0
  184.3760  173.7840  137.5020 C   0  0  0  0  0  0  0  0  0  0  0  0
  184.9260  172.7880  137.7210 N   0  0  0  0  0  0  0  0  0  0  0  0
  1 11  1  0  0  0  0
  2 14  2  0  0  0  0
  3 16  1  6  0  0  0
  3  4  1  0  0  0  0
  4 17  1  6  0  0  0
  5  7  1  6  0  0  0
  5  8  1  0  0  0  0
  5 13  1  0  0  0  0
  6 10  1  0  0  0  0
  7  2  1  0  0  0  0
  8  3  1  0  0  0  0
  9  2  1  0  0  0  0
 10  9  2  0  0  0  0
 10 15  1  0  0  0  0
 12  4  1  0  0  0  0
 12 24  1  0  0  0  0
 13 12  2  0  0  0  0
 14 11  1  0  0  0  0
 14 13  1  0  0  0  0
 15  1  2  0  0  0  0
 17 18  2  0  0  0  0
 18 19  1  0  0  0  0
 19 20  2  0  0  0  0
 19 23  1  0  0  0  0
 21 22  1  0  0  0  0
 23 21  1  0  0  0  0
 23 22  1  0  0  0  0
 24 25  1  0  0  0  0
 26 27  2  0  0  0  0
 27  9  1  0  0  0  0
 28  8  1  0  0  0  0
 29 36  1  0  0  0  0
 29 30  1  0  0  0  0
 30 37  1  1  0  0  0
 30 32  1  0  0  0  0
 31 32  1  0  0  0  0
 31 28  1  1  0  0  0
 33 34  1  6  0  0  0
 33 31  1  0  0  0  0
 35 36  2  0  0  0  0
 36 33  1  0  0  0  0
 37 38  3  0  0  0  0
M  END
>  <MODEL>
6

>  <REMARK>
 VINA RESULT:      -6.7      2.721      4.095
  Name = 
  8 active torsions:
  status: ('A' for Active; 'I' for Inactive)
    1  A    between atoms: C_1  and  C_13
    2  A    between atoms: C_3  and  N_20
    3  A    between atoms: C_3  and  C_37
    4  A    between atoms: O_6  and  C_33
    5  A    between atoms: C_7  and  C_12
    6  A    between atoms: C_16  and  C_32
    7  A    between atoms: C_22  and  C_27
    8  A    between atoms: N_23  and  C_32
                            x       y       z     vdW  Elec       q    Type
                         _______ _______ _______ _____ _____    ______ ____

>  <TORSDO>
F 8

$$$$
=
 OpenBabel10232408083D

 38 42  0  0  1  0  0  0  0  0999 V2000
  190.5030  175.4060  138.5600 C   0  0  0  0  0  3  0  0  0  0  0  0
  189.1150  178.0370  138.9510 C   0  0  0  0  0  0  0  0  0  0  0  0
  187.0820  177.6090  142.9400 C   0  0  2  0  0  3  0  0  0  0  0  0
  188.5320  177.2920  143.4260 C   0  0  1  0  0  3  0  0  0  0  0  0
  188.2110  178.6540  141.0050 C   0  0  1  0  0  3  0  0  0  0  0  0
  189.8220  176.9930  135.3650 N   0  0  0  0  0  1  0  0  0  0  0  0
  188.1430  178.8080  139.5880 O   0  0  0  0  0  0  0  0  0  0  0  0
  186.9540  178.1120  141.5340 N   0  0  0  0  0  0  0  0  0  0  0  0
  189.3140  178.0430  137.4840 C   0  0  0  0  0  0  0  0  0  0  0  0
  189.7460  176.9490  136.7870 C   0  0  0  0  0  0  0  0  0  0  0  0
  190.9690  176.4670  139.4930 C   0  0  0  0  0  2  0  0  0  0  0  0
  189.4300  176.9350  142.2720 C   0  0  0  0  0  0  0  0  0  0  0  0
  189.2800  177.6310  141.1460 C   0  0  0  0  0  0  0  0  0  0  0  0
  189.8260  177.3500  139.8290 C   0  0  0  0  0  0  0  0  0  0  0  0
  189.9930  175.6630  137.3920 N   0  0  0  0  0  0  0  0  0  0  0  0
  186.3630  178.3700  143.8760 O   0  0  0  0  0  1  0  0  0  0  0  0
  189.1390  178.4280  144.2020 C   0  0  0  0  0  3  0  0  0  0  0  0
  189.3160  178.4170  145.4910 N   0  0  0  0  0  0  0  0  0  0  0  0
  189.0250  177.3370  146.3920 C   0  0  0  0  0  0  0  0  0  0  0  0
  189.9000  176.4750  146.6830 O   0  0  0  0  0  0  0  0  0  0  0  0
  187.4320  178.5430  147.8510 C   0  0  0  0  0  2  0  0  0  0  0  0
  187.8620  177.2780  148.5590 C   0  0  0  0  0  2  0  0  0  0  0  0
  187.6850  177.2770  147.0500 C   0  0  0  0  0  3  0  0  0  0  0  0
  190.3720  175.9060  142.3610 O   0  0  0  0  0  0  0  0  0  0  0  0
  191.4900  175.9810  143.2330 C   0  0  0  0  0  1  0  0  0  0  0  0
  187.7160  179.6700  136.4300 C   0  0  0  0  0  2  0  0  0  0  0  0
  188.9330  179.3290  136.8420 C   0  0  0  0  0  3  0  0  0  0  0  0
  185.9330  179.1530  141.4120 C   0  0  0  0  0  2  0  0  0  0  0  0
  183.6330  176.7280  138.5860 C   0  0  0  0  0  2  0  0  0  0  0  0
  184.6810  177.7310  138.1190 C   0  0  1  0  0  3  0  0  0  0  0  0
  184.9310  178.7910  140.3260 C   0  0  1  0  0  3  0  0  0  0  0  0
  185.6610  178.0280  139.2350 C   0  0  0  0  0  2  0  0  0  0  0  0
  183.7560  177.9920  140.9190 C   0  0  1  0  0  3  0  0  0  0  0  0
  182.7060  178.9560  141.4480 C   0  0  0  0  0  1  0  0  0  0  0  0
  182.1670  176.3390  140.3680 O   0  0  0  0  0  0  0  0  0  0  0  0
  183.1120  177.0000  139.9730 C   0  0  0  0  0  0  0  0  0  0  0  0
  185.3980  177.1820  136.9670 C   0  0  0  0  0  0  0  0  0  0  0  0
  185.9650  176.7480  136.0550 N   0  0  0  0  0  0  0  0  0  0  0  0
  1 11  1  0  0  0  0
  2  7  1  0  0  0  0
  2 14  2  0  0  0  0
  3  4  1  0  0  0  0
  3 16  1  1  0  0  0
  4 17  1  6  0  0  0
  5  7  1  6  0  0  0
  5 13  1  0  0  0  0
  5  8  1  0  0  0  0
  6 10  1  0  0  0  0
  8  3  1  0  0  0  0
  9  2  1  0  0  0  0
 10 15  1  0  0  0  0
 10  9  2  0  0  0  0
 11 14  1  0  0  0  0
 12 24  1  0  0  0  0
 12  4  1  0  0  0  0
 13 12  2  0  0  0  0
 14 13  1  0  0  0  0
 15  1  2  0  0  0  0
 17 18  2  0  0  0  0
 18 19  1  0  0  0  0
 19 20  2  0  0  0  0
 19 23  1  0  0  0  0
 21 22  1  0  0  0  0
 23 21  1  0  0  0  0
 23 22  1  0  0  0  0
 24 25  1  0  0  0  0
 26 27  2  0  0  0  0
 27  9  1  0  0  0  0
 28  8  1  0  0  0  0
 29 36  1  0  0  0  0
 30 37  1  6  0  0  0
 30 29  1  0  0  0  0
 30 32  1  0  0  0  0
 31 33  1  0  0  0  0
 31 28  1  1  0  0  0
 32 31  1  0  0  0  0
 33 34  1  6  0  0  0
 36 35  2  0  0  0  0
 36 33  1  0  0  0  0
 38 37  3  0  0  0  0
M  END
>  <MODEL>
7

>  <REMARK>
 VINA RESULT:      -6.5      1.425      2.447
  Name = 
  8 active torsions:
  status: ('A' for Active; 'I' for Inactive)
    1  A    between atoms: C_1  and  C_13
    2  A    between atoms: C_3  and  N_20
    3  A    between atoms: C_3  and  C_37
    4  A    between atoms: O_6  and  C_33
    5  A    between atoms: C_7  and  C_12
    6  A    between atoms: C_16  and  C_32
    7  A    between atoms: C_22  and  C_27
    8  A    between atoms: N_23  and  C_32
                            x       y       z     vdW  Elec       q    Type
                         _______ _______ _______ _____ _____    ______ ____

>  <TORSDO>
F 8

$$$$
=
 OpenBabel10232408083D

 38 42  0  0  1  0  0  0  0  0999 V2000
  188.4640  177.2990  142.0250 C   0  0  0  0  0  3  0  0  0  0  0  0
  187.4980  178.2840  139.3610 C   0  0  0  0  0  0  0  0  0  0  0  0
  183.1410  177.1700  139.3080 C   0  0  2  0  0  3  0  0  0  0  0  0
  183.1110  178.0080  140.6250 C   0  0  1  0  0  3  0  0  0  0  0  0
  185.2310  178.4060  138.8460 C   0  0  1  0  0  3  0  0  0  0  0  0
  191.2060  177.4980  139.6500 N   0  0  0  0  0  1  0  0  0  0  0  0
  186.5550  178.2620  138.3330 O   0  0  0  0  0  0  0  0  0  0  0  0
  184.4100  177.2360  138.5140 N   0  0  0  0  0  0  0  0  0  0  0  0
  188.9560  178.2100  139.1170 C   0  0  0  0  0  0  0  0  0  0  0  0
  189.8290  177.6230  139.9920 C   0  0  0  0  0  0  0  0  0  0  0  0
  187.6240  178.5120  141.8360 C   0  0  0  0  0  2  0  0  0  0  0  0
  184.4960  178.1990  141.1840 C   0  0  0  0  0  0  0  0  0  0  0  0
  185.4770  178.4280  140.3120 C   0  0  0  0  0  0  0  0  0  0  0  0
  186.9120  178.4090  140.5390 C   0  0  0  0  0  0  0  0  0  0  0  0
  189.4170  176.9620  141.2070 N   0  0  0  0  0  0  0  0  0  0  0  0
  181.9850  177.3580  138.5330 O   0  0  0  0  0  1  0  0  0  0  0  0
  182.4550  179.3480  140.4390 C   0  0  0  0  0  3  0  0  0  0  0  0
  181.2860  179.6590  140.9180 N   0  0  0  0  0  0  0  0  0  0  0  0
  180.4420  178.8340  141.7350 C   0  0  0  0  0  0  0  0  0  0  0  0
  179.9870  177.7360  141.3070 O   0  0  0  0  0  0  0  0  0  0  0  0
  181.2760  178.7940  144.0650 C   0  0  0  0  0  2  0  0  0  0  0  0
  179.9820  178.0130  144.0090 C   0  0  0  0  0  2  0  0  0  0  0  0
  180.1570  179.2490  143.1430 C   0  0  0  0  0  3  0  0  0  0  0  0
  184.7560  178.1220  142.5550 O   0  0  0  0  0  0  0  0  0  0  0  0
  184.7380  179.2700  143.3910 C   0  0  0  0  0  1  0  0  0  0  0  0
  189.2190  178.1870  136.6190 C   0  0  0  0  0  2  0  0  0  0  0  0
  189.3640  178.7730  137.8030 C   0  0  0  0  0  3  0  0  0  0  0  0
  184.1590  177.2620  137.0730 C   0  0  0  0  0  2  0  0  0  0  0  0
  186.4860  173.6160  136.4000 C   0  0  0  0  0  2  0  0  0  0  0  0
  186.5880  174.8190  135.4700 C   0  0  1  0  0  3  0  0  0  0  0  0
  184.6330  175.9690  136.4260 C   0  0  1  0  0  3  0  0  0  0  0  0
  186.1280  176.0760  136.1810 C   0  0  0  0  0  2  0  0  0  0  0  0
  184.2640  174.7590  137.3040 C   0  0  1  0  0  3  0  0  0  0  0  0
  182.8520  174.3060  136.9730 C   0  0  0  0  0  1  0  0  0  0  0  0
  184.9830  172.5840  137.8670 O   0  0  0  0  0  0  0  0  0  0  0  0
  185.2160  173.5840  137.2090 C   0  0  0  0  0  0  0  0  0  0  0  0
  187.9760  174.9800  135.0350 C   0  0  0  0  0  0  0  0  0  0  0  0
  189.0740  175.1070  134.6910 N   0  0  0  0  0  0  0  0  0  0  0  0
  2 14  2  0  0  0  0
  3 16  1  6  0  0  0
  3  4  1  0  0  0  0
  4 17  1  6  0  0  0
  4 12  1  0  0  0  0
  5  7  1  6  0  0  0
  5 13  1  0  0  0  0
  6 10  1  0  0  0  0
  7  2  1  0  0  0  0
  8  5  1  0  0  0  0
  8  3  1  0  0  0  0
  9  2  1  0  0  0  0
  9 10  2  0  0  0  0
 10 15  1  0  0  0  0
 11  1  1  0  0  0  0
 12 24  1  0  0  0  0
 13 14  1  0  0  0  0
 13 12  2  0  0  0  0
 14 11  1  0  0  0  0
 15  1  2  0  0  0  0
 17 18  2  0  0  0  0
 18 19  1  0  0  0  0
 19 23  1  0  0  0  0
 20 19  2  0  0  0  0
 22 21  1  0  0  0  0
 23 22  1  0  0  0  0
 23 21  1  0  0  0  0
 24 25  1  0  0  0  0
 26 27  2  0  0  0  0
 27  9  1  0  0  0  0
 28  8  1  0  0  0  0
 29 36  1  0  0  0  0
 30 37  1  1  0  0  0
 30 32  1  0  0  0  0
 30 29  1  0  0  0  0
 31 28  1  1  0  0  0
 31 33  1  0  0  0  0
 32 31  1  0  0  0  0
 33 34  1  6  0  0  0
 36 33  1  0  0  0  0
 36 35  2  0  0  0  0
 38 37  3  0  0  0  0
M  END
>  <MODEL>
8

>  <REMARK>
 VINA RESULT:      -6.4      2.950      6.701
  Name = 
  8 active torsions:
  status: ('A' for Active; 'I' for Inactive)
    1  A    between atoms: C_1  and  C_13
    2  A    between atoms: C_3  and  N_20
    3  A    between atoms: C_3  and  C_37
    4  A    between atoms: O_6  and  C_33
    5  A    between atoms: C_7  and  C_12
    6  A    between atoms: C_16  and  C_32
    7  A    between atoms: C_22  and  C_27
    8  A    between atoms: N_23  and  C_32
                            x       y       z     vdW  Elec       q    Type
                         _______ _______ _______ _____ _____    ______ ____

>  <TORSDO>
F 8

$$$$
=
 OpenBabel10232408083D

 38 42  0  0  1  0  0  0  0  0999 V2000
  187.4020  177.2180  143.0590 C   0  0  0  0  0  3  0  0  0  0  0  0
  187.9570  177.9300  140.1980 C   0  0  0  0  0  0  0  0  0  0  0  0
  183.9010  177.8520  138.2560 C   0  0  2  0  0  3  0  0  0  0  0  0
  183.5600  178.8860  139.3750 C   0  0  1  0  0  3  0  0  0  0  0  0
  186.2480  178.4790  138.7170 C   0  0  1  0  0  3  0  0  0  0  0  0
  190.8190  176.3760  142.1580 N   0  0  0  0  0  1  0  0  0  0  0  0
  187.5650  177.9500  138.8600 O   0  0  0  0  0  0  0  0  0  0  0  0
  185.3480  177.4890  138.1120 N   0  0  0  0  0  0  0  0  0  0  0  0
  189.2980  177.4830  140.6380 C   0  0  0  0  0  0  0  0  0  0  0  0
  189.5220  176.8690  141.8400 C   0  0  0  0  0  0  0  0  0  0  0  0
  187.0960  178.5400  142.4530 C   0  0  0  0  0  2  0  0  0  0  0  0
  184.5770  178.8470  140.4840 C   0  0  0  0  0  0  0  0  0  0  0  0
  185.8530  178.6930  140.1350 C   0  0  0  0  0  0  0  0  0  0  0  0
  186.9940  178.3840  140.9810 C   0  0  0  0  0  0  0  0  0  0  0  0
  188.4730  176.5370  142.7730 N   0  0  0  0  0  0  0  0  0  0  0  0
  183.2790  178.1660  137.0360 O   0  0  0  0  0  1  0  0  0  0  0  0
  183.4470  180.2890  138.8460 C   0  0  0  0  0  3  0  0  0  0  0  0
  182.3170  180.8970  138.6310 N   0  0  0  0  0  0  0  0  0  0  0  0
  181.0010  180.3880  138.8930 C   0  0  0  0  0  0  0  0  0  0  0  0
  180.6700  179.9920  140.0450 O   0  0  0  0  0  0  0  0  0  0  0  0
  180.0980  179.1320  136.9610 C   0  0  0  0  0  2  0  0  0  0  0  0
  180.6900  180.4270  136.4530 C   0  0  0  0  0  2  0  0  0  0  0  0
  179.9840  180.3950  137.7970 C   0  0  0  0  0  3  0  0  0  0  0  0
  184.2080  178.9470  141.8280 O   0  0  0  0  0  0  0  0  0  0  0  0
  182.8620  178.7880  142.2550 C   0  0  0  0  0  1  0  0  0  0  0  0
  190.7890  176.8190  138.7280 C   0  0  0  0  0  2  0  0  0  0  0  0
  190.3570  177.7060  139.6190 C   0  0  0  0  0  3  0  0  0  0  0  0
  185.7400  177.3270  136.7120 C   0  0  0  0  0  2  0  0  0  0  0  0
  186.7810  173.1230  137.3490 C   0  0  0  0  0  2  0  0  0  0  0  0
  187.7120  174.0800  136.6150 C   0  0  1  0  0  3  0  0  0  0  0  0
  186.0290  175.8650  136.4060 C   0  0  1  0  0  3  0  0  0  0  0  0
  187.3900  175.5150  136.9820 C   0  0  0  0  0  2  0  0  0  0  0  0
  184.9070  174.9650  136.9570 C   0  0  1  0  0  3  0  0  0  0  0  0
  183.7880  174.8700  135.9330 C   0  0  0  0  0  1  0  0  0  0  0  0
  184.5090  172.8010  137.8060 O   0  0  0  0  0  0  0  0  0  0  0  0
  185.3450  173.5750  137.3710 C   0  0  0  0  0  0  0  0  0  0  0  0
  189.0990  173.7790  136.9730 C   0  0  0  0  0  0  0  0  0  0  0  0
  190.1960  173.5410  137.2560 N   0  0  0  0  0  0  0  0  0  0  0  0
  2  9  1  0  0  0  0
  2 14  2  0  0  0  0
  3 16  1  6  0  0  0
  3  4  1  0  0  0  0
  4 17  1  6  0  0  0
  4 12  1  0  0  0  0
  5  7  1  1  0  0  0
  5 13  1  0  0  0  0
  7  2  1  0  0  0  0
  8  3  1  0  0  0  0
  8  5  1  0  0  0  0
  9 10  2  0  0  0  0
 10  6  1  0  0  0  0
 10 15  1  0  0  0  0
 11  1  1  0  0  0  0
 12 24  1  0  0  0  0
 13 12  2  0  0  0  0
 13 14  1  0  0  0  0
 14 11  1  0  0  0  0
 15  1  2  0  0  0  0
 18 17  2  0  0  0  0
 18 19  1  0  0  0  0
 19 20  2  0  0  0  0
 21 23  1  0  0  0  0
 22 21  1  0  0  0  0
 22 23  1  0  0  0  0
 23 19  1  0  0  0  0
 24 25  1  0  0  0  0
 26 27  2  0  0  0  0
 27  9  1  0  0  0  0
 28  8  1  0  0  0  0
 29 36  1  0  0  0  0
 30 37  1  1  0  0  0
 30 32  1  0  0  0  0
 30 29  1  0  0  0  0
 31 28  1  1  0  0  0
 31 33  1  0  0  0  0
 31 32  1  0  0  0  0
 33 34  1  6  0  0  0
 33 36  1  0  0  0  0
 36 35  2  0  0  0  0
 37 38  3  0  0  0  0
M  END
>  <MODEL>
9

>  <REMARK>
 VINA RESULT:      -6.4      2.975      7.696
  Name = 
  8 active torsions:
  status: ('A' for Active; 'I' for Inactive)
    1  A    between atoms: C_1  and  C_13
    2  A    between atoms: C_3  and  N_20
    3  A    between atoms: C_3  and  C_37
    4  A    between atoms: O_6  and  C_33
    5  A    between atoms: C_7  and  C_12
    6  A    between atoms: C_16  and  C_32
    7  A    between atoms: C_22  and  C_27
    8  A    between atoms: N_23  and  C_32
                            x       y       z     vdW  Elec       q    Type
                         _______ _______ _______ _____ _____    ______ ____

>  <TORSDO>
F 8

$$$$
