=
 OpenBabel10232410443D

 64 72  0  0  1  0  0  0  0  0999 V2000
  188.8200  177.2970  139.4410 N   0  0  0  0  0  0  0  0  0  0  0  0
  187.0630  178.0440  144.2870 C   0  0  0  0  0  2  0  0  0  0  0  0
  187.6240  178.7370  141.0570 C   0  0  2  0  0  3  0  0  0  0  0  0
  185.9380  178.1650  138.4420 C   0  0  0  0  0  1  0  0  0  0  0  0
  185.7600  177.8250  142.3560 C   0  0  2  0  0  3  0  0  0  0  0  0
  188.4460  178.6700  139.7580 C   0  0  0  0  0  2  0  0  0  0  0  0
  185.1040  178.8280  143.1980 N   0  0  0  0  0  2  0  0  0  0  0  0
  187.0030  177.3820  142.9990 N   0  0  1  0  0  0  0  0  0  0  0  0
  184.0050  178.8970  139.7840 C   0  0  1  0  0  3  0  0  0  0  0  0
  188.9380  176.6080  141.7500 C   0  0  0  0  0  2  0  0  0  0  0  0
  188.1470  177.8460  142.2010 C   0  0  1  0  0  3  0  0  0  0  0  0
  186.0250  179.1310  144.2730 C   0  0  1  0  0  3  0  0  0  0  0  0
  185.2570  179.4700  140.4200 C   0  0  1  0  0  3  0  0  0  0  0  0
  186.1520  178.3990  141.0110 C   0  0  1  0  0  0  0  0  0  0  0  0
  185.2740  178.0720  139.8010 C   0  0  2  0  0  0  0  0  0  0  0  0
  189.7410  176.8750  140.4870 C   0  0  0  0  0  2  0  0  0  0  0  0
  189.5530  177.3470  138.1850 C   0  0  0  0  0  2  0  0  0  0  0  0
  190.0020  175.9490  137.7940 C   0  0  0  0  0  2  0  0  0  0  0  0
  191.2770  176.0270  137.1090 N   0  0  0  0  0  2  0  0  0  0  0  0
  192.2900  175.5180  138.0260 C   0  0  2  0  0  3  0  0  0  0  0  0
  193.3320  176.8840  139.8290 O   0  0  0  0  0  1  0  0  0  0  0  0
  193.1890  176.6240  138.4770 C   0  0  0  0  0  0  0  0  0  0  0  0
  193.8420  177.2970  137.6370 O   0  0  0  0  0  0  0  0  0  0  0  0
  193.0830  174.3590  137.4120 C   0  0  0  0  0  2  0  0  0  0  0  0
  195.3920  173.6490  138.0000 C   0  0  0  0  0  0  0  0  0  0  0  0
  196.0050  174.1910  135.2550 C   0  0  0  0  0  3  0  0  0  0  0  0
  194.9060  174.7480  135.7840 C   0  0  0  0  0  3  0  0  0  0  0  0
  195.2960  173.5660  139.2140 O   0  0  0  0  0  0  0  0  0  0  0  0
  196.3290  172.7290  137.2720 C   0  0  0  0  0  2  0  0  0  0  0  0
  194.5680  174.6710  137.2550 C   0  0  1  0  0  3  0  0  0  0  0  0
  197.0040  173.4400  136.0940 C   0  0  2  0  0  3  0  0  0  0  0  0
  198.9980  173.9090  137.6090 N   0  0  0  0  0  1  0  0  0  0  0  0
  198.3410  175.4120  135.9650 O   0  0  0  0  0  0  0  0  0  0  0  0
  198.1290  174.3210  136.5560 C   0  0  0  0  0  0  0  0  0  0  0  0
  185.2950  179.1620  145.6030 C   0  0  0  0  0  2  0  0  0  0  0  0
  186.3030  179.2950  146.7290 C   0  0  0  0  0  2  0  0  0  0  0  0
  186.4590  178.0410  147.4570 N   0  0  0  0  0  2  0  0  0  0  0  0
  187.6590  177.1200  149.2160 O   0  0  0  0  0  0  0  0  0  0  0  0
  187.6890  177.6160  148.0560 C   0  0  0  0  0  0  0  0  0  0  0  0
  189.0220  177.9190  147.4300 C   0  0  1  0  0  3  0  0  0  0  0  0
  189.9630  178.1030  145.2370 C   0  0  0  0  0  1  0  0  0  0  0  0
  189.9440  176.6870  147.4710 C   0  0  0  0  0  0  0  0  0  0  0  0
  189.2140  177.1600  146.1760 C   0  0  1  0  0  3  0  0  0  0  0  0
  191.1700  177.4260  148.0390 C   0  0  0  0  0  2  0  0  0  0  0  0
  191.3750  176.4540  146.9480 C   0  0  0  0  0  2  0  0  0  0  0  0
  183.0280  178.4340  140.8510 C   0  0  0  0  0  2  0  0  0  0  0  0
  182.2940  177.2090  140.3460 C   0  0  0  0  0  2  0  0  0  0  0  0
  181.4020  177.5800  139.1740 C   0  0  0  0  0  2  0  0  0  0  0  0
  181.3340  176.4480  138.1550 C   0  0  0  0  0  2  0  0  0  0  0  0
  181.7660  176.8750  136.7540 C   0  0  1  0  0  3  0  0  0  0  0  0
  182.5960  177.9950  136.8200 O   0  0  0  0  0  1  0  0  0  0  0  0
  182.4750  175.7820  136.0910 N   0  0  0  0  0  2  0  0  0  0  0  0
  183.7320  175.1630  137.9560 O   0  0  0  0  0  0  0  0  0  0  0  0
  183.4600  174.9640  136.7400 C   0  0  0  0  0  0  0  0  0  0  0  0
  185.7520  174.3010  135.7980 C   0  0  1  0  0  3  0  0  0  0  0  0
  184.3090  172.6550  136.7830 C   0  0  2  0  0  3  0  0  0  0  0  0
  184.2730  173.9500  135.9570 C   0  0  1  0  0  0  0  0  0  0  0  0
  185.5290  172.7890  137.6900 C   0  0  0  0  0  2  0  0  0  0  0  0
  186.1300  175.9950  135.3660 Cl  0  0  0  0  0  0  0  0  0  0  0  0
  186.4430  173.8340  137.0660 C   0  0  0  0  0  2  0  0  0  0  0  0
  183.6480  173.7670  134.5750 C   0  0  0  0  0  1  0  0  0  0  0  0
  184.4700  171.3950  135.9410 C   0  0  0  0  0  2  0  0  0  0  0  0
  183.2880  170.4630  136.1510 C   0  0  0  0  0  2  0  0  0  0  0  0
  183.7420  169.1470  136.2200 O   0  0  0  0  0  1  0  0  0  0  0  0
  1  6  1  0  0  0  0
  1 16  1  0  0  0  0
  3  6  1  6  0  0  0
  3 11  1  0  0  0  0
  4 15  1  0  0  0  0
  5  8  1  0  0  0  0
  5  7  1  1  0  0  0
  7 12  1  0  0  0  0
  8  2  1  1  0  0  0
  9 15  1  0  0  0  0
  9 13  1  0  0  0  0
  9 46  1  1  0  0  0
 11 10  1  6  0  0  0
 11  8  1  0  0  0  0
 12  2  1  0  0  0  0
 12 35  1  1  0  0  0
 13 14  1  0  0  0  0
 14  3  1  0  0  0  0
 14  5  1  0  0  0  0
 15 13  1  0  0  0  0
 15 14  1  0  0  0  0
 16 10  1  0  0  0  0
 17  1  1  0  0  0  0
 18 17  1  0  0  0  0
 19 18  1  0  0  0  0
 19 20  1  0  0  0  0
 20 22  1  0  0  0  0
 22 21  1  0  0  0  0
 23 22  2  0  0  0  0
 24 20  1  0  0  0  0
 25 28  2  0  0  0  0
 26 27  2  0  0  0  0
 26 31  1  0  0  0  0
 27 30  1  0  0  0  0
 29 25  1  0  0  0  0
 30 24  1  0  0  0  0
 30 25  1  0  0  0  0
 31 34  1  0  0  0  0
 31 29  1  0  0  0  0
 33 34  2  0  0  0  0
 34 32  1  0  0  0  0
 35 36  1  0  0  0  0
 36 37  1  0  0  0  0
 37 39  1  0  0  0  0
 39 38  2  0  0  0  0
 40 42  1  0  0  0  0
 40 39  1  0  0  0  0
 41 43  1  0  0  0  0
 42 44  1  0  0  0  0
 43 40  1  0  0  0  0
 43 42  1  0  0  0  0
 45 42  1  0  0  0  0
 45 44  1  0  0  0  0
 47 46  1  0  0  0  0
 48 47  1  0  0  0  0
 49 48  1  0  0  0  0
 50 51  1  0  0  0  0
 50 49  1  0  0  0  0
 52 54  1  0  0  0  0
 52 50  1  0  0  0  0
 54 53  2  0  0  0  0
 55 57  1  0  0  0  0
 55 60  1  0  0  0  0
 56 58  1  0  0  0  0
 57 54  1  0  0  0  0
 57 56  1  0  0  0  0
 59 55  1  0  0  0  0
 60 58  1  0  0  0  0
 61 57  1  0  0  0  0
 62 63  1  0  0  0  0
 62 56  1  0  0  0  0
 63 64  1  0  0  0  0
M  END
>  <MODEL>
1

>  <REMARK>
 VINA RESULT:      -6.9      0.000      0.000
  Name = 
  21 active torsions:
  status: ('A' for Active; 'I' for Inactive)
    1  A    between atoms: C_1  and  N_27
    2  A    between atoms: C_1  and  C_59
    3  A    between atoms: C_2  and  C_12
    4  A    between atoms: C_2  and  C_22
    5  A    between atoms: C_3  and  N_23
    6  A    between atoms: C_3  and  C_49
    7  A    between atoms: N_4  and  C_49
    8  A    between atoms: C_8  and  C_44
    9  A    between atoms: C_9  and  C_35
   10  A    between atoms: C_9  and  C_54
   11  A    between atoms: N_11  and  C_20
   12  A    between atoms: C_17  and  C_43
   13  A    between atoms: CA_18  and  N_23
   14  A    between atoms: CA_18  and  C_42
   15  A    between atoms: CA_18  and  C_47
   16  A    between atoms: C_20  and  C_21
   17  A    between atoms: C_21  and  C_45
   18  A    between atoms: C_42  and  C_61
   19  A    between atoms: C_51  and  C_54
   20  A    between atoms: C_51  and  C_59
   21  A    between atoms: C_62  and  C_63
                            x       y       z     vdW  Elec       q    Type
                         _______ _______ _______ _____ _____    ______ ____

>  <TORSDO>
F 21

$$$$
=
 OpenBabel10232410443D

 64 72  0  0  1  0  0  0  0  0999 V2000
  191.1250  177.9410  141.3250 N   0  0  0  0  0  0  0  0  0  0  0  0
  192.3100  175.2350  137.0360 C   0  0  0  0  0  2  0  0  0  0  0  0
  190.5080  176.1870  139.6950 C   0  0  2  0  0  3  0  0  0  0  0  0
  188.2520  178.3750  140.0550 C   0  0  0  0  0  1  0  0  0  0  0  0
  190.5010  176.6960  137.3010 C   0  0  2  0  0  3  0  0  0  0  0  0
  190.3480  176.7240  141.1290 C   0  0  0  0  0  2  0  0  0  0  0  0
  190.0280  175.5780  136.4800 N   0  0  0  0  0  2  0  0  0  0  0  0
  191.8950  176.4570  137.6960 N   0  0  1  0  0  0  0  0  0  0  0  0
  187.3720  177.5120  137.9200 C   0  0  1  0  0  3  0  0  0  0  0  0
  192.8500  177.3060  139.7630 C   0  0  0  0  0  2  0  0  0  0  0  0
  191.9480  176.2250  139.1470 C   0  0  1  0  0  3  0  0  0  0  0  0
  191.0680  174.5720  136.5120 C   0  0  1  0  0  3  0  0  0  0  0  0
  188.2410  176.4320  138.5370 C   0  0  1  0  0  3  0  0  0  0  0  0
  189.7050  176.8190  138.5830 C   0  0  1  0  0  0  0  0  0  0  0  0
  188.6300  177.9050  138.6640 C   0  0  2  0  0  0  0  0  0  0  0  0
  192.5250  177.5510  141.2280 C   0  0  0  0  0  2  0  0  0  0  0  0
  190.8710  178.3790  142.6890 C   0  0  0  0  0  2  0  0  0  0  0  0
  191.1720  177.2500  143.6590 C   0  0  0  0  0  2  0  0  0  0  0  0
  191.8300  177.7860  144.8340 N   0  0  0  0  0  2  0  0  0  0  0  0
  190.9990  177.4480  145.9840 C   0  0  2  0  0  3  0  0  0  0  0  0
  192.0530  175.2680  146.5700 O   0  0  0  0  0  0  0  0  0  0  0  0
  191.7520  176.5700  146.9310 C   0  0  0  0  0  0  0  0  0  0  0  0
  192.1430  177.0180  148.0410 O   0  0  0  0  0  1  0  0  0  0  0  0
  189.6710  176.8130  145.5600 C   0  0  0  0  0  2  0  0  0  0  0  0
  187.4250  177.3120  144.6180 C   0  0  0  0  0  0  0  0  0  0  0  0
  186.7390  178.0950  147.2870 C   0  0  0  0  0  3  0  0  0  0  0  0
  188.0360  178.0450  146.9510 C   0  0  0  0  0  3  0  0  0  0  0  0
  187.6520  177.1880  143.4250 O   0  0  0  0  0  0  0  0  0  0  0  0
  186.0630  176.9660  145.1460 C   0  0  0  0  0  2  0  0  0  0  0  0
  188.5140  177.8080  145.5380 C   0  0  1  0  0  3  0  0  0  0  0  0
  185.6430  177.9200  146.2700 C   0  0  2  0  0  3  0  0  0  0  0  0
  184.1850  179.2860  144.6890 N   0  0  0  0  0  1  0  0  0  0  0  0
  185.5950  180.3050  146.2280 O   0  0  0  0  0  0  0  0  0  0  0  0
  185.1650  179.2350  145.7240 C   0  0  0  0  0  0  0  0  0  0  0  0
  191.3230  174.0290  135.1190 C   0  0  0  0  0  2  0  0  0  0  0  0
  191.7500  172.5760  135.2140 C   0  0  0  0  0  2  0  0  0  0  0  0
  192.8910  172.2970  134.3490 N   0  0  0  0  0  2  0  0  0  0  0  0
  194.9800  171.2910  134.3960 O   0  0  0  0  0  0  0  0  0  0  0  0
  194.2440  172.2260  134.8140 C   0  0  0  0  0  0  0  0  0  0  0  0
  194.7480  173.1080  135.9210 C   0  0  1  0  0  3  0  0  0  0  0  0
  196.2580  174.9470  136.1920 C   0  0  0  0  0  1  0  0  0  0  0  0
  195.8360  172.3950  136.7460 C   0  0  0  0  0  0  0  0  0  0  0  0
  196.1550  173.5050  135.6970 C   0  0  1  0  0  3  0  0  0  0  0  0
  195.2270  172.7160  138.1230 C   0  0  0  0  0  2  0  0  0  0  0  0
  196.6850  172.8540  137.9470 C   0  0  0  0  0  2  0  0  0  0  0  0
  187.5770  177.5690  136.4160 C   0  0  0  0  0  2  0  0  0  0  0  0
  186.4230  178.3230  135.7910 C   0  0  0  0  0  2  0  0  0  0  0  0
  185.2250  177.4020  135.6250 C   0  0  0  0  0  2  0  0  0  0  0  0
  185.4330  176.0910  136.3760 C   0  0  0  0  0  2  0  0  0  0  0  0
  184.2060  175.6570  137.1750 C   0  0  1  0  0  3  0  0  0  0  0  0
  184.5060  174.5440  137.9620 O   0  0  0  0  0  1  0  0  0  0  0  0
  183.7520  176.7510  138.0330 N   0  0  0  0  0  2  0  0  0  0  0  0
  181.6590  175.8260  138.4890 O   0  0  0  0  0  0  0  0  0  0  0  0
  182.4600  176.7880  138.6560 C   0  0  0  0  0  0  0  0  0  0  0  0
  183.0390  178.6610  140.3100 C   0  0  1  0  0  3  0  0  0  0  0  0
  181.7160  179.1140  138.3590 C   0  0  2  0  0  3  0  0  0  0  0  0
  181.9880  178.0210  139.4040 C   0  0  1  0  0  0  0  0  0  0  0  0
  183.0440  179.8470  138.1860 C   0  0  0  0  0  2  0  0  0  0  0  0
  184.0080  177.5480  141.3210 Cl  0  0  0  0  0  0  0  0  0  0  0  0
  183.8840  179.5570  139.4220 C   0  0  0  0  0  2  0  0  0  0  0  0
  180.7580  177.6610  140.2360 C   0  0  0  0  0  1  0  0  0  0  0  0
  180.6610  180.1260  138.7920 C   0  0  0  0  0  2  0  0  0  0  0  0
  180.5280  181.2280  137.7530 C   0  0  0  0  0  2  0  0  0  0  0  0
  180.0070  180.6930  136.5750 O   0  0  0  0  0  1  0  0  0  0  0  0
  1 17  1  0  0  0  0
  3  6  1  1  0  0  0
  5  7  1  6  0  0  0
  5  8  1  0  0  0  0
  5 14  1  0  0  0  0
  6  1  1  0  0  0  0
  7 12  1  0  0  0  0
  8  2  1  6  0  0  0
  8 11  1  0  0  0  0
  9 46  1  6  0  0  0
  9 13  1  0  0  0  0
  9 15  1  0  0  0  0
 10 16  1  0  0  0  0
 11  3  1  0  0  0  0
 11 10  1  1  0  0  0
 12 35  1  6  0  0  0
 12  2  1  0  0  0  0
 13 14  1  0  0  0  0
 13 15  1  0  0  0  0
 14 15  1  0  0  0  0
 14  3  1  0  0  0  0
 15  4  1  0  0  0  0
 16  1  1  0  0  0  0
 17 18  1  0  0  0  0
 18 19  1  0  0  0  0
 19 20  1  0  0  0  0
 20 22  1  0  0  0  0
 21 22  2  0  0  0  0
 22 23  1  0  0  0  0
 24 20  1  0  0  0  0
 25 29  1  0  0  0  0
 25 30  1  0  0  0  0
 27 26  2  0  0  0  0
 28 25  2  0  0  0  0
 29 31  1  0  0  0  0
 30 24  1  0  0  0  0
 30 27  1  0  0  0  0
 31 26  1  0  0  0  0
 32 34  1  0  0  0  0
 34 33  2  0  0  0  0
 34 31  1  0  0  0  0
 35 36  1  0  0  0  0
 37 39  1  0  0  0  0
 37 36  1  0  0  0  0
 38 39  2  0  0  0  0
 39 40  1  0  0  0  0
 40 42  1  0  0  0  0
 42 45  1  0  0  0  0
 42 44  1  0  0  0  0
 43 40  1  0  0  0  0
 43 41  1  0  0  0  0
 43 42  1  0  0  0  0
 45 44  1  0  0  0  0
 47 46  1  0  0  0  0
 48 47  1  0  0  0  0
 48 49  1  0  0  0  0
 49 50  1  0  0  0  0
 50 51  1  0  0  0  0
 50 52  1  0  0  0  0
 52 54  1  0  0  0  0
 53 54  2  0  0  0  0
 54 57  1  0  0  0  0
 55 59  1  0  0  0  0
 56 62  1  0  0  0  0
 56 57  1  0  0  0  0
 57 61  1  0  0  0  0
 57 55  1  0  0  0  0
 58 56  1  0  0  0  0
 58 60  1  0  0  0  0
 60 55  1  0  0  0  0
 63 62  1  0  0  0  0
 64 63  1  0  0  0  0
M  END
>  <MODEL>
2

>  <REMARK>
 VINA RESULT:      -6.8      2.879      9.754
  Name = 
  21 active torsions:
  status: ('A' for Active; 'I' for Inactive)
    1  A    between atoms: C_1  and  N_27
    2  A    between atoms: C_1  and  C_59
    3  A    between atoms: C_2  and  C_12
    4  A    between atoms: C_2  and  C_22
    5  A    between atoms: C_3  and  N_23
    6  A    between atoms: C_3  and  C_49
    7  A    between atoms: N_4  and  C_49
    8  A    between atoms: C_8  and  C_44
    9  A    between atoms: C_9  and  C_35
   10  A    between atoms: C_9  and  C_54
   11  A    between atoms: N_11  and  C_20
   12  A    between atoms: C_17  and  C_43
   13  A    between atoms: CA_18  and  N_23
   14  A    between atoms: CA_18  and  C_42
   15  A    between atoms: CA_18  and  C_47
   16  A    between atoms: C_20  and  C_21
   17  A    between atoms: C_21  and  C_45
   18  A    between atoms: C_42  and  C_61
   19  A    between atoms: C_51  and  C_54
   20  A    between atoms: C_51  and  C_59
   21  A    between atoms: C_62  and  C_63
                            x       y       z     vdW  Elec       q    Type
                         _______ _______ _______ _____ _____    ______ ____

>  <TORSDO>
F 21

$$$$
=
 OpenBabel10232410443D

 64 72  0  0  1  0  0  0  0  0999 V2000
  191.5920  175.4030  136.0340 N   0  0  0  0  0  0  0  0  0  0  0  0
  186.9170  173.1960  135.4030 C   0  0  0  0  0  2  0  0  0  0  0  0
  189.4570  174.6540  137.0300 C   0  0  2  0  0  3  0  0  0  0  0  0
  190.1090  177.6830  137.6630 C   0  0  0  0  0  1  0  0  0  0  0  0
  187.3330  175.4010  136.0680 C   0  0  2  0  0  3  0  0  0  0  0  0
  190.9460  174.9610  137.2640 C   0  0  0  0  0  2  0  0  0  0  0  0
  186.1680  174.9410  136.8270 N   0  0  0  0  0  2  0  0  0  0  0  0
  187.8350  174.3040  135.2300 N   0  0  1  0  0  0  0  0  0  0  0  0
  187.7150  177.8610  138.2220 C   0  0  1  0  0  3  0  0  0  0  0  0
  190.1720  174.0800  134.6020 C   0  0  0  0  0  2  0  0  0  0  0  0
  189.1510  173.8810  135.7330 C   0  0  1  0  0  3  0  0  0  0  0  0
  186.0550  173.5170  136.5910 C   0  0  1  0  0  3  0  0  0  0  0  0
  188.1110  176.4010  138.3270 C   0  0  1  0  0  3  0  0  0  0  0  0
  188.4710  175.7980  136.9840 C   0  0  1  0  0  0  0  0  0  0  0  0
  188.7100  177.2880  137.2350 C   0  0  2  0  0  0  0  0  0  0  0  0
  191.5840  174.2570  135.1360 C   0  0  0  0  0  2  0  0  0  0  0  0
  192.9750  175.7010  136.3760 C   0  0  0  0  0  2  0  0  0  0  0  0
  193.8440  174.4830  136.1210 C   0  0  0  0  0  2  0  0  0  0  0  0
  195.0770  174.8960  135.4800 N   0  0  0  0  0  2  0  0  0  0  0  0
  196.1490  174.0890  136.0510 C   0  0  2  0  0  3  0  0  0  0  0  0
  196.9680  174.7580  138.3060 O   0  0  0  0  0  1  0  0  0  0  0  0
  197.0190  174.9260  136.9330 C   0  0  0  0  0  0  0  0  0  0  0  0
  197.8200  175.7600  136.4330 O   0  0  0  0  0  0  0  0  0  0  0  0
  196.9640  173.3760  134.9670 C   0  0  0  0  0  2  0  0  0  0  0  0
  198.5650  171.6090  135.6760 C   0  0  0  0  0  0  0  0  0  0  0  0
  196.4050  170.6280  137.2830 C   0  0  0  0  0  3  0  0  0  0  0  0
  196.1170  171.4380  136.2550 C   0  0  0  0  0  3  0  0  0  0  0  0
  199.4840  171.8200  134.9010 O   0  0  0  0  0  0  0  0  0  0  0  0
  198.8660  171.0800  137.0480 C   0  0  0  0  0  2  0  0  0  0  0  0
  197.1450  171.8850  135.2420 C   0  0  1  0  0  3  0  0  0  0  0  0
  197.7920  170.0880  137.5100 C   0  0  2  0  0  3  0  0  0  0  0  0
  196.8640  167.9210  136.5440 N   0  0  0  0  0  1  0  0  0  0  0  0
  199.1460  168.3520  136.5930 O   0  0  0  0  0  0  0  0  0  0  0  0
  197.9840  168.7390  136.8800 C   0  0  0  0  0  0  0  0  0  0  0  0
  184.6150  173.1410  136.2980 C   0  0  0  0  0  2  0  0  0  0  0  0
  183.6970  173.8720  137.2600 C   0  0  0  0  0  2  0  0  0  0  0  0
  182.4210  174.2020  136.6350 N   0  0  0  0  0  2  0  0  0  0  0  0
  181.4140  175.8660  135.3720 O   0  0  0  0  0  0  0  0  0  0  0  0
  181.9360  175.5400  136.4730 C   0  0  0  0  0  0  0  0  0  0  0  0
  182.2030  176.6090  137.4960 C   0  0  1  0  0  3  0  0  0  0  0  0
  182.2050  176.8390  139.8790 C   0  0  0  0  0  1  0  0  0  0  0  0
  180.9960  177.5530  137.6370 C   0  0  0  0  0  0  0  0  0  0  0  0
  181.3380  176.4480  138.6840 C   0  0  1  0  0  3  0  0  0  0  0  0
  181.8020  178.8600  137.5290 C   0  0  0  0  0  2  0  0  0  0  0  0
  180.7410  178.7700  138.5480 C   0  0  0  0  0  2  0  0  0  0  0  0
  186.3360  177.9990  137.6010 C   0  0  0  0  0  2  0  0  0  0  0  0
  185.3250  178.2570  138.6990 C   0  0  0  0  0  2  0  0  0  0  0  0
  186.0400  178.5770  140.0020 C   0  0  0  0  0  2  0  0  0  0  0  0
  185.0760  178.5330  141.1820 C   0  0  0  0  0  2  0  0  0  0  0  0
  185.7710  178.7030  142.5310 C   0  0  1  0  0  3  0  0  0  0  0  0
  184.9870  178.1670  143.5540 O   0  0  0  0  0  1  0  0  0  0  0  0
  187.0720  178.0340  142.5150 N   0  0  0  0  0  2  0  0  0  0  0  0
  187.3760  178.0730  144.8270 O   0  0  0  0  0  0  0  0  0  0  0  0
  187.8370  177.7550  143.6960 C   0  0  0  0  0  0  0  0  0  0  0  0
  190.1450  177.9110  142.5880 C   0  0  1  0  0  3  0  0  0  0  0  0
  189.9420  177.4890  144.9420 C   0  0  2  0  0  3  0  0  0  0  0  0
  189.2470  177.2030  143.6010 C   0  0  1  0  0  0  0  0  0  0  0  0
  190.5760  178.8680  144.7820 C   0  0  0  0  0  2  0  0  0  0  0  0
  189.4200  178.2750  140.9930 Cl  0  0  0  0  0  0  0  0  0  0  0  0
  190.7020  179.1370  143.2900 C   0  0  0  0  0  2  0  0  0  0  0  0
  189.1810  175.7150  143.2610 C   0  0  0  0  0  1  0  0  0  0  0  0
  191.0420  176.4910  145.2880 C   0  0  0  0  0  2  0  0  0  0  0  0
  191.1130  176.2830  146.7910 C   0  0  0  0  0  2  0  0  0  0  0  0
  189.9970  176.8650  147.3930 O   0  0  0  0  0  1  0  0  0  0  0  0
  1 17  1  0  0  0  0
  1  6  1  0  0  0  0
  2 12  1  0  0  0  0
  3  6  1  6  0  0  0
  5  7  1  1  0  0  0
  5 14  1  0  0  0  0
  8  2  1  1  0  0  0
  8 11  1  0  0  0  0
  8  5  1  0  0  0  0
  9 46  1  6  0  0  0
  9 13  1  0  0  0  0
 10 16  1  0  0  0  0
 11 10  1  6  0  0  0
 11  3  1  0  0  0  0
 12 35  1  6  0  0  0
 12  7  1  0  0  0  0
 14  3  1  0  0  0  0
 14 15  1  0  0  0  0
 14 13  1  0  0  0  0
 15  4  1  0  0  0  0
 15  9  1  0  0  0  0
 15 13  1  0  0  0  0
 16  1  1  0  0  0  0
 18 17  1  0  0  0  0
 19 20  1  0  0  0  0
 19 18  1  0  0  0  0
 20 22  1  0  0  0  0
 22 21  1  0  0  0  0
 23 22  2  0  0  0  0
 24 30  1  0  0  0  0
 24 20  1  0  0  0  0
 25 29  1  0  0  0  0
 26 31  1  0  0  0  0
 27 26  2  0  0  0  0
 28 25  2  0  0  0  0
 29 31  1  0  0  0  0
 30 25  1  0  0  0  0
 30 27  1  0  0  0  0
 32 34  1  0  0  0  0
 33 34  2  0  0  0  0
 34 31  1  0  0  0  0
 35 36  1  0  0  0  0
 37 36  1  0  0  0  0
 38 39  2  0  0  0  0
 39 37  1  0  0  0  0
 39 40  1  0  0  0  0
 40 42  1  0  0  0  0
 40 43  1  0  0  0  0
 42 45  1  0  0  0  0
 42 43  1  0  0  0  0
 43 41  1  0  0  0  0
 44 42  1  0  0  0  0
 44 45  1  0  0  0  0
 46 47  1  0  0  0  0
 47 48  1  0  0  0  0
 48 49  1  0  0  0  0
 49 50  1  0  0  0  0
 50 51  1  0  0  0  0
 52 50  1  0  0  0  0
 52 54  1  0  0  0  0
 54 53  2  0  0  0  0
 55 60  1  0  0  0  0
 55 57  1  0  0  0  0
 56 62  1  0  0  0  0
 57 54  1  0  0  0  0
 57 56  1  0  0  0  0
 58 56  1  0  0  0  0
 59 55  1  0  0  0  0
 60 58  1  0  0  0  0
 61 57  1  0  0  0  0
 62 63  1  0  0  0  0
 63 64  1  0  0  0  0
M  END
>  <MODEL>
3

>  <REMARK>
 VINA RESULT:      -6.8      2.645      8.375
  Name = 
  21 active torsions:
  status: ('A' for Active; 'I' for Inactive)
    1  A    between atoms: C_1  and  N_27
    2  A    between atoms: C_1  and  C_59
    3  A    between atoms: C_2  and  C_12
    4  A    between atoms: C_2  and  C_22
    5  A    between atoms: C_3  and  N_23
    6  A    between atoms: C_3  and  C_49
    7  A    between atoms: N_4  and  C_49
    8  A    between atoms: C_8  and  C_44
    9  A    between atoms: C_9  and  C_35
   10  A    between atoms: C_9  and  C_54
   11  A    between atoms: N_11  and  C_20
   12  A    between atoms: C_17  and  C_43
   13  A    between atoms: CA_18  and  N_23
   14  A    between atoms: CA_18  and  C_42
   15  A    between atoms: CA_18  and  C_47
   16  A    between atoms: C_20  and  C_21
   17  A    between atoms: C_21  and  C_45
   18  A    between atoms: C_42  and  C_61
   19  A    between atoms: C_51  and  C_54
   20  A    between atoms: C_51  and  C_59
   21  A    between atoms: C_62  and  C_63
                            x       y       z     vdW  Elec       q    Type
                         _______ _______ _______ _____ _____    ______ ____

>  <TORSDO>
F 21

$$$$
=
 OpenBabel10232410443D

 64 72  0  0  1  0  0  0  0  0999 V2000
  181.8820  178.7110  142.1290 N   0  0  0  0  0  0  0  0  0  0  0  0
  180.2020  176.8680  137.5570 C   0  0  0  0  0  2  0  0  0  0  0  0
  181.7520  178.9540  139.6720 C   0  0  2  0  0  3  0  0  0  0  0  0
  184.7210  179.0550  140.7570 C   0  0  0  0  0  1  0  0  0  0  0  0
  182.4330  177.1010  138.2250 C   0  0  2  0  0  3  0  0  0  0  0  0
  181.9230  179.6640  141.0260 C   0  0  0  0  0  2  0  0  0  0  0  0
  182.3800  177.4380  136.8000 N   0  0  0  0  0  2  0  0  0  0  0  0
  181.0790  176.8060  138.7100 N   0  0  1  0  0  0  0  0  0  0  0  0
  185.3640  178.5890  138.4240 C   0  0  1  0  0  3  0  0  0  0  0  0
  180.3780  177.1990  141.0030 C   0  0  0  0  0  2  0  0  0  0  0  0
  180.6650  177.8610  139.6470 C   0  0  1  0  0  3  0  0  0  0  0  0
  180.9780  177.5190  136.4470 C   0  0  1  0  0  3  0  0  0  0  0  0
  183.9670  179.1790  138.4130 C   0  0  1  0  0  3  0  0  0  0  0  0
  182.9420  178.2630  139.0510 C   0  0  1  0  0  0  0  0  0  0  0  0
  184.3960  178.2270  139.5300 C   0  0  2  0  0  0  0  0  0  0  0  0
  180.5280  178.1780  142.1570 C   0  0  0  0  0  2  0  0  0  0  0  0
  182.0920  179.4790  143.3480 C   0  0  0  0  0  2  0  0  0  0  0  0
  183.5420  179.3650  143.7850 C   0  0  0  0  0  2  0  0  0  0  0  0
  183.8270  177.9940  144.1600 N   0  0  0  0  0  2  0  0  0  0  0  0
  185.1430  177.9850  144.7870 C   0  0  2  0  0  3  0  0  0  0  0  0
  185.8200  179.8480  146.2960 O   0  0  0  0  0  0  0  0  0  0  0  0
  185.0960  178.6830  146.1090 C   0  0  0  0  0  0  0  0  0  0  0  0
  184.3760  178.2370  147.0400 O   0  0  0  0  0  1  0  0  0  0  0  0
  186.2160  178.5820  143.8710 C   0  0  0  0  0  2  0  0  0  0  0  0
  188.2430  178.1730  142.4900 C   0  0  0  0  0  0  0  0  0  0  0  0
  189.4320  177.2530  144.9300 C   0  0  0  0  0  3  0  0  0  0  0  0
  188.0940  177.3000  144.8510 C   0  0  0  0  0  3  0  0  0  0  0  0
  187.7910  178.3590  141.3720 O   0  0  0  0  0  0  0  0  0  0  0  0
  189.6790  178.5100  142.7680 C   0  0  0  0  0  2  0  0  0  0  0  0
  187.3520  177.6080  143.5710 C   0  0  1  0  0  3  0  0  0  0  0  0
  190.3110  177.5020  143.7340 C   0  0  2  0  0  3  0  0  0  0  0  0
  190.4960  176.0850  141.6240 N   0  0  0  0  0  1  0  0  0  0  0  0
  191.2200  175.2970  143.6860 O   0  0  0  0  0  0  0  0  0  0  0  0
  190.6830  176.2280  143.0310 C   0  0  0  0  0  0  0  0  0  0  0  0
  180.7170  176.7930  135.1420 C   0  0  0  0  0  2  0  0  0  0  0  0
  181.6030  175.5630  135.0630 C   0  0  0  0  0  2  0  0  0  0  0  0
  180.8900  174.3640  135.4860 N   0  0  0  0  0  2  0  0  0  0  0  0
  180.8380  172.8190  137.2170 O   0  0  0  0  0  0  0  0  0  0  0  0
  181.4880  173.3120  136.2540 C   0  0  0  0  0  0  0  0  0  0  0  0
  182.9260  172.9160  136.0700 C   0  0  1  0  0  3  0  0  0  0  0  0
  184.2390  170.9140  136.0570 C   0  0  0  0  0  1  0  0  0  0  0  0
  183.7370  173.1640  137.3550 C   0  0  0  0  0  0  0  0  0  0  0  0
  183.2750  171.7440  136.9020 C   0  0  1  0  0  3  0  0  0  0  0  0
  184.8970  173.9070  136.6700 C   0  0  0  0  0  2  0  0  0  0  0  0
  185.2160  172.9070  137.7060 C   0  0  0  0  0  2  0  0  0  0  0  0
  185.4800  177.4710  137.4020 C   0  0  0  0  0  2  0  0  0  0  0  0
  186.8540  177.5230  136.7690 C   0  0  0  0  0  2  0  0  0  0  0  0
  187.0050  176.4040  135.7530 C   0  0  0  0  0  2  0  0  0  0  0  0
  188.4260  176.3480  135.2030 C   0  0  0  0  0  2  0  0  0  0  0  0
  189.2220  175.1520  135.7190 C   0  0  1  0  0  3  0  0  0  0  0  0
  188.8030  173.9790  135.0880 O   0  0  0  0  0  1  0  0  0  0  0  0
  190.6500  175.3530  135.4720 N   0  0  0  0  0  2  0  0  0  0  0  0
  191.3410  173.3880  136.5210 O   0  0  0  0  0  0  0  0  0  0  0  0
  191.6680  174.4410  135.9080 C   0  0  0  0  0  0  0  0  0  0  0  0
  193.7900  175.3660  137.0140 C   0  0  1  0  0  3  0  0  0  0  0  0
  193.8980  173.4630  135.5540 C   0  0  2  0  0  3  0  0  0  0  0  0
  193.1390  174.7840  135.7600 C   0  0  1  0  0  0  0  0  0  0  0  0
  194.2520  172.9790  136.9580 C   0  0  0  0  0  2  0  0  0  0  0  0
  192.8580  176.6150  137.8920 Cl  0  0  0  0  0  0  0  0  0  0  0  0
  194.1800  174.1850  137.8840 C   0  0  0  0  0  2  0  0  0  0  0  0
  193.3110  175.7660  134.6020 C   0  0  0  0  0  1  0  0  0  0  0  0
  195.1900  173.6160  134.7580 C   0  0  0  0  0  2  0  0  0  0  0  0
  196.3790  173.1660  135.5900 C   0  0  0  0  0  2  0  0  0  0  0  0
  197.2410  172.4110  134.7940 O   0  0  0  0  0  1  0  0  0  0  0  0
  1 16  1  0  0  0  0
  1 17  1  0  0  0  0
  3  6  1  1  0  0  0
  5  7  1  6  0  0  0
  5  8  1  0  0  0  0
  5 14  1  0  0  0  0
  6  1  1  0  0  0  0
  8  2  1  6  0  0  0
  8 11  1  0  0  0  0
  9 46  1  6  0  0  0
  9 15  1  0  0  0  0
 10 16  1  0  0  0  0
 11  3  1  0  0  0  0
 11 10  1  1  0  0  0
 12 35  1  6  0  0  0
 12  7  1  0  0  0  0
 12  2  1  0  0  0  0
 13  9  1  0  0  0  0
 13 14  1  0  0  0  0
 13 15  1  0  0  0  0
 14 15  1  0  0  0  0
 14  3  1  0  0  0  0
 15  4  1  0  0  0  0
 17 18  1  0  0  0  0
 18 19  1  0  0  0  0
 19 20  1  0  0  0  0
 20 22  1  0  0  0  0
 22 21  2  0  0  0  0
 22 23  1  0  0  0  0
 24 20  1  0  0  0  0
 25 29  1  0  0  0  0
 25 30  1  0  0  0  0
 27 26  2  0  0  0  0
 28 25  2  0  0  0  0
 29 31  1  0  0  0  0
 30 24  1  0  0  0  0
 30 27  1  0  0  0  0
 31 26  1  0  0  0  0
 32 34  1  0  0  0  0
 34 33  2  0  0  0  0
 34 31  1  0  0  0  0
 36 35  1  0  0  0  0
 36 37  1  0  0  0  0
 37 39  1  0  0  0  0
 39 38  2  0  0  0  0
 40 39  1  0  0  0  0
 40 43  1  0  0  0  0
 40 42  1  0  0  0  0
 41 43  1  0  0  0  0
 42 45  1  0  0  0  0
 43 42  1  0  0  0  0
 44 42  1  0  0  0  0
 44 45  1  0  0  0  0
 47 46  1  0  0  0  0
 48 47  1  0  0  0  0
 49 50  1  0  0  0  0
 49 48  1  0  0  0  0
 51 50  1  0  0  0  0
 52 50  1  0  0  0  0
 52 54  1  0  0  0  0
 54 53  2  0  0  0  0
 55 60  1  0  0  0  0
 55 59  1  0  0  0  0
 56 57  1  0  0  0  0
 56 58  1  0  0  0  0
 57 54  1  0  0  0  0
 57 55  1  0  0  0  0
 58 60  1  0  0  0  0
 61 57  1  0  0  0  0
 62 56  1  0  0  0  0
 62 63  1  0  0  0  0
 64 63  1  0  0  0  0
M  END
>  <MODEL>
4

>  <REMARK>
 VINA RESULT:      -6.8      2.755      9.753
  Name = 
  21 active torsions:
  status: ('A' for Active; 'I' for Inactive)
    1  A    between atoms: C_1  and  N_27
    2  A    between atoms: C_1  and  C_59
    3  A    between atoms: C_2  and  C_12
    4  A    between atoms: C_2  and  C_22
    5  A    between atoms: C_3  and  N_23
    6  A    between atoms: C_3  and  C_49
    7  A    between atoms: N_4  and  C_49
    8  A    between atoms: C_8  and  C_44
    9  A    between atoms: C_9  and  C_35
   10  A    between atoms: C_9  and  C_54
   11  A    between atoms: N_11  and  C_20
   12  A    between atoms: C_17  and  C_43
   13  A    between atoms: CA_18  and  N_23
   14  A    between atoms: CA_18  and  C_42
   15  A    between atoms: CA_18  and  C_47
   16  A    between atoms: C_20  and  C_21
   17  A    between atoms: C_21  and  C_45
   18  A    between atoms: C_42  and  C_61
   19  A    between atoms: C_51  and  C_54
   20  A    between atoms: C_51  and  C_59
   21  A    between atoms: C_62  and  C_63
                            x       y       z     vdW  Elec       q    Type
                         _______ _______ _______ _____ _____    ______ ____

>  <TORSDO>
F 21

$$$$
=
 OpenBabel10232410443D

 64 72  0  0  1  0  0  0  0  0999 V2000
  192.0030  175.1030  135.7460 N   0  0  0  0  0  0  0  0  0  0  0  0
  189.3790  177.7080  139.4150 C   0  0  0  0  0  2  0  0  0  0  0  0
  190.1030  176.5670  136.3490 C   0  0  2  0  0  3  0  0  0  0  0  0
  189.2010  173.9710  134.7840 C   0  0  0  0  0  1  0  0  0  0  0  0
  188.5790  175.9100  138.1480 C   0  0  2  0  0  3  0  0  0  0  0  0
  191.0720  176.1060  135.2450 C   0  0  0  0  0  2  0  0  0  0  0  0
  187.4600  176.8400  138.3180 N   0  0  0  0  0  2  0  0  0  0  0  0
  189.7830  176.4720  138.7740 N   0  0  1  0  0  0  0  0  0  0  0  0
  186.9560  174.4770  135.6670 C   0  0  1  0  0  3  0  0  0  0  0  0
  192.0310  175.9910  137.9880 C   0  0  0  0  0  2  0  0  0  0  0  0
  190.7570  176.8070  137.7240 C   0  0  1  0  0  3  0  0  0  0  0  0
  188.0110  178.0490  138.8950 C   0  0  1  0  0  3  0  0  0  0  0  0
  187.7670  175.7590  135.6930 C   0  0  1  0  0  3  0  0  0  0  0  0
  188.9110  175.7030  136.6850 C   0  0  1  0  0  0  0  0  0  0  0  0
  188.4300  174.4170  136.0100 C   0  0  2  0  0  0  0  0  0  0  0  0
  192.8450  175.7800  136.7220 C   0  0  0  0  0  2  0  0  0  0  0  0
  192.8370  174.7120  134.6200 C   0  0  0  0  0  2  0  0  0  0  0  0
  193.1020  173.2180  134.6680 C   0  0  0  0  0  2  0  0  0  0  0  0
  194.4720  172.9840  135.0800 N   0  0  0  0  0  2  0  0  0  0  0  0
  194.8930  171.7240  134.4780 C   0  0  2  0  0  3  0  0  0  0  0  0
  193.9810  169.4070  134.4120 O   0  0  0  0  0  0  0  0  0  0  0  0
  194.1870  170.5760  135.1250 C   0  0  0  0  0  0  0  0  0  0  0  0
  193.8080  170.6530  136.3230 O   0  0  0  0  0  1  0  0  0  0  0  0
  196.4140  171.5510  134.5250 C   0  0  0  0  0  2  0  0  0  0  0  0
  197.6900  171.7020  136.6540 C   0  0  0  0  0  0  0  0  0  0  0  0
  199.3330  173.5900  135.2610 C   0  0  0  0  0  3  0  0  0  0  0  0
  198.1060  173.3390  134.7830 C   0  0  0  0  0  3  0  0  0  0  0  0
  196.9600  171.0650  137.3960 O   0  0  0  0  0  0  0  0  0  0  0  0
  199.1730  171.6830  136.8890 C   0  0  0  0  0  2  0  0  0  0  0  0
  197.0920  172.4930  135.5160 C   0  0  1  0  0  3  0  0  0  0  0  0
  199.8020  173.0480  136.5840 C   0  0  2  0  0  3  0  0  0  0  0  0
  198.6510  175.0980  137.5650 N   0  0  0  0  0  1  0  0  0  0  0  0
  200.1630  173.8430  138.8040 O   0  0  0  0  0  0  0  0  0  0  0  0
  199.5740  174.0190  137.7060 C   0  0  0  0  0  0  0  0  0  0  0  0
  187.1360  178.5390  140.0330 C   0  0  0  0  0  2  0  0  0  0  0  0
  187.9270  178.5110  141.3270 C   0  0  0  0  0  2  0  0  0  0  0  0
  187.3350  177.5950  142.2950 N   0  0  0  0  0  2  0  0  0  0  0  0
  186.7010  177.4980  144.5240 O   0  0  0  0  0  0  0  0  0  0  0  0
  187.6450  177.6060  143.6940 C   0  0  0  0  0  0  0  0  0  0  0  0
  189.0230  177.9330  144.1980 C   0  0  1  0  0  3  0  0  0  0  0  0
  191.2930  177.6670  143.4870 C   0  0  0  0  0  1  0  0  0  0  0  0
  189.4790  176.9150  145.2590 C   0  0  0  0  0  0  0  0  0  0  0  0
  190.0050  176.9050  143.7900 C   0  0  1  0  0  3  0  0  0  0  0  0
  189.9440  177.9600  146.2900 C   0  0  0  0  0  2  0  0  0  0  0  0
  190.7920  176.7760  146.0550 C   0  0  0  0  0  2  0  0  0  0  0  0
  186.0930  174.3650  136.9120 C   0  0  0  0  0  2  0  0  0  0  0  0
  185.7960  172.9030  137.1750 C   0  0  0  0  0  2  0  0  0  0  0  0
  184.2950  172.6640  137.1630 C   0  0  0  0  0  2  0  0  0  0  0  0
  183.8040  172.3280  135.7590 C   0  0  0  0  0  2  0  0  0  0  0  0
  182.5950  173.1560  135.3320 C   0  0  1  0  0  3  0  0  0  0  0  0
  181.4200  172.4170  135.4830 O   0  0  0  0  0  1  0  0  0  0  0  0
  182.5100  174.3740  136.1360 N   0  0  0  0  0  2  0  0  0  0  0  0
  182.7870  175.8460  134.3470 O   0  0  0  0  0  0  0  0  0  0  0  0
  182.6250  175.6960  135.5900 C   0  0  0  0  0  0  0  0  0  0  0  0
  181.6980  178.0240  136.1430 C   0  0  1  0  0  3  0  0  0  0  0  0
  182.2270  176.4670  137.8930 C   0  0  2  0  0  3  0  0  0  0  0  0
  182.6870  176.9130  136.4950 C   0  0  1  0  0  0  0  0  0  0  0  0
  180.7130  176.6600  137.9000 C   0  0  0  0  0  2  0  0  0  0  0  0
  181.5470  178.4400  134.4100 Cl  0  0  0  0  0  0  0  0  0  0  0  0
  180.3780  177.6440  136.7880 C   0  0  0  0  0  2  0  0  0  0  0  0
  184.1060  177.4780  136.4790 C   0  0  0  0  0  1  0  0  0  0  0  0
  182.8230  177.2940  139.0270 C   0  0  0  0  0  2  0  0  0  0  0  0
  181.9890  177.1390  140.2880 C   0  0  0  0  0  2  0  0  0  0  0  0
  181.2000  178.2750  140.4640 O   0  0  0  0  0  1  0  0  0  0  0  0
  1 16  1  0  0  0  0
  3  6  1  6  0  0  0
  3 14  1  0  0  0  0
  3 11  1  0  0  0  0
  4 15  1  0  0  0  0
  5  7  1  6  0  0  0
  5  8  1  0  0  0  0
  6  1  1  0  0  0  0
  7 12  1  0  0  0  0
  8  2  1  6  0  0  0
  9 13  1  0  0  0  0
  9 15  1  0  0  0  0
  9 46  1  1  0  0  0
 11 10  1  1  0  0  0
 11  8  1  0  0  0  0
 12  2  1  0  0  0  0
 12 35  1  1  0  0  0
 13 15  1  0  0  0  0
 13 14  1  0  0  0  0
 14  5  1  0  0  0  0
 15 14  1  0  0  0  0
 16 10  1  0  0  0  0
 17 18  1  0  0  0  0
 17  1  1  0  0  0  0
 18 19  1  0  0  0  0
 20 24  1  0  0  0  0
 20 19  1  0  0  0  0
 20 22  1  0  0  0  0
 21 22  2  0  0  0  0
 22 23  1  0  0  0  0
 24 30  1  0  0  0  0
 25 29  1  0  0  0  0
 25 28  2  0  0  0  0
 26 31  1  0  0  0  0
 27 26  2  0  0  0  0
 27 30  1  0  0  0  0
 30 25  1  0  0  0  0
 31 29  1  0  0  0  0
 31 34  1  0  0  0  0
 32 34  1  0  0  0  0
 34 33  2  0  0  0  0
 35 36  1  0  0  0  0
 36 37  1  0  0  0  0
 37 39  1  0  0  0  0
 39 40  1  0  0  0  0
 39 38  2  0  0  0  0
 40 42  1  0  0  0  0
 41 43  1  0  0  0  0
 42 45  1  0  0  0  0
 42 44  1  0  0  0  0
 43 40  1  0  0  0  0
 43 42  1  0  0  0  0
 45 44  1  0  0  0  0
 46 47  1  0  0  0  0
 48 47  1  0  0  0  0
 49 48  1  0  0  0  0
 50 51  1  0  0  0  0
 50 49  1  0  0  0  0
 50 52  1  0  0  0  0
 53 54  2  0  0  0  0
 54 52  1  0  0  0  0
 54 57  1  0  0  0  0
 55 57  1  0  0  0  0
 55 60  1  0  0  0  0
 56 58  1  0  0  0  0
 56 62  1  0  0  0  0
 57 56  1  0  0  0  0
 59 55  1  0  0  0  0
 60 58  1  0  0  0  0
 61 57  1  0  0  0  0
 62 63  1  0  0  0  0
 63 64  1  0  0  0  0
M  END
>  <MODEL>
5

>  <REMARK>
 VINA RESULT:      -6.4      2.528      5.228
  Name = 
  21 active torsions:
  status: ('A' for Active; 'I' for Inactive)
    1  A    between atoms: C_1  and  N_27
    2  A    between atoms: C_1  and  C_59
    3  A    between atoms: C_2  and  C_12
    4  A    between atoms: C_2  and  C_22
    5  A    between atoms: C_3  and  N_23
    6  A    between atoms: C_3  and  C_49
    7  A    between atoms: N_4  and  C_49
    8  A    between atoms: C_8  and  C_44
    9  A    between atoms: C_9  and  C_35
   10  A    between atoms: C_9  and  C_54
   11  A    between atoms: N_11  and  C_20
   12  A    between atoms: C_17  and  C_43
   13  A    between atoms: CA_18  and  N_23
   14  A    between atoms: CA_18  and  C_42
   15  A    between atoms: CA_18  and  C_47
   16  A    between atoms: C_20  and  C_21
   17  A    between atoms: C_21  and  C_45
   18  A    between atoms: C_42  and  C_61
   19  A    between atoms: C_51  and  C_54
   20  A    between atoms: C_51  and  C_59
   21  A    between atoms: C_62  and  C_63
                            x       y       z     vdW  Elec       q    Type
                         _______ _______ _______ _____ _____    ______ ____

>  <TORSDO>
F 21

$$$$
=
 OpenBabel10232410443D

 64 72  0  0  1  0  0  0  0  0999 V2000
  190.5760  177.0890  140.6930 N   0  0  0  0  0  0  0  0  0  0  0  0
  186.9280  177.5820  137.0090 C   0  0  0  0  0  2  0  0  0  0  0  0
  189.9930  177.6660  138.3610 C   0  0  2  0  0  3  0  0  0  0  0  0
  192.2880  175.4980  138.5500 C   0  0  0  0  0  1  0  0  0  0  0  0
  188.7240  176.0810  136.9930 C   0  0  2  0  0  3  0  0  0  0  0  0
  190.9780  177.8650  139.5270 C   0  0  0  0  0  2  0  0  0  0  0  0
  188.5400  176.5370  135.6130 N   0  0  0  0  0  2  0  0  0  0  0  0
  187.7680  176.7710  137.8680 N   0  0  1  0  0  0  0  0  0  0  0  0
  191.7370  175.0200  136.1960 C   0  0  1  0  0  3  0  0  0  0  0  0
  188.2190  177.2450  140.2090 C   0  0  0  0  0  2  0  0  0  0  0  0
  188.5050  177.6770  138.7620 C   0  0  1  0  0  3  0  0  0  0  0  0
  187.5910  177.6300  135.6610 C   0  0  1  0  0  3  0  0  0  0  0  0
  191.2470  176.4190  136.5130 C   0  0  1  0  0  3  0  0  0  0  0  0
  190.1050  176.4240  137.5100 C   0  0  1  0  0  0  0  0  0  0  0  0
  191.1540  175.3100  137.5620 C   0  0  2  0  0  0  0  0  0  0  0  0
  189.3260  177.6710  141.1590 C   0  0  0  0  0  2  0  0  0  0  0  0
  191.5900  177.3180  141.7120 C   0  0  0  0  0  2  0  0  0  0  0  0
  190.9350  177.8050  142.9930 C   0  0  0  0  0  2  0  0  0  0  0  0
  190.5840  176.6660  143.8180 N   0  0  0  0  0  2  0  0  0  0  0  0
  190.5980  177.1180  145.2040 C   0  0  2  0  0  3  0  0  0  0  0  0
  192.1130  176.9690  147.1760 O   0  0  0  0  0  1  0  0  0  0  0  0
  191.7040  176.4520  145.9580 C   0  0  0  0  0  0  0  0  0  0  0  0
  192.2430  175.4060  145.5100 O   0  0  0  0  0  0  0  0  0  0  0  0
  189.2430  176.9090  145.8860 C   0  0  0  0  0  2  0  0  0  0  0  0
  187.1290  176.9550  144.5780 C   0  0  0  0  0  0  0  0  0  0  0  0
  186.2170  178.8080  146.5630 C   0  0  0  0  0  3  0  0  0  0  0  0
  187.5370  178.6190  146.4270 C   0  0  0  0  0  3  0  0  0  0  0  0
  187.4680  176.3310  143.5850 O   0  0  0  0  0  0  0  0  0  0  0  0
  185.7060  176.8700  145.0480 C   0  0  0  0  0  2  0  0  0  0  0  0
  188.1430  177.7980  145.3120 C   0  0  1  0  0  3  0  0  0  0  0  0
  185.2210  178.2140  145.6030 C   0  0  2  0  0  3  0  0  0  0  0  0
  184.4550  178.6860  143.2190 N   0  0  0  0  0  1  0  0  0  0  0  0
  184.8710  180.4050  144.7250 O   0  0  0  0  0  0  0  0  0  0  0  0
  184.8640  179.1670  144.4980 C   0  0  0  0  0  0  0  0  0  0  0  0
  186.5500  177.4760  134.5700 C   0  0  0  0  0  2  0  0  0  0  0  0
  185.1660  177.6710  135.1610 C   0  0  0  0  0  2  0  0  0  0  0  0
  184.4200  176.4190  135.1980 N   0  0  0  0  0  2  0  0  0  0  0  0
  182.2870  175.6070  135.6150 O   0  0  0  0  0  0  0  0  0  0  0  0
  183.3140  176.1760  136.0760 C   0  0  0  0  0  0  0  0  0  0  0  0
  183.2650  176.7480  137.4660 C   0  0  1  0  0  3  0  0  0  0  0  0
  182.4940  176.1000  139.6370 C   0  0  0  0  0  1  0  0  0  0  0  0
  182.1090  177.7550  137.6090 C   0  0  0  0  0  0  0  0  0  0  0  0
  182.0540  176.3070  138.1890 C   0  0  1  0  0  3  0  0  0  0  0  0
  182.9490  178.8690  138.2610 C   0  0  0  0  0  2  0  0  0  0  0  0
  181.6090  178.5840  138.8080 C   0  0  0  0  0  2  0  0  0  0  0  0
  190.7400  174.2910  135.3110 C   0  0  0  0  0  2  0  0  0  0  0  0
  191.4890  173.3300  134.4130 C   0  0  0  0  0  2  0  0  0  0  0  0
  191.8470  172.0680  135.1810 C   0  0  0  0  0  2  0  0  0  0  0  0
  192.7810  171.1770  134.3680 C   0  0  0  0  0  2  0  0  0  0  0  0
  194.0740  170.8350  135.1040 C   0  0  1  0  0  3  0  0  0  0  0  0
  194.8140  169.9000  134.3780 O   0  0  0  0  0  1  0  0  0  0  0  0
  194.8750  172.0420  135.3020 N   0  0  0  0  0  2  0  0  0  0  0  0
  196.6820  170.9540  136.2990 O   0  0  0  0  0  0  0  0  0  0  0  0
  196.1710  172.0430  135.9180 C   0  0  0  0  0  0  0  0  0  0  0  0
  196.0090  174.5950  136.1340 C   0  0  1  0  0  3  0  0  0  0  0  0
  197.2600  173.3060  137.7280 C   0  0  2  0  0  3  0  0  0  0  0  0
  196.8830  173.3450  136.2380 C   0  0  1  0  0  0  0  0  0  0  0  0
  196.0600  173.8950  138.4630 C   0  0  0  0  0  2  0  0  0  0  0  0
  194.9400  174.7070  134.7040 Cl  0  0  0  0  0  0  0  0  0  0  0  0
  195.2650  174.7090  137.4520 C   0  0  0  0  0  2  0  0  0  0  0  0
  198.0900  173.4960  135.3130 C   0  0  0  0  0  1  0  0  0  0  0  0
  198.4900  174.1390  138.0700 C   0  0  0  0  0  2  0  0  0  0  0  0
  198.3200  174.8000  139.4280 C   0  0  0  0  0  2  0  0  0  0  0  0
  198.5670  176.1670  139.3120 O   0  0  0  0  0  1  0  0  0  0  0  0
  1 16  1  0  0  0  0
  1 17  1  0  0  0  0
  3 11  1  0  0  0  0
  3  6  1  1  0  0  0
  5  7  1  6  0  0  0
  5 14  1  0  0  0  0
  5  8  1  0  0  0  0
  6  1  1  0  0  0  0
  7 12  1  0  0  0  0
  8  2  1  6  0  0  0
  8 11  1  0  0  0  0
  9 46  1  6  0  0  0
  9 13  1  0  0  0  0
  9 15  1  0  0  0  0
 10 16  1  0  0  0  0
 11 10  1  1  0  0  0
 12 35  1  6  0  0  0
 12  2  1  0  0  0  0
 13 14  1  0  0  0  0
 13 15  1  0  0  0  0
 14 15  1  0  0  0  0
 14  3  1  0  0  0  0
 15  4  1  0  0  0  0
 17 18  1  0  0  0  0
 18 19  1  0  0  0  0
 19 20  1  0  0  0  0
 20 24  1  0  0  0  0
 20 22  1  0  0  0  0
 22 21  1  0  0  0  0
 23 22  2  0  0  0  0
 25 29  1  0  0  0  0
 25 30  1  0  0  0  0
 27 26  2  0  0  0  0
 28 25  2  0  0  0  0
 29 31  1  0  0  0  0
 30 24  1  0  0  0  0
 30 27  1  0  0  0  0
 31 26  1  0  0  0  0
 32 34  1  0  0  0  0
 34 33  2  0  0  0  0
 34 31  1  0  0  0  0
 35 36  1  0  0  0  0
 36 37  1  0  0  0  0
 37 39  1  0  0  0  0
 38 39  2  0  0  0  0
 39 40  1  0  0  0  0
 40 42  1  0  0  0  0
 40 43  1  0  0  0  0
 42 43  1  0  0  0  0
 42 44  1  0  0  0  0
 42 45  1  0  0  0  0
 43 41  1  0  0  0  0
 44 45  1  0  0  0  0
 47 48  1  0  0  0  0
 47 46  1  0  0  0  0
 49 50  1  0  0  0  0
 49 48  1  0  0  0  0
 50 52  1  0  0  0  0
 51 50  1  0  0  0  0
 52 54  1  0  0  0  0
 54 57  1  0  0  0  0
 54 53  2  0  0  0  0
 55 57  1  0  0  0  0
 55 60  1  0  0  0  0
 56 62  1  0  0  0  0
 56 58  1  0  0  0  0
 57 56  1  0  0  0  0
 59 55  1  0  0  0  0
 60 58  1  0  0  0  0
 61 57  1  0  0  0  0
 62 63  1  0  0  0  0
 64 63  1  0  0  0  0
M  END
>  <MODEL>
6

>  <REMARK>
 VINA RESULT:      -6.3      2.917     11.058
  Name = 
  21 active torsions:
  status: ('A' for Active; 'I' for Inactive)
    1  A    between atoms: C_1  and  N_27
    2  A    between atoms: C_1  and  C_59
    3  A    between atoms: C_2  and  C_12
    4  A    between atoms: C_2  and  C_22
    5  A    between atoms: C_3  and  N_23
    6  A    between atoms: C_3  and  C_49
    7  A    between atoms: N_4  and  C_49
    8  A    between atoms: C_8  and  C_44
    9  A    between atoms: C_9  and  C_35
   10  A    between atoms: C_9  and  C_54
   11  A    between atoms: N_11  and  C_20
   12  A    between atoms: C_17  and  C_43
   13  A    between atoms: CA_18  and  N_23
   14  A    between atoms: CA_18  and  C_42
   15  A    between atoms: CA_18  and  C_47
   16  A    between atoms: C_20  and  C_21
   17  A    between atoms: C_21  and  C_45
   18  A    between atoms: C_42  and  C_61
   19  A    between atoms: C_51  and  C_54
   20  A    between atoms: C_51  and  C_59
   21  A    between atoms: C_62  and  C_63
                            x       y       z     vdW  Elec       q    Type
                         _______ _______ _______ _____ _____    ______ ____

>  <TORSDO>
F 21

$$$$
=
 OpenBabel10232410443D

 64 72  0  0  1  0  0  0  0  0999 V2000
  190.6550  177.7390  140.9650 N   0  0  0  0  0  0  0  0  0  0  0  0
  192.9040  175.4910  136.8400 C   0  0  0  0  0  2  0  0  0  0  0  0
  190.5000  176.1460  139.0800 C   0  0  2  0  0  3  0  0  0  0  0  0
  188.1390  178.2500  139.1030 C   0  0  0  0  0  1  0  0  0  0  0  0
  191.0280  176.8890  136.8080 C   0  0  2  0  0  3  0  0  0  0  0  0
  189.9920  176.5350  140.4790 C   0  0  0  0  0  2  0  0  0  0  0  0
  190.8000  175.8510  135.7990 N   0  0  0  0  0  2  0  0  0  0  0  0
  192.3000  176.6340  137.4950 N   0  0  1  0  0  0  0  0  0  0  0  0
  187.8110  177.5890  136.7510 C   0  0  1  0  0  3  0  0  0  0  0  0
  192.7170  177.2890  139.7970 C   0  0  0  0  0  2  0  0  0  0  0  0
  192.0250  176.2600  138.8900 C   0  0  1  0  0  3  0  0  0  0  0  0
  191.8430  174.8630  135.9800 C   0  0  1  0  0  3  0  0  0  0  0  0
  188.5540  176.4680  137.4510 C   0  0  1  0  0  3  0  0  0  0  0  0
  189.9520  176.8710  137.8740 C   0  0  1  0  0  0  0  0  0  0  0  0
  188.8460  177.9270  137.8020 C   0  0  2  0  0  0  0  0  0  0  0  0
  192.0530  177.3830  141.1620 C   0  0  0  0  0  2  0  0  0  0  0  0
  190.0750  178.0350  142.2660 C   0  0  0  0  0  2  0  0  0  0  0  0
  188.6320  177.5630  142.3080 C   0  0  0  0  0  2  0  0  0  0  0  0
  187.8220  178.5470  142.9970 N   0  0  0  0  0  2  0  0  0  0  0  0
  186.5650  177.8990  143.3500 C   0  0  2  0  0  3  0  0  0  0  0  0
  185.6880  179.4990  141.6540 O   0  0  0  0  0  0  0  0  0  0  0  0
  185.4350  178.4940  142.5720 C   0  0  0  0  0  0  0  0  0  0  0  0
  184.2610  178.0650  142.7220 O   0  0  0  0  0  1  0  0  0  0  0  0
  186.3000  177.9500  144.8580 C   0  0  0  0  0  2  0  0  0  0  0  0
  187.2680  177.9920  147.1480 C   0  0  0  0  0  0  0  0  0  0  0  0
  189.4500  176.5340  145.9980 C   0  0  0  0  0  3  0  0  0  0  0  0
  188.6460  177.2290  145.1800 C   0  0  0  0  0  3  0  0  0  0  0  0
  186.4970  178.7610  147.7000 O   0  0  0  0  0  0  0  0  0  0  0  0
  187.9000  176.8880  147.9440 C   0  0  0  0  0  2  0  0  0  0  0  0
  187.5690  178.1640  145.6790 C   0  0  1  0  0  3  0  0  0  0  0  0
  189.3440  176.6350  147.4970 C   0  0  2  0  0  3  0  0  0  0  0  0
  191.6730  177.3840  148.2080 N   0  0  0  0  0  1  0  0  0  0  0  0
  189.8410  178.8050  148.3530 O   0  0  0  0  0  0  0  0  0  0  0  0
  190.2820  177.6630  148.0610 C   0  0  0  0  0  0  0  0  0  0  0  0
  192.4340  174.4650  134.6410 C   0  0  0  0  0  2  0  0  0  0  0  0
  193.8900  174.0790  134.8270 C   0  0  0  0  0  2  0  0  0  0  0  0
  194.0350  172.6520  135.0860 N   0  0  0  0  0  2  0  0  0  0  0  0
  194.7260  171.1860  136.7470 O   0  0  0  0  0  0  0  0  0  0  0  0
  195.0480  172.0950  135.9340 C   0  0  0  0  0  0  0  0  0  0  0  0
  196.4260  172.6900  136.0170 C   0  0  1  0  0  3  0  0  0  0  0  0
  198.5970  172.0620  136.8040 C   0  0  0  0  0  1  0  0  0  0  0  0
  196.5340  173.6700  137.2000 C   0  0  0  0  0  0  0  0  0  0  0  0
  197.1400  172.2320  137.2280 C   0  0  1  0  0  3  0  0  0  0  0  0
  197.1770  174.8160  136.3980 C   0  0  0  0  0  2  0  0  0  0  0  0
  197.7110  174.5080  137.7380 C   0  0  0  0  0  2  0  0  0  0  0  0
  188.3560  177.7990  135.3490 C   0  0  0  0  0  2  0  0  0  0  0  0
  187.2540  177.5240  134.3470 C   0  0  0  0  0  2  0  0  0  0  0  0
  186.6620  176.1450  134.5880 C   0  0  0  0  0  2  0  0  0  0  0  0
  185.1390  176.1820  134.5190 C   0  0  0  0  0  2  0  0  0  0  0  0
  184.4700  175.2320  135.5100 C   0  0  1  0  0  3  0  0  0  0  0  0
  185.3430  174.9260  136.5560 O   0  0  0  0  0  1  0  0  0  0  0  0
  183.2570  175.8420  136.0510 N   0  0  0  0  0  2  0  0  0  0  0  0
  184.3340  177.6750  137.0120 O   0  0  0  0  0  0  0  0  0  0  0  0
  183.2500  177.0620  136.8070 C   0  0  0  0  0  0  0  0  0  0  0  0
  181.4050  176.6230  138.5350 C   0  0  1  0  0  3  0  0  0  0  0  0
  182.3520  178.8150  138.2820 C   0  0  2  0  0  3  0  0  0  0  0  0
  181.9810  177.5600  137.4750 C   0  0  1  0  0  0  0  0  0  0  0  0
  182.7600  178.3010  139.6600 C   0  0  0  0  0  2  0  0  0  0  0  0
  181.3490  174.8840  138.1200 Cl  0  0  0  0  0  0  0  0  0  0  0  0
  182.1620  176.9110  139.8190 C   0  0  0  0  0  2  0  0  0  0  0  0
  180.9220  177.8220  136.4050 C   0  0  0  0  0  1  0  0  0  0  0  0
  181.1970  179.7950  138.4560 C   0  0  0  0  0  2  0  0  0  0  0  0
  181.7020  181.2260  138.3760 C   0  0  0  0  0  2  0  0  0  0  0  0
  181.0810  181.8770  137.3110 O   0  0  0  0  0  1  0  0  0  0  0  0
  1 16  1  0  0  0  0
  1 17  1  0  0  0  0
  3  6  1  1  0  0  0
  5  7  1  6  0  0  0
  5  8  1  0  0  0  0
  5 14  1  0  0  0  0
  6  1  1  0  0  0  0
  7 12  1  0  0  0  0
  8  2  1  6  0  0  0
  8 11  1  0  0  0  0
  9 46  1  6  0  0  0
  9 13  1  0  0  0  0
  9 15  1  0  0  0  0
 10 16  1  0  0  0  0
 11  3  1  0  0  0  0
 11 10  1  1  0  0  0
 12 35  1  6  0  0  0
 12  2  1  0  0  0  0
 13 15  1  0  0  0  0
 13 14  1  0  0  0  0
 14  3  1  0  0  0  0
 15 14  1  0  0  0  0
 15  4  1  0  0  0  0
 17 18  1  0  0  0  0
 18 19  1  0  0  0  0
 19 20  1  0  0  0  0
 20 24  1  0  0  0  0
 21 22  2  0  0  0  0
 22 23  1  0  0  0  0
 22 20  1  0  0  0  0
 24 30  1  0  0  0  0
 25 28  2  0  0  0  0
 25 29  1  0  0  0  0
 26 31  1  0  0  0  0
 27 30  1  0  0  0  0
 27 26  2  0  0  0  0
 30 25  1  0  0  0  0
 31 29  1  0  0  0  0
 31 34  1  0  0  0  0
 34 32  1  0  0  0  0
 34 33  2  0  0  0  0
 35 36  1  0  0  0  0
 36 37  1  0  0  0  0
 37 39  1  0  0  0  0
 39 40  1  0  0  0  0
 39 38  2  0  0  0  0
 40 42  1  0  0  0  0
 40 43  1  0  0  0  0
 41 43  1  0  0  0  0
 42 43  1  0  0  0  0
 42 45  1  0  0  0  0
 44 42  1  0  0  0  0
 44 45  1  0  0  0  0
 47 48  1  0  0  0  0
 47 46  1  0  0  0  0
 49 48  1  0  0  0  0
 49 50  1  0  0  0  0
 50 52  1  0  0  0  0
 50 51  1  0  0  0  0
 52 54  1  0  0  0  0
 54 53  2  0  0  0  0
 54 57  1  0  0  0  0
 55 60  1  0  0  0  0
 56 62  1  0  0  0  0
 56 58  1  0  0  0  0
 57 56  1  0  0  0  0
 57 55  1  0  0  0  0
 58 60  1  0  0  0  0
 59 55  1  0  0  0  0
 61 57  1  0  0  0  0
 63 62  1  0  0  0  0
 64 63  1  0  0  0  0
M  END
>  <MODEL>
7

>  <REMARK>
 VINA RESULT:      -6.0      2.597      9.659
  Name = 
  21 active torsions:
  status: ('A' for Active; 'I' for Inactive)
    1  A    between atoms: C_1  and  N_27
    2  A    between atoms: C_1  and  C_59
    3  A    between atoms: C_2  and  C_12
    4  A    between atoms: C_2  and  C_22
    5  A    between atoms: C_3  and  N_23
    6  A    between atoms: C_3  and  C_49
    7  A    between atoms: N_4  and  C_49
    8  A    between atoms: C_8  and  C_44
    9  A    between atoms: C_9  and  C_35
   10  A    between atoms: C_9  and  C_54
   11  A    between atoms: N_11  and  C_20
   12  A    between atoms: C_17  and  C_43
   13  A    between atoms: CA_18  and  N_23
   14  A    between atoms: CA_18  and  C_42
   15  A    between atoms: CA_18  and  C_47
   16  A    between atoms: C_20  and  C_21
   17  A    between atoms: C_21  and  C_45
   18  A    between atoms: C_42  and  C_61
   19  A    between atoms: C_51  and  C_54
   20  A    between atoms: C_51  and  C_59
   21  A    between atoms: C_62  and  C_63
                            x       y       z     vdW  Elec       q    Type
                         _______ _______ _______ _____ _____    ______ ____

>  <TORSDO>
F 21

$$$$
=
 OpenBabel10232410443D

 64 72  0  0  1  0  0  0  0  0999 V2000
  190.4970  178.1420  141.3140 N   0  0  0  0  0  0  0  0  0  0  0  0
  192.9060  175.2290  137.7310 C   0  0  0  0  0  2  0  0  0  0  0  0
  190.4020  176.2730  139.6980 C   0  0  2  0  0  3  0  0  0  0  0  0
  188.0990  178.3940  139.2540 C   0  0  0  0  0  1  0  0  0  0  0  0
  191.0700  176.6360  137.3710 C   0  0  2  0  0  3  0  0  0  0  0  0
  189.8300  176.8870  140.9870 C   0  0  0  0  0  2  0  0  0  0  0  0
  190.8710  175.4550  136.5280 N   0  0  0  0  0  2  0  0  0  0  0  0
  192.2970  176.4720  138.1610 N   0  0  1  0  0  0  0  0  0  0  0  0
  187.8800  177.3730  137.0210 C   0  0  1  0  0  3  0  0  0  0  0  0
  192.6060  177.4780  140.3520 C   0  0  0  0  0  2  0  0  0  0  0  0
  191.9380  176.3300  139.5800 C   0  0  1  0  0  3  0  0  0  0  0  0
  191.8770  174.4910  136.9220 C   0  0  1  0  0  3  0  0  0  0  0  0
  188.5560  176.3640  137.9300 C   0  0  1  0  0  3  0  0  0  0  0  0
  189.9400  176.8060  138.3630 C   0  0  1  0  0  0  0  0  0  0  0  0
  188.8670  177.8560  138.0630 C   0  0  2  0  0  0  0  0  0  0  0  0
  191.8730  177.7990  141.6440 C   0  0  0  0  0  2  0  0  0  0  0  0
  189.8550  178.6520  142.5160 C   0  0  0  0  0  2  0  0  0  0  0  0
  190.6460  178.2270  143.7420 C   0  0  0  0  0  2  0  0  0  0  0  0
  190.0290  178.7840  144.9300 N   0  0  0  0  0  2  0  0  0  0  0  0
  189.4560  177.6710  145.6780 C   0  0  2  0  0  3  0  0  0  0  0  0
  190.5990  176.9760  147.7790 O   0  0  0  0  0  1  0  0  0  0  0  0
  190.5300  176.9190  146.3980 C   0  0  0  0  0  0  0  0  0  0  0  0
  191.3490  176.2090  145.7590 O   0  0  0  0  0  0  0  0  0  0  0  0
  188.6250  176.7490  144.7810 C   0  0  0  0  0  2  0  0  0  0  0  0
  186.8150  177.8350  146.0960 C   0  0  0  0  0  0  0  0  0  0  0  0
  185.8650  178.7790  143.5630 C   0  0  0  0  0  3  0  0  0  0  0  0
  186.6930  177.7240  143.5800 C   0  0  0  0  0  3  0  0  0  0  0  0
  187.0140  177.3420  147.1950 O   0  0  0  0  0  0  0  0  0  0  0  0
  186.2640  179.2280  146.0030 C   0  0  0  0  0  2  0  0  0  0  0  0
  187.1280  177.0360  144.8530 C   0  0  1  0  0  3  0  0  0  0  0  0
  185.2920  179.3650  144.8260 C   0  0  2  0  0  3  0  0  0  0  0  0
  183.0240  178.4390  144.1250 N   0  0  0  0  0  1  0  0  0  0  0  0
  183.6520  178.5550  146.3580 O   0  0  0  0  0  0  0  0  0  0  0  0
  183.9460  178.7870  145.1560 C   0  0  0  0  0  0  0  0  0  0  0  0
  192.5290  173.8750  135.6990 C   0  0  0  0  0  2  0  0  0  0  0  0
  191.4550  173.4350  134.7220 C   0  0  0  0  0  2  0  0  0  0  0  0
  191.6160  172.0350  134.3460 N   0  0  0  0  0  2  0  0  0  0  0  0
  192.1980  169.9830  135.2600 O   0  0  0  0  0  0  0  0  0  0  0  0
  192.5650  171.1520  134.9560 C   0  0  0  0  0  0  0  0  0  0  0  0
  193.9130  171.6320  135.4170 C   0  0  1  0  0  3  0  0  0  0  0  0
  196.2020  171.4390  134.7450 C   0  0  0  0  0  1  0  0  0  0  0  0
  194.4280  170.7870  136.5960 C   0  0  0  0  0  0  0  0  0  0  0  0
  194.9670  170.6330  135.1400 C   0  0  1  0  0  3  0  0  0  0  0  0
  194.8110  171.9810  137.4910 C   0  0  0  0  0  2  0  0  0  0  0  0
  195.7400  170.8390  137.4040 C   0  0  0  0  0  2  0  0  0  0  0  0
  188.5050  177.3470  135.6370 C   0  0  0  0  0  2  0  0  0  0  0  0
  187.5600  178.0120  134.6580 C   0  0  0  0  0  2  0  0  0  0  0  0
  186.3820  177.0970  134.3660 C   0  0  0  0  0  2  0  0  0  0  0  0
  186.7490  175.6370  134.6050 C   0  0  0  0  0  2  0  0  0  0  0  0
  185.5320  174.7420  134.8350 C   0  0  1  0  0  3  0  0  0  0  0  0
  185.9170  173.5410  135.4330 O   0  0  0  0  0  1  0  0  0  0  0  0
  184.5620  175.4240  135.6920 N   0  0  0  0  0  2  0  0  0  0  0  0
  182.6810  174.7360  134.4960 O   0  0  0  0  0  0  0  0  0  0  0  0
  183.1450  175.3950  135.4670 C   0  0  0  0  0  0  0  0  0  0  0  0
  181.4730  175.5010  137.4090 C   0  0  1  0  0  3  0  0  0  0  0  0
  183.0670  177.2630  137.0660 C   0  0  2  0  0  3  0  0  0  0  0  0
  182.2050  176.2500  136.2970 C   0  0  1  0  0  0  0  0  0  0  0  0
  183.4340  176.5690  138.3750 C   0  0  0  0  0  2  0  0  0  0  0  0
  180.7860  173.9060  136.9820 Cl  0  0  0  0  0  0  0  0  0  0  0  0
  182.4250  175.4490  138.5910 C   0  0  0  0  0  2  0  0  0  0  0  0
  181.1800  176.9080  135.3740 C   0  0  0  0  0  1  0  0  0  0  0  0
  182.3380  178.5610  137.3980 C   0  0  0  0  0  2  0  0  0  0  0  0
  182.3380  178.7980  138.8990 C   0  0  0  0  0  2  0  0  0  0  0  0
  183.1100  179.9220  139.1910 O   0  0  0  0  0  1  0  0  0  0  0  0
  1 16  1  0  0  0  0
  1 17  1  0  0  0  0
  3  6  1  1  0  0  0
  5  7  1  1  0  0  0
  5  8  1  0  0  0  0
  5 14  1  0  0  0  0
  6  1  1  0  0  0  0
  7 12  1  0  0  0  0
  8  2  1  6  0  0  0
  8 11  1  0  0  0  0
  9 46  1  6  0  0  0
  9 13  1  0  0  0  0
  9 15  1  0  0  0  0
 10 16  1  0  0  0  0
 11  3  1  0  0  0  0
 11 10  1  1  0  0  0
 12 35  1  6  0  0  0
 12  2  1  0  0  0  0
 13 15  1  0  0  0  0
 13 14  1  0  0  0  0
 14  3  1  0  0  0  0
 15 14  1  0  0  0  0
 15  4  1  0  0  0  0
 17 18  1  0  0  0  0
 18 19  1  0  0  0  0
 19 20  1  0  0  0  0
 20 22  1  0  0  0  0
 22 21  1  0  0  0  0
 23 22  2  0  0  0  0
 24 30  1  0  0  0  0
 24 20  1  0  0  0  0
 25 28  2  0  0  0  0
 26 27  2  0  0  0  0
 26 31  1  0  0  0  0
 27 30  1  0  0  0  0
 29 25  1  0  0  0  0
 30 25  1  0  0  0  0
 31 34  1  0  0  0  0
 31 29  1  0  0  0  0
 32 34  1  0  0  0  0
 34 33  2  0  0  0  0
 36 35  1  0  0  0  0
 37 36  1  0  0  0  0
 37 39  1  0  0  0  0
 39 38  2  0  0  0  0
 39 40  1  0  0  0  0
 40 42  1  0  0  0  0
 41 43  1  0  0  0  0
 42 45  1  0  0  0  0
 42 44  1  0  0  0  0
 43 40  1  0  0  0  0
 43 42  1  0  0  0  0
 45 44  1  0  0  0  0
 47 46  1  0  0  0  0
 48 49  1  0  0  0  0
 48 47  1  0  0  0  0
 49 50  1  0  0  0  0
 50 51  1  0  0  0  0
 50 52  1  0  0  0  0
 53 54  2  0  0  0  0
 54 52  1  0  0  0  0
 54 57  1  0  0  0  0
 55 60  1  0  0  0  0
 56 62  1  0  0  0  0
 56 58  1  0  0  0  0
 57 56  1  0  0  0  0
 57 55  1  0  0  0  0
 58 60  1  0  0  0  0
 59 55  1  0  0  0  0
 61 57  1  0  0  0  0
 62 63  1  0  0  0  0
 63 64  1  0  0  0  0
M  END
>  <MODEL>
8

>  <REMARK>
 VINA RESULT:      -5.8      3.073      9.771
  Name = 
  21 active torsions:
  status: ('A' for Active; 'I' for Inactive)
    1  A    between atoms: C_1  and  N_27
    2  A    between atoms: C_1  and  C_59
    3  A    between atoms: C_2  and  C_12
    4  A    between atoms: C_2  and  C_22
    5  A    between atoms: C_3  and  N_23
    6  A    between atoms: C_3  and  C_49
    7  A    between atoms: N_4  and  C_49
    8  A    between atoms: C_8  and  C_44
    9  A    between atoms: C_9  and  C_35
   10  A    between atoms: C_9  and  C_54
   11  A    between atoms: N_11  and  C_20
   12  A    between atoms: C_17  and  C_43
   13  A    between atoms: CA_18  and  N_23
   14  A    between atoms: CA_18  and  C_42
   15  A    between atoms: CA_18  and  C_47
   16  A    between atoms: C_20  and  C_21
   17  A    between atoms: C_21  and  C_45
   18  A    between atoms: C_42  and  C_61
   19  A    between atoms: C_51  and  C_54
   20  A    between atoms: C_51  and  C_59
   21  A    between atoms: C_62  and  C_63
                            x       y       z     vdW  Elec       q    Type
                         _______ _______ _______ _____ _____    ______ ____

>  <TORSDO>
F 21

$$$$
=
 OpenBabel10232410443D

 64 72  0  0  1  0  0  0  0  0999 V2000
  190.4240  176.4170  136.2390 N   0  0  0  0  0  0  0  0  0  0  0  0
  186.1680  178.7130  138.1740 C   0  0  0  0  0  2  0  0  0  0  0  0
  188.6580  176.4800  137.9690 C   0  0  2  0  0  3  0  0  0  0  0  0
  191.5730  176.4360  139.1950 C   0  0  0  0  0  1  0  0  0  0  0  0
  188.2520  178.5420  139.2240 C   0  0  2  0  0  3  0  0  0  0  0  0
  189.6720  175.6170  137.1980 C   0  0  0  0  0  2  0  0  0  0  0  0
  187.2370  178.3860  140.2690 N   0  0  0  0  0  2  0  0  0  0  0  0
  187.5940  178.6840  137.9190 N   0  0  1  0  0  0  0  0  0  0  0  0
  190.4870  177.2350  141.2580 C   0  0  1  0  0  3  0  0  0  0  0  0
  188.6130  177.9590  135.8360 C   0  0  0  0  0  2  0  0  0  0  0  0
  187.8830  177.4940  137.1050 C   0  0  1  0  0  3  0  0  0  0  0  0
  185.9640  178.2590  139.5920 C   0  0  1  0  0  3  0  0  0  0  0  0
  189.4290  176.5610  140.4060 C   0  0  1  0  0  3  0  0  0  0  0  0
  189.1410  177.3200  139.1270 C   0  0  1  0  0  0  0  0  0  0  0  0
  190.5360  177.3900  139.7530 C   0  0  2  0  0  0  0  0  0  0  0  0
  189.4660  176.8540  135.2330 C   0  0  0  0  0  2  0  0  0  0  0  0
  191.3730  175.5170  135.6010 C   0  0  0  0  0  2  0  0  0  0  0  0
  192.7850  176.0470  135.7760 C   0  0  0  0  0  2  0  0  0  0  0  0
  193.7270  175.1100  135.1970 N   0  0  0  0  0  2  0  0  0  0  0  0
  194.2450  174.2920  136.2870 C   0  0  2  0  0  3  0  0  0  0  0  0
  194.9350  175.3760  138.4210 O   0  0  0  0  0  1  0  0  0  0  0  0
  195.2270  175.0720  137.1020 C   0  0  0  0  0  0  0  0  0  0  0  0
  196.3300  175.4240  136.6080 O   0  0  0  0  0  0  0  0  0  0  0  0
  194.8500  172.9810  135.7770 C   0  0  0  0  0  2  0  0  0  0  0  0
  194.0800  170.6430  136.1320 C   0  0  0  0  0  0  0  0  0  0  0  0
  196.5590  170.2860  137.5220 C   0  0  0  0  0  3  0  0  0  0  0  0
  196.0990  171.5340  137.3510 C   0  0  0  0  0  3  0  0  0  0  0  0
  192.9290  170.7260  135.7340 O   0  0  0  0  0  0  0  0  0  0  0  0
  194.8240  169.3500  135.9650 C   0  0  0  0  0  2  0  0  0  0  0  0
  194.7320  171.8390  136.7830 C   0  0  1  0  0  3  0  0  0  0  0  0
  195.7400  169.0760  137.1630 C   0  0  2  0  0  3  0  0  0  0  0  0
  193.5830  168.2210  138.2140 N   0  0  0  0  0  1  0  0  0  0  0  0
  195.5610  168.3420  139.4260 O   0  0  0  0  0  0  0  0  0  0  0  0
  194.9650  168.5500  138.3370 C   0  0  0  0  0  0  0  0  0  0  0  0
  184.9170  179.1270  140.2640 C   0  0  0  0  0  2  0  0  0  0  0  0
  183.5780  178.9240  139.5800 C   0  0  0  0  0  2  0  0  0  0  0  0
  182.9710  180.1970  139.2070 N   0  0  0  0  0  2  0  0  0  0  0  0
  180.9010  181.2350  139.0870 O   0  0  0  0  0  0  0  0  0  0  0  0
  181.6540  180.3190  138.6570 C   0  0  0  0  0  0  0  0  0  0  0  0
  181.0810  179.2820  137.7330 C   0  0  1  0  0  3  0  0  0  0  0  0
  181.5610  177.0370  137.0520 C   0  0  0  0  0  1  0  0  0  0  0  0
  181.4780  179.5630  136.2720 C   0  0  0  0  0  0  0  0  0  0  0  0
  182.1440  178.4460  137.1340 C   0  0  1  0  0  3  0  0  0  0  0  0
  180.0600  179.4170  135.6910 C   0  0  0  0  0  2  0  0  0  0  0  0
  181.1860  178.8060  134.9610 C   0  0  0  0  0  2  0  0  0  0  0  0
  189.9250  178.4790  141.9250 C   0  0  0  0  0  2  0  0  0  0  0  0
  190.6080  178.6720  143.2620 C   0  0  0  0  0  2  0  0  0  0  0  0
  190.2860  177.5080  144.1860 C   0  0  0  0  0  2  0  0  0  0  0  0
  189.6190  177.9930  145.4680 C   0  0  0  0  0  2  0  0  0  0  0  0
  188.7230  176.9380  146.1140 C   0  0  1  0  0  3  0  0  0  0  0  0
  189.2740  176.5030  147.3200 O   0  0  0  0  0  1  0  0  0  0  0  0
  187.3910  177.4900  146.3580 N   0  0  0  0  0  2  0  0  0  0  0  0
  186.5570  177.0190  144.2310 O   0  0  0  0  0  0  0  0  0  0  0  0
  186.3480  177.5140  145.3730 C   0  0  0  0  0  0  0  0  0  0  0  0
  185.1980  179.6810  146.1240 C   0  0  1  0  0  3  0  0  0  0  0  0
  184.3310  178.4070  144.2830 C   0  0  2  0  0  3  0  0  0  0  0  0
  185.0420  178.2420  145.6350 C   0  0  1  0  0  0  0  0  0  0  0  0
  184.8410  179.7300  143.7180 C   0  0  0  0  0  2  0  0  0  0  0  0
  186.4320  179.9690  147.3860 Cl  0  0  0  0  0  0  0  0  0  0  0  0
  185.3930  180.5360  144.8850 C   0  0  0  0  0  2  0  0  0  0  0  0
  184.2240  177.4500  146.6550 C   0  0  0  0  0  1  0  0  0  0  0  0
  182.8120  178.4850  144.3950 C   0  0  0  0  0  2  0  0  0  0  0  0
  182.2090  178.9540  143.0810 C   0  0  0  0  0  2  0  0  0  0  0  0
  180.8600  178.6040  143.0400 O   0  0  0  0  0  1  0  0  0  0  0  0
  1  6  1  0  0  0  0
  2 12  1  0  0  0  0
  3  6  1  6  0  0  0
  3 14  1  0  0  0  0
  4 15  1  0  0  0  0
  5  7  1  1  0  0  0
  8  2  1  1  0  0  0
  8  5  1  0  0  0  0
  9 46  1  1  0  0  0
 11 10  1  6  0  0  0
 11  8  1  0  0  0  0
 11  3  1  0  0  0  0
 12 35  1  1  0  0  0
 12  7  1  0  0  0  0
 13  9  1  0  0  0  0
 14  5  1  0  0  0  0
 14 15  1  0  0  0  0
 14 13  1  0  0  0  0
 15 13  1  0  0  0  0
 15  9  1  0  0  0  0
 16 10  1  0  0  0  0
 16  1  1  0  0  0  0
 17 18  1  0  0  0  0
 17  1  1  0  0  0  0
 19 18  1  0  0  0  0
 19 20  1  0  0  0  0
 20 22  1  0  0  0  0
 22 21  1  0  0  0  0
 23 22  2  0  0  0  0
 24 20  1  0  0  0  0
 24 30  1  0  0  0  0
 25 30  1  0  0  0  0
 27 26  2  0  0  0  0
 28 25  2  0  0  0  0
 29 25  1  0  0  0  0
 29 31  1  0  0  0  0
 30 27  1  0  0  0  0
 31 26  1  0  0  0  0
 31 34  1  0  0  0  0
 32 34  1  0  0  0  0
 34 33  2  0  0  0  0
 36 35  1  0  0  0  0
 37 36  1  0  0  0  0
 39 38  2  0  0  0  0
 39 37  1  0  0  0  0
 40 39  1  0  0  0  0
 41 43  1  0  0  0  0
 42 43  1  0  0  0  0
 42 40  1  0  0  0  0
 43 40  1  0  0  0  0
 44 42  1  0  0  0  0
 45 44  1  0  0  0  0
 45 42  1  0  0  0  0
 46 47  1  0  0  0  0
 47 48  1  0  0  0  0
 48 49  1  0  0  0  0
 49 50  1  0  0  0  0
 50 52  1  0  0  0  0
 50 51  1  0  0  0  0
 53 54  2  0  0  0  0
 54 57  1  0  0  0  0
 54 52  1  0  0  0  0
 55 59  1  0  0  0  0
 56 62  1  0  0  0  0
 56 57  1  0  0  0  0
 57 55  1  0  0  0  0
 57 61  1  0  0  0  0
 58 56  1  0  0  0  0
 58 60  1  0  0  0  0
 60 55  1  0  0  0  0
 63 62  1  0  0  0  0
 64 63  1  0  0  0  0
M  END
>  <MODEL>
9

>  <REMARK>
 VINA RESULT:      -5.8      3.427      8.464
  Name = 
  21 active torsions:
  status: ('A' for Active; 'I' for Inactive)
    1  A    between atoms: C_1  and  N_27
    2  A    between atoms: C_1  and  C_59
    3  A    between atoms: C_2  and  C_12
    4  A    between atoms: C_2  and  C_22
    5  A    between atoms: C_3  and  N_23
    6  A    between atoms: C_3  and  C_49
    7  A    between atoms: N_4  and  C_49
    8  A    between atoms: C_8  and  C_44
    9  A    between atoms: C_9  and  C_35
   10  A    between atoms: C_9  and  C_54
   11  A    between atoms: N_11  and  C_20
   12  A    between atoms: C_17  and  C_43
   13  A    between atoms: CA_18  and  N_23
   14  A    between atoms: CA_18  and  C_42
   15  A    between atoms: CA_18  and  C_47
   16  A    between atoms: C_20  and  C_21
   17  A    between atoms: C_21  and  C_45
   18  A    between atoms: C_42  and  C_61
   19  A    between atoms: C_51  and  C_54
   20  A    between atoms: C_51  and  C_59
   21  A    between atoms: C_62  and  C_63
                            x       y       z     vdW  Elec       q    Type
                         _______ _______ _______ _____ _____    ______ ____

>  <TORSDO>
F 21

$$$$
