=
 OpenBabel10222421293D

 34 37  0  0  1  0  0  0  0  0999 V2000
  189.6000  177.1970  140.9720 C   0  0  0  0  0  0  0  0  0  0  0  0
  188.1620  177.1220  142.9700 C   0  0  1  0  0  3  0  0  0  0  0  0
  187.4470  178.3700  142.3980 C   0  0  1  0  0  3  0  0  0  0  0  0
  188.1820  179.0870  141.4270 O   0  0  0  0  0  0  0  0  0  0  0  0
  189.3990  176.6960  142.2070 C   0  0  0  0  0  0  0  0  0  0  0  0
  188.6700  178.1860  140.5290 N   0  0  0  0  0  2  0  0  0  0  0  0
  190.2260  175.5860  142.7750 C   0  0  0  0  0  1  0  0  0  0  0  0
  187.4370  178.1350  147.7030 C   0  0  0  0  0  0  0  0  0  0  0  0
  186.0900  178.5110  147.5390 C   0  0  0  0  0  3  0  0  0  0  0  0
  187.5540  177.6970  145.3300 C   0  0  0  0  0  0  0  0  0  0  0  0
  188.4400  177.3010  144.3940 N   0  0  0  0  0  0  0  0  0  0  0  0
  189.4520  177.3420  146.3790 C   0  0  0  0  0  0  0  0  0  0  0  0
  186.2180  178.0540  145.1390 C   0  0  0  0  0  3  0  0  0  0  0  0
  190.4320  177.2410  147.3590 O   0  0  0  0  0  1  0  0  0  0  0  0
  188.1430  177.7320  146.5670 C   0  0  0  0  0  0  0  0  0  0  0  0
  189.6210  177.0720  145.0240 C   0  0  0  0  0  3  0  0  0  0  0  0
  185.4720  178.4670  146.2630 C   0  0  0  0  0  0  0  0  0  0  0  0
  188.0270  178.1580  148.9590 O   0  0  0  0  0  1  0  0  0  0  0  0
  184.1280  178.8090  146.0960 O   0  0  0  0  0  0  0  0  0  0  0  0
  183.5270  178.9650  144.8160 C   0  0  0  0  0  1  0  0  0  0  0  0
  190.4970  175.7730  139.0640 N   0  0  0  0  0  2  0  0  0  0  0  0
  191.8280  177.3240  140.1770 O   0  0  0  0  0  0  0  0  0  0  0  0
  190.6910  176.7900  140.0530 C   0  0  0  0  0  0  0  0  0  0  0  0
  191.5560  175.2700  138.2920 N   0  0  0  0  0  2  0  0  0  0  0  0
  191.0460  175.0410  136.9490 C   0  0  2  0  0  3  0  0  0  0  0  0
  190.5150  176.2330  136.4270 O   0  0  0  0  0  0  0  0  0  0  0  0
  190.2560  175.9830  135.0650 C   0  0  0  0  0  2  0  0  0  0  0  0
  188.8020  174.3180  136.1870 N   0  0  0  0  0  2  0  0  0  0  0  0
  189.9820  173.9290  136.9610 C   0  0  0  0  0  2  0  0  0  0  0  0
  189.2050  174.8740  134.8880 C   0  0  0  0  0  2  0  0  0  0  0  0
  186.1040  178.0610  141.9230 N   0  0  0  0  0  2  0  0  0  0  0  0
  185.4190  179.3320  141.6900 C   0  0  0  0  0  2  0  0  0  0  0  0
  185.0360  179.4330  140.2920 N   0  0  0  0  0  2  0  0  0  0  0  0
  183.9200  178.5230  140.0650 C   0  0  0  0  0  1  0  0  0  0  0  0
  1  5  2  0  0  0  0
  2 11  1  1  0  0  0
  3 31  1  6  0  0  0
  3  2  1  0  0  0  0
  4  3  1  0  0  0  0
  5  7  1  0  0  0  0
  5  2  1  0  0  0  0
  6  1  1  0  0  0  0
  6  4  1  0  0  0  0
  8 18  1  0  0  0  0
  9  8  1  0  0  0  0
 10 15  1  0  0  0  0
 11 16  1  0  0  0  0
 11 10  1  0  0  0  0
 12 15  1  0  0  0  0
 12 14  1  0  0  0  0
 13 10  2  0  0  0  0
 13 17  1  0  0  0  0
 15  8  2  0  0  0  0
 16 12  2  0  0  0  0
 17  9  2  0  0  0  0
 19 17  1  0  0  0  0
 20 19  1  0  0  0  0
 21 23  1  0  0  0  0
 23 22  2  0  0  0  0
 23  1  1  0  0  0  0
 24 21  1  0  0  0  0
 25 29  1  0  0  0  0
 25 24  1  1  0  0  0
 26 25  1  0  0  0  0
 27 26  1  0  0  0  0
 28 29  1  0  0  0  0
 30 27  1  0  0  0  0
 30 28  1  0  0  0  0
 32 31  1  0  0  0  0
 33 32  1  0  0  0  0
 34 33  1  0  0  0  0
M  END
>  <MODEL>
1

>  <REMARK>
 VINA RESULT:      -9.2      0.000      0.000
  Name = 
  8 active torsions:
  status: ('A' for Active; 'I' for Inactive)
    1  A    between atoms: C_2  and  C_33
    2  A    between atoms: C_3  and  N_20
    3  A    between atoms: N_7  and  N_20
    4  A    between atoms: N_9  and  C_11
    5  A    between atoms: C_10  and  N_13
    6  A    between atoms: C_10  and  N_31
    7  A    between atoms: C_17  and  N_31
    8  A    between atoms: O_19  and  C_29
                            x       y       z     vdW  Elec       q    Type
                         _______ _______ _______ _____ _____    ______ ____

>  <TORSDO>
F 8

$$$$
=
 OpenBabel10222421293D

 34 37  0  0  1  0  0  0  0  0999 V2000
  189.9180  176.7880  140.8560 C   0  0  0  0  0  0  0  0  0  0  0  0
  188.8550  177.8860  142.7860 C   0  0  1  0  0  3  0  0  0  0  0  0
  189.4990  176.7820  143.6610 C   0  0  1  0  0  3  0  0  0  0  0  0
  189.8970  175.6210  142.9600 O   0  0  0  0  0  0  0  0  0  0  0  0
  189.0100  177.6810  141.2930 C   0  0  0  0  0  0  0  0  0  0  0  0
  190.5890  176.0210  141.8570 N   0  0  0  0  0  2  0  0  0  0  0  0
  188.2960  178.6250  140.3790 C   0  0  0  0  0  1  0  0  0  0  0  0
  184.8910  178.4850  145.5940 C   0  0  0  0  0  0  0  0  0  0  0  0
  185.5870  178.3580  146.8110 C   0  0  0  0  0  3  0  0  0  0  0  0
  186.9790  178.1690  144.4210 C   0  0  0  0  0  0  0  0  0  0  0  0
  187.4560  178.0830  143.1620 N   0  0  0  0  0  0  0  0  0  0  0  0
  185.2560  178.4270  143.0830 C   0  0  0  0  0  0  0  0  0  0  0  0
  187.6970  178.0490  145.6130 C   0  0  0  0  0  3  0  0  0  0  0  0
  183.9700  178.6140  142.5900 O   0  0  0  0  0  1  0  0  0  0  0  0
  185.6250  178.3840  144.4100 C   0  0  0  0  0  0  0  0  0  0  0  0
  186.4050  178.2450  142.3190 C   0  0  0  0  0  3  0  0  0  0  0  0
  186.9900  178.1460  146.8290 C   0  0  0  0  0  0  0  0  0  0  0  0
  183.5220  178.7160  145.5850 O   0  0  0  0  0  1  0  0  0  0  0  0
  187.6930  178.0480  148.0310 O   0  0  0  0  0  0  0  0  0  0  0  0
  189.1120  178.1220  148.1020 C   0  0  0  0  0  1  0  0  0  0  0  0
  191.6230  176.6860  138.9690 N   0  0  0  0  0  2  0  0  0  0  0  0
  189.3590  176.2920  138.6080 O   0  0  0  0  0  0  0  0  0  0  0  0
  190.2750  176.5590  139.4340 C   0  0  0  0  0  0  0  0  0  0  0  0
  191.9530  176.6250  137.6070 N   0  0  0  0  0  2  0  0  0  0  0  0
  193.0380  175.6660  137.4640 C   0  0  2  0  0  3  0  0  0  0  0  0
  193.9700  175.8360  138.5020 O   0  0  0  0  0  0  0  0  0  0  0  0
  194.8510  174.7400  138.4210 C   0  0  0  0  0  2  0  0  0  0  0  0
  195.1740  175.8340  136.2200 N   0  0  0  0  0  2  0  0  0  0  0  0
  193.7150  175.8230  136.0910 C   0  0  0  0  0  2  0  0  0  0  0  0
  195.6170  174.7340  137.0870 C   0  0  0  0  0  2  0  0  0  0  0  0
  190.5840  177.3010  144.4840 N   0  0  0  0  0  2  0  0  0  0  0  0
  191.0890  176.1920  145.2920 C   0  0  0  0  0  2  0  0  0  0  0  0
  191.9640  176.7030  146.3340 N   0  0  0  0  0  2  0  0  0  0  0  0
  192.0330  175.7030  147.3930 C   0  0  0  0  0  1  0  0  0  0  0  0
  1  5  2  0  0  0  0
  1  6  1  0  0  0  0
  2 11  1  6  0  0  0
  2  3  1  0  0  0  0
  3 31  1  6  0  0  0
  4  3  1  0  0  0  0
  5  2  1  0  0  0  0
  6  4  1  0  0  0  0
  7  5  1  0  0  0  0
  8  9  1  0  0  0  0
  9 17  2  0  0  0  0
 10 13  2  0  0  0  0
 11 10  1  0  0  0  0
 12 15  1  0  0  0  0
 13 17  1  0  0  0  0
 14 12  1  0  0  0  0
 15 10  1  0  0  0  0
 15  8  2  0  0  0  0
 16 12  2  0  0  0  0
 16 11  1  0  0  0  0
 17 19  1  0  0  0  0
 18  8  1  0  0  0  0
 19 20  1  0  0  0  0
 21 23  1  0  0  0  0
 22 23  2  0  0  0  0
 23  1  1  0  0  0  0
 24 21  1  0  0  0  0
 25 24  1  1  0  0  0
 25 26  1  0  0  0  0
 27 26  1  0  0  0  0
 28 30  1  0  0  0  0
 29 28  1  0  0  0  0
 29 25  1  0  0  0  0
 30 27  1  0  0  0  0
 31 32  1  0  0  0  0
 32 33  1  0  0  0  0
 33 34  1  0  0  0  0
M  END
>  <MODEL>
2

>  <REMARK>
 VINA RESULT:      -8.4      2.318      4.777
  Name = 
  8 active torsions:
  status: ('A' for Active; 'I' for Inactive)
    1  A    between atoms: C_2  and  C_33
    2  A    between atoms: C_3  and  N_20
    3  A    between atoms: N_7  and  N_20
    4  A    between atoms: N_9  and  C_11
    5  A    between atoms: C_10  and  N_13
    6  A    between atoms: C_10  and  N_31
    7  A    between atoms: C_17  and  N_31
    8  A    between atoms: O_19  and  C_29
                            x       y       z     vdW  Elec       q    Type
                         _______ _______ _______ _____ _____    ______ ____

>  <TORSDO>
F 8

$$$$
=
 OpenBabel10222421293D

 34 37  0  0  1  0  0  0  0  0999 V2000
  189.8470  176.8370  141.2540 C   0  0  0  0  0  0  0  0  0  0  0  0
  188.1200  177.7870  142.7300 C   0  0  1  0  0  3  0  0  0  0  0  0
  188.3070  176.5310  143.6160 C   0  0  1  0  0  3  0  0  0  0  0  0
  188.9190  175.4310  142.9720 O   0  0  0  0  0  0  0  0  0  0  0  0
  188.8700  177.7500  141.4140 C   0  0  0  0  0  0  0  0  0  0  0  0
  190.0170  175.8960  142.3150 N   0  0  0  0  0  2  0  0  0  0  0  0
  188.6300  178.8600  140.4400 C   0  0  0  0  0  1  0  0  0  0  0  0
  183.4680  178.8970  143.7700 C   0  0  0  0  0  0  0  0  0  0  0  0
  183.6680  178.9560  145.1620 C   0  0  0  0  0  3  0  0  0  0  0  0
  185.8080  178.3610  143.5030 C   0  0  0  0  0  0  0  0  0  0  0  0
  186.6980  178.0660  142.5340 N   0  0  0  0  0  0  0  0  0  0  0  0
  184.7060  178.4290  141.6040 C   0  0  0  0  0  0  0  0  0  0  0  0
  186.0390  178.4220  144.8790 C   0  0  0  0  0  3  0  0  0  0  0  0
  183.7010  178.5560  140.6530 O   0  0  0  0  0  1  0  0  0  0  0  0
  184.5690  178.5940  142.9650 C   0  0  0  0  0  0  0  0  0  0  0  0
  186.0360  178.1070  141.3500 C   0  0  0  0  0  3  0  0  0  0  0  0
  184.9510  178.7260  145.7230 C   0  0  0  0  0  0  0  0  0  0  0  0
  182.2150  179.1460  143.2260 O   0  0  0  0  0  1  0  0  0  0  0  0
  185.1650  178.8120  147.1010 O   0  0  0  0  0  0  0  0  0  0  0  0
  186.4450  178.6280  147.6940 C   0  0  0  0  0  1  0  0  0  0  0  0
  190.4680  175.8780  138.9800 N   0  0  0  0  0  2  0  0  0  0  0  0
  191.8150  177.4270  140.0750 O   0  0  0  0  0  0  0  0  0  0  0  0
  190.7500  176.7500  140.0800 C   0  0  0  0  0  0  0  0  0  0  0  0
  191.3850  175.6690  137.9380 N   0  0  0  0  0  2  0  0  0  0  0  0
  190.6390  175.7040  136.6900 C   0  0  2  0  0  3  0  0  0  0  0  0
  190.0970  176.9850  136.4880 O   0  0  0  0  0  0  0  0  0  0  0  0
  189.5950  176.9960  135.1730 C   0  0  0  0  0  2  0  0  0  0  0  0
  188.2600  175.1930  136.2260 N   0  0  0  0  0  2  0  0  0  0  0  0
  189.5310  174.6370  136.6960 C   0  0  0  0  0  2  0  0  0  0  0  0
  188.4660  175.9660  134.9940 C   0  0  0  0  0  2  0  0  0  0  0  0
  188.9730  176.8440  144.8750 N   0  0  0  0  0  2  0  0  0  0  0  0
  189.6070  178.1530  144.7200 C   0  0  0  0  0  2  0  0  0  0  0  0
  191.0510  178.0090  144.7960 N   0  0  0  0  0  2  0  0  0  0  0  0
  191.3460  176.9200  145.7200 C   0  0  0  0  0  1  0  0  0  0  0  0
  1  5  2  0  0  0  0
  1  6  1  0  0  0  0
  2 11  1  6  0  0  0
  2  3  1  0  0  0  0
  3 31  1  1  0  0  0
  4  3  1  0  0  0  0
  5  2  1  0  0  0  0
  6  4  1  0  0  0  0
  7  5  1  0  0  0  0
  8  9  1  0  0  0  0
  9 17  2  0  0  0  0
 10 13  2  0  0  0  0
 11 10  1  0  0  0  0
 12 15  1  0  0  0  0
 13 17  1  0  0  0  0
 14 12  1  0  0  0  0
 15 10  1  0  0  0  0
 15  8  2  0  0  0  0
 16 12  2  0  0  0  0
 16 11  1  0  0  0  0
 17 19  1  0  0  0  0
 18  8  1  0  0  0  0
 19 20  1  0  0  0  0
 21 23  1  0  0  0  0
 22 23  2  0  0  0  0
 23  1  1  0  0  0  0
 24 21  1  0  0  0  0
 25 29  1  0  0  0  0
 25 24  1  1  0  0  0
 26 25  1  0  0  0  0
 27 26  1  0  0  0  0
 28 29  1  0  0  0  0
 30 27  1  0  0  0  0
 30 28  1  0  0  0  0
 32 33  1  0  0  0  0
 32 31  1  0  0  0  0
 33 34  1  0  0  0  0
M  END
>  <MODEL>
3

>  <REMARK>
 VINA RESULT:      -8.4      1.777      4.175
  Name = 
  8 active torsions:
  status: ('A' for Active; 'I' for Inactive)
    1  A    between atoms: C_2  and  C_33
    2  A    between atoms: C_3  and  N_20
    3  A    between atoms: N_7  and  N_20
    4  A    between atoms: N_9  and  C_11
    5  A    between atoms: C_10  and  N_13
    6  A    between atoms: C_10  and  N_31
    7  A    between atoms: C_17  and  N_31
    8  A    between atoms: O_19  and  C_29
                            x       y       z     vdW  Elec       q    Type
                         _______ _______ _______ _____ _____    ______ ____

>  <TORSDO>
F 8

$$$$
=
 OpenBabel10222421293D

 34 37  0  0  1  0  0  0  0  0999 V2000
  190.0450  176.7840  141.0880 C   0  0  0  0  0  0  0  0  0  0  0  0
  188.9200  177.8710  142.9890 C   0  0  1  0  0  3  0  0  0  0  0  0
  189.5690  176.7870  143.8840 C   0  0  1  0  0  3  0  0  0  0  0  0
  190.0050  175.6300  143.2000 O   0  0  0  0  0  0  0  0  0  0  0  0
  189.1090  177.6600  141.5010 C   0  0  0  0  0  0  0  0  0  0  0  0
  190.7110  176.0380  142.1080 N   0  0  0  0  0  2  0  0  0  0  0  0
  188.3940  178.5840  140.5660 C   0  0  0  0  0  1  0  0  0  0  0  0
  184.8970  178.4860  145.7090 C   0  0  0  0  0  0  0  0  0  0  0  0
  185.5780  178.4460  146.9400 C   0  0  0  0  0  3  0  0  0  0  0  0
  187.0110  178.1780  144.5820 C   0  0  0  0  0  0  0  0  0  0  0  0
  187.5100  178.0420  143.3360 N   0  0  0  0  0  0  0  0  0  0  0  0
  185.3010  178.3070  143.2090 C   0  0  0  0  0  0  0  0  0  0  0  0
  187.7150  178.1440  145.7880 C   0  0  0  0  0  3  0  0  0  0  0  0
  184.0170  178.4250  142.6900 O   0  0  0  0  0  1  0  0  0  0  0  0
  185.6520  178.3460  144.5410 C   0  0  0  0  0  0  0  0  0  0  0  0
  186.4670  178.1230  142.4710 C   0  0  0  0  0  3  0  0  0  0  0  0
  186.9870  178.2820  146.9870 C   0  0  0  0  0  0  0  0  0  0  0  0
  183.5210  178.6700  145.6700 O   0  0  0  0  0  1  0  0  0  0  0  0
  187.6740  178.2710  148.2030 O   0  0  0  0  0  0  0  0  0  0  0  0
  189.0910  178.1690  148.2850 C   0  0  0  0  0  1  0  0  0  0  0  0
  189.6240  175.7710  138.7920 N   0  0  0  0  0  2  0  0  0  0  0  0
  191.5300  177.0230  139.2580 O   0  0  0  0  0  0  0  0  0  0  0  0
  190.4350  176.5540  139.6750 C   0  0  0  0  0  0  0  0  0  0  0  0
  190.0520  175.4170  137.5030 N   0  0  0  0  0  2  0  0  0  0  0  0
  189.1010  175.9820  136.5590 C   0  0  2  0  0  3  0  0  0  0  0  0
  189.5840  177.2050  136.0620 O   0  0  0  0  0  0  0  0  0  0  0  0
  188.7270  177.5640  135.0040 C   0  0  0  0  0  2  0  0  0  0  0  0
  187.1720  177.4920  136.9330 N   0  0  0  0  0  2  0  0  0  0  0  0
  187.7270  176.1700  137.2270 C   0  0  0  0  0  2  0  0  0  0  0  0
  187.2870  177.7850  135.4980 C   0  0  0  0  0  2  0  0  0  0  0  0
  190.6260  177.3340  144.7260 N   0  0  0  0  0  2  0  0  0  0  0  0
  191.1500  176.2370  145.5380 C   0  0  0  0  0  2  0  0  0  0  0  0
  191.9360  176.7730  146.6370 N   0  0  0  0  0  2  0  0  0  0  0  0
  192.2020  175.6850  147.5710 C   0  0  0  0  0  1  0  0  0  0  0  0
  1  5  2  0  0  0  0
  1  6  1  0  0  0  0
  2 11  1  6  0  0  0
  2  3  1  0  0  0  0
  3 31  1  6  0  0  0
  4  3  1  0  0  0  0
  5  2  1  0  0  0  0
  6  4  1  0  0  0  0
  7  5  1  0  0  0  0
  8  9  1  0  0  0  0
  9 17  2  0  0  0  0
 10 13  2  0  0  0  0
 11 10  1  0  0  0  0
 12 15  1  0  0  0  0
 13 17  1  0  0  0  0
 14 12  1  0  0  0  0
 15 10  1  0  0  0  0
 15  8  2  0  0  0  0
 16 12  2  0  0  0  0
 16 11  1  0  0  0  0
 17 19  1  0  0  0  0
 18  8  1  0  0  0  0
 19 20  1  0  0  0  0
 21 23  1  0  0  0  0
 22 23  2  0  0  0  0
 23  1  1  0  0  0  0
 24 21  1  0  0  0  0
 25 29  1  0  0  0  0
 25 24  1  1  0  0  0
 26 25  1  0  0  0  0
 27 30  1  0  0  0  0
 27 26  1  0  0  0  0
 28 29  1  0  0  0  0
 30 28  1  0  0  0  0
 31 32  1  0  0  0  0
 32 33  1  0  0  0  0
 33 34  1  0  0  0  0
M  END
>  <MODEL>
4

>  <REMARK>
 VINA RESULT:      -8.4      2.076      4.403
  Name = 
  8 active torsions:
  status: ('A' for Active; 'I' for Inactive)
    1  A    between atoms: C_2  and  C_33
    2  A    between atoms: C_3  and  N_20
    3  A    between atoms: N_7  and  N_20
    4  A    between atoms: N_9  and  C_11
    5  A    between atoms: C_10  and  N_13
    6  A    between atoms: C_10  and  N_31
    7  A    between atoms: C_17  and  N_31
    8  A    between atoms: O_19  and  C_29
                            x       y       z     vdW  Elec       q    Type
                         _______ _______ _______ _____ _____    ______ ____

>  <TORSDO>
F 8

$$$$
=
 OpenBabel10222421293D

 34 37  0  0  1  0  0  0  0  0999 V2000
  189.6030  177.0370  140.5480 C   0  0  0  0  0  0  0  0  0  0  0  0
  188.5440  177.0540  142.7710 C   0  0  1  0  0  3  0  0  0  0  0  0
  187.7860  178.3220  142.3070 C   0  0  1  0  0  3  0  0  0  0  0  0
  188.3620  178.9920  141.2030 O   0  0  0  0  0  0  0  0  0  0  0  0
  189.6080  176.5650  141.8100 C   0  0  0  0  0  0  0  0  0  0  0  0
  188.6470  178.0570  140.2550 N   0  0  0  0  0  2  0  0  0  0  0  0
  190.4810  175.4320  142.2480 C   0  0  0  0  0  1  0  0  0  0  0  0
  188.6770  177.9770  147.5760 C   0  0  0  0  0  0  0  0  0  0  0  0
  187.3000  178.2490  147.6830 C   0  0  0  0  0  3  0  0  0  0  0  0
  188.3650  177.5650  145.2160 C   0  0  0  0  0  0  0  0  0  0  0  0
  189.0790  177.2450  144.1180 N   0  0  0  0  0  0  0  0  0  0  0  0
  190.4510  177.3510  145.8710 C   0  0  0  0  0  0  0  0  0  0  0  0
  186.9940  177.8190  145.2940 C   0  0  0  0  0  3  0  0  0  0  0  0
  191.6070  177.3190  146.6410 O   0  0  0  0  0  1  0  0  0  0  0  0
  189.1780  177.6370  146.3170 C   0  0  0  0  0  0  0  0  0  0  0  0
  190.3730  177.1040  144.5030 C   0  0  0  0  0  3  0  0  0  0  0  0
  186.4520  178.1660  146.5490 C   0  0  0  0  0  0  0  0  0  0  0  0
  189.4970  178.0370  148.6940 O   0  0  0  0  0  1  0  0  0  0  0  0
  185.0790  178.4050  146.6520 O   0  0  0  0  0  0  0  0  0  0  0  0
  184.2790  178.7880  145.5400 C   0  0  0  0  0  1  0  0  0  0  0  0
  191.8690  176.9710  139.3920 N   0  0  0  0  0  2  0  0  0  0  0  0
  190.0190  175.8420  138.5460 O   0  0  0  0  0  0  0  0  0  0  0  0
  190.4960  176.5710  139.4590 C   0  0  0  0  0  0  0  0  0  0  0  0
  192.6830  176.6660  138.2910 N   0  0  0  0  0  2  0  0  0  0  0  0
  193.3780  175.4240  138.5930 C   0  0  2  0  0  3  0  0  0  0  0  0
  194.7670  175.6150  138.5040 O   0  0  0  0  0  0  0  0  0  0  0  0
  195.3580  174.4480  139.0250 C   0  0  0  0  0  2  0  0  0  0  0  0
  194.0620  173.5640  137.1050 N   0  0  0  0  0  2  0  0  0  0  0  0
  192.9190  174.3060  137.6410 C   0  0  0  0  0  2  0  0  0  0  0  0
  194.9910  173.2110  138.1870 C   0  0  0  0  0  2  0  0  0  0  0  0
  186.3690  178.0600  142.0860 N   0  0  0  0  0  2  0  0  0  0  0  0
  185.6990  179.3550  141.9660 C   0  0  0  0  0  2  0  0  0  0  0  0
  185.0660  179.4610  140.6620 N   0  0  0  0  0  2  0  0  0  0  0  0
  183.7760  178.7860  140.7330 C   0  0  0  0  0  1  0  0  0  0  0  0
  1  5  2  0  0  0  0
  2 11  1  1  0  0  0
  3 31  1  6  0  0  0
  3  2  1  0  0  0  0
  4  3  1  0  0  0  0
  5  7  1  0  0  0  0
  5  2  1  0  0  0  0
  6  1  1  0  0  0  0
  6  4  1  0  0  0  0
  8  9  1  0  0  0  0
  8 18  1  0  0  0  0
 10 13  2  0  0  0  0
 10 15  1  0  0  0  0
 11 16  1  0  0  0  0
 11 10  1  0  0  0  0
 12 15  1  0  0  0  0
 12 14  1  0  0  0  0
 13 17  1  0  0  0  0
 15  8  2  0  0  0  0
 16 12  2  0  0  0  0
 17 19  1  0  0  0  0
 17  9  2  0  0  0  0
 20 19  1  0  0  0  0
 21 23  1  0  0  0  0
 22 23  2  0  0  0  0
 23  1  1  0  0  0  0
 24 21  1  0  0  0  0
 25 24  1  6  0  0  0
 26 25  1  0  0  0  0
 26 27  1  0  0  0  0
 28 29  1  0  0  0  0
 28 30  1  0  0  0  0
 29 25  1  0  0  0  0
 30 27  1  0  0  0  0
 32 31  1  0  0  0  0
 33 34  1  0  0  0  0
 33 32  1  0  0  0  0
M  END
>  <MODEL>
5

>  <REMARK>
 VINA RESULT:      -8.0      1.815      2.389
  Name = 
  8 active torsions:
  status: ('A' for Active; 'I' for Inactive)
    1  A    between atoms: C_2  and  C_33
    2  A    between atoms: C_3  and  N_20
    3  A    between atoms: N_7  and  N_20
    4  A    between atoms: N_9  and  C_11
    5  A    between atoms: C_10  and  N_13
    6  A    between atoms: C_10  and  N_31
    7  A    between atoms: C_17  and  N_31
    8  A    between atoms: O_19  and  C_29
                            x       y       z     vdW  Elec       q    Type
                         _______ _______ _______ _____ _____    ______ ____

>  <TORSDO>
F 8

$$$$
=
 OpenBabel10222421293D

 34 37  0  0  1  0  0  0  0  0999 V2000
  190.3040  176.8360  140.1520 C   0  0  0  0  0  0  0  0  0  0  0  0
  188.8150  178.1660  141.5920 C   0  0  1  0  0  3  0  0  0  0  0  0
  189.2140  177.2100  142.7430 C   0  0  1  0  0  3  0  0  0  0  0  0
  189.7580  175.9730  142.3300 O   0  0  0  0  0  0  0  0  0  0  0  0
  189.3260  177.7590  140.2260 C   0  0  0  0  0  0  0  0  0  0  0  0
  190.7020  176.2320  141.3830 N   0  0  0  0  0  2  0  0  0  0  0  0
  188.8670  178.5500  139.0420 C   0  0  0  0  0  1  0  0  0  0  0  0
  184.2250  178.5970  143.2360 C   0  0  0  0  0  0  0  0  0  0  0  0
  184.5460  178.2860  144.5700 C   0  0  0  0  0  3  0  0  0  0  0  0
  186.5560  178.3310  142.6610 C   0  0  0  0  0  0  0  0  0  0  0  0
  187.3680  178.3810  141.5860 N   0  0  0  0  0  0  0  0  0  0  0  0
  185.2840  178.8350  140.9420 C   0  0  0  0  0  0  0  0  0  0  0  0
  186.9060  178.0300  143.9790 C   0  0  0  0  0  3  0  0  0  0  0  0
  184.1920  179.1410  140.1390 O   0  0  0  0  0  1  0  0  0  0  0  0
  185.2620  178.6090  142.3010 C   0  0  0  0  0  0  0  0  0  0  0  0
  186.6010  178.6950  140.5110 C   0  0  0  0  0  3  0  0  0  0  0  0
  185.8850  178.0070  144.9510 C   0  0  0  0  0  0  0  0  0  0  0  0
  182.9160  178.8910  142.8760 O   0  0  0  0  0  1  0  0  0  0  0  0
  186.2180  177.7280  146.2780 O   0  0  0  0  0  0  0  0  0  0  0  0
  186.3800  178.7440  147.2610 C   0  0  0  0  0  1  0  0  0  0  0  0
  192.4060  176.5870  138.7400 N   0  0  0  0  0  2  0  0  0  0  0  0
  190.3110  175.9510  137.9550 O   0  0  0  0  0  0  0  0  0  0  0  0
  190.9940  176.4200  138.9060 C   0  0  0  0  0  0  0  0  0  0  0  0
  193.0480  176.3440  137.5160 N   0  0  0  0  0  2  0  0  0  0  0  0
  194.0460  175.3100  137.7460 C   0  0  2  0  0  3  0  0  0  0  0  0
  194.7810  175.6000  138.9090 O   0  0  0  0  0  0  0  0  0  0  0  0
  195.5550  174.4550  139.1790 C   0  0  0  0  0  2  0  0  0  0  0  0
  196.3820  175.1270  136.9410 N   0  0  0  0  0  2  0  0  0  0  0  0
  194.9780  175.1830  136.5290 C   0  0  0  0  0  2  0  0  0  0  0  0
  196.5510  174.1700  138.0430 C   0  0  0  0  0  2  0  0  0  0  0  0
  190.0710  177.8640  143.7240 N   0  0  0  0  0  2  0  0  0  0  0  0
  190.1780  176.9700  144.8760 C   0  0  0  0  0  2  0  0  0  0  0  0
  191.5770  176.7970  145.2340 N   0  0  0  0  0  2  0  0  0  0  0  0
  191.6440  176.5210  146.6640 C   0  0  0  0  0  1  0  0  0  0  0  0
  1  5  2  0  0  0  0
  1  6  1  0  0  0  0
  2 11  1  6  0  0  0
  2  3  1  0  0  0  0
  3 31  1  1  0  0  0
  4  3  1  0  0  0  0
  5  2  1  0  0  0  0
  6  4  1  0  0  0  0
  7  5  1  0  0  0  0
  8  9  1  0  0  0  0
  9 17  2  0  0  0  0
 10 13  2  0  0  0  0
 11 10  1  0  0  0  0
 12 15  1  0  0  0  0
 13 17  1  0  0  0  0
 14 12  1  0  0  0  0
 15 10  1  0  0  0  0
 15  8  2  0  0  0  0
 16 12  2  0  0  0  0
 16 11  1  0  0  0  0
 17 19  1  0  0  0  0
 18  8  1  0  0  0  0
 19 20  1  0  0  0  0
 21 23  1  0  0  0  0
 22 23  2  0  0  0  0
 23  1  1  0  0  0  0
 24 21  1  0  0  0  0
 25 24  1  6  0  0  0
 25 26  1  0  0  0  0
 26 27  1  0  0  0  0
 28 30  1  0  0  0  0
 29 28  1  0  0  0  0
 29 25  1  0  0  0  0
 30 27  1  0  0  0  0
 31 32  1  0  0  0  0
 32 33  1  0  0  0  0
 33 34  1  0  0  0  0
M  END
>  <MODEL>
6

>  <REMARK>
 VINA RESULT:      -7.7      2.590      5.148
  Name = 
  8 active torsions:
  status: ('A' for Active; 'I' for Inactive)
    1  A    between atoms: C_2  and  C_33
    2  A    between atoms: C_3  and  N_20
    3  A    between atoms: N_7  and  N_20
    4  A    between atoms: N_9  and  C_11
    5  A    between atoms: C_10  and  N_13
    6  A    between atoms: C_10  and  N_31
    7  A    between atoms: C_17  and  N_31
    8  A    between atoms: O_19  and  C_29
                            x       y       z     vdW  Elec       q    Type
                         _______ _______ _______ _____ _____    ______ ____

>  <TORSDO>
F 8

$$$$
=
 OpenBabel10222421293D

 34 37  0  0  1  0  0  0  0  0999 V2000
  191.5460  177.3200  141.5380 C   0  0  0  0  0  0  0  0  0  0  0  0
  190.7270  176.5540  139.3460 C   0  0  1  0  0  3  0  0  0  0  0  0
  192.1510  176.8370  138.8090 C   0  0  1  0  0  3  0  0  0  0  0  0
  192.9270  177.7090  139.6060 O   0  0  0  0  0  0  0  0  0  0  0  0
  190.4830  177.0130  140.7680 C   0  0  0  0  0  0  0  0  0  0  0  0
  192.8230  177.2910  140.8980 N   0  0  0  0  0  2  0  0  0  0  0  0
  189.0940  176.9050  141.3110 C   0  0  0  0  0  1  0  0  0  0  0  0
  187.3240  176.6800  135.8300 C   0  0  0  0  0  0  0  0  0  0  0  0
  187.4280  175.3120  135.5140 C   0  0  0  0  0  3  0  0  0  0  0  0
  189.0250  176.3720  137.5170 C   0  0  0  0  0  0  0  0  0  0  0  0
  189.7210  177.0840  138.4270 N   0  0  0  0  0  0  0  0  0  0  0  0
  188.3140  178.4450  137.3620 C   0  0  0  0  0  0  0  0  0  0  0  0
  189.1430  175.0100  137.2330 C   0  0  0  0  0  3  0  0  0  0  0  0
  187.6360  179.5930  136.9710 O   0  0  0  0  0  1  0  0  0  0  0  0
  188.1460  177.1790  136.8430 C   0  0  0  0  0  0  0  0  0  0  0  0
  189.2920  178.3700  138.3490 C   0  0  0  0  0  3  0  0  0  0  0  0
  188.3300  174.4700  136.2150 C   0  0  0  0  0  0  0  0  0  0  0  0
  186.4230  177.4920  135.1550 O   0  0  0  0  0  1  0  0  0  0  0  0
  188.4170  173.1050  135.9300 O   0  0  0  0  0  0  0  0  0  0  0  0
  187.6490  172.1240  136.6180 C   0  0  0  0  0  1  0  0  0  0  0  0
  191.2270  176.6740  143.9780 N   0  0  0  0  0  2  0  0  0  0  0  0
  191.6180  178.8730  143.3250 O   0  0  0  0  0  0  0  0  0  0  0  0
  191.4850  177.6670  142.9790 C   0  0  0  0  0  0  0  0  0  0  0  0
  191.0150  177.0080  145.3240 N   0  0  0  0  0  2  0  0  0  0  0  0
  189.5840  176.9250  145.5730 C   0  0  2  0  0  3  0  0  0  0  0  0
  188.9250  178.0000  144.9520 O   0  0  0  0  0  0  0  0  0  0  0  0
  187.5470  177.7240  145.0470 C   0  0  0  0  0  2  0  0  0  0  0  0
  188.2220  177.8400  147.4290 N   0  0  0  0  0  2  0  0  0  0  0  0
  189.3010  176.9120  147.0850 C   0  0  0  0  0  2  0  0  0  0  0  0
  187.0870  177.6640  146.5130 C   0  0  0  0  0  2  0  0  0  0  0  0
  192.8770  175.6080  138.5090 N   0  0  0  0  0  2  0  0  0  0  0  0
  193.4810  175.7690  137.1870 C   0  0  0  0  0  2  0  0  0  0  0  0
  194.8890  175.4130  137.2450 N   0  0  0  0  0  2  0  0  0  0  0  0
  195.0860  174.5510  138.4050 C   0  0  0  0  0  1  0  0  0  0  0  0
  1 23  1  0  0  0  0
  2 11  1  6  0  0  0
  2  5  1  0  0  0  0
  3 31  1  1  0  0  0
  3  2  1  0  0  0  0
  3  4  1  0  0  0  0
  4  6  1  0  0  0  0
  5  7  1  0  0  0  0
  5  1  2  0  0  0  0
  6  1  1  0  0  0  0
  8 15  1  0  0  0  0
  9  8  2  0  0  0  0
  9 17  1  0  0  0  0
 10 11  1  0  0  0  0
 12 16  2  0  0  0  0
 13 10  1  0  0  0  0
 14 12  1  0  0  0  0
 15 12  1  0  0  0  0
 15 10  2  0  0  0  0
 16 11  1  0  0  0  0
 17 13  2  0  0  0  0
 18  8  1  0  0  0  0
 19 17  1  0  0  0  0
 19 20  1  0  0  0  0
 21 24  1  0  0  0  0
 23 22  2  0  0  0  0
 23 21  1  0  0  0  0
 25 24  1  1  0  0  0
 25 29  1  0  0  0  0
 26 27  1  0  0  0  0
 26 25  1  0  0  0  0
 27 30  1  0  0  0  0
 29 28  1  0  0  0  0
 30 28  1  0  0  0  0
 32 33  1  0  0  0  0
 32 31  1  0  0  0  0
 33 34  1  0  0  0  0
M  END
>  <MODEL>
7

>  <REMARK>
 VINA RESULT:      -7.7      2.853      8.982
  Name = 
  8 active torsions:
  status: ('A' for Active; 'I' for Inactive)
    1  A    between atoms: C_2  and  C_33
    2  A    between atoms: C_3  and  N_20
    3  A    between atoms: N_7  and  N_20
    4  A    between atoms: N_9  and  C_11
    5  A    between atoms: C_10  and  N_13
    6  A    between atoms: C_10  and  N_31
    7  A    between atoms: C_17  and  N_31
    8  A    between atoms: O_19  and  C_29
                            x       y       z     vdW  Elec       q    Type
                         _______ _______ _______ _____ _____    ______ ____

>  <TORSDO>
F 8

$$$$
=
 OpenBabel10222421293D

 34 37  0  0  1  0  0  0  0  0999 V2000
  189.1590  177.2720  141.5510 C   0  0  0  0  0  0  0  0  0  0  0  0
  190.6290  177.6430  139.6110 C   0  0  1  0  0  3  0  0  0  0  0  0
  189.3380  177.8070  138.7710 C   0  0  1  0  0  3  0  0  0  0  0  0
  188.1720  177.2630  139.3560 O   0  0  0  0  0  0  0  0  0  0  0  0
  190.4020  177.1910  141.0390 C   0  0  0  0  0  0  0  0  0  0  0  0
  188.1270  177.6800  140.6520 N   0  0  0  0  0  2  0  0  0  0  0  0
  191.6030  176.8730  141.8720 C   0  0  0  0  0  1  0  0  0  0  0  0
  192.3550  174.0530  136.7670 C   0  0  0  0  0  0  0  0  0  0  0  0
  191.0870  173.5260  136.4570 C   0  0  0  0  0  3  0  0  0  0  0  0
  191.2740  175.7390  138.1170 C   0  0  0  0  0  0  0  0  0  0  0  0
  191.5830  176.7800  138.9160 N   0  0  0  0  0  0  0  0  0  0  0  0
  193.4650  175.8900  138.1210 C   0  0  0  0  0  0  0  0  0  0  0  0
  190.0020  175.2440  137.8190 C   0  0  0  0  0  3  0  0  0  0  0  0
  194.8150  175.6610  137.8840 O   0  0  0  0  0  1  0  0  0  0  0  0
  192.4100  175.1670  137.6070 C   0  0  0  0  0  0  0  0  0  0  0  0
  192.9360  176.8930  138.9290 C   0  0  0  0  0  3  0  0  0  0  0  0
  189.9060  174.1190  136.9740 C   0  0  0  0  0  0  0  0  0  0  0  0
  193.5040  173.4810  136.2380 O   0  0  0  0  0  1  0  0  0  0  0  0
  188.6420  173.6220  136.6480 O   0  0  0  0  0  0  0  0  0  0  0  0
  187.6540  174.4040  135.9880 C   0  0  0  0  0  1  0  0  0  0  0  0
  188.6060  178.0380  143.9140 N   0  0  0  0  0  2  0  0  0  0  0  0
  188.6970  175.7860  143.3360 O   0  0  0  0  0  0  0  0  0  0  0  0
  188.7960  176.9860  142.9610 C   0  0  0  0  0  0  0  0  0  0  0  0
  188.4150  177.7820  145.2800 N   0  0  0  0  0  2  0  0  0  0  0  0
  186.9810  177.7770  145.5250 C   0  0  2  0  0  3  0  0  0  0  0  0
  186.3370  178.6500  144.6320 O   0  0  0  0  0  0  0  0  0  0  0  0
  184.9560  178.4170  144.7830 C   0  0  0  0  0  2  0  0  0  0  0  0
  185.6110  179.1640  147.0540 N   0  0  0  0  0  2  0  0  0  0  0  0
  186.6840  178.1720  146.9830 C   0  0  0  0  0  2  0  0  0  0  0  0
  184.4820  178.7550  146.2070 C   0  0  0  0  0  2  0  0  0  0  0  0
  189.1280  179.1880  138.3570 N   0  0  0  0  0  2  0  0  0  0  0  0
  188.8320  179.1750  136.9250 C   0  0  0  0  0  2  0  0  0  0  0  0
  187.3920  179.1580  136.7220 N   0  0  0  0  0  2  0  0  0  0  0  0
  187.0920  178.1390  135.7230 C   0  0  0  0  0  1  0  0  0  0  0  0
  1 23  1  0  0  0  0
  2 11  1  6  0  0  0
  2  5  1  0  0  0  0
  3 31  1  1  0  0  0
  3  4  1  0  0  0  0
  3  2  1  0  0  0  0
  4  6  1  0  0  0  0
  5  1  2  0  0  0  0
  5  7  1  0  0  0  0
  6  1  1  0  0  0  0
  8 15  1  0  0  0  0
  9  8  2  0  0  0  0
  9 17  1  0  0  0  0
 10 11  1  0  0  0  0
 11 16  1  0  0  0  0
 12 16  2  0  0  0  0
 13 10  1  0  0  0  0
 14 12  1  0  0  0  0
 15 10  2  0  0  0  0
 15 12  1  0  0  0  0
 17 13  2  0  0  0  0
 18  8  1  0  0  0  0
 19 17  1  0  0  0  0
 20 19  1  0  0  0  0
 21 24  1  0  0  0  0
 23 22  2  0  0  0  0
 23 21  1  0  0  0  0
 25 24  1  1  0  0  0
 25 29  1  0  0  0  0
 26 27  1  0  0  0  0
 26 25  1  0  0  0  0
 27 30  1  0  0  0  0
 29 28  1  0  0  0  0
 30 28  1  0  0  0  0
 32 31  1  0  0  0  0
 33 32  1  0  0  0  0
 34 33  1  0  0  0  0
M  END
>  <MODEL>
8

>  <REMARK>
 VINA RESULT:      -7.5      2.467      8.593
  Name = 
  8 active torsions:
  status: ('A' for Active; 'I' for Inactive)
    1  A    between atoms: C_2  and  C_33
    2  A    between atoms: C_3  and  N_20
    3  A    between atoms: N_7  and  N_20
    4  A    between atoms: N_9  and  C_11
    5  A    between atoms: C_10  and  N_13
    6  A    between atoms: C_10  and  N_31
    7  A    between atoms: C_17  and  N_31
    8  A    between atoms: O_19  and  C_29
                            x       y       z     vdW  Elec       q    Type
                         _______ _______ _______ _____ _____    ______ ____

>  <TORSDO>
F 8

$$$$
=
 OpenBabel10222421293D

 34 37  0  0  1  0  0  0  0  0999 V2000
  182.1640  178.8660  142.1590 C   0  0  0  0  0  0  0  0  0  0  0  0
  182.6490  178.6170  139.7580 C   0  0  1  0  0  3  0  0  0  0  0  0
  181.1420  178.8790  139.5130 C   0  0  1  0  0  3  0  0  0  0  0  0
  180.3100  178.6730  140.6370 O   0  0  0  0  0  0  0  0  0  0  0  0
  183.0360  178.4650  141.2140 C   0  0  0  0  0  0  0  0  0  0  0  0
  180.8850  179.3040  141.6980 N   0  0  0  0  0  2  0  0  0  0  0  0
  184.4450  178.0700  141.5270 C   0  0  0  0  0  1  0  0  0  0  0  0
  185.4810  175.9080  136.8270 C   0  0  0  0  0  0  0  0  0  0  0  0
  186.4600  176.9040  136.6530 C   0  0  0  0  0  3  0  0  0  0  0  0
  184.2550  177.4260  138.2500 C   0  0  0  0  0  0  0  0  0  0  0  0
  183.1070  177.4840  138.9550 N   0  0  0  0  0  0  0  0  0  0  0  0
  183.2590  175.4870  137.9800 C   0  0  0  0  0  0  0  0  0  0  0  0
  185.2150  178.4300  138.1040 C   0  0  0  0  0  3  0  0  0  0  0  0
  182.9540  174.1930  137.5760 O   0  0  0  0  0  1  0  0  0  0  0  0
  184.3830  176.2070  137.6380 C   0  0  0  0  0  0  0  0  0  0  0  0
  182.4770  176.2910  138.8040 C   0  0  0  0  0  3  0  0  0  0  0  0
  186.3370  178.1640  137.2930 C   0  0  0  0  0  0  0  0  0  0  0  0
  185.6200  174.6680  136.2170 O   0  0  0  0  0  1  0  0  0  0  0  0
  187.3190  179.1480  137.1500 O   0  0  0  0  0  0  0  0  0  0  0  0
  188.7110  178.8530  137.1560 C   0  0  0  0  0  1  0  0  0  0  0  0
  183.7020  179.3270  144.1330 N   0  0  0  0  0  2  0  0  0  0  0  0
  181.5500  178.4900  144.4160 O   0  0  0  0  0  0  0  0  0  0  0  0
  182.4380  178.8960  143.6170 C   0  0  0  0  0  0  0  0  0  0  0  0
  184.0310  179.2170  145.4920 N   0  0  0  0  0  2  0  0  0  0  0  0
  185.4660  178.9950  145.5770 C   0  0  2  0  0  3  0  0  0  0  0  0
  185.8100  177.8050  144.9120 O   0  0  0  0  0  0  0  0  0  0  0  0
  187.2160  177.7850  144.8470 C   0  0  0  0  0  2  0  0  0  0  0  0
  186.8080  177.8120  147.2920 N   0  0  0  0  0  2  0  0  0  0  0  0
  185.9160  178.9480  147.0480 C   0  0  0  0  0  2  0  0  0  0  0  0
  187.8430  177.7450  146.2510 C   0  0  0  0  0  2  0  0  0  0  0  0
  180.9050  180.1850  138.9110 N   0  0  0  0  0  2  0  0  0  0  0  0
  182.2040  180.7270  138.5160 C   0  0  0  0  0  2  0  0  0  0  0  0
  182.1040  182.1670  138.3490 N   0  0  0  0  0  2  0  0  0  0  0  0
  180.7650  182.4700  137.8570 C   0  0  0  0  0  1  0  0  0  0  0  0
  1 23  1  0  0  0  0
  2 11  1  6  0  0  0
  2  5  1  0  0  0  0
  3 31  1  1  0  0  0
  3  2  1  0  0  0  0
  3  4  1  0  0  0  0
  4  6  1  0  0  0  0
  5  7  1  0  0  0  0
  5  1  2  0  0  0  0
  6  1  1  0  0  0  0
  8 15  1  0  0  0  0
  9  8  2  0  0  0  0
  9 17  1  0  0  0  0
 10 11  1  0  0  0  0
 12 16  2  0  0  0  0
 13 10  1  0  0  0  0
 14 12  1  0  0  0  0
 15 12  1  0  0  0  0
 15 10  2  0  0  0  0
 16 11  1  0  0  0  0
 17 13  2  0  0  0  0
 18  8  1  0  0  0  0
 19 20  1  0  0  0  0
 19 17  1  0  0  0  0
 21 24  1  0  0  0  0
 23 21  1  0  0  0  0
 23 22  2  0  0  0  0
 25 24  1  1  0  0  0
 25 29  1  0  0  0  0
 26 25  1  0  0  0  0
 27 26  1  0  0  0  0
 27 30  1  0  0  0  0
 29 28  1  0  0  0  0
 30 28  1  0  0  0  0
 32 31  1  0  0  0  0
 33 32  1  0  0  0  0
 34 33  1  0  0  0  0
M  END
>  <MODEL>
9

>  <REMARK>
 VINA RESULT:      -7.5      4.003      9.327
  Name = 
  8 active torsions:
  status: ('A' for Active; 'I' for Inactive)
    1  A    between atoms: C_2  and  C_33
    2  A    between atoms: C_3  and  N_20
    3  A    between atoms: N_7  and  N_20
    4  A    between atoms: N_9  and  C_11
    5  A    between atoms: C_10  and  N_13
    6  A    between atoms: C_10  and  N_31
    7  A    between atoms: C_17  and  N_31
    8  A    between atoms: O_19  and  C_29
                            x       y       z     vdW  Elec       q    Type
                         _______ _______ _______ _____ _____    ______ ____

>  <TORSDO>
F 8

$$$$
