=
 OpenBabel10232412343D

 34 38  0  0  1  0  0  0  0  0999 V2000
  183.6710  178.5600  143.1220 N   0  0  0  0  0  0  0  0  0  0  0  0
  188.1640  177.7770  145.6140 C   0  0  0  0  0  0  0  0  0  0  0  0
  191.8830  177.8050  143.2390 C   0  0  0  0  0  2  0  0  0  0  0  0
  186.8540  178.0710  145.1610 C   0  0  0  0  0  0  0  0  0  0  0  0
  189.8240  177.0700  147.4330 C   0  0  0  0  0  2  0  0  0  0  0  0
  185.7090  179.0370  147.1720 N   0  0  0  0  0  0  0  0  0  0  0  0
  183.4270  179.2930  145.2130 N   0  0  0  0  0  0  0  0  0  0  0  0
  191.6470  176.6950  144.2770 C   0  0  0  0  0  2  0  0  0  0  0  0
  185.7620  178.6430  145.8810 C   0  0  0  0  0  0  0  0  0  0  0  0
  190.5920  177.1430  145.2720 C   0  0  2  0  0  3  0  0  0  0  0  0
  186.3060  177.7520  143.5470 S   0  0  0  0  0  0  0  0  0  0  0  0
  184.7870  178.3530  143.8250 C   0  0  0  0  0  0  0  0  0  0  0  0
  186.6070  178.8730  148.1610 C   0  0  0  0  0  3  0  0  0  0  0  0
  182.8540  179.1400  144.0110 N   0  0  0  0  0  0  0  0  0  0  0  0
  190.4500  176.2530  146.3990 N   0  0  0  0  0  2  0  0  0  0  0  0
  187.8260  178.2300  148.0720 C   0  0  0  0  0  3  0  0  0  0  0  0
  189.2270  177.3230  144.5960 C   0  0  2  0  0  3  0  0  0  0  0  0
  189.3520  178.1820  143.2990 C   0  0  1  0  0  3  0  0  0  0  0  0
  190.7430  178.8400  143.1720 C   0  0  0  0  0  2  0  0  0  0  0  0
  188.5120  177.6960  146.9940 C   0  0  0  0  0  0  0  0  0  0  0  0
  184.6550  178.7820  145.0560 C   0  0  0  0  0  0  0  0  0  0  0  0
  189.7510  177.5300  139.6570 C   0  0  0  0  0  0  0  0  0  0  0  0
  189.1060  177.3490  142.0620 C   0  0  0  0  0  0  0  0  0  0  0  0
  190.9190  176.7250  139.8660 N   0  0  0  0  0  2  0  0  0  0  0  0
  189.4460  177.9220  138.5000 O   0  0  0  0  0  0  0  0  0  0  0  0
  189.0790  176.0880  142.1330 O   0  0  0  0  0  0  0  0  0  0  0  0
  188.9890  177.9830  140.7830 N   0  0  0  0  0  2  0  0  0  0  0  0
  192.8760  176.8530  138.5260 C   0  0  0  0  0  2  0  0  0  0  0  0
  191.7640  176.2020  138.8370 C   0  0  0  0  0  0  0  0  0  0  0  0
  191.4500  174.9980  138.1250 N   0  0  0  0  0  2  0  0  0  0  0  0
  190.1550  174.5900  137.7320 N   0  0  0  0  0  2  0  0  0  0  0  0
  189.9330  175.8860  135.7820 O   0  0  0  0  0  0  0  0  0  0  0  0
  188.1450  174.5780  136.3520 O   0  0  0  0  0  1  0  0  0  0  0  0
  189.4380  175.0410  136.5720 C   0  0  0  0  0  0  0  0  0  0  0  0
  1 12  2  0  0  0  0
  1 14  1  0  0  0  0
  2 20  1  0  0  0  0
  3  8  1  0  0  0  0
  4  2  2  0  0  0  0
  4  9  1  0  0  0  0
  6 13  2  0  0  0  0
  9  6  1  0  0  0  0
 10  8  1  6  0  0  0
 10 15  1  0  0  0  0
 11 12  1  0  0  0  0
 11  4  1  0  0  0  0
 12 21  1  0  0  0  0
 14  7  2  0  0  0  0
 15  5  1  0  0  0  0
 16 13  1  0  0  0  0
 17 10  1  0  0  0  0
 17  2  1  1  0  0  0
 18 23  1  6  0  0  0
 18 17  1  0  0  0  0
 19  3  1  0  0  0  0
 19 18  1  0  0  0  0
 20  5  1  0  0  0  0
 20 16  2  0  0  0  0
 21  7  1  0  0  0  0
 21  9  2  0  0  0  0
 22 24  1  0  0  0  0
 22 27  1  0  0  0  0
 23 26  2  0  0  0  0
 25 22  2  0  0  0  0
 27 23  1  0  0  0  0
 28 29  2  0  0  0  0
 29 24  1  0  0  0  0
 30 29  1  0  0  0  0
 31 30  1  0  0  0  0
 32 34  2  0  0  0  0
 33 34  1  0  0  0  0
 34 31  1  0  0  0  0
M  END
>  <MODEL>
1

>  <REMARK>
 VINA RESULT:     -10.3      0.000      0.000
  Name = 
  4 active torsions:
  status: ('A' for Active; 'I' for Inactive)
    1  A    between atoms: N_10  and  C_22
    2  A    between atoms: N_10  and  N_25
    3  A    between atoms: C_12  and  C_28
    4  A    between atoms: N_17  and  C_22
                            x       y       z     vdW  Elec       q    Type
                         _______ _______ _______ _____ _____    ______ ____

>  <TORSDO>
F 4

$$$$
=
 OpenBabel10232412343D

 34 38  0  0  1  0  0  0  0  0999 V2000
  183.9970  178.5240  144.1400 N   0  0  0  0  0  0  0  0  0  0  0  0
  188.8690  177.4660  145.6080 C   0  0  0  0  0  0  0  0  0  0  0  0
  192.0460  177.6760  142.5520 C   0  0  0  0  0  2  0  0  0  0  0  0
  187.5050  177.8150  145.4530 C   0  0  0  0  0  0  0  0  0  0  0  0
  190.8350  176.5770  146.9890 C   0  0  0  0  0  2  0  0  0  0  0  0
  186.8070  178.6020  147.7300 N   0  0  0  0  0  0  0  0  0  0  0  0
  184.1910  179.0620  146.2950 N   0  0  0  0  0  0  0  0  0  0  0  0
  191.9880  176.4780  143.5130 C   0  0  0  0  0  2  0  0  0  0  0  0
  186.5930  178.3290  146.4240 C   0  0  0  0  0  0  0  0  0  0  0  0
  191.1630  176.8420  144.7340 C   0  0  2  0  0  3  0  0  0  0  0  0
  186.6400  177.6520  143.9590 S   0  0  0  0  0  0  0  0  0  0  0  0
  185.2240  178.2400  144.5860 C   0  0  0  0  0  0  0  0  0  0  0  0
  187.8770  178.3380  148.5010 C   0  0  0  0  0  3  0  0  0  0  0  0
  183.3880  179.0270  145.2220 N   0  0  0  0  0  0  0  0  0  0  0  0
  191.2210  175.8530  145.7830 N   0  0  0  0  0  2  0  0  0  0  0  0
  189.0360  177.6930  148.1140 C   0  0  0  0  0  3  0  0  0  0  0  0
  189.6970  177.0980  144.3620 C   0  0  2  0  0  3  0  0  0  0  0  0
  189.5880  178.0720  143.1480 C   0  0  1  0  0  3  0  0  0  0  0  0
  190.9450  178.7250  142.8060 C   0  0  0  0  0  2  0  0  0  0  0  0
  189.4800  177.2540  146.8790 C   0  0  0  0  0  0  0  0  0  0  0  0
  185.3500  178.5550  145.8520 C   0  0  0  0  0  0  0  0  0  0  0  0
  189.4290  177.6210  139.4580 C   0  0  0  0  0  0  0  0  0  0  0  0
  189.0790  177.3600  141.9160 C   0  0  0  0  0  0  0  0  0  0  0  0
  190.4990  176.6660  139.4660 N   0  0  0  0  0  2  0  0  0  0  0  0
  189.0320  178.1240  138.3740 O   0  0  0  0  0  0  0  0  0  0  0  0
  188.8980  176.1100  141.9260 O   0  0  0  0  0  0  0  0  0  0  0  0
  188.8830  178.0870  140.6980 N   0  0  0  0  0  2  0  0  0  0  0  0
  190.5320  175.1220  137.6620 C   0  0  0  0  0  2  0  0  0  0  0  0
  191.1300  176.1140  138.3060 C   0  0  0  0  0  0  0  0  0  0  0  0
  192.3890  176.5950  137.8170 N   0  0  0  0  0  2  0  0  0  0  0  0
  193.6560  176.2610  138.3440 N   0  0  0  0  0  2  0  0  0  0  0  0
  193.9010  174.1210  137.3990 O   0  0  0  0  0  0  0  0  0  0  0  0
  195.5970  174.8430  138.7520 O   0  0  0  0  0  1  0  0  0  0  0  0
  194.3760  175.0390  138.1160 C   0  0  0  0  0  0  0  0  0  0  0  0
  1 12  2  0  0  0  0
  1 14  1  0  0  0  0
  2 20  1  0  0  0  0
  3 19  1  0  0  0  0
  3  8  1  0  0  0  0
  4  2  2  0  0  0  0
  4  9  1  0  0  0  0
  6 13  2  0  0  0  0
  9  6  1  0  0  0  0
 10  8  1  6  0  0  0
 10 15  1  0  0  0  0
 11 12  1  0  0  0  0
 11  4  1  0  0  0  0
 12 21  1  0  0  0  0
 14  7  2  0  0  0  0
 15  5  1  0  0  0  0
 16 13  1  0  0  0  0
 17 10  1  0  0  0  0
 17  2  1  1  0  0  0
 18 23  1  6  0  0  0
 18 17  1  0  0  0  0
 19 18  1  0  0  0  0
 20  5  1  0  0  0  0
 20 16  2  0  0  0  0
 21  7  1  0  0  0  0
 21  9  2  0  0  0  0
 22 24  1  0  0  0  0
 22 27  1  0  0  0  0
 23 26  2  0  0  0  0
 25 22  2  0  0  0  0
 27 23  1  0  0  0  0
 28 29  2  0  0  0  0
 29 24  1  0  0  0  0
 30 29  1  0  0  0  0
 30 31  1  0  0  0  0
 32 34  2  0  0  0  0
 34 31  1  0  0  0  0
 34 33  1  0  0  0  0
M  END
>  <MODEL>
2

>  <REMARK>
 VINA RESULT:     -10.3      1.701      2.172
  Name = 
  4 active torsions:
  status: ('A' for Active; 'I' for Inactive)
    1  A    between atoms: N_10  and  C_22
    2  A    between atoms: N_10  and  N_25
    3  A    between atoms: C_12  and  C_28
    4  A    between atoms: N_17  and  C_22
                            x       y       z     vdW  Elec       q    Type
                         _______ _______ _______ _____ _____    ______ ____

>  <TORSDO>
F 4

$$$$
=
 OpenBabel10232412343D

 34 38  0  0  1  0  0  0  0  0999 V2000
  183.4910  178.4740  142.8480 N   0  0  0  0  0  0  0  0  0  0  0  0
  187.8920  177.7830  145.5250 C   0  0  0  0  0  0  0  0  0  0  0  0
  191.6880  177.6740  143.2780 C   0  0  0  0  0  2  0  0  0  0  0  0
  186.6000  178.0640  145.0150 C   0  0  0  0  0  0  0  0  0  0  0  0
  189.4840  177.1540  147.4300 C   0  0  0  0  0  2  0  0  0  0  0  0
  185.3960  179.1320  146.9380 N   0  0  0  0  0  0  0  0  0  0  0  0
  183.1830  179.3080  144.8930 N   0  0  0  0  0  0  0  0  0  0  0  0
  191.4090  176.6170  144.3590 C   0  0  0  0  0  2  0  0  0  0  0  0
  185.4890  178.6760  145.6690 C   0  0  0  0  0  0  0  0  0  0  0  0
  190.3250  177.1180  145.2960 C   0  0  2  0  0  3  0  0  0  0  0  0
  186.1030  177.6710  143.4000 S   0  0  0  0  0  0  0  0  0  0  0  0
  184.5810  178.2940  143.5980 C   0  0  0  0  0  0  0  0  0  0  0  0
  186.2590  179.0090  147.9630 C   0  0  0  0  0  3  0  0  0  0  0  0
  182.6490  179.1010  143.6800 N   0  0  0  0  0  0  0  0  0  0  0  0
  190.1390  176.2840  146.4580 N   0  0  0  0  0  2  0  0  0  0  0  0
  187.4750  178.3550  147.9460 C   0  0  0  0  0  3  0  0  0  0  0  0
  188.9850  177.2740  144.5660 C   0  0  2  0  0  3  0  0  0  0  0  0
  189.1590  178.0700  143.2340 C   0  0  1  0  0  3  0  0  0  0  0  0
  190.5600  178.7130  143.1240 C   0  0  0  0  0  2  0  0  0  0  0  0
  188.1920  177.7660  146.9180 C   0  0  0  0  0  0  0  0  0  0  0  0
  184.4120  178.7830  144.8020 C   0  0  0  0  0  0  0  0  0  0  0  0
  189.5180  177.3310  139.6050 C   0  0  0  0  0  0  0  0  0  0  0  0
  188.9490  177.1800  142.0310 C   0  0  0  0  0  0  0  0  0  0  0  0
  190.7500  176.6250  139.8070 N   0  0  0  0  0  2  0  0  0  0  0  0
  189.1560  177.6600  138.4450 O   0  0  0  0  0  0  0  0  0  0  0  0
  189.0210  175.9240  142.1410 O   0  0  0  0  0  0  0  0  0  0  0  0
  188.7520  177.7610  140.7370 N   0  0  0  0  0  2  0  0  0  0  0  0
  192.7350  176.7820  138.5120 C   0  0  0  0  0  2  0  0  0  0  0  0
  191.6070  176.1350  138.7720 C   0  0  0  0  0  0  0  0  0  0  0  0
  191.2890  174.9690  138.0010 N   0  0  0  0  0  2  0  0  0  0  0  0
  192.2110  173.9830  137.5840 N   0  0  0  0  0  2  0  0  0  0  0  0
  192.3570  174.5510  135.3060 O   0  0  0  0  0  0  0  0  0  0  0  0
  193.5880  172.7500  135.9940 O   0  0  0  0  0  1  0  0  0  0  0  0
  192.7210  173.8060  136.2530 C   0  0  0  0  0  0  0  0  0  0  0  0
  1 12  2  0  0  0  0
  1 14  1  0  0  0  0
  2 20  1  0  0  0  0
  3  8  1  0  0  0  0
  4  2  2  0  0  0  0
  4  9  1  0  0  0  0
  6 13  2  0  0  0  0
  9  6  1  0  0  0  0
 10  8  1  6  0  0  0
 10 15  1  0  0  0  0
 11 12  1  0  0  0  0
 11  4  1  0  0  0  0
 12 21  1  0  0  0  0
 14  7  2  0  0  0  0
 15  5  1  0  0  0  0
 16 13  1  0  0  0  0
 17 10  1  0  0  0  0
 17  2  1  1  0  0  0
 18 23  1  6  0  0  0
 18 17  1  0  0  0  0
 19 18  1  0  0  0  0
 19  3  1  0  0  0  0
 20  5  1  0  0  0  0
 20 16  2  0  0  0  0
 21  7  1  0  0  0  0
 21  9  2  0  0  0  0
 22 24  1  0  0  0  0
 22 27  1  0  0  0  0
 23 26  2  0  0  0  0
 25 22  2  0  0  0  0
 27 23  1  0  0  0  0
 28 29  2  0  0  0  0
 29 24  1  0  0  0  0
 30 29  1  0  0  0  0
 31 30  1  0  0  0  0
 32 34  2  0  0  0  0
 33 34  1  0  0  0  0
 34 31  1  0  0  0  0
M  END
>  <MODEL>
3

>  <REMARK>
 VINA RESULT:      -9.8      1.191      1.337
  Name = 
  4 active torsions:
  status: ('A' for Active; 'I' for Inactive)
    1  A    between atoms: N_10  and  C_22
    2  A    between atoms: N_10  and  N_25
    3  A    between atoms: C_12  and  C_28
    4  A    between atoms: N_17  and  C_22
                            x       y       z     vdW  Elec       q    Type
                         _______ _______ _______ _____ _____    ______ ____

>  <TORSDO>
F 4

$$$$
=
 OpenBabel10232412343D

 34 38  0  0  1  0  0  0  0  0999 V2000
  189.6520  177.8270  140.0300 N   0  0  0  0  0  0  0  0  0  0  0  0
  185.5940  178.2550  143.2500 C   0  0  0  0  0  0  0  0  0  0  0  0
  181.5430  178.1230  141.5070 C   0  0  0  0  0  2  0  0  0  0  0  0
  186.8250  178.0530  142.5780 C   0  0  0  0  0  0  0  0  0  0  0  0
  184.2230  178.7910  145.3460 C   0  0  0  0  0  2  0  0  0  0  0  0
  188.3290  177.0670  144.3270 N   0  0  0  0  0  0  0  0  0  0  0  0
  190.2690  177.0210  142.0150 N   0  0  0  0  0  0  0  0  0  0  0  0
  181.8920  179.1990  142.5480 C   0  0  0  0  0  2  0  0  0  0  0  0
  188.0460  177.5120  143.0830 C   0  0  0  0  0  0  0  0  0  0  0  0
  183.1160  178.7690  143.3360 C   0  0  2  0  0  3  0  0  0  0  0  0
  187.0870  178.4700  140.9150 S   0  0  0  0  0  0  0  0  0  0  0  0
  188.6570  177.9430  140.9140 C   0  0  0  0  0  0  0  0  0  0  0  0
  187.5970  177.1400  145.4540 C   0  0  0  0  0  3  0  0  0  0  0  0
  190.6300  177.2560  140.7460 N   0  0  0  0  0  0  0  0  0  0  0  0
  183.3970  179.6160  144.4690 N   0  0  0  0  0  2  0  0  0  0  0  0
  186.3510  177.7180  145.5950 C   0  0  0  0  0  3  0  0  0  0  0  0
  184.3590  178.6920  142.4410 C   0  0  2  0  0  3  0  0  0  0  0  0
  184.0650  177.8840  141.1390 C   0  0  1  0  0  3  0  0  0  0  0  0
  182.7040  177.1560  141.2050 C   0  0  0  0  0  2  0  0  0  0  0  0
  185.4740  178.2580  144.6710 C   0  0  0  0  0  0  0  0  0  0  0  0
  189.0090  177.4690  142.0840 C   0  0  0  0  0  0  0  0  0  0  0  0
  182.4370  179.2770  138.0970 C   0  0  0  0  0  0  0  0  0  0  0  0
  184.0650  178.7810  139.9230 C   0  0  0  0  0  0  0  0  0  0  0  0
  181.9040  180.3950  138.8190 N   0  0  0  0  0  2  0  0  0  0  0  0
  182.0290  179.0160  136.9340 O   0  0  0  0  0  0  0  0  0  0  0  0
  184.6220  179.9140  139.9610 O   0  0  0  0  0  0  0  0  0  0  0  0
  183.3560  178.3870  138.7420 N   0  0  0  0  0  2  0  0  0  0  0  0
  179.9970  181.7900  139.0670 C   0  0  0  0  0  2  0  0  0  0  0  0
  180.9860  181.3610  138.2960 C   0  0  0  0  0  0  0  0  0  0  0  0
  181.0970  181.8810  136.9650 N   0  0  0  0  0  2  0  0  0  0  0  0
  180.5680  183.1130  136.5180 N   0  0  0  0  0  2  0  0  0  0  0  0
  182.2310  184.5540  137.3500 O   0  0  0  0  0  1  0  0  0  0  0  0
  180.4790  185.5350  136.2560 O   0  0  0  0  0  0  0  0  0  0  0  0
  181.1520  184.4100  136.7180 C   0  0  0  0  0  0  0  0  0  0  0  0
  1 14  1  0  0  0  0
  1 12  2  0  0  0  0
  2 20  1  0  0  0  0
  3  8  1  0  0  0  0
  4  9  1  0  0  0  0
  4  2  2  0  0  0  0
  6 13  2  0  0  0  0
  7 21  1  0  0  0  0
  9  6  1  0  0  0  0
 10  8  1  6  0  0  0
 10 15  1  0  0  0  0
 11  4  1  0  0  0  0
 12 11  1  0  0  0  0
 12 21  1  0  0  0  0
 13 16  1  0  0  0  0
 14  7  2  0  0  0  0
 15  5  1  0  0  0  0
 17  2  1  1  0  0  0
 17 10  1  0  0  0  0
 18 23  1  6  0  0  0
 18 19  1  0  0  0  0
 18 17  1  0  0  0  0
 19  3  1  0  0  0  0
 20  5  1  0  0  0  0
 20 16  2  0  0  0  0
 21  9  2  0  0  0  0
 22 27  1  0  0  0  0
 22 24  1  0  0  0  0
 23 26  2  0  0  0  0
 25 22  2  0  0  0  0
 27 23  1  0  0  0  0
 29 24  1  0  0  0  0
 29 28  2  0  0  0  0
 30 29  1  0  0  0  0
 31 34  1  0  0  0  0
 31 30  1  0  0  0  0
 33 34  2  0  0  0  0
 34 32  1  0  0  0  0
M  END
>  <MODEL>
4

>  <REMARK>
 VINA RESULT:      -8.4      5.027      8.214
  Name = 
  4 active torsions:
  status: ('A' for Active; 'I' for Inactive)
    1  A    between atoms: N_10  and  C_22
    2  A    between atoms: N_10  and  N_25
    3  A    between atoms: C_12  and  C_28
    4  A    between atoms: N_17  and  C_22
                            x       y       z     vdW  Elec       q    Type
                         _______ _______ _______ _____ _____    ______ ____

>  <TORSDO>
F 4

$$$$
=
 OpenBabel10232412343D

 34 38  0  0  1  0  0  0  0  0999 V2000
  185.6830  178.0680  137.6420 N   0  0  0  0  0  0  0  0  0  0  0  0
  190.4780  177.0480  139.3680 C   0  0  0  0  0  0  0  0  0  0  0  0
  191.0110  176.2920  143.6830 C   0  0  0  0  0  2  0  0  0  0  0  0
  189.2570  177.2390  138.6740 C   0  0  0  0  0  0  0  0  0  0  0  0
  193.0350  176.9160  139.4540 C   0  0  0  0  0  2  0  0  0  0  0  0
  189.7100  176.3460  136.3740 N   0  0  0  0  0  0  0  0  0  0  0  0
  186.8170  177.1120  135.9780 N   0  0  0  0  0  0  0  0  0  0  0  0
  191.9760  177.2360  142.9470 C   0  0  0  0  0  2  0  0  0  0  0  0
  188.9320  176.9120  137.3230 C   0  0  0  0  0  0  0  0  0  0  0  0
  191.9120  176.9700  141.4550 C   0  0  2  0  0  3  0  0  0  0  0  0
  187.8550  177.9670  139.3880 S   0  0  0  0  0  0  0  0  0  0  0  0
  186.9400  177.8130  138.0160 C   0  0  0  0  0  0  0  0  0  0  0  0
  191.0270  176.0700  136.3920 C   0  0  0  0  0  3  0  0  0  0  0  0
  185.6440  177.6240  136.3790 N   0  0  0  0  0  0  0  0  0  0  0  0
  192.9280  177.6650  140.7030 N   0  0  0  0  0  2  0  0  0  0  0  0
  191.9100  176.3230  137.4230 C   0  0  0  0  0  3  0  0  0  0  0  0
  190.5320  177.3210  140.8830 C   0  0  2  0  0  3  0  0  0  0  0  0
  189.3920  176.6880  141.7400 C   0  0  1  0  0  3  0  0  0  0  0  0
  189.9360  175.6720  142.7680 C   0  0  0  0  0  2  0  0  0  0  0  0
  191.7170  176.7940  138.7100 C   0  0  0  0  0  0  0  0  0  0  0  0
  187.6150  177.2480  137.0460 C   0  0  0  0  0  0  0  0  0  0  0  0
  186.8170  177.7210  144.2200 C   0  0  0  0  0  0  0  0  0  0  0  0
  188.6120  177.7470  142.4850 C   0  0  0  0  0  0  0  0  0  0  0  0
  187.7800  177.8030  145.2780 N   0  0  0  0  0  2  0  0  0  0  0  0
  185.5840  177.7460  144.4760 O   0  0  0  0  0  0  0  0  0  0  0  0
  189.1680  178.8240  142.8370 O   0  0  0  0  0  0  0  0  0  0  0  0
  187.2570  177.4970  142.8740 N   0  0  0  0  0  2  0  0  0  0  0  0
  186.4500  178.7990  146.9750 C   0  0  0  0  0  2  0  0  0  0  0  0
  187.4810  178.0290  146.6590 C   0  0  0  0  0  0  0  0  0  0  0  0
  188.2600  177.4530  147.7160 N   0  0  0  0  0  2  0  0  0  0  0  0
  189.6220  177.7260  147.9750 N   0  0  0  0  0  2  0  0  0  0  0  0
  190.5740  175.7940  147.0290 O   0  0  0  0  0  0  0  0  0  0  0  0
  192.0190  177.2810  147.9930 O   0  0  0  0  0  1  0  0  0  0  0  0
  190.7370  176.8930  147.6210 C   0  0  0  0  0  0  0  0  0  0  0  0
  1 12  2  0  0  0  0
  4  2  2  0  0  0  0
  4 11  1  0  0  0  0
  5 15  1  0  0  0  0
  6 13  2  0  0  0  0
  6  9  1  0  0  0  0
  7 14  2  0  0  0  0
  7 21  1  0  0  0  0
  8  3  1  0  0  0  0
  9  4  1  0  0  0  0
 10  8  1  1  0  0  0
 12 11  1  0  0  0  0
 13 16  1  0  0  0  0
 14  1  1  0  0  0  0
 15 10  1  0  0  0  0
 16 20  2  0  0  0  0
 17  2  1  6  0  0  0
 17 10  1  0  0  0  0
 17 18  1  0  0  0  0
 18 23  1  1  0  0  0
 18 19  1  0  0  0  0
 19  3  1  0  0  0  0
 20  2  1  0  0  0  0
 20  5  1  0  0  0  0
 21  9  2  0  0  0  0
 21 12  1  0  0  0  0
 22 25  2  0  0  0  0
 22 24  1  0  0  0  0
 23 26  2  0  0  0  0
 23 27  1  0  0  0  0
 24 29  1  0  0  0  0
 27 22  1  0  0  0  0
 29 28  2  0  0  0  0
 29 30  1  0  0  0  0
 30 31  1  0  0  0  0
 32 34  2  0  0  0  0
 34 31  1  0  0  0  0
 34 33  1  0  0  0  0
M  END
>  <MODEL>
5

>  <REMARK>
 VINA RESULT:      -7.7      3.020      7.999
  Name = 
  4 active torsions:
  status: ('A' for Active; 'I' for Inactive)
    1  A    between atoms: N_10  and  C_22
    2  A    between atoms: N_10  and  N_25
    3  A    between atoms: C_12  and  C_28
    4  A    between atoms: N_17  and  C_22
                            x       y       z     vdW  Elec       q    Type
                         _______ _______ _______ _____ _____    ______ ____

>  <TORSDO>
F 4

$$$$
