=
 OpenBabel10232410333D

 38 40  0  0  1  0  0  0  0  0999 V2000
  186.9160  177.7910  142.5400 N   0  0  0  0  0  0  0  0  0  0  0  0
  187.1300  178.6940  141.5620 C   0  0  0  0  0  3  0  0  0  0  0  0
  188.9520  177.5540  141.9220 C   0  0  0  0  0  0  0  0  0  0  0  0
  188.0080  177.0790  142.7540 N   0  0  0  0  0  0  0  0  0  0  0  0
  188.4440  178.5740  141.1370 C   0  0  0  0  0  3  0  0  0  0  0  0
  183.2960  178.5050  143.1910 C   0  0  1  0  0  3  0  0  0  0  0  0
  185.2010  179.4970  144.5550 C   0  0  0  0  0  2  0  0  0  0  0  0
  185.6110  178.0930  144.5620 N   0  0  0  0  0  2  0  0  0  0  0  0
  185.6290  177.5470  143.1920 C   0  0  1  0  0  3  0  0  0  0  0  0
  184.4610  178.0490  142.3170 C   0  0  0  0  0  2  0  0  0  0  0  0
  183.7360  179.6360  144.1230 C   0  0  0  0  0  2  0  0  0  0  0  0
  182.1310  178.9670  142.3360 C   0  0  0  0  0  2  0  0  0  0  0  0
  182.3160  178.5030  140.9000 C   0  0  0  0  0  2  0  0  0  0  0  0
  181.8290  179.5590  139.9190 C   0  0  0  0  0  2  0  0  0  0  0  0
  184.9270  178.7340  138.7440 C   0  0  0  0  0  3  0  0  0  0  0  0
  181.6000  177.8860  137.2310 C   0  0  0  0  0  1  0  0  0  0  0  0
  182.7930  178.4210  137.9550 C   0  0  0  0  0  0  0  0  0  0  0  0
  182.7760  179.6850  138.7290 C   0  0  2  0  0  3  0  0  0  0  0  0
  183.9960  177.8810  137.9680 C   0  0  0  0  0  0  0  0  0  0  0  0
  184.1480  179.8900  139.2020 N   0  0  0  0  0  0  0  0  0  0  0  0
  183.9750  175.5210  137.7650 O   0  0  0  0  0  1  0  0  0  0  0  0
  184.4050  176.6200  137.3210 C   0  0  0  0  0  0  0  0  0  0  0  0
  185.2560  176.6200  136.2240 O   0  0  0  0  0  0  0  0  0  0  0  0
  190.3320  176.9850  141.7930 C   0  0  1  0  0  3  0  0  0  0  0  0
  190.6040  176.1400  139.5390 O   0  0  0  0  0  1  0  0  0  0  0  0
  190.9460  177.1830  140.4040 C   0  0  0  0  0  2  0  0  0  0  0  0
  191.0590  178.7230  143.2910 O   0  0  0  0  0  1  0  0  0  0  0  0
  191.2430  177.3790  142.9610 C   0  0  1  0  0  3  0  0  0  0  0  0
  191.0570  176.5030  144.1930 C   0  0  0  0  0  2  0  0  0  0  0  0
  191.8900  176.9470  145.2240 O   0  0  0  0  0  0  0  0  0  0  0  0
  191.0680  177.0030  146.3560 C   0  0  2  0  0  3  0  0  0  0  0  0
  192.7210  176.1290  147.8380 O   0  0  0  0  0  1  0  0  0  0  0  0
  191.4480  175.8920  147.3210 C   0  0  0  0  0  2  0  0  0  0  0  0
  189.6130  176.8460  145.9310 C   0  0  0  0  0  2  0  0  0  0  0  0
  188.7590  178.0190  146.3970 C   0  0  0  0  0  2  0  0  0  0  0  0
  188.0040  177.6750  147.6700 C   0  0  2  0  0  3  0  0  0  0  0  0
  186.7420  178.2720  147.6470 O   0  0  0  0  0  1  0  0  0  0  0  0
  188.7430  178.1660  148.8190 N   0  0  0  0  0  1  0  0  0  0  0  0
  1  4  1  0  0  0  0
  1  9  1  0  0  0  0
  2  1  1  0  0  0  0
  3  4  2  0  0  0  0
  5  2  2  0  0  0  0
  5  3  1  0  0  0  0
  6 12  1  6  0  0  0
  6 11  1  0  0  0  0
  7  8  1  0  0  0  0
  9 10  1  6  0  0  0
  9  8  1  0  0  0  0
 10  6  1  0  0  0  0
 11  7  1  0  0  0  0
 13 12  1  0  0  0  0
 14 13  1  0  0  0  0
 15 20  2  0  0  0  0
 16 17  1  0  0  0  0
 17 19  2  0  0  0  0
 17 18  1  0  0  0  0
 18 20  1  0  0  0  0
 18 14  1  1  0  0  0
 19 15  1  0  0  0  0
 22 21  1  0  0  0  0
 22 19  1  0  0  0  0
 23 22  2  0  0  0  0
 24 26  1  6  0  0  0
 24  3  1  0  0  0  0
 24 28  1  0  0  0  0
 25 26  1  0  0  0  0
 28 27  1  1  0  0  0
 28 29  1  0  0  0  0
 29 30  1  0  0  0  0
 30 31  1  0  0  0  0
 31 34  1  6  0  0  0
 31 33  1  0  0  0  0
 33 32  1  0  0  0  0
 34 35  1  0  0  0  0
 35 36  1  0  0  0  0
 36 37  1  6  0  0  0
 36 38  1  0  0  0  0
M  END
>  <MODEL>
1

>  <REMARK>
 VINA RESULT:      -7.2      0.000      0.000
  Name = 
  16 active torsions:
  status: ('A' for Active; 'I' for Inactive)
    1  A    between atoms: C_1  and  C_35
    2  A    between atoms: N_3  and  C_22
    3  A    between atoms: C_8  and  C_29
    4  A    between atoms: C_8  and  C_31
    5  A    between atoms: C_8  and  O_37
    6  A    between atoms: C_10  and  C_21
    7  A    between atoms: C_10  and  C_35
    8  A    between atoms: C_12  and  C_21
    9  A    between atoms: C_13  and  C_32
   10  A    between atoms: C_14  and  C_16
   11  A    between atoms: C_15  and  C_20
   12  A    between atoms: C_17  and  C_30
   13  A    between atoms: C_17  and  O_37
   14  A    between atoms: C_20  and  C_30
   15  A    between atoms: C_20  and  C_38
   16  A    between atoms: C_31  and  C_32
                            x       y       z     vdW  Elec       q    Type
                         _______ _______ _______ _____ _____    ______ ____

>  <TORSDO>
F 16

$$$$
=
 OpenBabel10232410333D

 38 40  0  0  1  0  0  0  0  0999 V2000
  187.3380  178.5040  140.6610 N   0  0  0  0  0  0  0  0  0  0  0  0
  188.5320  178.0300  141.0710 C   0  0  0  0  0  3  0  0  0  0  0  0
  188.2770  177.6400  138.9430 C   0  0  0  0  0  0  0  0  0  0  0  0
  187.1800  178.2910  139.3670 N   0  0  0  0  0  0  0  0  0  0  0  0
  189.1710  177.4570  139.9830 C   0  0  0  0  0  3  0  0  0  0  0  0
  184.6810  178.7980  143.2860 C   0  0  1  0  0  3  0  0  0  0  0  0
  184.1920  178.5520  140.8010 C   0  0  0  0  0  2  0  0  0  0  0  0
  185.1870  179.6230  140.7430 N   0  0  0  0  0  2  0  0  0  0  0  0
  186.3990  179.2520  141.4980 C   0  0  1  0  0  3  0  0  0  0  0  0
  186.0970  178.4940  142.8070 C   0  0  0  0  0  2  0  0  0  0  0  0
  183.6560  178.3820  142.2280 C   0  0  0  0  0  2  0  0  0  0  0  0
  184.3900  178.0820  144.5920 C   0  0  0  0  0  2  0  0  0  0  0  0
  185.2150  178.6850  145.7170 C   0  0  0  0  0  2  0  0  0  0  0  0
  186.3100  177.7270  146.1640 C   0  0  0  0  0  2  0  0  0  0  0  0
  188.9100  177.6950  148.3760 C   0  0  0  0  0  3  0  0  0  0  0  0
  189.0880  177.7760  144.6300 C   0  0  0  0  0  1  0  0  0  0  0  0
  188.7720  177.8430  146.0890 C   0  0  0  0  0  0  0  0  0  0  0  0
  187.5500  178.4860  146.6280 C   0  0  2  0  0  3  0  0  0  0  0  0
  189.5340  177.3920  147.0670 C   0  0  0  0  0  0  0  0  0  0  0  0
  187.6630  178.4120  148.0880 N   0  0  0  0  0  0  0  0  0  0  0  0
  191.0200  175.6150  147.5670 O   0  0  0  0  0  1  0  0  0  0  0  0
  190.8220  176.6850  146.9290 C   0  0  0  0  0  0  0  0  0  0  0  0
  191.8240  177.1760  146.1040 O   0  0  0  0  0  0  0  0  0  0  0  0
  188.5380  177.2590  137.5170 C   0  0  1  0  0  3  0  0  0  0  0  0
  189.0670  179.6190  137.3810 O   0  0  0  0  0  1  0  0  0  0  0  0
  189.0080  178.4300  136.6490 C   0  0  0  0  0  2  0  0  0  0  0  0
  188.6910  175.0100  136.6740 O   0  0  0  0  0  1  0  0  0  0  0  0
  189.3830  175.9860  137.3930 C   0  0  1  0  0  3  0  0  0  0  0  0
  190.7520  176.2290  136.7700 C   0  0  0  0  0  2  0  0  0  0  0  0
  191.4540  175.0240  136.6770 O   0  0  0  0  0  0  0  0  0  0  0  0
  192.4600  175.1150  137.6450 C   0  0  2  0  0  3  0  0  0  0  0  0
  193.3410  176.9740  138.8530 O   0  0  0  0  0  1  0  0  0  0  0  0
  193.1240  176.4800  137.5680 C   0  0  0  0  0  2  0  0  0  0  0  0
  193.4930  174.0210  137.4030 C   0  0  0  0  0  2  0  0  0  0  0  0
  194.9040  174.4920  137.7370 C   0  0  0  0  0  2  0  0  0  0  0  0
  195.8640  173.3180  137.8380 C   0  0  2  0  0  3  0  0  0  0  0  0
  195.3590  172.3710  138.7310 O   0  0  0  0  0  1  0  0  0  0  0  0
  197.1520  173.7860  138.3150 N   0  0  0  0  0  1  0  0  0  0  0  0
  1  2  1  0  0  0  0
  3  4  2  0  0  0  0
  3  5  1  0  0  0  0
  4  1  1  0  0  0  0
  5  2  2  0  0  0  0
  6 12  1  1  0  0  0
  7 11  1  0  0  0  0
  8  7  1  0  0  0  0
  8  9  1  0  0  0  0
  9  1  1  6  0  0  0
  9 10  1  0  0  0  0
 10  6  1  0  0  0  0
 11  6  1  0  0  0  0
 12 13  1  0  0  0  0
 13 14  1  0  0  0  0
 16 17  1  0  0  0  0
 17 18  1  0  0  0  0
 17 19  2  0  0  0  0
 18 14  1  6  0  0  0
 18 20  1  0  0  0  0
 19 15  1  0  0  0  0
 20 15  2  0  0  0  0
 22 19  1  0  0  0  0
 22 21  1  0  0  0  0
 23 22  2  0  0  0  0
 24 26  1  1  0  0  0
 24  3  1  0  0  0  0
 26 25  1  0  0  0  0
 28 27  1  6  0  0  0
 28 24  1  0  0  0  0
 29 28  1  0  0  0  0
 30 29  1  0  0  0  0
 30 31  1  0  0  0  0
 31 34  1  6  0  0  0
 33 31  1  0  0  0  0
 33 32  1  0  0  0  0
 34 35  1  0  0  0  0
 35 36  1  0  0  0  0
 36 38  1  1  0  0  0
 36 37  1  0  0  0  0
M  END
>  <MODEL>
2

>  <REMARK>
 VINA RESULT:      -7.1      3.441      8.216
  Name = 
  16 active torsions:
  status: ('A' for Active; 'I' for Inactive)
    1  A    between atoms: C_1  and  C_35
    2  A    between atoms: N_3  and  C_22
    3  A    between atoms: C_8  and  C_29
    4  A    between atoms: C_8  and  C_31
    5  A    between atoms: C_8  and  O_37
    6  A    between atoms: C_10  and  C_21
    7  A    between atoms: C_10  and  C_35
    8  A    between atoms: C_12  and  C_21
    9  A    between atoms: C_13  and  C_32
   10  A    between atoms: C_14  and  C_16
   11  A    between atoms: C_15  and  C_20
   12  A    between atoms: C_17  and  C_30
   13  A    between atoms: C_17  and  O_37
   14  A    between atoms: C_20  and  C_30
   15  A    between atoms: C_20  and  C_38
   16  A    between atoms: C_31  and  C_32
                            x       y       z     vdW  Elec       q    Type
                         _______ _______ _______ _____ _____    ______ ____

>  <TORSDO>
F 16

$$$$
=
 OpenBabel10232410333D

 38 40  0  0  1  0  0  0  0  0999 V2000
  187.6150  177.3830  146.2910 N   0  0  0  0  0  0  0  0  0  0  0  0
  188.0260  177.6690  147.5430 C   0  0  0  0  0  3  0  0  0  0  0  0
  189.7550  177.4210  146.2410 C   0  0  0  0  0  0  0  0  0  0  0  0
  188.6550  177.2510  145.4860 N   0  0  0  0  0  0  0  0  0  0  0  0
  189.4110  177.6980  147.5520 C   0  0  0  0  0  3  0  0  0  0  0  0
  184.8330  178.0790  143.8800 C   0  0  1  0  0  3  0  0  0  0  0  0
  185.4840  179.6440  145.7770 C   0  0  0  0  0  2  0  0  0  0  0  0
  185.4180  178.3850  146.5200 N   0  0  0  0  0  2  0  0  0  0  0  0
  186.2200  177.3420  145.8530 C   0  0  1  0  0  3  0  0  0  0  0  0
  186.1210  177.3840  144.3140 C   0  0  0  0  0  2  0  0  0  0  0  0
  184.7900  179.5120  144.4160 C   0  0  0  0  0  2  0  0  0  0  0  0
  184.7130  178.0930  142.3670 C   0  0  0  0  0  2  0  0  0  0  0  0
  183.6620  179.1010  141.9320 C   0  0  0  0  0  2  0  0  0  0  0  0
  182.7590  178.5150  140.8560 C   0  0  0  0  0  2  0  0  0  0  0  0
  185.2570  178.8020  138.5470 C   0  0  0  0  0  3  0  0  0  0  0  0
  181.8920  177.2050  138.0980 C   0  0  0  0  0  1  0  0  0  0  0  0
  183.1170  177.9740  138.4770 C   0  0  0  0  0  0  0  0  0  0  0  0
  183.1140  179.0660  139.4780 C   0  0  2  0  0  3  0  0  0  0  0  0
  184.3190  177.8180  137.9580 C   0  0  0  0  0  0  0  0  0  0  0  0
  184.4770  179.6070  139.4930 N   0  0  0  0  0  0  0  0  0  0  0  0
  184.9730  175.6410  137.2880 O   0  0  0  0  0  1  0  0  0  0  0  0
  184.7210  176.8270  136.9410 C   0  0  0  0  0  0  0  0  0  0  0  0
  184.8240  177.1760  135.6020 O   0  0  0  0  0  0  0  0  0  0  0  0
  191.1560  177.4150  145.7090 C   0  0  1  0  0  3  0  0  0  0  0  0
  192.0330  175.8530  147.3410 O   0  0  0  0  0  1  0  0  0  0  0  0
  191.9030  176.1030  145.9720 C   0  0  0  0  0  2  0  0  0  0  0  0
  192.0470  179.0610  144.1970 O   0  0  0  0  0  1  0  0  0  0  0  0
  191.2400  177.9250  144.2660 C   0  0  1  0  0  3  0  0  0  0  0  0
  191.7290  176.8700  143.2810 C   0  0  0  0  0  2  0  0  0  0  0  0
  190.6450  176.3320  142.5830 O   0  0  0  0  0  0  0  0  0  0  0  0
  190.2590  177.3330  141.6840 C   0  0  2  0  0  3  0  0  0  0  0  0
  188.3090  178.7050  141.7720 O   0  0  0  0  0  1  0  0  0  0  0  0
  188.7430  177.3910  141.6010 C   0  0  0  0  0  2  0  0  0  0  0  0
  190.8430  177.0290  140.3090 C   0  0  0  0  0  2  0  0  0  0  0  0
  189.7680  177.0240  139.2280 C   0  0  0  0  0  2  0  0  0  0  0  0
  190.2510  176.3030  137.9800 C   0  0  2  0  0  3  0  0  0  0  0  0
  189.1620  175.9920  137.1640 O   0  0  0  0  0  1  0  0  0  0  0  0
  190.9280  175.0770  138.3610 N   0  0  0  0  0  1  0  0  0  0  0  0
  1  2  1  0  0  0  0
  2  5  2  0  0  0  0
  3  5  1  0  0  0  0
  4  3  2  0  0  0  0
  4  1  1  0  0  0  0
  6 12  1  6  0  0  0
  6 10  1  0  0  0  0
  6 11  1  0  0  0  0
  7  8  1  0  0  0  0
  9 10  1  6  0  0  0
  9  1  1  0  0  0  0
  9  8  1  0  0  0  0
 11  7  1  0  0  0  0
 13 12  1  0  0  0  0
 14 13  1  0  0  0  0
 15 20  2  0  0  0  0
 16 17  1  0  0  0  0
 17 18  1  0  0  0  0
 18 20  1  0  0  0  0
 18 14  1  1  0  0  0
 19 17  2  0  0  0  0
 19 15  1  0  0  0  0
 22 21  1  0  0  0  0
 22 19  1  0  0  0  0
 23 22  2  0  0  0  0
 24 26  1  6  0  0  0
 24  3  1  0  0  0  0
 26 25  1  0  0  0  0
 28 27  1  1  0  0  0
 28 24  1  0  0  0  0
 29 28  1  0  0  0  0
 30 29  1  0  0  0  0
 31 34  1  6  0  0  0
 31 30  1  0  0  0  0
 33 31  1  0  0  0  0
 33 32  1  0  0  0  0
 35 34  1  0  0  0  0
 36 37  1  6  0  0  0
 36 38  1  0  0  0  0
 36 35  1  0  0  0  0
M  END
>  <MODEL>
3

>  <REMARK>
 VINA RESULT:      -7.1      1.737      4.737
  Name = 
  16 active torsions:
  status: ('A' for Active; 'I' for Inactive)
    1  A    between atoms: C_1  and  C_35
    2  A    between atoms: N_3  and  C_22
    3  A    between atoms: C_8  and  C_29
    4  A    between atoms: C_8  and  C_31
    5  A    between atoms: C_8  and  O_37
    6  A    between atoms: C_10  and  C_21
    7  A    between atoms: C_10  and  C_35
    8  A    between atoms: C_12  and  C_21
    9  A    between atoms: C_13  and  C_32
   10  A    between atoms: C_14  and  C_16
   11  A    between atoms: C_15  and  C_20
   12  A    between atoms: C_17  and  C_30
   13  A    between atoms: C_17  and  O_37
   14  A    between atoms: C_20  and  C_30
   15  A    between atoms: C_20  and  C_38
   16  A    between atoms: C_31  and  C_32
                            x       y       z     vdW  Elec       q    Type
                         _______ _______ _______ _____ _____    ______ ____

>  <TORSDO>
F 16

$$$$
=
 OpenBabel10232410333D

 38 40  0  0  1  0  0  0  0  0999 V2000
  186.4380  178.7370  140.4030 N   0  0  0  0  0  0  0  0  0  0  0  0
  187.6440  178.3800  140.8900 C   0  0  0  0  0  3  0  0  0  0  0  0
  187.5100  177.8320  138.7860 C   0  0  0  0  0  0  0  0  0  0  0  0
  186.3520  178.4290  139.1210 N   0  0  0  0  0  0  0  0  0  0  0  0
  188.3680  177.7850  139.8700 C   0  0  0  0  0  3  0  0  0  0  0  0
  184.4190  179.4990  143.4660 C   0  0  1  0  0  3  0  0  0  0  0  0
  183.6950  177.8500  141.6680 C   0  0  0  0  0  2  0  0  0  0  0  0
  184.0610  178.9830  140.8170 N   0  0  0  0  0  2  0  0  0  0  0  0
  185.4140  179.4680  141.1490 C   0  0  1  0  0  3  0  0  0  0  0  0
  185.7150  179.4580  142.6610 C   0  0  0  0  0  2  0  0  0  0  0  0
  183.5410  178.2910  143.1290 C   0  0  0  0  0  2  0  0  0  0  0  0
  184.7110  179.5230  144.9540 C   0  0  0  0  0  2  0  0  0  0  0  0
  185.2710  178.1830  145.4020 C   0  0  0  0  0  2  0  0  0  0  0  0
  186.6180  178.3580  146.0900 C   0  0  0  0  0  2  0  0  0  0  0  0
  188.9810  176.9780  144.0490 C   0  0  0  0  0  3  0  0  0  0  0  0
  189.2790  177.7470  147.7090 C   0  0  0  0  0  1  0  0  0  0  0  0
  188.8980  177.4410  146.2970 C   0  0  0  0  0  0  0  0  0  0  0  0
  187.5090  177.1380  145.8760 C   0  0  2  0  0  3  0  0  0  0  0  0
  189.7250  177.3600  145.2730 C   0  0  0  0  0  0  0  0  0  0  0  0
  187.5790  176.8160  144.4480 N   0  0  0  0  0  0  0  0  0  0  0  0
  191.9130  176.9500  146.0850 O   0  0  0  0  0  1  0  0  0  0  0  0
  191.1800  177.6020  145.2920 C   0  0  0  0  0  0  0  0  0  0  0  0
  191.7630  178.5350  144.4450 O   0  0  0  0  0  0  0  0  0  0  0  0
  187.8590  177.3780  137.4010 C   0  0  1  0  0  3  0  0  0  0  0  0
  189.0030  179.5010  137.1680 O   0  0  0  0  0  1  0  0  0  0  0  0
  189.0200  178.1590  136.7780 C   0  0  0  0  0  2  0  0  0  0  0  0
  186.7180  175.2780  137.1210 O   0  0  0  0  0  1  0  0  0  0  0  0
  187.9770  175.8540  137.2940 C   0  0  1  0  0  3  0  0  0  0  0  0
  188.9220  175.3980  136.1880 C   0  0  0  0  0  2  0  0  0  0  0  0
  189.5570  174.2120  136.5640 O   0  0  0  0  0  0  0  0  0  0  0  0
  190.9250  174.4690  136.4120 C   0  0  2  0  0  3  0  0  0  0  0  0
  192.8880  173.4960  135.4690 O   0  0  0  0  0  1  0  0  0  0  0  0
  191.6480  173.1890  136.0250 C   0  0  0  0  0  2  0  0  0  0  0  0
  191.4860  175.0060  137.7230 C   0  0  0  0  0  2  0  0  0  0  0  0
  192.0940  176.3930  137.5510 C   0  0  0  0  0  2  0  0  0  0  0  0
  193.5290  176.4270  138.0520 C   0  0  2  0  0  3  0  0  0  0  0  0
  194.0380  175.1290  138.1160 O   0  0  0  0  0  1  0  0  0  0  0  0
  193.5640  177.0190  139.3770 N   0  0  0  0  0  1  0  0  0  0  0  0
  1  2  1  0  0  0  0
  3  4  2  0  0  0  0
  3  5  1  0  0  0  0
  4  1  1  0  0  0  0
  5  2  2  0  0  0  0
  6 12  1  1  0  0  0
  7 11  1  0  0  0  0
  8  9  1  0  0  0  0
  8  7  1  0  0  0  0
  9  1  1  6  0  0  0
  9 10  1  0  0  0  0
 10  6  1  0  0  0  0
 11  6  1  0  0  0  0
 12 13  1  0  0  0  0
 13 14  1  0  0  0  0
 15 20  2  0  0  0  0
 15 19  1  0  0  0  0
 17 16  1  0  0  0  0
 18 14  1  6  0  0  0
 18 17  1  0  0  0  0
 19 22  1  0  0  0  0
 19 17  2  0  0  0  0
 20 18  1  0  0  0  0
 22 21  1  0  0  0  0
 23 22  2  0  0  0  0
 24 26  1  1  0  0  0
 24  3  1  0  0  0  0
 26 25  1  0  0  0  0
 28 27  1  6  0  0  0
 28 24  1  0  0  0  0
 29 30  1  0  0  0  0
 29 28  1  0  0  0  0
 31 33  1  1  0  0  0
 31 30  1  0  0  0  0
 31 34  1  0  0  0  0
 32 33  1  0  0  0  0
 35 34  1  0  0  0  0
 35 36  1  0  0  0  0
 36 37  1  1  0  0  0
 36 38  1  0  0  0  0
M  END
>  <MODEL>
4

>  <REMARK>
 VINA RESULT:      -6.9      3.009      7.918
  Name = 
  16 active torsions:
  status: ('A' for Active; 'I' for Inactive)
    1  A    between atoms: C_1  and  C_35
    2  A    between atoms: N_3  and  C_22
    3  A    between atoms: C_8  and  C_29
    4  A    between atoms: C_8  and  C_31
    5  A    between atoms: C_8  and  O_37
    6  A    between atoms: C_10  and  C_21
    7  A    between atoms: C_10  and  C_35
    8  A    between atoms: C_12  and  C_21
    9  A    between atoms: C_13  and  C_32
   10  A    between atoms: C_14  and  C_16
   11  A    between atoms: C_15  and  C_20
   12  A    between atoms: C_17  and  C_30
   13  A    between atoms: C_17  and  O_37
   14  A    between atoms: C_20  and  C_30
   15  A    between atoms: C_20  and  C_38
   16  A    between atoms: C_31  and  C_32
                            x       y       z     vdW  Elec       q    Type
                         _______ _______ _______ _____ _____    ______ ____

>  <TORSDO>
F 16

$$$$
=
 OpenBabel10232410333D

 38 40  0  0  1  0  0  0  0  0999 V2000
  186.4400  176.2320  136.8330 N   0  0  0  0  0  0  0  0  0  0  0  0
  185.6440  176.2960  135.7460 C   0  0  0  0  0  3  0  0  0  0  0  0
  184.6670  177.2720  137.4320 C   0  0  0  0  0  0  0  0  0  0  0  0
  185.8660  176.8390  137.8570 N   0  0  0  0  0  0  0  0  0  0  0  0
  184.4790  176.9620  136.0960 C   0  0  0  0  0  3  0  0  0  0  0  0
  190.0790  176.2930  137.7220 C   0  0  1  0  0  3  0  0  0  0  0  0
  189.1430  177.1880  135.5310 C   0  0  0  0  0  2  0  0  0  0  0  0
  188.4760  175.8860  135.5600 N   0  0  0  0  0  2  0  0  0  0  0  0
  187.7930  175.6780  136.8510 C   0  0  1  0  0  3  0  0  0  0  0  0
  188.5930  176.2080  138.0590 C   0  0  0  0  0  2  0  0  0  0  0  0
  190.3050  177.2280  136.5320 C   0  0  0  0  0  2  0  0  0  0  0  0
  190.8750  176.7810  138.9170 C   0  0  0  0  0  2  0  0  0  0  0  0
  190.0170  176.7400  140.1720 C   0  0  0  0  0  2  0  0  0  0  0  0
  190.7220  177.4210  141.3360 C   0  0  0  0  0  2  0  0  0  0  0  0
  188.6860  176.5870  143.9470 C   0  0  0  0  0  3  0  0  0  0  0  0
  191.4770  179.0950  143.9250 C   0  0  0  0  0  1  0  0  0  0  0  0
  190.3620  178.1320  143.6700 C   0  0  0  0  0  0  0  0  0  0  0  0
  189.7170  177.9680  142.3460 C   0  0  2  0  0  3  0  0  0  0  0  0
  189.7920  177.3540  144.5690 C   0  0  0  0  0  0  0  0  0  0  0  0
  188.6310  177.0020  142.5410 N   0  0  0  0  0  0  0  0  0  0  0  0
  189.3550  177.6110  146.8830 O   0  0  0  0  0  1  0  0  0  0  0  0
  190.1610  177.2290  145.9920 C   0  0  0  0  0  0  0  0  0  0  0  0
  191.3840  176.6930  146.3700 O   0  0  0  0  0  0  0  0  0  0  0  0
  183.7110  178.0720  138.2640 C   0  0  1  0  0  3  0  0  0  0  0  0
  182.7590  175.9370  138.8980 O   0  0  0  0  0  1  0  0  0  0  0  0
  182.4670  177.2870  138.6890 C   0  0  0  0  0  2  0  0  0  0  0  0
  184.6010  180.1690  139.0430 O   0  0  0  0  0  1  0  0  0  0  0  0
  184.4110  178.8320  139.3970 C   0  0  1  0  0  3  0  0  0  0  0  0
  183.6780  178.7370  140.7290 C   0  0  0  0  0  2  0  0  0  0  0  0
  184.5090  179.1800  141.7620 O   0  0  0  0  0  0  0  0  0  0  0  0
  184.0810  178.4810  142.8960 C   0  0  2  0  0  3  0  0  0  0  0  0
  182.3250  178.5710  144.5100 O   0  0  0  0  0  1  0  0  0  0  0  0
  183.1630  179.3630  143.7270 C   0  0  0  0  0  2  0  0  0  0  0  0
  185.2930  178.0700  143.7240 C   0  0  0  0  0  2  0  0  0  0  0  0
  185.6890  179.1520  144.7210 C   0  0  0  0  0  2  0  0  0  0  0  0
  185.9880  178.5550  146.0860 C   0  0  2  0  0  3  0  0  0  0  0  0
  186.2450  177.1890  145.9580 O   0  0  0  0  0  1  0  0  0  0  0  0
  184.8440  178.7470  146.9590 N   0  0  0  0  0  1  0  0  0  0  0  0
  1  4  1  0  0  0  0
  2  5  2  0  0  0  0
  2  1  1  0  0  0  0
  3  4  2  0  0  0  0
  3 24  1  0  0  0  0
  5  3  1  0  0  0  0
  6 10  1  0  0  0  0
  6 12  1  1  0  0  0
  7  8  1  0  0  0  0
  7 11  1  0  0  0  0
  8  9  1  0  0  0  0
  9  1  1  6  0  0  0
  9 10  1  0  0  0  0
 11  6  1  0  0  0  0
 12 13  1  0  0  0  0
 13 14  1  0  0  0  0
 15 19  1  0  0  0  0
 17 16  1  0  0  0  0
 17 19  2  0  0  0  0
 18 14  1  6  0  0  0
 18 20  1  0  0  0  0
 18 17  1  0  0  0  0
 19 22  1  0  0  0  0
 20 15  2  0  0  0  0
 22 23  2  0  0  0  0
 22 21  1  0  0  0  0
 24 26  1  1  0  0  0
 24 28  1  0  0  0  0
 26 25  1  0  0  0  0
 28 27  1  6  0  0  0
 28 29  1  0  0  0  0
 29 30  1  0  0  0  0
 30 31  1  0  0  0  0
 31 34  1  1  0  0  0
 31 33  1  0  0  0  0
 33 32  1  0  0  0  0
 34 35  1  0  0  0  0
 35 36  1  0  0  0  0
 36 37  1  6  0  0  0
 36 38  1  0  0  0  0
M  END
>  <MODEL>
5

>  <REMARK>
 VINA RESULT:      -6.7      2.811      8.173
  Name = 
  16 active torsions:
  status: ('A' for Active; 'I' for Inactive)
    1  A    between atoms: C_1  and  C_35
    2  A    between atoms: N_3  and  C_22
    3  A    between atoms: C_8  and  C_29
    4  A    between atoms: C_8  and  C_31
    5  A    between atoms: C_8  and  O_37
    6  A    between atoms: C_10  and  C_21
    7  A    between atoms: C_10  and  C_35
    8  A    between atoms: C_12  and  C_21
    9  A    between atoms: C_13  and  C_32
   10  A    between atoms: C_14  and  C_16
   11  A    between atoms: C_15  and  C_20
   12  A    between atoms: C_17  and  C_30
   13  A    between atoms: C_17  and  O_37
   14  A    between atoms: C_20  and  C_30
   15  A    between atoms: C_20  and  C_38
   16  A    between atoms: C_31  and  C_32
                            x       y       z     vdW  Elec       q    Type
                         _______ _______ _______ _____ _____    ______ ____

>  <TORSDO>
F 16

$$$$
=
 OpenBabel10232410333D

 38 40  0  0  1  0  0  0  0  0999 V2000
  187.3590  177.4470  145.8290 N   0  0  0  0  0  0  0  0  0  0  0  0
  187.7760  177.6050  147.1010 C   0  0  0  0  0  3  0  0  0  0  0  0
  189.4970  177.5120  145.7690 C   0  0  0  0  0  0  0  0  0  0  0  0
  188.3940  177.4100  145.0080 N   0  0  0  0  0  0  0  0  0  0  0  0
  189.1610  177.6480  147.1050 C   0  0  0  0  0  3  0  0  0  0  0  0
  184.5460  178.3900  143.5410 C   0  0  1  0  0  3  0  0  0  0  0  0
  185.1870  179.7180  145.6140 C   0  0  0  0  0  2  0  0  0  0  0  0
  185.1480  178.3750  146.1950 N   0  0  0  0  0  2  0  0  0  0  0  0
  185.9610  177.4380  145.3980 C   0  0  1  0  0  3  0  0  0  0  0  0
  185.8480  177.6690  143.8770 C   0  0  0  0  0  2  0  0  0  0  0  0
  184.4850  179.7440  144.2510 C   0  0  0  0  0  2  0  0  0  0  0  0
  184.4130  178.5900  142.0430 C   0  0  0  0  0  2  0  0  0  0  0  0
  182.9470  178.6560  141.6490 C   0  0  0  0  0  2  0  0  0  0  0  0
  182.6740  177.8030  140.4180 C   0  0  0  0  0  2  0  0  0  0  0  0
  180.4640  180.3440  139.8570 C   0  0  0  0  0  3  0  0  0  0  0  0
  182.1760  178.1890  137.3070 C   0  0  0  0  0  1  0  0  0  0  0  0
  181.5440  178.8470  138.4910 C   0  0  0  0  0  0  0  0  0  0  0  0
  181.3310  178.1590  139.7870 C   0  0  2  0  0  3  0  0  0  0  0  0
  181.0650  180.0750  138.5300 C   0  0  0  0  0  0  0  0  0  0  0  0
  180.6160  179.1130  140.6400 N   0  0  0  0  0  0  0  0  0  0  0  0
  181.2220  182.2950  137.7160 O   0  0  0  0  0  1  0  0  0  0  0  0
  181.0980  181.0710  137.4410 C   0  0  0  0  0  0  0  0  0  0  0  0
  180.9990  180.6830  136.1120 O   0  0  0  0  0  0  0  0  0  0  0  0
  190.8950  177.5760  145.2310 C   0  0  1  0  0  3  0  0  0  0  0  0
  192.2560  176.2140  146.7010 O   0  0  0  0  0  1  0  0  0  0  0  0
  191.6840  176.2780  145.4280 C   0  0  0  0  0  2  0  0  0  0  0  0
  191.5310  179.4270  143.8300 O   0  0  0  0  0  1  0  0  0  0  0  0
  190.9530  178.1560  143.8130 C   0  0  1  0  0  3  0  0  0  0  0  0
  191.6830  177.2580  142.8230 C   0  0  0  0  0  2  0  0  0  0  0  0
  190.7620  176.6380  141.9740 O   0  0  0  0  0  0  0  0  0  0  0  0
  191.3610  176.6610  140.7100 C   0  0  2  0  0  3  0  0  0  0  0  0
  193.5570  177.1900  139.9420 O   0  0  0  0  0  1  0  0  0  0  0  0
  192.4920  177.6770  140.6970 C   0  0  0  0  0  2  0  0  0  0  0  0
  190.3170  177.0330  139.6630 C   0  0  0  0  0  2  0  0  0  0  0  0
  188.9080  177.0210  140.2430 C   0  0  0  0  0  2  0  0  0  0  0  0
  188.3040  178.4160  140.2440 C   0  0  2  0  0  3  0  0  0  0  0  0
  187.9830  178.7910  141.5490 O   0  0  0  0  0  1  0  0  0  0  0  0
  187.0990  178.4220  139.4350 N   0  0  0  0  0  1  0  0  0  0  0  0
  1  2  1  0  0  0  0
  2  5  2  0  0  0  0
  3  5  1  0  0  0  0
  4  3  2  0  0  0  0
  4  1  1  0  0  0  0
  6 12  1  6  0  0  0
  6 10  1  0  0  0  0
  6 11  1  0  0  0  0
  7  8  1  0  0  0  0
  9 10  1  6  0  0  0
  9  1  1  0  0  0  0
  9  8  1  0  0  0  0
 11  7  1  0  0  0  0
 13 12  1  0  0  0  0
 14 13  1  0  0  0  0
 15 20  2  0  0  0  0
 16 17  1  0  0  0  0
 17 19  2  0  0  0  0
 17 18  1  0  0  0  0
 18 14  1  1  0  0  0
 18 20  1  0  0  0  0
 19 15  1  0  0  0  0
 22 21  1  0  0  0  0
 22 19  1  0  0  0  0
 23 22  2  0  0  0  0
 24 26  1  6  0  0  0
 24  3  1  0  0  0  0
 26 25  1  0  0  0  0
 28 27  1  1  0  0  0
 28 24  1  0  0  0  0
 29 28  1  0  0  0  0
 30 29  1  0  0  0  0
 31 34  1  6  0  0  0
 31 30  1  0  0  0  0
 32 33  1  0  0  0  0
 33 31  1  0  0  0  0
 34 35  1  0  0  0  0
 35 36  1  0  0  0  0
 36 38  1  6  0  0  0
 36 37  1  0  0  0  0
M  END
>  <MODEL>
6

>  <REMARK>
 VINA RESULT:      -6.7      2.351      4.662
  Name = 
  16 active torsions:
  status: ('A' for Active; 'I' for Inactive)
    1  A    between atoms: C_1  and  C_35
    2  A    between atoms: N_3  and  C_22
    3  A    between atoms: C_8  and  C_29
    4  A    between atoms: C_8  and  C_31
    5  A    between atoms: C_8  and  O_37
    6  A    between atoms: C_10  and  C_21
    7  A    between atoms: C_10  and  C_35
    8  A    between atoms: C_12  and  C_21
    9  A    between atoms: C_13  and  C_32
   10  A    between atoms: C_14  and  C_16
   11  A    between atoms: C_15  and  C_20
   12  A    between atoms: C_17  and  C_30
   13  A    between atoms: C_17  and  O_37
   14  A    between atoms: C_20  and  C_30
   15  A    between atoms: C_20  and  C_38
   16  A    between atoms: C_31  and  C_32
                            x       y       z     vdW  Elec       q    Type
                         _______ _______ _______ _____ _____    ______ ____

>  <TORSDO>
F 16

$$$$
=
 OpenBabel10232410333D

 38 40  0  0  1  0  0  0  0  0999 V2000
  182.3470  177.7490  140.1680 N   0  0  0  0  0  0  0  0  0  0  0  0
  181.3690  176.8370  139.9910 C   0  0  0  0  0  3  0  0  0  0  0  0
  183.0580  176.3630  138.6990 C   0  0  0  0  0  0  0  0  0  0  0  0
  183.3860  177.4610  139.4040 N   0  0  0  0  0  0  0  0  0  0  0  0
  181.7930  175.9210  139.0410 C   0  0  0  0  0  3  0  0  0  0  0  0
  182.5640  179.1440  143.6380 C   0  0  1  0  0  3  0  0  0  0  0  0
  180.3870  178.4110  142.5430 C   0  0  0  0  0  2  0  0  0  0  0  0
  180.9310  179.2340  141.4620 N   0  0  0  0  0  2  0  0  0  0  0  0
  182.3160  178.8350  141.1480 C   0  0  1  0  0  3  0  0  0  0  0  0
  183.1490  178.4780  142.3960 C   0  0  0  0  0  2  0  0  0  0  0  0
  181.1210  178.6870  143.8610 C   0  0  0  0  0  2  0  0  0  0  0  0
  183.3990  178.8250  144.8630 C   0  0  0  0  0  2  0  0  0  0  0  0
  184.8480  179.2220  144.6300 C   0  0  0  0  0  2  0  0  0  0  0  0
  185.6880  178.9750  145.8750 C   0  0  0  0  0  2  0  0  0  0  0  0
  188.1830  177.2020  144.3630 C   0  0  0  0  0  3  0  0  0  0  0  0
  187.7540  177.8900  148.0260 C   0  0  0  0  0  1  0  0  0  0  0  0
  187.6630  177.6630  146.5520 C   0  0  0  0  0  0  0  0  0  0  0  0
  186.3790  177.6160  145.8130 C   0  0  2  0  0  3  0  0  0  0  0  0
  188.6780  177.4380  145.7390 C   0  0  0  0  0  0  0  0  0  0  0  0
  186.7200  177.2920  144.4250 N   0  0  0  0  0  0  0  0  0  0  0  0
  190.9800  177.6370  145.2150 O   0  0  0  0  0  0  0  0  0  0  0  0
  190.1090  177.4150  146.0990 C   0  0  0  0  0  0  0  0  0  0  0  0
  190.5170  177.1560  147.4000 O   0  0  0  0  0  1  0  0  0  0  0  0
  183.9810  175.6580  137.7530 C   0  0  1  0  0  3  0  0  0  0  0  0
  184.6730  173.3370  137.7230 O   0  0  0  0  0  1  0  0  0  0  0  0
  183.5960  174.1970  137.4990 C   0  0  0  0  0  2  0  0  0  0  0  0
  183.1810  177.3020  136.1880 O   0  0  0  0  0  1  0  0  0  0  0  0
  184.2660  176.4770  136.4880 C   0  0  1  0  0  3  0  0  0  0  0  0
  185.5450  177.2990  136.5770 C   0  0  0  0  0  2  0  0  0  0  0  0
  186.3740  176.7830  137.5780 O   0  0  0  0  0  0  0  0  0  0  0  0
  187.3220  177.7860  137.8160 C   0  0  2  0  0  3  0  0  0  0  0  0
  188.7860  177.9440  135.9390 O   0  0  0  0  0  1  0  0  0  0  0  0
  187.6470  178.5030  136.5160 C   0  0  0  0  0  2  0  0  0  0  0  0
  188.5850  177.1590  138.3940 C   0  0  0  0  0  2  0  0  0  0  0  0
  188.9850  177.8090  139.7130 C   0  0  0  0  0  2  0  0  0  0  0  0
  189.9140  176.9060  140.5080 C   0  0  2  0  0  3  0  0  0  0  0  0
  190.6880  177.6750  141.3790 O   0  0  0  0  0  1  0  0  0  0  0  0
  190.7880  176.1900  139.5980 N   0  0  0  0  0  1  0  0  0  0  0  0
  2  1  1  0  0  0  0
  3  5  1  0  0  0  0
  3  4  2  0  0  0  0
  4  1  1  0  0  0  0
  5  2  2  0  0  0  0
  6 11  1  0  0  0  0
  6 12  1  1  0  0  0
  7 11  1  0  0  0  0
  8  7  1  0  0  0  0
  9  1  1  6  0  0  0
  9  8  1  0  0  0  0
  9 10  1  0  0  0  0
 10  6  1  0  0  0  0
 13 12  1  0  0  0  0
 13 14  1  0  0  0  0
 15 20  2  0  0  0  0
 15 19  1  0  0  0  0
 17 16  1  0  0  0  0
 18 14  1  6  0  0  0
 18 17  1  0  0  0  0
 19 22  1  0  0  0  0
 19 17  2  0  0  0  0
 20 18  1  0  0  0  0
 21 22  2  0  0  0  0
 22 23  1  0  0  0  0
 24 26  1  6  0  0  0
 24  3  1  0  0  0  0
 26 25  1  0  0  0  0
 28 27  1  1  0  0  0
 28 29  1  0  0  0  0
 28 24  1  0  0  0  0
 29 30  1  0  0  0  0
 30 31  1  0  0  0  0
 31 33  1  6  0  0  0
 31 34  1  0  0  0  0
 32 33  1  0  0  0  0
 34 35  1  0  0  0  0
 35 36  1  0  0  0  0
 36 38  1  6  0  0  0
 36 37  1  0  0  0  0
M  END
>  <MODEL>
7

>  <REMARK>
 VINA RESULT:      -6.7      2.160      8.081
  Name = 
  16 active torsions:
  status: ('A' for Active; 'I' for Inactive)
    1  A    between atoms: C_1  and  C_35
    2  A    between atoms: N_3  and  C_22
    3  A    between atoms: C_8  and  C_29
    4  A    between atoms: C_8  and  C_31
    5  A    between atoms: C_8  and  O_37
    6  A    between atoms: C_10  and  C_21
    7  A    between atoms: C_10  and  C_35
    8  A    between atoms: C_12  and  C_21
    9  A    between atoms: C_13  and  C_32
   10  A    between atoms: C_14  and  C_16
   11  A    between atoms: C_15  and  C_20
   12  A    between atoms: C_17  and  C_30
   13  A    between atoms: C_17  and  O_37
   14  A    between atoms: C_20  and  C_30
   15  A    between atoms: C_20  and  C_38
   16  A    between atoms: C_31  and  C_32
                            x       y       z     vdW  Elec       q    Type
                         _______ _______ _______ _____ _____    ______ ____

>  <TORSDO>
F 16

$$$$
=
 OpenBabel10232410333D

 38 40  0  0  1  0  0  0  0  0999 V2000
  183.1300  178.6270  141.7620 N   0  0  0  0  0  0  0  0  0  0  0  0
  181.8120  178.8930  141.8620 C   0  0  0  0  0  3  0  0  0  0  0  0
  182.1500  177.4390  140.2750 C   0  0  0  0  0  0  0  0  0  0  0  0
  183.3460  177.7300  140.8160 N   0  0  0  0  0  0  0  0  0  0  0  0
  181.1410  178.1430  140.9090 C   0  0  0  0  0  3  0  0  0  0  0  0
  185.5990  178.3780  144.5680 C   0  0  1  0  0  3  0  0  0  0  0  0
  183.1980  179.1640  144.8640 C   0  0  0  0  0  2  0  0  0  0  0  0
  183.5780  179.9900  143.7180 N   0  0  0  0  0  2  0  0  0  0  0  0
  184.1650  179.1600  142.6480 C   0  0  1  0  0  3  0  0  0  0  0  0
  185.0760  178.0340  143.1770 C   0  0  0  0  0  2  0  0  0  0  0  0
  184.4370  178.5700  145.5450 C   0  0  0  0  0  2  0  0  0  0  0  0
  186.5240  177.2890  145.0790 C   0  0  0  0  0  2  0  0  0  0  0  0
  187.8110  177.8990  145.6100 C   0  0  0  0  0  2  0  0  0  0  0  0
  189.0280  177.1950  145.0270 C   0  0  0  0  0  2  0  0  0  0  0  0
  191.9730  177.5240  143.3310 C   0  0  0  0  0  3  0  0  0  0  0  0
  188.4980  178.0440  142.0150 C   0  0  0  0  0  1  0  0  0  0  0  0
  189.7730  177.8810  142.7780 C   0  0  0  0  0  0  0  0  0  0  0  0
  189.8950  178.1640  144.2270 C   0  0  2  0  0  3  0  0  0  0  0  0
  190.9350  177.5140  142.2730 C   0  0  0  0  0  0  0  0  0  0  0  0
  191.3080  177.9620  144.5620 N   0  0  0  0  0  0  0  0  0  0  0  0
  192.1860  177.6640  140.2670 O   0  0  0  0  0  1  0  0  0  0  0  0
  191.2120  177.1410  140.8730 C   0  0  0  0  0  0  0  0  0  0  0  0
  190.4180  176.2170  140.2070 O   0  0  0  0  0  0  0  0  0  0  0  0
  181.9310  176.4140  139.2040 C   0  0  1  0  0  3  0  0  0  0  0  0
  180.5420  174.7680  140.3130 O   0  0  0  0  0  1  0  0  0  0  0  0
  180.5680  175.7210  139.2920 C   0  0  0  0  0  2  0  0  0  0  0  0
  182.4760  178.3160  137.8340 O   0  0  0  0  0  1  0  0  0  0  0  0
  182.3020  176.9310  137.8090 C   0  0  1  0  0  3  0  0  0  0  0  0
  183.5330  176.2540  137.2220 C   0  0  0  0  0  2  0  0  0  0  0  0
  184.6920  176.8290  137.7530 O   0  0  0  0  0  0  0  0  0  0  0  0
  185.6930  176.5610  136.8130 C   0  0  2  0  0  3  0  0  0  0  0  0
  186.6000  174.4140  137.3260 O   0  0  0  0  0  1  0  0  0  0  0  0
  185.7060  175.0760  136.4860 C   0  0  0  0  0  2  0  0  0  0  0  0
  187.0440  176.9780  137.3820 C   0  0  0  0  0  2  0  0  0  0  0  0
  187.3910  178.4160  137.0140 C   0  0  0  0  0  2  0  0  0  0  0  0
  188.8550  178.7150  137.2950 C   0  0  2  0  0  3  0  0  0  0  0  0
  189.6150  177.5580  137.1180 O   0  0  0  0  0  1  0  0  0  0  0  0
  189.0000  179.1780  138.6630 N   0  0  0  0  0  1  0  0  0  0  0  0
  1  2  1  0  0  0  0
  3  4  2  0  0  0  0
  3  5  1  0  0  0  0
  4  1  1  0  0  0  0
  5  2  2  0  0  0  0
  6 12  1  1  0  0  0
  6 11  1  0  0  0  0
  7 11  1  0  0  0  0
  8  7  1  0  0  0  0
  9  1  1  1  0  0  0
  9 10  1  0  0  0  0
  9  8  1  0  0  0  0
 10  6  1  0  0  0  0
 12 13  1  0  0  0  0
 14 13  1  0  0  0  0
 15 20  2  0  0  0  0
 16 17  1  0  0  0  0
 17 18  1  0  0  0  0
 18 20  1  0  0  0  0
 18 14  1  1  0  0  0
 19 17  2  0  0  0  0
 19 15  1  0  0  0  0
 21 22  1  0  0  0  0
 22 19  1  0  0  0  0
 23 22  2  0  0  0  0
 24 26  1  6  0  0  0
 24  3  1  0  0  0  0
 26 25  1  0  0  0  0
 28 27  1  1  0  0  0
 28 24  1  0  0  0  0
 29 30  1  0  0  0  0
 29 28  1  0  0  0  0
 31 33  1  1  0  0  0
 31 34  1  0  0  0  0
 31 30  1  0  0  0  0
 33 32  1  0  0  0  0
 35 36  1  0  0  0  0
 35 34  1  0  0  0  0
 36 37  1  1  0  0  0
 36 38  1  0  0  0  0
M  END
>  <MODEL>
8

>  <REMARK>
 VINA RESULT:      -6.7      2.890      8.332
  Name = 
  16 active torsions:
  status: ('A' for Active; 'I' for Inactive)
    1  A    between atoms: C_1  and  C_35
    2  A    between atoms: N_3  and  C_22
    3  A    between atoms: C_8  and  C_29
    4  A    between atoms: C_8  and  C_31
    5  A    between atoms: C_8  and  O_37
    6  A    between atoms: C_10  and  C_21
    7  A    between atoms: C_10  and  C_35
    8  A    between atoms: C_12  and  C_21
    9  A    between atoms: C_13  and  C_32
   10  A    between atoms: C_14  and  C_16
   11  A    between atoms: C_15  and  C_20
   12  A    between atoms: C_17  and  C_30
   13  A    between atoms: C_17  and  O_37
   14  A    between atoms: C_20  and  C_30
   15  A    between atoms: C_20  and  C_38
   16  A    between atoms: C_31  and  C_32
                            x       y       z     vdW  Elec       q    Type
                         _______ _______ _______ _____ _____    ______ ____

>  <TORSDO>
F 16

$$$$
=
 OpenBabel10232410333D

 38 40  0  0  1  0  0  0  0  0999 V2000
  184.6290  178.9560  141.7320 N   0  0  0  0  0  0  0  0  0  0  0  0
  183.6060  178.1030  141.5230 C   0  0  0  0  0  3  0  0  0  0  0  0
  184.6880  178.4240  139.6600 C   0  0  0  0  0  0  0  0  0  0  0  0
  185.3060  179.1430  140.6120 N   0  0  0  0  0  0  0  0  0  0  0  0
  183.6090  177.7370  140.1870 C   0  0  0  0  0  3  0  0  0  0  0  0
  185.3180  178.7140  145.4070 C   0  0  1  0  0  3  0  0  0  0  0  0
  183.0490  179.3250  144.4310 C   0  0  0  0  0  2  0  0  0  0  0  0
  183.8930  180.2360  143.6570 N   0  0  0  0  0  2  0  0  0  0  0  0
  185.0130  179.5060  143.0320 C   0  0  1  0  0  3  0  0  0  0  0  0
  185.6150  178.4140  143.9400 C   0  0  0  0  0  2  0  0  0  0  0  0
  183.8080  178.7770  145.6460 C   0  0  0  0  0  2  0  0  0  0  0  0
  185.9370  177.6620  146.3070 C   0  0  0  0  0  2  0  0  0  0  0  0
  187.1080  178.2520  147.0770 C   0  0  0  0  0  2  0  0  0  0  0  0
  188.2290  177.2330  147.2290 C   0  0  0  0  0  2  0  0  0  0  0  0
  191.5300  176.5310  146.7160 C   0  0  0  0  0  3  0  0  0  0  0  0
  189.0900  177.9930  144.2700 C   0  0  0  0  0  1  0  0  0  0  0  0
  189.8940  177.5020  145.4300 C   0  0  0  0  0  0  0  0  0  0  0  0
  189.5760  177.8340  146.8390 C   0  0  2  0  0  3  0  0  0  0  0  0
  190.9860  176.7650  145.3580 C   0  0  0  0  0  0  0  0  0  0  0  0
  190.6420  177.2350  147.6470 N   0  0  0  0  0  0  0  0  0  0  0  0
  191.9800  175.0240  144.0950 O   0  0  0  0  0  1  0  0  0  0  0  0
  191.6100  176.2290  144.1330 C   0  0  0  0  0  0  0  0  0  0  0  0
  191.7960  177.0290  143.0140 O   0  0  0  0  0  0  0  0  0  0  0  0
  185.1680  178.3020  138.2450 C   0  0  1  0  0  3  0  0  0  0  0  0
  187.2270  179.1650  137.3050 O   0  0  0  0  0  1  0  0  0  0  0  0
  186.6900  178.1710  138.1270 C   0  0  0  0  0  2  0  0  0  0  0  0
  183.2490  177.8690  136.8590 O   0  0  0  0  0  1  0  0  0  0  0  0
  184.3690  177.2710  137.4390 C   0  0  1  0  0  3  0  0  0  0  0  0
  185.1990  176.5620  136.3770 C   0  0  0  0  0  2  0  0  0  0  0  0
  185.5230  175.2720  136.8080 O   0  0  0  0  0  0  0  0  0  0  0  0
  186.6530  174.9140  136.0630 C   0  0  2  0  0  3  0  0  0  0  0  0
  186.4840  172.5430  135.8570 O   0  0  0  0  0  1  0  0  0  0  0  0
  186.3200  173.7390  135.1590 C   0  0  0  0  0  2  0  0  0  0  0  0
  187.7830  174.5350  137.0130 C   0  0  0  0  0  2  0  0  0  0  0  0
  189.0990  175.1930  136.6150 C   0  0  0  0  0  2  0  0  0  0  0  0
  189.6230  176.0850  137.7290 C   0  0  2  0  0  3  0  0  0  0  0  0
  190.0910  177.2860  137.1920 O   0  0  0  0  0  1  0  0  0  0  0  0
  190.7110  175.4130  138.4160 N   0  0  0  0  0  1  0  0  0  0  0  0
  2  1  1  0  0  0  0
  3  5  1  0  0  0  0
  3  4  2  0  0  0  0
  4  1  1  0  0  0  0
  5  2  2  0  0  0  0
  6 11  1  0  0  0  0
  6 12  1  1  0  0  0
  7 11  1  0  0  0  0
  8  7  1  0  0  0  0
  9  1  1  6  0  0  0
  9  8  1  0  0  0  0
  9 10  1  0  0  0  0
 10  6  1  0  0  0  0
 12 13  1  0  0  0  0
 13 14  1  0  0  0  0
 15 20  2  0  0  0  0
 16 17  1  0  0  0  0
 17 18  1  0  0  0  0
 18 14  1  1  0  0  0
 18 20  1  0  0  0  0
 19 17  2  0  0  0  0
 19 15  1  0  0  0  0
 21 22  1  0  0  0  0
 22 19  1  0  0  0  0
 23 22  2  0  0  0  0
 24 26  1  1  0  0  0
 24  3  1  0  0  0  0
 25 26  1  0  0  0  0
 28 27  1  6  0  0  0
 28 24  1  0  0  0  0
 29 30  1  0  0  0  0
 29 28  1  0  0  0  0
 31 33  1  6  0  0  0
 31 30  1  0  0  0  0
 31 34  1  0  0  0  0
 33 32  1  0  0  0  0
 35 34  1  0  0  0  0
 35 36  1  0  0  0  0
 36 37  1  6  0  0  0
 36 38  1  0  0  0  0
M  END
>  <MODEL>
9

>  <REMARK>
 VINA RESULT:      -6.6      2.394      8.571
  Name = 
  16 active torsions:
  status: ('A' for Active; 'I' for Inactive)
    1  A    between atoms: C_1  and  C_35
    2  A    between atoms: N_3  and  C_22
    3  A    between atoms: C_8  and  C_29
    4  A    between atoms: C_8  and  C_31
    5  A    between atoms: C_8  and  O_37
    6  A    between atoms: C_10  and  C_21
    7  A    between atoms: C_10  and  C_35
    8  A    between atoms: C_12  and  C_21
    9  A    between atoms: C_13  and  C_32
   10  A    between atoms: C_14  and  C_16
   11  A    between atoms: C_15  and  C_20
   12  A    between atoms: C_17  and  C_30
   13  A    between atoms: C_17  and  O_37
   14  A    between atoms: C_20  and  C_30
   15  A    between atoms: C_20  and  C_38
   16  A    between atoms: C_31  and  C_32
                            x       y       z     vdW  Elec       q    Type
                         _______ _______ _______ _____ _____    ______ ____

>  <TORSDO>
F 16

$$$$
