=
 OpenBabel10222421563D

 40 45  0  0  1  0  0  0  0  0999 V2000
  188.3750  178.5100  140.3810 C   0  0  0  0  0  2  0  0  0  0  0  0
  183.9640  178.7640  142.2490 C   0  0  0  0  0  0  0  0  0  0  0  0
  188.3280  177.0990  137.6600 C   0  0  0  0  0  3  0  0  0  0  0  0
  184.8420  178.6220  141.2740 C   0  0  0  0  0  0  0  0  0  0  0  0
  182.5830  178.7270  141.6670 C   0  0  0  0  0  3  0  0  0  0  0  0
  186.2610  178.6270  141.3800 N   0  0  0  0  0  0  0  0  0  0  0  0
  187.0600  178.3870  140.2140 C   0  0  0  0  0  0  0  0  0  0  0  0
  189.3990  178.2990  139.4550 O   0  0  0  0  0  0  0  0  0  0  0  0
  189.4140  177.4310  138.3580 C   0  0  0  0  0  0  0  0  0  0  0  0
  184.9080  178.4230  138.7260 C   0  0  0  0  0  3  0  0  0  0  0  0
  186.9440  177.5290  137.8550 C   0  0  0  0  0  3  0  0  0  0  0  0
  184.1730  178.4820  140.0220 C   0  0  0  0  0  0  0  0  0  0  0  0
  182.8640  178.5640  140.1950 C   0  0  0  0  0  3  0  0  0  0  0  0
  186.3740  178.0970  138.9120 C   0  0  0  0  0  0  0  0  0  0  0  0
  191.8090  176.9150  138.8270 C   0  0  0  0  0  3  0  0  0  0  0  0
  190.7290  176.8980  137.9310 C   0  0  0  0  0  0  0  0  0  0  0  0
  190.9250  176.3660  136.6420 C   0  0  0  0  0  3  0  0  0  0  0  0
  193.0570  176.4120  138.4490 C   0  0  0  0  0  3  0  0  0  0  0  0
  193.2380  175.8860  137.1660 C   0  0  0  0  0  0  0  0  0  0  0  0
  192.1730  175.8630  136.2630 C   0  0  0  0  0  3  0  0  0  0  0  0
  195.6460  175.2340  135.8290 C   0  0  0  0  0  2  0  0  0  0  0  0
  194.5070  175.3680  136.7830 N   0  0  0  0  0  0  0  0  0  0  0  0
  195.7100  174.5110  137.0030 C   0  0  1  0  0  3  0  0  0  0  0  0
  195.5340  172.2610  138.0280 C   0  0  0  0  0  1  0  0  0  0  0  0
  195.3280  173.0640  136.7590 C   0  0  0  0  0  2  0  0  0  0  0  0
  184.2660  178.9750  143.7020 C   0  0  1  0  0  3  0  0  0  0  0  0
  182.9890  178.9740  144.5230 C   0  0  0  0  0  1  0  0  0  0  0  0
  185.1310  177.9830  144.1710 O   0  0  0  0  0  0  0  0  0  0  0  0
  185.9600  178.6230  145.0290 N   0  0  0  0  0  2  0  0  0  0  0  0
  186.0340  177.8040  146.2300 C   0  0  0  0  0  2  0  0  0  0  0  0
  188.4450  178.0420  145.5340 C   0  0  0  0  0  2  0  0  0  0  0  0
  189.3420  177.9380  148.1830 C   0  0  0  0  0  2  0  0  0  0  0  0
  190.1880  177.1380  147.1960 C   0  0  0  0  0  2  0  0  0  0  0  0
  187.8480  177.6570  147.9810 C   0  0  0  0  0  2  0  0  0  0  0  0
  189.8820  177.5370  145.7430 C   0  0  1  0  0  3  0  0  0  0  0  0
  187.4720  177.3870  146.5150 C   0  0  1  0  0  3  0  0  0  0  0  0
  190.1290  176.4490  144.9030 O   0  0  0  0  0  0  0  0  0  0  0  0
  191.4490  176.6150  144.4770 C   0  0  0  0  0  2  0  0  0  0  0  0
  190.3510  176.2040  142.3010 C   0  0  0  0  0  1  0  0  0  0  0  0
  191.4640  176.9540  143.0020 C   0  0  0  0  0  2  0  0  0  0  0  0
  2 26  1  0  0  0  0
  3 11  1  0  0  0  0
  3  9  2  0  0  0  0
  4  6  1  0  0  0  0
  4  2  2  0  0  0  0
  5  2  1  0  0  0  0
  7  1  1  0  0  0  0
  7  6  2  0  0  0  0
  8  1  1  0  0  0  0
  9  8  1  0  0  0  0
 10 14  1  0  0  0  0
 10 12  2  0  0  0  0
 11 14  2  0  0  0  0
 12 13  1  0  0  0  0
 12  4  1  0  0  0  0
 13  5  2  0  0  0  0
 14  7  1  0  0  0  0
 16  9  1  0  0  0  0
 16 15  2  0  0  0  0
 17 16  1  0  0  0  0
 18 15  1  0  0  0  0
 19 18  2  0  0  0  0
 20 17  2  0  0  0  0
 20 19  1  0  0  0  0
 21 22  1  0  0  0  0
 21 23  1  0  0  0  0
 22 23  1  0  0  0  0
 22 19  1  0  0  0  0
 23 25  1  6  0  0  0
 25 24  1  0  0  0  0
 26 28  1  0  0  0  0
 26 27  1  1  0  0  0
 28 29  1  0  0  0  0
 29 30  1  0  0  0  0
 31 35  1  0  0  0  0
 31 36  1  0  0  0  0
 33 32  1  0  0  0  0
 34 32  1  0  0  0  0
 35 37  1  6  0  0  0
 35 33  1  0  0  0  0
 36 30  1  6  0  0  0
 36 34  1  0  0  0  0
 38 37  1  0  0  0  0
 39 40  1  0  0  0  0
 40 38  1  0  0  0  0
M  END
>  <MODEL>
1

>  <REMARK>
 VINA RESULT:      -8.7      0.000      0.000
  Name = 
  11 active torsions:
  status: ('A' for Active; 'I' for Inactive)
    1  A    between atoms: C_2  and  C_3
    2  A    between atoms: C_3  and  O_24
    3  A    between atoms: N_6  and  O_24
    4  A    between atoms: N_6  and  C_37
    5  A    between atoms: C_11  and  C_18
    6  A    between atoms: C_20  and  C_23
    7  A    between atoms: C_20  and  O_36
    8  A    between atoms: N_21  and  C_34
    9  A    between atoms: C_30  and  C_38
   10  A    between atoms: C_31  and  O_36
   11  A    between atoms: C_35  and  C_37
                            x       y       z     vdW  Elec       q    Type
                         _______ _______ _______ _____ _____    ______ ____

>  <TORSDO>
F 11

$$$$
=
 OpenBabel10222421563D

 40 45  0  0  1  0  0  0  0  0999 V2000
  189.0180  177.8610  139.9770 C   0  0  0  0  0  2  0  0  0  0  0  0
  184.4460  178.8320  141.0570 C   0  0  0  0  0  0  0  0  0  0  0  0
  189.2260  176.5010  137.2380 C   0  0  0  0  0  3  0  0  0  0  0  0
  185.4490  178.5550  140.2450 C   0  0  0  0  0  0  0  0  0  0  0  0
  183.2030  179.0310  140.2420 C   0  0  0  0  0  3  0  0  0  0  0  0
  186.8070  178.3220  140.5970 N   0  0  0  0  0  0  0  0  0  0  0  0
  187.7510  177.9610  139.5790 C   0  0  0  0  0  0  0  0  0  0  0  0
  190.1420  177.4900  139.2360 O   0  0  0  0  0  0  0  0  0  0  0  0
  190.2100  176.6410  138.1270 C   0  0  0  0  0  0  0  0  0  0  0  0
  185.9330  178.3680  137.7410 C   0  0  0  0  0  3  0  0  0  0  0  0
  187.9190  177.1550  137.2050 C   0  0  0  0  0  3  0  0  0  0  0  0
  184.9990  178.5390  138.8910 C   0  0  0  0  0  0  0  0  0  0  0  0
  183.7110  178.8370  138.8370 C   0  0  0  0  0  3  0  0  0  0  0  0
  187.2700  177.8000  138.1670 C   0  0  0  0  0  0  0  0  0  0  0  0
  192.7000  176.5190  138.2110 C   0  0  0  0  0  3  0  0  0  0  0  0
  191.4760  175.9000  137.9140 C   0  0  0  0  0  0  0  0  0  0  0  0
  191.4830  174.5790  137.4270 C   0  0  0  0  0  3  0  0  0  0  0  0
  193.9060  175.8380  138.0250 C   0  0  0  0  0  3  0  0  0  0  0  0
  193.9010  174.5270  137.5400 C   0  0  0  0  0  0  0  0  0  0  0  0
  192.6900  173.8980  137.2400 C   0  0  0  0  0  3  0  0  0  0  0  0
  196.1660  172.8470  137.7830 C   0  0  0  0  0  2  0  0  0  0  0  0
  195.1280  173.8310  137.3570 N   0  0  0  0  0  0  0  0  0  0  0  0
  196.3910  173.5450  136.6140 C   0  0  1  0  0  3  0  0  0  0  0  0
  197.5480  175.4730  135.5700 C   0  0  0  0  0  1  0  0  0  0  0  0
  197.3650  174.6820  136.8510 C   0  0  0  0  0  2  0  0  0  0  0  0
  184.5150  178.9790  142.5470 C   0  0  1  0  0  3  0  0  0  0  0  0
  183.1240  179.1230  143.1380 C   0  0  0  0  0  1  0  0  0  0  0  0
  185.1600  177.8770  143.1170 O   0  0  0  0  0  0  0  0  0  0  0  0
  185.9450  178.4000  144.0870 N   0  0  0  0  0  2  0  0  0  0  0  0
  187.1190  177.5440  144.1830 C   0  0  0  0  0  2  0  0  0  0  0  0
  188.9540  177.9110  145.8710 C   0  0  0  0  0  2  0  0  0  0  0  0
  187.1230  178.4640  147.9150 C   0  0  0  0  0  2  0  0  0  0  0  0
  188.2950  177.5800  148.3350 C   0  0  0  0  0  2  0  0  0  0  0  0
  186.5120  177.9750  146.5960 C   0  0  0  0  0  2  0  0  0  0  0  0
  189.4350  177.6310  147.3040 C   0  0  1  0  0  3  0  0  0  0  0  0
  187.5450  177.3650  145.6350 C   0  0  1  0  0  3  0  0  0  0  0  0
  190.1440  176.4280  147.3400 O   0  0  0  0  0  0  0  0  0  0  0  0
  191.0960  176.5420  146.3250 C   0  0  0  0  0  2  0  0  0  0  0  0
  192.6220  175.7470  148.1000 C   0  0  0  0  0  1  0  0  0  0  0  0
  192.2700  175.6370  146.6310 C   0  0  0  0  0  2  0  0  0  0  0  0
  2 26  1  0  0  0  0
  3  9  2  0  0  0  0
  4  6  1  0  0  0  0
  4  2  2  0  0  0  0
  5  2  1  0  0  0  0
  7  1  1  0  0  0  0
  7  6  2  0  0  0  0
  8  1  1  0  0  0  0
  9  8  1  0  0  0  0
 10 14  1  0  0  0  0
 10 12  2  0  0  0  0
 11  3  1  0  0  0  0
 11 14  2  0  0  0  0
 12  4  1  0  0  0  0
 13 12  1  0  0  0  0
 13  5  2  0  0  0  0
 14  7  1  0  0  0  0
 16  9  1  0  0  0  0
 16 15  2  0  0  0  0
 17 16  1  0  0  0  0
 18 15  1  0  0  0  0
 19 18  2  0  0  0  0
 20 17  2  0  0  0  0
 20 19  1  0  0  0  0
 22 19  1  0  0  0  0
 22 21  1  0  0  0  0
 23 25  1  1  0  0  0
 23 22  1  0  0  0  0
 23 21  1  0  0  0  0
 24 25  1  0  0  0  0
 26 28  1  0  0  0  0
 26 27  1  1  0  0  0
 28 29  1  0  0  0  0
 29 30  1  0  0  0  0
 31 35  1  0  0  0  0
 32 33  1  0  0  0  0
 34 32  1  0  0  0  0
 35 37  1  6  0  0  0
 35 33  1  0  0  0  0
 36 30  1  6  0  0  0
 36 31  1  0  0  0  0
 36 34  1  0  0  0  0
 38 40  1  0  0  0  0
 38 37  1  0  0  0  0
 40 39  1  0  0  0  0
M  END
>  <MODEL>
2

>  <REMARK>
 VINA RESULT:      -8.3      1.345      2.076
  Name = 
  11 active torsions:
  status: ('A' for Active; 'I' for Inactive)
    1  A    between atoms: C_2  and  C_3
    2  A    between atoms: C_3  and  O_24
    3  A    between atoms: N_6  and  O_24
    4  A    between atoms: N_6  and  C_37
    5  A    between atoms: C_11  and  C_18
    6  A    between atoms: C_20  and  C_23
    7  A    between atoms: C_20  and  O_36
    8  A    between atoms: N_21  and  C_34
    9  A    between atoms: C_30  and  C_38
   10  A    between atoms: C_31  and  O_36
   11  A    between atoms: C_35  and  C_37
                            x       y       z     vdW  Elec       q    Type
                         _______ _______ _______ _____ _____    ______ ____

>  <TORSDO>
F 11

$$$$
=
 OpenBabel10222421563D

 40 45  0  0  1  0  0  0  0  0999 V2000
  188.0180  178.7660  140.9370 C   0  0  0  0  0  2  0  0  0  0  0  0
  184.5240  178.9070  144.2220 C   0  0  0  0  0  0  0  0  0  0  0  0
  186.9860  177.5980  138.2980 C   0  0  0  0  0  3  0  0  0  0  0  0
  185.0100  178.8410  142.9970 C   0  0  0  0  0  0  0  0  0  0  0  0
  183.0270  178.9370  144.1500 C   0  0  0  0  0  3  0  0  0  0  0  0
  186.3780  178.8200  142.6090 N   0  0  0  0  0  0  0  0  0  0  0  0
  186.7210  178.6730  141.2240 C   0  0  0  0  0  0  0  0  0  0  0  0
  188.6540  178.6250  139.7020 O   0  0  0  0  0  0  0  0  0  0  0  0
  188.2580  177.8560  138.6040 C   0  0  0  0  0  0  0  0  0  0  0  0
  184.1930  178.8630  140.5750 C   0  0  0  0  0  3  0  0  0  0  0  0
  185.7710  178.0250  138.9890 C   0  0  0  0  0  3  0  0  0  0  0  0
  183.9480  178.8180  142.0440 C   0  0  0  0  0  0  0  0  0  0  0  0
  182.7820  178.8990  142.6630 C   0  0  0  0  0  3  0  0  0  0  0  0
  185.6200  178.5050  140.2190 C   0  0  0  0  0  0  0  0  0  0  0  0
  190.5470  176.9300  138.2570 C   0  0  0  0  0  3  0  0  0  0  0  0
  189.3250  177.3470  137.7090 C   0  0  0  0  0  0  0  0  0  0  0  0
  189.1410  177.2640  136.3160 C   0  0  0  0  0  3  0  0  0  0  0  0
  191.5670  176.4400  137.4350 C   0  0  0  0  0  3  0  0  0  0  0  0
  191.3720  176.3630  136.0520 C   0  0  0  0  0  0  0  0  0  0  0  0
  190.1600  176.7760  135.4930 C   0  0  0  0  0  3  0  0  0  0  0  0
  193.1420  174.7450  134.5480 C   0  0  0  0  0  2  0  0  0  0  0  0
  192.4060  175.8590  135.2150 N   0  0  0  0  0  0  0  0  0  0  0  0
  193.6160  176.0270  134.3560 C   0  0  1  0  0  3  0  0  0  0  0  0
  195.5860  177.4870  134.7240 C   0  0  0  0  0  1  0  0  0  0  0  0
  194.8140  176.2910  135.2470 C   0  0  0  0  0  2  0  0  0  0  0  0
  185.3130  178.9880  145.4950 C   0  0  1  0  0  3  0  0  0  0  0  0
  184.5890  178.2760  146.6230 C   0  0  0  0  0  1  0  0  0  0  0  0
  186.5820  178.4290  145.3190 O   0  0  0  0  0  0  0  0  0  0  0  0
  186.6620  177.4520  146.2530 N   0  0  0  0  0  2  0  0  0  0  0  0
  187.8130  177.7640  147.0890 C   0  0  0  0  0  2  0  0  0  0  0  0
  189.8530  178.3650  145.7370 C   0  0  0  0  0  2  0  0  0  0  0  0
  191.4740  176.5980  147.1810 C   0  0  0  0  0  2  0  0  0  0  0  0
  191.7190  176.5950  145.6740 C   0  0  0  0  0  2  0  0  0  0  0  0
  189.9750  176.5230  147.4930 C   0  0  0  0  0  2  0  0  0  0  0  0
  191.0920  177.8280  145.0010 C   0  0  1  0  0  3  0  0  0  0  0  0
  189.0990  177.2460  146.4570 C   0  0  1  0  0  3  0  0  0  0  0  0
  190.7600  177.5150  143.6810 O   0  0  0  0  0  0  0  0  0  0  0  0
  191.3620  176.2780  143.4420 C   0  0  0  0  0  2  0  0  0  0  0  0
  188.9560  175.9490  142.9780 C   0  0  0  0  0  1  0  0  0  0  0  0
  190.2950  175.2550  143.1100 C   0  0  0  0  0  2  0  0  0  0  0  0
  1  7  1  0  0  0  0
  2 26  1  0  0  0  0
  3  9  2  0  0  0  0
  3 11  1  0  0  0  0
  4  2  2  0  0  0  0
  5  2  1  0  0  0  0
  6  4  1  0  0  0  0
  7  6  2  0  0  0  0
  8  1  1  0  0  0  0
  9  8  1  0  0  0  0
 10 12  2  0  0  0  0
 11 14  2  0  0  0  0
 12 13  1  0  0  0  0
 12  4  1  0  0  0  0
 13  5  2  0  0  0  0
 14 10  1  0  0  0  0
 14  7  1  0  0  0  0
 16 15  1  0  0  0  0
 16  9  1  0  0  0  0
 17 16  2  0  0  0  0
 18 15  2  0  0  0  0
 19 18  1  0  0  0  0
 20 19  2  0  0  0  0
 20 17  1  0  0  0  0
 21 22  1  0  0  0  0
 22 19  1  0  0  0  0
 23 21  1  0  0  0  0
 23 22  1  0  0  0  0
 23 25  1  1  0  0  0
 24 25  1  0  0  0  0
 26 27  1  1  0  0  0
 28 26  1  0  0  0  0
 28 29  1  0  0  0  0
 29 30  1  0  0  0  0
 31 36  1  0  0  0  0
 32 34  1  0  0  0  0
 33 32  1  0  0  0  0
 35 37  1  6  0  0  0
 35 33  1  0  0  0  0
 35 31  1  0  0  0  0
 36 30  1  1  0  0  0
 36 34  1  0  0  0  0
 38 37  1  0  0  0  0
 39 40  1  0  0  0  0
 40 38  1  0  0  0  0
M  END
>  <MODEL>
3

>  <REMARK>
 VINA RESULT:      -8.1      1.566      2.250
  Name = 
  11 active torsions:
  status: ('A' for Active; 'I' for Inactive)
    1  A    between atoms: C_2  and  C_3
    2  A    between atoms: C_3  and  O_24
    3  A    between atoms: N_6  and  O_24
    4  A    between atoms: N_6  and  C_37
    5  A    between atoms: C_11  and  C_18
    6  A    between atoms: C_20  and  C_23
    7  A    between atoms: C_20  and  O_36
    8  A    between atoms: N_21  and  C_34
    9  A    between atoms: C_30  and  C_38
   10  A    between atoms: C_31  and  O_36
   11  A    between atoms: C_35  and  C_37
                            x       y       z     vdW  Elec       q    Type
                         _______ _______ _______ _____ _____    ______ ____

>  <TORSDO>
F 11

$$$$
=
 OpenBabel10222421563D

 40 45  0  0  1  0  0  0  0  0999 V2000
  192.7860  176.6640  138.7760 C   0  0  0  0  0  2  0  0  0  0  0  0
  188.2350  177.9620  139.5620 C   0  0  0  0  0  0  0  0  0  0  0  0
  192.9950  174.8620  136.3050 C   0  0  0  0  0  3  0  0  0  0  0  0
  189.2420  177.5180  138.8340 C   0  0  0  0  0  0  0  0  0  0  0  0
  187.0180  178.0680  138.6940 C   0  0  0  0  0  3  0  0  0  0  0  0
  190.5830  177.2990  139.2540 N   0  0  0  0  0  0  0  0  0  0  0  0
  191.5330  176.7410  138.3350 C   0  0  0  0  0  0  0  0  0  0  0  0
  193.9090  176.1360  138.1360 O   0  0  0  0  0  0  0  0  0  0  0  0
  193.9660  175.1130  137.1840 C   0  0  0  0  0  0  0  0  0  0  0  0
  189.7680  176.9030  136.4090 C   0  0  0  0  0  3  0  0  0  0  0  0
  191.7160  175.5480  136.1310 C   0  0  0  0  0  3  0  0  0  0  0  0
  188.8200  177.2950  137.4890 C   0  0  0  0  0  0  0  0  0  0  0  0
  187.5460  177.6250  137.3540 C   0  0  0  0  0  3  0  0  0  0  0  0
  191.0730  176.3660  136.9570 C   0  0  0  0  0  0  0  0  0  0  0  0
  196.3310  174.8010  136.4550 C   0  0  0  0  0  3  0  0  0  0  0  0
  195.2050  174.3020  137.1290 C   0  0  0  0  0  0  0  0  0  0  0  0
  195.2880  173.0400  137.7460 C   0  0  0  0  0  3  0  0  0  0  0  0
  197.5130  174.0580  136.3960 C   0  0  0  0  0  3  0  0  0  0  0  0
  197.5820  172.8050  137.0120 C   0  0  0  0  0  0  0  0  0  0  0  0
  196.4700  172.2960  137.6870 C   0  0  0  0  0  3  0  0  0  0  0  0
  200.0840  171.6750  136.3230 C   0  0  0  0  0  2  0  0  0  0  0  0
  198.7880  172.0510  136.9580 N   0  0  0  0  0  0  0  0  0  0  0  0
  199.7170  170.9990  137.4680 C   0  0  1  0  0  3  0  0  0  0  0  0
  199.1020  168.7730  138.3700 C   0  0  0  0  0  1  0  0  0  0  0  0
  199.1470  169.6370  137.1240 C   0  0  0  0  0  2  0  0  0  0  0  0
  188.2810  178.3500  141.0100 C   0  0  1  0  0  3  0  0  0  0  0  0
  186.9020  178.7510  141.5020 C   0  0  0  0  0  1  0  0  0  0  0  0
  188.7730  177.2950  141.7830 O   0  0  0  0  0  0  0  0  0  0  0  0
  189.2700  177.8850  142.8960 N   0  0  0  0  0  2  0  0  0  0  0  0
  189.0750  176.9450  143.9910 C   0  0  0  0  0  2  0  0  0  0  0  0
  186.8750  177.2230  145.1900 C   0  0  0  0  0  2  0  0  0  0  0  0
  188.1190  177.3200  147.6950 C   0  0  0  0  0  2  0  0  0  0  0  0
  186.9920  178.3320  147.5070 C   0  0  0  0  0  2  0  0  0  0  0  0
  189.0650  177.3220  146.4880 C   0  0  0  0  0  2  0  0  0  0  0  0
  186.1170  177.9800  146.2920 C   0  0  1  0  0  3  0  0  0  0  0  0
  188.3540  177.6110  145.1570 C   0  0  1  0  0  3  0  0  0  0  0  0
  185.5600  179.1480  145.7690 O   0  0  0  0  0  0  0  0  0  0  0  0
  184.2220  178.8320  145.5260 C   0  0  0  0  0  2  0  0  0  0  0  0
  182.3950  178.9310  143.8650 C   0  0  0  0  0  1  0  0  0  0  0  0
  183.8280  179.3250  144.1500 C   0  0  0  0  0  2  0  0  0  0  0  0
  2 26  1  0  0  0  0
  3  9  2  0  0  0  0
  4  6  1  0  0  0  0
  4  2  2  0  0  0  0
  5  2  1  0  0  0  0
  7  1  1  0  0  0  0
  7  6  2  0  0  0  0
  8  1  1  0  0  0  0
  9  8  1  0  0  0  0
 10 14  1  0  0  0  0
 10 12  2  0  0  0  0
 11  3  1  0  0  0  0
 11 14  2  0  0  0  0
 12  4  1  0  0  0  0
 13 12  1  0  0  0  0
 13  5  2  0  0  0  0
 14  7  1  0  0  0  0
 15 16  1  0  0  0  0
 16  9  1  0  0  0  0
 16 17  2  0  0  0  0
 18 15  2  0  0  0  0
 18 19  1  0  0  0  0
 19 20  2  0  0  0  0
 20 17  1  0  0  0  0
 21 22  1  0  0  0  0
 21 23  1  0  0  0  0
 22 19  1  0  0  0  0
 22 23  1  0  0  0  0
 23 25  1  6  0  0  0
 25 24  1  0  0  0  0
 26 27  1  1  0  0  0
 26 28  1  0  0  0  0
 28 29  1  0  0  0  0
 29 30  1  0  0  0  0
 31 35  1  0  0  0  0
 33 32  1  0  0  0  0
 34 32  1  0  0  0  0
 35 37  1  6  0  0  0
 35 33  1  0  0  0  0
 36 30  1  6  0  0  0
 36 31  1  0  0  0  0
 36 34  1  0  0  0  0
 38 37  1  0  0  0  0
 39 40  1  0  0  0  0
 40 38  1  0  0  0  0
M  END
>  <MODEL>
4

>  <REMARK>
 VINA RESULT:      -8.0      2.391      5.187
  Name = 
  11 active torsions:
  status: ('A' for Active; 'I' for Inactive)
    1  A    between atoms: C_2  and  C_3
    2  A    between atoms: C_3  and  O_24
    3  A    between atoms: N_6  and  O_24
    4  A    between atoms: N_6  and  C_37
    5  A    between atoms: C_11  and  C_18
    6  A    between atoms: C_20  and  C_23
    7  A    between atoms: C_20  and  O_36
    8  A    between atoms: N_21  and  C_34
    9  A    between atoms: C_30  and  C_38
   10  A    between atoms: C_31  and  O_36
   11  A    between atoms: C_35  and  C_37
                            x       y       z     vdW  Elec       q    Type
                         _______ _______ _______ _____ _____    ______ ____

>  <TORSDO>
F 11

$$$$
=
 OpenBabel10222421563D

 40 45  0  0  1  0  0  0  0  0999 V2000
  185.6520  178.7490  139.6450 C   0  0  0  0  0  2  0  0  0  0  0  0
  181.3700  178.6100  141.8050 C   0  0  0  0  0  0  0  0  0  0  0  0
  185.6900  176.9270  137.1810 C   0  0  0  0  0  3  0  0  0  0  0  0
  182.2050  178.4520  140.7940 C   0  0  0  0  0  0  0  0  0  0  0  0
  179.9850  178.2650  141.3480 C   0  0  0  0  0  3  0  0  0  0  0  0
  183.6060  178.6950  140.7840 N   0  0  0  0  0  0  0  0  0  0  0  0
  184.3690  178.3970  139.6060 C   0  0  0  0  0  0  0  0  0  0  0  0
  186.6440  178.5530  138.6820 O   0  0  0  0  0  0  0  0  0  0  0  0
  186.7420  177.5330  137.7310 C   0  0  0  0  0  0  0  0  0  0  0  0
  182.1610  177.8560  138.3080 C   0  0  0  0  0  3  0  0  0  0  0  0
  184.2670  177.1620  137.4190 C   0  0  0  0  0  3  0  0  0  0  0  0
  181.5000  178.0090  139.6350 C   0  0  0  0  0  0  0  0  0  0  0  0
  180.2070  177.9130  139.9000 C   0  0  0  0  0  3  0  0  0  0  0  0
  183.6700  177.7970  138.4220 C   0  0  0  0  0  0  0  0  0  0  0  0
  189.1930  177.3300  138.1470 C   0  0  0  0  0  3  0  0  0  0  0  0
  188.1020  177.1490  137.2830 C   0  0  0  0  0  0  0  0  0  0  0  0
  188.3300  176.5990  136.0070 C   0  0  0  0  0  3  0  0  0  0  0  0
  190.4840  176.9690  137.7500 C   0  0  0  0  0  3  0  0  0  0  0  0
  190.6970  176.4240  136.4800 C   0  0  0  0  0  0  0  0  0  0  0  0
  189.6210  176.2390  135.6090 C   0  0  0  0  0  3  0  0  0  0  0  0
  193.0190  175.6730  135.0450 C   0  0  0  0  0  2  0  0  0  0  0  0
  192.0100  176.0510  136.0770 N   0  0  0  0  0  0  0  0  0  0  0  0
  193.4330  175.6990  136.3610 C   0  0  1  0  0  3  0  0  0  0  0  0
  194.4540  174.2510  138.0950 C   0  0  0  0  0  1  0  0  0  0  0  0
  193.4830  174.2950  136.9310 C   0  0  0  0  0  2  0  0  0  0  0  0
  181.7130  179.0990  143.1800 C   0  0  1  0  0  3  0  0  0  0  0  0
  180.5070  179.0100  144.0980 C   0  0  0  0  0  1  0  0  0  0  0  0
  182.7700  178.3550  143.7130 O   0  0  0  0  0  0  0  0  0  0  0  0
  183.7040  179.2750  144.0500 N   0  0  0  0  0  2  0  0  0  0  0  0
  184.3910  178.7620  145.2270 C   0  0  0  0  0  2  0  0  0  0  0  0
  186.4000  177.3480  145.7900 C   0  0  0  0  0  2  0  0  0  0  0  0
  187.2650  177.3100  143.1280 C   0  0  0  0  0  2  0  0  0  0  0  0
  188.3780  177.5070  144.1540 C   0  0  0  0  0  2  0  0  0  0  0  0
  186.0780  178.2350  143.4230 C   0  0  0  0  0  2  0  0  0  0  0  0
  187.9070  177.1400  145.5710 C   0  0  1  0  0  3  0  0  0  0  0  0
  185.8590  178.4860  144.9230 C   0  0  1  0  0  3  0  0  0  0  0  0
  188.6290  177.8850  146.5060 O   0  0  0  0  0  0  0  0  0  0  0  0
  189.2340  176.9360  147.3330 C   0  0  0  0  0  2  0  0  0  0  0  0
  191.5060  176.3970  146.5210 C   0  0  0  0  0  1  0  0  0  0  0  0
  190.7070  177.2580  147.4750 C   0  0  0  0  0  2  0  0  0  0  0  0
  2 26  1  0  0  0  0
  3 11  1  0  0  0  0
  3  9  2  0  0  0  0
  4  2  2  0  0  0  0
  5  2  1  0  0  0  0
  6  4  1  0  0  0  0
  7  1  1  0  0  0  0
  7  6  2  0  0  0  0
  8  1  1  0  0  0  0
  9  8  1  0  0  0  0
 10 14  1  0  0  0  0
 10 12  2  0  0  0  0
 11 14  2  0  0  0  0
 12 13  1  0  0  0  0
 12  4  1  0  0  0  0
 13  5  2  0  0  0  0
 14  7  1  0  0  0  0
 16  9  1  0  0  0  0
 16 15  2  0  0  0  0
 17 16  1  0  0  0  0
 18 15  1  0  0  0  0
 19 18  2  0  0  0  0
 20 17  2  0  0  0  0
 20 19  1  0  0  0  0
 21 22  1  0  0  0  0
 21 23  1  0  0  0  0
 22 23  1  0  0  0  0
 22 19  1  0  0  0  0
 23 25  1  1  0  0  0
 25 24  1  0  0  0  0
 26 28  1  0  0  0  0
 26 27  1  1  0  0  0
 28 29  1  0  0  0  0
 29 30  1  0  0  0  0
 32 34  1  0  0  0  0
 32 33  1  0  0  0  0
 33 35  1  0  0  0  0
 34 36  1  0  0  0  0
 35 31  1  0  0  0  0
 35 37  1  1  0  0  0
 36 30  1  6  0  0  0
 36 31  1  0  0  0  0
 37 38  1  0  0  0  0
 38 40  1  0  0  0  0
 39 40  1  0  0  0  0
M  END
>  <MODEL>
5

>  <REMARK>
 VINA RESULT:      -7.5      1.824      2.974
  Name = 
  11 active torsions:
  status: ('A' for Active; 'I' for Inactive)
    1  A    between atoms: C_2  and  C_3
    2  A    between atoms: C_3  and  O_24
    3  A    between atoms: N_6  and  O_24
    4  A    between atoms: N_6  and  C_37
    5  A    between atoms: C_11  and  C_18
    6  A    between atoms: C_20  and  C_23
    7  A    between atoms: C_20  and  O_36
    8  A    between atoms: N_21  and  C_34
    9  A    between atoms: C_30  and  C_38
   10  A    between atoms: C_31  and  O_36
   11  A    between atoms: C_35  and  C_37
                            x       y       z     vdW  Elec       q    Type
                         _______ _______ _______ _____ _____    ______ ____

>  <TORSDO>
F 11

$$$$
=
 OpenBabel10222421563D

 40 45  0  0  1  0  0  0  0  0999 V2000
  188.8830  176.5000  142.4590 C   0  0  0  0  0  2  0  0  0  0  0  0
  186.9890  178.0980  146.5660 C   0  0  0  0  0  0  0  0  0  0  0  0
  191.9040  177.0170  142.3780 C   0  0  0  0  0  3  0  0  0  0  0  0
  187.9680  177.6890  145.7820 C   0  0  0  0  0  0  0  0  0  0  0  0
  187.5430  178.3680  147.9330 C   0  0  0  0  0  3  0  0  0  0  0  0
  187.8770  177.3000  144.4170 N   0  0  0  0  0  0  0  0  0  0  0  0
  189.0680  176.9490  143.6980 C   0  0  0  0  0  0  0  0  0  0  0  0
  189.8380  176.1260  141.5110 O   0  0  0  0  0  0  0  0  0  0  0  0
  191.1470  176.5970  141.3640 C   0  0  0  0  0  0  0  0  0  0  0  0
  190.4560  177.1170  145.9110 C   0  0  0  0  0  3  0  0  0  0  0  0
  191.5760  177.0850  143.8010 C   0  0  0  0  0  3  0  0  0  0  0  0
  189.1980  177.6510  146.5040 C   0  0  0  0  0  0  0  0  0  0  0  0
  188.9960  178.0100  147.7610 C   0  0  0  0  0  3  0  0  0  0  0  0
  190.3910  177.0390  144.4000 C   0  0  0  0  0  0  0  0  0  0  0  0
  193.0750  176.9210  139.8150 C   0  0  0  0  0  3  0  0  0  0  0  0
  191.7280  176.5740  140.0000 C   0  0  0  0  0  0  0  0  0  0  0  0
  190.9610  176.2050  138.8790 C   0  0  0  0  0  3  0  0  0  0  0  0
  193.6470  176.9010  138.5390 C   0  0  0  0  0  3  0  0  0  0  0  0
  192.8750  176.5330  137.4340 C   0  0  0  0  0  0  0  0  0  0  0  0
  191.5320  176.1850  137.6030 C   0  0  0  0  0  3  0  0  0  0  0  0
  193.3950  176.2780  134.6620 C   0  0  0  0  0  2  0  0  0  0  0  0
  193.4580  176.5050  136.1360 N   0  0  0  0  0  0  0  0  0  0  0  0
  194.6130  176.6440  135.1990 C   0  0  1  0  0  3  0  0  0  0  0  0
  196.9450  175.8860  135.5600 C   0  0  0  0  0  1  0  0  0  0  0  0
  195.5130  175.4330  135.3520 C   0  0  0  0  0  2  0  0  0  0  0  0
  185.5420  178.2350  146.1950 C   0  0  1  0  0  3  0  0  0  0  0  0
  184.6540  178.0240  147.4080 C   0  0  0  0  0  1  0  0  0  0  0  0
  185.2970  179.4950  145.6420 O   0  0  0  0  0  0  0  0  0  0  0  0
  184.1260  179.3590  144.9780 N   0  0  0  0  0  2  0  0  0  0  0  0
  184.3570  178.3950  143.9110 C   0  0  0  0  0  2  0  0  0  0  0  0
  184.0550  177.9460  141.4500 C   0  0  0  0  0  2  0  0  0  0  0  0
  181.3130  178.4940  141.5680 C   0  0  0  0  0  2  0  0  0  0  0  0
  182.0220  179.0700  140.3450 C   0  0  0  0  0  2  0  0  0  0  0  0
  182.1000  178.7900  142.8490 C   0  0  0  0  0  2  0  0  0  0  0  0
  183.4040  178.4270  140.1430 C   0  0  1  0  0  3  0  0  0  0  0  0
  183.6230  178.8030  142.6400 C   0  0  1  0  0  3  0  0  0  0  0  0
  184.2480  179.3340  139.4990 O   0  0  0  0  0  0  0  0  0  0  0  0
  184.9810  178.5650  138.5930 C   0  0  0  0  0  2  0  0  0  0  0  0
  184.5290  176.4840  137.3370 C   0  0  0  0  0  1  0  0  0  0  0  0
  184.0330  177.8840  137.6280 C   0  0  0  0  0  2  0  0  0  0  0  0
  1  7  1  0  0  0  0
  2  5  1  0  0  0  0
  3 11  1  0  0  0  0
  4 12  1  0  0  0  0
  4  2  2  0  0  0  0
  6  4  1  0  0  0  0
  7 14  1  0  0  0  0
  7  6  2  0  0  0  0
  8  1  1  0  0  0  0
  9  8  1  0  0  0  0
  9  3  2  0  0  0  0
 10 12  2  0  0  0  0
 11 14  2  0  0  0  0
 12 13  1  0  0  0  0
 13  5  2  0  0  0  0
 14 10  1  0  0  0  0
 15 16  1  0  0  0  0
 16  9  1  0  0  0  0
 17 16  2  0  0  0  0
 18 15  2  0  0  0  0
 19 20  2  0  0  0  0
 19 18  1  0  0  0  0
 20 17  1  0  0  0  0
 21 23  1  0  0  0  0
 21 22  1  0  0  0  0
 22 19  1  0  0  0  0
 23 25  1  1  0  0  0
 23 22  1  0  0  0  0
 25 24  1  0  0  0  0
 26  2  1  0  0  0  0
 26 27  1  1  0  0  0
 28 26  1  0  0  0  0
 29 28  1  0  0  0  0
 30 29  1  0  0  0  0
 31 36  1  0  0  0  0
 32 34  1  0  0  0  0
 33 32  1  0  0  0  0
 35 37  1  1  0  0  0
 35 33  1  0  0  0  0
 35 31  1  0  0  0  0
 36 34  1  0  0  0  0
 36 30  1  1  0  0  0
 38 37  1  0  0  0  0
 39 40  1  0  0  0  0
 40 38  1  0  0  0  0
M  END
>  <MODEL>
6

>  <REMARK>
 VINA RESULT:      -7.4      1.824      5.913
  Name = 
  11 active torsions:
  status: ('A' for Active; 'I' for Inactive)
    1  A    between atoms: C_2  and  C_3
    2  A    between atoms: C_3  and  O_24
    3  A    between atoms: N_6  and  O_24
    4  A    between atoms: N_6  and  C_37
    5  A    between atoms: C_11  and  C_18
    6  A    between atoms: C_20  and  C_23
    7  A    between atoms: C_20  and  O_36
    8  A    between atoms: N_21  and  C_34
    9  A    between atoms: C_30  and  C_38
   10  A    between atoms: C_31  and  O_36
   11  A    between atoms: C_35  and  C_37
                            x       y       z     vdW  Elec       q    Type
                         _______ _______ _______ _____ _____    ______ ____

>  <TORSDO>
F 11

$$$$
=
 OpenBabel10222421563D

 40 45  0  0  1  0  0  0  0  0999 V2000
  188.3670  177.7650  138.2110 C   0  0  0  0  0  2  0  0  0  0  0  0
  183.5940  178.2050  138.4080 C   0  0  0  0  0  0  0  0  0  0  0  0
  189.1790  175.5620  136.2420 C   0  0  0  0  0  3  0  0  0  0  0  0
  184.7390  177.8390  137.8620 C   0  0  0  0  0  0  0  0  0  0  0  0
  182.4770  177.8600  137.4690 C   0  0  0  0  0  3  0  0  0  0  0  0
  186.0450  178.0050  138.4000 N   0  0  0  0  0  0  0  0  0  0  0  0
  187.1760  177.4780  137.6920 C   0  0  0  0  0  0  0  0  0  0  0  0
  189.6320  177.3630  137.7780 O   0  0  0  0  0  0  0  0  0  0  0  0
  189.9850  176.1960  137.0940 C   0  0  0  0  0  0  0  0  0  0  0  0
  185.6250  176.8440  135.6810 C   0  0  0  0  0  3  0  0  0  0  0  0
  187.8170  175.9060  135.8390 C   0  0  0  0  0  3  0  0  0  0  0  0
  184.5110  177.2480  136.5840 C   0  0  0  0  0  0  0  0  0  0  0  0
  183.2180  177.2630  136.3010 C   0  0  0  0  0  3  0  0  0  0  0  0
  186.9450  176.7270  136.4140 C   0  0  0  0  0  0  0  0  0  0  0  0
  192.3630  176.5360  137.7660 C   0  0  0  0  0  3  0  0  0  0  0  0
  191.3570  175.6750  137.3010 C   0  0  0  0  0  0  0  0  0  0  0  0
  191.6790  174.3270  137.0500 C   0  0  0  0  0  3  0  0  0  0  0  0
  193.6630  176.0660  137.9750 C   0  0  0  0  0  3  0  0  0  0  0  0
  193.9700  174.7260  137.7220 C   0  0  0  0  0  0  0  0  0  0  0  0
  192.9790  173.8570  137.2590 C   0  0  0  0  0  3  0  0  0  0  0  0
  196.4350  173.8790  138.8280 C   0  0  0  0  0  2  0  0  0  0  0  0
  195.2920  174.2460  137.9420 N   0  0  0  0  0  0  0  0  0  0  0  0
  196.6190  173.7550  137.4660 C   0  0  1  0  0  3  0  0  0  0  0  0
  197.5270  174.8190  135.4190 C   0  0  0  0  0  1  0  0  0  0  0  0
  197.4090  174.9320  136.9270 C   0  0  0  0  0  2  0  0  0  0  0  0
  183.4110  178.8960  139.7260 C   0  0  1  0  0  3  0  0  0  0  0  0
  181.9820  179.3840  139.8840 C   0  0  0  0  0  1  0  0  0  0  0  0
  183.7370  178.0350  140.7780 O   0  0  0  0  0  0  0  0  0  0  0  0
  184.4460  178.7980  141.6420 N   0  0  0  0  0  2  0  0  0  0  0  0
  183.8400  178.6180  142.9540 C   0  0  0  0  0  2  0  0  0  0  0  0
  186.2930  178.3800  143.4840 C   0  0  0  0  0  2  0  0  0  0  0  0
  185.8650  178.8200  146.2150 C   0  0  0  0  0  2  0  0  0  0  0  0
  186.8580  177.7050  145.9010 C   0  0  0  0  0  2  0  0  0  0  0  0
  184.5980  178.6840  145.3630 C   0  0  0  0  0  2  0  0  0  0  0  0
  187.3310  177.7690  144.4390 C   0  0  1  0  0  3  0  0  0  0  0  0
  184.8640  178.1110  143.9610 C   0  0  1  0  0  3  0  0  0  0  0  0
  187.6760  176.4870  144.0070 O   0  0  0  0  0  0  0  0  0  0  0  0
  188.4780  176.6890  142.8820 C   0  0  0  0  0  2  0  0  0  0  0  0
  190.8930  176.6030  143.3990 C   0  0  0  0  0  1  0  0  0  0  0  0
  189.6930  175.7900  142.9610 C   0  0  0  0  0  2  0  0  0  0  0  0
  2 26  1  0  0  0  0
  3  9  2  0  0  0  0
  4  6  1  0  0  0  0
  4  2  2  0  0  0  0
  5  2  1  0  0  0  0
  7  1  1  0  0  0  0
  7  6  2  0  0  0  0
  8  1  1  0  0  0  0
  9 16  1  0  0  0  0
  9  8  1  0  0  0  0
 10 14  1  0  0  0  0
 10 12  2  0  0  0  0
 11  3  1  0  0  0  0
 11 14  2  0  0  0  0
 12  4  1  0  0  0  0
 13 12  1  0  0  0  0
 13  5  2  0  0  0  0
 14  7  1  0  0  0  0
 15 18  1  0  0  0  0
 16 15  2  0  0  0  0
 17 20  2  0  0  0  0
 17 16  1  0  0  0  0
 19 22  1  0  0  0  0
 19 18  2  0  0  0  0
 20 19  1  0  0  0  0
 22 21  1  0  0  0  0
 23 25  1  6  0  0  0
 23 22  1  0  0  0  0
 23 21  1  0  0  0  0
 24 25  1  0  0  0  0
 26 27  1  1  0  0  0
 26 28  1  0  0  0  0
 28 29  1  0  0  0  0
 29 30  1  0  0  0  0
 31 36  1  0  0  0  0
 31 35  1  0  0  0  0
 33 32  1  0  0  0  0
 34 32  1  0  0  0  0
 35 37  1  6  0  0  0
 35 33  1  0  0  0  0
 36 30  1  6  0  0  0
 36 34  1  0  0  0  0
 38 40  1  0  0  0  0
 38 37  1  0  0  0  0
 40 39  1  0  0  0  0
M  END
>  <MODEL>
7

>  <REMARK>
 VINA RESULT:      -7.3      1.831      3.097
  Name = 
  11 active torsions:
  status: ('A' for Active; 'I' for Inactive)
    1  A    between atoms: C_2  and  C_3
    2  A    between atoms: C_3  and  O_24
    3  A    between atoms: N_6  and  O_24
    4  A    between atoms: N_6  and  C_37
    5  A    between atoms: C_11  and  C_18
    6  A    between atoms: C_20  and  C_23
    7  A    between atoms: C_20  and  O_36
    8  A    between atoms: N_21  and  C_34
    9  A    between atoms: C_30  and  C_38
   10  A    between atoms: C_31  and  O_36
   11  A    between atoms: C_35  and  C_37
                            x       y       z     vdW  Elec       q    Type
                         _______ _______ _______ _____ _____    ______ ____

>  <TORSDO>
F 11

$$$$
=
 OpenBabel10222421563D

 40 45  0  0  1  0  0  0  0  0999 V2000
  186.1010  178.3940  139.9980 C   0  0  0  0  0  2  0  0  0  0  0  0
  184.1220  177.4930  135.7220 C   0  0  0  0  0  0  0  0  0  0  0  0
  188.9860  177.3660  140.1030 C   0  0  0  0  0  3  0  0  0  0  0  0
  185.1250  177.6620  136.5620 C   0  0  0  0  0  0  0  0  0  0  0  0
  184.6740  177.2480  134.3500 C   0  0  0  0  0  3  0  0  0  0  0  0
  185.0490  177.9440  137.9540 N   0  0  0  0  0  0  0  0  0  0  0  0
  186.2540  178.0260  138.7280 C   0  0  0  0  0  0  0  0  0  0  0  0
  187.0680  178.5200  140.9970 O   0  0  0  0  0  0  0  0  0  0  0  0
  188.2730  177.8220  141.1320 C   0  0  0  0  0  0  0  0  0  0  0  0
  187.6780  177.8100  136.5420 C   0  0  0  0  0  3  0  0  0  0  0  0
  188.7060  177.4740  138.6720 C   0  0  0  0  0  3  0  0  0  0  0  0
  186.3710  177.5500  135.8750 C   0  0  0  0  0  0  0  0  0  0  0  0
  186.1600  177.3370  134.5860 C   0  0  0  0  0  3  0  0  0  0  0  0
  187.5690  177.7710  138.0520 C   0  0  0  0  0  0  0  0  0  0  0  0
  187.9470  177.1420  143.5100 C   0  0  0  0  0  3  0  0  0  0  0  0
  188.7970  177.6310  142.5060 C   0  0  0  0  0  0  0  0  0  0  0  0
  190.1360  177.9210  142.8300 C   0  0  0  0  0  3  0  0  0  0  0  0
  188.4210  176.9470  144.8110 C   0  0  0  0  0  3  0  0  0  0  0  0
  189.7520  177.2400  145.1210 C   0  0  0  0  0  0  0  0  0  0  0  0
  190.6090  177.7270  144.1310 C   0  0  0  0  0  3  0  0  0  0  0  0
  190.6700  177.5290  147.7830 C   0  0  0  0  0  2  0  0  0  0  0  0
  190.2370  177.0360  146.4430 N   0  0  0  0  0  0  0  0  0  0  0  0
  190.7400  176.1700  147.5510 C   0  0  1  0  0  3  0  0  0  0  0  0
  193.0120  175.8540  148.4910 C   0  0  0  0  0  1  0  0  0  0  0  0
  192.1640  175.7550  147.2380 C   0  0  0  0  0  2  0  0  0  0  0  0
  182.6600  177.5730  136.0460 C   0  0  1  0  0  3  0  0  0  0  0  0
  181.8240  177.4780  134.7820 C   0  0  0  0  0  1  0  0  0  0  0  0
  182.2990  176.5540  136.9310 O   0  0  0  0  0  0  0  0  0  0  0  0
  181.5220  177.1600  137.8590 N   0  0  0  0  0  2  0  0  0  0  0  0
  181.7520  176.4650  139.1170 C   0  0  0  0  0  2  0  0  0  0  0  0
  182.5100  178.2370  140.7420 C   0  0  0  0  0  2  0  0  0  0  0  0
  179.9960  179.4670  140.7530 C   0  0  0  0  0  2  0  0  0  0  0  0
  180.6540  179.3580  142.1260 C   0  0  0  0  0  2  0  0  0  0  0  0
  180.0750  178.1350  139.9990 C   0  0  0  0  0  2  0  0  0  0  0  0
  182.1530  179.0360  142.0060 C   0  0  1  0  0  3  0  0  0  0  0  0
  181.3540  177.3380  140.3010 C   0  0  1  0  0  3  0  0  0  0  0  0
  182.5680  178.3370  143.1420 O   0  0  0  0  0  0  0  0  0  0  0  0
  183.4260  179.2130  143.8100 C   0  0  0  0  0  2  0  0  0  0  0  0
  185.2660  179.1700  145.4600 C   0  0  0  0  0  1  0  0  0  0  0  0
  184.6560  178.4600  144.2700 C   0  0  0  0  0  2  0  0  0  0  0  0
  1  8  1  0  0  0  0
  2 26  1  0  0  0  0
  2  4  2  0  0  0  0
  3  9  2  0  0  0  0
  4  6  1  0  0  0  0
  5 13  2  0  0  0  0
  5  2  1  0  0  0  0
  6  7  2  0  0  0  0
  7  1  1  0  0  0  0
  8  9  1  0  0  0  0
  9 16  1  0  0  0  0
 10 14  1  0  0  0  0
 11  3  1  0  0  0  0
 12 10  2  0  0  0  0
 12  4  1  0  0  0  0
 13 12  1  0  0  0  0
 14 11  2  0  0  0  0
 14  7  1  0  0  0  0
 15 18  1  0  0  0  0
 16 17  1  0  0  0  0
 16 15  2  0  0  0  0
 17 20  2  0  0  0  0
 18 19  2  0  0  0  0
 19 22  1  0  0  0  0
 20 19  1  0  0  0  0
 22 23  1  0  0  0  0
 22 21  1  0  0  0  0
 23 25  1  6  0  0  0
 23 21  1  0  0  0  0
 25 24  1  0  0  0  0
 26 27  1  6  0  0  0
 26 28  1  0  0  0  0
 28 29  1  0  0  0  0
 29 30  1  0  0  0  0
 31 35  1  0  0  0  0
 32 33  1  0  0  0  0
 34 36  1  0  0  0  0
 34 32  1  0  0  0  0
 35 33  1  0  0  0  0
 35 37  1  1  0  0  0
 36 30  1  6  0  0  0
 36 31  1  0  0  0  0
 37 38  1  0  0  0  0
 38 40  1  0  0  0  0
 40 39  1  0  0  0  0
M  END
>  <MODEL>
8

>  <REMARK>
 VINA RESULT:      -7.2      3.801      7.827
  Name = 
  11 active torsions:
  status: ('A' for Active; 'I' for Inactive)
    1  A    between atoms: C_2  and  C_3
    2  A    between atoms: C_3  and  O_24
    3  A    between atoms: N_6  and  O_24
    4  A    between atoms: N_6  and  C_37
    5  A    between atoms: C_11  and  C_18
    6  A    between atoms: C_20  and  C_23
    7  A    between atoms: C_20  and  O_36
    8  A    between atoms: N_21  and  C_34
    9  A    between atoms: C_30  and  C_38
   10  A    between atoms: C_31  and  O_36
   11  A    between atoms: C_35  and  C_37
                            x       y       z     vdW  Elec       q    Type
                         _______ _______ _______ _____ _____    ______ ____

>  <TORSDO>
F 11

$$$$
=
 OpenBabel10222421563D

 40 45  0  0  1  0  0  0  0  0999 V2000
  188.3060  178.0760  138.0270 C   0  0  0  0  0  2  0  0  0  0  0  0
  183.5690  178.1870  138.7730 C   0  0  0  0  0  0  0  0  0  0  0  0
  189.0310  175.9540  135.9370 C   0  0  0  0  0  3  0  0  0  0  0  0
  184.6650  177.9070  138.0940 C   0  0  0  0  0  0  0  0  0  0  0  0
  182.3770  177.7780  137.9610 C   0  0  0  0  0  3  0  0  0  0  0  0
  186.0100  178.1550  138.4820 N   0  0  0  0  0  0  0  0  0  0  0  0
  187.0850  177.7140  137.6410 C   0  0  0  0  0  0  0  0  0  0  0  0
  189.5370  177.7650  137.4460 O   0  0  0  0  0  0  0  0  0  0  0  0
  189.8860  176.6320  136.7030 C   0  0  0  0  0  0  0  0  0  0  0  0
  185.3600  176.9980  135.8070 C   0  0  0  0  0  3  0  0  0  0  0  0
  187.6120  176.2090  135.6980 C   0  0  0  0  0  3  0  0  0  0  0  0
  184.3320  177.3150  136.8390 C   0  0  0  0  0  0  0  0  0  0  0  0
  183.0180  177.2450  136.7050 C   0  0  0  0  0  3  0  0  0  0  0  0
  186.7600  176.9630  136.3830 C   0  0  0  0  0  0  0  0  0  0  0  0
  191.8530  175.5180  135.6490 C   0  0  0  0  0  3  0  0  0  0  0  0
  191.3040  176.2030  136.7440 C   0  0  0  0  0  0  0  0  0  0  0  0
  192.1240  176.4730  137.8560 C   0  0  0  0  0  3  0  0  0  0  0  0
  193.1900  175.1090  135.6610 C   0  0  0  0  0  3  0  0  0  0  0  0
  193.9940  175.3830  136.7720 C   0  0  0  0  0  0  0  0  0  0  0  0
  193.4610  176.0640  137.8690 C   0  0  0  0  0  3  0  0  0  0  0  0
  196.8090  175.2080  136.5360 C   0  0  0  0  0  2  0  0  0  0  0  0
  195.3560  174.9730  136.7820 N   0  0  0  0  0  0  0  0  0  0  0  0
  196.4360  173.9670  137.0100 C   0  0  1  0  0  3  0  0  0  0  0  0
  197.0780  171.6710  136.3300 C   0  0  0  0  0  1  0  0  0  0  0  0
  196.4040  172.9540  135.8830 C   0  0  0  0  0  2  0  0  0  0  0  0
  183.4930  178.8490  140.1160 C   0  0  1  0  0  3  0  0  0  0  0  0
  182.0540  179.1750  140.4740 C   0  0  0  0  0  1  0  0  0  0  0  0
  184.0510  178.0270  141.0980 O   0  0  0  0  0  0  0  0  0  0  0  0
  184.8500  178.8450  141.8210 N   0  0  0  0  0  2  0  0  0  0  0  0
  185.3010  178.0790  142.9750 C   0  0  0  0  0  2  0  0  0  0  0  0
  187.3580  177.0920  144.0450 C   0  0  0  0  0  2  0  0  0  0  0  0
  188.9590  177.7410  141.8430 C   0  0  0  0  0  2  0  0  0  0  0  0
  189.6100  178.0010  143.1990 C   0  0  0  0  0  2  0  0  0  0  0  0
  187.5300  178.2950  141.8060 C   0  0  0  0  0  2  0  0  0  0  0  0
  188.8560  177.2830  144.3310 C   0  0  1  0  0  3  0  0  0  0  0  0
  186.8080  178.2110  143.1600 C   0  0  1  0  0  3  0  0  0  0  0  0
  189.0250  177.9930  145.5220 O   0  0  0  0  0  0  0  0  0  0  0  0
  188.6030  177.1180  146.5250 C   0  0  0  0  0  2  0  0  0  0  0  0
  188.9800  178.4130  148.5960 C   0  0  0  0  0  1  0  0  0  0  0  0
  187.9310  177.9050  147.6300 C   0  0  0  0  0  2  0  0  0  0  0  0
  2 26  1  0  0  0  0
  3  9  2  0  0  0  0
  4  6  1  0  0  0  0
  4  2  2  0  0  0  0
  5  2  1  0  0  0  0
  7  1  1  0  0  0  0
  7  6  2  0  0  0  0
  8  1  1  0  0  0  0
  9 16  1  0  0  0  0
  9  8  1  0  0  0  0
 10 14  1  0  0  0  0
 10 12  2  0  0  0  0
 11  3  1  0  0  0  0
 11 14  2  0  0  0  0
 12  4  1  0  0  0  0
 13 12  1  0  0  0  0
 13  5  2  0  0  0  0
 14  7  1  0  0  0  0
 15 18  2  0  0  0  0
 15 16  1  0  0  0  0
 16 17  2  0  0  0  0
 17 20  1  0  0  0  0
 18 19  1  0  0  0  0
 19 22  1  0  0  0  0
 19 20  2  0  0  0  0
 21 22  1  0  0  0  0
 21 23  1  0  0  0  0
 22 23  1  0  0  0  0
 23 25  1  6  0  0  0
 25 24  1  0  0  0  0
 26 27  1  1  0  0  0
 26 28  1  0  0  0  0
 28 29  1  0  0  0  0
 29 30  1  0  0  0  0
 31 35  1  0  0  0  0
 32 33  1  0  0  0  0
 33 35  1  0  0  0  0
 34 32  1  0  0  0  0
 34 36  1  0  0  0  0
 35 37  1  1  0  0  0
 36 30  1  6  0  0  0
 36 31  1  0  0  0  0
 37 38  1  0  0  0  0
 38 40  1  0  0  0  0
 40 39  1  0  0  0  0
M  END
>  <MODEL>
9

>  <REMARK>
 VINA RESULT:      -7.0      1.733      3.331
  Name = 
  11 active torsions:
  status: ('A' for Active; 'I' for Inactive)
    1  A    between atoms: C_2  and  C_3
    2  A    between atoms: C_3  and  O_24
    3  A    between atoms: N_6  and  O_24
    4  A    between atoms: N_6  and  C_37
    5  A    between atoms: C_11  and  C_18
    6  A    between atoms: C_20  and  C_23
    7  A    between atoms: C_20  and  O_36
    8  A    between atoms: N_21  and  C_34
    9  A    between atoms: C_30  and  C_38
   10  A    between atoms: C_31  and  O_36
   11  A    between atoms: C_35  and  C_37
                            x       y       z     vdW  Elec       q    Type
                         _______ _______ _______ _____ _____    ______ ____

>  <TORSDO>
F 11

$$$$
