=
 OpenBabel10232411543D

 63 69  0  0  1  0  0  0  0  0999 V2000
  188.8100  177.8180  143.1560 C   0  0  2  0  0  3  0  0  0  0  0  0
  189.3330  176.9750  140.8160 C   0  0  0  0  0  2  0  0  0  0  0  0
  191.3800  178.0230  140.6720 C   0  0  0  0  0  2  0  0  0  0  0  0
  191.1300  177.8210  142.1560 C   0  0  0  0  0  2  0  0  0  0  0  0
  189.8130  177.0530  142.2540 C   0  0  1  0  0  0  0  0  0  0  0  0
  190.5220  177.0830  139.9730 N   0  0  0  0  0  0  0  0  0  0  0  0
  191.3260  175.2870  143.3370 N   0  0  0  0  0  2  0  0  0  0  0  0
  190.0600  175.6530  142.7720 C   0  0  0  0  0  0  0  0  0  0  0  0
  189.1500  174.7830  142.6910 O   0  0  0  0  0  0  0  0  0  0  0  0
  191.5550  174.0270  143.7790 O   0  0  0  0  0  0  0  0  0  0  0  0
  192.4490  174.1680  144.8460 C   0  0  0  0  0  1  0  0  0  0  0  0
  188.7680  177.9480  138.3630 C   0  0  0  0  0  1  0  0  0  0  0  0
  190.2320  177.5920  138.6220 C   0  0  2  0  0  3  0  0  0  0  0  0
  189.6060  172.5860  135.4100 C   0  0  0  0  0  2  0  0  0  0  0  0
  191.5640  174.1060  134.4210 O   0  0  0  0  0  1  0  0  0  0  0  0
  190.8000  176.6750  137.5340 C   0  0  1  0  0  3  0  0  0  0  0  0
  190.1880  174.1940  137.2480 C   0  0  2  0  0  3  0  0  0  0  0  0
  191.9180  175.9060  138.0800 N   0  0  1  0  0  0  0  0  0  0  0  0
  189.2090  173.1180  136.7810 C   0  0  0  0  0  2  0  0  0  0  0  0
  190.9360  172.1180  135.4410 O   0  0  0  0  0  0  0  0  0  0  0  0
  192.3850  175.3050  136.8030 C   0  0  2  0  0  3  0  0  0  0  0  0
  189.7170  175.6590  137.0120 C   0  0  0  0  0  2  0  0  0  0  0  0
  191.6870  173.9430  136.8600 C   0  0  2  0  0  3  0  0  0  0  0  0
  191.7940  173.2360  135.4960 C   0  0  2  0  0  3  0  0  0  0  0  0
  193.3060  176.0660  137.6430 C   0  0  2  0  0  3  0  0  0  0  0  0
  194.2150  173.7730  138.0400 O   0  0  0  0  0  0  0  0  0  0  0  0
  194.2060  175.1200  138.3790 C   0  0  0  0  0  0  0  0  0  0  0  0
  194.9700  175.5370  139.2940 O   0  0  0  0  0  1  0  0  0  0  0  0
  189.0510  177.6540  144.6760 C   0  0  1  0  0  3  0  0  0  0  0  0
  190.2390  178.4970  145.0620 C   0  0  0  0  0  3  0  0  0  0  0  0
  191.1960  178.0960  145.8310 N   0  0  0  0  0  0  0  0  0  0  0  0
  191.2400  176.7870  146.4220 C   0  0  0  0  0  1  0  0  0  0  0  0
  187.8250  178.0070  145.5250 C   0  0  0  0  0  2  0  0  0  0  0  0
  187.6720  177.0870  146.7240 C   0  0  0  0  0  2  0  0  0  0  0  0
  188.7050  178.3860  148.5600 C   0  0  0  0  0  1  0  0  0  0  0  0
  187.3910  177.8730  147.9930 C   0  0  1  0  0  3  0  0  0  0  0  0
  185.1540  178.6360  147.5880 O   0  0  0  0  0  1  0  0  0  0  0  0
  186.4820  179.0550  147.6960 C   0  0  0  0  0  2  0  0  0  0  0  0
  187.3470  177.6060  142.7440 C   0  0  0  0  0  2  0  0  0  0  0  0
  182.6960  178.9090  143.7310 C   0  0  0  0  0  3  0  0  0  0  0  0
  185.3550  179.0110  142.9380 C   0  0  0  0  0  0  0  0  0  0  0  0
  184.3740  178.7330  142.0240 C   0  0  0  0  0  0  0  0  0  0  0  0
  184.9270  178.5010  140.7440 N   0  0  0  0  0  0  0  0  0  0  0  0
  186.7040  178.9100  142.3020 C   0  0  2  0  0  3  0  0  0  0  0  0
  183.0290  178.6620  142.3870 C   0  0  0  0  0  3  0  0  0  0  0  0
  186.3610  178.7820  140.8000 C   0  0  0  0  0  2  0  0  0  0  0  0
  183.7030  179.1950  144.6750 C   0  0  0  0  0  3  0  0  0  0  0  0
  185.0520  179.2390  144.2830 C   0  0  0  0  0  3  0  0  0  0  0  0
  184.2330  177.8610  139.6350 C   0  0  0  0  0  2  0  0  0  0  0  0
  185.0130  178.0940  138.3360 C   0  0  0  0  0  2  0  0  0  0  0  0
  184.3170  177.5910  137.2290 O   0  0  0  0  0  0  0  0  0  0  0  0
  184.7050  176.2490  137.0750 C   0  0  2  0  0  3  0  0  0  0  0  0
  186.1180  176.1590  136.5010 C   0  0  0  0  0  1  0  0  0  0  0  0
  182.9230  176.4790  135.4950 O   0  0  0  0  0  1  0  0  0  0  0  0
  183.7310  175.5320  136.1360 C   0  0  2  0  0  3  0  0  0  0  0  0
  180.5570  172.4930  137.5470 C   0  0  0  0  0  3  0  0  0  0  0  0
  182.9340  171.9410  136.9680 C   0  0  0  0  0  0  0  0  0  0  0  0
  183.4910  173.1420  136.7310 C   0  0  0  0  0  3  0  0  0  0  0  0
  182.8840  174.4970  136.8900 C   0  0  2  0  0  3  0  0  0  0  0  0
  180.5970  173.9850  137.5300 C   0  0  0  0  0  2  0  0  0  0  0  0
  181.4490  174.5130  136.4010 C   0  0  0  0  0  2  0  0  0  0  0  0
  181.5610  171.6940  137.3300 N   0  0  0  0  0  0  0  0  0  0  0  0
  183.7260  170.8540  136.7930 F   0  0  0  0  0  0  0  0  0  0  0  0
  1 39  1  1  0  0  0
  1 29  1  0  0  0  0
  2  5  1  0  0  0  0
  3  4  1  0  0  0  0
  4  5  1  0  0  0  0
  5  8  1  1  0  0  0
  5  1  1  0  0  0  0
  6  3  1  0  0  0  0
  6  2  1  0  0  0  0
  7 10  1  0  0  0  0
  8  7  1  0  0  0  0
  9  8  2  0  0  0  0
 10 11  1  0  0  0  0
 13 12  1  6  0  0  0
 13  6  1  0  0  0  0
 14 20  1  0  0  0  0
 14 19  1  0  0  0  0
 15 24  1  0  0  0  0
 16 18  1  0  0  0  0
 16 13  1  1  0  0  0
 17 19  1  6  0  0  0
 20 24  1  0  0  0  0
 21 23  1  0  0  0  0
 21 25  1  0  0  0  0
 21 18  1  0  0  0  0
 22 17  1  0  0  0  0
 22 16  1  0  0  0  0
 23 17  1  0  0  0  0
 24 23  1  0  0  0  0
 25 18  1  0  0  0  0
 25 27  1  0  0  0  0
 26 27  2  0  0  0  0
 27 28  1  0  0  0  0
 29 30  1  0  0  0  0
 29 33  1  0  0  0  0
 30 31  2  0  0  0  0
 31 32  1  0  0  0  0
 33 34  1  0  0  0  0
 34 36  1  0  0  0  0
 36 35  1  0  0  0  0
 37 38  1  0  0  0  0
 38 36  1  0  0  0  0
 40 47  1  0  0  0  0
 41 48  1  0  0  0  0
 42 45  1  0  0  0  0
 42 41  2  0  0  0  0
 43 46  1  0  0  0  0
 43 42  1  0  0  0  0
 44 39  1  0  0  0  0
 44 41  1  0  0  0  0
 45 40  2  0  0  0  0
 46 44  1  0  0  0  0
 48 47  2  0  0  0  0
 49 43  1  0  0  0  0
 50 49  1  0  0  0  0
 51 50  1  0  0  0  0
 52 51  1  0  0  0  0
 53 52  1  0  0  0  0
 54 55  1  0  0  0  0
 55 59  1  0  0  0  0
 55 52  1  0  0  0  0
 57 62  1  0  0  0  0
 58 59  1  0  0  0  0
 58 57  2  0  0  0  0
 60 56  1  0  0  0  0
 61 59  1  0  0  0  0
 61 60  1  0  0  0  0
 62 56  2  0  0  0  0
 63 57  1  0  0  0  0
M  END
>  <MODEL>
1

>  <REMARK>
 VINA RESULT:      -7.1      0.000      0.000
  Name = 
  20 active torsions:
  status: ('A' for Active; 'I' for Inactive)
    1  A    between atoms: C_2  and  O_14
    2  A    between atoms: C_2  and  C_27
    3  A    between atoms: C_5  and  C_35
    4  A    between atoms: C_5  and  C_41
    5  A    between atoms: C_8  and  O_14
    6  A    between atoms: C_8  and  C_23
    7  A    between atoms: O_9  and  N_22
    8  A    between atoms: C_10  and  C_41
    9  A    between atoms: C_20  and  C_62
   10  A    between atoms: C_23  and  C_45
   11  A    between atoms: C_26  and  C_35
   12  A    between atoms: C_26  and  C_46
   13  A    between atoms: C_27  and  N_37
   14  A    between atoms: C_33  and  C_59
   15  A    between atoms: C_36  and  C_43
   16  A    between atoms: C_36  and  C_61
   17  A    between atoms: C_38  and  C_60
   18  A    between atoms: C_41  and  C_61
   19  A    between atoms: N_57  and  C_62
   20  A    between atoms: C_60  and  C_61
                            x       y       z     vdW  Elec       q    Type
                         _______ _______ _______ _____ _____    ______ ____

>  <TORSDO>
F 20

$$$$
=
 OpenBabel10232411543D

 63 69  0  0  1  0  0  0  0  0999 V2000
  188.3570  177.9310  140.2830 C   0  0  2  0  0  3  0  0  0  0  0  0
  190.5330  177.6850  138.9950 C   0  0  0  0  0  2  0  0  0  0  0  0
  190.1170  175.5300  138.2950 C   0  0  0  0  0  2  0  0  0  0  0  0
  188.7520  176.1500  138.5350 C   0  0  0  0  0  2  0  0  0  0  0  0
  189.0200  177.6040  138.9200 C   0  0  1  0  0  0  0  0  0  0  0  0
  191.0510  176.6290  138.1270 N   0  0  0  0  0  0  0  0  0  0  0  0
  187.5740  178.0890  136.8570 N   0  0  0  0  0  2  0  0  0  0  0  0
  188.5250  178.5340  137.8330 C   0  0  0  0  0  0  0  0  0  0  0  0
  188.9660  179.7140  137.7660 O   0  0  0  0  0  0  0  0  0  0  0  0
  187.1500  178.9140  135.8690 O   0  0  0  0  0  0  0  0  0  0  0  0
  187.1640  178.1340  134.7080 C   0  0  0  0  0  1  0  0  0  0  0  0
  193.3030  177.2690  139.0940 C   0  0  0  0  0  1  0  0  0  0  0  0
  192.4050  176.1850  138.4960 C   0  0  2  0  0  3  0  0  0  0  0  0
  195.9310  171.6550  136.8190 C   0  0  0  0  0  2  0  0  0  0  0  0
  194.7780  172.7920  134.6980 O   0  0  0  0  0  1  0  0  0  0  0  0
  193.0930  175.4390  137.3480 C   0  0  1  0  0  3  0  0  0  0  0  0
  195.1310  173.8950  137.6230 C   0  0  2  0  0  3  0  0  0  0  0  0
  194.2560  176.2030  136.8990 N   0  0  1  0  0  0  0  0  0  0  0  0
  195.7240  172.5490  138.0350 C   0  0  0  0  0  2  0  0  0  0  0  0
  196.7290  172.3190  135.8640 O   0  0  0  0  0  0  0  0  0  0  0  0
  194.5720  175.3890  135.6960 C   0  0  2  0  0  3  0  0  0  0  0  0
  193.5890  174.0150  137.8000 C   0  0  0  0  0  2  0  0  0  0  0  0
  195.6540  174.4620  136.2570 C   0  0  2  0  0  3  0  0  0  0  0  0
  195.9470  173.3250  135.2610 C   0  0  2  0  0  3  0  0  0  0  0  0
  194.3580  176.8300  135.5800 C   0  0  2  0  0  3  0  0  0  0  0  0
  195.7360  178.9050  135.3870 O   0  0  0  0  0  1  0  0  0  0  0  0
  195.6800  177.5180  135.4210 C   0  0  0  0  0  0  0  0  0  0  0  0
  196.7480  176.8490  135.3330 O   0  0  0  0  0  0  0  0  0  0  0  0
  189.1210  177.3970  141.5190 C   0  0  1  0  0  3  0  0  0  0  0  0
  189.8780  178.5410  142.1400 C   0  0  0  0  0  3  0  0  0  0  0  0
  191.0990  178.4660  142.5570 N   0  0  0  0  0  0  0  0  0  0  0  0
  191.8870  177.2660  142.4820 C   0  0  0  0  0  1  0  0  0  0  0  0
  188.2100  176.7150  142.5460 C   0  0  0  0  0  2  0  0  0  0  0  0
  188.8860  176.5550  143.8970 C   0  0  0  0  0  2  0  0  0  0  0  0
  187.0980  177.0960  145.5220 C   0  0  0  0  0  1  0  0  0  0  0  0
  188.3890  177.5920  144.8910 C   0  0  1  0  0  3  0  0  0  0  0  0
  189.1910  176.9620  147.0610 O   0  0  0  0  0  1  0  0  0  0  0  0
  189.4220  177.8190  145.9830 C   0  0  0  0  0  2  0  0  0  0  0  0
  186.8550  177.6190  140.3130 C   0  0  0  0  0  2  0  0  0  0  0  0
  183.3990  178.9280  143.5770 C   0  0  0  0  0  3  0  0  0  0  0  0
  185.2200  179.0120  141.4830 C   0  0  0  0  0  0  0  0  0  0  0  0
  183.9150  178.6740  141.2470 C   0  0  0  0  0  0  0  0  0  0  0  0
  183.7090  178.3760  139.8810 N   0  0  0  0  0  0  0  0  0  0  0  0
  186.0260  178.8890  140.2300 C   0  0  2  0  0  3  0  0  0  0  0  0
  182.9740  178.6090  142.2750 C   0  0  0  0  0  3  0  0  0  0  0  0
  184.9400  178.6740  139.1500 C   0  0  0  0  0  2  0  0  0  0  0  0
  184.7430  179.2760  143.8240 C   0  0  0  0  0  3  0  0  0  0  0  0
  185.6720  179.3120  142.7700 C   0  0  0  0  0  3  0  0  0  0  0  0
  182.5560  177.6680  139.3420 C   0  0  0  0  0  2  0  0  0  0  0  0
  182.9640  176.9060  138.0760 C   0  0  0  0  0  2  0  0  0  0  0  0
  183.1070  175.5360  138.3320 O   0  0  0  0  0  0  0  0  0  0  0  0
  184.0120  175.0330  137.3800 C   0  0  2  0  0  3  0  0  0  0  0  0
  184.4020  176.1210  136.3810 C   0  0  0  0  0  1  0  0  0  0  0  0
  182.2060  173.4660  137.2900 O   0  0  0  0  0  1  0  0  0  0  0  0
  183.3750  173.8610  136.6280 C   0  0  2  0  0  3  0  0  0  0  0  0
  186.3160  170.6170  135.1680 C   0  0  0  0  0  3  0  0  0  0  0  0
  186.8980  172.5180  136.6960 C   0  0  0  0  0  0  0  0  0  0  0  0
  185.7160  173.1160  136.9260 C   0  0  0  0  0  3  0  0  0  0  0  0
  184.3550  172.6880  136.4830 C   0  0  2  0  0  3  0  0  0  0  0  0
  184.8280  170.7360  135.1160 C   0  0  0  0  0  2  0  0  0  0  0  0
  184.3810  172.1770  135.0570 C   0  0  0  0  0  2  0  0  0  0  0  0
  187.1240  171.3670  135.8580 N   0  0  0  0  0  0  0  0  0  0  0  0
  187.9920  173.0880  137.2610 F   0  0  0  0  0  0  0  0  0  0  0  0
  1 39  1  6  0  0  0
  1 29  1  0  0  0  0
  3  4  1  0  0  0  0
  4  5  1  0  0  0  0
  5  8  1  6  0  0  0
  5  2  1  0  0  0  0
  5  1  1  0  0  0  0
  6  3  1  0  0  0  0
  6 13  1  0  0  0  0
  6  2  1  0  0  0  0
  7  8  1  0  0  0  0
  9  8  2  0  0  0  0
 10  7  1  0  0  0  0
 11 10  1  0  0  0  0
 13 12  1  6  0  0  0
 14 19  1  0  0  0  0
 15 24  1  0  0  0  0
 16 22  1  0  0  0  0
 16 13  1  1  0  0  0
 17 22  1  6  0  0  0
 17 19  1  0  0  0  0
 18 16  1  0  0  0  0
 20 14  1  0  0  0  0
 21 23  1  0  0  0  0
 21 18  1  0  0  0  0
 23 17  1  0  0  0  0
 24 20  1  0  0  0  0
 24 23  1  0  0  0  0
 25 21  1  0  0  0  0
 25 18  1  0  0  0  0
 26 27  1  0  0  0  0
 27 25  1  0  0  0  0
 28 27  2  0  0  0  0
 29 30  1  0  0  0  0
 29 33  1  0  0  0  0
 30 31  2  0  0  0  0
 32 31  1  0  0  0  0
 33 34  1  0  0  0  0
 34 36  1  0  0  0  0
 36 35  1  0  0  0  0
 36 38  1  0  0  0  0
 38 37  1  0  0  0  0
 40 47  1  0  0  0  0
 41 48  1  0  0  0  0
 42 41  2  0  0  0  0
 42 45  1  0  0  0  0
 43 42  1  0  0  0  0
 44 39  1  0  0  0  0
 44 41  1  0  0  0  0
 45 40  2  0  0  0  0
 46 43  1  0  0  0  0
 46 44  1  0  0  0  0
 48 47  2  0  0  0  0
 49 43  1  0  0  0  0
 50 51  1  0  0  0  0
 50 49  1  0  0  0  0
 52 51  1  0  0  0  0
 53 52  1  0  0  0  0
 55 54  1  0  0  0  0
 55 52  1  0  0  0  0
 56 62  2  0  0  0  0
 57 58  2  0  0  0  0
 57 63  1  0  0  0  0
 59 55  1  0  0  0  0
 59 58  1  0  0  0  0
 60 56  1  0  0  0  0
 61 60  1  0  0  0  0
 61 59  1  0  0  0  0
 62 57  1  0  0  0  0
M  END
>  <MODEL>
2

>  <REMARK>
 VINA RESULT:      -7.0      2.563      4.295
  Name = 
  20 active torsions:
  status: ('A' for Active; 'I' for Inactive)
    1  A    between atoms: C_2  and  O_14
    2  A    between atoms: C_2  and  C_27
    3  A    between atoms: C_5  and  C_35
    4  A    between atoms: C_5  and  C_41
    5  A    between atoms: C_8  and  O_14
    6  A    between atoms: C_8  and  C_23
    7  A    between atoms: O_9  and  N_22
    8  A    between atoms: C_10  and  C_41
    9  A    between atoms: C_20  and  C_62
   10  A    between atoms: C_23  and  C_45
   11  A    between atoms: C_26  and  C_35
   12  A    between atoms: C_26  and  C_46
   13  A    between atoms: C_27  and  N_37
   14  A    between atoms: C_33  and  C_59
   15  A    between atoms: C_36  and  C_43
   16  A    between atoms: C_36  and  C_61
   17  A    between atoms: C_38  and  C_60
   18  A    between atoms: C_41  and  C_61
   19  A    between atoms: N_57  and  C_62
   20  A    between atoms: C_60  and  C_61
                            x       y       z     vdW  Elec       q    Type
                         _______ _______ _______ _____ _____    ______ ____

>  <TORSDO>
F 20

$$$$
=
 OpenBabel10232411543D

 63 69  0  0  1  0  0  0  0  0999 V2000
  187.3240  178.2830  142.8010 C   0  0  2  0  0  3  0  0  0  0  0  0
  187.9210  177.2900  140.5400 C   0  0  0  0  0  2  0  0  0  0  0  0
  189.7870  178.6030  140.2220 C   0  0  0  0  0  2  0  0  0  0  0  0
  189.5980  178.5210  141.7270 C   0  0  0  0  0  2  0  0  0  0  0  0
  188.4120  177.5840  141.9460 C   0  0  1  0  0  0  0  0  0  0  0  0
  189.0650  177.4820  139.6500 N   0  0  0  0  0  0  0  0  0  0  0  0
  190.2670  175.9700  142.6750 N   0  0  0  0  0  2  0  0  0  0  0  0
  188.8730  176.2950  142.5910 C   0  0  0  0  0  0  0  0  0  0  0  0
  188.0250  175.4810  143.0460 O   0  0  0  0  0  0  0  0  0  0  0  0
  190.6790  174.8050  143.2310 O   0  0  0  0  0  0  0  0  0  0  0  0
  191.7900  175.1430  144.0110 C   0  0  0  0  0  1  0  0  0  0  0  0
  187.1700  177.8680  138.0140 C   0  0  0  0  0  1  0  0  0  0  0  0
  188.6760  177.8010  138.2660 C   0  0  2  0  0  3  0  0  0  0  0  0
  188.9220  172.4770  135.5520 C   0  0  0  0  0  2  0  0  0  0  0  0
  190.5650  174.2170  134.3720 O   0  0  0  0  0  1  0  0  0  0  0  0
  189.3880  176.8980  137.2530 C   0  0  1  0  0  3  0  0  0  0  0  0
  189.2270  174.3320  137.2160 C   0  0  2  0  0  3  0  0  0  0  0  0
  190.6310  176.3960  137.8360 N   0  0  1  0  0  0  0  0  0  0  0  0
  188.4510  173.0600  136.8780 C   0  0  0  0  0  2  0  0  0  0  0  0
  190.3140  172.2570  135.5900 O   0  0  0  0  0  0  0  0  0  0  0  0
  191.1840  175.7670  136.6080 C   0  0  2  0  0  3  0  0  0  0  0  0
  188.4990  175.6600  136.8570 C   0  0  0  0  0  2  0  0  0  0  0  0
  190.7420  174.3150  136.8110 C   0  0  2  0  0  3  0  0  0  0  0  0
  190.9590  173.5090  135.5160 C   0  0  2  0  0  3  0  0  0  0  0  0
  191.9630  176.7570  137.3470 C   0  0  2  0  0  3  0  0  0  0  0  0
  193.5730  176.6830  139.2570 O   0  0  0  0  0  1  0  0  0  0  0  0
  193.0260  176.0600  138.1420 C   0  0  0  0  0  0  0  0  0  0  0  0
  193.4190  174.9050  137.8190 O   0  0  0  0  0  0  0  0  0  0  0  0
  187.5930  178.2740  144.3250 C   0  0  1  0  0  3  0  0  0  0  0  0
  186.6050  177.3420  144.9760 C   0  0  0  0  0  3  0  0  0  0  0  0
  185.8770  177.6510  145.9970 N   0  0  0  0  0  0  0  0  0  0  0  0
  185.9290  178.9330  146.6460 C   0  0  0  0  0  1  0  0  0  0  0  0
  189.0330  177.8890  144.6830 C   0  0  0  0  0  2  0  0  0  0  0  0
  189.1010  176.9920  145.9080 C   0  0  0  0  0  2  0  0  0  0  0  0
  189.0670  178.0430  148.1480 C   0  0  0  0  0  1  0  0  0  0  0  0
  189.9610  177.6070  146.9980 C   0  0  1  0  0  3  0  0  0  0  0  0
  192.2280  176.8270  146.9420 O   0  0  0  0  0  1  0  0  0  0  0  0
  190.9730  176.5960  147.5110 C   0  0  0  0  0  2  0  0  0  0  0  0
  185.8980  177.8550  142.4300 C   0  0  0  0  0  2  0  0  0  0  0  0
  181.2070  178.7250  143.6720 C   0  0  0  0  0  3  0  0  0  0  0  0
  183.7740  179.0440  142.6640 C   0  0  0  0  0  0  0  0  0  0  0  0
  182.7710  178.5780  141.8570 C   0  0  0  0  0  0  0  0  0  0  0  0
  183.2570  178.2910  140.5610 N   0  0  0  0  0  0  0  0  0  0  0  0
  185.0790  179.0340  141.9340 C   0  0  2  0  0  3  0  0  0  0  0  0
  181.4720  178.3930  142.3310 C   0  0  0  0  0  3  0  0  0  0  0  0
  184.6490  178.7310  140.4800 C   0  0  0  0  0  2  0  0  0  0  0  0
  182.2370  179.2050  144.5050 C   0  0  0  0  0  3  0  0  0  0  0  0
  183.5410  179.3610  144.0050 C   0  0  0  0  0  3  0  0  0  0  0  0
  182.5670  177.4800  139.5680 C   0  0  0  0  0  2  0  0  0  0  0  0
  182.7370  178.1090  138.1810 C   0  0  0  0  0  2  0  0  0  0  0  0
  182.5350  177.1640  137.1660 O   0  0  0  0  0  0  0  0  0  0  0  0
  183.3580  177.5360  136.0890 C   0  0  2  0  0  3  0  0  0  0  0  0
  182.5630  177.5560  134.7850 C   0  0  0  0  0  1  0  0  0  0  0  0
  185.2140  176.8010  134.7690 O   0  0  0  0  0  1  0  0  0  0  0  0
  184.5180  176.5450  135.9570 C   0  0  2  0  0  3  0  0  0  0  0  0
  183.7060  172.0490  135.3030 C   0  0  0  0  0  3  0  0  0  0  0  0
  184.8040  173.0430  137.3270 C   0  0  0  0  0  0  0  0  0  0  0  0
  184.7160  174.3690  137.1190 C   0  0  0  0  0  3  0  0  0  0  0  0
  184.0240  175.0920  136.0100 C   0  0  2  0  0  3  0  0  0  0  0  0
  183.2350  173.2780  134.6000 C   0  0  0  0  0  2  0  0  0  0  0  0
  184.2460  174.3970  134.6820 C   0  0  0  0  0  2  0  0  0  0  0  0
  184.3310  172.0070  136.4440 N   0  0  0  0  0  0  0  0  0  0  0  0
  185.4520  172.6420  138.4500 F   0  0  0  0  0  0  0  0  0  0  0  0
  1 39  1  1  0  0  0
  1 29  1  0  0  0  0
  2  5  1  0  0  0  0
  3  4  1  0  0  0  0
  4  5  1  0  0  0  0
  5  8  1  1  0  0  0
  5  1  1  0  0  0  0
  6  3  1  0  0  0  0
  6  2  1  0  0  0  0
  7 10  1  0  0  0  0
  8  7  1  0  0  0  0
  8  9  2  0  0  0  0
 10 11  1  0  0  0  0
 13 12  1  1  0  0  0
 13  6  1  0  0  0  0
 14 20  1  0  0  0  0
 14 19  1  0  0  0  0
 15 24  1  0  0  0  0
 16 18  1  0  0  0  0
 16 13  1  1  0  0  0
 17 22  1  6  0  0  0
 19 17  1  0  0  0  0
 21 23  1  0  0  0  0
 21 25  1  0  0  0  0
 21 18  1  0  0  0  0
 22 16  1  0  0  0  0
 23 17  1  0  0  0  0
 24 20  1  0  0  0  0
 24 23  1  0  0  0  0
 25 18  1  0  0  0  0
 25 27  1  0  0  0  0
 27 26  1  0  0  0  0
 28 27  2  0  0  0  0
 29 33  1  0  0  0  0
 29 30  1  0  0  0  0
 30 31  2  0  0  0  0
 31 32  1  0  0  0  0
 33 34  1  0  0  0  0
 34 36  1  0  0  0  0
 36 38  1  0  0  0  0
 36 35  1  0  0  0  0
 37 38  1  0  0  0  0
 40 47  1  0  0  0  0
 41 48  1  0  0  0  0
 42 45  1  0  0  0  0
 42 41  2  0  0  0  0
 43 42  1  0  0  0  0
 44 39  1  0  0  0  0
 44 41  1  0  0  0  0
 45 40  2  0  0  0  0
 46 43  1  0  0  0  0
 46 44  1  0  0  0  0
 48 47  2  0  0  0  0
 49 43  1  0  0  0  0
 50 49  1  0  0  0  0
 51 50  1  0  0  0  0
 52 51  1  0  0  0  0
 53 52  1  0  0  0  0
 54 55  1  0  0  0  0
 55 59  1  0  0  0  0
 55 52  1  0  0  0  0
 56 62  2  0  0  0  0
 57 63  1  0  0  0  0
 58 57  2  0  0  0  0
 59 58  1  0  0  0  0
 60 61  1  0  0  0  0
 60 56  1  0  0  0  0
 61 59  1  0  0  0  0
 62 57  1  0  0  0  0
M  END
>  <MODEL>
3

>  <REMARK>
 VINA RESULT:      -6.5      1.807      2.426
  Name = 
  20 active torsions:
  status: ('A' for Active; 'I' for Inactive)
    1  A    between atoms: C_2  and  O_14
    2  A    between atoms: C_2  and  C_27
    3  A    between atoms: C_5  and  C_35
    4  A    between atoms: C_5  and  C_41
    5  A    between atoms: C_8  and  O_14
    6  A    between atoms: C_8  and  C_23
    7  A    between atoms: O_9  and  N_22
    8  A    between atoms: C_10  and  C_41
    9  A    between atoms: C_20  and  C_62
   10  A    between atoms: C_23  and  C_45
   11  A    between atoms: C_26  and  C_35
   12  A    between atoms: C_26  and  C_46
   13  A    between atoms: C_27  and  N_37
   14  A    between atoms: C_33  and  C_59
   15  A    between atoms: C_36  and  C_43
   16  A    between atoms: C_36  and  C_61
   17  A    between atoms: C_38  and  C_60
   18  A    between atoms: C_41  and  C_61
   19  A    between atoms: N_57  and  C_62
   20  A    between atoms: C_60  and  C_61
                            x       y       z     vdW  Elec       q    Type
                         _______ _______ _______ _____ _____    ______ ____

>  <TORSDO>
F 20

$$$$
=
 OpenBabel10232411543D

 63 69  0  0  1  0  0  0  0  0999 V2000
  189.1600  174.6430  136.0480 C   0  0  2  0  0  3  0  0  0  0  0  0
  186.8580  175.4730  136.7280 C   0  0  0  0  0  2  0  0  0  0  0  0
  186.1100  175.7990  134.5740 C   0  0  0  0  0  2  0  0  0  0  0  0
  187.1860  174.7330  134.4740 C   0  0  0  0  0  2  0  0  0  0  0  0
  187.6280  174.4540  135.9100 C   0  0  1  0  0  0  0  0  0  0  0  0
  185.6650  175.8140  135.9560 N   0  0  0  0  0  0  0  0  0  0  0  0
  186.4320  172.2310  135.4500 N   0  0  0  0  0  2  0  0  0  0  0  0
  187.2070  173.0610  136.3260 C   0  0  0  0  0  0  0  0  0  0  0  0
  187.5210  172.6240  137.4670 O   0  0  0  0  0  0  0  0  0  0  0  0
  186.0340  170.9930  135.8330 O   0  0  0  0  0  0  0  0  0  0  0  0
  185.0430  170.6270  134.9170 C   0  0  0  0  0  1  0  0  0  0  0  0
  185.9980  177.9960  137.1990 C   0  0  0  0  0  1  0  0  0  0  0  0
  185.1200  177.1420  136.2830 C   0  0  2  0  0  3  0  0  0  0  0  0
  181.3000  178.0060  140.8030 C   0  0  0  0  0  2  0  0  0  0  0  0
  179.9860  177.4930  138.5380 O   0  0  0  0  0  1  0  0  0  0  0  0
  183.6770  177.0570  136.7900 C   0  0  1  0  0  3  0  0  0  0  0  0
  183.0010  176.9770  139.2700 C   0  0  2  0  0  3  0  0  0  0  0  0
  183.3460  175.6630  137.0850 N   0  0  1  0  0  0  0  0  0  0  0  0
  182.7760  177.6880  140.6020 C   0  0  0  0  0  2  0  0  0  0  0  0
  180.5340  176.8270  140.6930 O   0  0  0  0  0  0  0  0  0  0  0  0
  181.8920  175.8540  137.3280 C   0  0  2  0  0  3  0  0  0  0  0  0
  183.4760  177.8960  138.1060 C   0  0  0  0  0  2  0  0  0  0  0  0
  181.8730  175.9680  138.8550 C   0  0  2  0  0  3  0  0  0  0  0  0
  180.4930  176.4550  139.3330 C   0  0  2  0  0  3  0  0  0  0  0  0
  182.3560  174.8860  136.3380 C   0  0  2  0  0  3  0  0  0  0  0  0
  180.9800  172.9890  137.2050 O   0  0  0  0  0  1  0  0  0  0  0  0
  182.2340  173.5020  136.9000 C   0  0  0  0  0  0  0  0  0  0  0  0
  183.2600  172.7890  137.0860 O   0  0  0  0  0  0  0  0  0  0  0  0
  190.0020  173.3940  135.6920 C   0  0  1  0  0  3  0  0  0  0  0  0
  189.3770  172.7240  134.4970 C   0  0  0  0  0  3  0  0  0  0  0  0
  189.2740  171.4450  134.3490 N   0  0  0  0  0  0  0  0  0  0  0  0
  189.7550  170.4970  135.3170 C   0  0  0  0  0  1  0  0  0  0  0  0
  191.4800  173.7110  135.4380 C   0  0  0  0  0  2  0  0  0  0  0  0
  192.4070  172.7950  136.2180 C   0  0  0  0  0  2  0  0  0  0  0  0
  194.6450  172.6990  137.2710 C   0  0  0  0  0  1  0  0  0  0  0  0
  193.8560  173.2310  136.0860 C   0  0  1  0  0  3  0  0  0  0  0  0
  195.6410  173.3650  134.4890 O   0  0  0  0  0  1  0  0  0  0  0  0
  194.4600  172.6870  134.8020 C   0  0  0  0  0  2  0  0  0  0  0  0
  189.5700  175.2970  137.3740 C   0  0  0  0  0  2  0  0  0  0  0  0
  193.3810  177.0850  139.9400 C   0  0  0  0  0  3  0  0  0  0  0  0
  191.4260  176.7630  137.9950 C   0  0  0  0  0  0  0  0  0  0  0  0
  191.1860  177.5500  139.0890 C   0  0  0  0  0  0  0  0  0  0  0  0
  189.8760  178.0810  139.0510 N   0  0  0  0  0  0  0  0  0  0  0  0
  190.2000  176.6600  137.1460 C   0  0  2  0  0  3  0  0  0  0  0  0
  192.1390  177.7270  140.0920 C   0  0  0  0  0  3  0  0  0  0  0  0
  189.2660  177.7220  137.7720 C   0  0  0  0  0  2  0  0  0  0  0  0
  193.6320  176.2730  138.8160 C   0  0  0  0  0  3  0  0  0  0  0  0
  192.6440  176.0990  137.8320 C   0  0  0  0  0  3  0  0  0  0  0  0
  189.1770  178.6680  140.1860 C   0  0  0  0  0  2  0  0  0  0  0  0
  188.6130  177.5550  141.0770 C   0  0  0  0  0  2  0  0  0  0  0  0
  189.5890  177.0630  141.9540 O   0  0  0  0  0  0  0  0  0  0  0  0
  189.5200  177.8410  143.1230 C   0  0  2  0  0  3  0  0  0  0  0  0
  190.9210  178.1980  143.6160 C   0  0  0  0  0  1  0  0  0  0  0  0
  188.2560  175.8860  143.6770 O   0  0  0  0  0  1  0  0  0  0  0  0
  188.7810  177.0660  144.2180 C   0  0  2  0  0  3  0  0  0  0  0  0
  184.8620  178.7850  145.9470 C   0  0  0  0  0  3  0  0  0  0  0  0
  186.9040  178.2070  147.2830 C   0  0  0  0  0  0  0  0  0  0  0  0
  187.8080  177.8620  146.3500 C   0  0  0  0  0  3  0  0  0  0  0  0
  187.6790  177.9200  144.8630 C   0  0  2  0  0  3  0  0  0  0  0  0
  185.3810  178.6450  144.5540 C   0  0  0  0  0  2  0  0  0  0  0  0
  186.3070  177.4590  144.4150 C   0  0  0  0  0  2  0  0  0  0  0  0
  185.5420  178.6160  147.0420 N   0  0  0  0  0  0  0  0  0  0  0  0
  187.2930  178.1080  148.5780 F   0  0  0  0  0  0  0  0  0  0  0  0
  1 39  1  1  0  0  0
  3  6  1  0  0  0  0
  4  3  1  0  0  0  0
  4  5  1  0  0  0  0
  5  1  1  0  0  0  0
  5  8  1  1  0  0  0
  5  2  1  0  0  0  0
  6 13  1  0  0  0  0
  6  2  1  0  0  0  0
  7 10  1  0  0  0  0
  7  8  1  0  0  0  0
  8  9  2  0  0  0  0
 11 10  1  0  0  0  0
 13 12  1  1  0  0  0
 15 24  1  0  0  0  0
 16 13  1  1  0  0  0
 16 18  1  0  0  0  0
 16 22  1  0  0  0  0
 17 22  1  6  0  0  0
 17 19  1  0  0  0  0
 18 21  1  0  0  0  0
 19 14  1  0  0  0  0
 20 14  1  0  0  0  0
 21 23  1  0  0  0  0
 23 17  1  0  0  0  0
 23 24  1  0  0  0  0
 24 20  1  0  0  0  0
 25 27  1  0  0  0  0
 25 18  1  0  0  0  0
 25 21  1  0  0  0  0
 27 28  2  0  0  0  0
 27 26  1  0  0  0  0
 29  1  1  0  0  0  0
 30 29  1  0  0  0  0
 31 30  2  0  0  0  0
 31 32  1  0  0  0  0
 33 29  1  0  0  0  0
 33 34  1  0  0  0  0
 36 34  1  0  0  0  0
 36 35  1  0  0  0  0
 37 38  1  0  0  0  0
 38 36  1  0  0  0  0
 40 45  1  0  0  0  0
 41 42  1  0  0  0  0
 42 45  2  0  0  0  0
 43 42  1  0  0  0  0
 43 49  1  0  0  0  0
 44 39  1  0  0  0  0
 44 46  1  0  0  0  0
 44 41  1  0  0  0  0
 46 43  1  0  0  0  0
 47 40  2  0  0  0  0
 48 41  2  0  0  0  0
 48 47  1  0  0  0  0
 49 50  1  0  0  0  0
 50 51  1  0  0  0  0
 51 52  1  0  0  0  0
 52 53  1  0  0  0  0
 52 55  1  0  0  0  0
 54 55  1  0  0  0  0
 55 59  1  0  0  0  0
 56 62  2  0  0  0  0
 57 63  1  0  0  0  0
 58 57  2  0  0  0  0
 59 58  1  0  0  0  0
 60 56  1  0  0  0  0
 61 60  1  0  0  0  0
 61 59  1  0  0  0  0
 62 57  1  0  0  0  0
M  END
>  <MODEL>
4

>  <REMARK>
 VINA RESULT:      -6.0      3.176     10.260
  Name = 
  20 active torsions:
  status: ('A' for Active; 'I' for Inactive)
    1  A    between atoms: C_2  and  O_14
    2  A    between atoms: C_2  and  C_27
    3  A    between atoms: C_5  and  C_35
    4  A    between atoms: C_5  and  C_41
    5  A    between atoms: C_8  and  O_14
    6  A    between atoms: C_8  and  C_23
    7  A    between atoms: O_9  and  N_22
    8  A    between atoms: C_10  and  C_41
    9  A    between atoms: C_20  and  C_62
   10  A    between atoms: C_23  and  C_45
   11  A    between atoms: C_26  and  C_35
   12  A    between atoms: C_26  and  C_46
   13  A    between atoms: C_27  and  N_37
   14  A    between atoms: C_33  and  C_59
   15  A    between atoms: C_36  and  C_43
   16  A    between atoms: C_36  and  C_61
   17  A    between atoms: C_38  and  C_60
   18  A    between atoms: C_41  and  C_61
   19  A    between atoms: N_57  and  C_62
   20  A    between atoms: C_60  and  C_61
                            x       y       z     vdW  Elec       q    Type
                         _______ _______ _______ _____ _____    ______ ____

>  <TORSDO>
F 20

$$$$
=
 OpenBabel10232411543D

 63 69  0  0  1  0  0  0  0  0999 V2000
  188.7630  175.2570  137.3440 C   0  0  2  0  0  3  0  0  0  0  0  0
  187.9770  176.8360  139.1730 C   0  0  0  0  0  2  0  0  0  0  0  0
  189.9360  178.0440  139.2600 C   0  0  0  0  0  2  0  0  0  0  0  0
  189.8770  177.4660  137.8570 C   0  0  0  0  0  2  0  0  0  0  0  0
  188.5400  176.7320  137.7680 C   0  0  1  0  0  0  0  0  0  0  0  0
  188.5810  178.0220  139.7780 N   0  0  0  0  0  0  0  0  0  0  0  0
  186.2000  177.2040  136.8300 N   0  0  0  0  0  2  0  0  0  0  0  0
  187.6130  177.4450  136.8070 C   0  0  0  0  0  0  0  0  0  0  0  0
  188.0850  178.2490  135.9580 O   0  0  0  0  0  0  0  0  0  0  0  0
  185.3720  177.8250  135.9540 O   0  0  0  0  0  0  0  0  0  0  0  0
  185.2550  176.9430  134.8730 C   0  0  0  0  0  1  0  0  0  0  0  0
  188.7940  176.5720  141.8450 C   0  0  0  0  0  1  0  0  0  0  0  0
  188.6160  177.9700  141.2490 C   0  0  2  0  0  3  0  0  0  0  0  0
  185.1670  178.8240  146.0590 C   0  0  0  0  0  2  0  0  0  0  0  0
  184.6930  180.6900  144.2110 O   0  0  0  0  0  1  0  0  0  0  0  0
  187.4320  178.7130  141.8740 C   0  0  1  0  0  3  0  0  0  0  0  0
  186.1140  177.8990  143.9260 C   0  0  2  0  0  3  0  0  0  0  0  0
  186.1810  178.1510  141.3670 N   0  0  1  0  0  0  0  0  0  0  0  0
  186.0020  177.7130  145.4380 C   0  0  0  0  0  2  0  0  0  0  0  0
  183.9030  178.8830  145.4350 O   0  0  0  0  0  0  0  0  0  0  0  0
  185.2610  179.1650  141.9450 C   0  0  2  0  0  3  0  0  0  0  0  0
  187.4280  178.5780  143.4420 C   0  0  0  0  0  2  0  0  0  0  0  0
  184.8230  178.4530  143.2270 C   0  0  2  0  0  3  0  0  0  0  0  0
  184.0730  179.4340  144.1480 C   0  0  2  0  0  3  0  0  0  0  0  0
  185.2470  178.8840  140.5110 C   0  0  2  0  0  3  0  0  0  0  0  0
  184.0460  177.2790  139.0190 O   0  0  0  0  0  0  0  0  0  0  0  0
  184.0540  178.0380  140.1820 C   0  0  0  0  0  0  0  0  0  0  0  0
  183.0600  177.9960  140.9600 O   0  0  0  0  0  1  0  0  0  0  0  0
  190.1600  174.9590  136.7490 C   0  0  1  0  0  3  0  0  0  0  0  0
  190.2990  175.7200  135.4570 C   0  0  0  0  0  3  0  0  0  0  0  0
  190.9020  175.2690  134.4070 N   0  0  0  0  0  0  0  0  0  0  0  0
  191.5270  173.9750  134.3490 C   0  0  0  0  0  1  0  0  0  0  0  0
  191.3100  175.2860  137.7090 C   0  0  0  0  0  2  0  0  0  0  0  0
  192.3450  174.1750  137.7670 C   0  0  0  0  0  2  0  0  0  0  0  0
  193.6770  176.1710  137.1620 C   0  0  0  0  0  1  0  0  0  0  0  0
  193.7020  174.6560  137.2830 C   0  0  1  0  0  3  0  0  0  0  0  0
  195.2180  175.3580  139.0020 O   0  0  0  0  0  1  0  0  0  0  0  0
  194.7900  174.2530  138.2640 C   0  0  0  0  0  2  0  0  0  0  0  0
  187.6100  174.6900  136.5060 C   0  0  0  0  0  2  0  0  0  0  0  0
  186.1710  170.3580  134.6410 C   0  0  0  0  0  3  0  0  0  0  0  0
  186.7420  172.4050  136.4290 C   0  0  0  0  0  0  0  0  0  0  0  0
  185.4890  172.2920  135.8890 C   0  0  0  0  0  0  0  0  0  0  0  0
  184.6460  173.3300  136.3460 N   0  0  0  0  0  0  0  0  0  0  0  0
  186.8360  173.6330  137.2760 C   0  0  2  0  0  3  0  0  0  0  0  0
  185.1680  171.2840  134.9790 C   0  0  0  0  0  3  0  0  0  0  0  0
  185.3640  174.0970  137.3640 C   0  0  0  0  0  2  0  0  0  0  0  0
  187.4630  170.4720  135.1950 C   0  0  0  0  0  3  0  0  0  0  0  0
  187.7610  171.5100  136.0940 C   0  0  0  0  0  3  0  0  0  0  0  0
  183.3810  173.7130  135.7340 C   0  0  0  0  0  2  0  0  0  0  0  0
  182.5800  174.5830  136.7090 C   0  0  0  0  0  2  0  0  0  0  0  0
  182.5820  175.9270  136.3120 O   0  0  0  0  0  0  0  0  0  0  0  0
  181.3990  176.5030  136.8060 C   0  0  2  0  0  3  0  0  0  0  0  0
  180.3520  175.4270  137.0860 C   0  0  0  0  0  1  0  0  0  0  0  0
  181.7350  177.6120  134.7120 O   0  0  0  0  0  1  0  0  0  0  0  0
  180.8410  177.4980  135.7850 C   0  0  2  0  0  3  0  0  0  0  0  0
  181.0510  181.5770  137.9350 C   0  0  0  0  0  3  0  0  0  0  0  0
  180.5660  181.2480  135.4960 C   0  0  0  0  0  0  0  0  0  0  0  0
  180.4950  179.9120  135.3630 C   0  0  0  0  0  3  0  0  0  0  0  0
  180.5650  178.8660  136.4270 C   0  0  2  0  0  3  0  0  0  0  0  0
  180.9940  180.1700  138.4310 C   0  0  0  0  0  2  0  0  0  0  0  0
  181.6240  179.2030  137.4560 C   0  0  0  0  0  2  0  0  0  0  0  0
  180.8420  181.9710  136.7130 N   0  0  0  0  0  0  0  0  0  0  0  0
  180.4200  181.9840  134.3660 F   0  0  0  0  0  0  0  0  0  0  0  0
  1 39  1  6  0  0  0
  1  5  1  0  0  0  0
  2  6  1  0  0  0  0
  3  6  1  0  0  0  0
  4  3  1  0  0  0  0
  5  8  1  6  0  0  0
  5  4  1  0  0  0  0
  5  2  1  0  0  0  0
  6 13  1  0  0  0  0
  8  7  1  0  0  0  0
  9  8  2  0  0  0  0
 10  7  1  0  0  0  0
 11 10  1  0  0  0  0
 13 12  1  6  0  0  0
 16 13  1  6  0  0  0
 16 22  1  0  0  0  0
 17 22  1  1  0  0  0
 17 19  1  0  0  0  0
 18 16  1  0  0  0  0
 18 21  1  0  0  0  0
 19 14  1  0  0  0  0
 20 14  1  0  0  0  0
 21 23  1  0  0  0  0
 23 17  1  0  0  0  0
 23 24  1  0  0  0  0
 24 15  1  0  0  0  0
 24 20  1  0  0  0  0
 25 18  1  0  0  0  0
 25 21  1  0  0  0  0
 26 27  2  0  0  0  0
 27 25  1  0  0  0  0
 27 28  1  0  0  0  0
 29  1  1  0  0  0  0
 29 33  1  0  0  0  0
 30 29  1  0  0  0  0
 31 30  2  0  0  0  0
 32 31  1  0  0  0  0
 33 34  1  0  0  0  0
 35 36  1  0  0  0  0
 36 34  1  0  0  0  0
 36 38  1  0  0  0  0
 38 37  1  0  0  0  0
 39 44  1  0  0  0  0
 40 45  2  0  0  0  0
 40 47  1  0  0  0  0
 41 44  1  0  0  0  0
 42 43  1  0  0  0  0
 42 41  2  0  0  0  0
 43 46  1  0  0  0  0
 44 46  1  0  0  0  0
 45 42  1  0  0  0  0
 47 48  2  0  0  0  0
 48 41  1  0  0  0  0
 49 43  1  0  0  0  0
 49 50  1  0  0  0  0
 51 50  1  0  0  0  0
 51 52  1  0  0  0  0
 52 53  1  0  0  0  0
 54 55  1  0  0  0  0
 55 59  1  0  0  0  0
 55 52  1  0  0  0  0
 56 60  1  0  0  0  0
 57 62  1  0  0  0  0
 58 57  2  0  0  0  0
 58 59  1  0  0  0  0
 59 61  1  0  0  0  0
 61 60  1  0  0  0  0
 62 56  2  0  0  0  0
 63 57  1  0  0  0  0
M  END
>  <MODEL>
5

>  <REMARK>
 VINA RESULT:      -5.2      3.130      9.136
  Name = 
  20 active torsions:
  status: ('A' for Active; 'I' for Inactive)
    1  A    between atoms: C_2  and  O_14
    2  A    between atoms: C_2  and  C_27
    3  A    between atoms: C_5  and  C_35
    4  A    between atoms: C_5  and  C_41
    5  A    between atoms: C_8  and  O_14
    6  A    between atoms: C_8  and  C_23
    7  A    between atoms: O_9  and  N_22
    8  A    between atoms: C_10  and  C_41
    9  A    between atoms: C_20  and  C_62
   10  A    between atoms: C_23  and  C_45
   11  A    between atoms: C_26  and  C_35
   12  A    between atoms: C_26  and  C_46
   13  A    between atoms: C_27  and  N_37
   14  A    between atoms: C_33  and  C_59
   15  A    between atoms: C_36  and  C_43
   16  A    between atoms: C_36  and  C_61
   17  A    between atoms: C_38  and  C_60
   18  A    between atoms: C_41  and  C_61
   19  A    between atoms: N_57  and  C_62
   20  A    between atoms: C_60  and  C_61
                            x       y       z     vdW  Elec       q    Type
                         _______ _______ _______ _____ _____    ______ ____

>  <TORSDO>
F 20

$$$$
=
 OpenBabel10232411543D

 63 69  0  0  1  0  0  0  0  0999 V2000
  188.6390  178.0330  141.6280 C   0  0  2  0  0  3  0  0  0  0  0  0
  190.5970  177.7600  140.0320 C   0  0  0  0  0  2  0  0  0  0  0  0
  190.1180  175.5730  139.4900 C   0  0  0  0  0  2  0  0  0  0  0  0
  188.7950  176.1860  139.9120 C   0  0  0  0  0  2  0  0  0  0  0  0
  189.0910  177.6580  140.1940 C   0  0  1  0  0  0  0  0  0  0  0  0
  190.9950  176.6740  139.1380 N   0  0  0  0  0  0  0  0  0  0  0  0
  187.2500  178.0890  138.4600 N   0  0  0  0  0  2  0  0  0  0  0  0
  188.4200  178.5360  139.1600 C   0  0  0  0  0  0  0  0  0  0  0  0
  188.9010  179.6690  138.8890 O   0  0  0  0  0  0  0  0  0  0  0  0
  186.6630  178.8660  137.5170 O   0  0  0  0  0  0  0  0  0  0  0  0
  187.2140  178.4450  136.3020 C   0  0  0  0  0  1  0  0  0  0  0  0
  193.4070  177.4100  139.3760 C   0  0  0  0  0  1  0  0  0  0  0  0
  192.3970  176.2630  139.3120 C   0  0  2  0  0  3  0  0  0  0  0  0
  196.4820  174.3310  135.3940 C   0  0  0  0  0  2  0  0  0  0  0  0
  194.6400  172.4530  135.8440 O   0  0  0  0  0  1  0  0  0  0  0  0
  192.8080  175.1940  138.2950 C   0  0  1  0  0  3  0  0  0  0  0  0
  194.5410  175.5420  136.4270 C   0  0  2  0  0  3  0  0  0  0  0  0
  192.0520  175.3820  137.0580 N   0  0  1  0  0  0  0  0  0  0  0  0
  195.9960  175.6520  135.9770 C   0  0  0  0  0  2  0  0  0  0  0  0
  195.6290  173.9250  134.3460 O   0  0  0  0  0  0  0  0  0  0  0  0
  192.4750  174.1320  136.3760 C   0  0  2  0  0  3  0  0  0  0  0  0
  194.3410  175.2830  137.9490 C   0  0  0  0  0  2  0  0  0  0  0  0
  193.6260  174.6550  135.5110 C   0  0  2  0  0  3  0  0  0  0  0  0
  194.4180  173.4780  134.9130 C   0  0  2  0  0  3  0  0  0  0  0  0
  191.0570  174.4310  136.5580 C   0  0  2  0  0  3  0  0  0  0  0  0
  189.9870  173.9790  134.3460 O   0  0  0  0  0  0  0  0  0  0  0  0
  190.4780  174.9030  135.2590 C   0  0  0  0  0  0  0  0  0  0  0  0
  190.4150  176.1360  134.9910 O   0  0  0  0  0  1  0  0  0  0  0  0
  189.5240  177.4550  142.7580 C   0  0  1  0  0  3  0  0  0  0  0  0
  190.9640  177.7440  142.4290 C   0  0  0  0  0  3  0  0  0  0  0  0
  191.9630  177.0370  142.8430 N   0  0  0  0  0  0  0  0  0  0  0  0
  191.8160  175.8800  143.6840 C   0  0  0  0  0  1  0  0  0  0  0  0
  189.1570  177.9880  144.1480 C   0  0  0  0  0  2  0  0  0  0  0  0
  188.5140  176.9240  145.0210 C   0  0  0  0  0  2  0  0  0  0  0  0
  190.3660  177.8030  146.4080 C   0  0  0  0  0  1  0  0  0  0  0  0
  189.2330  176.7910  146.3530 C   0  0  1  0  0  3  0  0  0  0  0  0
  188.0790  178.4260  147.6740 O   0  0  0  0  0  1  0  0  0  0  0  0
  188.2740  177.0540  147.5030 C   0  0  0  0  0  2  0  0  0  0  0  0
  187.1370  177.8220  141.8610 C   0  0  0  0  0  2  0  0  0  0  0  0
  183.5380  178.6640  145.1240 C   0  0  0  0  0  3  0  0  0  0  0  0
  185.5200  179.0550  143.2200 C   0  0  0  0  0  0  0  0  0  0  0  0
  184.2160  178.8970  142.8340 C   0  0  0  0  0  0  0  0  0  0  0  0
  184.0980  178.9330  141.4260 N   0  0  0  0  0  0  0  0  0  0  0  0
  186.4120  179.1470  142.0230 C   0  0  2  0  0  3  0  0  0  0  0  0
  183.1950  178.6860  143.7610 C   0  0  0  0  0  3  0  0  0  0  0  0
  185.4020  179.2780  140.8600 C   0  0  0  0  0  2  0  0  0  0  0  0
  184.8790  178.8270  145.5260 C   0  0  0  0  0  3  0  0  0  0  0  0
  185.8890  179.0160  144.5670 C   0  0  0  0  0  3  0  0  0  0  0  0
  182.9430  178.4710  140.6690 C   0  0  0  0  0  2  0  0  0  0  0  0
  183.2430  178.5550  139.1680 C   0  0  0  0  0  2  0  0  0  0  0  0
  183.9140  177.4090  138.7200 O   0  0  0  0  0  0  0  0  0  0  0  0
  183.3050  177.0240  137.5120 C   0  0  2  0  0  3  0  0  0  0  0  0
  182.1730  177.9840  137.1500 C   0  0  0  0  0  1  0  0  0  0  0  0
  182.1360  175.4630  138.8990 O   0  0  0  0  0  1  0  0  0  0  0  0
  182.7430  175.6060  137.6440 C   0  0  2  0  0  3  0  0  0  0  0  0
  185.4000  172.1190  136.1990 C   0  0  0  0  0  3  0  0  0  0  0  0
  186.0110  174.5490  136.0890 C   0  0  0  0  0  0  0  0  0  0  0  0
  184.9960  175.1630  136.7210 C   0  0  0  0  0  3  0  0  0  0  0  0
  183.8350  174.5470  137.4310 C   0  0  2  0  0  3  0  0  0  0  0  0
  184.1570  172.1740  137.0250 C   0  0  0  0  0  2  0  0  0  0  0  0
  183.2920  173.3590  136.6640 C   0  0  0  0  0  2  0  0  0  0  0  0
  186.1430  173.1320  135.8600 N   0  0  0  0  0  0  0  0  0  0  0  0
  186.9760  175.3460  135.5650 F   0  0  0  0  0  0  0  0  0  0  0  0
  1 39  1  1  0  0  0
  1 29  1  0  0  0  0
  2  5  1  0  0  0  0
  3  4  1  0  0  0  0
  4  5  1  0  0  0  0
  5  8  1  6  0  0  0
  5  1  1  0  0  0  0
  6 13  1  0  0  0  0
  6  3  1  0  0  0  0
  6  2  1  0  0  0  0
  7  8  1  0  0  0  0
  9  8  2  0  0  0  0
 10  7  1  0  0  0  0
 11 10  1  0  0  0  0
 13 12  1  6  0  0  0
 14 19  1  0  0  0  0
 16 13  1  1  0  0  0
 17 19  1  6  0  0  0
 17 22  1  0  0  0  0
 18 16  1  0  0  0  0
 20 24  1  0  0  0  0
 20 14  1  0  0  0  0
 21 25  1  0  0  0  0
 21 18  1  0  0  0  0
 22 16  1  0  0  0  0
 23 21  1  0  0  0  0
 23 17  1  0  0  0  0
 24 23  1  0  0  0  0
 24 15  1  0  0  0  0
 25 18  1  0  0  0  0
 26 27  2  0  0  0  0
 27 25  1  0  0  0  0
 28 27  1  0  0  0  0
 29 33  1  0  0  0  0
 30 29  1  0  0  0  0
 30 31  2  0  0  0  0
 31 32  1  0  0  0  0
 33 34  1  0  0  0  0
 34 36  1  0  0  0  0
 36 35  1  0  0  0  0
 36 38  1  0  0  0  0
 38 37  1  0  0  0  0
 39 44  1  0  0  0  0
 40 47  1  0  0  0  0
 41 48  1  0  0  0  0
 42 41  2  0  0  0  0
 42 45  1  0  0  0  0
 43 42  1  0  0  0  0
 44 41  1  0  0  0  0
 45 40  2  0  0  0  0
 46 43  1  0  0  0  0
 46 44  1  0  0  0  0
 48 47  2  0  0  0  0
 49 43  1  0  0  0  0
 50 49  1  0  0  0  0
 51 50  1  0  0  0  0
 52 55  1  0  0  0  0
 52 51  1  0  0  0  0
 53 52  1  0  0  0  0
 55 54  1  0  0  0  0
 56 60  1  0  0  0  0
 57 58  2  0  0  0  0
 58 59  1  0  0  0  0
 59 55  1  0  0  0  0
 61 60  1  0  0  0  0
 61 59  1  0  0  0  0
 62 57  1  0  0  0  0
 62 56  2  0  0  0  0
 63 57  1  0  0  0  0
M  END
>  <MODEL>
6

>  <REMARK>
 VINA RESULT:      -4.9      2.266      3.888
  Name = 
  20 active torsions:
  status: ('A' for Active; 'I' for Inactive)
    1  A    between atoms: C_2  and  O_14
    2  A    between atoms: C_2  and  C_27
    3  A    between atoms: C_5  and  C_35
    4  A    between atoms: C_5  and  C_41
    5  A    between atoms: C_8  and  O_14
    6  A    between atoms: C_8  and  C_23
    7  A    between atoms: O_9  and  N_22
    8  A    between atoms: C_10  and  C_41
    9  A    between atoms: C_20  and  C_62
   10  A    between atoms: C_23  and  C_45
   11  A    between atoms: C_26  and  C_35
   12  A    between atoms: C_26  and  C_46
   13  A    between atoms: C_27  and  N_37
   14  A    between atoms: C_33  and  C_59
   15  A    between atoms: C_36  and  C_43
   16  A    between atoms: C_36  and  C_61
   17  A    between atoms: C_38  and  C_60
   18  A    between atoms: C_41  and  C_61
   19  A    between atoms: N_57  and  C_62
   20  A    between atoms: C_60  and  C_61
                            x       y       z     vdW  Elec       q    Type
                         _______ _______ _______ _____ _____    ______ ____

>  <TORSDO>
F 20

$$$$
=
 OpenBabel10232411543D

 63 69  0  0  1  0  0  0  0  0999 V2000
  191.1210  173.3980  136.1890 C   0  0  2  0  0  3  0  0  0  0  0  0
  189.9650  175.5410  136.9150 C   0  0  0  0  0  2  0  0  0  0  0  0
  191.2590  175.8470  138.7970 C   0  0  0  0  0  2  0  0  0  0  0  0
  192.1120  175.0280  137.8450 C   0  0  0  0  0  2  0  0  0  0  0  0
  191.2910  174.8930  136.5630 C   0  0  1  0  0  0  0  0  0  0  0  0
  190.2370  176.4920  137.9920 N   0  0  0  0  0  0  0  0  0  0  0  0
  193.2630  176.2080  135.5810 N   0  0  0  0  0  2  0  0  0  0  0  0
  191.9410  175.6700  135.4390 C   0  0  0  0  0  0  0  0  0  0  0  0
  191.3100  175.8680  134.3650 O   0  0  0  0  0  0  0  0  0  0  0  0
  193.8350  176.9250  134.5830 O   0  0  0  0  0  0  0  0  0  0  0  0
  195.2010  176.9450  134.8840 C   0  0  0  0  0  1  0  0  0  0  0  0
  187.9040  177.4720  138.1040 C   0  0  0  0  0  1  0  0  0  0  0  0
  189.0590  176.7770  138.8270 C   0  0  2  0  0  3  0  0  0  0  0  0
  191.5960  176.4340  144.2320 C   0  0  0  0  0  2  0  0  0  0  0  0
  191.1110  178.9740  143.5740 O   0  0  0  0  0  1  0  0  0  0  0  0
  189.4410  177.4980  140.1230 C   0  0  1  0  0  3  0  0  0  0  0  0
  189.9270  176.3250  142.3590 C   0  0  2  0  0  3  0  0  0  0  0  0
  188.2490  177.6750  140.9520 N   0  0  1  0  0  0  0  0  0  0  0  0
  190.8680  175.5210  143.2540 C   0  0  0  0  0  2  0  0  0  0  0  0
  190.6610  177.1820  144.9780 O   0  0  0  0  0  0  0  0  0  0  0  0
  188.8560  178.5550  141.9840 C   0  0  2  0  0  3  0  0  0  0  0  0
  190.4950  176.6750  140.9530 C   0  0  0  0  0  2  0  0  0  0  0  0
  189.2040  177.5270  143.0640 C   0  0  2  0  0  3  0  0  0  0  0  0
  190.1100  178.1660  144.1330 C   0  0  2  0  0  3  0  0  0  0  0  0
  187.6590  178.9780  141.2620 C   0  0  2  0  0  3  0  0  0  0  0  0
  186.2630  177.6290  142.8350 O   0  0  0  0  0  1  0  0  0  0  0  0
  186.4610  178.8200  142.1490 C   0  0  0  0  0  0  0  0  0  0  0  0
  185.6370  179.7660  142.2940 O   0  0  0  0  0  0  0  0  0  0  0  0
  192.3540  172.7570  135.5080 C   0  0  1  0  0  3  0  0  0  0  0  0
  193.4360  172.5920  136.5430 C   0  0  0  0  0  3  0  0  0  0  0  0
  194.6830  172.8590  136.3400 N   0  0  0  0  0  0  0  0  0  0  0  0
  195.1940  173.3450  135.0870 C   0  0  0  0  0  1  0  0  0  0  0  0
  192.0400  171.4230  134.8200 C   0  0  0  0  0  2  0  0  0  0  0  0
  192.8670  170.2780  135.3810 C   0  0  0  0  0  2  0  0  0  0  0  0
  194.4820  168.7010  134.3660 C   0  0  0  0  0  1  0  0  0  0  0  0
  193.0350  169.1650  134.3610 C   0  0  1  0  0  3  0  0  0  0  0  0
  191.8700  167.9590  136.0750 O   0  0  0  0  0  1  0  0  0  0  0  0
  192.1340  167.9900  134.7040 C   0  0  0  0  0  2  0  0  0  0  0  0
  189.8020  173.1050  135.4630 C   0  0  0  0  0  2  0  0  0  0  0  0
  186.6420  169.4880  134.3470 C   0  0  0  0  0  3  0  0  0  0  0  0
  188.1210  171.3560  135.7730 C   0  0  0  0  0  0  0  0  0  0  0  0
  186.8750  171.6770  135.3040 C   0  0  0  0  0  0  0  0  0  0  0  0
  186.5430  173.0130  135.6260 N   0  0  0  0  0  0  0  0  0  0  0  0
  188.7590  172.5460  136.4150 C   0  0  2  0  0  3  0  0  0  0  0  0
  186.1080  170.7690  134.5740 C   0  0  0  0  0  3  0  0  0  0  0  0
  187.5920  173.5580  136.4850 C   0  0  0  0  0  2  0  0  0  0  0  0
  187.9250  169.1550  134.8270 C   0  0  0  0  0  3  0  0  0  0  0  0
  188.6820  170.0980  135.5420 C   0  0  0  0  0  3  0  0  0  0  0  0
  185.4690  173.7810  135.0100 C   0  0  0  0  0  2  0  0  0  0  0  0
  184.2770  173.8610  135.9710 C   0  0  0  0  0  2  0  0  0  0  0  0
  184.1970  175.1230  136.5750 O   0  0  0  0  0  0  0  0  0  0  0  0
  183.1310  175.8050  135.9610 C   0  0  2  0  0  3  0  0  0  0  0  0
  183.6490  176.9870  135.1440 C   0  0  0  0  0  1  0  0  0  0  0  0
  180.8740  175.8290  136.7530 O   0  0  0  0  0  1  0  0  0  0  0  0
  182.1580  176.3150  137.0270 C   0  0  2  0  0  3  0  0  0  0  0  0
  181.2370  180.7830  137.7310 C   0  0  0  0  0  3  0  0  0  0  0  0
  183.0710  179.4880  138.8490 C   0  0  0  0  0  0  0  0  0  0  0  0
  183.0230  178.2850  138.2500 C   0  0  0  0  0  3  0  0  0  0  0  0
  182.1670  177.8490  137.1070 C   0  0  2  0  0  3  0  0  0  0  0  0
  180.7790  179.8010  136.7030 C   0  0  0  0  0  2  0  0  0  0  0  0
  180.7580  178.3900  137.2410 C   0  0  0  0  0  2  0  0  0  0  0  0
  182.2080  180.6110  138.5800 N   0  0  0  0  0  0  0  0  0  0  0  0
  183.9840  179.6410  139.8410 F   0  0  0  0  0  0  0  0  0  0  0  0
  1 39  1  6  0  0  0
  1  5  1  0  0  0  0
  2  6  1  0  0  0  0
  4  3  1  0  0  0  0
  5  8  1  6  0  0  0
  5  2  1  0  0  0  0
  5  4  1  0  0  0  0
  6  3  1  0  0  0  0
  6 13  1  0  0  0  0
  8  7  1  0  0  0  0
  9  8  2  0  0  0  0
 10 11  1  0  0  0  0
 10  7  1  0  0  0  0
 13 12  1  6  0  0  0
 14 20  1  0  0  0  0
 15 24  1  0  0  0  0
 16 13  1  6  0  0  0
 16 18  1  0  0  0  0
 16 22  1  0  0  0  0
 17 22  1  6  0  0  0
 17 23  1  0  0  0  0
 17 19  1  0  0  0  0
 18 25  1  0  0  0  0
 18 21  1  0  0  0  0
 19 14  1  0  0  0  0
 21 23  1  0  0  0  0
 23 24  1  0  0  0  0
 24 20  1  0  0  0  0
 25 21  1  0  0  0  0
 25 27  1  0  0  0  0
 27 28  2  0  0  0  0
 27 26  1  0  0  0  0
 29  1  1  0  0  0  0
 29 30  1  0  0  0  0
 31 30  2  0  0  0  0
 32 31  1  0  0  0  0
 33 34  1  0  0  0  0
 33 29  1  0  0  0  0
 36 35  1  0  0  0  0
 36 38  1  0  0  0  0
 36 34  1  0  0  0  0
 38 37  1  0  0  0  0
 39 44  1  0  0  0  0
 40 45  2  0  0  0  0
 40 47  1  0  0  0  0
 41 44  1  0  0  0  0
 42 43  1  0  0  0  0
 42 41  2  0  0  0  0
 43 46  1  0  0  0  0
 44 46  1  0  0  0  0
 45 42  1  0  0  0  0
 47 48  2  0  0  0  0
 48 41  1  0  0  0  0
 49 43  1  0  0  0  0
 49 50  1  0  0  0  0
 50 51  1  0  0  0  0
 52 51  1  0  0  0  0
 52 55  1  0  0  0  0
 53 52  1  0  0  0  0
 54 55  1  0  0  0  0
 55 59  1  0  0  0  0
 56 62  2  0  0  0  0
 57 63  1  0  0  0  0
 58 57  2  0  0  0  0
 59 61  1  0  0  0  0
 59 58  1  0  0  0  0
 60 61  1  0  0  0  0
 60 56  1  0  0  0  0
 62 57  1  0  0  0  0
M  END
>  <MODEL>
7

>  <REMARK>
 VINA RESULT:      -4.9      3.106      9.275
  Name = 
  20 active torsions:
  status: ('A' for Active; 'I' for Inactive)
    1  A    between atoms: C_2  and  O_14
    2  A    between atoms: C_2  and  C_27
    3  A    between atoms: C_5  and  C_35
    4  A    between atoms: C_5  and  C_41
    5  A    between atoms: C_8  and  O_14
    6  A    between atoms: C_8  and  C_23
    7  A    between atoms: O_9  and  N_22
    8  A    between atoms: C_10  and  C_41
    9  A    between atoms: C_20  and  C_62
   10  A    between atoms: C_23  and  C_45
   11  A    between atoms: C_26  and  C_35
   12  A    between atoms: C_26  and  C_46
   13  A    between atoms: C_27  and  N_37
   14  A    between atoms: C_33  and  C_59
   15  A    between atoms: C_36  and  C_43
   16  A    between atoms: C_36  and  C_61
   17  A    between atoms: C_38  and  C_60
   18  A    between atoms: C_41  and  C_61
   19  A    between atoms: N_57  and  C_62
   20  A    between atoms: C_60  and  C_61
                            x       y       z     vdW  Elec       q    Type
                         _______ _______ _______ _____ _____    ______ ____

>  <TORSDO>
F 20

$$$$
=
 OpenBabel10232411543D

 63 69  0  0  1  0  0  0  0  0999 V2000
  190.0030  175.5650  138.0760 C   0  0  2  0  0  3  0  0  0  0  0  0
  189.0000  176.8000  140.0570 C   0  0  0  0  0  2  0  0  0  0  0  0
  191.0200  177.5310  140.8890 C   0  0  0  0  0  2  0  0  0  0  0  0
  191.2450  177.3200  139.4020 C   0  0  0  0  0  2  0  0  0  0  0  0
  189.8870  176.9140  138.8310 C   0  0  1  0  0  0  0  0  0  0  0  0
  189.5870  177.6650  141.0790 N   0  0  0  0  0  0  0  0  0  0  0  0
  189.2760  177.8160  136.5090 N   0  0  0  0  0  2  0  0  0  0  0  0
  189.3500  178.0040  137.9290 C   0  0  0  0  0  0  0  0  0  0  0  0
  188.9800  179.1030  138.4230 O   0  0  0  0  0  0  0  0  0  0  0  0
  188.8180  178.8010  135.6980 O   0  0  0  0  0  0  0  0  0  0  0  0
  187.5030  178.4390  135.3880 C   0  0  0  0  0  1  0  0  0  0  0  0
  188.8750  175.7890  142.6260 C   0  0  0  0  0  1  0  0  0  0  0  0
  189.2330  177.2660  142.4510 C   0  0  2  0  0  3  0  0  0  0  0  0
  185.2470  178.1900  146.8120 C   0  0  0  0  0  2  0  0  0  0  0  0
  185.6080  180.4090  145.3750 O   0  0  0  0  0  1  0  0  0  0  0  0
  188.1710  178.1890  143.0570 C   0  0  1  0  0  3  0  0  0  0  0  0
  186.3260  177.4270  144.6780 C   0  0  2  0  0  3  0  0  0  0  0  0
  186.9410  178.0970  142.2720 N   0  0  1  0  0  0  0  0  0  0  0  0
  185.8850  177.0170  146.0820 C   0  0  0  0  0  2  0  0  0  0  0  0
  184.1800  178.7090  146.0500 O   0  0  0  0  0  0  0  0  0  0  0  0
  186.2060  179.2100  142.9270 C   0  0  2  0  0  3  0  0  0  0  0  0
  187.8340  177.7860  144.5410 C   0  0  0  0  0  2  0  0  0  0  0  0
  185.3690  178.4350  143.9490 C   0  0  2  0  0  3  0  0  0  0  0  0
  184.7220  179.4070  144.9520 C   0  0  2  0  0  3  0  0  0  0  0  0
  186.3970  179.2010  141.4790 C   0  0  2  0  0  3  0  0  0  0  0  0
  184.4770  177.6250  141.2020 O   0  0  0  0  0  1  0  0  0  0  0  0
  185.1180  178.7940  140.8110 C   0  0  0  0  0  0  0  0  0  0  0  0
  184.6060  179.5130  139.9070 O   0  0  0  0  0  0  0  0  0  0  0  0
  191.4370  175.1920  137.6310 C   0  0  1  0  0  3  0  0  0  0  0  0
  191.4790  173.7130  137.3530 C   0  0  0  0  0  3  0  0  0  0  0  0
  191.3720  173.1900  136.1760 N   0  0  0  0  0  0  0  0  0  0  0  0
  191.1900  173.9660  134.9800 C   0  0  0  0  0  1  0  0  0  0  0  0
  191.9240  175.9960  136.4200 C   0  0  0  0  0  2  0  0  0  0  0  0
  193.3380  176.5200  136.6080 C   0  0  0  0  0  2  0  0  0  0  0  0
  195.2340  176.9820  135.0860 C   0  0  0  0  0  1  0  0  0  0  0  0
  194.2950  175.9040  135.6020 C   0  0  1  0  0  3  0  0  0  0  0  0
  196.1980  175.3400  136.9470 O   0  0  0  0  0  1  0  0  0  0  0  0
  195.1130  174.8010  136.2530 C   0  0  0  0  0  2  0  0  0  0  0  0
  188.9580  175.4060  136.9630 C   0  0  0  0  0  2  0  0  0  0  0  0
  186.7510  171.5070  134.9030 C   0  0  0  0  0  3  0  0  0  0  0  0
  187.4350  173.5100  136.7010 C   0  0  0  0  0  0  0  0  0  0  0  0
  186.4290  173.7120  135.7950 C   0  0  0  0  0  0  0  0  0  0  0  0
  185.8900  175.0130  135.9200 N   0  0  0  0  0  0  0  0  0  0  0  0
  187.6880  174.7570  137.4860 C   0  0  2  0  0  3  0  0  0  0  0  0
  186.0650  172.7340  134.8690 C   0  0  0  0  0  3  0  0  0  0  0  0
  186.4980  175.6570  137.0840 C   0  0  0  0  0  2  0  0  0  0  0  0
  187.7880  171.2960  135.8340 C   0  0  0  0  0  3  0  0  0  0  0  0
  188.1460  172.3080  136.7410 C   0  0  0  0  0  3  0  0  0  0  0  0
  185.0600  175.6760  134.9230 C   0  0  0  0  0  2  0  0  0  0  0  0
  183.8460  176.3150  135.6070 C   0  0  0  0  0  2  0  0  0  0  0  0
  182.7400  175.4540  135.5880 O   0  0  0  0  0  0  0  0  0  0  0  0
  182.4210  175.1660  136.9260 C   0  0  2  0  0  3  0  0  0  0  0  0
  182.8620  173.7500  137.2910 C   0  0  0  0  0  1  0  0  0  0  0  0
  180.2940  175.5890  135.9160 O   0  0  0  0  0  1  0  0  0  0  0  0
  180.9100  175.2950  137.1390 C   0  0  2  0  0  3  0  0  0  0  0  0
  180.6540  177.9730  140.8890 C   0  0  0  0  0  3  0  0  0  0  0  0
  181.5040  178.7000  138.6450 C   0  0  0  0  0  0  0  0  0  0  0  0
  181.2800  177.6340  137.8570 C   0  0  0  0  0  3  0  0  0  0  0  0
  180.5810  176.3580  138.1970 C   0  0  2  0  0  3  0  0  0  0  0  0
  180.0920  176.6300  140.5610 C   0  0  0  0  0  2  0  0  0  0  0  0
  180.9630  175.8780  139.5820 C   0  0  0  0  0  2  0  0  0  0  0  0
  181.2080  178.8010  140.0520 N   0  0  0  0  0  0  0  0  0  0  0  0
  182.1210  179.7640  138.0720 F   0  0  0  0  0  0  0  0  0  0  0  0
  1 39  1  6  0  0  0
  1  5  1  0  0  0  0
  2  6  1  0  0  0  0
  3  6  1  0  0  0  0
  4  3  1  0  0  0  0
  5  8  1  6  0  0  0
  5  4  1  0  0  0  0
  5  2  1  0  0  0  0
  6 13  1  0  0  0  0
  7  8  1  0  0  0  0
  8  9  2  0  0  0  0
 10  7  1  0  0  0  0
 11 10  1  0  0  0  0
 13 12  1  6  0  0  0
 16 13  1  6  0  0  0
 16 22  1  0  0  0  0
 17 22  1  1  0  0  0
 17 19  1  0  0  0  0
 18 21  1  0  0  0  0
 18 16  1  0  0  0  0
 19 14  1  0  0  0  0
 20 14  1  0  0  0  0
 21 23  1  0  0  0  0
 23 17  1  0  0  0  0
 23 24  1  0  0  0  0
 24 15  1  0  0  0  0
 24 20  1  0  0  0  0
 25 18  1  0  0  0  0
 25 21  1  0  0  0  0
 27 26  1  0  0  0  0
 27 25  1  0  0  0  0
 28 27  2  0  0  0  0
 29  1  1  0  0  0  0
 30 29  1  0  0  0  0
 31 30  2  0  0  0  0
 32 31  1  0  0  0  0
 33 34  1  0  0  0  0
 33 29  1  0  0  0  0
 35 36  1  0  0  0  0
 36 38  1  0  0  0  0
 36 34  1  0  0  0  0
 38 37  1  0  0  0  0
 39 44  1  0  0  0  0
 40 47  1  0  0  0  0
 41 48  1  0  0  0  0
 41 44  1  0  0  0  0
 42 43  1  0  0  0  0
 42 41  2  0  0  0  0
 43 46  1  0  0  0  0
 45 40  2  0  0  0  0
 45 42  1  0  0  0  0
 46 44  1  0  0  0  0
 47 48  2  0  0  0  0
 49 50  1  0  0  0  0
 49 43  1  0  0  0  0
 51 50  1  0  0  0  0
 51 52  1  0  0  0  0
 52 55  1  0  0  0  0
 52 53  1  0  0  0  0
 54 55  1  0  0  0  0
 55 59  1  0  0  0  0
 57 62  1  0  0  0  0
 58 59  1  0  0  0  0
 58 57  2  0  0  0  0
 59 61  1  0  0  0  0
 60 56  1  0  0  0  0
 61 60  1  0  0  0  0
 62 56  2  0  0  0  0
 63 57  1  0  0  0  0
M  END
>  <MODEL>
8

>  <REMARK>
 VINA RESULT:      -4.8      2.860      8.818
  Name = 
  20 active torsions:
  status: ('A' for Active; 'I' for Inactive)
    1  A    between atoms: C_2  and  O_14
    2  A    between atoms: C_2  and  C_27
    3  A    between atoms: C_5  and  C_35
    4  A    between atoms: C_5  and  C_41
    5  A    between atoms: C_8  and  O_14
    6  A    between atoms: C_8  and  C_23
    7  A    between atoms: O_9  and  N_22
    8  A    between atoms: C_10  and  C_41
    9  A    between atoms: C_20  and  C_62
   10  A    between atoms: C_23  and  C_45
   11  A    between atoms: C_26  and  C_35
   12  A    between atoms: C_26  and  C_46
   13  A    between atoms: C_27  and  N_37
   14  A    between atoms: C_33  and  C_59
   15  A    between atoms: C_36  and  C_43
   16  A    between atoms: C_36  and  C_61
   17  A    between atoms: C_38  and  C_60
   18  A    between atoms: C_41  and  C_61
   19  A    between atoms: N_57  and  C_62
   20  A    between atoms: C_60  and  C_61
                            x       y       z     vdW  Elec       q    Type
                         _______ _______ _______ _____ _____    ______ ____

>  <TORSDO>
F 20

$$$$
=
 OpenBabel10232411543D

 63 69  0  0  1  0  0  0  0  0999 V2000
  182.5440  176.3290  137.8080 C   0  0  2  0  0  3  0  0  0  0  0  0
  184.3920  176.6040  136.0860 C   0  0  0  0  0  2  0  0  0  0  0  0
  185.9990  175.5230  137.3330 C   0  0  0  0  0  2  0  0  0  0  0  0
  184.6700  174.9660  137.8110 C   0  0  0  0  0  2  0  0  0  0  0  0
  183.6060  175.6180  136.9300 C   0  0  1  0  0  0  0  0  0  0  0  0
  185.7620  176.1000  136.0220 N   0  0  0  0  0  0  0  0  0  0  0  0
  182.3540  173.4090  136.5660 N   0  0  0  0  0  2  0  0  0  0  0  0
  182.9680  174.5870  136.0250 C   0  0  0  0  0  0  0  0  0  0  0  0
  182.9910  174.7480  134.7750 O   0  0  0  0  0  0  0  0  0  0  0  0
  181.8050  172.4730  135.7540 O   0  0  0  0  0  0  0  0  0  0  0  0
  181.2070  171.5460  136.6150 C   0  0  0  0  0  1  0  0  0  0  0  0
  186.3650  178.1630  134.6810 C   0  0  0  0  0  1  0  0  0  0  0  0
  186.7580  177.1520  135.7600 C   0  0  2  0  0  3  0  0  0  0  0  0
  190.0670  172.3140  134.5750 C   0  0  0  0  0  2  0  0  0  0  0  0
  191.5260  174.5370  134.3480 O   0  0  0  0  0  1  0  0  0  0  0  0
  188.1540  176.5690  135.5180 C   0  0  1  0  0  3  0  0  0  0  0  0
  188.7660  174.0860  135.7880 C   0  0  2  0  0  3  0  0  0  0  0  0
  188.8600  176.4520  136.7930 N   0  0  1  0  0  0  0  0  0  0  0  0
  188.7480  172.6540  135.2560 C   0  0  0  0  0  2  0  0  0  0  0  0
  191.1400  172.5390  135.4640 O   0  0  0  0  0  0  0  0  0  0  0  0
  190.1930  176.0890  136.2460 C   0  0  2  0  0  3  0  0  0  0  0  0
  188.0770  175.1370  134.8690 C   0  0  0  0  0  2  0  0  0  0  0  0
  190.1440  174.5630  136.3680 C   0  0  2  0  0  3  0  0  0  0  0  0
  191.3170  173.9320  135.5960 C   0  0  2  0  0  3  0  0  0  0  0  0
  190.0470  177.2340  137.1400 C   0  0  2  0  0  3  0  0  0  0  0  0
  189.6460  176.4430  139.4760 O   0  0  0  0  0  1  0  0  0  0  0  0
  190.5450  176.8660  138.5060 C   0  0  0  0  0  0  0  0  0  0  0  0
  191.7760  176.9200  138.7790 O   0  0  0  0  0  0  0  0  0  0  0  0
  181.8150  177.5060  137.1160 C   0  0  1  0  0  3  0  0  0  0  0  0
  180.4390  177.0440  136.7150 C   0  0  0  0  0  3  0  0  0  0  0  0
  180.0490  176.8910  135.4930 N   0  0  0  0  0  0  0  0  0  0  0  0
  180.8900  177.1550  134.3570 C   0  0  0  0  0  1  0  0  0  0  0  0
  181.7430  178.7680  137.9840 C   0  0  0  0  0  2  0  0  0  0  0  0
  180.7440  179.7790  137.4470 C   0  0  0  0  0  2  0  0  0  0  0  0
  180.6770  180.2090  139.8830 C   0  0  0  0  0  1  0  0  0  0  0  0
  180.3400  180.7800  138.5150 C   0  0  1  0  0  3  0  0  0  0  0  0
  181.1330  182.4360  136.9730 O   0  0  0  0  0  1  0  0  0  0  0  0
  181.0860  182.0900  138.3250 C   0  0  0  0  0  2  0  0  0  0  0  0
  183.0540  176.6700  139.2140 C   0  0  0  0  0  2  0  0  0  0  0  0
  187.2350  178.7260  140.8270 C   0  0  0  0  0  3  0  0  0  0  0  0
  184.7110  178.3970  139.7170 C   0  0  0  0  0  0  0  0  0  0  0  0
  184.8450  178.6840  141.0490 C   0  0  0  0  0  0  0  0  0  0  0  0
  183.5830  178.7390  141.6830 N   0  0  0  0  0  0  0  0  0  0  0  0
  183.2750  178.1640  139.3750 C   0  0  2  0  0  3  0  0  0  0  0  0
  186.0960  178.8450  141.6450 C   0  0  0  0  0  3  0  0  0  0  0  0
  182.5440  178.6140  140.6620 C   0  0  0  0  0  2  0  0  0  0  0  0
  187.1010  178.4300  139.4560 C   0  0  0  0  0  3  0  0  0  0  0  0
  185.8270  178.2530  138.8890 C   0  0  0  0  0  3  0  0  0  0  0  0
  183.3660  178.6850  143.1220 C   0  0  0  0  0  2  0  0  0  0  0  0
  184.7090  178.8040  143.8510 C   0  0  0  0  0  2  0  0  0  0  0  0
  184.9140  177.7230  144.7190 O   0  0  0  0  0  0  0  0  0  0  0  0
  186.0510  178.0250  145.4880 C   0  0  2  0  0  3  0  0  0  0  0  0
  185.9690  179.4490  146.0350 C   0  0  0  0  0  1  0  0  0  0  0  0
  187.2390  176.6970  143.8900 O   0  0  0  0  0  1  0  0  0  0  0  0
  187.3100  177.8850  144.6290 C   0  0  2  0  0  3  0  0  0  0  0  0
  190.8760  177.0130  147.4270 C   0  0  0  0  0  3  0  0  0  0  0  0
  191.0420  177.4580  144.9650 C   0  0  0  0  0  0  0  0  0  0  0  0
  189.7820  177.7670  144.6110 C   0  0  0  0  0  3  0  0  0  0  0  0
  188.5830  177.9300  145.4860 C   0  0  2  0  0  3  0  0  0  0  0  0
  189.4430  177.3450  147.6820 C   0  0  0  0  0  2  0  0  0  0  0  0
  188.5460  176.8660  146.5650 C   0  0  0  0  0  2  0  0  0  0  0  0
  191.4940  177.1010  146.2860 N   0  0  0  0  0  0  0  0  0  0  0  0
  191.9650  177.4240  143.9720 F   0  0  0  0  0  0  0  0  0  0  0  0
  1 39  1  1  0  0  0
  2  5  1  0  0  0  0
  3  4  1  0  0  0  0
  5  8  1  6  0  0  0
  5  1  1  0  0  0  0
  5  4  1  0  0  0  0
  6  2  1  0  0  0  0
  6  3  1  0  0  0  0
  8  7  1  0  0  0  0
  9  8  2  0  0  0  0
 10  7  1  0  0  0  0
 10 11  1  0  0  0  0
 13 12  1  6  0  0  0
 13  6  1  0  0  0  0
 14 19  1  0  0  0  0
 14 20  1  0  0  0  0
 15 24  1  0  0  0  0
 16 13  1  1  0  0  0
 16 18  1  0  0  0  0
 17 22  1  6  0  0  0
 17 23  1  0  0  0  0
 18 25  1  0  0  0  0
 19 17  1  0  0  0  0
 20 24  1  0  0  0  0
 21 23  1  0  0  0  0
 21 18  1  0  0  0  0
 21 25  1  0  0  0  0
 22 16  1  0  0  0  0
 24 23  1  0  0  0  0
 25 27  1  0  0  0  0
 27 28  2  0  0  0  0
 27 26  1  0  0  0  0
 29  1  1  0  0  0  0
 29 33  1  0  0  0  0
 30 29  1  0  0  0  0
 31 30  2  0  0  0  0
 32 31  1  0  0  0  0
 34 33  1  0  0  0  0
 34 36  1  0  0  0  0
 36 35  1  0  0  0  0
 37 38  1  0  0  0  0
 38 36  1  0  0  0  0
 39 44  1  0  0  0  0
 40 45  1  0  0  0  0
 41 42  1  0  0  0  0
 42 45  2  0  0  0  0
 42 43  1  0  0  0  0
 43 49  1  0  0  0  0
 44 41  1  0  0  0  0
 44 46  1  0  0  0  0
 46 43  1  0  0  0  0
 47 40  2  0  0  0  0
 48 47  1  0  0  0  0
 48 41  2  0  0  0  0
 49 50  1  0  0  0  0
 50 51  1  0  0  0  0
 51 52  1  0  0  0  0
 52 53  1  0  0  0  0
 54 55  1  0  0  0  0
 55 59  1  0  0  0  0
 55 52  1  0  0  0  0
 56 60  1  0  0  0  0
 57 62  1  0  0  0  0
 58 57  2  0  0  0  0
 58 59  1  0  0  0  0
 59 61  1  0  0  0  0
 61 60  1  0  0  0  0
 62 56  2  0  0  0  0
 63 57  1  0  0  0  0
M  END
>  <MODEL>
9

>  <REMARK>
 VINA RESULT:      -4.3      2.931      8.680
  Name = 
  20 active torsions:
  status: ('A' for Active; 'I' for Inactive)
    1  A    between atoms: C_2  and  O_14
    2  A    between atoms: C_2  and  C_27
    3  A    between atoms: C_5  and  C_35
    4  A    between atoms: C_5  and  C_41
    5  A    between atoms: C_8  and  O_14
    6  A    between atoms: C_8  and  C_23
    7  A    between atoms: O_9  and  N_22
    8  A    between atoms: C_10  and  C_41
    9  A    between atoms: C_20  and  C_62
   10  A    between atoms: C_23  and  C_45
   11  A    between atoms: C_26  and  C_35
   12  A    between atoms: C_26  and  C_46
   13  A    between atoms: C_27  and  N_37
   14  A    between atoms: C_33  and  C_59
   15  A    between atoms: C_36  and  C_43
   16  A    between atoms: C_36  and  C_61
   17  A    between atoms: C_38  and  C_60
   18  A    between atoms: C_41  and  C_61
   19  A    between atoms: N_57  and  C_62
   20  A    between atoms: C_60  and  C_61
                            x       y       z     vdW  Elec       q    Type
                         _______ _______ _______ _____ _____    ______ ____

>  <TORSDO>
F 20

$$$$
