=
 OpenBabel10222421473D

 31 33  0  0  1  0  0  0  0  0999 V2000
  188.8630  177.3490  139.2290 C   0  0  0  0  0  2  0  0  0  0  0  0
  188.0280  177.5920  140.4590 C   0  0  0  0  0  3  0  0  0  0  0  0
  190.2750  176.4510  143.0240 N   0  0  0  0  0  0  0  0  0  0  0  0
  190.7200  176.7830  140.7300 N   0  0  0  0  0  0  0  0  0  0  0  0
  189.8410  176.8140  141.8560 C   0  0  0  0  0  0  0  0  0  0  0  0
  192.6380  176.7620  138.5040 C   0  0  0  0  0  0  0  0  0  0  0  0
  187.5860  177.5350  142.8890 C   0  0  1  0  0  3  0  0  0  0  0  0
  191.2310  177.0250  138.4210 N   0  0  0  0  0  2  0  0  0  0  0  0
  189.4280  176.4210  144.2170 C   0  0  2  0  0  3  0  0  0  0  0  0
  190.3160  177.0620  139.5230 C   0  0  0  0  0  0  0  0  0  0  0  0
  193.1970  176.5460  139.6110 O   0  0  0  0  0  0  0  0  0  0  0  0
  193.4500  176.7460  137.2600 C   0  0  0  0  0  1  0  0  0  0  0  0
  188.4730  177.3330  141.6900 C   0  0  0  0  0  0  0  0  0  0  0  0
  188.3940  177.5610  144.1950 C   0  0  2  0  0  3  0  0  0  0  0  0
  191.8410  176.6260  147.5710 C   0  0  0  0  0  1  0  0  0  0  0  0
  190.2860  176.4940  145.4070 C   0  0  0  0  0  0  0  0  0  0  0  0
  190.9890  176.5540  146.3850 C   0  0  0  0  0  0  0  0  0  0  0  0
  186.8530  178.7520  142.7560 O   0  0  0  0  0  0  0  0  0  0  0  0
  184.7640  179.2080  143.9460 C   0  0  0  0  0  3  0  0  0  0  0  0
  184.7370  178.4500  141.6470 C   0  0  0  0  0  3  0  0  0  0  0  0
  182.6540  178.9130  142.7960 C   0  0  0  0  0  0  0  0  0  0  0  0
  185.4570  178.8080  142.7910 C   0  0  0  0  0  0  0  0  0  0  0  0
  183.3400  178.4970  141.6500 C   0  0  0  0  0  3  0  0  0  0  0  0
  183.3680  179.2550  143.9480 C   0  0  0  0  0  3  0  0  0  0  0  0
  180.3570  178.2080  144.0350 O   0  0  0  0  0  1  0  0  0  0  0  0
  180.2440  178.1080  141.3210 C   0  0  0  0  0  1  0  0  0  0  0  0
  180.3120  180.5310  142.8370 O   0  0  0  0  0  0  0  0  0  0  0  0
  180.8660  178.9340  142.8110 P   0  0  2  0  0  0  0  0  0  0  0  0
  187.4360  177.4420  145.3740 C   0  0  0  0  0  2  0  0  0  0  0  0
  187.7390  177.8740  147.7890 C   0  0  0  0  0  1  0  0  0  0  0  0
  187.7550  178.5010  146.4110 C   0  0  0  0  0  2  0  0  0  0  0  0
  1 10  1  0  0  0  0
  1  2  1  0  0  0  0
  2 13  2  0  0  0  0
  3  9  1  0  0  0  0
  4  5  1  0  0  0  0
  5  3  2  0  0  0  0
  6 11  2  0  0  0  0
  7 18  1  6  0  0  0
  7 14  1  0  0  0  0
  8  6  1  0  0  0  0
  8 10  1  0  0  0  0
  9 16  1  1  0  0  0
 10  4  2  0  0  0  0
 12  6  1  0  0  0  0
 13  5  1  0  0  0  0
 13  7  1  0  0  0  0
 14  9  1  0  0  0  0
 14 29  1  1  0  0  0
 16 17  3  0  0  0  0
 17 15  1  0  0  0  0
 18 22  1  0  0  0  0
 19 24  1  0  0  0  0
 20 23  2  0  0  0  0
 20 22  1  0  0  0  0
 21 28  1  0  0  0  0
 21 24  2  0  0  0  0
 22 19  2  0  0  0  0
 23 21  1  0  0  0  0
 28 26  1  6  0  0  0
 28 27  2  0  0  0  0
 28 25  1  0  0  0  0
 29 31  1  0  0  0  0
 31 30  1  0  0  0  0
M  END
>  <MODEL>
1

>  <REMARK>
 VINA RESULT:      -8.1      0.000      0.000
  Name = 
  6 active torsions:
  status: ('A' for Active; 'I' for Inactive)
    1  A    between atoms: O_1  and  C_19
    2  A    between atoms: O_1  and  C_21
    3  A    between atoms: C_12  and  C_25
    4  A    between atoms: C_16  and  P_17
    5  A    between atoms: C_18  and  C_30
    6  A    between atoms: C_18  and  C_31
                            x       y       z     vdW  Elec       q    Type
                         _______ _______ _______ _____ _____    ______ ____

>  <TORSDO>
F 6

$$$$
=
 OpenBabel10222421473D

 31 33  0  0  1  0  0  0  0  0999 V2000
  188.6820  177.4470  143.9280 C   0  0  0  0  0  2  0  0  0  0  0  0
  188.0300  177.6630  142.5880 C   0  0  0  0  0  3  0  0  0  0  0  0
  184.6050  178.1250  143.5830 N   0  0  0  0  0  0  0  0  0  0  0  0
  186.5240  178.0110  144.9520 N   0  0  0  0  0  0  0  0  0  0  0  0
  185.8930  177.9940  143.6700 C   0  0  0  0  0  0  0  0  0  0  0  0
  187.7230  178.1470  147.6310 C   0  0  0  0  0  0  0  0  0  0  0  0
  186.1000  178.0580  141.0970 C   0  0  1  0  0  3  0  0  0  0  0  0
  188.3980  177.8380  146.4050 N   0  0  0  0  0  2  0  0  0  0  0  0
  183.8810  178.0830  142.3120 C   0  0  2  0  0  3  0  0  0  0  0  0
  187.8020  177.8070  145.1020 C   0  0  0  0  0  0  0  0  0  0  0  0
  186.4990  178.4410  147.6460 O   0  0  0  0  0  0  0  0  0  0  0  0
  188.4840  178.1230  148.9070 C   0  0  0  0  0  1  0  0  0  0  0  0
  186.7240  177.9070  142.4580 C   0  0  0  0  0  0  0  0  0  0  0  0
  184.7110  178.7110  141.1780 C   0  0  2  0  0  3  0  0  0  0  0  0
  180.2490  180.0060  142.7790 C   0  0  0  0  0  1  0  0  0  0  0  0
  182.5920  178.7660  142.4790 C   0  0  0  0  0  0  0  0  0  0  0  0
  181.5340  179.3270  142.6150 C   0  0  0  0  0  0  0  0  0  0  0  0
  186.9460  178.8390  140.2540 O   0  0  0  0  0  0  0  0  0  0  0  0
  189.0100  178.1050  139.1640 C   0  0  0  0  0  3  0  0  0  0  0  0
  186.8890  177.9840  138.0030 C   0  0  0  0  0  3  0  0  0  0  0  0
  188.9150  177.2320  136.9070 C   0  0  0  0  0  0  0  0  0  0  0  0
  187.6190  178.3090  139.1500 C   0  0  0  0  0  0  0  0  0  0  0  0
  187.5340  177.4510  136.8840 C   0  0  0  0  0  3  0  0  0  0  0  0
  189.6540  177.5720  138.0450 C   0  0  0  0  0  3  0  0  0  0  0  0
  189.6920  177.6100  134.3460 O   0  0  0  0  0  0  0  0  0  0  0  0
  188.9170  175.0690  134.9200 C   0  0  0  0  0  1  0  0  0  0  0  0
  191.3590  176.2460  135.8290 O   0  0  0  0  0  1  0  0  0  0  0  0
  189.7440  176.5890  135.4600 P   0  0  2  0  0  0  0  0  0  0  0  0
  184.0050  178.5440  139.8380 C   0  0  0  0  0  2  0  0  0  0  0  0
  182.3600  180.0750  138.8100 C   0  0  0  0  0  1  0  0  0  0  0  0
  183.8170  179.8950  139.1790 C   0  0  0  0  0  2  0  0  0  0  0  0
  1 10  1  0  0  0  0
  2  1  1  0  0  0  0
  3  5  2  0  0  0  0
  4 10  2  0  0  0  0
  5  4  1  0  0  0  0
  6 11  2  0  0  0  0
  6 12  1  0  0  0  0
  7 18  1  6  0  0  0
  7 14  1  0  0  0  0
  7 13  1  0  0  0  0
  8  6  1  0  0  0  0
  9 16  1  1  0  0  0
  9  3  1  0  0  0  0
 10  8  1  0  0  0  0
 13  2  2  0  0  0  0
 13  5  1  0  0  0  0
 14 29  1  6  0  0  0
 14  9  1  0  0  0  0
 16 17  3  0  0  0  0
 17 15  1  0  0  0  0
 20 22  2  0  0  0  0
 21 24  1  0  0  0  0
 22 19  1  0  0  0  0
 22 18  1  0  0  0  0
 23 21  2  0  0  0  0
 23 20  1  0  0  0  0
 24 19  2  0  0  0  0
 25 28  2  0  0  0  0
 28 26  1  6  0  0  0
 28 27  1  0  0  0  0
 28 21  1  0  0  0  0
 30 31  1  0  0  0  0
 31 29  1  0  0  0  0
M  END
>  <MODEL>
2

>  <REMARK>
 VINA RESULT:      -7.4      3.911      8.387
  Name = 
  6 active torsions:
  status: ('A' for Active; 'I' for Inactive)
    1  A    between atoms: O_1  and  C_19
    2  A    between atoms: O_1  and  C_21
    3  A    between atoms: C_12  and  C_25
    4  A    between atoms: C_16  and  P_17
    5  A    between atoms: C_18  and  C_30
    6  A    between atoms: C_18  and  C_31
                            x       y       z     vdW  Elec       q    Type
                         _______ _______ _______ _____ _____    ______ ____

>  <TORSDO>
F 6

$$$$
=
 OpenBabel10222421473D

 31 33  0  0  1  0  0  0  0  0999 V2000
  188.6990  177.5840  139.6160 C   0  0  0  0  0  2  0  0  0  0  0  0
  187.4340  177.8580  140.3870 C   0  0  0  0  0  3  0  0  0  0  0  0
  188.5600  177.2450  143.7470 N   0  0  0  0  0  0  0  0  0  0  0  0
  189.8490  177.3870  141.7750 N   0  0  0  0  0  0  0  0  0  0  0  0
  188.5980  177.4340  142.4640 C   0  0  0  0  0  0  0  0  0  0  0  0
  192.4840  177.3510  140.4760 C   0  0  0  0  0  0  0  0  0  0  0  0
  186.0780  178.0010  142.4480 C   0  0  1  0  0  3  0  0  0  0  0  0
  191.2090  177.4460  139.8270 N   0  0  0  0  0  2  0  0  0  0  0  0
  187.3170  177.2430  144.5190 C   0  0  2  0  0  3  0  0  0  0  0  0
  189.9340  177.4930  140.4790 C   0  0  0  0  0  0  0  0  0  0  0  0
  192.5760  177.3140  141.7310 O   0  0  0  0  0  0  0  0  0  0  0  0
  193.7190  177.2980  139.6510 C   0  0  0  0  0  1  0  0  0  0  0  0
  187.3760  177.7780  141.7180 C   0  0  0  0  0  0  0  0  0  0  0  0
  186.3050  178.2520  143.9470 C   0  0  2  0  0  3  0  0  0  0  0  0
  188.2020  178.0620  148.4760 C   0  0  0  0  0  1  0  0  0  0  0  0
  187.6320  177.5330  145.9240 C   0  0  0  0  0  0  0  0  0  0  0  0
  187.8900  177.7720  147.0770 C   0  0  0  0  0  0  0  0  0  0  0  0
  185.3820  179.1090  141.8790 O   0  0  0  0  0  0  0  0  0  0  0  0
  184.4680  179.5030  139.6430 C   0  0  0  0  0  3  0  0  0  0  0  0
  183.2000  178.2700  141.2960 C   0  0  0  0  0  3  0  0  0  0  0  0
  182.2810  178.6290  139.0830 C   0  0  0  0  0  0  0  0  0  0  0  0
  184.3600  178.9640  140.9370 C   0  0  0  0  0  0  0  0  0  0  0  0
  182.1620  178.1060  140.3750 C   0  0  0  0  0  3  0  0  0  0  0  0
  183.4300  179.3380  138.7230 C   0  0  0  0  0  3  0  0  0  0  0  0
  180.0720  177.2760  138.3110 O   0  0  0  0  0  1  0  0  0  0  0  0
  181.6080  178.1800  136.2590 C   0  0  0  0  0  1  0  0  0  0  0  0
  179.9940  179.8590  137.9170 O   0  0  0  0  0  0  0  0  0  0  0  0
  180.9350  178.4540  137.9200 P   0  0  2  0  0  0  0  0  0  0  0  0
  184.9710  178.1490  144.6740 C   0  0  0  0  0  2  0  0  0  0  0  0
  182.8240  179.3740  144.6230 C   0  0  0  0  0  1  0  0  0  0  0  0
  184.3240  179.5160  144.7700 C   0  0  0  0  0  2  0  0  0  0  0  0
  1  2  1  0  0  0  0
  1 10  1  0  0  0  0
  2 13  2  0  0  0  0
  3  9  1  0  0  0  0
  4  5  1  0  0  0  0
  5  3  2  0  0  0  0
  6 11  2  0  0  0  0
  7 18  1  6  0  0  0
  7 14  1  0  0  0  0
  8  6  1  0  0  0  0
  8 10  1  0  0  0  0
  9 16  1  1  0  0  0
 10  4  2  0  0  0  0
 12  6  1  0  0  0  0
 13  7  1  0  0  0  0
 13  5  1  0  0  0  0
 14  9  1  0  0  0  0
 14 29  1  1  0  0  0
 16 17  3  0  0  0  0
 17 15  1  0  0  0  0
 19 22  1  0  0  0  0
 21 23  2  0  0  0  0
 22 20  2  0  0  0  0
 22 18  1  0  0  0  0
 23 20  1  0  0  0  0
 24 21  1  0  0  0  0
 24 19  2  0  0  0  0
 27 28  2  0  0  0  0
 28 26  1  6  0  0  0
 28 25  1  0  0  0  0
 28 21  1  0  0  0  0
 29 31  1  0  0  0  0
 30 31  1  0  0  0  0
M  END
>  <MODEL>
3

>  <REMARK>
 VINA RESULT:      -6.9      2.346      3.219
  Name = 
  6 active torsions:
  status: ('A' for Active; 'I' for Inactive)
    1  A    between atoms: O_1  and  C_19
    2  A    between atoms: O_1  and  C_21
    3  A    between atoms: C_12  and  C_25
    4  A    between atoms: C_16  and  P_17
    5  A    between atoms: C_18  and  C_30
    6  A    between atoms: C_18  and  C_31
                            x       y       z     vdW  Elec       q    Type
                         _______ _______ _______ _____ _____    ______ ____

>  <TORSDO>
F 6

$$$$
=
 OpenBabel10222421473D

 31 33  0  0  1  0  0  0  0  0999 V2000
  188.8110  178.1620  139.8770 C   0  0  0  0  0  2  0  0  0  0  0  0
  187.8450  178.1710  141.0330 C   0  0  0  0  0  3  0  0  0  0  0  0
  184.7810  178.9770  139.3310 N   0  0  0  0  0  0  0  0  0  0  0  0
  186.8740  178.4220  138.3920 N   0  0  0  0  0  0  0  0  0  0  0  0
  186.0210  178.6420  139.5170 C   0  0  0  0  0  0  0  0  0  0  0  0
  188.5140  177.9120  136.0080 C   0  0  0  0  0  0  0  0  0  0  0  0
  185.6180  178.4660  142.0630 C   0  0  1  0  0  3  0  0  0  0  0  0
  188.9640  177.9400  137.3690 N   0  0  0  0  0  2  0  0  0  0  0  0
  183.8540  179.2540  140.4290 C   0  0  2  0  0  3  0  0  0  0  0  0
  188.1440  178.1600  138.5230 C   0  0  0  0  0  0  0  0  0  0  0  0
  187.2990  178.0750  135.7200 O   0  0  0  0  0  0  0  0  0  0  0  0
  189.4990  177.6840  134.9200 C   0  0  0  0  0  1  0  0  0  0  0  0
  186.5410  178.4070  140.8750 C   0  0  0  0  0  0  0  0  0  0  0  0
  184.1440  178.3530  141.6430 C   0  0  2  0  0  3  0  0  0  0  0  0
  179.9820  178.7580  139.0630 C   0  0  0  0  0  1  0  0  0  0  0  0
  182.4800  179.0790  139.9440 C   0  0  0  0  0  0  0  0  0  0  0  0
  181.3510  178.9340  139.5450 C   0  0  0  0  0  0  0  0  0  0  0  0
  185.9350  177.4200  142.9800 O   0  0  0  0  0  0  0  0  0  0  0  0
  187.5740  178.1670  144.6370 C   0  0  0  0  0  3  0  0  0  0  0  0
  188.0600  176.3030  143.1700 C   0  0  0  0  0  3  0  0  0  0  0  0
  189.6930  177.0100  144.8150 C   0  0  0  0  0  0  0  0  0  0  0  0
  187.1810  177.3030  143.6000 C   0  0  0  0  0  0  0  0  0  0  0  0
  189.3130  176.1590  143.7720 C   0  0  0  0  0  3  0  0  0  0  0  0
  188.8270  178.0220  145.2380 C   0  0  0  0  0  3  0  0  0  0  0  0
  192.0070  175.6260  145.0050 O   0  0  0  0  0  0  0  0  0  0  0  0
  191.1380  176.6850  147.3520 C   0  0  0  0  0  1  0  0  0  0  0  0
  192.2390  178.2220  145.2080 O   0  0  0  0  0  1  0  0  0  0  0  0
  191.3130  176.8500  145.5550 P   0  0  2  0  0  0  0  0  0  0  0  0
  183.2620  178.7380  142.8240 C   0  0  0  0  0  2  0  0  0  0  0  0
  183.7820  178.9620  145.2300 C   0  0  0  0  0  1  0  0  0  0  0  0
  184.0710  179.5080  143.8470 C   0  0  0  0  0  2  0  0  0  0  0  0
  1  2  1  0  0  0  0
  3  5  2  0  0  0  0
  3  9  1  0  0  0  0
  4 10  2  0  0  0  0
  4  5  1  0  0  0  0
  5 13  1  0  0  0  0
  6  8  1  0  0  0  0
  7 18  1  1  0  0  0
  8 10  1  0  0  0  0
  9 16  1  6  0  0  0
  9 14  1  0  0  0  0
 10  1  1  0  0  0  0
 11  6  2  0  0  0  0
 12  6  1  0  0  0  0
 13  2  2  0  0  0  0
 13  7  1  0  0  0  0
 14  7  1  0  0  0  0
 14 29  1  1  0  0  0
 15 17  1  0  0  0  0
 17 16  3  0  0  0  0
 18 22  1  0  0  0  0
 19 24  1  0  0  0  0
 20 22  1  0  0  0  0
 20 23  2  0  0  0  0
 21 24  2  0  0  0  0
 21 28  1  0  0  0  0
 22 19  2  0  0  0  0
 23 21  1  0  0  0  0
 25 28  2  0  0  0  0
 27 28  1  0  0  0  0
 28 26  1  1  0  0  0
 29 31  1  0  0  0  0
 31 30  1  0  0  0  0
M  END
>  <MODEL>
4

>  <REMARK>
 VINA RESULT:      -6.6      3.503      7.134
  Name = 
  6 active torsions:
  status: ('A' for Active; 'I' for Inactive)
    1  A    between atoms: O_1  and  C_19
    2  A    between atoms: O_1  and  C_21
    3  A    between atoms: C_12  and  C_25
    4  A    between atoms: C_16  and  P_17
    5  A    between atoms: C_18  and  C_30
    6  A    between atoms: C_18  and  C_31
                            x       y       z     vdW  Elec       q    Type
                         _______ _______ _______ _____ _____    ______ ____

>  <TORSDO>
F 6

$$$$
=
 OpenBabel10222421473D

 31 33  0  0  1  0  0  0  0  0999 V2000
  188.0560  177.5450  143.4410 C   0  0  0  0  0  2  0  0  0  0  0  0
  188.1180  177.6600  141.9400 C   0  0  0  0  0  3  0  0  0  0  0  0
  184.7100  178.5370  141.1990 N   0  0  0  0  0  0  0  0  0  0  0  0
  185.7640  178.4120  143.3080 N   0  0  0  0  0  0  0  0  0  0  0  0
  185.7880  178.3020  141.8830 C   0  0  0  0  0  0  0  0  0  0  0  0
  185.6210  178.7500  146.2230 C   0  0  0  0  0  0  0  0  0  0  0  0
  187.1480  178.0490  139.7020 C   0  0  1  0  0  3  0  0  0  0  0  0
  186.7310  178.2430  145.4720 N   0  0  0  0  0  2  0  0  0  0  0  0
  184.6440  178.4120  139.7430 C   0  0  2  0  0  3  0  0  0  0  0  0
  186.7950  178.1140  144.0460 C   0  0  0  0  0  0  0  0  0  0  0  0
  184.5740  179.1510  145.6490 O   0  0  0  0  0  0  0  0  0  0  0  0
  185.7090  178.8070  147.7050 C   0  0  0  0  0  1  0  0  0  0  0  0
  187.0590  178.0020  141.2030 C   0  0  0  0  0  0  0  0  0  0  0  0
  185.9740  178.8280  139.0880 C   0  0  2  0  0  3  0  0  0  0  0  0
  181.4880  180.6920  138.3490 C   0  0  0  0  0  1  0  0  0  0  0  0
  183.5230  179.2210  139.2490 C   0  0  0  0  0  0  0  0  0  0  0  0
  182.6030  179.8860  138.8430 C   0  0  0  0  0  0  0  0  0  0  0  0
  188.3790  178.6500  139.3030 O   0  0  0  0  0  0  0  0  0  0  0  0
  190.5010  177.4640  139.5850 C   0  0  0  0  0  3  0  0  0  0  0  0
  189.4660  177.6420  137.4040 C   0  0  0  0  0  3  0  0  0  0  0  0
  191.5580  176.4460  137.6590 C   0  0  0  0  0  0  0  0  0  0  0  0
  189.4470  177.9190  138.7750 C   0  0  0  0  0  0  0  0  0  0  0  0
  190.5190  176.9120  136.8470 C   0  0  0  0  0  3  0  0  0  0  0  0
  191.5530  176.7340  139.0270 C   0  0  0  0  0  3  0  0  0  0  0  0
  194.2310  176.1150  137.4420 O   0  0  0  0  0  1  0  0  0  0  0  0
  192.8590  175.7040  135.1320 C   0  0  0  0  0  1  0  0  0  0  0  0
  192.8230  173.9130  137.3610 O   0  0  0  0  0  0  0  0  0  0  0  0
  192.9250  175.5480  136.9380 P   0  0  2  0  0  0  0  0  0  0  0  0
  185.9390  178.5700  137.5870 C   0  0  0  0  0  2  0  0  0  0  0  0
  185.0430  176.8350  136.0710 C   0  0  0  0  0  1  0  0  0  0  0  0
  185.8670  177.0810  137.3170 C   0  0  0  0  0  2  0  0  0  0  0  0
  1 10  1  0  0  0  0
  2  1  1  0  0  0  0
  3  5  2  0  0  0  0
  4 10  2  0  0  0  0
  5  4  1  0  0  0  0
  6 12  1  0  0  0  0
  7 18  1  1  0  0  0
  7 13  1  0  0  0  0
  8  6  1  0  0  0  0
  9 16  1  6  0  0  0
  9  3  1  0  0  0  0
 10  8  1  0  0  0  0
 11  6  2  0  0  0  0
 13  5  1  0  0  0  0
 13  2  2  0  0  0  0
 14 29  1  6  0  0  0
 14  7  1  0  0  0  0
 14  9  1  0  0  0  0
 15 17  1  0  0  0  0
 17 16  3  0  0  0  0
 20 22  1  0  0  0  0
 21 24  2  0  0  0  0
 22 18  1  0  0  0  0
 22 19  2  0  0  0  0
 23 20  2  0  0  0  0
 23 21  1  0  0  0  0
 24 19  1  0  0  0  0
 28 26  1  6  0  0  0
 28 27  2  0  0  0  0
 28 25  1  0  0  0  0
 28 21  1  0  0  0  0
 30 31  1  0  0  0  0
 31 29  1  0  0  0  0
M  END
>  <MODEL>
5

>  <REMARK>
 VINA RESULT:      -6.3      4.046      9.411
  Name = 
  6 active torsions:
  status: ('A' for Active; 'I' for Inactive)
    1  A    between atoms: O_1  and  C_19
    2  A    between atoms: O_1  and  C_21
    3  A    between atoms: C_12  and  C_25
    4  A    between atoms: C_16  and  P_17
    5  A    between atoms: C_18  and  C_30
    6  A    between atoms: C_18  and  C_31
                            x       y       z     vdW  Elec       q    Type
                         _______ _______ _______ _____ _____    ______ ____

>  <TORSDO>
F 6

$$$$
=
 OpenBabel10222421473D

 31 33  0  0  1  0  0  0  0  0999 V2000
  189.6170  177.3190  139.3130 C   0  0  0  0  0  2  0  0  0  0  0  0
  188.6590  177.5550  140.4510 C   0  0  0  0  0  3  0  0  0  0  0  0
  185.8900  179.0310  138.6930 N   0  0  0  0  0  0  0  0  0  0  0  0
  187.8170  178.0070  137.7930 N   0  0  0  0  0  0  0  0  0  0  0  0
  187.0170  178.4220  138.9020 C   0  0  0  0  0  0  0  0  0  0  0  0
  189.3370  177.1220  135.4390 C   0  0  0  0  0  0  0  0  0  0  0  0
  186.5420  178.3570  141.4400 C   0  0  1  0  0  3  0  0  0  0  0  0
  189.7580  177.0540  136.8080 N   0  0  0  0  0  2  0  0  0  0  0  0
  185.0320  179.5180  139.7740 C   0  0  2  0  0  3  0  0  0  0  0  0
  188.9900  177.4620  137.9460 C   0  0  0  0  0  0  0  0  0  0  0  0
  188.1960  177.5570  135.1290 O   0  0  0  0  0  0  0  0  0  0  0  0
  190.2620  176.6690  134.3690 C   0  0  0  0  0  1  0  0  0  0  0  0
  187.4460  178.0820  140.2690 C   0  0  0  0  0  0  0  0  0  0  0  0
  185.0880  178.5810  140.9950 C   0  0  2  0  0  3  0  0  0  0  0  0
  181.1750  179.9170  138.3360 C   0  0  0  0  0  1  0  0  0  0  0  0
  183.6630  179.6590  139.2640 C   0  0  0  0  0  0  0  0  0  0  0  0
  182.5380  179.7750  138.8460 C   0  0  0  0  0  0  0  0  0  0  0  0
  186.5950  177.2720  142.3650 O   0  0  0  0  0  0  0  0  0  0  0  0
  188.5660  177.2390  143.8150 C   0  0  0  0  0  3  0  0  0  0  0  0
  186.3600  177.6190  144.7370 C   0  0  0  0  0  3  0  0  0  0  0  0
  188.2970  177.6110  146.1920 C   0  0  0  0  0  0  0  0  0  0  0  0
  187.1790  177.3770  143.6300 C   0  0  0  0  0  0  0  0  0  0  0  0
  186.9150  177.7320  146.0140 C   0  0  0  0  0  3  0  0  0  0  0  0
  189.1200  177.3520  145.0920 C   0  0  0  0  0  3  0  0  0  0  0  0
  189.1710  179.1640  148.2250 O   0  0  0  0  0  0  0  0  0  0  0  0
  190.6180  176.8950  147.8450 C   0  0  0  0  0  1  0  0  0  0  0  0
  187.9790  176.9500  148.9430 O   0  0  0  0  0  1  0  0  0  0  0  0
  189.0010  177.7140  147.8330 P   0  0  2  0  0  0  0  0  0  0  0  0
  184.2970  179.1650  142.1580 C   0  0  0  0  0  2  0  0  0  0  0  0
  182.1320  179.0800  143.3490 C   0  0  0  0  0  1  0  0  0  0  0  0
  183.0560  178.3320  142.4120 C   0  0  0  0  0  2  0  0  0  0  0  0
  1  2  1  0  0  0  0
  3  5  2  0  0  0  0
  3  9  1  0  0  0  0
  4 10  2  0  0  0  0
  4  5  1  0  0  0  0
  5 13  1  0  0  0  0
  6  8  1  0  0  0  0
  7 18  1  1  0  0  0
  8 10  1  0  0  0  0
  9 16  1  6  0  0  0
  9 14  1  0  0  0  0
 10  1  1  0  0  0  0
 11  6  2  0  0  0  0
 12  6  1  0  0  0  0
 13  2  2  0  0  0  0
 13  7  1  0  0  0  0
 14  7  1  0  0  0  0
 14 29  1  1  0  0  0
 15 17  1  0  0  0  0
 17 16  3  0  0  0  0
 18 22  1  0  0  0  0
 19 24  1  0  0  0  0
 20 23  2  0  0  0  0
 21 28  1  0  0  0  0
 22 19  2  0  0  0  0
 22 20  1  0  0  0  0
 23 21  1  0  0  0  0
 24 21  2  0  0  0  0
 28 26  1  1  0  0  0
 28 25  2  0  0  0  0
 28 27  1  0  0  0  0
 29 31  1  0  0  0  0
 31 30  1  0  0  0  0
M  END
>  <MODEL>
6

>  <REMARK>
 VINA RESULT:      -6.3      3.404      6.755
  Name = 
  6 active torsions:
  status: ('A' for Active; 'I' for Inactive)
    1  A    between atoms: O_1  and  C_19
    2  A    between atoms: O_1  and  C_21
    3  A    between atoms: C_12  and  C_25
    4  A    between atoms: C_16  and  P_17
    5  A    between atoms: C_18  and  C_30
    6  A    between atoms: C_18  and  C_31
                            x       y       z     vdW  Elec       q    Type
                         _______ _______ _______ _____ _____    ______ ____

>  <TORSDO>
F 6

$$$$
=
 OpenBabel10222421473D

 31 33  0  0  1  0  0  0  0  0999 V2000
  189.8720  176.7710  143.8810 C   0  0  0  0  0  2  0  0  0  0  0  0
  189.8950  176.8870  142.3790 C   0  0  0  0  0  3  0  0  0  0  0  0
  186.5240  177.9670  141.7450 N   0  0  0  0  0  0  0  0  0  0  0  0
  187.6330  177.7740  143.8200 N   0  0  0  0  0  0  0  0  0  0  0  0
  187.6060  177.6670  142.3950 C   0  0  0  0  0  0  0  0  0  0  0  0
  187.6000  178.1110  146.7380 C   0  0  0  0  0  0  0  0  0  0  0  0
  188.8810  177.3400  140.1720 C   0  0  1  0  0  3  0  0  0  0  0  0
  188.6550  177.5410  145.9530 N   0  0  0  0  0  2  0  0  0  0  0  0
  186.4060  177.8510  140.2910 C   0  0  2  0  0  3  0  0  0  0  0  0
  188.6660  177.4120  144.5260 C   0  0  0  0  0  0  0  0  0  0  0  0
  186.5620  178.5760  146.1970 O   0  0  0  0  0  0  0  0  0  0  0  0
  187.7370  178.1580  148.2170 C   0  0  0  0  0  1  0  0  0  0  0  0
  188.8360  177.2940  141.6760 C   0  0  0  0  0  0  0  0  0  0  0  0
  187.7370  178.1890  139.5960 C   0  0  2  0  0  3  0  0  0  0  0  0
  183.3470  180.3180  139.0030 C   0  0  0  0  0  1  0  0  0  0  0  0
  185.3210  178.7270  139.8330 C   0  0  0  0  0  0  0  0  0  0  0  0
  184.4290  179.4460  139.4570 C   0  0  0  0  0  0  0  0  0  0  0  0
  190.1330  177.8670  139.7360 O   0  0  0  0  0  0  0  0  0  0  0  0
  192.5030  177.3410  139.4340 C   0  0  0  0  0  3  0  0  0  0  0  0
  190.7940  175.9880  138.3810 C   0  0  0  0  0  3  0  0  0  0  0  0
  193.1340  175.4340  138.0820 C   0  0  0  0  0  0  0  0  0  0  0  0
  191.1450  177.0720  139.1920 C   0  0  0  0  0  0  0  0  0  0  0  0
  191.7840  175.1740  137.8240 C   0  0  0  0  0  3  0  0  0  0  0  0
  193.4930  176.5260  138.8770 C   0  0  0  0  0  3  0  0  0  0  0  0
  195.5110  175.2910  136.8040 O   0  0  0  0  0  0  0  0  0  0  0  0
  193.6780  173.4670  135.9690 C   0  0  0  0  0  1  0  0  0  0  0  0
  195.0290  173.3490  138.4860 O   0  0  0  0  0  1  0  0  0  0  0  0
  194.4000  174.4160  137.3350 P   0  0  2  0  0  0  0  0  0  0  0  0
  187.6410  177.9380  138.0960 C   0  0  0  0  0  2  0  0  0  0  0  0
  189.0950  178.2450  136.1210 C   0  0  0  0  0  1  0  0  0  0  0  0
  188.5190  178.9200  137.3480 C   0  0  0  0  0  2  0  0  0  0  0  0
  1 10  1  0  0  0  0
  2  1  1  0  0  0  0
  3  5  2  0  0  0  0
  4 10  2  0  0  0  0
  5  4  1  0  0  0  0
  6 12  1  0  0  0  0
  7 18  1  1  0  0  0
  7 13  1  0  0  0  0
  8  6  1  0  0  0  0
  9 16  1  6  0  0  0
  9  3  1  0  0  0  0
 10  8  1  0  0  0  0
 11  6  2  0  0  0  0
 13  2  2  0  0  0  0
 13  5  1  0  0  0  0
 14 29  1  6  0  0  0
 14  7  1  0  0  0  0
 14  9  1  0  0  0  0
 15 17  1  0  0  0  0
 17 16  3  0  0  0  0
 20 22  2  0  0  0  0
 21 24  1  0  0  0  0
 22 19  1  0  0  0  0
 22 18  1  0  0  0  0
 23 21  2  0  0  0  0
 23 20  1  0  0  0  0
 24 19  2  0  0  0  0
 25 28  2  0  0  0  0
 28 26  1  6  0  0  0
 28 21  1  0  0  0  0
 28 27  1  0  0  0  0
 30 31  1  0  0  0  0
 31 29  1  0  0  0  0
M  END
>  <MODEL>
7

>  <REMARK>
 VINA RESULT:      -6.3      4.175      9.476
  Name = 
  6 active torsions:
  status: ('A' for Active; 'I' for Inactive)
    1  A    between atoms: O_1  and  C_19
    2  A    between atoms: O_1  and  C_21
    3  A    between atoms: C_12  and  C_25
    4  A    between atoms: C_16  and  P_17
    5  A    between atoms: C_18  and  C_30
    6  A    between atoms: C_18  and  C_31
                            x       y       z     vdW  Elec       q    Type
                         _______ _______ _______ _____ _____    ______ ____

>  <TORSDO>
F 6

$$$$
=
 OpenBabel10222421473D

 31 33  0  0  1  0  0  0  0  0999 V2000
  189.0190  176.3480  136.5580 C   0  0  0  0  0  2  0  0  0  0  0  0
  188.1490  176.9300  137.6410 C   0  0  0  0  0  3  0  0  0  0  0  0
  190.4930  177.0810  140.3640 N   0  0  0  0  0  0  0  0  0  0  0  0
  190.9160  176.5920  138.0940 N   0  0  0  0  0  0  0  0  0  0  0  0
  190.0290  176.9350  139.1610 C   0  0  0  0  0  0  0  0  0  0  0  0
  192.8430  175.9710  135.9650 C   0  0  0  0  0  0  0  0  0  0  0  0
  187.6950  177.7230  139.9360 C   0  0  1  0  0  3  0  0  0  0  0  0
  191.4160  176.0230  135.8420 N   0  0  0  0  0  2  0  0  0  0  0  0
  189.6450  177.3970  141.5150 C   0  0  2  0  0  3  0  0  0  0  0  0
  190.4930  176.3580  136.8850 C   0  0  0  0  0  0  0  0  0  0  0  0
  193.4140  176.2440  137.0540 O   0  0  0  0  0  0  0  0  0  0  0  0
  193.6630  175.5900  134.7860 C   0  0  0  0  0  1  0  0  0  0  0  0
  188.6110  177.1970  138.8640 C   0  0  0  0  0  0  0  0  0  0  0  0
  188.4820  178.3220  141.1120 C   0  0  2  0  0  3  0  0  0  0  0  0
  191.9870  179.1000  144.4680 C   0  0  0  0  0  1  0  0  0  0  0  0
  190.4760  178.0010  142.5630 C   0  0  0  0  0  0  0  0  0  0  0  0
  191.1590  178.4970  143.4240 C   0  0  0  0  0  0  0  0  0  0  0  0
  186.8240  178.7140  139.3920 O   0  0  0  0  0  0  0  0  0  0  0  0
  184.8040  178.8400  140.7680 C   0  0  0  0  0  3  0  0  0  0  0  0
  184.6540  178.4150  138.3900 C   0  0  0  0  0  3  0  0  0  0  0  0
  182.6370  178.5540  139.7270 C   0  0  0  0  0  0  0  0  0  0  0  0
  185.4340  178.6600  139.5250 C   0  0  0  0  0  0  0  0  0  0  0  0
  183.2610  178.3570  138.4910 C   0  0  0  0  0  3  0  0  0  0  0  0
  183.4120  178.7830  140.8680 C   0  0  0  0  0  3  0  0  0  0  0  0
  180.4690  177.0530  140.3170 O   0  0  0  0  0  0  0  0  0  0  0  0
  180.1130  178.7700  138.2400 C   0  0  0  0  0  1  0  0  0  0  0  0
  180.2930  179.5770  140.9780 O   0  0  0  0  0  1  0  0  0  0  0  0
  180.8580  178.4400  139.8600 P   0  0  2  0  0  0  0  0  0  0  0  0
  187.5340  178.5380  142.2850 C   0  0  0  0  0  2  0  0  0  0  0  0
  186.5760  177.5350  144.3310 C   0  0  0  0  0  1  0  0  0  0  0  0
  187.4430  177.2740  143.1170 C   0  0  0  0  0  2  0  0  0  0  0  0
  1 10  1  0  0  0  0
  1  2  1  0  0  0  0
  2 13  2  0  0  0  0
  3  9  1  0  0  0  0
  4  5  1  0  0  0  0
  5  3  2  0  0  0  0
  6 11  2  0  0  0  0
  7 18  1  6  0  0  0
  7 14  1  0  0  0  0
  8  6  1  0  0  0  0
  8 10  1  0  0  0  0
  9 16  1  1  0  0  0
 10  4  2  0  0  0  0
 12  6  1  0  0  0  0
 13  5  1  0  0  0  0
 13  7  1  0  0  0  0
 14  9  1  0  0  0  0
 14 29  1  1  0  0  0
 16 17  3  0  0  0  0
 17 15  1  0  0  0  0
 18 22  1  0  0  0  0
 19 24  1  0  0  0  0
 20 23  2  0  0  0  0
 20 22  1  0  0  0  0
 21 28  1  0  0  0  0
 21 24  2  0  0  0  0
 22 19  2  0  0  0  0
 23 21  1  0  0  0  0
 28 26  1  6  0  0  0
 28 25  2  0  0  0  0
 28 27  1  0  0  0  0
 29 31  1  0  0  0  0
 31 30  1  0  0  0  0
M  END
>  <MODEL>
8

>  <REMARK>
 VINA RESULT:      -6.1      2.298      3.090
  Name = 
  6 active torsions:
  status: ('A' for Active; 'I' for Inactive)
    1  A    between atoms: O_1  and  C_19
    2  A    between atoms: O_1  and  C_21
    3  A    between atoms: C_12  and  C_25
    4  A    between atoms: C_16  and  P_17
    5  A    between atoms: C_18  and  C_30
    6  A    between atoms: C_18  and  C_31
                            x       y       z     vdW  Elec       q    Type
                         _______ _______ _______ _____ _____    ______ ____

>  <TORSDO>
F 6

$$$$
=
 OpenBabel10222421473D

 31 33  0  0  1  0  0  0  0  0999 V2000
  187.3700  177.2030  136.1710 C   0  0  0  0  0  2  0  0  0  0  0  0
  188.2840  177.1770  137.3680 C   0  0  0  0  0  3  0  0  0  0  0  0
  186.1140  178.5450  139.8890 N   0  0  0  0  0  0  0  0  0  0  0  0
  185.5660  177.8740  137.6930 N   0  0  0  0  0  0  0  0  0  0  0  0
  186.5050  178.0470  138.7560 C   0  0  0  0  0  0  0  0  0  0  0  0
  183.5330  177.4850  135.6080 C   0  0  0  0  0  0  0  0  0  0  0  0
  188.8520  177.5950  139.7360 C   0  0  1  0  0  3  0  0  0  0  0  0
  184.9460  177.2860  135.4750 N   0  0  0  0  0  2  0  0  0  0  0  0
  187.0200  178.7850  141.0130 C   0  0  2  0  0  3  0  0  0  0  0  0
  185.9210  177.4510  136.5130 C   0  0  0  0  0  0  0  0  0  0  0  0
  183.0220  177.8230  136.7090 O   0  0  0  0  0  0  0  0  0  0  0  0
  182.6550  177.2840  134.4260 C   0  0  0  0  0  1  0  0  0  0  0  0
  187.8910  177.5810  138.5780 C   0  0  0  0  0  0  0  0  0  0  0  0
  188.1190  177.7080  141.0820 C   0  0  2  0  0  3  0  0  0  0  0  0
  184.8090  178.9240  144.5050 C   0  0  0  0  0  1  0  0  0  0  0  0
  186.2350  178.8340  142.2520 C   0  0  0  0  0  0  0  0  0  0  0  0
  185.5900  178.8740  143.2700 C   0  0  0  0  0  0  0  0  0  0  0  0
  189.6490  176.4120  139.7250 O   0  0  0  0  0  0  0  0  0  0  0  0
  190.8110  175.3610  137.8460 C   0  0  0  0  0  3  0  0  0  0  0  0
  191.9170  177.0320  139.2040 C   0  0  0  0  0  3  0  0  0  0  0  0
  193.0850  176.0200  137.3370 C   0  0  0  0  0  0  0  0  0  0  0  0
  190.7830  176.2640  138.9220 C   0  0  0  0  0  0  0  0  0  0  0  0
  193.0660  176.9080  138.4180 C   0  0  0  0  0  3  0  0  0  0  0  0
  191.9600  175.2380  137.0600 C   0  0  0  0  0  3  0  0  0  0  0  0
  195.0240  177.1860  135.8580 O   0  0  0  0  0  0  0  0  0  0  0  0
  194.2220  174.7560  134.9420 C   0  0  0  0  0  1  0  0  0  0  0  0
  195.7930  175.1450  137.2990 O   0  0  0  0  0  1  0  0  0  0  0  0
  194.5690  175.8340  136.3580 P   0  0  2  0  0  0  0  0  0  0  0  0
  189.1300  178.0400  142.1720 C   0  0  0  0  0  2  0  0  0  0  0  0
  189.1440  177.6060  144.6050 C   0  0  0  0  0  1  0  0  0  0  0  0
  189.1200  176.9610  143.2350 C   0  0  0  0  0  2  0  0  0  0  0  0
  1 10  1  0  0  0  0
  1  2  1  0  0  0  0
  2 13  2  0  0  0  0
  3  9  1  0  0  0  0
  4  5  1  0  0  0  0
  5  3  2  0  0  0  0
  6 11  2  0  0  0  0
  7 18  1  1  0  0  0
  7 14  1  0  0  0  0
  8  6  1  0  0  0  0
  8 10  1  0  0  0  0
  9 14  1  0  0  0  0
  9 16  1  1  0  0  0
 10  4  2  0  0  0  0
 12  6  1  0  0  0  0
 13  5  1  0  0  0  0
 13  7  1  0  0  0  0
 14 29  1  1  0  0  0
 16 17  3  0  0  0  0
 17 15  1  0  0  0  0
 19 22  1  0  0  0  0
 21 23  2  0  0  0  0
 22 20  2  0  0  0  0
 22 18  1  0  0  0  0
 23 20  1  0  0  0  0
 24 21  1  0  0  0  0
 24 19  2  0  0  0  0
 25 28  2  0  0  0  0
 28 26  1  6  0  0  0
 28 27  1  0  0  0  0
 28 21  1  0  0  0  0
 29 31  1  0  0  0  0
 31 30  1  0  0  0  0
M  END
>  <MODEL>
9

>  <REMARK>
 VINA RESULT:      -6.1      4.413      8.860
  Name = 
  6 active torsions:
  status: ('A' for Active; 'I' for Inactive)
    1  A    between atoms: O_1  and  C_19
    2  A    between atoms: O_1  and  C_21
    3  A    between atoms: C_12  and  C_25
    4  A    between atoms: C_16  and  P_17
    5  A    between atoms: C_18  and  C_30
    6  A    between atoms: C_18  and  C_31
                            x       y       z     vdW  Elec       q    Type
                         _______ _______ _______ _____ _____    ______ ____

>  <TORSDO>
F 6

$$$$
