=
 OpenBabel10232410463D

 35 43  0  0  1  0  0  0  0  0999 V2000
  188.7770  177.6070  144.0140 C   0  0  0  0  0  0  0  0  0  0  0  0
  189.7440  176.9450  144.8960 C   0  0  0  0  0  0  0  0  0  0  0  0
  187.5560  178.0790  144.3690 C   0  0  0  0  0  3  0  0  0  0  0  0
  192.0030  178.7980  143.9100 C   0  0  2  0  0  3  0  0  0  0  0  0
  191.5000  177.7700  141.7290 O   0  0  0  0  0  0  0  0  0  0  0  0
  190.0130  177.1570  143.5410 C   0  0  2  0  0  0  0  0  0  0  0  0
  187.3190  177.8420  145.7740 C   0  0  0  0  0  0  0  0  0  0  0  0
  188.3010  177.1780  146.6560 C   0  0  0  0  0  0  0  0  0  0  0  0
  190.9900  178.1560  142.9880 C   0  0  1  0  0  0  0  0  0  0  0  0
  191.3270  179.9020  144.7020 C   0  0  0  0  0  2  0  0  0  0  0  0
  190.0020  176.1010  142.5470 C   0  0  0  0  0  0  0  0  0  0  0  0
  190.9090  179.6410  143.2660 C   0  0  1  0  0  3  0  0  0  0  0  0
  190.9080  176.5040  141.4220 C   0  0  1  0  0  3  0  0  0  0  0  0
  189.5830  176.6910  146.2180 C   0  0  0  0  0  3  0  0  0  0  0  0
  189.3960  175.0440  142.6240 O   0  0  0  0  0  0  0  0  0  0  0  0
  189.8520  178.2150  138.3220 C   0  0  2  0  0  3  0  0  0  0  0  0
  190.6190  177.0970  137.5980 C   0  0  1  0  0  3  0  0  0  0  0  0
  190.9050  177.4070  139.0750 C   0  0  2  0  0  3  0  0  0  0  0  0
  190.1510  176.5580  140.0950 C   0  0  2  0  0  3  0  0  0  0  0  0
  188.7690  177.1660  140.2380 C   0  0  0  0  0  2  0  0  0  0  0  0
  188.4960  177.8280  138.9100 C   0  0  0  0  0  2  0  0  0  0  0  0
  188.5090  173.4650  136.6150 C   0  0  0  0  0  3  0  0  0  0  0  0
  188.5680  175.8810  136.7620 C   0  0  0  0  0  3  0  0  0  0  0  0
  190.4830  174.5770  137.4680 C   0  0  0  0  0  3  0  0  0  0  0  0
  189.8560  175.8230  137.3120 C   0  0  0  0  0  0  0  0  0  0  0  0
  189.8060  173.4010  137.1310 C   0  0  0  0  0  3  0  0  0  0  0  0
  187.8920  174.7040  136.4250 C   0  0  0  0  0  3  0  0  0  0  0  0
  184.8840  178.5820  145.6340 C   0  0  0  0  0  0  0  0  0  0  0  0
  183.6650  179.0130  145.9990 N   0  0  0  0  0  0  0  0  0  0  0  0
  183.2210  178.9980  144.6260 C   0  0  0  0  0  2  0  0  0  0  0  0
  186.0790  178.2730  146.3560 N   0  0  0  0  0  2  0  0  0  0  0  0
  184.4730  178.5490  144.1890 C   0  0  0  0  0  2  0  0  0  0  0  0
  187.9580  176.9630  148.0930 C   0  0  0  0  0  2  0  0  0  0  0  0
  188.2910  178.1370  148.8530 N   0  0  0  0  0  0  0  0  0  0  0  0
  189.4750  178.5020  148.9470 N   0  0  0  0  0  2  0  0  0  0  0  0
  1  3  2  0  0  0  0
  1  2  1  0  0  0  0
  2 14  2  0  0  0  0
  3  7  1  0  0  0  0
  4 10  1  1  0  0  0
  5  9  1  0  0  0  0
  6 11  1  6  0  0  0
  6  1  1  0  0  0  0
  6  2  1  0  0  0  0
  7 31  1  0  0  0  0
  7  8  2  0  0  0  0
  8 33  1  0  0  0  0
  9 12  1  0  0  0  0
  9  6  1  0  0  0  0
  9  4  1  0  0  0  0
 11 15  2  0  0  0  0
 12  4  1  0  0  0  0
 12 10  1  1  0  0  0
 13  5  1  1  0  0  0
 13 11  1  0  0  0  0
 14  8  1  0  0  0  0
 16 21  1  1  0  0  0
 16 18  1  0  0  0  0
 17 25  1  1  0  0  0
 17 16  1  0  0  0  0
 17 18  1  0  0  0  0
 18 19  1  0  0  0  0
 19 20  1  0  0  0  0
 19 13  1  0  0  0  0
 21 20  1  0  0  0  0
 22 26  1  0  0  0  0
 23 25  2  0  0  0  0
 25 24  1  0  0  0  0
 26 24  2  0  0  0  0
 27 22  2  0  0  0  0
 27 23  1  0  0  0  0
 28 29  2  0  0  0  0
 28 31  1  0  0  0  0
 30 29  1  0  0  0  0
 32 30  1  0  0  0  0
 32 28  1  0  0  0  0
 33 34  1  0  0  0  0
 34 35  2  0  0  0  0
M  END
>  <MODEL>
1

>  <REMARK>
 VINA RESULT:      -8.3      0.000      0.000
  Name = 
  5 active torsions:
  status: ('A' for Active; 'I' for Inactive)
    1  A    between atoms: C_11  and  C_25
    2  A    between atoms: C_13  and  N_31
    3  A    between atoms: C_15  and  C_27
    4  A    between atoms: C_16  and  C_17
    5  A    between atoms: C_17  and  N_28
                            x       y       z     vdW  Elec       q    Type
                         _______ _______ _______ _____ _____    ______ ____

>  <TORSDO>
F 5

$$$$
=
 OpenBabel10232410463D

 35 43  0  0  1  0  0  0  0  0999 V2000
  183.6260  178.0480  140.9190 C   0  0  0  0  0  0  0  0  0  0  0  0
  182.4870  178.7670  140.3370 C   0  0  0  0  0  0  0  0  0  0  0  0
  183.9100  177.9280  142.2390 C   0  0  0  0  0  3  0  0  0  0  0  0
  181.7760  176.3380  138.5760 C   0  0  2  0  0  3  0  0  0  0  0  0
  184.0200  176.7260  137.6390 O   0  0  0  0  0  0  0  0  0  0  0  0
  183.4270  178.1100  139.5370 C   0  0  2  0  0  0  0  0  0  0  0  0
  182.9170  178.6180  143.0290 C   0  0  0  0  0  0  0  0  0  0  0  0
  181.7710  179.3360  142.4340 C   0  0  0  0  0  0  0  0  0  0  0  0
  183.1900  176.8360  138.7770 C   0  0  1  0  0  0  0  0  0  0  0  0
  181.3010  175.6620  139.8490 C   0  0  0  0  0  2  0  0  0  0  0  0
  184.4300  178.7990  138.7490 C   0  0  0  0  0  0  0  0  0  0  0  0
  182.7550  175.5430  139.4320 C   0  0  1  0  0  3  0  0  0  0  0  0
  184.8050  177.9220  137.5920 C   0  0  1  0  0  3  0  0  0  0  0  0
  181.5240  179.4350  141.0190 C   0  0  0  0  0  3  0  0  0  0  0  0
  184.8710  179.9190  138.9600 O   0  0  0  0  0  0  0  0  0  0  0  0
  188.1510  177.8560  136.0280 C   0  0  2  0  0  3  0  0  0  0  0  0
  188.5600  178.8010  137.1690 C   0  0  1  0  0  3  0  0  0  0  0  0
  187.0820  178.6300  136.7920 C   0  0  2  0  0  3  0  0  0  0  0  0
  186.3000  177.6000  137.6030 C   0  0  2  0  0  3  0  0  0  0  0  0
  186.6060  176.2430  137.0030 C   0  0  0  0  0  2  0  0  0  0  0  0
  187.9820  176.3850  136.4010 C   0  0  0  0  0  2  0  0  0  0  0  0
  189.9240  177.1060  140.8940 C   0  0  0  0  0  3  0  0  0  0  0  0
  190.2150  177.4460  138.5150 C   0  0  0  0  0  3  0  0  0  0  0  0
  188.2830  178.3730  139.6440 C   0  0  0  0  0  3  0  0  0  0  0  0
  189.0070  178.1550  138.4610 C   0  0  0  0  0  0  0  0  0  0  0  0
  188.7350  177.8400  140.8540 C   0  0  0  0  0  3  0  0  0  0  0  0
  190.6660  176.9130  139.7260 C   0  0  0  0  0  3  0  0  0  0  0  0
  184.2550  178.6630  145.1980 C   0  0  0  0  0  0  0  0  0  0  0  0
  184.5500  178.6400  146.5080 N   0  0  0  0  0  0  0  0  0  0  0  0
  185.9600  178.7540  146.2190 C   0  0  0  0  0  2  0  0  0  0  0  0
  183.0310  178.6070  144.4600 N   0  0  0  0  0  2  0  0  0  0  0  0
  185.7100  178.7820  144.8410 C   0  0  0  0  0  2  0  0  0  0  0  0
  180.8050  180.0340  143.3320 C   0  0  0  0  0  2  0  0  0  0  0  0
  179.9830  179.0660  144.0070 N   0  0  0  0  0  0  0  0  0  0  0  0
  179.9900  177.8790  143.6390 N   0  0  0  0  0  2  0  0  0  0  0  0
  1  3  1  0  0  0  0
  2  1  2  0  0  0  0
  2 14  1  0  0  0  0
  3  7  2  0  0  0  0
  4  9  1  0  0  0  0
  4 12  1  0  0  0  0
  4 10  1  1  0  0  0
  5  9  1  0  0  0  0
  6 11  1  6  0  0  0
  6  2  1  0  0  0  0
  6  1  1  0  0  0  0
  7 31  1  0  0  0  0
  8  7  1  0  0  0  0
  8 33  1  0  0  0  0
  9 12  1  0  0  0  0
  9  6  1  0  0  0  0
 11 15  2  0  0  0  0
 12 10  1  1  0  0  0
 13 19  1  0  0  0  0
 13  5  1  1  0  0  0
 13 11  1  0  0  0  0
 14  8  2  0  0  0  0
 16 21  1  1  0  0  0
 16 18  1  0  0  0  0
 16 17  1  0  0  0  0
 17 25  1  1  0  0  0
 18 17  1  0  0  0  0
 18 19  1  0  0  0  0
 20 19  1  0  0  0  0
 21 20  1  0  0  0  0
 23 27  1  0  0  0  0
 24 26  2  0  0  0  0
 25 23  2  0  0  0  0
 25 24  1  0  0  0  0
 26 22  1  0  0  0  0
 27 22  2  0  0  0  0
 28 29  2  0  0  0  0
 30 29  1  0  0  0  0
 31 28  1  0  0  0  0
 32 28  1  0  0  0  0
 32 30  1  0  0  0  0
 33 34  1  0  0  0  0
 35 34  2  0  0  0  0
M  END
>  <MODEL>
2

>  <REMARK>
 VINA RESULT:      -8.2      3.622      6.799
  Name = 
  5 active torsions:
  status: ('A' for Active; 'I' for Inactive)
    1  A    between atoms: C_11  and  C_25
    2  A    between atoms: C_13  and  N_31
    3  A    between atoms: C_15  and  C_27
    4  A    between atoms: C_16  and  C_17
    5  A    between atoms: C_17  and  N_28
                            x       y       z     vdW  Elec       q    Type
                         _______ _______ _______ _____ _____    ______ ____

>  <TORSDO>
F 5

$$$$
=
 OpenBabel10232410463D

 35 43  0  0  1  0  0  0  0  0999 V2000
  188.8000  176.2650  138.1110 C   0  0  0  0  0  0  0  0  0  0  0  0
  189.2240  177.3450  137.2130 C   0  0  0  0  0  0  0  0  0  0  0  0
  187.8280  175.3520  137.8670 C   0  0  0  0  0  3  0  0  0  0  0  0
  192.1830  176.5500  137.5560 C   0  0  2  0  0  3  0  0  0  0  0  0
  191.7520  177.0840  139.9210 O   0  0  0  0  0  0  0  0  0  0  0  0
  189.8180  177.1560  138.4640 C   0  0  2  0  0  0  0  0  0  0  0  0
  187.2430  175.5810  136.5670 C   0  0  0  0  0  0  0  0  0  0  0  0
  187.6800  176.6680  135.6670 C   0  0  0  0  0  0  0  0  0  0  0  0
  191.2020  176.6230  138.7050 C   0  0  1  0  0  0  0  0  0  0  0  0
  191.8660  175.3320  136.7070 C   0  0  0  0  0  2  0  0  0  0  0  0
  189.5810  178.0220  139.6030 C   0  0  0  0  0  0  0  0  0  0  0  0
  191.6720  175.2720  138.2110 C   0  0  1  0  0  3  0  0  0  0  0  0
  190.7750  177.9500  140.5060 C   0  0  1  0  0  3  0  0  0  0  0  0
  188.7170  177.6150  135.9850 C   0  0  0  0  0  3  0  0  0  0  0  0
  188.5980  178.7260  139.7820 O   0  0  0  0  0  0  0  0  0  0  0  0
  191.5540  177.1130  144.0200 C   0  0  2  0  0  3  0  0  0  0  0  0
  190.5900  178.2580  144.3700 C   0  0  1  0  0  3  0  0  0  0  0  0
  191.2200  178.1700  142.9720 C   0  0  2  0  0  3  0  0  0  0  0  0
  190.3820  177.4710  141.9050 C   0  0  2  0  0  3  0  0  0  0  0  0
  190.5910  175.9810  142.0880 C   0  0  0  0  0  2  0  0  0  0  0  0
  190.9090  175.8100  143.5530 C   0  0  0  0  0  2  0  0  0  0  0  0
  186.3710  177.4240  144.7010 C   0  0  0  0  0  3  0  0  0  0  0  0
  188.5670  177.5570  145.7120 C   0  0  0  0  0  3  0  0  0  0  0  0
  188.2840  178.0540  143.3590 C   0  0  0  0  0  3  0  0  0  0  0  0
  189.1240  177.9050  144.4730 C   0  0  0  0  0  0  0  0  0  0  0  0
  186.9140  177.8030  143.4700 C   0  0  0  0  0  3  0  0  0  0  0  0
  187.1960  177.3060  145.8230 C   0  0  0  0  0  3  0  0  0  0  0  0
  184.8490  174.7050  136.6020 C   0  0  0  0  0  0  0  0  0  0  0  0
  183.7640  173.9670  136.3190 N   0  0  0  0  0  0  0  0  0  0  0  0
  182.9790  174.7050  137.2800 C   0  0  0  0  0  2  0  0  0  0  0  0
  186.1930  174.7150  136.1110 N   0  0  0  0  0  2  0  0  0  0  0  0
  184.0800  175.5040  137.6160 C   0  0  0  0  0  2  0  0  0  0  0  0
  187.0020  176.8360  134.3480 C   0  0  0  0  0  2  0  0  0  0  0  0
  185.9710  177.8320  134.4540 N   0  0  0  0  0  0  0  0  0  0  0  0
  184.7770  177.5040  134.3500 N   0  0  0  0  0  2  0  0  0  0  0  0
  1  6  1  0  0  0  0
  2  1  2  0  0  0  0
  3  1  1  0  0  0  0
  4 10  1  6  0  0  0
  4 12  1  0  0  0  0
  4  9  1  0  0  0  0
  5 13  1  0  0  0  0
  6  2  1  6  0  0  0
  6  9  1  0  0  0  0
  6 11  1  0  0  0  0
  7  3  2  0  0  0  0
  8 14  2  0  0  0  0
  8  7  1  0  0  0  0
  9  5  1  0  0  0  0
 11 15  2  0  0  0  0
 12 10  1  6  0  0  0
 12  9  1  0  0  0  0
 13 11  1  6  0  0  0
 13 19  1  0  0  0  0
 14  2  1  0  0  0  0
 16 21  1  6  0  0  0
 16 17  1  0  0  0  0
 17 25  1  6  0  0  0
 18 16  1  0  0  0  0
 18 17  1  0  0  0  0
 19 20  1  0  0  0  0
 19 18  1  0  0  0  0
 20 21  1  0  0  0  0
 22 27  1  0  0  0  0
 23 27  2  0  0  0  0
 24 26  1  0  0  0  0
 24 25  2  0  0  0  0
 25 23  1  0  0  0  0
 26 22  2  0  0  0  0
 28 32  1  0  0  0  0
 29 28  2  0  0  0  0
 29 30  1  0  0  0  0
 30 32  1  0  0  0  0
 31  7  1  0  0  0  0
 31 28  1  0  0  0  0
 33 34  1  0  0  0  0
 33  8  1  0  0  0  0
 35 34  2  0  0  0  0
M  END
>  <MODEL>
3

>  <REMARK>
 VINA RESULT:      -8.0      4.479      8.294
  Name = 
  5 active torsions:
  status: ('A' for Active; 'I' for Inactive)
    1  A    between atoms: C_11  and  C_25
    2  A    between atoms: C_13  and  N_31
    3  A    between atoms: C_15  and  C_27
    4  A    between atoms: C_16  and  C_17
    5  A    between atoms: C_17  and  N_28
                            x       y       z     vdW  Elec       q    Type
                         _______ _______ _______ _____ _____    ______ ____

>  <TORSDO>
F 5

$$$$
=
 OpenBabel10232410463D

 35 43  0  0  1  0  0  0  0  0999 V2000
  183.7930  177.5720  139.1740 C   0  0  0  0  0  0  0  0  0  0  0  0
  183.0820  178.1330  138.0190 C   0  0  0  0  0  0  0  0  0  0  0  0
  183.4150  177.6640  140.4720 C   0  0  0  0  0  3  0  0  0  0  0  0
  183.2360  175.4340  136.5360 C   0  0  2  0  0  3  0  0  0  0  0  0
  185.6640  175.8020  136.7190 O   0  0  0  0  0  0  0  0  0  0  0  0
  184.2730  177.4170  137.8700 C   0  0  2  0  0  0  0  0  0  0  0  0
  182.1820  178.4080  140.5820 C   0  0  0  0  0  0  0  0  0  0  0  0
  181.4700  178.9650  139.4130 C   0  0  0  0  0  0  0  0  0  0  0  0
  184.3970  176.0330  137.2980 C   0  0  1  0  0  0  0  0  0  0  0  0
  182.2000  174.9290  137.5230 C   0  0  0  0  0  2  0  0  0  0  0  0
  185.5450  178.0360  137.5510 C   0  0  0  0  0  0  0  0  0  0  0  0
  183.6750  174.8300  137.8640 C   0  0  1  0  0  3  0  0  0  0  0  0
  186.4030  177.0190  136.8600 C   0  0  1  0  0  3  0  0  0  0  0  0
  181.9260  178.8400  138.0530 C   0  0  0  0  0  3  0  0  0  0  0  0
  185.8580  179.1970  137.7660 O   0  0  0  0  0  0  0  0  0  0  0  0
  190.0900  176.9210  137.0930 C   0  0  2  0  0  3  0  0  0  0  0  0
  189.9240  178.0370  138.1370 C   0  0  1  0  0  3  0  0  0  0  0  0
  188.7990  177.7340  137.1360 C   0  0  2  0  0  3  0  0  0  0  0  0
  187.7080  176.7850  137.6240 C   0  0  2  0  0  3  0  0  0  0  0  0
  188.2390  175.3760  137.4490 C   0  0  0  0  0  2  0  0  0  0  0  0
  189.7380  175.5090  137.5560 C   0  0  0  0  0  2  0  0  0  0  0  0
  189.3310  176.9500  142.2700 C   0  0  0  0  0  3  0  0  0  0  0  0
  190.6900  176.9130  140.2670 C   0  0  0  0  0  3  0  0  0  0  0  0
  188.5270  178.0010  140.2420 C   0  0  0  0  0  3  0  0  0  0  0  0
  189.6900  177.6020  139.5670 C   0  0  0  0  0  0  0  0  0  0  0  0
  188.3430  177.6660  141.5870 C   0  0  0  0  0  3  0  0  0  0  0  0
  190.5060  176.5780  141.6120 C   0  0  0  0  0  3  0  0  0  0  0  0
  182.3340  178.7880  143.0980 C   0  0  0  0  0  0  0  0  0  0  0  0
  181.9710  178.9670  144.3790 N   0  0  0  0  0  0  0  0  0  0  0  0
  183.3540  179.0420  144.7860 C   0  0  0  0  0  2  0  0  0  0  0  0
  181.6040  178.6150  141.8800 N   0  0  0  0  0  2  0  0  0  0  0  0
  183.7890  178.8590  143.4680 C   0  0  0  0  0  2  0  0  0  0  0  0
  180.2100  179.7350  139.6290 C   0  0  0  0  0  2  0  0  0  0  0  0
  180.4890  181.1450  139.5950 N   0  0  0  0  0  0  0  0  0  0  0  0
  179.9820  181.8580  138.7120 N   0  0  0  0  0  2  0  0  0  0  0  0
  1  3  1  0  0  0  0
  2 14  1  0  0  0  0
  2  1  2  0  0  0  0
  3  7  2  0  0  0  0
  4  9  1  0  0  0  0
  4 10  1  1  0  0  0
  4 12  1  0  0  0  0
  5  9  1  0  0  0  0
  6 11  1  6  0  0  0
  6  2  1  0  0  0  0
  6  1  1  0  0  0  0
  7 31  1  0  0  0  0
  8 33  1  0  0  0  0
  8  7  1  0  0  0  0
  9 12  1  0  0  0  0
  9  6  1  0  0  0  0
 11 15  2  0  0  0  0
 12 10  1  1  0  0  0
 13  5  1  1  0  0  0
 13 11  1  0  0  0  0
 13 19  1  0  0  0  0
 14  8  2  0  0  0  0
 16 18  1  0  0  0  0
 16 21  1  1  0  0  0
 16 17  1  0  0  0  0
 17 25  1  1  0  0  0
 18 19  1  0  0  0  0
 18 17  1  0  0  0  0
 20 21  1  0  0  0  0
 20 19  1  0  0  0  0
 23 27  2  0  0  0  0
 24 26  1  0  0  0  0
 25 24  2  0  0  0  0
 25 23  1  0  0  0  0
 26 22  2  0  0  0  0
 27 22  1  0  0  0  0
 28 32  1  0  0  0  0
 28 29  2  0  0  0  0
 29 30  1  0  0  0  0
 31 28  1  0  0  0  0
 32 30  1  0  0  0  0
 34 33  1  0  0  0  0
 35 34  2  0  0  0  0
M  END
>  <MODEL>
4

>  <REMARK>
 VINA RESULT:      -7.8      4.122      7.552
  Name = 
  5 active torsions:
  status: ('A' for Active; 'I' for Inactive)
    1  A    between atoms: C_11  and  C_25
    2  A    between atoms: C_13  and  N_31
    3  A    between atoms: C_15  and  C_27
    4  A    between atoms: C_16  and  C_17
    5  A    between atoms: C_17  and  N_28
                            x       y       z     vdW  Elec       q    Type
                         _______ _______ _______ _____ _____    ______ ____

>  <TORSDO>
F 5

$$$$
=
 OpenBabel10232410463D

 35 43  0  0  1  0  0  0  0  0999 V2000
  191.3580  175.7760  137.9630 C   0  0  0  0  0  0  0  0  0  0  0  0
  190.8880  176.6450  136.8790 C   0  0  0  0  0  0  0  0  0  0  0  0
  190.9590  175.8180  139.2580 C   0  0  0  0  0  3  0  0  0  0  0  0
  190.3550  174.2060  135.0710 C   0  0  2  0  0  3  0  0  0  0  0  0
  192.7790  173.8490  135.3300 O   0  0  0  0  0  0  0  0  0  0  0  0
  191.8380  175.6450  136.6570 C   0  0  2  0  0  0  0  0  0  0  0  0
  189.9780  176.8620  139.4440 C   0  0  0  0  0  0  0  0  0  0  0  0
  189.5070  177.7300  138.3450 C   0  0  0  0  0  0  0  0  0  0  0  0
  191.6000  174.3590  135.9180 C   0  0  1  0  0  0  0  0  0  0  0  0
  189.1730  173.9010  135.9730 C   0  0  0  0  0  2  0  0  0  0  0  0
  193.2460  175.9130  136.4350 C   0  0  0  0  0  0  0  0  0  0  0  0
  190.5450  173.3510  136.3180 C   0  0  1  0  0  3  0  0  0  0  0  0
  193.8190  174.7830  135.6330 C   0  0  1  0  0  3  0  0  0  0  0  0
  189.9740  177.6410  136.9860 C   0  0  0  0  0  3  0  0  0  0  0  0
  193.8590  176.9050  136.7980 O   0  0  0  0  0  0  0  0  0  0  0  0
  195.3090  171.9370  137.4600 C   0  0  2  0  0  3  0  0  0  0  0  0
  196.3100  171.8810  136.2940 C   0  0  1  0  0  3  0  0  0  0  0  0
  194.9610  172.5970  136.1290 C   0  0  2  0  0  3  0  0  0  0  0  0
  194.9690  174.1030  136.3790 C   0  0  2  0  0  3  0  0  0  0  0  0
  194.8850  174.3000  137.8800 C   0  0  0  0  0  2  0  0  0  0  0  0
  195.5150  173.0630  138.4700 C   0  0  0  0  0  2  0  0  0  0  0  0
  199.8830  174.2900  136.4950 C   0  0  0  0  0  3  0  0  0  0  0  0
  198.5310  172.4700  137.3450 C   0  0  0  0  0  3  0  0  0  0  0  0
  197.7400  173.7990  135.4810 C   0  0  0  0  0  3  0  0  0  0  0  0
  197.5330  172.7630  136.4050 C   0  0  0  0  0  0  0  0  0  0  0  0
  198.9070  174.5670  135.5340 C   0  0  0  0  0  3  0  0  0  0  0  0
  199.6980  173.2390  137.3970 C   0  0  0  0  0  3  0  0  0  0  0  0
  190.1590  177.3980  141.9300 C   0  0  0  0  0  0  0  0  0  0  0  0
  189.8170  177.6030  143.2120 N   0  0  0  0  0  0  0  0  0  0  0  0
  191.1920  177.8660  143.5630 C   0  0  0  0  0  2  0  0  0  0  0  0
  189.4190  177.0710  140.7500 N   0  0  0  0  0  2  0  0  0  0  0  0
  191.6050  177.6620  142.2410 C   0  0  0  0  0  2  0  0  0  0  0  0
  188.5010  178.7930  138.6390 C   0  0  0  0  0  2  0  0  0  0  0  0
  187.2200  178.4090  138.1110 N   0  0  0  0  0  0  0  0  0  0  0  0
  186.2140  178.4330  138.8410 N   0  0  0  0  0  2  0  0  0  0  0  0
  1  3  1  0  0  0  0
  2 14  1  0  0  0  0
  2  1  2  0  0  0  0
  3  7  2  0  0  0  0
  4  9  1  0  0  0  0
  4 10  1  1  0  0  0
  4 12  1  0  0  0  0
  5  9  1  0  0  0  0
  6 11  1  6  0  0  0
  6  2  1  0  0  0  0
  6  1  1  0  0  0  0
  7 31  1  0  0  0  0
  8 33  1  0  0  0  0
  8  7  1  0  0  0  0
  9 12  1  0  0  0  0
  9  6  1  0  0  0  0
 11 15  2  0  0  0  0
 12 10  1  1  0  0  0
 13  5  1  1  0  0  0
 13 19  1  0  0  0  0
 13 11  1  0  0  0  0
 14  8  2  0  0  0  0
 16 21  1  1  0  0  0
 17 25  1  1  0  0  0
 17 16  1  0  0  0  0
 18 17  1  0  0  0  0
 18 19  1  0  0  0  0
 18 16  1  0  0  0  0
 19 20  1  0  0  0  0
 20 21  1  0  0  0  0
 22 27  1  0  0  0  0
 23 27  2  0  0  0  0
 24 26  1  0  0  0  0
 24 25  2  0  0  0  0
 25 23  1  0  0  0  0
 26 22  2  0  0  0  0
 28 32  1  0  0  0  0
 28 29  2  0  0  0  0
 29 30  1  0  0  0  0
 31 28  1  0  0  0  0
 32 30  1  0  0  0  0
 34 33  1  0  0  0  0
 34 35  2  0  0  0  0
M  END
>  <MODEL>
5

>  <REMARK>
 VINA RESULT:      -6.6      5.163      8.475
  Name = 
  5 active torsions:
  status: ('A' for Active; 'I' for Inactive)
    1  A    between atoms: C_11  and  C_25
    2  A    between atoms: C_13  and  N_31
    3  A    between atoms: C_15  and  C_27
    4  A    between atoms: C_16  and  C_17
    5  A    between atoms: C_17  and  N_28
                            x       y       z     vdW  Elec       q    Type
                         _______ _______ _______ _____ _____    ______ ____

>  <TORSDO>
F 5

$$$$
=
 OpenBabel10232410463D

 35 43  0  0  1  0  0  0  0  0999 V2000
  191.1560  175.6370  137.5690 C   0  0  0  0  0  0  0  0  0  0  0  0
  190.6610  176.4590  136.4590 C   0  0  0  0  0  0  0  0  0  0  0  0
  190.8590  175.7960  138.8820 C   0  0  0  0  0  3  0  0  0  0  0  0
  189.8420  173.9420  134.8780 C   0  0  2  0  0  3  0  0  0  0  0  0
  192.2510  173.4410  134.9920 O   0  0  0  0  0  0  0  0  0  0  0  0
  191.5280  175.3830  136.2450 C   0  0  2  0  0  0  0  0  0  0  0  0
  189.9620  176.9140  139.0590 C   0  0  0  0  0  0  0  0  0  0  0  0
  189.4650  177.7340  137.9350 C   0  0  0  0  0  0  0  0  0  0  0  0
  191.1540  174.0690  135.6210 C   0  0  1  0  0  0  0  0  0  0  0  0
  188.7150  173.7810  135.8820 C   0  0  0  0  0  2  0  0  0  0  0  0
  192.9290  175.5390  135.9050 C   0  0  0  0  0  0  0  0  0  0  0  0
  190.0710  173.1650  136.1690 C   0  0  1  0  0  3  0  0  0  0  0  0
  193.3680  174.3210  135.1510 C   0  0  1  0  0  3  0  0  0  0  0  0
  189.8220  177.5200  136.5570 C   0  0  0  0  0  3  0  0  0  0  0  0
  193.6280  176.5110  136.1500 O   0  0  0  0  0  0  0  0  0  0  0  0
  195.8950  174.0700  137.8350 C   0  0  2  0  0  3  0  0  0  0  0  0
  195.1440  172.7930  138.2450 C   0  0  1  0  0  3  0  0  0  0  0  0
  194.4590  173.8520  137.3680 C   0  0  2  0  0  3  0  0  0  0  0  0
  194.5260  173.6170  135.8610 C   0  0  2  0  0  3  0  0  0  0  0  0
  195.8810  174.1150  135.3980 C   0  0  0  0  0  2  0  0  0  0  0  0
  196.7830  173.9600  136.5970 C   0  0  0  0  0  2  0  0  0  0  0  0
  196.2700  169.0460  136.4280 C   0  0  0  0  0  3  0  0  0  0  0  0
  196.8550  171.0090  137.7190 C   0  0  0  0  0  3  0  0  0  0  0  0
  194.6040  170.7480  136.8630 C   0  0  0  0  0  3  0  0  0  0  0  0
  195.5560  171.5110  137.5560 C   0  0  0  0  0  0  0  0  0  0  0  0
  194.9640  169.5240  136.2910 C   0  0  0  0  0  3  0  0  0  0  0  0
  197.2140  169.7850  137.1460 C   0  0  0  0  0  3  0  0  0  0  0  0
  190.3560  177.3870  141.5330 C   0  0  0  0  0  0  0  0  0  0  0  0
  190.1200  177.6670  142.8250 N   0  0  0  0  0  0  0  0  0  0  0  0
  191.5300  177.5900  143.1260 C   0  0  0  0  0  2  0  0  0  0  0  0
  189.5180  177.2500  140.3820 N   0  0  0  0  0  2  0  0  0  0  0  0
  191.8340  177.2940  141.7910 C   0  0  0  0  0  2  0  0  0  0  0  0
  188.5530  178.8800  138.2200 C   0  0  0  0  0  2  0  0  0  0  0  0
  187.3870  178.7930  137.3830 N   0  0  0  0  0  0  0  0  0  0  0  0
  186.3020  178.4220  137.8650 N   0  0  0  0  0  2  0  0  0  0  0  0
  1  3  1  0  0  0  0
  2 14  1  0  0  0  0
  2  1  2  0  0  0  0
  3  7  2  0  0  0  0
  4  9  1  0  0  0  0
  4 10  1  1  0  0  0
  4 12  1  0  0  0  0
  5  9  1  0  0  0  0
  6 11  1  6  0  0  0
  6  2  1  0  0  0  0
  6  1  1  0  0  0  0
  7 31  1  0  0  0  0
  8 33  1  0  0  0  0
  8  7  1  0  0  0  0
  9 12  1  0  0  0  0
  9  6  1  0  0  0  0
 11 15  2  0  0  0  0
 12 10  1  1  0  0  0
 13  5  1  1  0  0  0
 13 19  1  0  0  0  0
 13 11  1  0  0  0  0
 14  8  2  0  0  0  0
 16 21  1  6  0  0  0
 16 17  1  0  0  0  0
 17 25  1  6  0  0  0
 18 16  1  0  0  0  0
 18 17  1  0  0  0  0
 19 18  1  0  0  0  0
 20 19  1  0  0  0  0
 20 21  1  0  0  0  0
 22 27  1  0  0  0  0
 24 25  2  0  0  0  0
 25 23  1  0  0  0  0
 26 22  2  0  0  0  0
 26 24  1  0  0  0  0
 27 23  2  0  0  0  0
 28 32  1  0  0  0  0
 28 29  2  0  0  0  0
 29 30  1  0  0  0  0
 31 28  1  0  0  0  0
 32 30  1  0  0  0  0
 34 35  2  0  0  0  0
 34 33  1  0  0  0  0
M  END
>  <MODEL>
6

>  <REMARK>
 VINA RESULT:      -6.4      4.905      8.419
  Name = 
  5 active torsions:
  status: ('A' for Active; 'I' for Inactive)
    1  A    between atoms: C_11  and  C_25
    2  A    between atoms: C_13  and  N_31
    3  A    between atoms: C_15  and  C_27
    4  A    between atoms: C_16  and  C_17
    5  A    between atoms: C_17  and  N_28
                            x       y       z     vdW  Elec       q    Type
                         _______ _______ _______ _____ _____    ______ ____

>  <TORSDO>
F 5

$$$$
=
 OpenBabel10232410463D

 35 43  0  0  1  0  0  0  0  0999 V2000
  187.5220  176.6620  137.7660 C   0  0  0  0  0  0  0  0  0  0  0  0
  188.4600  175.7320  137.1250 C   0  0  0  0  0  0  0  0  0  0  0  0
  187.7780  177.4460  138.8410 C   0  0  0  0  0  3  0  0  0  0  0  0
  187.8160  176.9040  134.3460 C   0  0  2  0  0  3  0  0  0  0  0  0
  185.5400  176.1160  134.8620 O   0  0  0  0  0  0  0  0  0  0  0  0
  187.1530  175.8970  136.6560 C   0  0  2  0  0  0  0  0  0  0  0  0
  189.1360  177.2480  139.2930 C   0  0  0  0  0  0  0  0  0  0  0  0
  190.0740  176.3130  138.6380 C   0  0  0  0  0  0  0  0  0  0  0  0
  186.7600  176.5970  135.3860 C   0  0  1  0  0  0  0  0  0  0  0  0
  188.5960  178.1330  134.7780 C   0  0  0  0  0  2  0  0  0  0  0  0
  186.1050  174.9120  136.8440 C   0  0  0  0  0  0  0  0  0  0  0  0
  187.1130  178.0370  135.0850 C   0  0  1  0  0  3  0  0  0  0  0  0
  185.1030  175.0750  135.7410 C   0  0  1  0  0  3  0  0  0  0  0  0
  189.7420  175.4980  137.4980 C   0  0  0  0  0  3  0  0  0  0  0  0
  186.0590  174.0650  137.7220 O   0  0  0  0  0  0  0  0  0  0  0  0
  181.4940  174.3640  136.0910 C   0  0  2  0  0  3  0  0  0  0  0  0
  181.8130  174.1490  137.5800 C   0  0  1  0  0  3  0  0  0  0  0  0
  182.9290  174.0830  136.5260 C   0  0  2  0  0  3  0  0  0  0  0  0
  183.7100  175.3740  136.2980 C   0  0  2  0  0  3  0  0  0  0  0  0
  182.8810  176.2300  135.3610 C   0  0  0  0  0  2  0  0  0  0  0  0
  181.4530  175.8140  135.6150 C   0  0  0  0  0  2  0  0  0  0  0  0
  181.7380  177.5400  140.2450 C   0  0  0  0  0  3  0  0  0  0  0  0
  180.5720  175.9670  138.8200 C   0  0  0  0  0  3  0  0  0  0  0  0
  182.9810  175.8470  139.0410 C   0  0  0  0  0  3  0  0  0  0  0  0
  181.7920  175.3760  138.4640 C   0  0  0  0  0  0  0  0  0  0  0  0
  182.9540  176.9340  139.9200 C   0  0  0  0  0  3  0  0  0  0  0  0
  180.5470  177.0540  139.7000 C   0  0  0  0  0  3  0  0  0  0  0  0
  189.3840  177.6610  141.7960 C   0  0  0  0  0  0  0  0  0  0  0  0
  189.7240  178.2400  142.9590 N   0  0  0  0  0  0  0  0  0  0  0  0
  189.0750  177.1860  143.7020 C   0  0  0  0  0  2  0  0  0  0  0  0
  189.6120  177.9930  140.4230 N   0  0  0  0  0  2  0  0  0  0  0  0
  188.6930  176.5400  142.5200 C   0  0  0  0  0  2  0  0  0  0  0  0
  191.4530  176.1640  139.1880 C   0  0  0  0  0  2  0  0  0  0  0  0
  192.3990  176.0700  138.1090 N   0  0  0  0  0  0  0  0  0  0  0  0
  193.4650  176.7080  138.1590 N   0  0  0  0  0  2  0  0  0  0  0  0
  1  3  1  0  0  0  0
  2 14  1  0  0  0  0
  2  1  2  0  0  0  0
  3  7  2  0  0  0  0
  4 10  1  1  0  0  0
  4 12  1  0  0  0  0
  4  9  1  0  0  0  0
  5  9  1  0  0  0  0
  6 11  1  1  0  0  0
  6  2  1  0  0  0  0
  6  1  1  0  0  0  0
  7 31  1  0  0  0  0
  8 33  1  0  0  0  0
  8  7  1  0  0  0  0
  9  6  1  0  0  0  0
 11 15  2  0  0  0  0
 12 10  1  1  0  0  0
 12  9  1  0  0  0  0
 13  5  1  6  0  0  0
 13 19  1  0  0  0  0
 13 11  1  0  0  0  0
 14  8  2  0  0  0  0
 16 21  1  1  0  0  0
 16 18  1  0  0  0  0
 16 17  1  0  0  0  0
 17 25  1  1  0  0  0
 18 17  1  0  0  0  0
 19 18  1  0  0  0  0
 20 21  1  0  0  0  0
 20 19  1  0  0  0  0
 23 27  1  0  0  0  0
 24 26  2  0  0  0  0
 25 23  2  0  0  0  0
 25 24  1  0  0  0  0
 26 22  1  0  0  0  0
 27 22  2  0  0  0  0
 28 32  1  0  0  0  0
 28 29  2  0  0  0  0
 29 30  1  0  0  0  0
 31 28  1  0  0  0  0
 32 30  1  0  0  0  0
 34 35  2  0  0  0  0
 34 33  1  0  0  0  0
M  END
>  <MODEL>
7

>  <REMARK>
 VINA RESULT:      -6.2      5.019      8.299
  Name = 
  5 active torsions:
  status: ('A' for Active; 'I' for Inactive)
    1  A    between atoms: C_11  and  C_25
    2  A    between atoms: C_13  and  N_31
    3  A    between atoms: C_15  and  C_27
    4  A    between atoms: C_16  and  C_17
    5  A    between atoms: C_17  and  N_28
                            x       y       z     vdW  Elec       q    Type
                         _______ _______ _______ _____ _____    ______ ____

>  <TORSDO>
F 5

$$$$
=
 OpenBabel10232410463D

 35 43  0  0  1  0  0  0  0  0999 V2000
  190.6400  175.6970  137.5340 C   0  0  0  0  0  0  0  0  0  0  0  0
  191.6170  176.7870  137.6330 C   0  0  0  0  0  0  0  0  0  0  0  0
  190.9190  174.3790  137.3850 C   0  0  0  0  0  3  0  0  0  0  0  0
  190.2130  177.9000  140.1420 C   0  0  2  0  0  3  0  0  0  0  0  0
  188.3070  178.1610  138.6040 O   0  0  0  0  0  0  0  0  0  0  0  0
  190.2420  177.0280  137.6870 C   0  0  2  0  0  0  0  0  0  0  0  0
  192.3480  174.1720  137.3360 C   0  0  0  0  0  0  0  0  0  0  0  0
  193.3250  175.2760  137.4410 C   0  0  0  0  0  0  0  0  0  0  0  0
  189.4690  177.4220  138.9150 C   0  0  1  0  0  0  0  0  0  0  0  0
  190.7730  176.7000  140.8840 C   0  0  0  0  0  2  0  0  0  0  0  0
  189.4900  177.6270  136.6010 C   0  0  0  0  0  0  0  0  0  0  0  0
  189.4340  176.5910  140.1790 C   0  0  1  0  0  3  0  0  0  0  0  0
  188.2850  178.3040  137.1810 C   0  0  1  0  0  3  0  0  0  0  0  0
  192.9670  176.6620  137.5920 C   0  0  0  0  0  3  0  0  0  0  0  0
  189.8000  177.6230  135.4200 O   0  0  0  0  0  0  0  0  0  0  0  0
  186.3730  175.7010  135.3870 C   0  0  2  0  0  3  0  0  0  0  0  0
  185.5880  175.5550  136.7010 C   0  0  1  0  0  3  0  0  0  0  0  0
  186.9760  176.2130  136.6910 C   0  0  2  0  0  3  0  0  0  0  0  0
  186.9930  177.7360  136.5910 C   0  0  2  0  0  3  0  0  0  0  0  0
  186.8230  178.0820  135.1250 C   0  0  0  0  0  2  0  0  0  0  0  0
  186.0440  176.9300  134.5410 C   0  0  0  0  0  2  0  0  0  0  0  0
  182.1460  178.0680  137.3670 C   0  0  0  0  0  3  0  0  0  0  0  0
  183.2560  176.3250  136.1060 C   0  0  0  0  0  3  0  0  0  0  0  0
  184.3990  177.4020  137.9490 C   0  0  0  0  0  3  0  0  0  0  0  0
  184.4060  176.4770  136.8940 C   0  0  0  0  0  0  0  0  0  0  0  0
  183.2760  178.2030  138.1770 C   0  0  0  0  0  3  0  0  0  0  0  0
  182.1340  177.1260  136.3350 C   0  0  0  0  0  3  0  0  0  0  0  0
  192.7710  172.0420  136.0010 C   0  0  0  0  0  0  0  0  0  0  0  0
  193.1600  170.7950  135.6920 N   0  0  0  0  0  0  0  0  0  0  0  0
  192.6610  170.9450  134.3460 C   0  0  0  0  0  2  0  0  0  0  0  0
  192.8560  172.8390  137.1860 N   0  0  0  0  0  2  0  0  0  0  0  0
  192.2340  172.2520  134.6140 C   0  0  0  0  0  2  0  0  0  0  0  0
  194.7820  174.9660  137.3620 C   0  0  0  0  0  2  0  0  0  0  0  0
  195.3550  174.9860  138.6810 N   0  0  0  0  0  0  0  0  0  0  0  0
  195.7260  173.9260  139.2140 N   0  0  0  0  0  2  0  0  0  0  0  0
  1  2  1  0  0  0  0
  1  6  1  0  0  0  0
  2  6  1  0  0  0  0
  3  1  2  0  0  0  0
  4 12  1  0  0  0  0
  4 10  1  6  0  0  0
  5  9  1  0  0  0  0
  6 11  1  6  0  0  0
  6  9  1  0  0  0  0
  7  3  1  0  0  0  0
  7  8  2  0  0  0  0
  8 14  1  0  0  0  0
  9  4  1  0  0  0  0
  9 12  1  0  0  0  0
 12 10  1  6  0  0  0
 13 11  1  6  0  0  0
 13  5  1  0  0  0  0
 14  2  2  0  0  0  0
 15 11  2  0  0  0  0
 16 21  1  6  0  0  0
 16 18  1  0  0  0  0
 16 17  1  0  0  0  0
 17 25  1  6  0  0  0
 18 17  1  0  0  0  0
 19 18  1  0  0  0  0
 19 13  1  0  0  0  0
 20 19  1  0  0  0  0
 21 20  1  0  0  0  0
 22 26  1  0  0  0  0
 23 27  1  0  0  0  0
 23 25  2  0  0  0  0
 24 26  2  0  0  0  0
 25 24  1  0  0  0  0
 27 22  2  0  0  0  0
 28 31  1  0  0  0  0
 29 28  2  0  0  0  0
 30 32  1  0  0  0  0
 30 29  1  0  0  0  0
 31  7  1  0  0  0  0
 32 28  1  0  0  0  0
 33  8  1  0  0  0  0
 33 34  1  0  0  0  0
 34 35  2  0  0  0  0
M  END
>  <MODEL>
8

>  <REMARK>
 VINA RESULT:      -6.2      5.778      8.846
  Name = 
  5 active torsions:
  status: ('A' for Active; 'I' for Inactive)
    1  A    between atoms: C_11  and  C_25
    2  A    between atoms: C_13  and  N_31
    3  A    between atoms: C_15  and  C_27
    4  A    between atoms: C_16  and  C_17
    5  A    between atoms: C_17  and  N_28
                            x       y       z     vdW  Elec       q    Type
                         _______ _______ _______ _____ _____    ______ ____

>  <TORSDO>
F 5

$$$$
=
 OpenBabel10232410463D

 35 43  0  0  1  0  0  0  0  0999 V2000
  183.8270  177.7270  139.5190 C   0  0  0  0  0  0  0  0  0  0  0  0
  182.7980  178.1940  138.5830 C   0  0  0  0  0  0  0  0  0  0  0  0
  183.7460  177.7380  140.8720 C   0  0  0  0  0  3  0  0  0  0  0  0
  182.9930  175.5760  136.9660 C   0  0  2  0  0  3  0  0  0  0  0  0
  185.3210  176.3020  136.6210 O   0  0  0  0  0  0  0  0  0  0  0  0
  184.0140  177.6690  138.1350 C   0  0  2  0  0  0  0  0  0  0  0  0
  182.4780  178.2860  141.2930 C   0  0  0  0  0  0  0  0  0  0  0  0
  181.4460  178.7500  140.3420 C   0  0  0  0  0  0  0  0  0  0  0  0
  184.2000  176.3290  137.4800 C   0  0  1  0  0  0  0  0  0  0  0  0
  182.2930  174.9030  138.1330 C   0  0  0  0  0  2  0  0  0  0  0  0
  185.0770  178.4780  137.5720 C   0  0  0  0  0  0  0  0  0  0  0  0
  183.8050  175.0220  138.1300 C   0  0  1  0  0  3  0  0  0  0  0  0
  185.8910  177.6140  136.6560 C   0  0  1  0  0  3  0  0  0  0  0  0
  181.5910  178.7190  138.9100 C   0  0  0  0  0  3  0  0  0  0  0  0
  185.2610  179.6690  137.7710 O   0  0  0  0  0  0  0  0  0  0  0  0
  188.6880  178.6340  138.8450 C   0  0  2  0  0  3  0  0  0  0  0  0
  188.7330  177.1530  139.2570 C   0  0  1  0  0  3  0  0  0  0  0  0
  187.4730  177.7420  138.6070 C   0  0  2  0  0  3  0  0  0  0  0  0
  187.3550  177.5660  137.0960 C   0  0  2  0  0  3  0  0  0  0  0  0
  188.1890  178.6590  136.4590 C   0  0  0  0  0  2  0  0  0  0  0  0
  189.2650  178.9670  137.4710 C   0  0  0  0  0  2  0  0  0  0  0  0
  191.1090  174.4040  136.9310 C   0  0  0  0  0  3  0  0  0  0  0  0
  190.9650  176.2210  138.5250 C   0  0  0  0  0  3  0  0  0  0  0  0
  188.9460  175.2920  137.5620 C   0  0  0  0  0  3  0  0  0  0  0  0
  189.5690  176.2330  138.3960 C   0  0  0  0  0  0  0  0  0  0  0  0
  189.7150  174.3880  136.8220 C   0  0  0  0  0  3  0  0  0  0  0  0
  191.7330  175.3160  137.7860 C   0  0  0  0  0  3  0  0  0  0  0  0
  183.1300  178.7160  143.7190 C   0  0  0  0  0  0  0  0  0  0  0  0
  183.0470  178.8280  145.0550 N   0  0  0  0  0  0  0  0  0  0  0  0
  184.4410  179.1960  145.1360 C   0  0  0  0  0  2  0  0  0  0  0  0
  182.1890  178.3810  142.6960 N   0  0  0  0  0  2  0  0  0  0  0  0
  184.5840  179.0930  143.7470 C   0  0  0  0  0  2  0  0  0  0  0  0
  180.1720  179.3170  140.8730 C   0  0  0  0  0  2  0  0  0  0  0  0
  180.4080  180.6320  141.4040 N   0  0  0  0  0  0  0  0  0  0  0  0
  179.9820  180.9330  142.5320 N   0  0  0  0  0  2  0  0  0  0  0  0
  1  3  1  0  0  0  0
  2 14  1  0  0  0  0
  2  1  2  0  0  0  0
  3  7  2  0  0  0  0
  4  9  1  0  0  0  0
  4 12  1  0  0  0  0
  4 10  1  1  0  0  0
  5  9  1  0  0  0  0
  6 11  1  6  0  0  0
  6  2  1  0  0  0  0
  6  1  1  0  0  0  0
  7 31  1  0  0  0  0
  8 33  1  0  0  0  0
  8  7  1  0  0  0  0
  9 12  1  0  0  0  0
  9  6  1  0  0  0  0
 11 15  2  0  0  0  0
 12 10  1  1  0  0  0
 13  5  1  1  0  0  0
 13 19  1  0  0  0  0
 13 11  1  0  0  0  0
 14  8  2  0  0  0  0
 16 21  1  6  0  0  0
 16 17  1  0  0  0  0
 17 25  1  6  0  0  0
 18 16  1  0  0  0  0
 18 17  1  0  0  0  0
 19 18  1  0  0  0  0
 20 19  1  0  0  0  0
 20 21  1  0  0  0  0
 22 27  1  0  0  0  0
 24 25  2  0  0  0  0
 25 23  1  0  0  0  0
 26 22  2  0  0  0  0
 26 24  1  0  0  0  0
 27 23  2  0  0  0  0
 28 32  1  0  0  0  0
 28 29  2  0  0  0  0
 29 30  1  0  0  0  0
 31 28  1  0  0  0  0
 32 30  1  0  0  0  0
 33 34  1  0  0  0  0
 34 35  2  0  0  0  0
M  END
>  <MODEL>
9

>  <REMARK>
 VINA RESULT:      -6.1      4.018      6.963
  Name = 
  5 active torsions:
  status: ('A' for Active; 'I' for Inactive)
    1  A    between atoms: C_11  and  C_25
    2  A    between atoms: C_13  and  N_31
    3  A    between atoms: C_15  and  C_27
    4  A    between atoms: C_16  and  C_17
    5  A    between atoms: C_17  and  N_28
                            x       y       z     vdW  Elec       q    Type
                         _______ _______ _______ _____ _____    ______ ____

>  <TORSDO>
F 5

$$$$
