=
 OpenBabel10232410303D

 43 49  0  0  1  0  0  0  0  0999 V2000
  190.4650  174.3050  137.1080 C   0  0  0  0  0  0  0  0  0  0  0  0
  184.3350  175.1360  136.9320 C   0  0  0  0  0  0  0  0  0  0  0  0
  182.9290  174.7700  137.2670 C   0  0  0  0  0  1  0  0  0  0  0  0
  187.5140  173.5310  134.6000 C   0  0  0  0  0  0  0  0  0  0  0  0
  190.4790  173.2000  136.0670 C   0  0  1  0  0  3  0  0  0  0  0  0
  189.5390  175.2170  137.2810 C   0  0  0  0  0  0  0  0  0  0  0  0
  186.3040  172.8260  134.4360 O   0  0  0  0  0  0  0  0  0  0  0  0
  186.4960  177.5240  136.1470 F   0  0  0  0  0  0  0  0  0  0  0  0
  188.6870  172.9590  134.3460 C   0  0  0  0  0  3  0  0  0  0  0  0
  184.9640  176.2220  137.4110 C   0  0  0  0  0  3  0  0  0  0  0  0
  192.1670  176.0040  137.6280 N   0  0  0  0  0  2  0  0  0  0  0  0
  189.9010  173.5890  134.7820 N   0  0  0  0  0  2  0  0  0  0  0  0
  186.3760  176.3520  136.8720 C   0  0  2  0  0  0  0  0  0  0  0  0
  187.4280  176.2720  138.0000 C   0  0  0  0  0  2  0  0  0  0  0  0
  192.7180  173.8310  136.7650 N   0  0  0  0  0  0  0  0  0  0  0  0
  187.5060  174.8330  135.2460 C   0  0  0  0  0  3  0  0  0  0  0  0
  186.4660  175.1690  135.9760 C   0  0  0  0  0  0  0  0  0  0  0  0
  194.1450  173.6680  136.9880 C   0  0  0  0  0  1  0  0  0  0  0  0
  192.4530  172.1570  135.1290 O   0  0  0  0  0  0  0  0  0  0  0  0
  191.8450  174.5740  137.6520 C   0  0  2  0  0  3  0  0  0  0  0  0
  185.4790  172.9940  136.6950 C   0  0  0  0  0  2  0  0  0  0  0  0
  191.6550  176.5570  138.8820 C   0  0  0  0  0  2  0  0  0  0  0  0
  188.8570  176.3140  137.5000 C   0  0  0  0  0  0  0  0  0  0  0  0
  189.6800  177.5800  137.5020 C   0  0  2  0  0  3  0  0  0  0  0  0
  185.2500  174.3610  136.0670 C   0  0  1  0  0  0  0  0  0  0  0  0
  191.9430  172.9990  135.9130 C   0  0  0  0  0  0  0  0  0  0  0  0
  185.1170  173.0900  135.2210 C   0  0  1  0  0  3  0  0  0  0  0  0
  190.6760  177.7350  138.6770 C   0  0  1  0  0  3  0  0  0  0  0  0
  188.8610  178.8430  137.2740 C   0  0  0  0  0  1  0  0  0  0  0  0
  189.9070  177.1470  140.9260 C   0  0  0  0  0  0  0  0  0  0  0  0
  189.9550  178.0230  139.9580 C   0  0  0  0  0  3  0  0  0  0  0  0
  189.8550  176.2690  141.8900 C   0  0  0  0  0  3  0  0  0  0  0  0
  189.4460  177.2000  146.7170 C   0  0  0  0  0  2  0  0  0  0  0  0
  191.3010  176.8380  144.5490 C   0  0  0  0  0  2  0  0  0  0  0  0
  187.9690  176.2290  143.2790 O   0  0  0  0  0  0  0  0  0  0  0  0
  191.7540  177.5050  145.7750 N   0  0  0  0  0  2  0  0  0  0  0  0
  189.1060  177.7760  145.3460 C   0  0  0  0  0  2  0  0  0  0  0  0
  190.9640  177.0570  146.9300 C   0  0  2  0  0  3  0  0  0  0  0  0
  189.8750  177.0790  144.3200 N   0  0  0  0  0  0  0  0  0  0  0  0
  189.1910  176.5180  143.1830 C   0  0  0  0  0  0  0  0  0  0  0  0
  191.2990  175.6810  147.2680 N   0  0  0  0  0  2  0  0  0  0  0  0
  192.9310  176.0840  148.5500 O   0  0  0  0  0  1  0  0  0  0  0  0
  192.6490  175.6100  147.3550 O   0  0  0  0  0  0  0  0  0  0  0  0
  1  6  2  0  0  0  0
  2  3  1  0  0  0  0
  2 10  2  0  0  0  0
  4 16  1  0  0  0  0
  5 12  1  6  0  0  0
  5  1  1  0  0  0  0
  6 23  2  0  0  0  0
  7  4  1  0  0  0  0
  7 27  1  0  0  0  0
  9  4  2  0  0  0  0
  9 12  1  0  0  0  0
 11 20  1  0  0  0  0
 11 22  1  0  0  0  0
 13  8  1  6  0  0  0
 13 10  1  0  0  0  0
 13 14  1  0  0  0  0
 15 18  1  0  0  0  0
 15 20  1  0  0  0  0
 16 17  2  0  0  0  0
 17 25  1  0  0  0  0
 17 13  1  0  0  0  0
 19 26  2  0  0  0  0
 20  1  1  6  0  0  0
 23 24  1  0  0  0  0
 23 14  1  0  0  0  0
 24 29  1  1  0  0  0
 24 28  1  0  0  0  0
 25 21  1  1  0  0  0
 25  2  1  0  0  0  0
 26  5  1  0  0  0  0
 26 15  1  0  0  0  0
 27 25  1  0  0  0  0
 27 21  1  1  0  0  0
 28 22  1  0  0  0  0
 28 31  1  1  0  0  0
 30 32  2  0  0  0  0
 31 30  2  0  0  0  0
 32 40  1  0  0  0  0
 33 38  1  0  0  0  0
 34 36  1  0  0  0  0
 36 38  1  0  0  0  0
 37 33  1  0  0  0  0
 38 41  1  6  0  0  0
 39 34  1  0  0  0  0
 39 37  1  0  0  0  0
 40 35  2  0  0  0  0
 40 39  1  0  0  0  0
 41 43  1  0  0  0  0
 43 42  1  0  0  0  0
M  END
>  <MODEL>
1

>  <REMARK>
 VINA RESULT:      -9.0      0.000      0.000
  Name = 
  4 active torsions:
  status: ('A' for Active; 'I' for Inactive)
    1  A    between atoms: N_22  and  C_40
    2  A    between atoms: N_22  and  O_41
    3  A    between atoms: C_27  and  C_38
    4  A    between atoms: C_28  and  C_43
                            x       y       z     vdW  Elec       q    Type
                         _______ _______ _______ _____ _____    ______ ____

>  <TORSDO>
F 4

$$$$
=
 OpenBabel10232410303D

 43 49  0  0  1  0  0  0  0  0999 V2000
  189.4280  174.0660  136.7890 C   0  0  0  0  0  0  0  0  0  0  0  0
  183.5970  176.0610  137.3530 C   0  0  0  0  0  0  0  0  0  0  0  0
  182.2050  175.9820  137.8820 C   0  0  0  0  0  1  0  0  0  0  0  0
  186.0750  173.8150  134.7180 C   0  0  0  0  0  0  0  0  0  0  0  0
  189.0940  172.9540  135.8110 C   0  0  1  0  0  3  0  0  0  0  0  0
  188.7230  175.1440  137.0330 C   0  0  0  0  0  0  0  0  0  0  0  0
  184.7440  173.3540  134.7440 O   0  0  0  0  0  0  0  0  0  0  0  0
  186.0450  177.9670  136.1820 F   0  0  0  0  0  0  0  0  0  0  0  0
  187.0750  173.0220  134.3460 C   0  0  0  0  0  3  0  0  0  0  0  0
  184.4780  177.0170  137.6930 C   0  0  0  0  0  3  0  0  0  0  0  0
  191.4740  175.4160  137.0040 N   0  0  0  0  0  2  0  0  0  0  0  0
  188.4330  173.4160  134.5920 N   0  0  0  0  0  2  0  0  0  0  0  0
  185.8040  176.8580  136.9730 C   0  0  2  0  0  0  0  0  0  0  0  0
  186.9640  176.6040  137.9610 C   0  0  0  0  0  2  0  0  0  0  0  0
  191.4850  173.1570  136.1870 N   0  0  0  0  0  0  0  0  0  0  0  0
  186.4000  175.1100  135.2950 C   0  0  0  0  0  3  0  0  0  0  0  0
  185.5490  175.6590  136.1330 C   0  0  0  0  0  0  0  0  0  0  0  0
  192.8730  172.7270  136.2350 C   0  0  0  0  0  1  0  0  0  0  0  0
  190.6930  171.5260  134.6830 O   0  0  0  0  0  0  0  0  0  0  0  0
  190.8940  174.0760  137.1400 C   0  0  2  0  0  3  0  0  0  0  0  0
  184.2750  173.7330  137.0790 C   0  0  0  0  0  2  0  0  0  0  0  0
  191.2490  176.0880  138.2840 C   0  0  0  0  0  2  0  0  0  0  0  0
  188.2960  176.3570  137.2820 C   0  0  0  0  0  0  0  0  0  0  0  0
  189.3340  177.4400  137.1170 C   0  0  2  0  0  3  0  0  0  0  0  0
  184.2260  175.1030  136.4180 C   0  0  1  0  0  0  0  0  0  0  0  0
  190.4600  172.4700  135.4830 C   0  0  0  0  0  0  0  0  0  0  0  0
  183.7430  173.8620  135.6590 C   0  0  1  0  0  3  0  0  0  0  0  0
  190.4910  177.4280  138.1470 C   0  0  1  0  0  3  0  0  0  0  0  0
  188.7460  178.8310  136.9320 C   0  0  0  0  0  1  0  0  0  0  0  0
  190.6530  177.5590  140.5860 C   0  0  0  0  0  0  0  0  0  0  0  0
  190.0150  177.8800  139.4930 C   0  0  0  0  0  3  0  0  0  0  0  0
  191.2880  177.2320  141.6780 C   0  0  0  0  0  3  0  0  0  0  0  0
  188.3480  177.9130  145.5810 C   0  0  0  0  0  2  0  0  0  0  0  0
  188.5270  176.7490  142.9560 C   0  0  0  0  0  2  0  0  0  0  0  0
  191.6040  178.5430  143.5940 O   0  0  0  0  0  0  0  0  0  0  0  0
  187.4760  176.2930  143.8710 N   0  0  0  0  0  2  0  0  0  0  0  0
  189.6490  177.2400  145.1550 C   0  0  0  0  0  2  0  0  0  0  0  0
  187.1270  177.3510  144.8290 C   0  0  2  0  0  3  0  0  0  0  0  0
  189.7150  177.1810  143.6980 N   0  0  0  0  0  0  0  0  0  0  0  0
  190.8820  177.6840  143.0220 C   0  0  0  0  0  0  0  0  0  0  0  0
  186.4100  178.4250  144.1560 N   0  0  0  0  0  2  0  0  0  0  0  0
  184.5990  178.1070  143.1150 O   0  0  0  0  0  1  0  0  0  0  0  0
  185.0880  178.1930  144.3340 O   0  0  0  0  0  0  0  0  0  0  0  0
  1  6  2  0  0  0  0
  2 10  2  0  0  0  0
  2  3  1  0  0  0  0
  4  7  1  0  0  0  0
  4 16  1  0  0  0  0
  5 12  1  6  0  0  0
  5  1  1  0  0  0  0
  6 23  2  0  0  0  0
  7 27  1  0  0  0  0
  9 12  1  0  0  0  0
  9  4  2  0  0  0  0
 11 20  1  0  0  0  0
 11 22  1  0  0  0  0
 13  8  1  6  0  0  0
 13 10  1  0  0  0  0
 13 14  1  0  0  0  0
 15 18  1  0  0  0  0
 15 20  1  0  0  0  0
 16 17  2  0  0  0  0
 17 25  1  0  0  0  0
 17 13  1  0  0  0  0
 19 26  2  0  0  0  0
 20  1  1  6  0  0  0
 23 14  1  0  0  0  0
 24 29  1  1  0  0  0
 24 23  1  0  0  0  0
 24 28  1  0  0  0  0
 25 21  1  1  0  0  0
 25  2  1  0  0  0  0
 26  5  1  0  0  0  0
 26 15  1  0  0  0  0
 27 25  1  0  0  0  0
 27 21  1  1  0  0  0
 28 22  1  0  0  0  0
 28 31  1  1  0  0  0
 30 32  2  0  0  0  0
 31 30  2  0  0  0  0
 32 40  1  0  0  0  0
 34 39  1  0  0  0  0
 34 36  1  0  0  0  0
 36 38  1  0  0  0  0
 37 33  1  0  0  0  0
 38 41  1  6  0  0  0
 38 33  1  0  0  0  0
 39 37  1  0  0  0  0
 40 35  2  0  0  0  0
 40 39  1  0  0  0  0
 41 43  1  0  0  0  0
 42 43  1  0  0  0  0
M  END
>  <MODEL>
2

>  <REMARK>
 VINA RESULT:      -8.1      1.857      2.838
  Name = 
  4 active torsions:
  status: ('A' for Active; 'I' for Inactive)
    1  A    between atoms: N_22  and  C_40
    2  A    between atoms: N_22  and  O_41
    3  A    between atoms: C_27  and  C_38
    4  A    between atoms: C_28  and  C_43
                            x       y       z     vdW  Elec       q    Type
                         _______ _______ _______ _____ _____    ______ ____

>  <TORSDO>
F 4

$$$$
=
 OpenBabel10232410303D

 43 49  0  0  1  0  0  0  0  0999 V2000
  187.4770  174.6530  137.0720 C   0  0  0  0  0  0  0  0  0  0  0  0
  183.2520  178.4470  139.5320 C   0  0  0  0  0  0  0  0  0  0  0  0
  182.2210  178.8200  140.5430 C   0  0  0  0  0  1  0  0  0  0  0  0
  183.6900  175.5680  136.4270 C   0  0  0  0  0  0  0  0  0  0  0  0
  186.4630  173.7350  136.4130 C   0  0  1  0  0  3  0  0  0  0  0  0
  187.2940  175.8980  137.4410 C   0  0  0  0  0  0  0  0  0  0  0  0
  182.3990  175.5710  136.9930 O   0  0  0  0  0  0  0  0  0  0  0  0
  185.5230  179.4640  137.3410 F   0  0  0  0  0  0  0  0  0  0  0  0
  184.1670  174.4970  135.7990 C   0  0  0  0  0  3  0  0  0  0  0  0
  184.4460  179.0510  139.4170 C   0  0  0  0  0  3  0  0  0  0  0  0
  189.7590  175.2470  136.3690 N   0  0  0  0  0  2  0  0  0  0  0  0
  185.5650  174.4160  135.4830 N   0  0  0  0  0  2  0  0  0  0  0  0
  185.2720  178.4790  138.2800 C   0  0  2  0  0  0  0  0  0  0  0  0
  186.5800  177.8360  138.7910 C   0  0  0  0  0  2  0  0  0  0  0  0
  188.7480  173.1300  135.8530 N   0  0  0  0  0  0  0  0  0  0  0  0
  184.5980  176.6700  136.7000 C   0  0  0  0  0  3  0  0  0  0  0  0
  184.3520  177.4510  137.7280 C   0  0  0  0  0  0  0  0  0  0  0  0
  189.8380  172.2650  135.4320 C   0  0  0  0  0  1  0  0  0  0  0  0
  186.9720  171.8850  134.9340 O   0  0  0  0  0  0  0  0  0  0  0  0
  188.8880  174.1710  136.8520 C   0  0  2  0  0  3  0  0  0  0  0  0
  183.0080  176.0320  139.2800 C   0  0  0  0  0  2  0  0  0  0  0  0
  190.2650  175.9280  137.5610 C   0  0  0  0  0  2  0  0  0  0  0  0
  187.3980  177.1780  137.6990 C   0  0  0  0  0  0  0  0  0  0  0  0
  188.5760  177.8610  137.0450 C   0  0  2  0  0  3  0  0  0  0  0  0
  183.1390  177.3560  138.5400 C   0  0  1  0  0  0  0  0  0  0  0  0
  187.3720  172.8350  135.6570 C   0  0  0  0  0  0  0  0  0  0  0  0
  182.0410  176.3600  138.1530 C   0  0  1  0  0  3  0  0  0  0  0  0
  189.9720  177.4450  137.5690 C   0  0  1  0  0  3  0  0  0  0  0  0
  188.4280  179.3720  136.9420 C   0  0  0  0  0  1  0  0  0  0  0  0
  189.9330  177.3160  140.0140 C   0  0  0  0  0  0  0  0  0  0  0  0
  190.2180  178.0000  138.9390 C   0  0  0  0  0  3  0  0  0  0  0  0
  189.6430  176.6330  141.0870 C   0  0  0  0  0  3  0  0  0  0  0  0
  188.6680  177.8540  145.7670 C   0  0  0  0  0  2  0  0  0  0  0  0
  187.5510  176.7800  143.3440 C   0  0  0  0  0  2  0  0  0  0  0  0
  190.9670  177.7580  142.6590 O   0  0  0  0  0  0  0  0  0  0  0  0
  186.8540  176.5560  144.6140 N   0  0  0  0  0  2  0  0  0  0  0  0
  189.5100  176.9050  144.9190 C   0  0  0  0  0  2  0  0  0  0  0  0
  187.1580  177.6300  145.5690 C   0  0  2  0  0  3  0  0  0  0  0  0
  188.9970  176.8860  143.5530 N   0  0  0  0  0  0  0  0  0  0  0  0
  189.9000  177.1190  142.4560 C   0  0  0  0  0  0  0  0  0  0  0  0
  186.5130  178.8690  145.1570 N   0  0  0  0  0  2  0  0  0  0  0  0
  185.4840  179.1950  146.9740 O   0  0  0  0  0  1  0  0  0  0  0  0
  185.2780  178.8790  145.7130 O   0  0  0  0  0  0  0  0  0  0  0  0
  1  6  2  0  0  0  0
  2  3  1  0  0  0  0
  4 16  1  0  0  0  0
  4  7  1  0  0  0  0
  5 12  1  6  0  0  0
  5  1  1  0  0  0  0
  6 23  2  0  0  0  0
  7 27  1  0  0  0  0
  9  4  2  0  0  0  0
 10  2  2  0  0  0  0
 11 22  1  0  0  0  0
 12  9  1  0  0  0  0
 13  8  1  6  0  0  0
 13 14  1  0  0  0  0
 13 10  1  0  0  0  0
 15 20  1  0  0  0  0
 16 17  2  0  0  0  0
 17 13  1  0  0  0  0
 17 25  1  0  0  0  0
 18 15  1  0  0  0  0
 19 26  2  0  0  0  0
 20 11  1  6  0  0  0
 20  1  1  0  0  0  0
 22 28  1  0  0  0  0
 23 14  1  0  0  0  0
 24 29  1  1  0  0  0
 24 28  1  0  0  0  0
 24 23  1  0  0  0  0
 25 21  1  1  0  0  0
 25  2  1  0  0  0  0
 26 15  1  0  0  0  0
 26  5  1  0  0  0  0
 27 25  1  0  0  0  0
 27 21  1  1  0  0  0
 28 31  1  1  0  0  0
 30 32  2  0  0  0  0
 31 30  2  0  0  0  0
 32 40  1  0  0  0  0
 34 39  1  0  0  0  0
 34 36  1  0  0  0  0
 36 38  1  0  0  0  0
 37 33  1  0  0  0  0
 38 41  1  6  0  0  0
 38 33  1  0  0  0  0
 39 37  1  0  0  0  0
 40 35  2  0  0  0  0
 40 39  1  0  0  0  0
 41 43  1  0  0  0  0
 43 42  1  0  0  0  0
M  END
>  <MODEL>
3

>  <REMARK>
 VINA RESULT:      -7.9      2.441      3.953
  Name = 
  4 active torsions:
  status: ('A' for Active; 'I' for Inactive)
    1  A    between atoms: N_22  and  C_40
    2  A    between atoms: N_22  and  O_41
    3  A    between atoms: C_27  and  C_38
    4  A    between atoms: C_28  and  C_43
                            x       y       z     vdW  Elec       q    Type
                         _______ _______ _______ _____ _____    ______ ____

>  <TORSDO>
F 4

$$$$
=
 OpenBabel10232410303D

 43 49  0  0  1  0  0  0  0  0999 V2000
  185.6400  177.9600  143.7210 C   0  0  0  0  0  0  0  0  0  0  0  0
  190.8760  176.5400  146.7000 C   0  0  0  0  0  0  0  0  0  0  0  0
  191.7500  175.6410  147.5060 C   0  0  0  0  0  1  0  0  0  0  0  0
  187.2460  178.6960  147.2530 C   0  0  0  0  0  0  0  0  0  0  0  0
  184.8560  178.2870  144.9790 C   0  0  1  0  0  3  0  0  0  0  0  0
  186.9440  177.9590  143.5790 C   0  0  0  0  0  0  0  0  0  0  0  0
  187.7200  178.1060  148.4420 O   0  0  0  0  0  0  0  0  0  0  0  0
  190.6710  179.0170  144.5050 F   0  0  0  0  0  0  0  0  0  0  0  0
  185.9630  179.0050  147.0980 C   0  0  0  0  0  3  0  0  0  0  0  0
  191.1140  176.8700  145.4190 C   0  0  0  0  0  3  0  0  0  0  0  0
  185.4430  178.8920  141.4530 N   0  0  0  0  0  2  0  0  0  0  0  0
  185.4580  179.3390  145.7960 N   0  0  0  0  0  2  0  0  0  0  0  0
  190.0700  177.8250  144.8690 C   0  0  2  0  0  0  0  0  0  0  0  0
  189.2890  177.2010  143.6920 C   0  0  0  0  0  2  0  0  0  0  0  0
  183.5800  178.7350  142.9610 N   0  0  0  0  0  0  0  0  0  0  0  0
  188.1230  178.7880  146.0970 C   0  0  0  0  0  3  0  0  0  0  0  0
  189.1890  178.0200  146.0500 C   0  0  0  0  0  0  0  0  0  0  0  0
  182.3930  178.9300  142.1450 C   0  0  0  0  0  1  0  0  0  0  0  0
  182.6080  179.1860  145.0590 O   0  0  0  0  0  0  0  0  0  0  0  0
  184.7860  178.0850  142.4860 C   0  0  2  0  0  3  0  0  0  0  0  0
  188.6200  176.0750  147.5040 C   0  0  0  0  0  2  0  0  0  0  0  0
  186.2750  177.9680  140.6820 C   0  0  0  0  0  2  0  0  0  0  0  0
  188.1790  178.0870  143.1640 C   0  0  0  0  0  0  0  0  0  0  0  0
  188.3490  178.9540  141.9400 C   0  0  2  0  0  3  0  0  0  0  0  0
  189.6190  177.1700  147.1590 C   0  0  1  0  0  0  0  0  0  0  0  0
  183.5910  178.7850  144.3820 C   0  0  0  0  0  0  0  0  0  0  0  0
  188.8560  177.2110  148.4890 C   0  0  1  0  0  3  0  0  0  0  0  0
  187.7610  178.3870  140.6240 C   0  0  1  0  0  3  0  0  0  0  0  0
  189.7640  179.4840  141.7550 C   0  0  0  0  0  1  0  0  0  0  0  0
  188.8880  177.1310  138.8500 C   0  0  0  0  0  0  0  0  0  0  0  0
  188.5890  177.2470  140.1160 C   0  0  0  0  0  3  0  0  0  0  0  0
  189.1820  177.0150  137.5840 C   0  0  0  0  0  3  0  0  0  0  0  0
  193.2840  174.4300  136.6720 C   0  0  0  0  0  2  0  0  0  0  0  0
  192.2170  176.7310  138.0290 C   0  0  0  0  0  2  0  0  0  0  0  0
  189.5390  175.2180  136.1230 O   0  0  0  0  0  0  0  0  0  0  0  0
  193.5220  176.2010  138.4370 N   0  0  0  0  0  2  0  0  0  0  0  0
  191.9200  174.3270  137.3460 C   0  0  0  0  0  2  0  0  0  0  0  0
  194.1730  175.5100  137.3170 C   0  0  2  0  0  3  0  0  0  0  0  0
  191.3560  175.6630  137.5150 N   0  0  0  0  0  0  0  0  0  0  0  0
  190.0240  175.9330  137.0400 C   0  0  0  0  0  0  0  0  0  0  0  0
  194.6090  176.4710  136.3150 N   0  0  0  0  0  2  0  0  0  0  0  0
  196.3810  177.2540  135.4710 O   0  0  0  0  0  1  0  0  0  0  0  0
  195.8810  176.1480  135.9790 O   0  0  0  0  0  0  0  0  0  0  0  0
  2 25  1  0  0  0  0
  2  3  1  0  0  0  0
  4  7  1  0  0  0  0
  5  1  1  6  0  0  0
  5 12  1  0  0  0  0
  6  1  2  0  0  0  0
  7 27  1  0  0  0  0
  9  4  2  0  0  0  0
 10  2  2  0  0  0  0
 12  9  1  0  0  0  0
 13  8  1  6  0  0  0
 13 10  1  0  0  0  0
 13 17  1  0  0  0  0
 14 13  1  0  0  0  0
 15 26  1  0  0  0  0
 16  4  1  0  0  0  0
 17 16  2  0  0  0  0
 17 25  1  0  0  0  0
 18 15  1  0  0  0  0
 20 11  1  6  0  0  0
 20 15  1  0  0  0  0
 20  1  1  0  0  0  0
 22 11  1  0  0  0  0
 23  6  2  0  0  0  0
 23 14  1  0  0  0  0
 24 29  1  6  0  0  0
 24 23  1  0  0  0  0
 25 21  1  6  0  0  0
 25 27  1  0  0  0  0
 26  5  1  0  0  0  0
 26 19  2  0  0  0  0
 27 21  1  6  0  0  0
 28 31  1  1  0  0  0
 28 22  1  0  0  0  0
 28 24  1  0  0  0  0
 30 31  2  0  0  0  0
 32 30  2  0  0  0  0
 33 38  1  0  0  0  0
 33 37  1  0  0  0  0
 34 36  1  0  0  0  0
 35 40  2  0  0  0  0
 37 39  1  0  0  0  0
 38 41  1  6  0  0  0
 38 36  1  0  0  0  0
 39 34  1  0  0  0  0
 40 39  1  0  0  0  0
 40 32  1  0  0  0  0
 42 43  1  0  0  0  0
 43 41  1  0  0  0  0
M  END
>  <MODEL>
4

>  <REMARK>
 VINA RESULT:      -7.8      3.833     10.254
  Name = 
  4 active torsions:
  status: ('A' for Active; 'I' for Inactive)
    1  A    between atoms: N_22  and  C_40
    2  A    between atoms: N_22  and  O_41
    3  A    between atoms: C_27  and  C_38
    4  A    between atoms: C_28  and  C_43
                            x       y       z     vdW  Elec       q    Type
                         _______ _______ _______ _____ _____    ______ ____

>  <TORSDO>
F 4

$$$$
=
 OpenBabel10232410303D

 43 49  0  0  1  0  0  0  0  0999 V2000
  191.9970  173.9090  137.0270 C   0  0  0  0  0  0  0  0  0  0  0  0
  185.8320  173.3820  136.9050 C   0  0  0  0  0  0  0  0  0  0  0  0
  184.5410  172.7340  137.2750 C   0  0  0  0  0  1  0  0  0  0  0  0
  189.2720  172.4080  134.5940 C   0  0  0  0  0  0  0  0  0  0  0  0
  192.2460  172.7910  136.0300 C   0  0  1  0  0  3  0  0  0  0  0  0
  190.8960  174.6050  137.1760 C   0  0  0  0  0  0  0  0  0  0  0  0
  188.2440  171.4520  134.4750 O   0  0  0  0  0  0  0  0  0  0  0  0
  187.4190  176.1480  135.9950 F   0  0  0  0  0  0  0  0  0  0  0  0
  190.5400  172.0950  134.3460 C   0  0  0  0  0  3  0  0  0  0  0  0
  186.2130  174.5980  137.3310 C   0  0  0  0  0  3  0  0  0  0  0  0
  193.2920  175.9570  137.4550 N   0  0  0  0  0  2  0  0  0  0  0  0
  191.5900  172.9910  134.7400 N   0  0  0  0  0  2  0  0  0  0  0  0
  187.5600  175.0080  136.7680 C   0  0  2  0  0  0  0  0  0  0  0  0
  188.6100  175.2060  137.8830 C   0  0  0  0  0  2  0  0  0  0  0  0
  194.2980  173.9210  136.6710 N   0  0  0  0  0  0  0  0  0  0  0  0
  188.9850  173.7040  135.1880 C   0  0  0  0  0  3  0  0  0  0  0  0
  187.9000  173.8370  135.9180 C   0  0  0  0  0  0  0  0  0  0  0  0
  195.7270  174.0810  136.8800 C   0  0  0  0  0  1  0  0  0  0  0  0
  194.3950  172.1620  135.1070 O   0  0  0  0  0  0  0  0  0  0  0  0
  193.2890  174.4930  137.5400 C   0  0  2  0  0  3  0  0  0  0  0  0
  187.4130  171.5310  136.7380 C   0  0  0  0  0  2  0  0  0  0  0  0
  192.6790  176.4380  138.6930 C   0  0  0  0  0  2  0  0  0  0  0  0
  189.9940  175.5360  137.3620 C   0  0  0  0  0  0  0  0  0  0  0  0
  190.5210  176.9490  137.3010 C   0  0  2  0  0  3  0  0  0  0  0  0
  186.8900  172.7890  136.0590 C   0  0  1  0  0  0  0  0  0  0  0  0
  193.7170  172.9060  135.8640 C   0  0  0  0  0  0  0  0  0  0  0  0
  187.0310  171.4850  135.2660 C   0  0  1  0  0  3  0  0  0  0  0  0
  191.4670  177.3660  138.4550 C   0  0  1  0  0  3  0  0  0  0  0  0
  189.4470  177.9940  137.0340 C   0  0  0  0  0  1  0  0  0  0  0  0
  191.3110  177.5540  140.8910 C   0  0  0  0  0  0  0  0  0  0  0  0
  190.7070  177.5440  139.7330 C   0  0  0  0  0  3  0  0  0  0  0  0
  191.9150  177.5580  142.0480 C   0  0  0  0  0  3  0  0  0  0  0  0
  188.2460  177.3830  145.3400 C   0  0  0  0  0  2  0  0  0  0  0  0
  189.0430  176.6400  142.6780 C   0  0  0  0  0  2  0  0  0  0  0  0
  191.7140  178.5960  144.1380 O   0  0  0  0  0  0  0  0  0  0  0  0
  187.9030  175.9590  143.3000 N   0  0  0  0  0  2  0  0  0  0  0  0
  189.6740  176.9030  145.1010 C   0  0  0  0  0  2  0  0  0  0  0  0
  187.2610  176.8280  144.2950 C   0  0  2  0  0  3  0  0  0  0  0  0
  190.0140  177.0650  143.6910 N   0  0  0  0  0  0  0  0  0  0  0  0
  191.2180  177.7680  143.3300 C   0  0  0  0  0  0  0  0  0  0  0  0
  186.5580  177.9180  143.6350 N   0  0  0  0  0  2  0  0  0  0  0  0
  185.2680  179.2390  144.6640 O   0  0  0  0  0  1  0  0  0  0  0  0
  185.3330  178.0060  144.2070 O   0  0  0  0  0  0  0  0  0  0  0  0
  1  6  2  0  0  0  0
  2  3  1  0  0  0  0
  2 10  2  0  0  0  0
  4 16  1  0  0  0  0
  5 12  1  6  0  0  0
  5  1  1  0  0  0  0
  6 23  2  0  0  0  0
  7  4  1  0  0  0  0
  7 27  1  0  0  0  0
  9  4  2  0  0  0  0
  9 12  1  0  0  0  0
 11 20  1  0  0  0  0
 11 22  1  0  0  0  0
 13  8  1  6  0  0  0
 13 10  1  0  0  0  0
 13 14  1  0  0  0  0
 15 18  1  0  0  0  0
 15 20  1  0  0  0  0
 16 17  2  0  0  0  0
 17 25  1  0  0  0  0
 17 13  1  0  0  0  0
 19 26  2  0  0  0  0
 20  1  1  6  0  0  0
 23 14  1  0  0  0  0
 24 29  1  1  0  0  0
 24 23  1  0  0  0  0
 24 28  1  0  0  0  0
 25 21  1  1  0  0  0
 25  2  1  0  0  0  0
 26  5  1  0  0  0  0
 26 15  1  0  0  0  0
 27 25  1  0  0  0  0
 27 21  1  1  0  0  0
 28 22  1  0  0  0  0
 28 31  1  1  0  0  0
 30 32  2  0  0  0  0
 31 30  2  0  0  0  0
 32 40  1  0  0  0  0
 34 36  1  0  0  0  0
 34 39  1  0  0  0  0
 36 38  1  0  0  0  0
 37 33  1  0  0  0  0
 38 41  1  6  0  0  0
 38 33  1  0  0  0  0
 39 37  1  0  0  0  0
 40 39  1  0  0  0  0
 40 35  2  0  0  0  0
 41 43  1  0  0  0  0
 43 42  1  0  0  0  0
M  END
>  <MODEL>
5

>  <REMARK>
 VINA RESULT:      -7.5      1.938      2.983
  Name = 
  4 active torsions:
  status: ('A' for Active; 'I' for Inactive)
    1  A    between atoms: N_22  and  C_40
    2  A    between atoms: N_22  and  O_41
    3  A    between atoms: C_27  and  C_38
    4  A    between atoms: C_28  and  C_43
                            x       y       z     vdW  Elec       q    Type
                         _______ _______ _______ _____ _____    ______ ____

>  <TORSDO>
F 4

$$$$
=
 OpenBabel10232410303D

 43 49  0  0  1  0  0  0  0  0999 V2000
  189.0910  173.9400  136.2730 C   0  0  0  0  0  0  0  0  0  0  0  0
  183.0750  174.9090  137.3550 C   0  0  0  0  0  0  0  0  0  0  0  0
  181.7930  174.6660  138.0770 C   0  0  0  0  0  1  0  0  0  0  0  0
  185.6510  172.7530  134.7390 C   0  0  0  0  0  0  0  0  0  0  0  0
  188.8820  172.6420  135.5140 C   0  0  1  0  0  3  0  0  0  0  0  0
  188.2150  174.8960  136.4610 C   0  0  0  0  0  0  0  0  0  0  0  0
  184.4490  172.0680  135.0120 O   0  0  0  0  0  0  0  0  0  0  0  0
  184.9490  177.0110  135.6060 F   0  0  0  0  0  0  0  0  0  0  0  0
  186.7430  172.1040  134.3460 C   0  0  0  0  0  3  0  0  0  0  0  0
  183.7790  176.0510  137.4350 C   0  0  0  0  0  3  0  0  0  0  0  0
  190.8360  175.6540  136.0160 N   0  0  0  0  0  2  0  0  0  0  0  0
  188.0120  172.7720  134.3460 N   0  0  0  0  0  2  0  0  0  0  0  0
  185.0240  176.0200  136.5680 C   0  0  2  0  0  0  0  0  0  0  0  0
  186.3110  176.1450  137.4120 C   0  0  0  0  0  2  0  0  0  0  0  0
  191.2100  173.3330  135.5240 N   0  0  0  0  0  0  0  0  0  0  0  0
  185.7700  174.1610  135.0810 C   0  0  0  0  0  3  0  0  0  0  0  0
  184.9230  174.6750  135.9450 C   0  0  0  0  0  0  0  0  0  0  0  0
  192.6530  173.1750  135.4390 C   0  0  0  0  0  1  0  0  0  0  0  0
  190.6010  171.3640  134.3840 O   0  0  0  0  0  0  0  0  0  0  0  0
  190.5550  174.2710  136.4130 C   0  0  2  0  0  3  0  0  0  0  0  0
  184.1720  172.7300  137.3150 C   0  0  0  0  0  2  0  0  0  0  0  0
  190.6210  176.4730  137.2090 C   0  0  0  0  0  2  0  0  0  0  0  0
  187.5830  176.0360  136.5970 C   0  0  0  0  0  0  0  0  0  0  0  0
  188.3600  177.2480  136.1420 C   0  0  2  0  0  3  0  0  0  0  0  0
  183.7780  173.9420  136.4830 C   0  0  1  0  0  0  0  0  0  0  0  0
  190.2720  172.3670  135.0700 C   0  0  0  0  0  0  0  0  0  0  0  0
  183.4730  172.5270  135.9780 C   0  0  1  0  0  3  0  0  0  0  0  0
  189.6010  177.6130  136.9940 C   0  0  1  0  0  3  0  0  0  0  0  0
  187.4880  178.4610  135.8490 C   0  0  0  0  0  1  0  0  0  0  0  0
  189.2730  177.4840  139.4160 C   0  0  0  0  0  0  0  0  0  0  0  0
  189.1930  178.1840  138.3170 C   0  0  0  0  0  3  0  0  0  0  0  0
  189.3490  176.7810  140.5140 C   0  0  0  0  0  3  0  0  0  0  0  0
  190.0270  178.3030  145.1570 C   0  0  0  0  0  2  0  0  0  0  0  0
  191.3440  177.3080  142.8010 C   0  0  0  0  0  2  0  0  0  0  0  0
  187.7800  177.3060  142.1730 O   0  0  0  0  0  0  0  0  0  0  0  0
  192.1360  177.9910  143.8290 N   0  0  0  0  0  2  0  0  0  0  0  0
  189.5600  178.7850  143.7880 C   0  0  0  0  0  2  0  0  0  0  0  0
  191.5010  177.8550  145.1470 C   0  0  2  0  0  3  0  0  0  0  0  0
  189.9750  177.8280  142.7660 N   0  0  0  0  0  0  0  0  0  0  0  0
  188.9970  177.3090  141.8440 C   0  0  0  0  0  0  0  0  0  0  0  0
  191.6160  176.4860  145.6250 N   0  0  0  0  0  2  0  0  0  0  0  0
  192.0160  175.7610  147.5700 O   0  0  0  0  0  1  0  0  0  0  0  0
  191.1340  176.4640  146.8910 O   0  0  0  0  0  0  0  0  0  0  0  0
  1 20  1  0  0  0  0
  1  6  2  0  0  0  0
  2 10  2  0  0  0  0
  2  3  1  0  0  0  0
  4  7  1  0  0  0  0
  4 16  1  0  0  0  0
  5 12  1  6  0  0  0
  5  1  1  0  0  0  0
  6 23  2  0  0  0  0
  7 27  1  0  0  0  0
  9 12  1  0  0  0  0
  9  4  2  0  0  0  0
 11 22  1  0  0  0  0
 13  8  1  6  0  0  0
 13 14  1  0  0  0  0
 13 10  1  0  0  0  0
 15 20  1  0  0  0  0
 16 17  2  0  0  0  0
 17 25  1  0  0  0  0
 17 13  1  0  0  0  0
 18 15  1  0  0  0  0
 19 26  2  0  0  0  0
 20 11  1  6  0  0  0
 23 14  1  0  0  0  0
 24 29  1  1  0  0  0
 24 23  1  0  0  0  0
 24 28  1  0  0  0  0
 25 21  1  1  0  0  0
 25  2  1  0  0  0  0
 26  5  1  0  0  0  0
 26 15  1  0  0  0  0
 27 25  1  0  0  0  0
 27 21  1  1  0  0  0
 28 22  1  0  0  0  0
 28 31  1  1  0  0  0
 30 32  2  0  0  0  0
 31 30  2  0  0  0  0
 32 40  1  0  0  0  0
 34 36  1  0  0  0  0
 36 38  1  0  0  0  0
 37 33  1  0  0  0  0
 38 33  1  0  0  0  0
 38 41  1  6  0  0  0
 39 34  1  0  0  0  0
 39 37  1  0  0  0  0
 40 35  2  0  0  0  0
 40 39  1  0  0  0  0
 41 43  1  0  0  0  0
 43 42  1  0  0  0  0
M  END
>  <MODEL>
6

>  <REMARK>
 VINA RESULT:      -7.4      1.458      1.801
  Name = 
  4 active torsions:
  status: ('A' for Active; 'I' for Inactive)
    1  A    between atoms: N_22  and  C_40
    2  A    between atoms: N_22  and  O_41
    3  A    between atoms: C_27  and  C_38
    4  A    between atoms: C_28  and  C_43
                            x       y       z     vdW  Elec       q    Type
                         _______ _______ _______ _____ _____    ______ ____

>  <TORSDO>
F 4

$$$$
=
 OpenBabel10232410303D

 43 49  0  0  1  0  0  0  0  0999 V2000
  185.7890  175.4980  137.0750 C   0  0  0  0  0  0  0  0  0  0  0  0
  189.2380  178.1740  141.4620 C   0  0  0  0  0  0  0  0  0  0  0  0
  189.7270  178.3360  142.8610 C   0  0  0  0  0  1  0  0  0  0  0  0
  185.5910  178.7290  139.3370 C   0  0  0  0  0  0  0  0  0  0  0  0
  184.5040  176.2050  137.4680 C   0  0  1  0  0  3  0  0  0  0  0  0
  187.0150  175.8830  137.3360 C   0  0  0  0  0  0  0  0  0  0  0  0
  185.5280  179.1960  140.6660 O   0  0  0  0  0  0  0  0  0  0  0  0
  189.8460  178.5420  138.2230 F   0  0  0  0  0  0  0  0  0  0  0  0
  184.4920  178.3910  138.6700 C   0  0  0  0  0  3  0  0  0  0  0  0
  189.9960  177.7240  140.4480 C   0  0  0  0  0  3  0  0  0  0  0  0
  186.5530  174.7240  134.8690 N   0  0  0  0  0  2  0  0  0  0  0  0
  184.5970  177.6630  137.4380 N   0  0  0  0  0  2  0  0  0  0  0  0
  189.2380  177.6950  139.1340 C   0  0  2  0  0  0  0  0  0  0  0  0
  189.1140  176.2600  138.5780 C   0  0  0  0  0  2  0  0  0  0  0  0
  184.2310  174.8470  135.4720 N   0  0  0  0  0  0  0  0  0  0  0  0
  186.8810  178.4160  138.7450 C   0  0  0  0  0  3  0  0  0  0  0  0
  187.9110  178.2260  139.5400 C   0  0  0  0  0  0  0  0  0  0  0  0
  183.5220  174.0660  134.4720 C   0  0  0  0  0  1  0  0  0  0  0  0
  182.3950  176.0800  136.2830 O   0  0  0  0  0  0  0  0  0  0  0  0
  185.5680  174.5340  135.9380 C   0  0  2  0  0  3  0  0  0  0  0  0
  186.9030  177.5110  141.7070 C   0  0  0  0  0  2  0  0  0  0  0  0
  187.7090  173.9040  135.2300 C   0  0  0  0  0  2  0  0  0  0  0  0
  188.2920  176.1710  137.3070 C   0  0  0  0  0  0  0  0  0  0  0  0
  188.9230  176.1130  135.9370 C   0  0  2  0  0  3  0  0  0  0  0  0
  187.8640  178.4440  140.9850 C   0  0  1  0  0  0  0  0  0  0  0  0
  183.6040  175.7410  136.3810 C   0  0  0  0  0  0  0  0  0  0  0  0
  186.5890  178.9980  141.6300 C   0  0  1  0  0  3  0  0  0  0  0  0
  189.0290  174.7040  135.3020 C   0  0  1  0  0  3  0  0  0  0  0  0
  190.2270  176.8900  135.8290 C   0  0  0  0  0  1  0  0  0  0  0  0
  191.2930  173.7980  135.5120 C   0  0  0  0  0  0  0  0  0  0  0  0
  190.0800  173.8860  135.9870 C   0  0  0  0  0  3  0  0  0  0  0  0
  192.5040  173.7060  135.0320 C   0  0  0  0  0  3  0  0  0  0  0  0
  196.2990  172.8380  138.0620 C   0  0  0  0  0  2  0  0  0  0  0  0
  194.3780  174.8050  137.2160 C   0  0  0  0  0  2  0  0  0  0  0  0
  193.9450  171.8630  135.1540 O   0  0  0  0  0  0  0  0  0  0  0  0
  195.0710  174.9860  138.4960 N   0  0  0  0  0  2  0  0  0  0  0  0
  194.8690  172.3980  137.7660 C   0  0  0  0  0  2  0  0  0  0  0  0
  196.3800  174.3200  138.4750 C   0  0  2  0  0  3  0  0  0  0  0  0
  194.2250  173.3820  136.9020 N   0  0  0  0  0  0  0  0  0  0  0  0
  193.5840  172.9450  135.6880 C   0  0  0  0  0  0  0  0  0  0  0  0
  197.2980  175.0370  137.6020 N   0  0  0  0  0  2  0  0  0  0  0  0
  198.5130  175.8340  139.1370 O   0  0  0  0  0  1  0  0  0  0  0  0
  198.5290  174.9510  138.1610 O   0  0  0  0  0  0  0  0  0  0  0  0
  1  6  2  0  0  0  0
  1  5  1  0  0  0  0
  2  3  1  0  0  0  0
  4  7  1  0  0  0  0
  5 26  1  6  0  0  0
  7 27  1  0  0  0  0
  9  4  2  0  0  0  0
 10  2  2  0  0  0  0
 11 22  1  0  0  0  0
 12  5  1  0  0  0  0
 12  9  1  0  0  0  0
 13  8  1  6  0  0  0
 13 17  1  0  0  0  0
 13 10  1  0  0  0  0
 14 13  1  0  0  0  0
 15 20  1  0  0  0  0
 15 26  1  0  0  0  0
 16  4  1  0  0  0  0
 16 17  2  0  0  0  0
 17 25  1  0  0  0  0
 18 15  1  0  0  0  0
 19 26  2  0  0  0  0
 20 11  1  6  0  0  0
 20  1  1  0  0  0  0
 22 28  1  0  0  0  0
 23  6  2  0  0  0  0
 23 14  1  0  0  0  0
 24 29  1  1  0  0  0
 24 23  1  0  0  0  0
 25  2  1  0  0  0  0
 25 27  1  0  0  0  0
 25 21  1  1  0  0  0
 27 21  1  1  0  0  0
 28 24  1  0  0  0  0
 28 31  1  1  0  0  0
 30 31  2  0  0  0  0
 32 30  2  0  0  0  0
 32 40  1  0  0  0  0
 33 38  1  0  0  0  0
 34 36  1  0  0  0  0
 35 40  2  0  0  0  0
 37 33  1  0  0  0  0
 38 41  1  6  0  0  0
 38 36  1  0  0  0  0
 39 34  1  0  0  0  0
 39 37  1  0  0  0  0
 40 39  1  0  0  0  0
 41 43  1  0  0  0  0
 43 42  1  0  0  0  0
M  END
>  <MODEL>
7

>  <REMARK>
 VINA RESULT:      -7.1      3.886      7.805
  Name = 
  4 active torsions:
  status: ('A' for Active; 'I' for Inactive)
    1  A    between atoms: N_22  and  C_40
    2  A    between atoms: N_22  and  O_41
    3  A    between atoms: C_27  and  C_38
    4  A    between atoms: C_28  and  C_43
                            x       y       z     vdW  Elec       q    Type
                         _______ _______ _______ _____ _____    ______ ____

>  <TORSDO>
F 4

$$$$
=
 OpenBabel10232410303D

 43 49  0  0  1  0  0  0  0  0999 V2000
  184.9740  177.4770  138.6050 C   0  0  0  0  0  0  0  0  0  0  0  0
  189.8690  176.7890  142.3280 C   0  0  0  0  0  0  0  0  0  0  0  0
  190.6560  176.0840  143.3800 C   0  0  0  0  0  1  0  0  0  0  0  0
  186.1930  178.9210  142.0730 C   0  0  0  0  0  0  0  0  0  0  0  0
  184.0590  178.0220  139.6880 C   0  0  1  0  0  3  0  0  0  0  0  0
  186.2840  177.4810  138.6020 C   0  0  0  0  0  0  0  0  0  0  0  0
  186.5400  178.5840  143.3970 O   0  0  0  0  0  0  0  0  0  0  0  0
  189.8880  178.7890  139.6830 F   0  0  0  0  0  0  0  0  0  0  0  0
  184.9320  179.1630  141.7290 C   0  0  0  0  0  3  0  0  0  0  0  0
  190.2400  176.8710  141.0390 C   0  0  0  0  0  3  0  0  0  0  0  0
  185.0140  177.9480  136.1910 N   0  0  0  0  0  2  0  0  0  0  0  0
  184.5670  179.2260  140.3420 N   0  0  0  0  0  2  0  0  0  0  0  0
  189.2570  177.6750  140.2090 C   0  0  2  0  0  0  0  0  0  0  0  0
  188.6070  176.8170  139.1020 C   0  0  0  0  0  2  0  0  0  0  0  0
  183.0020  178.0400  137.5010 N   0  0  0  0  0  0  0  0  0  0  0  0
  187.1880  178.8100  141.0180 C   0  0  0  0  0  3  0  0  0  0  0  0
  188.2550  178.0740  141.2320 C   0  0  0  0  0  0  0  0  0  0  0  0
  181.9080  178.0450  136.5440 C   0  0  0  0  0  1  0  0  0  0  0  0
  181.8120  178.8640  139.3590 O   0  0  0  0  0  0  0  0  0  0  0  0
  184.2540  177.3400  137.2880 C   0  0  2  0  0  3  0  0  0  0  0  0
  187.5430  176.4320  142.9710 C   0  0  0  0  0  2  0  0  0  0  0  0
  185.9270  176.9130  135.7060 C   0  0  0  0  0  2  0  0  0  0  0  0
  187.5570  177.5560  138.2990 C   0  0  0  0  0  0  0  0  0  0  0  0
  187.8520  178.1750  136.9540 C   0  0  2  0  0  3  0  0  0  0  0  0
  188.5680  177.4650  142.5240 C   0  0  1  0  0  0  0  0  0  0  0  0
  182.8620  178.3640  138.8780 C   0  0  0  0  0  0  0  0  0  0  0  0
  187.6690  177.7430  143.7340 C   0  0  1  0  0  3  0  0  0  0  0  0
  187.4090  177.3490  135.7210 C   0  0  1  0  0  3  0  0  0  0  0  0
  189.2760  178.6930  136.8160 C   0  0  0  0  0  1  0  0  0  0  0  0
  189.5920  176.2540  135.5500 C   0  0  0  0  0  0  0  0  0  0  0  0
  188.2900  176.1530  135.5320 C   0  0  0  0  0  3  0  0  0  0  0  0
  190.8930  176.3570  135.5630 C   0  0  0  0  0  3  0  0  0  0  0  0
  194.8540  173.5300  136.3720 C   0  0  0  0  0  2  0  0  0  0  0  0
  193.5130  175.9590  137.1330 C   0  0  0  0  0  2  0  0  0  0  0  0
  191.6500  174.4590  134.4180 O   0  0  0  0  0  0  0  0  0  0  0  0
  194.5310  175.3940  138.0250 N   0  0  0  0  0  2  0  0  0  0  0  0
  193.3330  173.5340  136.4840 C   0  0  0  0  0  2  0  0  0  0  0  0
  195.5070  174.6040  137.2620 C   0  0  2  0  0  3  0  0  0  0  0  0
  192.8380  174.9020  136.3750 N   0  0  0  0  0  0  0  0  0  0  0  0
  191.8030  175.2060  135.4210 C   0  0  0  0  0  0  0  0  0  0  0  0
  196.3500  175.4800  136.4610 N   0  0  0  0  0  2  0  0  0  0  0  0
  198.3980  175.4130  135.9440 O   0  0  0  0  0  1  0  0  0  0  0  0
  197.5970  175.4240  136.9880 O   0  0  0  0  0  0  0  0  0  0  0  0
  2 25  1  0  0  0  0
  2  3  1  0  0  0  0
  4  7  1  0  0  0  0
  5  1  1  6  0  0  0
  5 12  1  0  0  0  0
  6  1  2  0  0  0  0
  7 27  1  0  0  0  0
  9  4  2  0  0  0  0
 10  2  2  0  0  0  0
 12  9  1  0  0  0  0
 13  8  1  6  0  0  0
 13 10  1  0  0  0  0
 13 17  1  0  0  0  0
 14 13  1  0  0  0  0
 15 26  1  0  0  0  0
 16 17  2  0  0  0  0
 16  4  1  0  0  0  0
 17 25  1  0  0  0  0
 18 15  1  0  0  0  0
 20 11  1  6  0  0  0
 20 15  1  0  0  0  0
 20  1  1  0  0  0  0
 22 28  1  0  0  0  0
 22 11  1  0  0  0  0
 23  6  2  0  0  0  0
 23 14  1  0  0  0  0
 24 29  1  6  0  0  0
 24 23  1  0  0  0  0
 25 21  1  6  0  0  0
 25 27  1  0  0  0  0
 26 19  2  0  0  0  0
 26  5  1  0  0  0  0
 27 21  1  6  0  0  0
 28 31  1  1  0  0  0
 28 24  1  0  0  0  0
 30 32  2  0  0  0  0
 31 30  2  0  0  0  0
 33 37  1  0  0  0  0
 33 38  1  0  0  0  0
 34 36  1  0  0  0  0
 35 40  2  0  0  0  0
 38 41  1  6  0  0  0
 38 36  1  0  0  0  0
 39 37  1  0  0  0  0
 39 34  1  0  0  0  0
 40 32  1  0  0  0  0
 40 39  1  0  0  0  0
 41 43  1  0  0  0  0
 42 43  1  0  0  0  0
M  END
>  <MODEL>
8

>  <REMARK>
 VINA RESULT:      -7.0      3.736      8.606
  Name = 
  4 active torsions:
  status: ('A' for Active; 'I' for Inactive)
    1  A    between atoms: N_22  and  C_40
    2  A    between atoms: N_22  and  O_41
    3  A    between atoms: C_27  and  C_38
    4  A    between atoms: C_28  and  C_43
                            x       y       z     vdW  Elec       q    Type
                         _______ _______ _______ _____ _____    ______ ____

>  <TORSDO>
F 4

$$$$
=
 OpenBabel10232410303D

 43 49  0  0  1  0  0  0  0  0999 V2000
  185.5980  177.9530  143.7870 C   0  0  0  0  0  0  0  0  0  0  0  0
  190.8020  176.4930  146.8010 C   0  0  0  0  0  0  0  0  0  0  0  0
  191.6650  175.5860  147.6120 C   0  0  0  0  0  1  0  0  0  0  0  0
  187.1820  178.6700  147.3330 C   0  0  0  0  0  0  0  0  0  0  0  0
  184.8060  178.2820  145.0400 C   0  0  1  0  0  3  0  0  0  0  0  0
  186.9020  177.9440  143.6550 C   0  0  0  0  0  0  0  0  0  0  0  0
  187.6430  178.0740  148.5240 O   0  0  0  0  0  0  0  0  0  0  0  0
  190.6290  178.9760  144.6110 F   0  0  0  0  0  0  0  0  0  0  0  0
  185.9020  178.9880  147.1690 C   0  0  0  0  0  3  0  0  0  0  0  0
  191.0510  176.8250  145.5230 C   0  0  0  0  0  3  0  0  0  0  0  0
  185.4230  178.8920  141.5200 N   0  0  0  0  0  2  0  0  0  0  0  0
  185.4090  179.3280  145.8640 N   0  0  0  0  0  2  0  0  0  0  0  0
  190.0180  177.7870  144.9670 C   0  0  2  0  0  0  0  0  0  0  0  0
  189.2410  177.1710  143.7840 C   0  0  0  0  0  2  0  0  0  0  0  0
  183.5480  178.7420  143.0150 N   0  0  0  0  0  0  0  0  0  0  0  0
  188.0680  178.7600  146.1830 C   0  0  0  0  0  3  0  0  0  0  0  0
  189.1290  177.9850  146.1420 C   0  0  0  0  0  0  0  0  0  0  0  0
  182.3690  178.9470  142.1900 C   0  0  0  0  0  1  0  0  0  0  0  0
  182.5640  179.1950  145.1060 O   0  0  0  0  0  0  0  0  0  0  0  0
  184.7530  178.0860  142.5460 C   0  0  2  0  0  3  0  0  0  0  0  0
  188.5370  176.0400  147.5880 C   0  0  0  0  0  2  0  0  0  0  0  0
  186.2550  177.9640  140.7530 C   0  0  0  0  0  2  0  0  0  0  0  0
  188.1410  178.0650  143.2490 C   0  0  0  0  0  0  0  0  0  0  0  0
  188.3250  178.9340  142.0280 C   0  0  2  0  0  3  0  0  0  0  0  0
  189.5460  177.1290  147.2530 C   0  0  1  0  0  0  0  0  0  0  0  0
  183.5480  178.7890  144.4350 C   0  0  0  0  0  0  0  0  0  0  0  0
  188.7740  177.1720  148.5760 C   0  0  1  0  0  3  0  0  0  0  0  0
  187.7440  178.3740  140.7070 C   0  0  1  0  0  3  0  0  0  0  0  0
  189.7450  179.4560  141.8550 C   0  0  0  0  0  1  0  0  0  0  0  0
  189.2840  177.3310  139.1140 C   0  0  0  0  0  0  0  0  0  0  0  0
  188.5680  177.2290  140.2020 C   0  0  0  0  0  3  0  0  0  0  0  0
  189.9940  177.4320  138.0240 C   0  0  0  0  0  3  0  0  0  0  0  0
  191.2710  173.5010  135.3310 C   0  0  0  0  0  2  0  0  0  0  0  0
  189.1650  175.3820  135.8790 C   0  0  0  0  0  2  0  0  0  0  0  0
  191.8940  176.0690  138.1540 O   0  0  0  0  0  0  0  0  0  0  0  0
  189.1250  174.6050  134.6360 N   0  0  0  0  0  2  0  0  0  0  0  0
  191.6280  174.9650  135.5710 C   0  0  0  0  0  2  0  0  0  0  0  0
  189.8360  173.3300  134.7990 C   0  0  2  0  0  3  0  0  0  0  0  0
  190.5470  175.6170  136.3040 N   0  0  0  0  0  0  0  0  0  0  0  0
  190.8500  176.3490  137.5070 C   0  0  0  0  0  0  0  0  0  0  0  0
  189.0800  172.4370  135.6640 N   0  0  0  0  0  2  0  0  0  0  0  0
  187.0220  171.9860  135.4930 O   0  0  0  0  0  1  0  0  0  0  0  0
  188.1740  171.8000  134.8850 O   0  0  0  0  0  0  0  0  0  0  0  0
  2 25  1  0  0  0  0
  2  3  1  0  0  0  0
  4  7  1  0  0  0  0
  5  1  1  6  0  0  0
  5 12  1  0  0  0  0
  6  1  2  0  0  0  0
  7 27  1  0  0  0  0
  9  4  2  0  0  0  0
 10  2  2  0  0  0  0
 12  9  1  0  0  0  0
 13  8  1  6  0  0  0
 13 10  1  0  0  0  0
 13 17  1  0  0  0  0
 14 13  1  0  0  0  0
 15 26  1  0  0  0  0
 16  4  1  0  0  0  0
 17 16  2  0  0  0  0
 17 25  1  0  0  0  0
 18 15  1  0  0  0  0
 20 11  1  6  0  0  0
 20 15  1  0  0  0  0
 20  1  1  0  0  0  0
 22 11  1  0  0  0  0
 23  6  2  0  0  0  0
 23 14  1  0  0  0  0
 24 29  1  6  0  0  0
 24 23  1  0  0  0  0
 25 21  1  6  0  0  0
 25 27  1  0  0  0  0
 26  5  1  0  0  0  0
 26 19  2  0  0  0  0
 27 21  1  6  0  0  0
 28 31  1  1  0  0  0
 28 22  1  0  0  0  0
 28 24  1  0  0  0  0
 30 31  2  0  0  0  0
 32 30  2  0  0  0  0
 33 37  1  0  0  0  0
 34 39  1  0  0  0  0
 36 38  1  0  0  0  0
 36 34  1  0  0  0  0
 37 39  1  0  0  0  0
 38 33  1  0  0  0  0
 38 41  1  1  0  0  0
 39 40  1  0  0  0  0
 40 32  1  0  0  0  0
 40 35  2  0  0  0  0
 43 42  1  0  0  0  0
 43 41  1  0  0  0  0
M  END
>  <MODEL>
9

>  <REMARK>
 VINA RESULT:      -6.8      3.587     10.657
  Name = 
  4 active torsions:
  status: ('A' for Active; 'I' for Inactive)
    1  A    between atoms: N_22  and  C_40
    2  A    between atoms: N_22  and  O_41
    3  A    between atoms: C_27  and  C_38
    4  A    between atoms: C_28  and  C_43
                            x       y       z     vdW  Elec       q    Type
                         _______ _______ _______ _____ _____    ______ ____

>  <TORSDO>
F 4

$$$$
