=
 OpenBabel10232410483D

 35 39  0  0  1  0  0  0  0  0999 V2000
  189.5240  177.8600  140.5320 C   0  0  1  0  0  3  0  0  0  0  0  0
  188.3090  177.5710  136.6250 C   0  0  0  0  0  3  0  0  0  0  0  0
  188.2980  177.9990  141.0330 C   0  0  0  0  0  0  0  0  0  0  0  0
  187.4080  178.4190  139.9450 C   0  0  0  0  0  0  0  0  0  0  0  0
  190.0780  177.1020  138.2820 C   0  0  0  0  0  0  0  0  0  0  0  0
  187.6010  178.3350  137.4700 C   0  0  0  0  0  3  0  0  0  0  0  0
  191.6600  176.8570  140.1120 O   0  0  0  0  0  0  0  0  0  0  0  0
  187.8600  177.4550  142.3520 C   0  0  0  0  0  1  0  0  0  0  0  0
  189.5480  176.8490  137.0550 C   0  0  0  0  0  0  0  0  0  0  0  0
  191.1410  176.2440  138.9430 C   0  0  0  0  0  2  0  0  0  0  0  0
  190.6290  176.9930  141.0790 C   0  0  1  0  0  3  0  0  0  0  0  0
  189.5590  178.2570  139.1020 C   0  0  1  0  0  3  0  0  0  0  0  0
  188.1180  178.4970  138.8300 C   0  0  2  0  0  3  0  0  0  0  0  0
  190.0920  175.8230  136.1310 C   0  0  0  0  0  0  0  0  0  0  0  0
  191.0530  176.1140  135.3720 O   0  0  0  0  0  0  0  0  0  0  0  0
  189.5800  174.4920  136.1100 N   0  0  0  0  0  1  0  0  0  0  0  0
  185.9760  178.4000  139.9700 N   0  0  0  0  0  2  0  0  0  0  0  0
  185.2170  179.4690  140.4730 N   0  0  0  0  0  2  0  0  0  0  0  0
  183.5690  178.9950  144.9580 C   0  0  0  0  0  3  0  0  0  0  0  0
  183.3930  178.8530  142.5950 N   0  0  0  0  0  0  0  0  0  0  0  0
  185.5240  179.5970  141.8400 N   0  0  0  0  0  2  0  0  0  0  0  0
  184.5700  179.2930  142.8600 C   0  0  0  0  0  0  0  0  0  0  0  0
  182.6350  178.6270  143.8100 C   0  0  0  0  0  3  0  0  0  0  0  0
  184.8620  179.4550  144.2980 C   0  0  0  0  0  2  0  0  0  0  0  0
  191.2070  177.6250  142.3360 C   0  0  0  0  0  2  0  0  0  0  0  0
  191.0300  176.6860  143.5160 C   0  0  0  0  0  2  0  0  0  0  0  0
  190.7760  177.4840  144.7840 C   0  0  2  0  0  3  0  0  0  0  0  0
  191.9330  176.1200  146.0970 C   0  0  0  0  0  1  0  0  0  0  0  0
  191.9030  177.4310  145.6110 O   0  0  0  0  0  0  0  0  0  0  0  0
  189.5810  176.8810  145.5080 C   0  0  0  0  0  2  0  0  0  0  0  0
  186.8670  178.1670  147.1570 C   0  0  0  0  0  2  0  0  0  0  0  0
  187.5140  177.6740  146.0150 O   0  0  0  0  0  0  0  0  0  0  0  0
  187.7950  177.9680  148.3190 C   0  0  0  0  0  2  0  0  0  0  0  0
  189.0990  177.7290  147.6330 C   0  0  0  0  0  2  0  0  0  0  0  0
  188.8410  177.9170  146.2150 N   0  0  0  0  0  0  0  0  0  0  0  0
  1  3  1  6  0  0  0
  1 11  1  0  0  0  0
  2  9  1  0  0  0  0
  2  6  2  0  0  0  0
  3  8  1  0  0  0  0
  4 17  1  0  0  0  0
  4  3  2  0  0  0  0
  5 10  1  0  0  0  0
  7 11  1  0  0  0  0
  9  5  2  0  0  0  0
 10  7  1  0  0  0  0
 11 25  1  1  0  0  0
 12  5  1  6  0  0  0
 12  1  1  0  0  0  0
 13  6  1  6  0  0  0
 13 12  1  0  0  0  0
 13  4  1  0  0  0  0
 14  9  1  0  0  0  0
 15 14  2  0  0  0  0
 16 14  1  0  0  0  0
 17 18  1  0  0  0  0
 18 21  1  0  0  0  0
 20 22  2  0  0  0  0
 20 23  1  0  0  0  0
 21 22  1  0  0  0  0
 22 24  1  0  0  0  0
 23 19  2  0  0  0  0
 24 19  1  0  0  0  0
 25 26  1  0  0  0  0
 27 26  1  6  0  0  0
 27 30  1  0  0  0  0
 27 29  1  0  0  0  0
 29 28  1  0  0  0  0
 30 35  1  0  0  0  0
 31 33  1  0  0  0  0
 32 35  1  0  0  0  0
 32 31  1  0  0  0  0
 34 33  1  0  0  0  0
 35 34  1  0  0  0  0
M  END
>  <MODEL>
1

>  <REMARK>
 VINA RESULT:      -8.4      0.000      0.000
  Name = 
  10 active torsions:
  status: ('A' for Active; 'I' for Inactive)
    1  A    between atoms: C_1  and  C_26
    2  A    between atoms: C_5  and  C_25
    3  A    between atoms: C_5  and  C_29
    4  A    between atoms: N_6  and  C_11
    5  A    between atoms: N_6  and  N_19
    6  A    between atoms: C_9  and  C_29
    7  A    between atoms: C_9  and  N_30
    8  A    between atoms: O_16  and  C_29
    9  A    between atoms: N_18  and  N_19
   10  A    between atoms: C_25  and  C_31
                            x       y       z     vdW  Elec       q    Type
                         _______ _______ _______ _____ _____    ______ ____

>  <TORSDO>
F 10

$$$$
=
 OpenBabel10232410483D

 35 39  0  0  1  0  0  0  0  0999 V2000
  186.1500  178.6090  142.5060 C   0  0  1  0  0  3  0  0  0  0  0  0
  182.1080  179.0180  143.0720 C   0  0  0  0  0  3  0  0  0  0  0  0
  186.3840  178.0470  143.6910 C   0  0  0  0  0  0  0  0  0  0  0  0
  185.2490  178.3490  144.5690 C   0  0  0  0  0  0  0  0  0  0  0  0
  183.9680  178.8820  141.4540 C   0  0  0  0  0  0  0  0  0  0  0  0
  182.9240  179.1070  144.1330 C   0  0  0  0  0  3  0  0  0  0  0  0
  186.0000  178.8040  140.1220 O   0  0  0  0  0  0  0  0  0  0  0  0
  187.4170  176.9980  143.9360 C   0  0  0  0  0  1  0  0  0  0  0  0
  182.6290  178.8090  141.6840 C   0  0  0  0  0  0  0  0  0  0  0  0
  184.6380  178.4110  140.1770 C   0  0  0  0  0  2  0  0  0  0  0  0
  186.7200  178.1830  141.1780 C   0  0  1  0  0  3  0  0  0  0  0  0
  184.8900  179.3930  142.5330 C   0  0  1  0  0  3  0  0  0  0  0  0
  184.3650  179.0580  143.8820 C   0  0  2  0  0  3  0  0  0  0  0  0
  181.6420  178.4490  140.6360 C   0  0  0  0  0  0  0  0  0  0  0  0
  181.2200  177.2650  140.5570 O   0  0  0  0  0  0  0  0  0  0  0  0
  181.1220  179.4240  139.7350 N   0  0  0  0  0  1  0  0  0  0  0  0
  184.9510  177.7080  145.8140 N   0  0  0  0  0  2  0  0  0  0  0  0
  184.7880  178.4250  147.0110 N   0  0  0  0  0  2  0  0  0  0  0  0
  189.4370  177.8140  148.0460 C   0  0  0  0  0  3  0  0  0  0  0  0
  187.2520  177.0520  147.5170 N   0  0  0  0  0  0  0  0  0  0  0  0
  186.0080  179.0680  147.2860 N   0  0  0  0  0  2  0  0  0  0  0  0
  187.2070  178.3360  147.5500 C   0  0  0  0  0  0  0  0  0  0  0  0
  188.5850  176.5690  147.8190 C   0  0  0  0  0  3  0  0  0  0  0  0
  188.4870  178.9920  147.8750 C   0  0  0  0  0  2  0  0  0  0  0  0
  188.1820  178.5900  141.0880 C   0  0  0  0  0  2  0  0  0  0  0  0
  188.9180  177.6730  140.1280 C   0  0  0  0  0  2  0  0  0  0  0  0
  190.3710  177.5330  140.5480 C   0  0  2  0  0  3  0  0  0  0  0  0
  190.2290  176.3620  138.6700 C   0  0  0  0  0  1  0  0  0  0  0  0
  191.1320  177.0650  139.4730 O   0  0  0  0  0  0  0  0  0  0  0  0
  190.4530  176.5460  141.7020 C   0  0  0  0  0  2  0  0  0  0  0  0
  191.6420  178.4010  144.3260 C   0  0  0  0  0  2  0  0  0  0  0  0
  191.1710  178.2560  143.0130 O   0  0  0  0  0  0  0  0  0  0  0  0
  191.4770  177.0760  145.0100 C   0  0  0  0  0  2  0  0  0  0  0  0
  191.2840  176.1540  143.8520 C   0  0  0  0  0  2  0  0  0  0  0  0
  191.4620  176.9700  142.6630 N   0  0  0  0  0  0  0  0  0  0  0  0
  1 12  1  0  0  0  0
  1  3  1  1  0  0  0
  2  6  2  0  0  0  0
  3  8  1  0  0  0  0
  3  4  2  0  0  0  0
  4 17  1  0  0  0  0
  5  9  2  0  0  0  0
  7 10  1  0  0  0  0
  7 11  1  0  0  0  0
  9  2  1  0  0  0  0
 10  5  1  0  0  0  0
 11 25  1  1  0  0  0
 11  1  1  0  0  0  0
 12  5  1  6  0  0  0
 12 13  1  0  0  0  0
 13  6  1  6  0  0  0
 13  4  1  0  0  0  0
 14  9  1  0  0  0  0
 15 14  2  0  0  0  0
 16 14  1  0  0  0  0
 17 18  1  0  0  0  0
 18 21  1  0  0  0  0
 20 22  2  0  0  0  0
 20 23  1  0  0  0  0
 21 22  1  0  0  0  0
 22 24  1  0  0  0  0
 23 19  2  0  0  0  0
 24 19  1  0  0  0  0
 26 25  1  0  0  0  0
 27 26  1  6  0  0  0
 27 30  1  0  0  0  0
 28 29  1  0  0  0  0
 29 27  1  0  0  0  0
 30 35  1  0  0  0  0
 31 33  1  0  0  0  0
 32 31  1  0  0  0  0
 34 33  1  0  0  0  0
 35 32  1  0  0  0  0
 35 34  1  0  0  0  0
M  END
>  <MODEL>
2

>  <REMARK>
 VINA RESULT:      -8.3      2.655      6.381
  Name = 
  10 active torsions:
  status: ('A' for Active; 'I' for Inactive)
    1  A    between atoms: C_1  and  C_26
    2  A    between atoms: C_5  and  C_25
    3  A    between atoms: C_5  and  C_29
    4  A    between atoms: N_6  and  C_11
    5  A    between atoms: N_6  and  N_19
    6  A    between atoms: C_9  and  C_29
    7  A    between atoms: C_9  and  N_30
    8  A    between atoms: O_16  and  C_29
    9  A    between atoms: N_18  and  N_19
   10  A    between atoms: C_25  and  C_31
                            x       y       z     vdW  Elec       q    Type
                         _______ _______ _______ _____ _____    ______ ____

>  <TORSDO>
F 10

$$$$
=
 OpenBabel10232410483D

 35 39  0  0  1  0  0  0  0  0999 V2000
  188.4260  177.1610  142.7100 C   0  0  1  0  0  3  0  0  0  0  0  0
  187.0700  177.6710  146.5480 C   0  0  0  0  0  3  0  0  0  0  0  0
  187.5180  177.9580  142.1510 C   0  0  0  0  0  0  0  0  0  0  0  0
  186.4060  178.1110  143.0950 C   0  0  0  0  0  0  0  0  0  0  0  0
  188.9550  177.0330  145.0870 C   0  0  0  0  0  0  0  0  0  0  0  0
  186.1890  177.7120  145.5380 C   0  0  0  0  0  3  0  0  0  0  0  0
  190.5850  176.3830  143.4040 O   0  0  0  0  0  0  0  0  0  0  0  0
  187.7740  178.8240  140.9630 C   0  0  0  0  0  1  0  0  0  0  0  0
  188.5270  177.4110  146.3220 C   0  0  0  0  0  0  0  0  0  0  0  0
  190.4110  177.0220  144.6580 C   0  0  0  0  0  2  0  0  0  0  0  0
  189.9000  177.1120  142.3960 C   0  0  1  0  0  3  0  0  0  0  0  0
  187.9520  176.6590  144.0240 C   0  0  1  0  0  3  0  0  0  0  0  0
  186.6900  177.4250  144.1920 C   0  0  2  0  0  3  0  0  0  0  0  0
  189.4460  177.6620  147.4590 C   0  0  0  0  0  0  0  0  0  0  0  0
  189.1410  178.5190  148.3300 O   0  0  0  0  0  0  0  0  0  0  0  0
  190.6550  176.9220  147.6190 N   0  0  0  0  0  1  0  0  0  0  0  0
  185.3710  179.0990  143.0270 N   0  0  0  0  0  2  0  0  0  0  0  0
  184.1550  178.8710  142.3630 N   0  0  0  0  0  2  0  0  0  0  0  0
  183.4510  177.4110  137.8440 C   0  0  0  0  0  3  0  0  0  0  0  0
  183.2520  177.2210  140.2010 N   0  0  0  0  0  0  0  0  0  0  0  0
  184.3520  179.1730  141.0040 N   0  0  0  0  0  2  0  0  0  0  0  0
  183.8970  178.3070  139.9630 C   0  0  0  0  0  0  0  0  0  0  0  0
  182.9100  176.5370  138.9700 C   0  0  0  0  0  3  0  0  0  0  0  0
  184.1260  178.5900  138.5330 C   0  0  0  0  0  2  0  0  0  0  0  0
  190.1190  176.4310  141.0550 C   0  0  0  0  0  2  0  0  0  0  0  0
  190.9460  177.3260  140.1480 C   0  0  0  0  0  2  0  0  0  0  0  0
  191.4970  176.5230  138.9820 C   0  0  2  0  0  3  0  0  0  0  0  0
  193.1610  176.4820  137.5150 C   0  0  0  0  0  1  0  0  0  0  0  0
  192.8700  176.7550  138.8550 O   0  0  0  0  0  0  0  0  0  0  0  0
  190.7840  176.9570  137.7100 C   0  0  0  0  0  2  0  0  0  0  0  0
  187.9310  178.7240  137.0220 C   0  0  0  0  0  2  0  0  0  0  0  0
  189.3150  178.6180  137.2180 O   0  0  0  0  0  0  0  0  0  0  0  0
  187.3700  177.3320  137.0240 C   0  0  0  0  0  2  0  0  0  0  0  0
  188.4830  176.5530  137.6430 C   0  0  0  0  0  2  0  0  0  0  0  0
  189.4850  177.5320  138.0270 N   0  0  0  0  0  0  0  0  0  0  0  0
  1  3  1  1  0  0  0
  1 12  1  0  0  0  0
  3  4  2  0  0  0  0
  4 13  1  0  0  0  0
  5  9  2  0  0  0  0
  6  2  2  0  0  0  0
  7 10  1  0  0  0  0
  8  3  1  0  0  0  0
  9  2  1  0  0  0  0
  9 14  1  0  0  0  0
 10  5  1  0  0  0  0
 11 25  1  6  0  0  0
 11  1  1  0  0  0  0
 11  7  1  0  0  0  0
 12 13  1  0  0  0  0
 12  5  1  1  0  0  0
 13  6  1  1  0  0  0
 14 16  1  0  0  0  0
 14 15  2  0  0  0  0
 17  4  1  0  0  0  0
 18 17  1  0  0  0  0
 19 24  1  0  0  0  0
 19 23  2  0  0  0  0
 21 18  1  0  0  0  0
 22 20  2  0  0  0  0
 22 21  1  0  0  0  0
 23 20  1  0  0  0  0
 24 22  1  0  0  0  0
 26 25  1  0  0  0  0
 27 30  1  6  0  0  0
 27 26  1  0  0  0  0
 28 29  1  0  0  0  0
 29 27  1  0  0  0  0
 30 35  1  0  0  0  0
 31 33  1  0  0  0  0
 31 32  1  0  0  0  0
 32 35  1  0  0  0  0
 33 34  1  0  0  0  0
 34 35  1  0  0  0  0
M  END
>  <MODEL>
3

>  <REMARK>
 VINA RESULT:      -8.3      2.159      7.079
  Name = 
  10 active torsions:
  status: ('A' for Active; 'I' for Inactive)
    1  A    between atoms: C_1  and  C_26
    2  A    between atoms: C_5  and  C_25
    3  A    between atoms: C_5  and  C_29
    4  A    between atoms: N_6  and  C_11
    5  A    between atoms: N_6  and  N_19
    6  A    between atoms: C_9  and  C_29
    7  A    between atoms: C_9  and  N_30
    8  A    between atoms: O_16  and  C_29
    9  A    between atoms: N_18  and  N_19
   10  A    between atoms: C_25  and  C_31
                            x       y       z     vdW  Elec       q    Type
                         _______ _______ _______ _____ _____    ______ ____

>  <TORSDO>
F 10

$$$$
=
 OpenBabel10232410483D

 35 39  0  0  1  0  0  0  0  0999 V2000
  188.4290  177.1370  142.8930 C   0  0  1  0  0  3  0  0  0  0  0  0
  187.2570  177.5030  146.8070 C   0  0  0  0  0  3  0  0  0  0  0  0
  187.4480  177.8890  142.3990 C   0  0  0  0  0  0  0  0  0  0  0  0
  186.3820  177.9610  143.4040 C   0  0  0  0  0  0  0  0  0  0  0  0
  189.0930  177.0000  145.2350 C   0  0  0  0  0  0  0  0  0  0  0  0
  186.3210  177.5080  145.8470 C   0  0  0  0  0  3  0  0  0  0  0  0
  190.6630  176.4750  143.4550 O   0  0  0  0  0  0  0  0  0  0  0  0
  187.5880  178.7880  141.2170 C   0  0  0  0  0  1  0  0  0  0  0  0
  188.7120  177.3320  146.4980 C   0  0  0  0  0  0  0  0  0  0  0  0
  190.5220  177.0820  144.7290 C   0  0  0  0  0  2  0  0  0  0  0  0
  189.8840  177.1800  142.5000 C   0  0  1  0  0  3  0  0  0  0  0  0
  188.0570  176.5860  144.2210 C   0  0  1  0  0  3  0  0  0  0  0  0
  186.7640  177.2740  144.4710 C   0  0  2  0  0  3  0  0  0  0  0  0
  189.6760  177.6170  147.5900 C   0  0  0  0  0  0  0  0  0  0  0  0
  189.3610  178.4220  148.5060 O   0  0  0  0  0  0  0  0  0  0  0  0
  190.9430  176.9660  147.6560 N   0  0  0  0  0  1  0  0  0  0  0  0
  185.2890  178.8870  143.4110 N   0  0  0  0  0  2  0  0  0  0  0  0
  184.0680  178.6160  142.7740 N   0  0  0  0  0  2  0  0  0  0  0  0
  183.2930  177.9660  138.0800 C   0  0  0  0  0  3  0  0  0  0  0  0
  183.2940  177.2890  140.3550 N   0  0  0  0  0  0  0  0  0  0  0  0
  184.1170  179.2070  141.4990 N   0  0  0  0  0  2  0  0  0  0  0  0
  183.7360  178.4950  140.3200 C   0  0  0  0  0  0  0  0  0  0  0  0
  182.9820  176.8080  139.0240 C   0  0  0  0  0  3  0  0  0  0  0  0
  183.8140  179.0860  138.9700 C   0  0  0  0  0  2  0  0  0  0  0  0
  190.0690  176.5360  141.1350 C   0  0  0  0  0  2  0  0  0  0  0  0
  191.1040  177.3050  140.3350 C   0  0  0  0  0  2  0  0  0  0  0  0
  190.6870  177.3810  138.8760 C   0  0  2  0  0  3  0  0  0  0  0  0
  189.2630  178.2300  137.4000 C   0  0  0  0  0  1  0  0  0  0  0  0
  189.7310  178.3880  138.7080 O   0  0  0  0  0  0  0  0  0  0  0  0
  190.0950  176.0400  138.4670 C   0  0  0  0  0  2  0  0  0  0  0  0
  191.5040  173.5380  136.5980 C   0  0  0  0  0  2  0  0  0  0  0  0
  190.5580  174.0350  137.5060 O   0  0  0  0  0  0  0  0  0  0  0  0
  192.2870  174.7090  136.0800 C   0  0  0  0  0  2  0  0  0  0  0  0
  191.9590  175.7650  137.0840 C   0  0  0  0  0  2  0  0  0  0  0  0
  191.1530  175.1100  138.0990 N   0  0  0  0  0  0  0  0  0  0  0  0
  1  3  1  1  0  0  0
  1 12  1  0  0  0  0
  3  4  2  0  0  0  0
  4 17  1  0  0  0  0
  4 13  1  0  0  0  0
  5  9  2  0  0  0  0
  6  2  2  0  0  0  0
  7 10  1  0  0  0  0
  8  3  1  0  0  0  0
  9  2  1  0  0  0  0
  9 14  1  0  0  0  0
 10  5  1  0  0  0  0
 11 25  1  6  0  0  0
 11  1  1  0  0  0  0
 11  7  1  0  0  0  0
 12 13  1  0  0  0  0
 12  5  1  1  0  0  0
 13  6  1  1  0  0  0
 14 16  1  0  0  0  0
 14 15  2  0  0  0  0
 18 17  1  0  0  0  0
 19 24  1  0  0  0  0
 19 23  2  0  0  0  0
 21 18  1  0  0  0  0
 22 20  2  0  0  0  0
 22 21  1  0  0  0  0
 23 20  1  0  0  0  0
 24 22  1  0  0  0  0
 26 25  1  0  0  0  0
 27 30  1  1  0  0  0
 27 26  1  0  0  0  0
 28 29  1  0  0  0  0
 29 27  1  0  0  0  0
 31 32  1  0  0  0  0
 32 35  1  0  0  0  0
 33 31  1  0  0  0  0
 33 34  1  0  0  0  0
 34 35  1  0  0  0  0
 35 30  1  0  0  0  0
M  END
>  <MODEL>
4

>  <REMARK>
 VINA RESULT:      -8.3      2.218      7.426
  Name = 
  10 active torsions:
  status: ('A' for Active; 'I' for Inactive)
    1  A    between atoms: C_1  and  C_26
    2  A    between atoms: C_5  and  C_25
    3  A    between atoms: C_5  and  C_29
    4  A    between atoms: N_6  and  C_11
    5  A    between atoms: N_6  and  N_19
    6  A    between atoms: C_9  and  C_29
    7  A    between atoms: C_9  and  N_30
    8  A    between atoms: O_16  and  C_29
    9  A    between atoms: N_18  and  N_19
   10  A    between atoms: C_25  and  C_31
                            x       y       z     vdW  Elec       q    Type
                         _______ _______ _______ _____ _____    ______ ____

>  <TORSDO>
F 10

$$$$
=
 OpenBabel10232410483D

 35 39  0  0  1  0  0  0  0  0999 V2000
  187.0680  178.4340  141.4670 C   0  0  1  0  0  3  0  0  0  0  0  0
  183.2370  178.8030  142.8860 C   0  0  0  0  0  3  0  0  0  0  0  0
  187.5400  177.8120  142.5460 C   0  0  0  0  0  0  0  0  0  0  0  0
  186.6160  178.0660  143.6570 C   0  0  0  0  0  0  0  0  0  0  0  0
  184.7160  178.7550  140.9100 C   0  0  0  0  0  0  0  0  0  0  0  0
  184.2570  178.8400  143.7560 C   0  0  0  0  0  3  0  0  0  0  0  0
  186.4240  178.7510  139.1800 O   0  0  0  0  0  0  0  0  0  0  0  0
  188.5920  176.7550  142.5160 C   0  0  0  0  0  1  0  0  0  0  0  0
  183.4540  178.6670  141.4110 C   0  0  0  0  0  0  0  0  0  0  0  0
  185.1000  178.3520  139.4990 C   0  0  0  0  0  2  0  0  0  0  0  0
  187.3430  178.0790  140.0290 C   0  0  1  0  0  3  0  0  0  0  0  0
  185.8470  179.2120  141.7970 C   0  0  1  0  0  3  0  0  0  0  0  0
  185.6140  178.8070  143.2070 C   0  0  2  0  0  3  0  0  0  0  0  0
  182.2670  178.3590  140.5760 C   0  0  0  0  0  0  0  0  0  0  0  0
  181.9740  177.1600  140.3270 O   0  0  0  0  0  0  0  0  0  0  0  0
  181.4170  179.3910  140.0790 N   0  0  0  0  0  1  0  0  0  0  0  0
  186.5790  177.3610  144.9020 N   0  0  0  0  0  2  0  0  0  0  0  0
  186.8630  177.9830  146.1290 N   0  0  0  0  0  2  0  0  0  0  0  0
  191.5090  176.7860  146.3070 C   0  0  0  0  0  3  0  0  0  0  0  0
  189.6470  177.9850  145.4530 N   0  0  0  0  0  0  0  0  0  0  0  0
  187.8340  177.2040  146.7830 N   0  0  0  0  0  2  0  0  0  0  0  0
  189.2100  177.2290  146.3950 C   0  0  0  0  0  0  0  0  0  0  0  0
  191.0750  177.8140  145.2680 C   0  0  0  0  0  3  0  0  0  0  0  0
  190.2370  176.3930  147.0450 C   0  0  0  0  0  2  0  0  0  0  0  0
  188.7580  178.4930  139.6560 C   0  0  0  0  0  2  0  0  0  0  0  0
  188.8950  178.5680  138.1460 C   0  0  0  0  0  2  0  0  0  0  0  0
  189.8540  177.4970  137.6540 C   0  0  2  0  0  3  0  0  0  0  0  0
  188.4520  177.9570  135.9970 C   0  0  0  0  0  1  0  0  0  0  0  0
  189.5760  177.1890  136.3190 O   0  0  0  0  0  0  0  0  0  0  0  0
  189.6800  176.2540  138.5140 C   0  0  0  0  0  2  0  0  0  0  0  0
  192.4670  174.4940  137.5800 C   0  0  0  0  0  2  0  0  0  0  0  0
  191.0900  174.6170  137.8130 O   0  0  0  0  0  0  0  0  0  0  0  0
  193.0710  175.8600  137.7260 C   0  0  0  0  0  2  0  0  0  0  0  0
  191.9920  176.5970  138.4490 C   0  0  0  0  0  2  0  0  0  0  0  0
  190.9660  175.6100  138.7410 N   0  0  0  0  0  0  0  0  0  0  0  0
  1 12  1  0  0  0  0
  1  3  1  1  0  0  0
  2  6  2  0  0  0  0
  3  4  2  0  0  0  0
  4 17  1  0  0  0  0
  5  9  2  0  0  0  0
  7 10  1  0  0  0  0
  7 11  1  0  0  0  0
  8  3  1  0  0  0  0
  9  2  1  0  0  0  0
 10  5  1  0  0  0  0
 11 25  1  6  0  0  0
 11  1  1  0  0  0  0
 12  5  1  6  0  0  0
 12 13  1  0  0  0  0
 13  4  1  0  0  0  0
 13  6  1  6  0  0  0
 14  9  1  0  0  0  0
 15 14  2  0  0  0  0
 16 14  1  0  0  0  0
 17 18  1  0  0  0  0
 18 21  1  0  0  0  0
 19 24  1  0  0  0  0
 20 22  2  0  0  0  0
 22 21  1  0  0  0  0
 22 24  1  0  0  0  0
 23 20  1  0  0  0  0
 23 19  2  0  0  0  0
 26 25  1  0  0  0  0
 27 26  1  1  0  0  0
 27 30  1  0  0  0  0
 28 29  1  0  0  0  0
 29 27  1  0  0  0  0
 30 35  1  0  0  0  0
 31 33  1  0  0  0  0
 31 32  1  0  0  0  0
 32 35  1  0  0  0  0
 33 34  1  0  0  0  0
 34 35  1  0  0  0  0
M  END
>  <MODEL>
5

>  <REMARK>
 VINA RESULT:      -8.1      2.748      7.449
  Name = 
  10 active torsions:
  status: ('A' for Active; 'I' for Inactive)
    1  A    between atoms: C_1  and  C_26
    2  A    between atoms: C_5  and  C_25
    3  A    between atoms: C_5  and  C_29
    4  A    between atoms: N_6  and  C_11
    5  A    between atoms: N_6  and  N_19
    6  A    between atoms: C_9  and  C_29
    7  A    between atoms: C_9  and  N_30
    8  A    between atoms: O_16  and  C_29
    9  A    between atoms: N_18  and  N_19
   10  A    between atoms: C_25  and  C_31
                            x       y       z     vdW  Elec       q    Type
                         _______ _______ _______ _____ _____    ______ ____

>  <TORSDO>
F 10

$$$$
=
 OpenBabel10232410483D

 35 39  0  0  1  0  0  0  0  0999 V2000
  187.1880  178.4220  141.5120 C   0  0  1  0  0  3  0  0  0  0  0  0
  183.3630  178.7880  142.9480 C   0  0  0  0  0  3  0  0  0  0  0  0
  187.6600  177.7790  142.5790 C   0  0  0  0  0  0  0  0  0  0  0  0
  186.7400  178.0190  143.6960 C   0  0  0  0  0  0  0  0  0  0  0  0
  184.8370  178.7660  140.9670 C   0  0  0  0  0  0  0  0  0  0  0  0
  184.3860  178.8040  143.8150 C   0  0  0  0  0  3  0  0  0  0  0  0
  186.5400  178.7810  139.2330 O   0  0  0  0  0  0  0  0  0  0  0  0
  188.7060  176.7160  142.5280 C   0  0  0  0  0  1  0  0  0  0  0  0
  183.5760  178.6760  141.4700 C   0  0  0  0  0  0  0  0  0  0  0  0
  185.2150  178.3850  139.5480 C   0  0  0  0  0  2  0  0  0  0  0  0
  187.4580  178.0900  140.0670 C   0  0  1  0  0  3  0  0  0  0  0  0
  185.9730  179.2010  141.8590 C   0  0  1  0  0  3  0  0  0  0  0  0
  185.7410  178.7730  143.2620 C   0  0  2  0  0  3  0  0  0  0  0  0
  182.3850  178.3900  140.6330 C   0  0  0  0  0  0  0  0  0  0  0  0
  181.6080  179.3270  140.3120 O   0  0  0  0  0  0  0  0  0  0  0  0
  182.1180  177.0790  140.1390 N   0  0  0  0  0  1  0  0  0  0  0  0
  186.7030  177.2930  144.9300 N   0  0  0  0  0  2  0  0  0  0  0  0
  186.9820  177.8950  146.1670 N   0  0  0  0  0  2  0  0  0  0  0  0
  191.6060  176.6200  146.3730 C   0  0  0  0  0  3  0  0  0  0  0  0
  189.7720  177.8580  145.5150 N   0  0  0  0  0  0  0  0  0  0  0  0
  187.9350  177.0940  146.8220 N   0  0  0  0  0  2  0  0  0  0  0  0
  189.3140  177.1000  146.4460 C   0  0  0  0  0  0  0  0  0  0  0  0
  191.1980  177.6650  145.3400 C   0  0  0  0  0  3  0  0  0  0  0  0
  190.3220  176.2400  147.0960 C   0  0  0  0  0  2  0  0  0  0  0  0
  188.8740  178.5030  139.6980 C   0  0  0  0  0  2  0  0  0  0  0  0
  188.9820  178.6970  138.1960 C   0  0  0  0  0  2  0  0  0  0  0  0
  189.3280  177.3800  137.5210 C   0  0  2  0  0  3  0  0  0  0  0  0
  190.7670  175.7740  138.0420 C   0  0  0  0  0  1  0  0  0  0  0  0
  190.6940  177.1190  137.6650 O   0  0  0  0  0  0  0  0  0  0  0  0
  188.9780  177.4830  136.0440 C   0  0  0  0  0  2  0  0  0  0  0  0
  186.0240  175.9350  136.8280 C   0  0  0  0  0  2  0  0  0  0  0  0
  187.4170  176.0750  136.9030 O   0  0  0  0  0  0  0  0  0  0  0  0
  185.4940  177.1250  136.0840 C   0  0  0  0  0  2  0  0  0  0  0  0
  186.7290  177.6550  135.4330 C   0  0  0  0  0  2  0  0  0  0  0  0
  187.7820  176.7060  135.7500 N   0  0  0  0  0  0  0  0  0  0  0  0
  1 12  1  0  0  0  0
  1  3  1  1  0  0  0
  2  6  2  0  0  0  0
  3  4  2  0  0  0  0
  4 17  1  0  0  0  0
  5  9  2  0  0  0  0
  7 10  1  0  0  0  0
  7 11  1  0  0  0  0
  8  3  1  0  0  0  0
  9  2  1  0  0  0  0
 10  5  1  0  0  0  0
 11 25  1  6  0  0  0
 11  1  1  0  0  0  0
 12  5  1  6  0  0  0
 12 13  1  0  0  0  0
 13  4  1  0  0  0  0
 13  6  1  6  0  0  0
 14  9  1  0  0  0  0
 15 14  2  0  0  0  0
 16 14  1  0  0  0  0
 17 18  1  0  0  0  0
 18 21  1  0  0  0  0
 19 24  1  0  0  0  0
 20 22  2  0  0  0  0
 22 21  1  0  0  0  0
 22 24  1  0  0  0  0
 23 20  1  0  0  0  0
 23 19  2  0  0  0  0
 26 25  1  0  0  0  0
 27 30  1  6  0  0  0
 27 29  1  0  0  0  0
 27 26  1  0  0  0  0
 29 28  1  0  0  0  0
 31 32  1  0  0  0  0
 33 31  1  0  0  0  0
 34 35  1  0  0  0  0
 34 33  1  0  0  0  0
 35 30  1  0  0  0  0
 35 32  1  0  0  0  0
M  END
>  <MODEL>
6

>  <REMARK>
 VINA RESULT:      -7.9      2.681      7.543
  Name = 
  10 active torsions:
  status: ('A' for Active; 'I' for Inactive)
    1  A    between atoms: C_1  and  C_26
    2  A    between atoms: C_5  and  C_25
    3  A    between atoms: C_5  and  C_29
    4  A    between atoms: N_6  and  C_11
    5  A    between atoms: N_6  and  N_19
    6  A    between atoms: C_9  and  C_29
    7  A    between atoms: C_9  and  N_30
    8  A    between atoms: O_16  and  C_29
    9  A    between atoms: N_18  and  N_19
   10  A    between atoms: C_25  and  C_31
                            x       y       z     vdW  Elec       q    Type
                         _______ _______ _______ _____ _____    ______ ____

>  <TORSDO>
F 10

$$$$
=
 OpenBabel10232410483D

 35 39  0  0  1  0  0  0  0  0999 V2000
  185.2820  178.0900  142.3450 C   0  0  1  0  0  3  0  0  0  0  0  0
  181.5350  178.7870  140.8280 C   0  0  0  0  0  3  0  0  0  0  0  0
  185.9340  178.5210  141.2670 C   0  0  0  0  0  0  0  0  0  0  0  0
  184.9990  178.5100  140.1370 C   0  0  0  0  0  0  0  0  0  0  0  0
  182.9260  178.4670  142.8430 C   0  0  0  0  0  0  0  0  0  0  0  0
  182.5200  178.4370  139.9880 C   0  0  0  0  0  3  0  0  0  0  0  0
  184.5280  178.0340  144.6190 O   0  0  0  0  0  0  0  0  0  0  0  0
  187.2430  179.2360  141.3030 C   0  0  0  0  0  1  0  0  0  0  0  0
  181.7520  178.8970  142.3050 C   0  0  0  0  0  0  0  0  0  0  0  0
  183.3800  178.7840  144.2560 C   0  0  0  0  0  2  0  0  0  0  0  0
  185.6180  178.3930  143.7830 C   0  0  1  0  0  3  0  0  0  0  0  0
  183.8980  177.6830  141.9980 C   0  0  1  0  0  3  0  0  0  0  0  0
  183.8190  178.0980  140.5740 C   0  0  2  0  0  3  0  0  0  0  0  0
  180.6850  179.5530  143.1010 C   0  0  0  0  0  0  0  0  0  0  0  0
  180.3570  180.7420  142.8440 O   0  0  0  0  0  0  0  0  0  0  0  0
  179.9840  178.8550  144.1280 N   0  0  0  0  0  1  0  0  0  0  0  0
  185.1910  179.1610  138.8760 N   0  0  0  0  0  2  0  0  0  0  0  0
  185.8420  178.5390  137.7980 N   0  0  0  0  0  2  0  0  0  0  0  0
  190.2420  176.6210  137.6680 C   0  0  0  0  0  3  0  0  0  0  0  0
  187.8780  176.5490  137.4700 N   0  0  0  0  0  0  0  0  0  0  0  0
  187.2190  178.7880  137.9360 N   0  0  0  0  0  2  0  0  0  0  0  0
  188.1950  177.7560  137.7790 C   0  0  0  0  0  0  0  0  0  0  0  0
  189.0560  175.7100  137.3730 C   0  0  0  0  0  3  0  0  0  0  0  0
  189.6410  177.9910  137.9540 C   0  0  0  0  0  2  0  0  0  0  0  0
  186.8470  177.6030  144.2030 C   0  0  0  0  0  2  0  0  0  0  0  0
  187.2620  177.9990  145.6100 C   0  0  0  0  0  2  0  0  0  0  0  0
  188.5600  177.3050  145.9870 C   0  0  2  0  0  3  0  0  0  0  0  0
  187.8180  178.0380  147.9450 C   0  0  0  0  0  1  0  0  0  0  0  0
  188.5590  177.0110  147.3540 O   0  0  0  0  0  0  0  0  0  0  0  0
  189.7210  178.2330  145.6630 C   0  0  0  0  0  2  0  0  0  0  0  0
  190.4220  176.1160  143.0620 C   0  0  0  0  0  2  0  0  0  0  0  0
  190.1020  176.3840  144.4000 O   0  0  0  0  0  0  0  0  0  0  0  0
  190.3480  177.4160  142.3150 C   0  0  0  0  0  2  0  0  0  0  0  0
  190.3800  178.4110  143.4270 C   0  0  0  0  0  2  0  0  0  0  0  0
  190.5750  177.6400  144.6430 N   0  0  0  0  0  0  0  0  0  0  0  0
  1  3  1  6  0  0  0
  1 11  1  0  0  0  0
  2  9  1  0  0  0  0
  3  8  1  0  0  0  0
  4 13  1  0  0  0  0
  4  3  2  0  0  0  0
  5 10  1  0  0  0  0
  6  2  2  0  0  0  0
  9  5  2  0  0  0  0
  9 14  1  0  0  0  0
 10  7  1  0  0  0  0
 11 25  1  1  0  0  0
 11  7  1  0  0  0  0
 12  1  1  0  0  0  0
 12  5  1  1  0  0  0
 13  6  1  1  0  0  0
 13 12  1  0  0  0  0
 14 16  1  0  0  0  0
 15 14  2  0  0  0  0
 17  4  1  0  0  0  0
 18 21  1  0  0  0  0
 18 17  1  0  0  0  0
 19 24  1  0  0  0  0
 20 22  2  0  0  0  0
 22 21  1  0  0  0  0
 22 24  1  0  0  0  0
 23 20  1  0  0  0  0
 23 19  2  0  0  0  0
 25 26  1  0  0  0  0
 27 26  1  1  0  0  0
 27 29  1  0  0  0  0
 29 28  1  0  0  0  0
 30 27  1  0  0  0  0
 31 32  1  0  0  0  0
 32 35  1  0  0  0  0
 33 31  1  0  0  0  0
 33 34  1  0  0  0  0
 34 35  1  0  0  0  0
 35 30  1  0  0  0  0
M  END
>  <MODEL>
7

>  <REMARK>
 VINA RESULT:      -7.8      2.460      6.904
  Name = 
  10 active torsions:
  status: ('A' for Active; 'I' for Inactive)
    1  A    between atoms: C_1  and  C_26
    2  A    between atoms: C_5  and  C_25
    3  A    between atoms: C_5  and  C_29
    4  A    between atoms: N_6  and  C_11
    5  A    between atoms: N_6  and  N_19
    6  A    between atoms: C_9  and  C_29
    7  A    between atoms: C_9  and  N_30
    8  A    between atoms: O_16  and  C_29
    9  A    between atoms: N_18  and  N_19
   10  A    between atoms: C_25  and  C_31
                            x       y       z     vdW  Elec       q    Type
                         _______ _______ _______ _____ _____    ______ ____

>  <TORSDO>
F 10

$$$$
=
 OpenBabel10232410483D

 35 39  0  0  1  0  0  0  0  0999 V2000
  188.2080  177.2640  142.2790 C   0  0  1  0  0  3  0  0  0  0  0  0
  188.5930  177.1380  146.3610 C   0  0  0  0  0  3  0  0  0  0  0  0
  187.1420  178.0620  142.2800 C   0  0  0  0  0  0  0  0  0  0  0  0
  186.5310  178.0010  143.6120 C   0  0  0  0  0  0  0  0  0  0  0  0
  189.6910  176.8480  144.1690 C   0  0  0  0  0  0  0  0  0  0  0  0
  187.3670  177.2530  145.8290 C   0  0  0  0  0  3  0  0  0  0  0  0
  190.4640  176.5590  141.8830 O   0  0  0  0  0  0  0  0  0  0  0  0
  186.8660  179.1000  141.2450 C   0  0  0  0  0  1  0  0  0  0  0  0
  189.8200  177.0200  145.5130 C   0  0  0  0  0  0  0  0  0  0  0  0
  190.8300  177.0040  143.1790 C   0  0  0  0  0  2  0  0  0  0  0  0
  189.4120  177.3680  141.3780 C   0  0  1  0  0  3  0  0  0  0  0  0
  188.3370  176.5520  143.5760 C   0  0  1  0  0  3  0  0  0  0  0  0
  187.2570  177.1920  144.3700 C   0  0  2  0  0  3  0  0  0  0  0  0
  191.1310  177.1780  146.1900 C   0  0  0  0  0  0  0  0  0  0  0  0
  191.9560  178.0280  145.7610 O   0  0  0  0  0  0  0  0  0  0  0  0
  191.4690  176.4200  147.3500 N   0  0  0  0  0  1  0  0  0  0  0  0
  185.5550  178.9090  144.1360 N   0  0  0  0  0  2  0  0  0  0  0  0
  184.2050  178.5560  144.2920 N   0  0  0  0  0  2  0  0  0  0  0  0
  180.0230  178.9800  141.9720 C   0  0  0  0  0  3  0  0  0  0  0  0
  181.3740  178.7850  143.9140 N   0  0  0  0  0  0  0  0  0  0  0  0
  183.5850  178.6910  143.0370 N   0  0  0  0  0  2  0  0  0  0  0  0
  182.1650  178.7840  142.9010 C   0  0  0  0  0  0  0  0  0  0  0  0
  179.9900  178.8900  143.4940 C   0  0  0  0  0  3  0  0  0  0  0  0
  181.4940  178.8910  141.5910 C   0  0  0  0  0  2  0  0  0  0  0  0
  189.0510  176.8970  139.9780 C   0  0  0  0  0  2  0  0  0  0  0  0
  190.3140  176.6640  139.1680 C   0  0  0  0  0  2  0  0  0  0  0  0
  189.9910  175.8740  137.9110 C   0  0  2  0  0  3  0  0  0  0  0  0
  192.0650  175.1020  138.0730 C   0  0  0  0  0  1  0  0  0  0  0  0
  190.7400  174.6930  137.8890 O   0  0  0  0  0  0  0  0  0  0  0  0
  190.3360  176.7230  136.6980 C   0  0  0  0  0  2  0  0  0  0  0  0
  186.9580  177.2420  136.4670 C   0  0  0  0  0  2  0  0  0  0  0  0
  188.0970  176.4250  136.4630 O   0  0  0  0  0  0  0  0  0  0  0  0
  187.3980  178.6230  136.8590 C   0  0  0  0  0  2  0  0  0  0  0  0
  188.8740  178.5460  136.6480 C   0  0  0  0  0  2  0  0  0  0  0  0
  189.1240  177.2350  136.0750 N   0  0  0  0  0  0  0  0  0  0  0  0
  1  3  1  1  0  0  0
  1 12  1  0  0  0  0
  3  4  2  0  0  0  0
  4 17  1  0  0  0  0
  4 13  1  0  0  0  0
  5  9  2  0  0  0  0
  6  2  2  0  0  0  0
  7 10  1  0  0  0  0
  8  3  1  0  0  0  0
  9 14  1  0  0  0  0
  9  2  1  0  0  0  0
 10  5  1  0  0  0  0
 11 25  1  6  0  0  0
 11  7  1  0  0  0  0
 11  1  1  0  0  0  0
 12  5  1  1  0  0  0
 12 13  1  0  0  0  0
 13  6  1  1  0  0  0
 14 16  1  0  0  0  0
 15 14  2  0  0  0  0
 17 18  1  0  0  0  0
 19 23  2  0  0  0  0
 21 18  1  0  0  0  0
 22 21  1  0  0  0  0
 22 20  2  0  0  0  0
 23 20  1  0  0  0  0
 24 19  1  0  0  0  0
 24 22  1  0  0  0  0
 26 25  1  0  0  0  0
 27 30  1  6  0  0  0
 27 26  1  0  0  0  0
 29 27  1  0  0  0  0
 29 28  1  0  0  0  0
 31 33  1  0  0  0  0
 32 31  1  0  0  0  0
 34 33  1  0  0  0  0
 35 32  1  0  0  0  0
 35 34  1  0  0  0  0
 35 30  1  0  0  0  0
M  END
>  <MODEL>
8

>  <REMARK>
 VINA RESULT:      -7.6      1.976      6.949
  Name = 
  10 active torsions:
  status: ('A' for Active; 'I' for Inactive)
    1  A    between atoms: C_1  and  C_26
    2  A    between atoms: C_5  and  C_25
    3  A    between atoms: C_5  and  C_29
    4  A    between atoms: N_6  and  C_11
    5  A    between atoms: N_6  and  N_19
    6  A    between atoms: C_9  and  C_29
    7  A    between atoms: C_9  and  N_30
    8  A    between atoms: O_16  and  C_29
    9  A    between atoms: N_18  and  N_19
   10  A    between atoms: C_25  and  C_31
                            x       y       z     vdW  Elec       q    Type
                         _______ _______ _______ _____ _____    ______ ____

>  <TORSDO>
F 10

$$$$
=
 OpenBabel10232410483D

 35 39  0  0  1  0  0  0  0  0999 V2000
  188.9900  178.0470  142.1120 C   0  0  1  0  0  3  0  0  0  0  0  0
  189.4260  177.5840  138.0600 C   0  0  0  0  0  3  0  0  0  0  0  0
  187.6660  178.1860  142.0790 C   0  0  0  0  0  0  0  0  0  0  0  0
  187.2820  178.5500  140.7110 C   0  0  0  0  0  0  0  0  0  0  0  0
  190.3900  177.2090  140.3010 C   0  0  0  0  0  0  0  0  0  0  0  0
  188.4420  178.3700  138.5210 C   0  0  0  0  0  3  0  0  0  0  0  0
  191.1150  177.0600  142.6170 O   0  0  0  0  0  0  0  0  0  0  0  0
  186.7400  177.6890  143.1380 C   0  0  0  0  0  1  0  0  0  0  0  0
  190.3910  176.8990  138.9760 C   0  0  0  0  0  0  0  0  0  0  0  0
  191.1020  176.3930  141.3650 C   0  0  0  0  0  2  0  0  0  0  0  0
  189.7860  177.2190  143.0890 C   0  0  1  0  0  3  0  0  0  0  0  0
  189.5910  178.3870  140.7980 C   0  0  1  0  0  3  0  0  0  0  0  0
  188.3770  178.5940  139.9670 C   0  0  2  0  0  3  0  0  0  0  0  0
  191.2550  175.8450  138.3880 C   0  0  0  0  0  0  0  0  0  0  0  0
  190.7840  174.6950  138.1840 O   0  0  0  0  0  0  0  0  0  0  0  0
  192.6020  176.1130  138.0030 N   0  0  0  0  0  1  0  0  0  0  0  0
  185.9580  178.5100  140.1670 N   0  0  0  0  0  2  0  0  0  0  0  0
  185.0160  179.5240  140.4030 N   0  0  0  0  0  2  0  0  0  0  0  0
  180.4090  178.3570  139.7180 C   0  0  0  0  0  3  0  0  0  0  0  0
  182.3370  178.7390  141.0490 N   0  0  0  0  0  0  0  0  0  0  0  0
  183.9870  179.3720  139.4560 N   0  0  0  0  0  2  0  0  0  0  0  0
  182.6700  178.9610  139.8280 C   0  0  0  0  0  0  0  0  0  0  0  0
  180.9470  178.3380  141.1450 C   0  0  0  0  0  3  0  0  0  0  0  0
  181.5880  178.7630  138.8450 C   0  0  0  0  0  2  0  0  0  0  0  0
  189.8190  177.9090  144.4430 C   0  0  0  0  0  2  0  0  0  0  0  0
  191.0910  177.5370  145.1840 C   0  0  0  0  0  2  0  0  0  0  0  0
  190.8030  177.3660  146.6660 C   0  0  2  0  0  3  0  0  0  0  0  0
  192.1550  175.6650  147.1160 C   0  0  0  0  0  1  0  0  0  0  0  0
  191.9820  177.0350  147.3420 O   0  0  0  0  0  0  0  0  0  0  0  0
  189.7820  176.2520  146.8390 C   0  0  0  0  0  2  0  0  0  0  0  0
  187.9460  178.5790  148.5580 C   0  0  0  0  0  2  0  0  0  0  0  0
  189.1050  177.8240  148.3330 O   0  0  0  0  0  0  0  0  0  0  0  0
  187.0150  178.3240  147.4080 C   0  0  0  0  0  2  0  0  0  0  0  0
  187.5990  177.0880  146.8090 C   0  0  0  0  0  2  0  0  0  0  0  0
  188.6870  176.6960  147.6900 N   0  0  0  0  0  0  0  0  0  0  0  0
  1  3  1  6  0  0  0
  1 11  1  0  0  0  0
  2  6  2  0  0  0  0
  2  9  1  0  0  0  0
  3  8  1  0  0  0  0
  4  3  2  0  0  0  0
  5 10  1  0  0  0  0
  7 11  1  0  0  0  0
  9  5  2  0  0  0  0
 10  7  1  0  0  0  0
 11 25  1  1  0  0  0
 12  5  1  6  0  0  0
 12  1  1  0  0  0  0
 13  6  1  6  0  0  0
 13  4  1  0  0  0  0
 13 12  1  0  0  0  0
 14  9  1  0  0  0  0
 15 14  2  0  0  0  0
 16 14  1  0  0  0  0
 17 18  1  0  0  0  0
 17  4  1  0  0  0  0
 19 23  2  0  0  0  0
 20 23  1  0  0  0  0
 21 22  1  0  0  0  0
 21 18  1  0  0  0  0
 22 20  2  0  0  0  0
 24 19  1  0  0  0  0
 24 22  1  0  0  0  0
 25 26  1  0  0  0  0
 27 26  1  6  0  0  0
 27 30  1  0  0  0  0
 27 29  1  0  0  0  0
 28 29  1  0  0  0  0
 30 35  1  0  0  0  0
 32 31  1  0  0  0  0
 33 31  1  0  0  0  0
 34 33  1  0  0  0  0
 34 35  1  0  0  0  0
 35 32  1  0  0  0  0
M  END
>  <MODEL>
9

>  <REMARK>
 VINA RESULT:      -7.5      2.029      2.549
  Name = 
  10 active torsions:
  status: ('A' for Active; 'I' for Inactive)
    1  A    between atoms: C_1  and  C_26
    2  A    between atoms: C_5  and  C_25
    3  A    between atoms: C_5  and  C_29
    4  A    between atoms: N_6  and  C_11
    5  A    between atoms: N_6  and  N_19
    6  A    between atoms: C_9  and  C_29
    7  A    between atoms: C_9  and  N_30
    8  A    between atoms: O_16  and  C_29
    9  A    between atoms: N_18  and  N_19
   10  A    between atoms: C_25  and  C_31
                            x       y       z     vdW  Elec       q    Type
                         _______ _______ _______ _____ _____    ______ ____

>  <TORSDO>
F 10

$$$$
