=
 OpenBabel10222422073D

 31 34  0  0  1  0  0  0  0  0999 V2000
  190.1820  174.0930  137.3050 C   0  0  0  0  0  3  0  0  0  0  0  0
  188.1650  178.8820  136.7940 C   0  0  0  0  0  3  0  0  0  0  0  0
  188.9260  178.2120  137.8120 N   0  0  0  0  0  0  0  0  0  0  0  0
  187.0760  176.0860  136.8590 N   0  0  0  0  0  0  0  0  0  0  0  0
  191.3110  174.9130  137.6520 N   0  0  0  0  0  0  0  0  0  0  0  0
  184.9480  177.0880  136.4040 C   0  0  0  0  0  1  0  0  0  0  0  0
  189.9750  176.4080  139.0310 C   0  0  2  0  0  3  0  0  0  0  0  0
  191.2790  175.9640  138.4170 C   0  0  0  0  0  0  0  0  0  0  0  0
  188.9320  174.5230  137.0650 C   0  0  0  0  0  0  0  0  0  0  0  0
  189.0570  176.9290  137.9680 C   0  0  0  0  0  0  0  0  0  0  0  0
  187.9710  173.5470  136.8220 O   0  0  0  0  0  1  0  0  0  0  0  0
  188.5270  175.9820  136.9260 C   0  0  2  0  0  3  0  0  0  0  0  0
  186.4250  177.1650  136.5490 C   0  0  0  0  0  0  0  0  0  0  0  0
  187.0800  178.4070  136.2550 N   0  0  0  0  0  0  0  0  0  0  0  0
  188.7160  177.3740  140.8180 C   0  0  0  0  0  2  0  0  0  0  0  0
  188.7290  178.3870  141.9620 C   0  0  0  0  0  2  0  0  0  0  0  0
  191.1100  177.6960  142.4080 C   0  0  0  0  0  2  0  0  0  0  0  0
  189.7430  177.9790  143.0320 C   0  0  2  0  0  3  0  0  0  0  0  0
  190.9730  176.7150  141.2450 C   0  0  0  0  0  2  0  0  0  0  0  0
  190.0550  177.2570  140.2360 N   0  0  1  0  0  0  0  0  0  0  0  0
  189.2880  176.8540  143.7260 O   0  0  0  0  0  0  0  0  0  0  0  0
  189.8900  176.9170  144.8940 O   0  0  0  0  0  1  0  0  0  0  0  0
  192.4560  176.6730  138.6560 O   0  0  0  0  0  0  0  0  0  0  0  0
  193.6490  176.1810  138.2970 O   0  0  0  0  0  0  0  0  0  0  0  0
  193.7670  176.4980  136.9420 C   0  0  0  0  0  2  0  0  0  0  0  0
  194.6760  175.4960  136.2500 C   0  0  0  0  0  2  0  0  0  0  0  0
  195.6380  174.9620  137.2030 N   0  0  0  0  0  2  0  0  0  0  0  0
  197.2440  173.9100  135.6440 O   0  0  0  0  0  1  0  0  0  0  0  0
  197.4530  176.1510  136.2390 O   0  0  0  0  0  0  0  0  0  0  0  0
  196.9380  174.9230  136.5540 C   0  0  0  0  0  0  0  0  0  0  0  0
  197.9880  175.4470  137.2610 O   0  0  0  0  0  0  0  0  0  0  0  0
  1  5  1  0  0  0  0
  2  3  1  0  0  0  0
  3 10  2  0  0  0  0
  5  8  2  0  0  0  0
  6 13  1  0  0  0  0
  7 10  1  6  0  0  0
  7 20  1  0  0  0  0
  8 23  1  0  0  0  0
  8  7  1  0  0  0  0
  9  1  2  0  0  0  0
 11  9  1  0  0  0  0
 12  4  1  1  0  0  0
 12  9  1  0  0  0  0
 12 10  1  0  0  0  0
 13  4  2  0  0  0  0
 14 13  1  0  0  0  0
 14  2  2  0  0  0  0
 15 16  1  0  0  0  0
 16 18  1  0  0  0  0
 17 18  1  0  0  0  0
 18 21  1  6  0  0  0
 19 17  1  0  0  0  0
 20 15  1  1  0  0  0
 20 19  1  0  0  0  0
 21 22  1  0  0  0  0
 24 23  1  0  0  0  0
 25 24  1  0  0  0  0
 26 25  1  0  0  0  0
 26 27  1  0  0  0  0
 28 30  1  0  0  0  0
 29 30  1  0  0  0  0
 29 31  1  0  0  0  0
 30 27  1  0  0  0  0
 30 31  1  0  0  0  0
M  END
>  <MODEL>
1

>  <REMARK>
 VINA RESULT:      -6.4      0.000      0.000
  Name = 
  8 active torsions:
  status: ('A' for Active; 'I' for Inactive)
    1  A    between atoms: C_7  and  O_15
    2  A    between atoms: C_7  and  C_20
    3  A    between atoms: O_9  and  C_21
    4  A    between atoms: O_10  and  O_15
    5  A    between atoms: O_10  and  C_16
    6  A    between atoms: C_12  and  N_30
    7  A    between atoms: C_20  and  N_28
    8  A    between atoms: C_22  and  N_28
                            x       y       z     vdW  Elec       q    Type
                         _______ _______ _______ _____ _____    ______ ____

>  <TORSDO>
F 8

$$$$
=
 OpenBabel10222422073D

 31 34  0  0  1  0  0  0  0  0999 V2000
  187.0690  178.3010  141.4130 C   0  0  0  0  0  3  0  0  0  0  0  0
  192.0150  178.2390  143.0860 C   0  0  0  0  0  3  0  0  0  0  0  0
  191.3410  177.7520  141.9150 N   0  0  0  0  0  0  0  0  0  0  0  0
  189.3930  177.1770  144.0880 N   0  0  0  0  0  0  0  0  0  0  0  0
  187.7660  178.7750  140.2490 N   0  0  0  0  0  0  0  0  0  0  0  0
  190.6140  176.4780  146.0280 C   0  0  0  0  0  1  0  0  0  0  0  0
  189.5260  177.1070  140.4550 C   0  0  2  0  0  3  0  0  0  0  0  0
  188.8730  178.2840  139.7740 C   0  0  0  0  0  0  0  0  0  0  0  0
  187.6310  177.8460  142.5450 C   0  0  0  0  0  0  0  0  0  0  0  0
  190.0690  177.5210  141.7880 C   0  0  0  0  0  0  0  0  0  0  0  0
  186.7680  177.3600  143.5220 O   0  0  0  0  0  1  0  0  0  0  0  0
  189.1130  177.9330  142.8750 C   0  0  2  0  0  3  0  0  0  0  0  0
  190.5160  177.2100  144.7380 C   0  0  0  0  0  0  0  0  0  0  0  0
  191.6370  177.9940  144.3070 N   0  0  0  0  0  0  0  0  0  0  0  0
  189.7350  175.7790  138.4790 C   0  0  0  0  0  2  0  0  0  0  0  0
  190.6150  174.7910  137.7140 C   0  0  0  0  0  2  0  0  0  0  0  0
  192.6030  176.1390  138.4700 C   0  0  0  0  0  2  0  0  0  0  0  0
  191.9220  175.4560  137.2820 C   0  0  2  0  0  3  0  0  0  0  0  0
  191.6220  177.0600  139.1910 C   0  0  0  0  0  2  0  0  0  0  0  0
  190.4550  176.2940  139.6450 N   0  0  1  0  0  0  0  0  0  0  0  0
  191.6810  176.3840  136.2670 O   0  0  0  0  0  0  0  0  0  0  0  0
  191.2280  175.6680  135.2600 O   0  0  0  0  0  1  0  0  0  0  0  0
  189.4460  178.8580  138.6400 O   0  0  0  0  0  0  0  0  0  0  0  0
  188.6960  179.4860  137.7240 O   0  0  0  0  0  0  0  0  0  0  0  0
  188.6250  178.5920  136.6540 C   0  0  0  0  0  2  0  0  0  0  0  0
  187.1740  178.3290  136.2900 C   0  0  0  0  0  2  0  0  0  0  0  0
  186.6250  177.3000  137.1610 N   0  0  0  0  0  2  0  0  0  0  0  0
  185.2530  178.9820  138.3470 O   0  0  0  0  0  1  0  0  0  0  0  0
  184.2800  177.4970  136.8410 O   0  0  0  0  0  0  0  0  0  0  0  0
  185.3430  177.7710  137.6580 C   0  0  0  0  0  0  0  0  0  0  0  0
  184.4280  176.8080  137.9940 O   0  0  0  0  0  0  0  0  0  0  0  0
  1  9  2  0  0  0  0
  2 14  2  0  0  0  0
  3  2  1  0  0  0  0
  4 13  2  0  0  0  0
  5  1  1  0  0  0  0
  7  8  1  6  0  0  0
  7 10  1  0  0  0  0
  8  5  2  0  0  0  0
  9 12  1  0  0  0  0
  9 11  1  0  0  0  0
 10  3  2  0  0  0  0
 12 10  1  6  0  0  0
 12  4  1  0  0  0  0
 13  6  1  0  0  0  0
 14 13  1  0  0  0  0
 16 15  1  0  0  0  0
 17 19  1  0  0  0  0
 18 21  1  6  0  0  0
 18 16  1  0  0  0  0
 18 17  1  0  0  0  0
 19 20  1  0  0  0  0
 20 15  1  6  0  0  0
 20  7  1  0  0  0  0
 22 21  1  0  0  0  0
 23  8  1  0  0  0  0
 24 23  1  0  0  0  0
 25 24  1  0  0  0  0
 26 25  1  0  0  0  0
 26 27  1  0  0  0  0
 27 30  1  0  0  0  0
 29 30  1  0  0  0  0
 29 31  1  0  0  0  0
 30 31  1  0  0  0  0
 30 28  1  0  0  0  0
M  END
>  <MODEL>
2

>  <REMARK>
 VINA RESULT:      -6.4      2.981      7.768
  Name = 
  8 active torsions:
  status: ('A' for Active; 'I' for Inactive)
    1  A    between atoms: C_7  and  O_15
    2  A    between atoms: C_7  and  C_20
    3  A    between atoms: O_9  and  C_21
    4  A    between atoms: O_10  and  O_15
    5  A    between atoms: O_10  and  C_16
    6  A    between atoms: C_12  and  N_30
    7  A    between atoms: C_20  and  N_28
    8  A    between atoms: C_22  and  N_28
                            x       y       z     vdW  Elec       q    Type
                         _______ _______ _______ _____ _____    ______ ____

>  <TORSDO>
F 8

$$$$
=
 OpenBabel10222422073D

 31 34  0  0  1  0  0  0  0  0999 V2000
  192.7200  176.4990  139.5060 C   0  0  0  0  0  3  0  0  0  0  0  0
  188.6700  179.3040  137.7760 C   0  0  0  0  0  3  0  0  0  0  0  0
  188.9460  178.5670  138.9770 N   0  0  0  0  0  0  0  0  0  0  0  0
  190.1330  176.8490  136.8590 N   0  0  0  0  0  0  0  0  0  0  0  0
  192.4610  177.3470  140.6370 N   0  0  0  0  0  0  0  0  0  0  0  0
  188.7010  176.9220  134.9400 C   0  0  0  0  0  1  0  0  0  0  0  0
  190.0510  177.0390  140.4900 C   0  0  2  0  0  3  0  0  0  0  0  0
  191.2870  177.6300  141.1220 C   0  0  0  0  0  0  0  0  0  0  0  0
  191.9770  176.4140  138.3900 C   0  0  0  0  0  0  0  0  0  0  0  0
  189.8350  177.6320  139.1310 C   0  0  0  0  0  0  0  0  0  0  0  0
  192.3670  175.4670  137.4490 O   0  0  0  0  0  1  0  0  0  0  0  0
  190.8290  177.3470  138.0380 C   0  0  2  0  0  3  0  0  0  0  0  0
  189.2370  177.5120  136.1940 C   0  0  0  0  0  0  0  0  0  0  0  0
  188.8060  178.8260  136.5730 N   0  0  0  0  0  0  0  0  0  0  0  0
  189.1610  176.2770  142.5720 C   0  0  0  0  0  2  0  0  0  0  0  0
  187.8880  176.0340  143.3830 C   0  0  0  0  0  2  0  0  0  0  0  0
  186.9800  178.1670  142.3980 C   0  0  0  0  0  2  0  0  0  0  0  0
  187.1780  177.3560  143.6800 C   0  0  2  0  0  3  0  0  0  0  0  0
  188.3000  178.3030  141.6420 C   0  0  0  0  0  2  0  0  0  0  0  0
  188.8360  176.9740  141.3250 N   0  0  1  0  0  0  0  0  0  0  0  0
  187.9080  178.0990  144.6120 O   0  0  0  0  0  0  0  0  0  0  0  0
  187.0890  178.2530  145.6300 O   0  0  0  0  0  1  0  0  0  0  0  0
  191.1870  178.4830  142.2190 O   0  0  0  0  0  0  0  0  0  0  0  0
  192.0420  178.3980  143.2470 O   0  0  0  0  0  0  0  0  0  0  0  0
  191.3160  178.8590  144.3480 C   0  0  0  0  0  2  0  0  0  0  0  0
  190.7810  177.6860  145.1490 C   0  0  0  0  0  2  0  0  0  0  0  0
  191.8750  177.0210  145.8430 N   0  0  0  0  0  2  0  0  0  0  0  0
  190.0730  176.8540  147.5290 O   0  0  0  0  0  1  0  0  0  0  0  0
  191.9640  175.5020  147.6660 O   0  0  0  0  0  0  0  0  0  0  0  0
  191.4050  176.6480  147.1670 C   0  0  0  0  0  0  0  0  0  0  0  0
  192.3280  176.6990  148.1780 O   0  0  0  0  0  0  0  0  0  0  0  0
  1  5  1  0  0  0  0
  2  3  1  0  0  0  0
  3 10  2  0  0  0  0
  5  8  2  0  0  0  0
  6 13  1  0  0  0  0
  7 10  1  6  0  0  0
  7  8  1  0  0  0  0
  7 20  1  0  0  0  0
  8 23  1  0  0  0  0
  9  1  2  0  0  0  0
 11  9  1  0  0  0  0
 12  4  1  6  0  0  0
 12  9  1  0  0  0  0
 12 10  1  0  0  0  0
 13 14  1  0  0  0  0
 13  4  2  0  0  0  0
 14  2  2  0  0  0  0
 15 16  1  0  0  0  0
 16 18  1  0  0  0  0
 17 18  1  0  0  0  0
 18 21  1  1  0  0  0
 19 17  1  0  0  0  0
 20 19  1  1  0  0  0
 20 15  1  0  0  0  0
 21 22  1  0  0  0  0
 23 24  1  0  0  0  0
 24 25  1  0  0  0  0
 25 26  1  0  0  0  0
 26 27  1  0  0  0  0
 27 30  1  0  0  0  0
 29 31  1  0  0  0  0
 30 28  1  0  0  0  0
 30 29  1  0  0  0  0
 30 31  1  0  0  0  0
M  END
>  <MODEL>
3

>  <REMARK>
 VINA RESULT:      -6.3      3.041      6.141
  Name = 
  8 active torsions:
  status: ('A' for Active; 'I' for Inactive)
    1  A    between atoms: C_7  and  O_15
    2  A    between atoms: C_7  and  C_20
    3  A    between atoms: O_9  and  C_21
    4  A    between atoms: O_10  and  O_15
    5  A    between atoms: O_10  and  C_16
    6  A    between atoms: C_12  and  N_30
    7  A    between atoms: C_20  and  N_28
    8  A    between atoms: C_22  and  N_28
                            x       y       z     vdW  Elec       q    Type
                         _______ _______ _______ _____ _____    ______ ____

>  <TORSDO>
F 8

$$$$
=
 OpenBabel10222422073D

 31 34  0  0  1  0  0  0  0  0999 V2000
  188.9480  177.5410  140.0040 C   0  0  0  0  0  3  0  0  0  0  0  0
  191.0070  176.1480  135.4120 C   0  0  0  0  0  3  0  0  0  0  0  0
  189.6990  176.0600  135.9980 N   0  0  0  0  0  0  0  0  0  0  0  0
  191.4940  175.4440  138.2890 N   0  0  0  0  0  0  0  0  0  0  0  0
  187.9930  178.0990  139.0850 N   0  0  0  0  0  0  0  0  0  0  0  0
  193.3240  174.1270  137.4780 C   0  0  0  0  0  1  0  0  0  0  0  0
  187.9700  176.1080  137.6860 C   0  0  2  0  0  3  0  0  0  0  0  0
  187.5210  177.5070  138.0280 C   0  0  0  0  0  0  0  0  0  0  0  0
  189.9920  176.7570  139.6850 C   0  0  0  0  0  0  0  0  0  0  0  0
  189.4060  176.1180  137.2630 C   0  0  0  0  0  0  0  0  0  0  0  0
  190.7470  176.2610  140.7430 O   0  0  0  0  0  1  0  0  0  0  0  0
  190.4670  176.4760  138.2690 C   0  0  2  0  0  3  0  0  0  0  0  0
  192.2340  175.1170  137.2740 C   0  0  0  0  0  0  0  0  0  0  0  0
  192.0990  175.7330  135.9860 N   0  0  0  0  0  0  0  0  0  0  0  0
  187.5990  173.9440  136.7410 C   0  0  0  0  0  2  0  0  0  0  0  0
  186.8090  173.1410  135.7080 C   0  0  0  0  0  2  0  0  0  0  0  0
  184.8090  174.5550  136.2930 C   0  0  0  0  0  2  0  0  0  0  0  0
  185.3200  173.1330  136.0550 C   0  0  2  0  0  3  0  0  0  0  0  0
  185.6980  175.2820  137.2990 C   0  0  0  0  0  2  0  0  0  0  0  0
  187.0830  175.3130  136.8130 N   0  0  1  0  0  0  0  0  0  0  0  0
  185.0910  172.3440  137.1860 O   0  0  0  0  0  0  0  0  0  0  0  0
  183.8080  172.0530  137.1350 O   0  0  0  0  0  1  0  0  0  0  0  0
  186.6070  178.1790  137.2180 O   0  0  0  0  0  0  0  0  0  0  0  0
  185.7510  179.0740  137.7290 O   0  0  0  0  0  0  0  0  0  0  0  0
  184.5470  178.3780  137.8550 C   0  0  0  0  0  2  0  0  0  0  0  0
  184.1050  178.3590  139.3080 C   0  0  0  0  0  2  0  0  0  0  0  0
  184.7520  179.4420  140.0350 N   0  0  0  0  0  2  0  0  0  0  0  0
  183.8150  178.3570  142.0510 O   0  0  0  0  0  1  0  0  0  0  0  0
  186.1120  178.6520  141.8140 O   0  0  0  0  0  0  0  0  0  0  0  0
  184.8590  179.0440  141.4290 C   0  0  0  0  0  0  0  0  0  0  0  0
  185.6290  179.8420  142.2330 O   0  0  0  0  0  0  0  0  0  0  0  0
  2 14  2  0  0  0  0
  2  3  1  0  0  0  0
  3 10  2  0  0  0  0
  5  1  1  0  0  0  0
  7 10  1  6  0  0  0
  7  8  1  0  0  0  0
  8  5  2  0  0  0  0
  9  1  2  0  0  0  0
  9 11  1  0  0  0  0
 12 10  1  6  0  0  0
 12  4  1  0  0  0  0
 12  9  1  0  0  0  0
 13  6  1  0  0  0  0
 13  4  2  0  0  0  0
 14 13  1  0  0  0  0
 16 18  1  0  0  0  0
 16 15  1  0  0  0  0
 17 19  1  0  0  0  0
 18 17  1  0  0  0  0
 18 21  1  1  0  0  0
 20 15  1  1  0  0  0
 20 19  1  0  0  0  0
 20  7  1  0  0  0  0
 22 21  1  0  0  0  0
 23 24  1  0  0  0  0
 23  8  1  0  0  0  0
 24 25  1  0  0  0  0
 25 26  1  0  0  0  0
 26 27  1  0  0  0  0
 27 30  1  0  0  0  0
 29 31  1  0  0  0  0
 30 29  1  0  0  0  0
 30 28  1  0  0  0  0
 30 31  1  0  0  0  0
M  END
>  <MODEL>
4

>  <REMARK>
 VINA RESULT:      -5.9      3.472      8.292
  Name = 
  8 active torsions:
  status: ('A' for Active; 'I' for Inactive)
    1  A    between atoms: C_7  and  O_15
    2  A    between atoms: C_7  and  C_20
    3  A    between atoms: O_9  and  C_21
    4  A    between atoms: O_10  and  O_15
    5  A    between atoms: O_10  and  C_16
    6  A    between atoms: C_12  and  N_30
    7  A    between atoms: C_20  and  N_28
    8  A    between atoms: C_22  and  N_28
                            x       y       z     vdW  Elec       q    Type
                         _______ _______ _______ _____ _____    ______ ____

>  <TORSDO>
F 8

$$$$
=
 OpenBabel10222422073D

 31 34  0  0  1  0  0  0  0  0999 V2000
  185.9100  178.8150  141.5550 C   0  0  0  0  0  3  0  0  0  0  0  0
  188.6850  178.8920  137.1320 C   0  0  0  0  0  3  0  0  0  0  0  0
  187.3290  178.5560  137.4660 N   0  0  0  0  0  0  0  0  0  0  0  0
  188.8680  177.4550  139.7600 N   0  0  0  0  0  0  0  0  0  0  0  0
  185.0280  179.5380  140.6800 N   0  0  0  0  0  0  0  0  0  0  0  0
  190.9200  176.5430  138.9230 C   0  0  0  0  0  1  0  0  0  0  0  0
  185.4010  178.0160  138.8190 C   0  0  2  0  0  3  0  0  0  0  0  0
  184.7630  179.2310  139.4440 C   0  0  0  0  0  0  0  0  0  0  0  0
  187.0650  178.2240  141.2050 C   0  0  0  0  0  0  0  0  0  0  0  0
  186.8710  178.2410  138.6400 C   0  0  0  0  0  0  0  0  0  0  0  0
  187.7260  177.5070  142.1970 O   0  0  0  0  0  1  0  0  0  0  0  0
  187.7470  178.3790  139.8550 C   0  0  2  0  0  3  0  0  0  0  0  0
  189.7640  177.4730  138.8220 C   0  0  0  0  0  0  0  0  0  0  0  0
  189.7320  178.4110  137.7380 N   0  0  0  0  0  0  0  0  0  0  0  0
  185.5440  176.3340  137.1260 C   0  0  0  0  0  2  0  0  0  0  0  0
  184.9670  175.8260  135.8060 C   0  0  0  0  0  2  0  0  0  0  0  0
  182.6910  176.4600  136.6780 C   0  0  0  0  0  2  0  0  0  0  0  0
  183.5180  175.3730  135.9910 C   0  0  2  0  0  3  0  0  0  0  0  0
  183.3840  176.9310  137.9550 C   0  0  0  0  0  2  0  0  0  0  0  0
  184.7260  177.4350  137.6410 N   0  0  1  0  0  0  0  0  0  0  0  0
  183.4710  174.1900  136.7340 O   0  0  0  0  0  0  0  0  0  0  0  0
  184.2430  173.3520  136.0750 O   0  0  0  0  0  1  0  0  0  0  0  0
  183.8940  180.0370  138.7090 O   0  0  0  0  0  0  0  0  0  0  0  0
  182.5830  180.0740  138.9810 O   0  0  0  0  0  0  0  0  0  0  0  0
  182.2340  181.4200  138.8460 C   0  0  0  0  0  2  0  0  0  0  0  0
  181.1790  181.5780  137.7650 C   0  0  0  0  0  2  0  0  0  0  0  0
  180.5210  182.8690  137.9020 N   0  0  0  0  0  2  0  0  0  0  0  0
  181.1070  183.4210  135.5630 O   0  0  0  0  0  1  0  0  0  0  0  0
  180.8670  185.0980  137.1600 O   0  0  0  0  0  0  0  0  0  0  0  0
  181.0910  183.7700  136.9140 C   0  0  0  0  0  0  0  0  0  0  0  0
  182.1030  184.5860  137.3460 O   0  0  0  0  0  0  0  0  0  0  0  0
  2  3  1  0  0  0  0
  2 14  2  0  0  0  0
  3 10  2  0  0  0  0
  4 12  1  0  0  0  0
  5  1  1  0  0  0  0
  7 10  1  6  0  0  0
  7  8  1  0  0  0  0
  8  5  2  0  0  0  0
  9  1  2  0  0  0  0
  9 11  1  0  0  0  0
 12 10  1  6  0  0  0
 12  9  1  0  0  0  0
 13  6  1  0  0  0  0
 13  4  2  0  0  0  0
 14 13  1  0  0  0  0
 16 18  1  0  0  0  0
 16 15  1  0  0  0  0
 17 19  1  0  0  0  0
 18 17  1  0  0  0  0
 18 21  1  1  0  0  0
 20 15  1  1  0  0  0
 20 19  1  0  0  0  0
 20  7  1  0  0  0  0
 22 21  1  0  0  0  0
 23 24  1  0  0  0  0
 23  8  1  0  0  0  0
 25 24  1  0  0  0  0
 26 27  1  0  0  0  0
 26 25  1  0  0  0  0
 28 30  1  0  0  0  0
 29 31  1  0  0  0  0
 30 29  1  0  0  0  0
 30 31  1  0  0  0  0
 30 27  1  0  0  0  0
M  END
>  <MODEL>
5

>  <REMARK>
 VINA RESULT:      -5.8      5.542     10.255
  Name = 
  8 active torsions:
  status: ('A' for Active; 'I' for Inactive)
    1  A    between atoms: C_7  and  O_15
    2  A    between atoms: C_7  and  C_20
    3  A    between atoms: O_9  and  C_21
    4  A    between atoms: O_10  and  O_15
    5  A    between atoms: O_10  and  C_16
    6  A    between atoms: C_12  and  N_30
    7  A    between atoms: C_20  and  N_28
    8  A    between atoms: C_22  and  N_28
                            x       y       z     vdW  Elec       q    Type
                         _______ _______ _______ _____ _____    ______ ____

>  <TORSDO>
F 8

$$$$
=
 OpenBabel10222422073D

 31 34  0  0  1  0  0  0  0  0999 V2000
  185.7700  178.9210  141.4090 C   0  0  0  0  0  3  0  0  0  0  0  0
  188.5610  178.7360  137.0000 C   0  0  0  0  0  3  0  0  0  0  0  0
  187.2170  178.3790  137.3580 N   0  0  0  0  0  0  0  0  0  0  0  0
  188.7830  177.5260  139.7380 N   0  0  0  0  0  0  0  0  0  0  0  0
  184.8660  179.5380  140.4770 N   0  0  0  0  0  0  0  0  0  0  0  0
  190.8700  176.6230  138.9820 C   0  0  0  0  0  1  0  0  0  0  0  0
  185.3030  177.8830  138.7470 C   0  0  2  0  0  3  0  0  0  0  0  0
  184.6180  179.1210  139.2700 C   0  0  0  0  0  0  0  0  0  0  0  0
  186.9470  178.3450  141.1120 C   0  0  0  0  0  0  0  0  0  0  0  0
  186.7640  178.1460  138.5530 C   0  0  0  0  0  0  0  0  0  0  0  0
  187.6280  177.7370  142.1610 O   0  0  0  0  0  1  0  0  0  0  0  0
  187.6290  178.4140  139.7550 C   0  0  2  0  0  3  0  0  0  0  0  0
  189.6830  177.4990  138.8030 C   0  0  0  0  0  0  0  0  0  0  0  0
  189.6220  178.3440  137.6450 N   0  0  0  0  0  0  0  0  0  0  0  0
  185.4010  175.9550  137.3380 C   0  0  0  0  0  2  0  0  0  0  0  0
  184.8650  175.2970  136.0670 C   0  0  0  0  0  2  0  0  0  0  0  0
  182.6050  176.2380  136.6590 C   0  0  0  0  0  2  0  0  0  0  0  0
  183.3720  174.9950  136.2050 C   0  0  2  0  0  3  0  0  0  0  0  0
  183.2550  176.8430  137.9010 C   0  0  0  0  0  2  0  0  0  0  0  0
  184.6550  177.1830  137.6200 N   0  0  1  0  0  0  0  0  0  0  0  0
  183.1710  173.9480  137.1090 O   0  0  0  0  0  0  0  0  0  0  0  0
  182.0400  173.3930  136.7300 O   0  0  0  0  0  1  0  0  0  0  0  0
  183.7250  179.8320  138.4700 O   0  0  0  0  0  0  0  0  0  0  0  0
  183.0130  180.8550  138.9620 O   0  0  0  0  0  0  0  0  0  0  0  0
  181.7670  180.7470  138.3410 C   0  0  0  0  0  2  0  0  0  0  0  0
  180.9520  179.6450  138.9950 C   0  0  0  0  0  2  0  0  0  0  0  0
  180.8060  179.9160  140.4170 N   0  0  0  0  0  2  0  0  0  0  0  0
  181.0820  177.4590  140.4750 O   0  0  0  0  0  1  0  0  0  0  0  0
  182.0340  178.8050  142.1190 O   0  0  0  0  0  0  0  0  0  0  0  0
  181.0850  178.6870  141.1400 C   0  0  0  0  0  0  0  0  0  0  0  0
  180.7350  178.6650  142.4640 O   0  0  0  0  0  0  0  0  0  0  0  0
  2  3  1  0  0  0  0
  2 14  2  0  0  0  0
  3 10  2  0  0  0  0
  4 12  1  0  0  0  0
  5  1  1  0  0  0  0
  7 10  1  6  0  0  0
  7  8  1  0  0  0  0
  8  5  2  0  0  0  0
  9  1  2  0  0  0  0
  9 11  1  0  0  0  0
 12 10  1  6  0  0  0
 12  9  1  0  0  0  0
 13  6  1  0  0  0  0
 13  4  2  0  0  0  0
 14 13  1  0  0  0  0
 16 18  1  0  0  0  0
 16 15  1  0  0  0  0
 17 19  1  0  0  0  0
 18 17  1  0  0  0  0
 18 21  1  1  0  0  0
 20 15  1  1  0  0  0
 20 19  1  0  0  0  0
 20  7  1  0  0  0  0
 22 21  1  0  0  0  0
 23 24  1  0  0  0  0
 23  8  1  0  0  0  0
 25 24  1  0  0  0  0
 25 26  1  0  0  0  0
 26 27  1  0  0  0  0
 27 30  1  0  0  0  0
 28 30  1  0  0  0  0
 29 31  1  0  0  0  0
 30 29  1  0  0  0  0
 30 31  1  0  0  0  0
M  END
>  <MODEL>
6

>  <REMARK>
 VINA RESULT:      -5.8      5.019      9.955
  Name = 
  8 active torsions:
  status: ('A' for Active; 'I' for Inactive)
    1  A    between atoms: C_7  and  O_15
    2  A    between atoms: C_7  and  C_20
    3  A    between atoms: O_9  and  C_21
    4  A    between atoms: O_10  and  O_15
    5  A    between atoms: O_10  and  C_16
    6  A    between atoms: C_12  and  N_30
    7  A    between atoms: C_20  and  N_28
    8  A    between atoms: C_22  and  N_28
                            x       y       z     vdW  Elec       q    Type
                         _______ _______ _______ _____ _____    ______ ____

>  <TORSDO>
F 8

$$$$
=
 OpenBabel10222422073D

 31 34  0  0  1  0  0  0  0  0999 V2000
  188.7290  178.6900  138.6380 C   0  0  0  0  0  3  0  0  0  0  0  0
  188.1460  173.6900  137.2520 C   0  0  0  0  0  3  0  0  0  0  0  0
  189.2750  174.5390  137.5110 N   0  0  0  0  0  0  0  0  0  0  0  0
  187.4010  176.3480  136.0750 N   0  0  0  0  0  0  0  0  0  0  0  0
  189.5930  178.0340  139.5810 N   0  0  0  0  0  0  0  0  0  0  0  0
  186.3040  175.0870  134.3580 C   0  0  0  0  0  1  0  0  0  0  0  0
  190.5440  176.5610  137.8930 C   0  0  2  0  0  3  0  0  0  0  0  0
  190.4240  177.0710  139.3070 C   0  0  0  0  0  0  0  0  0  0  0  0
  188.0880  178.1090  137.6110 C   0  0  0  0  0  0  0  0  0  0  0  0
  189.2920  175.8380  137.5000 C   0  0  0  0  0  0  0  0  0  0  0  0
  187.3620  178.9480  136.7720 O   0  0  0  0  0  1  0  0  0  0  0  0
  188.0060  176.6100  137.3740 C   0  0  2  0  0  3  0  0  0  0  0  0
  187.0160  175.1810  135.6600 C   0  0  0  0  0  0  0  0  0  0  0  0
  187.1710  173.9900  136.4440 N   0  0  0  0  0  0  0  0  0  0  0  0
  191.9240  175.8440  136.0780 C   0  0  0  0  0  2  0  0  0  0  0  0
  193.1090  174.9710  135.6680 C   0  0  0  0  0  2  0  0  0  0  0  0
  194.2190  175.6460  137.8250 C   0  0  0  0  0  2  0  0  0  0  0  0
  194.3990  175.4740  136.3160 C   0  0  2  0  0  3  0  0  0  0  0  0
  192.9800  176.4870  138.1230 C   0  0  0  0  0  2  0  0  0  0  0  0
  191.7910  175.8560  137.5360 N   0  0  1  0  0  0  0  0  0  0  0  0
  194.7920  176.6840  135.7380 O   0  0  0  0  0  0  0  0  0  0  0  0
  196.1040  176.6930  135.8410 O   0  0  0  0  0  1  0  0  0  0  0  0
  191.1930  176.5170  140.3310 O   0  0  0  0  0  0  0  0  0  0  0  0
  191.7090  177.2800  141.3030 O   0  0  0  0  0  0  0  0  0  0  0  0
  190.9960  176.9200  142.4490 C   0  0  0  0  0  2  0  0  0  0  0  0
  191.5580  177.6440  143.6610 C   0  0  0  0  0  2  0  0  0  0  0  0
  190.4950  178.3710  144.3380 N   0  0  0  0  0  2  0  0  0  0  0  0
  190.7150  176.5340  145.9800 O   0  0  0  0  0  1  0  0  0  0  0  0
  188.9880  178.0870  146.1520 O   0  0  0  0  0  0  0  0  0  0  0  0
  189.9240  177.4940  145.3470 C   0  0  0  0  0  0  0  0  0  0  0  0
  188.5930  177.1980  145.2140 O   0  0  0  0  0  0  0  0  0  0  0  0
  1  5  1  0  0  0  0
  2  3  1  0  0  0  0
  6 13  1  0  0  0  0
  7 10  1  1  0  0  0
  7  8  1  0  0  0  0
  8  5  2  0  0  0  0
  8 23  1  0  0  0  0
  9  1  2  0  0  0  0
 10  3  2  0  0  0  0
 11  9  1  0  0  0  0
 12  4  1  6  0  0  0
 12 10  1  0  0  0  0
 12  9  1  0  0  0  0
 13  4  2  0  0  0  0
 13 14  1  0  0  0  0
 14  2  2  0  0  0  0
 16 15  1  0  0  0  0
 16 18  1  0  0  0  0
 17 19  1  0  0  0  0
 18 21  1  6  0  0  0
 18 17  1  0  0  0  0
 20 15  1  6  0  0  0
 20  7  1  0  0  0  0
 20 19  1  0  0  0  0
 21 22  1  0  0  0  0
 23 24  1  0  0  0  0
 24 25  1  0  0  0  0
 25 26  1  0  0  0  0
 26 27  1  0  0  0  0
 27 30  1  0  0  0  0
 30 28  1  0  0  0  0
 30 29  1  0  0  0  0
 31 30  1  0  0  0  0
 31 29  1  0  0  0  0
M  END
>  <MODEL>
7

>  <REMARK>
 VINA RESULT:      -5.7      2.135      6.850
  Name = 
  8 active torsions:
  status: ('A' for Active; 'I' for Inactive)
    1  A    between atoms: C_7  and  O_15
    2  A    between atoms: C_7  and  C_20
    3  A    between atoms: O_9  and  C_21
    4  A    between atoms: O_10  and  O_15
    5  A    between atoms: O_10  and  C_16
    6  A    between atoms: C_12  and  N_30
    7  A    between atoms: C_20  and  N_28
    8  A    between atoms: C_22  and  N_28
                            x       y       z     vdW  Elec       q    Type
                         _______ _______ _______ _____ _____    ______ ____

>  <TORSDO>
F 8

$$$$
=
 OpenBabel10222422073D

 31 34  0  0  1  0  0  0  0  0999 V2000
  185.0560  176.5940  136.4510 C   0  0  0  0  0  3  0  0  0  0  0  0
  182.8220  180.6600  138.8460 C   0  0  0  0  0  3  0  0  0  0  0  0
  184.0540  179.9410  139.0180 N   0  0  0  0  0  0  0  0  0  0  0  0
  182.1100  177.7810  138.3820 N   0  0  0  0  0  0  0  0  0  0  0  0
  186.1410  177.5380  136.4750 N   0  0  0  0  0  0  0  0  0  0  0  0
  180.0300  178.3020  139.4510 C   0  0  0  0  0  1  0  0  0  0  0  0
  185.7020  178.1900  138.7790 C   0  0  2  0  0  3  0  0  0  0  0  0
  186.4760  178.2830  137.4870 C   0  0  0  0  0  0  0  0  0  0  0  0
  183.8590  176.7450  137.0400 C   0  0  0  0  0  0  0  0  0  0  0  0
  184.3230  178.7430  138.5930 C   0  0  0  0  0  0  0  0  0  0  0  0
  182.9800  175.6700  136.9560 O   0  0  0  0  0  1  0  0  0  0  0  0
  183.3610  178.0310  137.6800 C   0  0  2  0  0  3  0  0  0  0  0  0
  181.3360  178.7030  138.8650 C   0  0  0  0  0  0  0  0  0  0  0  0
  181.6480  180.1010  138.7800 N   0  0  0  0  0  0  0  0  0  0  0  0
  185.4940  178.4340  141.1470 C   0  0  0  0  0  2  0  0  0  0  0  0
  186.0940  179.0620  142.4040 C   0  0  0  0  0  2  0  0  0  0  0  0
  188.3670  178.5560  141.4450 C   0  0  0  0  0  2  0  0  0  0  0  0
  187.4800  178.4800  142.6880 C   0  0  2  0  0  3  0  0  0  0  0  0
  187.6510  177.9500  140.2390 C   0  0  0  0  0  2  0  0  0  0  0  0
  186.3840  178.6520  140.0040 N   0  0  1  0  0  0  0  0  0  0  0  0
  187.3700  177.1560  143.1210 O   0  0  0  0  0  0  0  0  0  0  0  0
  186.7350  177.2320  144.2710 O   0  0  0  0  0  1  0  0  0  0  0  0
  187.5460  179.1680  137.3610 O   0  0  0  0  0  0  0  0  0  0  0  0
  188.8100  178.7570  137.5270 O   0  0  0  0  0  0  0  0  0  0  0  0
  189.1790  178.2380  136.2850 C   0  0  0  0  0  2  0  0  0  0  0  0
  189.9090  176.9190  136.4670 C   0  0  0  0  0  2  0  0  0  0  0  0
  189.4240  176.2470  137.6630 N   0  0  0  0  0  2  0  0  0  0  0  0
  191.2790  174.6670  138.0900 O   0  0  0  0  0  1  0  0  0  0  0  0
  191.3580  176.8470  138.9040 O   0  0  0  0  0  0  0  0  0  0  0  0
  190.5790  175.8230  138.4390 C   0  0  0  0  0  0  0  0  0  0  0  0
  190.5780  176.1590  139.7660 O   0  0  0  0  0  0  0  0  0  0  0  0
  1  5  1  0  0  0  0
  1  9  2  0  0  0  0
  2  3  1  0  0  0  0
  4 13  2  0  0  0  0
  5  8  2  0  0  0  0
  7  8  1  6  0  0  0
  7 20  1  0  0  0  0
 10  7  1  0  0  0  0
 10  3  2  0  0  0  0
 11  9  1  0  0  0  0
 12  9  1  1  0  0  0
 12  4  1  0  0  0  0
 12 10  1  0  0  0  0
 13  6  1  0  0  0  0
 14  2  2  0  0  0  0
 14 13  1  0  0  0  0
 15 16  1  0  0  0  0
 16 18  1  0  0  0  0
 17 18  1  0  0  0  0
 18 21  1  6  0  0  0
 19 17  1  0  0  0  0
 20 19  1  1  0  0  0
 20 15  1  0  0  0  0
 21 22  1  0  0  0  0
 23  8  1  0  0  0  0
 23 24  1  0  0  0  0
 25 26  1  0  0  0  0
 25 24  1  0  0  0  0
 26 27  1  0  0  0  0
 27 30  1  0  0  0  0
 28 30  1  0  0  0  0
 29 31  1  0  0  0  0
 30 29  1  0  0  0  0
 30 31  1  0  0  0  0
M  END
>  <MODEL>
8

>  <REMARK>
 VINA RESULT:      -5.7      3.391      5.271
  Name = 
  8 active torsions:
  status: ('A' for Active; 'I' for Inactive)
    1  A    between atoms: C_7  and  O_15
    2  A    between atoms: C_7  and  C_20
    3  A    between atoms: O_9  and  C_21
    4  A    between atoms: O_10  and  O_15
    5  A    between atoms: O_10  and  C_16
    6  A    between atoms: C_12  and  N_30
    7  A    between atoms: C_20  and  N_28
    8  A    between atoms: C_22  and  N_28
                            x       y       z     vdW  Elec       q    Type
                         _______ _______ _______ _____ _____    ______ ____

>  <TORSDO>
F 8

$$$$
=
 OpenBabel10222422073D

 31 34  0  0  1  0  0  0  0  0999 V2000
  182.3720  180.2500  138.6210 C   0  0  0  0  0  3  0  0  0  0  0  0
  182.1320  175.0480  138.2490 C   0  0  0  0  0  3  0  0  0  0  0  0
  183.2000  176.0070  138.2940 N   0  0  0  0  0  0  0  0  0  0  0  0
  181.1600  177.3670  136.6110 N   0  0  0  0  0  0  0  0  0  0  0  0
  183.3060  179.8510  139.6390 N   0  0  0  0  0  0  0  0  0  0  0  0
  180.1180  175.7230  135.2140 C   0  0  0  0  0  1  0  0  0  0  0  0
  184.3220  178.1460  138.2290 C   0  0  2  0  0  3  0  0  0  0  0  0
  184.2000  178.9140  139.5230 C   0  0  0  0  0  0  0  0  0  0  0  0
  181.7510  179.4370  137.7510 C   0  0  0  0  0  0  0  0  0  0  0  0
  183.1190  177.2770  138.0320 C   0  0  0  0  0  0  0  0  0  0  0  0
  180.9420  180.0440  136.7950 O   0  0  0  0  0  1  0  0  0  0  0  0
  181.7760  177.9180  137.8110 C   0  0  2  0  0  3  0  0  0  0  0  0
  180.8530  176.1180  136.4450 C   0  0  0  0  0  0  0  0  0  0  0  0
  181.1170  175.1160  137.4370 N   0  0  0  0  0  0  0  0  0  0  0  0
  185.7790  177.3320  136.5190 C   0  0  0  0  0  2  0  0  0  0  0  0
  187.0140  176.4830  136.2170 C   0  0  0  0  0  2  0  0  0  0  0  0
  188.0360  177.4100  138.3240 C   0  0  0  0  0  2  0  0  0  0  0  0
  188.2620  177.1080  136.8420 C   0  0  2  0  0  3  0  0  0  0  0  0
  186.7520  178.2140  138.5150 C   0  0  0  0  0  2  0  0  0  0  0  0
  185.6090  177.4730  137.9670 N   0  0  1  0  0  0  0  0  0  0  0  0
  188.6120  178.2760  136.1600 O   0  0  0  0  0  0  0  0  0  0  0  0
  189.3550  178.9500  137.0130 O   0  0  0  0  0  1  0  0  0  0  0  0
  185.0330  178.6240  140.6020 O   0  0  0  0  0  0  0  0  0  0  0  0
  185.2860  179.5370  141.5500 O   0  0  0  0  0  0  0  0  0  0  0  0
  186.0710  178.8630  142.4880 C   0  0  0  0  0  2  0  0  0  0  0  0
  185.1910  178.2760  143.5780 C   0  0  0  0  0  2  0  0  0  0  0  0
  185.0490  179.2310  144.6670 N   0  0  0  0  0  2  0  0  0  0  0  0
  186.4450  177.5640  145.8460 O   0  0  0  0  0  1  0  0  0  0  0  0
  185.6040  179.4220  146.9680 O   0  0  0  0  0  0  0  0  0  0  0  0
  185.4950  178.5850  145.8910 C   0  0  0  0  0  0  0  0  0  0  0  0
  184.5890  178.5320  146.9160 O   0  0  0  0  0  0  0  0  0  0  0  0
  1  5  1  0  0  0  0
  2  3  1  0  0  0  0
  6 13  1  0  0  0  0
  7 10  1  1  0  0  0
  7  8  1  0  0  0  0
  8  5  2  0  0  0  0
  8 23  1  0  0  0  0
  9 12  1  0  0  0  0
  9  1  2  0  0  0  0
 10  3  2  0  0  0  0
 11  9  1  0  0  0  0
 12  4  1  6  0  0  0
 12 10  1  0  0  0  0
 13  4  2  0  0  0  0
 13 14  1  0  0  0  0
 14  2  2  0  0  0  0
 16 15  1  0  0  0  0
 16 18  1  0  0  0  0
 17 19  1  0  0  0  0
 18 21  1  6  0  0  0
 18 17  1  0  0  0  0
 20 15  1  6  0  0  0
 20  7  1  0  0  0  0
 20 19  1  0  0  0  0
 21 22  1  0  0  0  0
 23 24  1  0  0  0  0
 24 25  1  0  0  0  0
 25 26  1  0  0  0  0
 26 27  1  0  0  0  0
 27 30  1  0  0  0  0
 28 30  1  0  0  0  0
 30 31  1  0  0  0  0
 30 29  1  0  0  0  0
 31 29  1  0  0  0  0
M  END
>  <MODEL>
9

>  <REMARK>
 VINA RESULT:      -5.7      5.119      9.317
  Name = 
  8 active torsions:
  status: ('A' for Active; 'I' for Inactive)
    1  A    between atoms: C_7  and  O_15
    2  A    between atoms: C_7  and  C_20
    3  A    between atoms: O_9  and  C_21
    4  A    between atoms: O_10  and  O_15
    5  A    between atoms: O_10  and  C_16
    6  A    between atoms: C_12  and  N_30
    7  A    between atoms: C_20  and  N_28
    8  A    between atoms: C_22  and  N_28
                            x       y       z     vdW  Elec       q    Type
                         _______ _______ _______ _____ _____    ______ ____

>  <TORSDO>
F 8

$$$$
