=
 OpenBabel10232408483D

 64 70  0  0  1  0  0  0  0  0999 V2000
  189.7950  177.5230  146.0650 C   0  0  1  0  0  3  0  0  0  0  0  0
  190.1600  175.7470  147.6340 O   0  0  0  0  0  1  0  0  0  0  0  0
  190.6460  176.7170  146.9940 C   0  0  0  0  0  0  0  0  0  0  0  0
  191.9940  177.0210  147.1250 O   0  0  0  0  0  0  0  0  0  0  0  0
  190.5120  177.8490  144.7550 C   0  0  0  0  0  2  0  0  0  0  0  0
  190.8230  176.6000  143.9430 C   0  0  0  0  0  2  0  0  0  0  0  0
  189.6210  176.8230  141.7750 N   0  0  0  0  0  0  0  0  0  0  0  0
  191.8170  177.3370  141.7790 N   0  0  0  0  0  2  0  0  0  0  0  0
  190.7570  176.9100  142.4900 C   0  0  0  0  0  0  0  0  0  0  0  0
  191.3400  177.5220  140.5330 C   0  0  0  0  0  3  0  0  0  0  0  0
  189.9970  177.2010  140.5410 C   0  0  0  0  0  0  0  0  0  0  0  0
  189.0600  177.2740  139.4010 C   0  0  0  0  0  0  0  0  0  0  0  0
  188.0040  178.2170  139.4040 N   0  0  0  0  0  2  0  0  0  0  0  0
  188.0470  176.7950  137.2960 C   0  0  2  0  0  3  0  0  0  0  0  0
  186.9540  178.0830  137.9950 S   0  0  0  0  0  0  0  0  0  0  0  0
  189.0930  176.4940  138.3250 C   0  0  0  0  0  0  0  0  0  0  0  0
  190.0430  175.4340  138.1640 N   0  0  0  0  0  2  0  0  0  0  0  0
  195.8190  174.3820  137.0840 C   0  0  0  0  0  2  0  0  0  0  0  0
  196.3850  173.5930  138.2690 C   0  0  0  0  0  2  0  0  0  0  0  0
  192.9300  176.4250  137.3760 C   0  0  0  0  0  2  0  0  0  0  0  0
  195.2980  171.6360  137.4300 C   0  0  0  0  0  2  0  0  0  0  0  0
  192.3940  173.6110  135.8010 C   0  0  0  0  0  2  0  0  0  0  0  0
  194.3620  174.4510  137.1310 N   0  0  1  0  0  0  0  0  0  0  0  0
  190.7450  175.1790  136.9140 C   0  0  1  0  0  3  0  0  0  0  0  0
  193.9140  171.9970  136.9090 C   0  0  0  0  0  2  0  0  0  0  0  0
  191.6390  176.3740  136.5690 C   0  0  0  0  0  2  0  0  0  0  0  0
  191.4900  173.8450  137.0030 C   0  0  0  0  0  2  0  0  0  0  0  0
  195.5770  172.4270  138.6230 N   0  0  0  0  0  2  0  0  0  0  0  0
  194.0520  175.7690  136.5840 C   0  0  0  0  0  2  0  0  0  0  0  0
  193.8480  173.3820  136.2420 C   0  0  1  0  0  3  0  0  0  0  0  0
  188.6820  177.3110  136.0940 N   0  0  0  0  0  2  0  0  0  0  0  0
  187.8950  176.8510  134.9630 C   0  0  0  0  0  2  0  0  0  0  0  0
  186.9490  175.3910  135.4420 P   0  0  0  0  0  2  0  0  0  0  0  0
  187.3600  174.6420  136.6900 O   0  0  0  0  0  1  0  0  0  0  0  0
  185.7860  174.5370  134.3460 C   0  0  0  0  0 15  0  0  0  0  0  0
  188.3920  175.6880  134.5110 O   0  0  0  0  0  0  0  0  0  0  0  0
  188.5220  176.8600  145.8090 N   0  0  0  0  0  2  0  0  0  0  0  0
  185.6250  179.0480  144.8440 N   0  0  0  0  0  2  0  0  0  0  0  0
  186.6770  178.0880  144.7290 C   0  0  0  0  0  0  0  0  0  0  0  0
  186.8600  177.4650  143.6480 O   0  0  0  0  0  0  0  0  0  0  0  0
  187.5280  177.8470  145.8490 N   0  0  0  0  0  2  0  0  0  0  0  0
  184.7620  179.4130  143.7300 C   0  0  0  0  0  2  0  0  0  0  0  0
  184.0410  178.2290  143.2440 N   0  0  0  0  0  2  0  0  0  0  0  0
  184.0490  178.1490  141.8290 N   0  0  0  0  0  0  0  0  0  0  0  0
  184.9750  179.1290  141.2690 C   0  0  0  0  0  1  0  0  0  0  0  0
  182.7070  178.3980  141.3080 C   0  0  0  0  0  2  0  0  0  0  0  0
  182.6660  178.1070  139.8170 C   0  0  0  0  0  2  0  0  0  0  0  0
  181.2470  180.0450  139.7920 O   0  0  0  0  0  0  0  0  0  0  0  0
  180.3450  181.1240  137.8570 C   0  0  0  0  0  2  0  0  0  0  0  0
  181.0840  180.1580  136.9250 C   0  0  1  0  0  3  0  0  0  0  0  0
  180.5790  177.9700  137.8070 O   0  0  0  0  0  0  0  0  0  0  0  0
  181.6130  178.9270  137.6780 C   0  0  2  0  0  3  0  0  0  0  0  0
  180.3650  177.3370  136.5940 N   0  0  2  0  0  0  0  0  0  0  0  0
  181.1160  181.2920  139.1620 C   0  0  0  0  0  2  0  0  0  0  0  0
  181.5810  178.0310  134.6020 C   0  0  0  0  0  2  0  0  0  0  0  0
  182.1940  179.3280  139.0410 C   0  0  2  0  0  3  0  0  0  0  0  0
  181.3990  176.3380  136.2860 C   0  0  1  0  0  3  0  0  0  0  0  0
  180.1180  179.7160  135.8280 C   0  0  2  0  0  3  0  0  0  0  0  0
  180.3140  178.2450  135.4250 C   0  0  2  0  0  3  0  0  0  0  0  0
  180.2150  180.5610  134.7200 O   0  0  0  0  0  1  0  0  0  0  0  0
  182.3800  176.9700  135.3250 C   0  0  0  0  0  2  0  0  0  0  0  0
  182.0950  175.7510  137.5110 C   0  0  1  0  0  3  0  0  0  0  0  0
  181.9780  174.2870  137.4800 N   0  0  0  0  0  2  0  0  0  0  0  0
  183.2340  174.9430  137.0920 C   0  0  0  0  0  2  0  0  0  0  0  0
  1  5  1  6  0  0  0
  1  3  1  0  0  0  0
  3  4  2  0  0  0  0
  3  2  1  0  0  0  0
  6  5  1  0  0  0  0
  7  9  2  0  0  0  0
  8  9  1  0  0  0  0
  9  6  1  0  0  0  0
 10 11  2  0  0  0  0
 10  8  1  0  0  0  0
 11  7  1  0  0  0  0
 12 13  1  0  0  0  0
 12 11  1  0  0  0  0
 14 31  1  6  0  0  0
 14 15  1  0  0  0  0
 14 16  1  0  0  0  0
 15 13  1  0  0  0  0
 16 12  2  0  0  0  0
 17 16  1  0  0  0  0
 18 23  1  0  0  0  0
 18 19  1  0  0  0  0
 19 28  1  0  0  0  0
 21 28  1  0  0  0  0
 22 27  1  0  0  0  0
 23 29  1  6  0  0  0
 24 27  1  0  0  0  0
 24 17  1  1  0  0  0
 25 21  1  0  0  0  0
 26 24  1  0  0  0  0
 26 20  1  0  0  0  0
 29 20  1  0  0  0  0
 30 22  1  1  0  0  0
 30 25  1  0  0  0  0
 30 23  1  0  0  0  0
 32 31  1  0  0  0  0
 33 34  1  0  0  0  0
 36 32  1  0  0  0  0
 36 33  1  0  0  0  0
 37 41  1  0  0  0  0
 37  1  1  0  0  0  0
 39 38  1  0  0  0  0
 39 41  1  0  0  0  0
 40 39  2  0  0  0  0
 42 38  1  0  0  0  0
 43 42  1  0  0  0  0
 44 43  1  0  0  0  0
 45 44  1  0  0  0  0
 46 44  1  0  0  0  0
 47 46  1  0  0  0  0
 49 54  1  0  0  0  0
 50 52  1  0  0  0  0
 50 49  1  1  0  0  0
 52 51  1  1  0  0  0
 52 56  1  0  0  0  0
 53 51  1  1  0  0  0
 54 48  1  0  0  0  0
 55 61  1  0  0  0  0
 56 48  1  0  0  0  0
 56 47  1  1  0  0  0
 57 61  1  6  0  0  0
 57 53  1  0  0  0  0
 57 62  1  0  0  0  0
 58 60  1  6  0  0  0
 58 50  1  0  0  0  0
 59 55  1  1  0  0  0
 59 58  1  0  0  0  0
 59 53  1  0  0  0  0
 62 64  1  6  0  0  0
 63 62  1  0  0  0  0
 64 63  1  0  0  0  0
M  END
>  <MODEL>
1

>  <REMARK>
 VINA RESULT:      -7.7      0.000      0.000
  Name = 
  18 active torsions:
  status: ('A' for Active; 'I' for Inactive)
    1  A    between atoms: C_1  and  C_41
    2  A    between atoms: C_1  and  C_47
    3  A    between atoms: C_2  and  C_53
    4  A    between atoms: C_5  and  C_64
    5  A    between atoms: C_8  and  N_28
    6  A    between atoms: C_9  and  N_23
    7  A    between atoms: C_9  and  N_42
    8  A    between atoms: C_22  and  C_39
    9  A    between atoms: C_22  and  N_40
   10  A    between atoms: C_22  and  C_47
   11  A    between atoms: N_28  and  C_38
   12  A    between atoms: C_29  and  N_33
   13  A    between atoms: N_33  and  C_61
   14  A    between atoms: N_34  and  N_40
   15  A    between atoms: N_42  and  N_44
   16  A    between atoms: C_43  and  N_44
   17  A    between atoms: C_43  and  C_60
   18  A    between atoms: C_51  and  C_60
                            x       y       z     vdW  Elec       q    Type
                         _______ _______ _______ _____ _____    ______ ____

>  <TORSDO>
F 18

$$$$
=
 OpenBabel10232408483D

 64 70  0  0  1  0  0  0  0  0999 V2000
  191.4280  176.9160  138.2890 C   0  0  1  0  0  3  0  0  0  0  0  0
  192.5570  174.9480  137.5140 O   0  0  0  0  0  0  0  0  0  0  0  0
  192.6410  176.0640  138.0910 C   0  0  0  0  0  0  0  0  0  0  0  0
  193.8780  176.5260  138.5170 O   0  0  0  0  0  1  0  0  0  0  0  0
  190.1310  176.1490  138.0360 C   0  0  0  0  0  2  0  0  0  0  0  0
  188.9240  177.0730  137.9470 C   0  0  0  0  0  2  0  0  0  0  0  0
  187.5810  175.2950  136.8360 N   0  0  0  0  0  0  0  0  0  0  0  0
  187.4240  177.3760  135.9790 N   0  0  0  0  0  2  0  0  0  0  0  0
  187.9820  176.5780  136.9090 C   0  0  0  0  0  0  0  0  0  0  0  0
  186.6310  176.5590  135.2600 C   0  0  0  0  0  3  0  0  0  0  0  0
  186.7380  175.2880  135.7900 C   0  0  0  0  0  0  0  0  0  0  0  0
  186.0300  174.0730  135.3350 C   0  0  0  0  0  0  0  0  0  0  0  0
  186.7610  172.9300  134.9310 N   0  0  0  0  0  2  0  0  0  0  0  0
  184.2440  172.5930  134.7820 C   0  0  2  0  0  3  0  0  0  0  0  0
  185.7320  171.6240  134.3460 S   0  0  0  0  0  0  0  0  0  0  0  0
  184.7110  173.9410  135.2410 C   0  0  0  0  0  0  0  0  0  0  0  0
  183.8000  175.0060  135.5380 N   0  0  0  0  0  2  0  0  0  0  0  0
  182.1780  179.4620  139.1630 C   0  0  0  0  0  2  0  0  0  0  0  0
  182.0640  180.7380  138.3220 C   0  0  0  0  0  2  0  0  0  0  0  0
  184.1820  176.7080  138.1630 C   0  0  0  0  0  2  0  0  0  0  0  0
  179.9820  179.9350  137.4620 C   0  0  0  0  0  2  0  0  0  0  0  0
  180.9750  176.2060  137.7770 C   0  0  0  0  0  2  0  0  0  0  0  0
  182.3050  178.2750  138.3240 N   0  0  1  0  0  0  0  0  0  0  0  0
  182.9370  175.0100  136.7110 C   0  0  1  0  0  3  0  0  0  0  0  0
  180.0790  178.4410  137.1890 C   0  0  0  0  0  2  0  0  0  0  0  0
  183.7760  175.2520  137.9690 C   0  0  0  0  0  2  0  0  0  0  0  0
  181.8010  176.0170  136.5120 C   0  0  0  0  0  2  0  0  0  0  0  0
  181.2520  180.5630  137.1180 N   0  0  0  0  0  2  0  0  0  0  0  0
  183.1870  177.3950  139.0860 C   0  0  0  0  0  2  0  0  0  0  0  0
  180.9520  177.6820  138.2030 C   0  0  1  0  0  3  0  0  0  0  0  0
  183.5420  171.9260  135.8670 N   0  0  0  0  0  2  0  0  0  0  0  0
  183.1580  170.6110  135.3850 C   0  0  0  0  0  2  0  0  0  0  0  0
  181.3610  170.4590  135.4200 P   0  0  0  0  0  2  0  0  0  0  0  0
  180.5690  171.4420  136.2540 O   0  0  0  0  0  1  0  0  0  0  0  0
  180.4600  168.9980  134.8420 C   0  0  0  0  0 15  0  0  0  0  0  0
  182.6780  169.8800  136.4040 O   0  0  0  0  0  0  0  0  0  0  0  0
  191.4220  177.5230  139.6140 N   0  0  0  0  0  2  0  0  0  0  0  0
  191.2970  175.5840  142.8290 N   0  0  0  0  0  2  0  0  0  0  0  0
  191.6060  176.6270  141.9040 C   0  0  0  0  0  0  0  0  0  0  0  0
  192.2320  177.6550  142.2840 O   0  0  0  0  0  0  0  0  0  0  0  0
  191.2100  176.4920  140.5400 N   0  0  0  0  0  2  0  0  0  0  0  0
  191.7320  175.6030  144.2180 C   0  0  0  0  0  2  0  0  0  0  0  0
  190.6350  176.0600  145.0820 N   0  0  0  0  0  2  0  0  0  0  0  0
  191.0920  176.9320  146.1010 N   0  0  0  0  0  0  0  0  0  0  0  0
  190.8140  176.3670  147.4170 C   0  0  0  0  0  1  0  0  0  0  0  0
  190.4320  178.2290  145.9810 C   0  0  0  0  0  2  0  0  0  0  0  0
  189.1650  178.0930  145.1530 C   0  0  0  0  0  2  0  0  0  0  0  0
  187.7770  177.6770  147.0690 O   0  0  0  0  0  0  0  0  0  0  0  0
  185.4620  178.2340  147.2990 C   0  0  0  0  0  2  0  0  0  0  0  0
  185.4450  178.9010  145.9190 C   0  0  1  0  0  3  0  0  0  0  0  0
  186.4700  177.2770  144.4570 O   0  0  0  0  0  0  0  0  0  0  0  0
  186.6820  178.5260  145.0860 C   0  0  2  0  0  3  0  0  0  0  0  0
  185.5980  177.4260  143.3920 N   0  0  2  0  0  0  0  0  0  0  0  0
  186.8570  178.3220  147.9100 C   0  0  0  0  0  2  0  0  0  0  0  0
  184.5560  179.5790  142.9320 C   0  0  0  0  0  2  0  0  0  0  0  0
  187.9460  178.5200  145.9580 C   0  0  2  0  0  3  0  0  0  0  0  0
  186.2380  178.0310  142.2150 C   0  0  1  0  0  3  0  0  0  0  0  0
  184.1790  178.4580  145.1880 C   0  0  2  0  0  3  0  0  0  0  0  0
  184.4060  178.2570  143.6810 C   0  0  2  0  0  3  0  0  0  0  0  0
  183.1370  179.3580  145.4260 O   0  0  0  0  0  1  0  0  0  0  0  0
  185.8740  179.4990  142.1950 C   0  0  0  0  0  2  0  0  0  0  0  0
  187.7460  177.8160  142.1360 C   0  0  1  0  0  3  0  0  0  0  0  0
  188.1030  177.3810  140.7780 N   0  0  0  0  0  2  0  0  0  0  0  0
  188.3340  178.7690  141.2020 C   0  0  0  0  0  2  0  0  0  0  0  0
  1  5  1  1  0  0  0
  1 37  1  0  0  0  0
  2  3  2  0  0  0  0
  3  1  1  0  0  0  0
  3  4  1  0  0  0  0
  6  5  1  0  0  0  0
  7  9  2  0  0  0  0
  8  9  1  0  0  0  0
  9  6  1  0  0  0  0
 10 11  2  0  0  0  0
 10  8  1  0  0  0  0
 11  7  1  0  0  0  0
 12 11  1  0  0  0  0
 13 12  1  0  0  0  0
 14 16  1  0  0  0  0
 14 31  1  1  0  0  0
 15 14  1  0  0  0  0
 15 13  1  0  0  0  0
 16 12  2  0  0  0  0
 16 17  1  0  0  0  0
 19 18  1  0  0  0  0
 20 29  1  0  0  0  0
 22 30  1  0  0  0  0
 23 29  1  1  0  0  0
 23 18  1  0  0  0  0
 24 17  1  6  0  0  0
 24 26  1  0  0  0  0
 25 21  1  0  0  0  0
 26 20  1  0  0  0  0
 27 24  1  0  0  0  0
 27 22  1  0  0  0  0
 28 21  1  0  0  0  0
 28 19  1  0  0  0  0
 30 25  1  6  0  0  0
 30 23  1  0  0  0  0
 32 31  1  0  0  0  0
 32 36  1  0  0  0  0
 33 34  1  0  0  0  0
 33 36  1  0  0  0  0
 37 41  1  0  0  0  0
 38 42  1  0  0  0  0
 39 40  2  0  0  0  0
 39 38  1  0  0  0  0
 41 39  1  0  0  0  0
 42 43  1  0  0  0  0
 43 44  1  0  0  0  0
 44 45  1  0  0  0  0
 46 44  1  0  0  0  0
 47 46  1  0  0  0  0
 48 54  1  0  0  0  0
 49 54  1  0  0  0  0
 50 49  1  1  0  0  0
 52 51  1  1  0  0  0
 52 50  1  0  0  0  0
 52 56  1  0  0  0  0
 53 59  1  0  0  0  0
 53 51  1  1  0  0  0
 56 47  1  6  0  0  0
 56 48  1  0  0  0  0
 57 61  1  1  0  0  0
 57 53  1  0  0  0  0
 58 60  1  6  0  0  0
 58 50  1  0  0  0  0
 59 55  1  6  0  0  0
 59 58  1  0  0  0  0
 61 55  1  0  0  0  0
 62 64  1  6  0  0  0
 62 57  1  0  0  0  0
 63 64  1  0  0  0  0
 63 62  1  0  0  0  0
M  END
>  <MODEL>
2

>  <REMARK>
 VINA RESULT:      -7.5      3.224      9.297
  Name = 
  18 active torsions:
  status: ('A' for Active; 'I' for Inactive)
    1  A    between atoms: C_1  and  C_41
    2  A    between atoms: C_1  and  C_47
    3  A    between atoms: C_2  and  C_53
    4  A    between atoms: C_5  and  C_64
    5  A    between atoms: C_8  and  N_28
    6  A    between atoms: C_9  and  N_23
    7  A    between atoms: C_9  and  N_42
    8  A    between atoms: C_22  and  C_39
    9  A    between atoms: C_22  and  N_40
   10  A    between atoms: C_22  and  C_47
   11  A    between atoms: N_28  and  C_38
   12  A    between atoms: C_29  and  N_33
   13  A    between atoms: N_33  and  C_61
   14  A    between atoms: N_34  and  N_40
   15  A    between atoms: N_42  and  N_44
   16  A    between atoms: C_43  and  N_44
   17  A    between atoms: C_43  and  C_60
   18  A    between atoms: C_51  and  C_60
                            x       y       z     vdW  Elec       q    Type
                         _______ _______ _______ _____ _____    ______ ____

>  <TORSDO>
F 18

$$$$
=
 OpenBabel10232408483D

 64 70  0  0  1  0  0  0  0  0999 V2000
  191.3110  176.9360  138.3900 C   0  0  1  0  0  3  0  0  0  0  0  0
  193.4850  176.6600  137.4180 O   0  0  0  0  0  0  0  0  0  0  0  0
  192.3920  176.1280  137.7460 C   0  0  0  0  0  0  0  0  0  0  0  0
  192.2000  174.7680  137.5410 O   0  0  0  0  0  1  0  0  0  0  0  0
  190.2210  177.3440  137.4000 C   0  0  0  0  0  2  0  0  0  0  0  0
  189.1580  178.2220  138.0450 C   0  0  0  0  0  2  0  0  0  0  0  0
  187.5820  176.5550  137.0770 N   0  0  0  0  0  0  0  0  0  0  0  0
  186.6850  178.4760  137.8500 N   0  0  0  0  0  2  0  0  0  0  0  0
  187.8040  177.7550  137.6450 C   0  0  0  0  0  0  0  0  0  0  0  0
  185.6900  177.7030  137.3750 C   0  0  0  0  0  3  0  0  0  0  0  0
  186.2490  176.5330  136.9010 C   0  0  0  0  0  0  0  0  0  0  0  0
  185.5350  175.3820  136.3090 C   0  0  0  0  0  0  0  0  0  0  0  0
  186.0860  174.6940  135.2010 N   0  0  0  0  0  0  0  0  0  0  0  0
  183.8660  173.7140  135.9660 C   0  0  2  0  0  3  0  0  0  0  0  0
  185.0390  173.4110  134.5960 S   0  0  0  0  0  0  0  0  0  0  0  0
  184.3600  174.9140  136.7150 C   0  0  2  0  0  3  0  0  0  0  0  0
  183.6090  175.5150  137.7770 N   0  0  0  0  0  2  0  0  0  0  0  0
  180.0190  179.9890  139.4250 C   0  0  0  0  0  2  0  0  0  0  0  0
  180.7270  181.3080  139.0990 C   0  0  0  0  0  2  0  0  0  0  0  0
  181.7960  176.9560  139.9150 C   0  0  0  0  0  2  0  0  0  0  0  0
  180.1850  180.9810  136.7930 C   0  0  0  0  0  2  0  0  0  0  0  0
  180.2440  177.1180  137.0430 C   0  0  0  0  0  2  0  0  0  0  0  0
  180.6970  178.8500  138.8150 N   0  0  1  0  0  0  0  0  0  0  0  0
  182.1570  175.6220  137.7630 C   0  0  1  0  0  3  0  0  0  0  0  0
  180.3630  179.5160  136.4240 C   0  0  0  0  0  2  0  0  0  0  0  0
  181.6240  175.6220  139.1990 C   0  0  0  0  0  2  0  0  0  0  0  0
  181.7380  176.8420  136.9390 C   0  0  0  0  0  2  0  0  0  0  0  0
  181.2350  181.3660  137.7290 N   0  0  0  0  0  2  0  0  0  0  0  0
  180.5180  177.7720  139.7840 C   0  0  0  0  0  2  0  0  0  0  0  0
  179.9820  178.5430  137.5530 C   0  0  1  0  0  3  0  0  0  0  0  0
  183.8560  172.5590  136.8480 N   0  0  0  0  0  2  0  0  0  0  0  0
  182.8020  171.6750  136.3840 C   0  0  0  0  0  2  0  0  0  0  0  0
  183.5250  170.1140  135.8370 P   0  0  0  0  0  2  0  0  0  0  0  0
  185.0100  170.0660  135.5540 O   0  0  0  0  0  1  0  0  0  0  0  0
  182.5540  168.7060  135.2410 C   0  0  0  0  0 15  0  0  0  0  0  0
  182.8870  171.5330  135.0510 O   0  0  0  0  0  0  0  0  0  0  0  0
  190.7390  176.2330  139.5320 N   0  0  0  0  0  2  0  0  0  0  0  0
  191.9710  176.4940  143.0720 N   0  0  0  0  0  2  0  0  0  0  0  0
  191.1000  176.2260  141.9710 C   0  0  0  0  0  0  0  0  0  0  0  0
  189.9620  175.7180  142.1650 O   0  0  0  0  0  0  0  0  0  0  0  0
  191.5260  176.5490  140.6480 N   0  0  0  0  0  2  0  0  0  0  0  0
  191.5870  176.2700  144.4580 C   0  0  0  0  0  2  0  0  0  0  0  0
  190.9900  177.4900  145.0170 N   0  0  0  0  0  2  0  0  0  0  0  0
  190.8350  178.5010  144.0360 N   0  0  0  0  0  0  0  0  0  0  0  0
  191.6270  179.6760  144.3870 C   0  0  0  0  0  1  0  0  0  0  0  0
  189.4290  178.8790  143.9270 C   0  0  0  0  0  2  0  0  0  0  0  0
  188.5450  177.6640  144.1510 C   0  0  0  0  0  2  0  0  0  0  0  0
  187.6050  178.4910  142.1000 O   0  0  0  0  0  0  0  0  0  0  0  0
  185.2850  178.8530  141.6410 C   0  0  0  0  0  2  0  0  0  0  0  0
  184.8870  178.3080  143.0160 C   0  0  1  0  0  3  0  0  0  0  0  0
  186.3210  179.4800  144.5630 O   0  0  0  0  0  0  0  0  0  0  0  0
  186.0920  178.2180  143.9680 C   0  0  2  0  0  3  0  0  0  0  0  0
  185.3660  179.7260  145.5350 N   0  0  2  0  0  0  0  0  0  0  0  0
  186.5880  178.2100  141.1750 C   0  0  0  0  0  2  0  0  0  0  0  0
  183.5370  178.1590  145.9020 C   0  0  0  0  0  2  0  0  0  0  0  0
  187.3340  177.7000  143.2290 C   0  0  2  0  0  3  0  0  0  0  0  0
  185.6130  178.9760  146.7760 C   0  0  1  0  0  3  0  0  0  0  0  0
  183.8290  179.2340  143.6120 C   0  0  2  0  0  3  0  0  0  0  0  0
  183.9770  179.4020  145.1320 C   0  0  2  0  0  3  0  0  0  0  0  0
  182.5470  178.7920  143.2750 O   0  0  0  0  0  1  0  0  0  0  0  0
  184.7110  177.7620  146.7690 C   0  0  0  0  0  2  0  0  0  0  0  0
  187.0740  178.6010  147.0060 C   0  0  1  0  0  3  0  0  0  0  0  0
  187.3080  178.4260  148.4460 N   0  0  0  0  0  2  0  0  0  0  0  0
  187.1580  177.2580  147.5680 C   0  0  0  0  0  2  0  0  0  0  0  0
  1  5  1  6  0  0  0
  1 37  1  0  0  0  0
  2  3  2  0  0  0  0
  3  1  1  0  0  0  0
  4  3  1  0  0  0  0
  5  6  1  0  0  0  0
  7  9  2  0  0  0  0
  9  8  1  0  0  0  0
  9  6  1  0  0  0  0
 10  8  1  0  0  0  0
 11  7  1  0  0  0  0
 11 10  2  0  0  0  0
 12 16  1  0  0  0  0
 12 11  1  0  0  0  0
 13 12  2  0  0  0  0
 14 16  1  0  0  0  0
 14 31  1  1  0  0  0
 15 13  1  0  0  0  0
 15 14  1  0  0  0  0
 16 17  1  6  0  0  0
 19 18  1  0  0  0  0
 21 28  1  0  0  0  0
 22 30  1  0  0  0  0
 23 18  1  1  0  0  0
 23 29  1  0  0  0  0
 24 17  1  1  0  0  0
 24 26  1  0  0  0  0
 25 21  1  0  0  0  0
 26 20  1  0  0  0  0
 27 22  1  0  0  0  0
 27 24  1  0  0  0  0
 28 19  1  0  0  0  0
 29 20  1  0  0  0  0
 30 25  1  6  0  0  0
 30 23  1  0  0  0  0
 32 31  1  0  0  0  0
 34 33  1  0  0  0  0
 36 33  1  0  0  0  0
 36 32  1  0  0  0  0
 37 41  1  0  0  0  0
 38 42  1  0  0  0  0
 39 40  2  0  0  0  0
 39 38  1  0  0  0  0
 41 39  1  0  0  0  0
 42 43  1  0  0  0  0
 44 45  1  0  0  0  0
 44 43  1  0  0  0  0
 46 44  1  0  0  0  0
 46 47  1  0  0  0  0
 48 56  1  0  0  0  0
 50 49  1  6  0  0  0
 50 58  1  0  0  0  0
 50 52  1  0  0  0  0
 52 51  1  6  0  0  0
 53 51  1  6  0  0  0
 53 57  1  0  0  0  0
 54 49  1  0  0  0  0
 54 48  1  0  0  0  0
 55 61  1  0  0  0  0
 56 52  1  0  0  0  0
 56 47  1  1  0  0  0
 57 61  1  6  0  0  0
 57 62  1  0  0  0  0
 58 60  1  1  0  0  0
 58 59  1  0  0  0  0
 59 53  1  0  0  0  0
 59 55  1  1  0  0  0
 62 64  1  6  0  0  0
 62 63  1  0  0  0  0
 64 63  1  0  0  0  0
M  END
>  <MODEL>
3

>  <REMARK>
 VINA RESULT:      -6.2      3.203      9.527
  Name = 
  18 active torsions:
  status: ('A' for Active; 'I' for Inactive)
    1  A    between atoms: C_1  and  C_41
    2  A    between atoms: C_1  and  C_47
    3  A    between atoms: C_2  and  C_53
    4  A    between atoms: C_5  and  C_64
    5  A    between atoms: C_8  and  N_28
    6  A    between atoms: C_9  and  N_23
    7  A    between atoms: C_9  and  N_42
    8  A    between atoms: C_22  and  C_39
    9  A    between atoms: C_22  and  N_40
   10  A    between atoms: C_22  and  C_47
   11  A    between atoms: N_28  and  C_38
   12  A    between atoms: C_29  and  N_33
   13  A    between atoms: N_33  and  C_61
   14  A    between atoms: N_34  and  N_40
   15  A    between atoms: N_42  and  N_44
   16  A    between atoms: C_43  and  N_44
   17  A    between atoms: C_43  and  C_60
   18  A    between atoms: C_51  and  C_60
                            x       y       z     vdW  Elec       q    Type
                         _______ _______ _______ _____ _____    ______ ____

>  <TORSDO>
F 18

$$$$
=
 OpenBabel10232408483D

 64 70  0  0  1  0  0  0  0  0999 V2000
  183.8290  178.8220  142.0900 C   0  0  1  0  0  3  0  0  0  0  0  0
  182.9170  178.5970  144.2970 O   0  0  0  0  0  1  0  0  0  0  0  0
  183.7370  179.1810  143.5390 C   0  0  0  0  0  0  0  0  0  0  0  0
  184.5900  180.1440  144.0610 O   0  0  0  0  0  0  0  0  0  0  0  0
  185.1420  178.1220  141.7460 C   0  0  0  0  0  2  0  0  0  0  0  0
  186.1830  179.0890  141.2010 C   0  0  0  0  0  2  0  0  0  0  0  0
  187.8060  177.7310  139.8900 N   0  0  0  0  0  0  0  0  0  0  0  0
  186.2310  178.8440  138.7200 N   0  0  0  0  0  2  0  0  0  0  0  0
  186.7490  178.5620  139.9300 C   0  0  0  0  0  0  0  0  0  0  0  0
  187.0060  178.1660  137.8520 C   0  0  0  0  0  3  0  0  0  0  0  0
  187.9680  177.4920  138.5770 C   0  0  0  0  0  0  0  0  0  0  0  0
  189.0220  176.6040  138.0440 C   0  0  0  0  0  0  0  0  0  0  0  0
  188.7460  175.7410  136.9560 N   0  0  0  0  0  0  0  0  0  0  0  0
  191.1460  175.5540  137.7760 C   0  0  2  0  0  3  0  0  0  0  0  0
  190.1090  174.7070  136.5310 S   0  0  0  0  0  0  0  0  0  0  0  0
  190.2610  176.5090  138.5170 C   0  0  2  0  0  3  0  0  0  0  0  0
  190.7160  177.2490  139.6560 N   0  0  0  0  0  2  0  0  0  0  0  0
  189.1940  178.3550  145.3210 C   0  0  0  0  0  2  0  0  0  0  0  0
  187.7260  178.7920  145.3390 C   0  0  0  0  0  2  0  0  0  0  0  0
  191.2260  178.6630  142.4260 C   0  0  0  0  0  2  0  0  0  0  0  0
  187.0860  176.5100  145.0280 C   0  0  0  0  0  2  0  0  0  0  0  0
  190.2850  175.5950  143.0500 C   0  0  0  0  0  2  0  0  0  0  0  0
  189.5760  177.8070  144.0230 N   0  0  1  0  0  0  0  0  0  0  0  0
  191.1430  176.6150  140.8960 C   0  0  1  0  0  3  0  0  0  0  0  0
  188.0230  175.8420  144.0320 C   0  0  0  0  0  2  0  0  0  0  0  0
  192.0180  177.5850  141.6970 C   0  0  0  0  0  2  0  0  0  0  0  0
  189.9220  176.0970  141.6590 C   0  0  0  0  0  2  0  0  0  0  0  0
  186.8450  177.8850  144.6050 N   0  0  0  0  0  2  0  0  0  0  0  0
  190.9670  178.2210  143.8590 C   0  0  0  0  0  2  0  0  0  0  0  0
  189.4780  176.3320  144.1290 C   0  0  1  0  0  3  0  0  0  0  0  0
  192.1980  176.2930  137.0970 N   0  0  0  0  0  2  0  0  0  0  0  0
  193.3600  175.4250  137.0330 C   0  0  0  0  0  2  0  0  0  0  0  0
  194.5370  176.0820  135.8340 P   0  0  0  0  0  2  0  0  0  0  0  0
  194.0530  177.1080  134.8340 O   0  0  0  0  0  1  0  0  0  0  0  0
  196.1520  175.3360  135.4920 C   0  0  0  0  0 15  0  0  0  0  0  0
  193.3770  174.7810  135.8540 O   0  0  0  0  0  0  0  0  0  0  0  0
  182.6870  178.0160  141.6750 N   0  0  0  0  0  2  0  0  0  0  0  0
  180.9280  179.6110  138.7630 N   0  0  0  0  0  2  0  0  0  0  0  0
  181.8560  178.8050  139.4910 C   0  0  0  0  0  0  0  0  0  0  0  0
  182.6800  178.0690  138.8830 O   0  0  0  0  0  0  0  0  0  0  0  0
  181.8490  178.8470  140.9180 N   0  0  0  0  0  2  0  0  0  0  0  0
  180.9180  179.6890  137.3100 C   0  0  0  0  0  2  0  0  0  0  0  0
  180.5810  178.3790  136.7380 N   0  0  0  0  0  2  0  0  0  0  0  0
  181.1860  178.1830  135.4720 N   0  0  0  0  0  0  0  0  0  0  0  0
  181.2020  179.4330  134.7180 C   0  0  0  0  0  1  0  0  0  0  0  0
  180.4490  177.1720  134.7180 C   0  0  0  0  0  2  0  0  0  0  0  0
  181.2750  175.9010  134.6100 C   0  0  0  0  0  2  0  0  0  0  0  0
  183.4730  176.8350  134.3480 O   0  0  0  0  0  0  0  0  0  0  0  0
  185.4870  176.0430  135.3670 C   0  0  0  0  0  2  0  0  0  0  0  0
  184.7210  174.9570  136.1300 C   0  0  1  0  0  3  0  0  0  0  0  0
  183.3600  173.8900  134.4470 O   0  0  0  0  0  0  0  0  0  0  0  0
  183.3050  174.7520  135.5670 C   0  0  2  0  0  3  0  0  0  0  0  0
  183.5580  172.5850  134.8630 N   0  0  2  0  0  0  0  0  0  0  0  0
  184.5810  177.2430  135.1060 C   0  0  0  0  0  2  0  0  0  0  0  0
  183.9060  172.0720  137.2180 C   0  0  0  0  0  2  0  0  0  0  0  0
  182.6540  176.0990  135.2220 C   0  0  2  0  0  3  0  0  0  0  0  0
  182.3380  171.9730  135.4100 C   0  0  1  0  0  3  0  0  0  0  0  0
  185.5090  173.6530  136.0280 C   0  0  2  0  0  3  0  0  0  0  0  0
  184.6000  172.4200  135.9040 C   0  0  2  0  0  3  0  0  0  0  0  0
  186.3870  173.5270  137.1070 O   0  0  0  0  0  1  0  0  0  0  0  0
  182.4240  172.0400  136.9180 C   0  0  0  0  0  2  0  0  0  0  0  0
  181.0390  172.5750  134.8840 C   0  0  1  0  0  3  0  0  0  0  0  0
  180.0400  171.5090  134.7260 N   0  0  0  0  0  2  0  0  0  0  0  0
  179.9840  172.4200  135.8780 C   0  0  0  0  0  2  0  0  0  0  0  0
  1  5  1  1  0  0  0
  1  3  1  0  0  0  0
  3  4  2  0  0  0  0
  3  2  1  0  0  0  0
  6  5  1  0  0  0  0
  7  9  2  0  0  0  0
  8  9  1  0  0  0  0
  9  6  1  0  0  0  0
 10 11  2  0  0  0  0
 10  8  1  0  0  0  0
 11  7  1  0  0  0  0
 12 16  1  0  0  0  0
 12 11  1  0  0  0  0
 13 12  2  0  0  0  0
 14 31  1  6  0  0  0
 14 16  1  0  0  0  0
 15 13  1  0  0  0  0
 15 14  1  0  0  0  0
 16 17  1  1  0  0  0
 18 19  1  0  0  0  0
 20 29  1  0  0  0  0
 23 29  1  1  0  0  0
 23 30  1  0  0  0  0
 23 18  1  0  0  0  0
 24 17  1  6  0  0  0
 24 27  1  0  0  0  0
 24 26  1  0  0  0  0
 25 30  1  0  0  0  0
 25 21  1  0  0  0  0
 26 20  1  0  0  0  0
 27 22  1  0  0  0  0
 28 21  1  0  0  0  0
 28 19  1  0  0  0  0
 30 22  1  6  0  0  0
 32 31  1  0  0  0  0
 33 36  1  0  0  0  0
 34 33  1  0  0  0  0
 36 32  1  0  0  0  0
 37  1  1  0  0  0  0
 38 39  1  0  0  0  0
 39 41  1  0  0  0  0
 40 39  2  0  0  0  0
 41 37  1  0  0  0  0
 42 38  1  0  0  0  0
 43 42  1  0  0  0  0
 44 43  1  0  0  0  0
 45 44  1  0  0  0  0
 46 44  1  0  0  0  0
 47 46  1  0  0  0  0
 48 54  1  0  0  0  0
 48 56  1  0  0  0  0
 50 49  1  6  0  0  0
 52 51  1  6  0  0  0
 52 50  1  0  0  0  0
 53 51  1  1  0  0  0
 53 57  1  0  0  0  0
 53 59  1  0  0  0  0
 54 49  1  0  0  0  0
 56 47  1  6  0  0  0
 56 52  1  0  0  0  0
 57 61  1  1  0  0  0
 58 50  1  0  0  0  0
 58 60  1  1  0  0  0
 59 58  1  0  0  0  0
 59 55  1  1  0  0  0
 61 55  1  0  0  0  0
 62 57  1  0  0  0  0
 62 64  1  1  0  0  0
 63 62  1  0  0  0  0
 63 64  1  0  0  0  0
M  END
>  <MODEL>
4

>  <REMARK>
 VINA RESULT:      -6.0      2.803      6.982
  Name = 
  18 active torsions:
  status: ('A' for Active; 'I' for Inactive)
    1  A    between atoms: C_1  and  C_41
    2  A    between atoms: C_1  and  C_47
    3  A    between atoms: C_2  and  C_53
    4  A    between atoms: C_5  and  C_64
    5  A    between atoms: C_8  and  N_28
    6  A    between atoms: C_9  and  N_23
    7  A    between atoms: C_9  and  N_42
    8  A    between atoms: C_22  and  C_39
    9  A    between atoms: C_22  and  N_40
   10  A    between atoms: C_22  and  C_47
   11  A    between atoms: N_28  and  C_38
   12  A    between atoms: C_29  and  N_33
   13  A    between atoms: N_33  and  C_61
   14  A    between atoms: N_34  and  N_40
   15  A    between atoms: N_42  and  N_44
   16  A    between atoms: C_43  and  N_44
   17  A    between atoms: C_43  and  C_60
   18  A    between atoms: C_51  and  C_60
                            x       y       z     vdW  Elec       q    Type
                         _______ _______ _______ _____ _____    ______ ____

>  <TORSDO>
F 18

$$$$
=
 OpenBabel10232408483D

 64 70  0  0  1  0  0  0  0  0999 V2000
  181.2880  179.5720  141.9510 C   0  0  1  0  0  3  0  0  0  0  0  0
  180.0780  177.8190  143.0530 O   0  0  0  0  0  0  0  0  0  0  0  0
  180.9250  178.7470  143.1450 C   0  0  0  0  0  0  0  0  0  0  0  0
  181.5550  178.9860  144.3580 O   0  0  0  0  0  1  0  0  0  0  0  0
  182.1630  178.8070  140.9600 C   0  0  0  0  0  2  0  0  0  0  0  0
  182.9360  177.6770  141.6270 C   0  0  0  0  0  2  0  0  0  0  0  0
  184.7450  177.7670  143.3350 N   0  0  0  0  0  0  0  0  0  0  0  0
  184.9800  179.1020  141.5310 N   0  0  0  0  0  2  0  0  0  0  0  0
  184.2200  178.1930  142.1720 C   0  0  0  0  0  0  0  0  0  0  0  0
  186.0470  179.2790  142.3330 C   0  0  0  0  0  3  0  0  0  0  0  0
  185.8910  178.4620  143.4350 C   0  0  0  0  0  0  0  0  0  0  0  0
  186.8280  178.3100  144.5680 C   0  0  0  0  0  0  0  0  0  0  0  0
  186.4710  178.7760  145.8560 N   0  0  0  0  0  2  0  0  0  0  0  0
  188.7780  177.7060  145.8000 C   0  0  2  0  0  3  0  0  0  0  0  0
  187.7580  178.5750  147.0440 S   0  0  0  0  0  0  0  0  0  0  0  0
  188.0410  177.7710  144.4980 C   0  0  0  0  0  0  0  0  0  0  0  0
  188.6120  177.3020  143.2700 N   0  0  0  0  0  2  0  0  0  0  0  0
  191.5170  176.1300  138.1900 C   0  0  0  0  0  2  0  0  0  0  0  0
  190.9930  174.7980  137.6420 C   0  0  0  0  0  2  0  0  0  0  0  0
  191.2830  176.9880  141.6260 C   0  0  0  0  0  2  0  0  0  0  0  0
  189.0180  175.9250  136.9050 C   0  0  0  0  0  2  0  0  0  0  0  0
  189.1430  178.5710  139.7290 C   0  0  0  0  0  2  0  0  0  0  0  0
  190.6820  176.6300  139.2770 N   0  0  1  0  0  0  0  0  0  0  0  0
  189.1110  178.1950  142.2330 C   0  0  1  0  0  3  0  0  0  0  0  0
  188.5760  176.9330  137.9570 C   0  0  0  0  0  2  0  0  0  0  0  0
  190.6430  178.2160  142.2620 C   0  0  0  0  0  2  0  0  0  0  0  0
  188.5150  177.7980  140.8800 C   0  0  0  0  0  2  0  0  0  0  0  0
  189.5340  174.7370  137.5750 N   0  0  0  0  0  2  0  0  0  0  0  0
  191.6270  177.2890  140.1750 C   0  0  0  0  0  2  0  0  0  0  0  0
  189.7450  177.6150  138.6880 C   0  0  1  0  0  3  0  0  0  0  0  0
  188.9370  176.3180  146.2000 N   0  0  0  0  0  2  0  0  0  0  0  0
  189.6450  176.3160  147.4680 C   0  0  0  0  0  2  0  0  0  0  0  0
  191.4230  176.2400  147.1630 P   0  0  0  0  0  2  0  0  0  0  0  0
  191.9040  175.8060  145.7970 O   0  0  0  0  0  1  0  0  0  0  0  0
  192.6740  176.2810  148.4730 C   0  0  0  0  0 15  0  0  0  0  0  0
  190.1990  175.1080  147.6730 O   0  0  0  0  0  0  0  0  0  0  0  0
  180.0980  180.0980  141.2940 N   0  0  0  0  0  2  0  0  0  0  0  0
  180.3930  179.5780  137.5860 N   0  0  0  0  0  2  0  0  0  0  0  0
  180.3970  180.2410  138.8510 C   0  0  0  0  0  0  0  0  0  0  0  0
  180.7070  181.4600  138.9330 O   0  0  0  0  0  0  0  0  0  0  0  0
  180.0340  179.5120  140.0230 N   0  0  0  0  0  2  0  0  0  0  0  0
  180.6720  180.2630  136.3320 C   0  0  0  0  0  2  0  0  0  0  0  0
  180.2510  179.4290  135.1990 N   0  0  0  0  0  2  0  0  0  0  0  0
  181.0660  178.2780  135.0580 N   0  0  0  0  0  0  0  0  0  0  0  0
  180.3030  177.0740  135.3730 C   0  0  0  0  0  1  0  0  0  0  0  0
  182.2180  178.3700  135.9500 C   0  0  0  0  0  2  0  0  0  0  0  0
  182.6320  176.9820  136.4090 C   0  0  0  0  0  2  0  0  0  0  0  0
  184.6390  177.7030  135.3030 O   0  0  0  0  0  0  0  0  0  0  0  0
  186.5710  176.3680  134.8450 C   0  0  0  0  0  2  0  0  0  0  0  0
  185.9540  175.1610  135.5590 C   0  0  1  0  0  3  0  0  0  0  0  0
  183.7370  174.9790  134.6240 O   0  0  0  0  0  0  0  0  0  0  0  0
  184.4460  175.3420  135.7940 C   0  0  2  0  0  3  0  0  0  0  0  0
  183.7150  173.6010  134.4930 N   0  0  2  0  0  0  0  0  0  0  0  0
  186.0350  177.6650  135.4440 C   0  0  0  0  0  2  0  0  0  0  0  0
  184.9230  172.1840  136.0620 C   0  0  0  0  0  2  0  0  0  0  0  0
  184.1300  176.7790  136.2320 C   0  0  2  0  0  3  0  0  0  0  0  0
  182.7550  172.9600  135.4030 C   0  0  1  0  0  3  0  0  0  0  0  0
  186.1970  173.9210  134.7010 C   0  0  2  0  0  3  0  0  0  0  0  0
  185.0160  172.9360  134.7360 C   0  0  2  0  0  3  0  0  0  0  0  0
  187.3880  173.2940  135.0730 O   0  0  0  0  0  1  0  0  0  0  0  0
  183.5280  172.4300  136.5890 C   0  0  0  0  0  2  0  0  0  0  0  0
  181.5950  173.8540  135.8300 C   0  0  1  0  0  3  0  0  0  0  0  0
  180.3400  173.0940  135.7440 N   0  0  0  0  0  2  0  0  0  0  0  0
  180.9840  173.3260  137.0440 C   0  0  0  0  0  2  0  0  0  0  0  0
  1  5  1  6  0  0  0
  1  3  1  0  0  0  0
  2  3  2  0  0  0  0
  3  4  1  0  0  0  0
  5  6  1  0  0  0  0
  6  9  1  0  0  0  0
  7 11  1  0  0  0  0
  8  9  1  0  0  0  0
  8 10  1  0  0  0  0
  9  7  2  0  0  0  0
 10 11  2  0  0  0  0
 11 12  1  0  0  0  0
 12 13  1  0  0  0  0
 13 15  1  0  0  0  0
 14 31  1  1  0  0  0
 14 15  1  0  0  0  0
 16 12  2  0  0  0  0
 16 14  1  0  0  0  0
 17 16  1  0  0  0  0
 19 18  1  0  0  0  0
 20 26  1  0  0  0  0
 21 28  1  0  0  0  0
 21 25  1  0  0  0  0
 22 27  1  0  0  0  0
 23 18  1  6  0  0  0
 23 29  1  0  0  0  0
 24 26  1  0  0  0  0
 24 17  1  1  0  0  0
 27 24  1  0  0  0  0
 28 19  1  0  0  0  0
 29 20  1  0  0  0  0
 30 25  1  1  0  0  0
 30 23  1  0  0  0  0
 30 22  1  0  0  0  0
 31 32  1  0  0  0  0
 32 36  1  0  0  0  0
 33 36  1  0  0  0  0
 34 33  1  0  0  0  0
 37  1  1  0  0  0  0
 38 39  1  0  0  0  0
 39 40  2  0  0  0  0
 39 41  1  0  0  0  0
 41 37  1  0  0  0  0
 42 38  1  0  0  0  0
 43 42  1  0  0  0  0
 44 43  1  0  0  0  0
 44 45  1  0  0  0  0
 44 46  1  0  0  0  0
 46 47  1  0  0  0  0
 48 54  1  0  0  0  0
 48 56  1  0  0  0  0
 49 54  1  0  0  0  0
 50 49  1  6  0  0  0
 50 52  1  0  0  0  0
 52 51  1  6  0  0  0
 52 56  1  0  0  0  0
 53 51  1  1  0  0  0
 53 59  1  0  0  0  0
 53 57  1  0  0  0  0
 55 61  1  0  0  0  0
 56 47  1  6  0  0  0
 57 62  1  0  0  0  0
 57 61  1  1  0  0  0
 58 59  1  0  0  0  0
 58 60  1  1  0  0  0
 58 50  1  0  0  0  0
 59 55  1  1  0  0  0
 62 64  1  1  0  0  0
 63 62  1  0  0  0  0
 63 64  1  0  0  0  0
M  END
>  <MODEL>
5

>  <REMARK>
 VINA RESULT:      -5.7      3.126      7.821
  Name = 
  18 active torsions:
  status: ('A' for Active; 'I' for Inactive)
    1  A    between atoms: C_1  and  C_41
    2  A    between atoms: C_1  and  C_47
    3  A    between atoms: C_2  and  C_53
    4  A    between atoms: C_5  and  C_64
    5  A    between atoms: C_8  and  N_28
    6  A    between atoms: C_9  and  N_23
    7  A    between atoms: C_9  and  N_42
    8  A    between atoms: C_22  and  C_39
    9  A    between atoms: C_22  and  N_40
   10  A    between atoms: C_22  and  C_47
   11  A    between atoms: N_28  and  C_38
   12  A    between atoms: C_29  and  N_33
   13  A    between atoms: N_33  and  C_61
   14  A    between atoms: N_34  and  N_40
   15  A    between atoms: N_42  and  N_44
   16  A    between atoms: C_43  and  N_44
   17  A    between atoms: C_43  and  C_60
   18  A    between atoms: C_51  and  C_60
                            x       y       z     vdW  Elec       q    Type
                         _______ _______ _______ _____ _____    ______ ____

>  <TORSDO>
F 18

$$$$
=
 OpenBabel10232408483D

 64 70  0  0  1  0  0  0  0  0999 V2000
  189.7350  176.7820  136.9400 C   0  0  1  0  0  3  0  0  0  0  0  0
  190.3190  175.8210  139.0580 O   0  0  0  0  0  1  0  0  0  0  0  0
  190.6770  176.5180  138.0720 C   0  0  0  0  0  0  0  0  0  0  0  0
  191.9700  177.0200  138.0170 O   0  0  0  0  0  0  0  0  0  0  0  0
  190.1490  176.0610  135.6590 C   0  0  0  0  0  2  0  0  0  0  0  0
  190.5800  174.6240  135.9210 C   0  0  0  0  0  2  0  0  0  0  0  0
  188.3180  173.7030  135.4400 N   0  0  0  0  0  0  0  0  0  0  0  0
  189.3080  173.0250  137.3490 N   0  0  0  0  0  2  0  0  0  0  0  0
  189.3930  173.7900  136.2440 C   0  0  0  0  0  0  0  0  0  0  0  0
  188.1070  172.4230  137.2570 C   0  0  0  0  0  3  0  0  0  0  0  0
  187.5080  172.8480  136.0870 C   0  0  0  0  0  0  0  0  0  0  0  0
  186.1900  172.4330  135.5630 C   0  0  0  0  0  0  0  0  0  0  0  0
  186.0220  171.1500  134.9890 N   0  0  0  0  0  2  0  0  0  0  0  0
  183.8760  172.5150  134.9930 C   0  0  2  0  0  3  0  0  0  0  0  0
  184.4010  170.8860  134.3500 S   0  0  0  0  0  0  0  0  0  0  0  0
  185.0940  173.1840  135.5540 C   0  0  0  0  0  0  0  0  0  0  0  0
  185.0750  174.5360  136.0260 N   0  0  0  0  0  2  0  0  0  0  0  0
  180.8490  177.5200  139.0030 C   0  0  0  0  0  2  0  0  0  0  0  0
  181.3690  177.7910  140.4180 C   0  0  0  0  0  2  0  0  0  0  0  0
  182.0960  174.8660  137.0020 C   0  0  0  0  0  2  0  0  0  0  0  0
  182.7540  179.5270  139.5310 C   0  0  0  0  0  2  0  0  0  0  0  0
  183.1590  177.8170  136.0810 C   0  0  0  0  0  2  0  0  0  0  0  0
  181.9080  177.0380  138.1230 N   0  0  1  0  0  0  0  0  0  0  0  0
  184.1090  175.5250  135.5690 C   0  0  1  0  0  3  0  0  0  0  0  0
  183.3520  179.0820  138.2040 C   0  0  0  0  0  2  0  0  0  0  0  0
  182.6990  174.9270  135.6050 C   0  0  0  0  0  2  0  0  0  0  0  0
  184.2640  176.8130  136.3820 C   0  0  0  0  0  2  0  0  0  0  0  0
  182.7050  178.3850  140.4360 N   0  0  0  0  0  2  0  0  0  0  0  0
  181.2310  176.0960  137.2360 C   0  0  0  0  0  2  0  0  0  0  0  0
  182.4070  178.2070  137.3620 C   0  0  1  0  0  3  0  0  0  0  0  0
  182.9000  172.3170  136.0520 N   0  0  0  0  0  2  0  0  0  0  0  0
  182.3860  170.9660  135.9140 C   0  0  0  0  0  2  0  0  0  0  0  0
  180.9400  170.9790  134.8340 P   0  0  0  0  0  2  0  0  0  0  0  0
  180.2480  172.2980  134.5700 O   0  0  0  0  0  1  0  0  0  0  0  0
  180.0300  169.4900  134.3470 C   0  0  0  0  0 15  0  0  0  0  0  0
  181.2090  170.8630  136.5530 O   0  0  0  0  0  0  0  0  0  0  0  0
  188.3650  176.4440  137.3070 N   0  0  0  0  0  2  0  0  0  0  0  0
  187.0160  178.3530  140.2480 N   0  0  0  0  0  2  0  0  0  0  0  0
  187.2510  177.9690  138.8930 C   0  0  0  0  0  0  0  0  0  0  0  0
  186.6670  178.5680  137.9480 O   0  0  0  0  0  0  0  0  0  0  0  0
  188.1620  176.9070  138.6150 N   0  0  0  0  0  2  0  0  0  0  0  0
  186.1650  179.4750  140.6170 C   0  0  0  0  0  2  0  0  0  0  0  0
  185.9560  179.4900  142.0710 N   0  0  0  0  0  2  0  0  0  0  0  0
  185.7040  178.1930  142.5830 N   0  0  0  0  0  0  0  0  0  0  0  0
  184.5810  178.2230  143.5150 C   0  0  0  0  0  1  0  0  0  0  0  0
  186.8900  177.6880  143.2690 C   0  0  0  0  0  2  0  0  0  0  0  0
  187.8170  178.8400  143.6190 C   0  0  0  0  0  2  0  0  0  0  0  0
  189.5090  177.3710  142.7520 O   0  0  0  0  0  0  0  0  0  0  0  0
  191.3920  176.5040  143.9470 C   0  0  0  0  0  2  0  0  0  0  0  0
  191.0120  177.2990  145.2000 C   0  0  1  0  0  3  0  0  0  0  0  0
  188.6680  176.8240  145.5240 O   0  0  0  0  0  0  0  0  0  0  0  0
  189.5730  177.8350  145.1250 C   0  0  2  0  0  3  0  0  0  0  0  0
  188.7100  176.6680  146.8990 N   0  0  2  0  0  0  0  0  0  0  0  0
  190.9040  177.2270  142.6960 C   0  0  0  0  0  2  0  0  0  0  0  0
  190.3000  177.9290  148.2450 C   0  0  0  0  0  2  0  0  0  0  0  0
  189.2590  178.3610  143.7170 C   0  0  2  0  0  3  0  0  0  0  0  0
  187.9970  177.7370  147.6140 C   0  0  1  0  0  3  0  0  0  0  0  0
  191.1570  176.3810  146.4130 C   0  0  2  0  0  3  0  0  0  0  0  0
  190.0740  176.6300  147.4760 C   0  0  2  0  0  3  0  0  0  0  0  0
  192.4370  176.4930  146.9600 O   0  0  0  0  0  1  0  0  0  0  0  0
  189.0260  178.7320  148.1010 C   0  0  0  0  0  2  0  0  0  0  0  0
  186.8910  178.4080  146.8050 C   0  0  1  0  0  3  0  0  0  0  0  0
  185.5990  177.8030  147.1570 N   0  0  0  0  0  2  0  0  0  0  0  0
  185.9820  179.1130  147.7010 C   0  0  0  0  0  2  0  0  0  0  0  0
  1  5  1  6  0  0  0
  1 37  1  0  0  0  0
  1  3  1  0  0  0  0
  3  2  1  0  0  0  0
  4  3  2  0  0  0  0
  5  6  1  0  0  0  0
  6  9  1  0  0  0  0
  7 11  1  0  0  0  0
  7  9  2  0  0  0  0
  9  8  1  0  0  0  0
 10  8  1  0  0  0  0
 11 10  2  0  0  0  0
 12 11  1  0  0  0  0
 13 12  1  0  0  0  0
 14 16  1  0  0  0  0
 14 31  1  1  0  0  0
 15 13  1  0  0  0  0
 15 14  1  0  0  0  0
 16 12  2  0  0  0  0
 16 17  1  0  0  0  0
 18 19  1  0  0  0  0
 19 28  1  0  0  0  0
 20 29  1  0  0  0  0
 21 28  1  0  0  0  0
 22 27  1  0  0  0  0
 23 29  1  6  0  0  0
 23 18  1  0  0  0  0
 24 26  1  0  0  0  0
 24 17  1  1  0  0  0
 24 27  1  0  0  0  0
 25 21  1  0  0  0  0
 26 20  1  0  0  0  0
 30 22  1  6  0  0  0
 30 23  1  0  0  0  0
 30 25  1  0  0  0  0
 32 31  1  0  0  0  0
 32 36  1  0  0  0  0
 33 36  1  0  0  0  0
 34 33  1  0  0  0  0
 37 41  1  0  0  0  0
 38 42  1  0  0  0  0
 39 38  1  0  0  0  0
 40 39  2  0  0  0  0
 41 39  1  0  0  0  0
 42 43  1  0  0  0  0
 43 44  1  0  0  0  0
 44 46  1  0  0  0  0
 44 45  1  0  0  0  0
 46 47  1  0  0  0  0
 48 56  1  0  0  0  0
 50 49  1  6  0  0  0
 50 58  1  0  0  0  0
 52 50  1  0  0  0  0
 52 51  1  6  0  0  0
 53 51  1  6  0  0  0
 53 59  1  0  0  0  0
 53 57  1  0  0  0  0
 54 48  1  0  0  0  0
 54 49  1  0  0  0  0
 56 47  1  1  0  0  0
 56 52  1  0  0  0  0
 57 61  1  6  0  0  0
 58 60  1  1  0  0  0
 58 59  1  0  0  0  0
 59 55  1  6  0  0  0
 61 55  1  0  0  0  0
 62 63  1  0  0  0  0
 62 57  1  0  0  0  0
 62 64  1  1  0  0  0
 63 64  1  0  0  0  0
M  END
>  <MODEL>
6

>  <REMARK>
 VINA RESULT:      -5.4      3.333     10.120
  Name = 
  18 active torsions:
  status: ('A' for Active; 'I' for Inactive)
    1  A    between atoms: C_1  and  C_41
    2  A    between atoms: C_1  and  C_47
    3  A    between atoms: C_2  and  C_53
    4  A    between atoms: C_5  and  C_64
    5  A    between atoms: C_8  and  N_28
    6  A    between atoms: C_9  and  N_23
    7  A    between atoms: C_9  and  N_42
    8  A    between atoms: C_22  and  C_39
    9  A    between atoms: C_22  and  N_40
   10  A    between atoms: C_22  and  C_47
   11  A    between atoms: N_28  and  C_38
   12  A    between atoms: C_29  and  N_33
   13  A    between atoms: N_33  and  C_61
   14  A    between atoms: N_34  and  N_40
   15  A    between atoms: N_42  and  N_44
   16  A    between atoms: C_43  and  N_44
   17  A    between atoms: C_43  and  C_60
   18  A    between atoms: C_51  and  C_60
                            x       y       z     vdW  Elec       q    Type
                         _______ _______ _______ _____ _____    ______ ____

>  <TORSDO>
F 18

$$$$
=
 OpenBabel10232408483D

 64 70  0  0  1  0  0  0  0  0999 V2000
  191.9620  177.9880  140.4730 C   0  0  1  0  0  3  0  0  0  0  0  0
  192.9610  176.0440  141.4600 O   0  0  0  0  0  1  0  0  0  0  0  0
  193.0420  176.9610  140.6000 C   0  0  0  0  0  0  0  0  0  0  0  0
  194.1280  177.0000  139.7360 O   0  0  0  0  0  0  0  0  0  0  0  0
  190.7330  177.4520  139.7420 C   0  0  0  0  0  2  0  0  0  0  0  0
  189.6460  178.5080  139.5940 C   0  0  0  0  0  2  0  0  0  0  0  0
  188.2790  176.8790  138.3000 N   0  0  0  0  0  0  0  0  0  0  0  0
  188.2280  179.0250  137.6090 N   0  0  0  0  0  2  0  0  0  0  0  0
  188.7230  178.1340  138.4890 C   0  0  0  0  0  0  0  0  0  0  0  0
  187.4310  178.3000  136.8010 C   0  0  0  0  0  3  0  0  0  0  0  0
  187.4730  176.9880  137.2300 C   0  0  0  0  0  0  0  0  0  0  0  0
  186.7370  175.8420  136.6560 C   0  0  0  0  0  0  0  0  0  0  0  0
  187.3900  174.9420  135.7800 N   0  0  0  0  0  0  0  0  0  0  0  0
  184.9580  174.3240  136.1940 C   0  0  2  0  0  3  0  0  0  0  0  0
  186.3160  173.6980  135.1420 S   0  0  0  0  0  0  0  0  0  0  0  0
  185.4550  175.5650  136.8700 C   0  0  0  0  0  0  0  0  0  0  0  0
  184.6050  176.3930  137.6720 N   0  0  0  0  0  0  0  0  0  0  0  0
  180.2970  180.2180  139.2340 C   0  0  0  0  0  2  0  0  0  0  0  0
  180.7210  181.6180  138.7800 C   0  0  0  0  0  2  0  0  0  0  0  0
  182.6480  177.6230  139.8150 C   0  0  0  0  0  2  0  0  0  0  0  0
  180.1460  181.0200  136.5370 C   0  0  0  0  0  2  0  0  0  0  0  0
  180.9620  177.2690  137.0370 C   0  0  0  0  0  2  0  0  0  0  0  0
  181.1530  179.1850  138.6610 N   0  0  1  0  0  0  0  0  0  0  0  0
  183.1600  176.2220  137.7380 C   0  0  1  0  0  3  0  0  0  0  0  0
  180.5870  179.5910  136.2560 C   0  0  0  0  0  2  0  0  0  0  0  0
  182.7050  176.2300  139.2000 C   0  0  0  0  0  2  0  0  0  0  0  0
  182.4750  177.2740  136.8620 C   0  0  0  0  0  2  0  0  0  0  0  0
  181.1440  181.6670  137.3810 N   0  0  0  0  0  2  0  0  0  0  0  0
  181.2320  178.1690  139.7080 C   0  0  0  0  0  2  0  0  0  0  0  0
  180.4540  178.6530  137.4680 C   0  0  1  0  0  3  0  0  0  0  0  0
  184.6300  173.3220  137.1950 N   0  0  0  0  0  2  0  0  0  0  0  0
  184.1640  172.1440  136.4870 C   0  0  0  0  0  2  0  0  0  0  0  0
  182.3620  172.1730  136.3930 P   0  0  0  0  0  2  0  0  0  0  0  0
  181.6050  173.0910  137.3260 O   0  0  0  0  0  1  0  0  0  0  0  0
  181.3760  170.9180  135.5350 C   0  0  0  0  0 15  0  0  0  0  0  0
  183.5450  171.3170  137.3460 O   0  0  0  0  0  0  0  0  0  0  0  0
  191.5970  178.5300  141.7760 N   0  0  0  0  0  2  0  0  0  0  0  0
  191.7660  176.6220  145.0080 N   0  0  0  0  0  2  0  0  0  0  0  0
  191.4850  177.6770  144.0870 C   0  0  0  0  0  0  0  0  0  0  0  0
  190.8710  178.7110  144.4670 O   0  0  0  0  0  0  0  0  0  0  0  0
  191.9170  177.5560  142.7330 N   0  0  0  0  0  2  0  0  0  0  0  0
  191.4330  176.6970  146.4230 C   0  0  0  0  0  2  0  0  0  0  0  0
  189.9820  176.5600  146.6060 N   0  0  0  0  0  2  0  0  0  0  0  0
  189.5180  177.2940  147.7260 N   0  0  0  0  0  0  0  0  0  0  0  0
  188.7000  176.4450  148.5870 C   0  0  0  0  0  1  0  0  0  0  0  0
  188.7270  178.4380  147.2800 C   0  0  0  0  0  2  0  0  0  0  0  0
  187.9780  178.0880  146.0060 C   0  0  0  0  0  2  0  0  0  0  0  0
  185.7860  178.0070  146.9840 O   0  0  0  0  0  0  0  0  0  0  0  0
  183.7360  178.6740  145.9440 C   0  0  0  0  0  2  0  0  0  0  0  0
  184.4790  179.1300  144.6840 C   0  0  1  0  0  3  0  0  0  0  0  0
  185.9190  177.2740  144.1310 O   0  0  0  0  0  0  0  0  0  0  0  0
  185.9200  178.5940  144.6410 C   0  0  2  0  0  3  0  0  0  0  0  0
  185.7150  177.2960  142.7620 N   0  0  2  0  0  0  0  0  0  0  0  0
  184.6420  178.8010  147.1650 C   0  0  0  0  0  2  0  0  0  0  0  0
  185.2730  179.3930  141.6060 C   0  0  0  0  0  2  0  0  0  0  0  0
  186.5730  178.6710  146.0280 C   0  0  2  0  0  3  0  0  0  0  0  0
  186.9160  177.6980  142.0150 C   0  0  1  0  0  3  0  0  0  0  0  0
  183.7070  178.6300  143.4650 C   0  0  2  0  0  3  0  0  0  0  0  0
  184.6320  178.2010  142.3130 C   0  0  2  0  0  3  0  0  0  0  0  0
  182.7860  179.5910  143.0410 O   0  0  0  0  0  1  0  0  0  0  0  0
  186.7660  179.1590  141.6540 C   0  0  0  0  0  2  0  0  0  0  0  0
  188.2310  177.4200  142.7370 C   0  0  1  0  0  3  0  0  0  0  0  0
  188.1860  176.0730  143.3230 N   0  0  0  0  0  2  0  0  0  0  0  0
  188.9320  176.3220  142.0820 C   0  0  0  0  0  2  0  0  0  0  0  0
  1  5  1  1  0  0  0
  1  3  1  0  0  0  0
  1 37  1  0  0  0  0
  3  2  1  0  0  0  0
  4  3  2  0  0  0  0
  6  5  1  0  0  0  0
  7  9  2  0  0  0  0
  8  9  1  0  0  0  0
  9  6  1  0  0  0  0
 10 11  2  0  0  0  0
 10  8  1  0  0  0  0
 11  7  1  0  0  0  0
 12 16  1  0  0  0  0
 12 11  1  0  0  0  0
 13 12  2  0  0  0  0
 14 16  1  0  0  0  0
 14 31  1  1  0  0  0
 15 13  1  0  0  0  0
 15 14  1  0  0  0  0
 16 17  2  0  0  0  0
 19 18  1  0  0  0  0
 21 28  1  0  0  0  0
 22 30  1  0  0  0  0
 23 18  1  1  0  0  0
 23 29  1  0  0  0  0
 24 17  1  1  0  0  0
 24 26  1  0  0  0  0
 25 21  1  0  0  0  0
 26 20  1  0  0  0  0
 27 22  1  0  0  0  0
 27 24  1  0  0  0  0
 28 19  1  0  0  0  0
 29 20  1  0  0  0  0
 30 25  1  6  0  0  0
 30 23  1  0  0  0  0
 32 31  1  0  0  0  0
 32 36  1  0  0  0  0
 33 34  1  0  0  0  0
 33 36  1  0  0  0  0
 37 41  1  0  0  0  0
 38 42  1  0  0  0  0
 39 40  2  0  0  0  0
 39 38  1  0  0  0  0
 41 39  1  0  0  0  0
 42 43  1  0  0  0  0
 43 44  1  0  0  0  0
 44 45  1  0  0  0  0
 46 44  1  0  0  0  0
 47 46  1  0  0  0  0
 48 54  1  0  0  0  0
 49 54  1  0  0  0  0
 50 49  1  1  0  0  0
 52 51  1  1  0  0  0
 52 50  1  0  0  0  0
 52 56  1  0  0  0  0
 53 51  1  1  0  0  0
 55 61  1  0  0  0  0
 56 47  1  6  0  0  0
 56 48  1  0  0  0  0
 57 61  1  1  0  0  0
 57 62  1  0  0  0  0
 57 53  1  0  0  0  0
 58 60  1  6  0  0  0
 58 50  1  0  0  0  0
 59 55  1  1  0  0  0
 59 53  1  0  0  0  0
 59 58  1  0  0  0  0
 62 64  1  6  0  0  0
 62 63  1  0  0  0  0
 64 63  1  0  0  0  0
M  END
>  <MODEL>
7

>  <REMARK>
 VINA RESULT:      -5.3      3.465      8.805
  Name = 
  18 active torsions:
  status: ('A' for Active; 'I' for Inactive)
    1  A    between atoms: C_1  and  C_41
    2  A    between atoms: C_1  and  C_47
    3  A    between atoms: C_2  and  C_53
    4  A    between atoms: C_5  and  C_64
    5  A    between atoms: C_8  and  N_28
    6  A    between atoms: C_9  and  N_23
    7  A    between atoms: C_9  and  N_42
    8  A    between atoms: C_22  and  C_39
    9  A    between atoms: C_22  and  N_40
   10  A    between atoms: C_22  and  C_47
   11  A    between atoms: N_28  and  C_38
   12  A    between atoms: C_29  and  N_33
   13  A    between atoms: N_33  and  C_61
   14  A    between atoms: N_34  and  N_40
   15  A    between atoms: N_42  and  N_44
   16  A    between atoms: C_43  and  N_44
   17  A    between atoms: C_43  and  C_60
   18  A    between atoms: C_51  and  C_60
                            x       y       z     vdW  Elec       q    Type
                         _______ _______ _______ _____ _____    ______ ____

>  <TORSDO>
F 18

$$$$
=
 OpenBabel10232408483D

 64 70  0  0  1  0  0  0  0  0999 V2000
  189.2630  177.0380  137.2760 C   0  0  1  0  0  3  0  0  0  0  0  0
  189.4590  178.9390  135.8270 O   0  0  0  0  0  0  0  0  0  0  0  0
  189.0200  178.4680  136.9100 C   0  0  0  0  0  0  0  0  0  0  0  0
  188.2730  179.2740  137.7580 O   0  0  0  0  0  1  0  0  0  0  0  0
  188.2630  176.0910  136.6160 C   0  0  0  0  0  2  0  0  0  0  0  0
  187.6930  176.6630  135.3250 C   0  0  0  0  0  2  0  0  0  0  0  0
  185.6320  177.1320  136.6410 N   0  0  0  0  0  0  0  0  0  0  0  0
  185.3760  176.8290  134.4200 N   0  0  0  0  0  2  0  0  0  0  0  0
  186.2260  176.8640  135.4630 C   0  0  0  0  0  0  0  0  0  0  0  0
  184.1660  177.0740  134.9570 C   0  0  0  0  0  3  0  0  0  0  0  0
  184.3330  177.2550  136.3160 C   0  0  0  0  0  0  0  0  0  0  0  0
  183.2830  177.5680  137.3070 C   0  0  0  0  0  0  0  0  0  0  0  0
  183.5510  178.4590  138.3740 N   0  0  0  0  0  2  0  0  0  0  0  0
  181.1690  177.5680  138.4110 C   0  0  2  0  0  3  0  0  0  0  0  0
  182.1950  178.6310  139.4870 S   0  0  0  0  0  0  0  0  0  0  0  0
  182.0540  177.0610  137.3140 C   0  0  0  0  0  0  0  0  0  0  0  0
  181.6100  176.0900  136.3580 N   0  0  0  0  0  2  0  0  0  0  0  0
  185.2110  171.7140  134.4850 C   0  0  0  0  0  2  0  0  0  0  0  0
  186.6280  172.2860  134.3660 C   0  0  0  0  0  2  0  0  0  0  0  0
  182.3210  173.7700  134.3460 C   0  0  0  0  0  2  0  0  0  0  0  0
  186.8230  172.1860  136.7470 C   0  0  0  0  0  2  0  0  0  0  0  0
  183.0360  172.7130  137.3560 C   0  0  0  0  0  2  0  0  0  0  0  0
  184.3190  172.6290  135.1900 N   0  0  1  0  0  0  0  0  0  0  0  0
  181.5870  174.6600  136.6290 C   0  0  1  0  0  3  0  0  0  0  0  0
  185.5130  172.6160  137.3910 C   0  0  0  0  0  2  0  0  0  0  0  0
  181.1910  173.8990  135.3600 C   0  0  0  0  0  2  0  0  0  0  0  0
  182.9290  174.2260  137.2260 C   0  0  0  0  0  2  0  0  0  0  0  0
  187.0610  173.0040  135.5640 N   0  0  0  0  0  2  0  0  0  0  0  0
  183.0270  172.4360  134.5380 C   0  0  0  0  0  2  0  0  0  0  0  0
  184.2650  172.1830  136.6020 C   0  0  1  0  0  3  0  0  0  0  0  0
  180.0940  178.3630  137.8400 N   0  0  0  0  0  2  0  0  0  0  0  0
  180.2610  179.7210  138.3260 C   0  0  0  0  0  2  0  0  0  0  0  0
  179.9980  180.8820  136.9700 P   0  0  0  0  0  2  0  0  0  0  0  0
  180.0500  180.3600  135.5510 O   0  0  0  0  0  1  0  0  0  0  0  0
  180.0510  182.6830  137.1580 C   0  0  0  0  0 15  0  0  0  0  0  0
  181.3860  180.2490  137.8130 O   0  0  0  0  0  0  0  0  0  0  0  0
  190.6320  176.6430  136.9710 N   0  0  0  0  0  2  0  0  0  0  0  0
  191.5690  176.5160  140.6070 N   0  0  0  0  0  2  0  0  0  0  0  0
  190.7640  176.4800  139.4280 C   0  0  0  0  0  0  0  0  0  0  0  0
  189.5300  176.2260  139.5040 O   0  0  0  0  0  0  0  0  0  0  0  0
  191.3660  176.7440  138.1620 N   0  0  0  0  0  2  0  0  0  0  0  0
  191.0240  176.3370  141.9450 C   0  0  0  0  0  2  0  0  0  0  0  0
  191.7300  177.2060  142.8960 N   0  0  0  0  0  2  0  0  0  0  0  0
  191.2250  178.5300  142.8780 N   0  0  0  0  0  0  0  0  0  0  0  0
  191.6840  179.2640  144.0540 C   0  0  0  0  0  1  0  0  0  0  0  0
  189.7660  178.5070  142.8600 C   0  0  0  0  0  2  0  0  0  0  0  0
  189.2530  177.3390  143.6850 C   0  0  0  0  0  2  0  0  0  0  0  0
  189.5010  176.7110  145.9910 O   0  0  0  0  0  0  0  0  0  0  0  0
  188.2090  177.5220  147.8350 C   0  0  0  0  0  2  0  0  0  0  0  0
  187.4270  178.4700  146.9200 C   0  0  1  0  0  3  0  0  0  0  0  0
  186.7210  177.0790  145.0780 O   0  0  0  0  0  0  0  0  0  0  0  0
  187.6130  178.1180  145.4350 C   0  0  2  0  0  3  0  0  0  0  0  0
  185.4350  177.5780  144.9650 N   0  0  2  0  0  0  0  0  0  0  0  0
  189.6060  177.2780  147.2700 C   0  0  0  0  0  2  0  0  0  0  0  0
  184.9520  179.9020  145.5080 C   0  0  0  0  0  2  0  0  0  0  0  0
  189.0730  177.7450  145.1410 C   0  0  2  0  0  3  0  0  0  0  0  0
  185.2260  178.3310  143.7200 C   0  0  1  0  0  3  0  0  0  0  0  0
  185.9470  178.3790  147.2890 C   0  0  2  0  0  3  0  0  0  0  0  0
  185.0240  178.4830  146.0640 C   0  0  2  0  0  3  0  0  0  0  0  0
  185.6230  179.3410  148.2490 O   0  0  0  0  0  1  0  0  0  0  0  0
  185.3340  179.8030  144.0480 C   0  0  0  0  0  2  0  0  0  0  0  0
  186.1520  177.9300  142.5760 C   0  0  1  0  0  3  0  0  0  0  0  0
  185.4450  178.0980  141.2990 N   0  0  0  0  0  2  0  0  0  0  0  0
  186.4360  179.0900  141.7400 C   0  0  0  0  0  2  0  0  0  0  0  0
  1  5  1  6  0  0  0
  2  3  2  0  0  0  0
  3  1  1  0  0  0  0
  3  4  1  0  0  0  0
  6  9  1  0  0  0  0
  6  5  1  0  0  0  0
  8 10  1  0  0  0  0
  8  9  1  0  0  0  0
  9  7  2  0  0  0  0
 10 11  2  0  0  0  0
 11  7  1  0  0  0  0
 11 12  1  0  0  0  0
 12 16  2  0  0  0  0
 12 13  1  0  0  0  0
 13 15  1  0  0  0  0
 14 31  1  6  0  0  0
 14 15  1  0  0  0  0
 16 14  1  0  0  0  0
 17 16  1  0  0  0  0
 19 18  1  0  0  0  0
 19 28  1  0  0  0  0
 20 29  1  0  0  0  0
 20 26  1  0  0  0  0
 21 25  1  0  0  0  0
 23 18  1  6  0  0  0
 23 30  1  0  0  0  0
 24 17  1  6  0  0  0
 24 27  1  0  0  0  0
 26 24  1  0  0  0  0
 27 22  1  0  0  0  0
 28 21  1  0  0  0  0
 29 23  1  0  0  0  0
 30 22  1  1  0  0  0
 30 25  1  0  0  0  0
 31 32  1  0  0  0  0
 33 36  1  0  0  0  0
 34 33  1  0  0  0  0
 36 32  1  0  0  0  0
 37  1  1  0  0  0  0
 37 41  1  0  0  0  0
 38 42  1  0  0  0  0
 39 40  2  0  0  0  0
 39 38  1  0  0  0  0
 41 39  1  0  0  0  0
 42 43  1  0  0  0  0
 44 43  1  0  0  0  0
 44 45  1  0  0  0  0
 46 44  1  0  0  0  0
 46 47  1  0  0  0  0
 48 54  1  0  0  0  0
 50 58  1  0  0  0  0
 50 49  1  1  0  0  0
 52 51  1  1  0  0  0
 52 50  1  0  0  0  0
 53 51  1  1  0  0  0
 53 59  1  0  0  0  0
 54 49  1  0  0  0  0
 56 47  1  6  0  0  0
 56 52  1  0  0  0  0
 56 48  1  0  0  0  0
 57 61  1  1  0  0  0
 57 53  1  0  0  0  0
 58 60  1  1  0  0  0
 59 55  1  6  0  0  0
 59 58  1  0  0  0  0
 61 55  1  0  0  0  0
 62 64  1  6  0  0  0
 62 57  1  0  0  0  0
 63 64  1  0  0  0  0
 63 62  1  0  0  0  0
M  END
>  <MODEL>
8

>  <REMARK>
 VINA RESULT:      -5.1      3.134      9.306
  Name = 
  18 active torsions:
  status: ('A' for Active; 'I' for Inactive)
    1  A    between atoms: C_1  and  C_41
    2  A    between atoms: C_1  and  C_47
    3  A    between atoms: C_2  and  C_53
    4  A    between atoms: C_5  and  C_64
    5  A    between atoms: C_8  and  N_28
    6  A    between atoms: C_9  and  N_23
    7  A    between atoms: C_9  and  N_42
    8  A    between atoms: C_22  and  C_39
    9  A    between atoms: C_22  and  N_40
   10  A    between atoms: C_22  and  C_47
   11  A    between atoms: N_28  and  C_38
   12  A    between atoms: C_29  and  N_33
   13  A    between atoms: N_33  and  C_61
   14  A    between atoms: N_34  and  N_40
   15  A    between atoms: N_42  and  N_44
   16  A    between atoms: C_43  and  N_44
   17  A    between atoms: C_43  and  C_60
   18  A    between atoms: C_51  and  C_60
                            x       y       z     vdW  Elec       q    Type
                         _______ _______ _______ _____ _____    ______ ____

>  <TORSDO>
F 18

$$$$
