=
 OpenBabel10232412223D

 51 57  0  0  1  0  0  0  0  0999 V2000
  188.8070  177.2750  143.4290 C   0  0  2  0  0  3  0  0  0  0  0  0
  189.4950  177.1240  140.9720 N   0  0  0  0  0  0  0  0  0  0  0  0
  190.2940  177.1780  138.5840 C   0  0  1  0  0  0  0  0  0  0  0  0
  191.4500  177.4620  139.5220 C   0  0  0  0  0  2  0  0  0  0  0  0
  190.3480  176.4970  139.9510 C   0  0  1  0  0  3  0  0  0  0  0  0
  188.1720  178.3290  139.3010 C   0  0  0  0  0  2  0  0  0  0  0  0
  190.0470  175.4480  142.5060 O   0  0  0  0  0  0  0  0  0  0  0  0
  189.3360  178.3460  138.3320 C   0  0  0  0  0  2  0  0  0  0  0  0
  189.4850  176.5580  142.2930 C   0  0  0  0  0  0  0  0  0  0  0  0
  188.7180  178.3400  140.7140 C   0  0  0  0  0  2  0  0  0  0  0  0
  190.6360  176.2960  137.4720 N   0  0  0  0  0  2  0  0  0  0  0  0
  190.0640  176.8340  136.2440 C   0  0  0  0  0  2  0  0  0  0  0  0
  188.1190  175.3220  135.7450 C   0  0  0  0  0  2  0  0  0  0  0  0
  188.1210  174.4920  137.0230 C   0  0  0  0  0  2  0  0  0  0  0  0
  189.5550  175.7030  135.3570 C   0  0  2  0  0  3  0  0  0  0  0  0
  190.5110  174.5350  135.4340 C   0  0  0  0  0  0  0  0  0  0  0  0
  188.8660  173.1890  136.7660 C   0  0  0  0  0  2  0  0  0  0  0  0
  190.2100  173.4270  136.1320 C   0  0  0  0  0  3  0  0  0  0  0  0
  191.7950  174.6730  134.8120 N   0  0  0  0  0  2  0  0  0  0  0  0
  193.0460  174.8080  135.5490 C   0  0  2  0  0  3  0  0  0  0  0  0
  193.6110  176.0630  135.3120 O   0  0  0  0  0  1  0  0  0  0  0  0
  194.0180  173.6990  135.1580 C   0  0  0  0  0  2  0  0  0  0  0  0
  194.8270  173.1750  136.3430 C   0  0  0  0  0  2  0  0  0  0  0  0
  194.3060  173.7210  137.6650 C   0  0  0  0  0  2  0  0  0  0  0  0
  196.2780  174.7870  138.5050 O   0  0  0  0  0  1  0  0  0  0  0  0
  195.3970  173.7250  138.7240 C   0  0  0  0  0  2  0  0  0  0  0  0
  190.9180  176.7920  144.7370 C   0  0  0  0  0  3  0  0  0  0  0  0
  191.5950  176.6740  145.9520 C   0  0  0  0  0  3  0  0  0  0  0  0
  189.5570  177.2320  147.1450 C   0  0  0  0  0  0  0  0  0  0  0  0
  190.9230  176.8920  147.1620 C   0  0  0  0  0  0  0  0  0  0  0  0
  189.5590  177.1360  144.7180 C   0  0  0  0  0  0  0  0  0  0  0  0
  188.6600  177.5200  148.6280 Cl  0  0  0  0  0  0  0  0  0  0  0  0
  188.8860  177.3510  145.9240 C   0  0  0  0  0  3  0  0  0  0  0  0
  191.9570  178.0860  148.9950 N   0  0  0  0  0  1  0  0  0  0  0  0
  191.6620  176.7690  148.4580 C   0  0  2  0  0  3  0  0  0  0  0  0
  193.6840  176.5700  149.1570 O   0  0  0  0  0  1  0  0  0  0  0  0
  192.8510  176.0580  148.2740 O   0  0  0  0  0  0  0  0  0  0  0  0
  187.3540  176.8530  143.5810 C   0  0  0  0  0  2  0  0  0  0  0  0
  186.5080  178.0370  144.0180 C   0  0  0  0  0  2  0  0  0  0  0  0
  185.1390  177.9810  143.3640 C   0  0  0  0  0  2  0  0  0  0  0  0
  185.2990  179.4960  141.4360 N   0  0  0  0  0  2  0  0  0  0  0  0
  181.6370  178.4670  140.7410 C   0  0  2  0  0  3  0  0  0  0  0  0
  182.6950  179.2570  138.6790 O   0  0  0  0  0  0  0  0  0  0  0  0
  184.9920  179.3590  138.5510 O   0  0  0  0  0  0  0  0  0  0  0  0
  181.5210  179.3460  139.4870 C   0  0  0  0  0  2  0  0  0  0  0  0
  183.9570  179.3010  139.2680 C   0  0  0  0  0  0  0  0  0  0  0  0
  183.9920  177.7850  141.1590 N   0  0  1  0  0  0  0  0  0  0  0  0
  185.2470  178.1010  141.8410 C   0  0  2  0  0  3  0  0  0  0  0  0
  182.9220  178.7230  141.5670 C   0  0  1  0  0  3  0  0  0  0  0  0
  184.0470  179.2020  140.7580 C   0  0  1  0  0  0  0  0  0  0  0  0
  181.5060  177.1180  140.4000 O   0  0  0  0  0  1  0  0  0  0  0  0
  1 38  1  1  0  0  0
  1 31  1  0  0  0  0
  2  9  1  0  0  0  0
  3 11  1  6  0  0  0
  3  4  1  0  0  0  0
  3  5  1  0  0  0  0
  5  4  1  1  0  0  0
  5  2  1  0  0  0  0
  6 10  1  0  0  0  0
  8  3  1  0  0  0  0
  8  6  1  0  0  0  0
  9  7  2  0  0  0  0
  9  1  1  0  0  0  0
 10  2  1  0  0  0  0
 12 11  1  0  0  0  0
 13 14  1  0  0  0  0
 15 16  1  0  0  0  0
 15 13  1  0  0  0  0
 15 12  1  1  0  0  0
 16 18  2  0  0  0  0
 17 14  1  0  0  0  0
 18 17  1  0  0  0  0
 19 16  1  0  0  0  0
 19 20  1  0  0  0  0
 20 21  1  6  0  0  0
 22 20  1  0  0  0  0
 22 23  1  0  0  0  0
 23 24  1  0  0  0  0
 24 26  1  0  0  0  0
 25 26  1  0  0  0  0
 27 28  1  0  0  0  0
 28 30  2  0  0  0  0
 29 30  1  0  0  0  0
 29 32  1  0  0  0  0
 30 35  1  0  0  0  0
 31 27  2  0  0  0  0
 31 33  1  0  0  0  0
 33 29  2  0  0  0  0
 35 34  1  6  0  0  0
 37 35  1  0  0  0  0
 37 36  1  0  0  0  0
 38 39  1  0  0  0  0
 40 39  1  0  0  0  0
 41 48  1  0  0  0  0
 42 51  1  6  0  0  0
 42 49  1  0  0  0  0
 43 46  1  0  0  0  0
 43 45  1  0  0  0  0
 44 46  2  0  0  0  0
 45 42  1  0  0  0  0
 46 50  1  0  0  0  0
 47 49  1  0  0  0  0
 47 48  1  0  0  0  0
 48 40  1  0  0  0  0
 50 47  1  0  0  0  0
 50 41  1  0  0  0  0
 50 49  1  0  0  0  0
M  END
>  <MODEL>
1

>  <REMARK>
 VINA RESULT:      -7.9      0.000      0.000
  Name = 
  17 active torsions:
  status: ('A' for Active; 'I' for Inactive)
    1  A    between atoms: C_4  and  C_25
    2  A    between atoms: C_4  and  N_33
    3  A    between atoms: C_6  and  C_11
    4  A    between atoms: C_7  and  C_27
    5  A    between atoms: C_7  and  O_45
    6  A    between atoms: C_8  and  C_41
    7  A    between atoms: C_8  and  C_42
    8  A    between atoms: C_10  and  C_12
    9  A    between atoms: C_10  and  C_30
   10  A    between atoms: C_11  and  C_30
   11  A    between atoms: C_12  and  N_37
   12  A    between atoms: C_17  and  C_38
   13  A    between atoms: C_17  and  C_41
   14  A    between atoms: C_22  and  N_33
   15  A    between atoms: C_32  and  C_42
   16  A    between atoms: C_36  and  N_37
   17  A    between atoms: C_42  and  C_44
                            x       y       z     vdW  Elec       q    Type
                         _______ _______ _______ _____ _____    ______ ____

>  <TORSDO>
F 17

$$$$
=
 OpenBabel10232412223D

 51 57  0  0  1  0  0  0  0  0999 V2000
  192.0480  176.0120  137.7310 C   0  0  2  0  0  3  0  0  0  0  0  0
  190.9040  176.8440  139.8600 N   0  0  0  0  0  0  0  0  0  0  0  0
  189.7020  177.4410  141.9910 C   0  0  1  0  0  0  0  0  0  0  0  0
  190.5120  176.1760  142.1920 C   0  0  0  0  0  2  0  0  0  0  0  0
  191.0340  177.2690  141.2620 C   0  0  1  0  0  3  0  0  0  0  0  0
  188.5460  177.4940  139.7540 C   0  0  0  0  0  2  0  0  0  0  0  0
  193.2170  177.0140  139.5630 O   0  0  0  0  0  0  0  0  0  0  0  0
  188.3760  177.2720  141.2430 C   0  0  0  0  0  2  0  0  0  0  0  0
  192.1040  176.6480  139.0930 C   0  0  0  0  0  0  0  0  0  0  0  0
  189.6090  176.5440  139.2410 C   0  0  0  0  0  2  0  0  0  0  0  0
  189.7620  178.3690  143.1170 N   0  0  0  0  0  2  0  0  0  0  0  0
  188.8950  177.8820  144.1830 C   0  0  0  0  0  2  0  0  0  0  0  0
  190.9450  178.3340  145.5640 C   0  0  0  0  0  2  0  0  0  0  0  0
  191.4570  176.9080  145.7160 C   0  0  0  0  0  2  0  0  0  0  0  0
  189.4100  178.3480  145.5390 C   0  0  2  0  0  3  0  0  0  0  0  0
  188.8000  177.4970  146.6280 C   0  0  0  0  0  0  0  0  0  0  0  0
  190.9920  176.3560  147.0570 C   0  0  0  0  0  2  0  0  0  0  0  0
  189.5140  176.5520  147.2630 C   0  0  0  0  0  3  0  0  0  0  0  0
  187.4040  177.6610  146.9110 N   0  0  0  0  0  2  0  0  0  0  0  0
  186.5490  178.6400  146.2510 C   0  0  2  0  0  3  0  0  0  0  0  0
  185.8720  179.4060  147.2020 O   0  0  0  0  0  1  0  0  0  0  0  0
  185.5620  177.9450  145.3190 C   0  0  0  0  0  2  0  0  0  0  0  0
  184.3520  178.8150  144.9820 C   0  0  0  0  0  2  0  0  0  0  0  0
  184.6470  179.7680  143.8330 C   0  0  0  0  0  2  0  0  0  0  0  0
  185.7100  179.5730  141.6970 O   0  0  0  0  0  1  0  0  0  0  0  0
  184.7130  179.0240  142.5070 C   0  0  0  0  0  2  0  0  0  0  0  0
  194.0330  176.3620  136.2020 C   0  0  0  0  0  3  0  0  0  0  0  0
  195.3010  175.9910  135.7530 C   0  0  0  0  0  3  0  0  0  0  0  0
  195.3280  174.1540  137.3370 C   0  0  0  0  0  0  0  0  0  0  0  0
  195.9580  174.8880  136.3140 C   0  0  0  0  0  0  0  0  0  0  0  0
  193.4070  175.6350  137.2240 C   0  0  0  0  0  0  0  0  0  0  0  0
  196.1010  172.7620  138.0810 Cl  0  0  0  0  0  0  0  0  0  0  0  0
  194.0590  174.5320  137.7830 C   0  0  0  0  0  3  0  0  0  0  0  0
  198.3410  175.0920  136.6780 N   0  0  0  0  0  1  0  0  0  0  0  0
  197.3210  174.5050  135.8270 C   0  0  2  0  0  3  0  0  0  0  0  0
  198.6860  175.5120  134.5100 O   0  0  0  0  0  1  0  0  0  0  0  0
  197.5050  174.9310  134.5090 O   0  0  0  0  0  0  0  0  0  0  0  0
  191.2980  176.8770  136.7300 C   0  0  0  0  0  2  0  0  0  0  0  0
  190.5850  176.0020  135.7120 C   0  0  0  0  0  2  0  0  0  0  0  0
  189.1380  176.4350  135.5610 C   0  0  0  0  0  2  0  0  0  0  0  0
  187.4410  174.7420  135.0160 N   0  0  0  0  0  2  0  0  0  0  0  0
  184.9210  177.2600  136.5210 C   0  0  2  0  0  3  0  0  0  0  0  0
  184.0050  174.9910  136.6170 O   0  0  0  0  0  0  0  0  0  0  0  0
  185.4200  173.1870  136.4050 O   0  0  0  0  0  0  0  0  0  0  0  0
  183.7100  176.3470  136.2790 C   0  0  0  0  0  2  0  0  0  0  0  0
  185.2130  174.4180  136.2280 C   0  0  0  0  0  0  0  0  0  0  0  0
  187.0160  175.9430  136.7740 N   0  0  1  0  0  0  0  0  0  0  0  0
  188.1800  175.3680  136.1010 C   0  0  2  0  0  3  0  0  0  0  0  0
  186.2210  176.7690  135.8370 C   0  0  1  0  0  3  0  0  0  0  0  0
  186.2740  175.3120  135.6680 C   0  0  1  0  0  0  0  0  0  0  0  0
  185.1080  177.4640  137.8910 O   0  0  0  0  0  1  0  0  0  0  0  0
  1 38  1  6  0  0  0
  1  9  1  0  0  0  0
  2  5  1  0  0  0  0
  3  4  1  0  0  0  0
  3 11  1  1  0  0  0
  5  3  1  0  0  0  0
  5  4  1  1  0  0  0
  6  8  1  0  0  0  0
  8  3  1  0  0  0  0
  9  7  2  0  0  0  0
  9  2  1  0  0  0  0
 10  6  1  0  0  0  0
 10  2  1  0  0  0  0
 11 12  1  0  0  0  0
 13 14  1  0  0  0  0
 14 17  1  0  0  0  0
 15 12  1  6  0  0  0
 15 13  1  0  0  0  0
 15 16  1  0  0  0  0
 16 19  1  0  0  0  0
 16 18  2  0  0  0  0
 17 18  1  0  0  0  0
 20 19  1  0  0  0  0
 20 21  1  1  0  0  0
 22 20  1  0  0  0  0
 23 22  1  0  0  0  0
 24 23  1  0  0  0  0
 25 26  1  0  0  0  0
 26 24  1  0  0  0  0
 27 31  1  0  0  0  0
 28 27  2  0  0  0  0
 28 30  1  0  0  0  0
 29 33  1  0  0  0  0
 29 32  1  0  0  0  0
 30 29  2  0  0  0  0
 31  1  1  0  0  0  0
 31 33  2  0  0  0  0
 35 30  1  0  0  0  0
 35 34  1  1  0  0  0
 37 36  1  0  0  0  0
 37 35  1  0  0  0  0
 39 38  1  0  0  0  0
 40 39  1  0  0  0  0
 40 48  1  0  0  0  0
 41 50  1  0  0  0  0
 41 48  1  0  0  0  0
 42 51  1  1  0  0  0
 45 42  1  0  0  0  0
 45 43  1  0  0  0  0
 46 44  2  0  0  0  0
 46 43  1  0  0  0  0
 48 47  1  0  0  0  0
 49 42  1  0  0  0  0
 49 47  1  0  0  0  0
 50 49  1  0  0  0  0
 50 46  1  0  0  0  0
 50 47  1  0  0  0  0
M  END
>  <MODEL>
2

>  <REMARK>
 VINA RESULT:      -7.7      3.521      9.627
  Name = 
  17 active torsions:
  status: ('A' for Active; 'I' for Inactive)
    1  A    between atoms: C_4  and  C_25
    2  A    between atoms: C_4  and  N_33
    3  A    between atoms: C_6  and  C_11
    4  A    between atoms: C_7  and  C_27
    5  A    between atoms: C_7  and  O_45
    6  A    between atoms: C_8  and  C_41
    7  A    between atoms: C_8  and  C_42
    8  A    between atoms: C_10  and  C_12
    9  A    between atoms: C_10  and  C_30
   10  A    between atoms: C_11  and  C_30
   11  A    between atoms: C_12  and  N_37
   12  A    between atoms: C_17  and  C_38
   13  A    between atoms: C_17  and  C_41
   14  A    between atoms: C_22  and  N_33
   15  A    between atoms: C_32  and  C_42
   16  A    between atoms: C_36  and  N_37
   17  A    between atoms: C_42  and  C_44
                            x       y       z     vdW  Elec       q    Type
                         _______ _______ _______ _____ _____    ______ ____

>  <TORSDO>
F 17

$$$$
=
 OpenBabel10232412223D

 51 57  0  0  1  0  0  0  0  0999 V2000
  190.1080  175.5810  136.6640 C   0  0  2  0  0  3  0  0  0  0  0  0
  189.9630  176.6670  138.9730 N   0  0  0  0  0  0  0  0  0  0  0  0
  189.5990  177.6500  141.2630 C   0  0  1  0  0  0  0  0  0  0  0  0
  189.1410  176.2060  141.2420 C   0  0  0  0  0  2  0  0  0  0  0  0
  190.3370  176.6320  140.3950 C   0  0  1  0  0  3  0  0  0  0  0  0
  188.9550  178.8910  139.1680 C   0  0  0  0  0  2  0  0  0  0  0  0
  191.5800  175.0530  138.4760 O   0  0  0  0  0  0  0  0  0  0  0  0
  188.6400  178.6640  140.6320 C   0  0  0  0  0  2  0  0  0  0  0  0
  190.5980  175.7410  138.0770 C   0  0  0  0  0  0  0  0  0  0  0  0
  188.9190  177.5560  138.4520 C   0  0  0  0  0  2  0  0  0  0  0  0
  190.3220  178.0250  142.4750 N   0  0  0  0  0  2  0  0  0  0  0  0
  189.5190  177.6700  143.6380 C   0  0  0  0  0  2  0  0  0  0  0  0
  191.5920  177.8050  145.0520 C   0  0  0  0  0  2  0  0  0  0  0  0
  191.6510  176.3620  145.5380 C   0  0  0  0  0  2  0  0  0  0  0  0
  190.1320  178.2560  144.9040 C   0  0  2  0  0  3  0  0  0  0  0  0
  189.2810  177.8820  146.0950 C   0  0  0  0  0  0  0  0  0  0  0  0
  191.0250  176.2810  146.9240 C   0  0  0  0  0  2  0  0  0  0  0  0
  189.6710  176.9360  146.9670 C   0  0  0  0  0  3  0  0  0  0  0  0
  187.9950  178.5020  146.2270 N   0  0  0  0  0  2  0  0  0  0  0  0
  186.7380  177.7650  146.2870 C   0  0  2  0  0  3  0  0  0  0  0  0
  186.5290  177.0730  145.0930 O   0  0  0  0  0  1  0  0  0  0  0  0
  185.5770  178.7130  146.5700 C   0  0  0  0  0  2  0  0  0  0  0  0
  184.4020  178.5120  145.6140 C   0  0  0  0  0  2  0  0  0  0  0  0
  184.4200  179.5270  144.4800 C   0  0  0  0  0  2  0  0  0  0  0  0
  182.5620  178.8460  143.1350 O   0  0  0  0  0  1  0  0  0  0  0  0
  183.9570  178.8990  143.1750 C   0  0  0  0  0  2  0  0  0  0  0  0
  188.7580  173.4650  136.9830 C   0  0  0  0  0  3  0  0  0  0  0  0
  187.5490  172.7720  136.9100 C   0  0  0  0  0  3  0  0  0  0  0  0
  186.4600  174.7590  136.0410 C   0  0  0  0  0  0  0  0  0  0  0  0
  186.3930  173.4100  136.4390 C   0  0  0  0  0  0  0  0  0  0  0  0
  188.8250  174.8090  136.5910 C   0  0  0  0  0  0  0  0  0  0  0  0
  185.0460  175.6140  135.4450 Cl  0  0  0  0  0  0  0  0  0  0  0  0
  187.6740  175.4470  136.1190 C   0  0  0  0  0  3  0  0  0  0  0  0
  184.5100  172.5540  137.6950 N   0  0  0  0  0  1  0  0  0  0  0  0
  185.1010  172.6570  136.3720 C   0  0  2  0  0  3  0  0  0  0  0  0
  184.2960  171.1870  135.0290 O   0  0  0  0  0  1  0  0  0  0  0  0
  185.3090  171.3790  135.8480 O   0  0  0  0  0  0  0  0  0  0  0  0
  191.1720  174.9820  135.7570 C   0  0  0  0  0  2  0  0  0  0  0  0
  192.2210  176.0290  135.4200 C   0  0  0  0  0  2  0  0  0  0  0  0
  193.2780  175.4440  134.5000 C   0  0  0  0  0  2  0  0  0  0  0  0
  195.6810  174.9280  134.5250 N   0  0  0  0  0  2  0  0  0  0  0  0
  195.1830  174.3550  138.3170 C   0  0  2  0  0  3  0  0  0  0  0  0
  197.5260  174.8890  137.8460 O   0  0  0  0  0  0  0  0  0  0  0  0
  198.0820  175.8890  135.8480 O   0  0  0  0  0  0  0  0  0  0  0  0
  196.6590  174.0080  138.5610 C   0  0  0  0  0  2  0  0  0  0  0  0
  197.2510  175.2230  136.5220 C   0  0  0  0  0  0  0  0  0  0  0  0
  194.9140  175.8400  136.3390 N   0  0  1  0  0  0  0  0  0  0  0  0
  194.6810  175.9150  134.8980 C   0  0  2  0  0  3  0  0  0  0  0  0
  194.8010  174.4440  136.8180 C   0  0  1  0  0  3  0  0  0  0  0  0
  195.9220  174.8350  135.9560 C   0  0  1  0  0  0  0  0  0  0  0  0
  194.8410  175.5230  139.0030 O   0  0  0  0  0  1  0  0  0  0  0  0
  1 38  1  6  0  0  0
  1  9  1  0  0  0  0
  2  5  1  0  0  0  0
  3 11  1  1  0  0  0
  4  3  1  0  0  0  0
  5  4  1  1  0  0  0
  5  3  1  0  0  0  0
  6  8  1  0  0  0  0
  8  3  1  0  0  0  0
  9  7  2  0  0  0  0
  9  2  1  0  0  0  0
 10  2  1  0  0  0  0
 10  6  1  0  0  0  0
 11 12  1  0  0  0  0
 13 14  1  0  0  0  0
 14 17  1  0  0  0  0
 15 12  1  6  0  0  0
 15 13  1  0  0  0  0
 15 16  1  0  0  0  0
 16 19  1  0  0  0  0
 16 18  2  0  0  0  0
 17 18  1  0  0  0  0
 19 20  1  0  0  0  0
 20 21  1  6  0  0  0
 20 22  1  0  0  0  0
 23 22  1  0  0  0  0
 24 23  1  0  0  0  0
 25 26  1  0  0  0  0
 26 24  1  0  0  0  0
 28 27  1  0  0  0  0
 29 33  2  0  0  0  0
 29 30  1  0  0  0  0
 30 28  2  0  0  0  0
 31  1  1  0  0  0  0
 31 27  2  0  0  0  0
 32 29  1  0  0  0  0
 33 31  1  0  0  0  0
 35 30  1  0  0  0  0
 35 34  1  1  0  0  0
 36 37  1  0  0  0  0
 37 35  1  0  0  0  0
 39 38  1  0  0  0  0
 40 48  1  0  0  0  0
 40 39  1  0  0  0  0
 41 48  1  0  0  0  0
 41 50  1  0  0  0  0
 42 45  1  0  0  0  0
 42 51  1  6  0  0  0
 43 45  1  0  0  0  0
 44 46  2  0  0  0  0
 46 43  1  0  0  0  0
 47 49  1  0  0  0  0
 48 47  1  0  0  0  0
 49 42  1  0  0  0  0
 50 47  1  0  0  0  0
 50 46  1  0  0  0  0
 50 49  1  0  0  0  0
M  END
>  <MODEL>
3

>  <REMARK>
 VINA RESULT:      -7.6      3.496     11.404
  Name = 
  17 active torsions:
  status: ('A' for Active; 'I' for Inactive)
    1  A    between atoms: C_4  and  C_25
    2  A    between atoms: C_4  and  N_33
    3  A    between atoms: C_6  and  C_11
    4  A    between atoms: C_7  and  C_27
    5  A    between atoms: C_7  and  O_45
    6  A    between atoms: C_8  and  C_41
    7  A    between atoms: C_8  and  C_42
    8  A    between atoms: C_10  and  C_12
    9  A    between atoms: C_10  and  C_30
   10  A    between atoms: C_11  and  C_30
   11  A    between atoms: C_12  and  N_37
   12  A    between atoms: C_17  and  C_38
   13  A    between atoms: C_17  and  C_41
   14  A    between atoms: C_22  and  N_33
   15  A    between atoms: C_32  and  C_42
   16  A    between atoms: C_36  and  N_37
   17  A    between atoms: C_42  and  C_44
                            x       y       z     vdW  Elec       q    Type
                         _______ _______ _______ _____ _____    ______ ____

>  <TORSDO>
F 17

$$$$
=
 OpenBabel10232412223D

 51 57  0  0  1  0  0  0  0  0999 V2000
  188.8220  177.3860  143.3710 C   0  0  2  0  0  3  0  0  0  0  0  0
  189.4660  177.1460  140.9090 N   0  0  0  0  0  0  0  0  0  0  0  0
  190.2310  177.1080  138.5100 C   0  0  1  0  0  0  0  0  0  0  0  0
  191.4110  177.3680  139.4240 C   0  0  0  0  0  2  0  0  0  0  0  0
  190.2780  176.4600  139.8920 C   0  0  1  0  0  3  0  0  0  0  0  0
  188.1680  178.3630  139.2270 C   0  0  0  0  0  2  0  0  0  0  0  0
  189.9730  175.4880  142.4770 O   0  0  0  0  0  0  0  0  0  0  0  0
  189.3170  178.3080  138.2420 C   0  0  0  0  0  2  0  0  0  0  0  0
  189.4530  176.6150  142.2440 C   0  0  0  0  0  0  0  0  0  0  0  0
  188.7350  178.3870  140.6320 C   0  0  0  0  0  2  0  0  0  0  0  0
  190.5200  176.1860  137.4160 N   0  0  0  0  0  2  0  0  0  0  0  0
  190.0130  176.7490  136.1710 C   0  0  0  0  0  2  0  0  0  0  0  0
  187.7650  176.2930  135.1440 C   0  0  0  0  0  2  0  0  0  0  0  0
  186.9180  176.2780  136.4100 C   0  0  0  0  0  2  0  0  0  0  0  0
  189.1610  175.7240  135.4330 C   0  0  2  0  0  3  0  0  0  0  0  0
  189.1160  174.4410  136.2310 C   0  0  0  0  0  0  0  0  0  0  0  0
  186.7180  174.8350  136.8540 C   0  0  0  0  0  2  0  0  0  0  0  0
  188.0210  174.0840  136.9240 C   0  0  0  0  0  3  0  0  0  0  0  0
  190.3090  173.6490  136.3050 N   0  0  0  0  0  2  0  0  0  0  0  0
  191.1480  173.3330  135.1550 C   0  0  2  0  0  3  0  0  0  0  0  0
  191.3430  171.9540  135.0670 O   0  0  0  0  0  1  0  0  0  0  0  0
  192.4860  174.0600  135.2560 C   0  0  0  0  0  2  0  0  0  0  0  0
  193.5450  173.2510  136.0020 C   0  0  0  0  0  2  0  0  0  0  0  0
  193.8190  173.8230  137.3850 C   0  0  0  0  0  2  0  0  0  0  0  0
  195.2750  175.6320  136.8040 O   0  0  0  0  0  1  0  0  0  0  0  0
  195.2220  174.4050  137.4700 C   0  0  0  0  0  2  0  0  0  0  0  0
  190.9300  176.8910  144.6790 C   0  0  0  0  0  3  0  0  0  0  0  0
  191.6010  176.7480  145.8940 C   0  0  0  0  0  3  0  0  0  0  0  0
  189.5500  177.2530  147.0890 C   0  0  0  0  0  0  0  0  0  0  0  0
  190.9190  176.9270  147.1060 C   0  0  0  0  0  0  0  0  0  0  0  0
  189.5670  177.2210  144.6610 C   0  0  0  0  0  0  0  0  0  0  0  0
  188.6420  177.4920  148.5740 Cl  0  0  0  0  0  0  0  0  0  0  0  0
  188.8850  177.3970  145.8680 C   0  0  0  0  0  3  0  0  0  0  0  0
  191.9500  178.0830  148.9640 N   0  0  0  0  0  1  0  0  0  0  0  0
  191.6520  176.7780  148.4030 C   0  0  2  0  0  3  0  0  0  0  0  0
  193.6350  176.4820  149.1730 O   0  0  0  0  0  1  0  0  0  0  0  0
  192.8380  176.0650  148.2120 O   0  0  0  0  0  0  0  0  0  0  0  0
  187.3460  177.0530  143.5320 C   0  0  0  0  0  2  0  0  0  0  0  0
  186.5160  178.3250  143.4920 C   0  0  0  0  0  2  0  0  0  0  0  0
  185.4510  178.2970  144.5740 C   0  0  0  0  0  2  0  0  0  0  0  0
  183.0080  178.3940  144.3210 N   0  0  0  0  0  2  0  0  0  0  0  0
  183.7280  178.3040  140.5220 C   0  0  2  0  0  3  0  0  0  0  0  0
  181.5370  179.3140  140.9410 O   0  0  0  0  0  0  0  0  0  0  0  0
  181.0350  180.1010  143.0460 O   0  0  0  0  0  0  0  0  0  0  0  0
  182.2430  178.3680  140.1370 C   0  0  0  0  0  2  0  0  0  0  0  0
  181.7510  179.3640  142.3160 C   0  0  0  0  0  0  0  0  0  0  0  0
  184.1380  179.3570  142.7380 N   0  0  1  0  0  0  0  0  0  0  0  0
  184.2410  179.1510  144.1830 C   0  0  2  0  0  3  0  0  0  0  0  0
  183.9720  178.0660  142.0340 C   0  0  1  0  0  3  0  0  0  0  0  0
  182.8930  178.5820  142.8840 C   0  0  1  0  0  0  0  0  0  0  0  0
  184.3960  179.4440  140.0680 O   0  0  0  0  0  1  0  0  0  0  0  0
  1 38  1  1  0  0  0
  1 31  1  0  0  0  0
  2  9  1  0  0  0  0
  3 11  1  6  0  0  0
  3  4  1  0  0  0  0
  3  5  1  0  0  0  0
  5  4  1  1  0  0  0
  5  2  1  0  0  0  0
  6 10  1  0  0  0  0
  8  3  1  0  0  0  0
  8  6  1  0  0  0  0
  9  7  2  0  0  0  0
  9  1  1  0  0  0  0
 10  2  1  0  0  0  0
 12 11  1  0  0  0  0
 13 15  1  0  0  0  0
 13 14  1  0  0  0  0
 14 17  1  0  0  0  0
 15 12  1  1  0  0  0
 15 16  1  0  0  0  0
 16 19  1  0  0  0  0
 16 18  2  0  0  0  0
 17 18  1  0  0  0  0
 20 21  1  1  0  0  0
 20 22  1  0  0  0  0
 20 19  1  0  0  0  0
 22 23  1  0  0  0  0
 23 24  1  0  0  0  0
 24 26  1  0  0  0  0
 25 26  1  0  0  0  0
 27 28  1  0  0  0  0
 28 30  2  0  0  0  0
 29 30  1  0  0  0  0
 29 32  1  0  0  0  0
 30 35  1  0  0  0  0
 31 27  2  0  0  0  0
 31 33  1  0  0  0  0
 33 29  2  0  0  0  0
 35 34  1  6  0  0  0
 37 35  1  0  0  0  0
 37 36  1  0  0  0  0
 39 38  1  0  0  0  0
 39 40  1  0  0  0  0
 42 51  1  1  0  0  0
 42 49  1  0  0  0  0
 43 46  1  0  0  0  0
 45 42  1  0  0  0  0
 45 43  1  0  0  0  0
 46 50  1  0  0  0  0
 46 44  2  0  0  0  0
 47 50  1  0  0  0  0
 47 48  1  0  0  0  0
 48 41  1  0  0  0  0
 48 40  1  0  0  0  0
 49 47  1  0  0  0  0
 49 50  1  0  0  0  0
 50 41  1  0  0  0  0
M  END
>  <MODEL>
4

>  <REMARK>
 VINA RESULT:      -7.6      1.378      1.889
  Name = 
  17 active torsions:
  status: ('A' for Active; 'I' for Inactive)
    1  A    between atoms: C_4  and  C_25
    2  A    between atoms: C_4  and  N_33
    3  A    between atoms: C_6  and  C_11
    4  A    between atoms: C_7  and  C_27
    5  A    between atoms: C_7  and  O_45
    6  A    between atoms: C_8  and  C_41
    7  A    between atoms: C_8  and  C_42
    8  A    between atoms: C_10  and  C_12
    9  A    between atoms: C_10  and  C_30
   10  A    between atoms: C_11  and  C_30
   11  A    between atoms: C_12  and  N_37
   12  A    between atoms: C_17  and  C_38
   13  A    between atoms: C_17  and  C_41
   14  A    between atoms: C_22  and  N_33
   15  A    between atoms: C_32  and  C_42
   16  A    between atoms: C_36  and  N_37
   17  A    between atoms: C_42  and  C_44
                            x       y       z     vdW  Elec       q    Type
                         _______ _______ _______ _____ _____    ______ ____

>  <TORSDO>
F 17

$$$$
=
 OpenBabel10232412223D

 51 57  0  0  1  0  0  0  0  0999 V2000
  190.6690  176.2150  137.6640 C   0  0  2  0  0  3  0  0  0  0  0  0
  190.0560  176.9620  140.0310 N   0  0  0  0  0  0  0  0  0  0  0  0
  189.3160  177.5020  142.3760 C   0  0  1  0  0  0  0  0  0  0  0  0
  189.7160  176.0430  142.2850 C   0  0  0  0  0  2  0  0  0  0  0  0
  190.4500  177.0830  141.4420 C   0  0  1  0  0  3  0  0  0  0  0  0
  188.0110  178.2670  140.3620 C   0  0  0  0  0  2  0  0  0  0  0  0
  192.2680  176.5100  139.4200 O   0  0  0  0  0  0  0  0  0  0  0  0
  187.9330  177.8510  141.8170 C   0  0  0  0  0  2  0  0  0  0  0  0
  191.0540  176.5640  139.0760 C   0  0  0  0  0  0  0  0  0  0  0  0
  188.6750  177.1560  139.5750 C   0  0  0  0  0  2  0  0  0  0  0  0
  189.7700  178.1660  143.5950 N   0  0  0  0  0  2  0  0  0  0  0  0
  189.3140  177.4040  144.7510 C   0  0  0  0  0  2  0  0  0  0  0  0
  189.6270  178.3550  147.0560 C   0  0  0  0  0  2  0  0  0  0  0  0
  189.4090  177.0880  147.8740 C   0  0  0  0  0  2  0  0  0  0  0  0
  188.7360  178.3400  145.8060 C   0  0  2  0  0  3  0  0  0  0  0  0
  187.3110  177.9370  146.1090 C   0  0  0  0  0  0  0  0  0  0  0  0
  187.9670  177.0580  148.3650 C   0  0  0  0  0  2  0  0  0  0  0  0
  186.9890  177.2970  147.2460 C   0  0  0  0  0  3  0  0  0  0  0  0
  186.3150  178.1760  145.1060 N   0  0  0  0  0  2  0  0  0  0  0  0
  185.3710  179.2870  145.1440 C   0  0  2  0  0  3  0  0  0  0  0  0
  184.2920  178.9730  145.9720 O   0  0  0  0  0  1  0  0  0  0  0  0
  184.8890  179.6260  143.7380 C   0  0  0  0  0  2  0  0  0  0  0  0
  183.8910  178.6060  143.1920 C   0  0  0  0  0  2  0  0  0  0  0  0
  184.3010  178.0980  141.8170 C   0  0  0  0  0  2  0  0  0  0  0  0
  184.8380  179.5990  140.0320 O   0  0  0  0  0  1  0  0  0  0  0  0
  183.7740  179.0080  140.7170 C   0  0  0  0  0  2  0  0  0  0  0  0
  191.7820  174.0880  136.8660 C   0  0  0  0  0  3  0  0  0  0  0  0
  192.8090  173.4370  136.1810 C   0  0  0  0  0  3  0  0  0  0  0  0
  193.8150  175.5790  135.6460 C   0  0  0  0  0  0  0  0  0  0  0  0
  193.8310  174.1740  135.5680 C   0  0  0  0  0  0  0  0  0  0  0  0
  191.7620  175.4880  136.9400 C   0  0  0  0  0  0  0  0  0  0  0  0
  195.0660  176.5580  134.8970 Cl  0  0  0  0  0  0  0  0  0  0  0  0
  192.7820  176.2240  136.3320 C   0  0  0  0  0  3  0  0  0  0  0  0
  194.5760  172.0660  134.6430 N   0  0  0  0  0  1  0  0  0  0  0  0
  194.9240  173.4630  134.8310 C   0  0  2  0  0  3  0  0  0  0  0  0
  196.6550  172.3560  135.4540 O   0  0  0  0  0  1  0  0  0  0  0  0
  196.1270  173.5600  135.5340 O   0  0  0  0  0  0  0  0  0  0  0  0
  190.1970  177.4340  136.8850 C   0  0  0  0  0  2  0  0  0  0  0  0
  189.1780  177.0210  135.8360 C   0  0  0  0  0  2  0  0  0  0  0  0
  187.9340  177.8870  135.9360 C   0  0  0  0  0  2  0  0  0  0  0  0
  185.5510  177.3610  136.2310 N   0  0  0  0  0  2  0  0  0  0  0  0
  186.7870  173.8130  137.1470 C   0  0  2  0  0  3  0  0  0  0  0  0
  184.4680  173.7220  136.3660 O   0  0  0  0  0  0  0  0  0  0  0  0
  183.6060  175.4880  135.1640 O   0  0  0  0  0  0  0  0  0  0  0  0
  185.3690  173.2690  137.3770 C   0  0  0  0  0  2  0  0  0  0  0  0
  184.4870  175.0530  135.9540 C   0  0  0  0  0  0  0  0  0  0  0  0
  186.7830  175.7120  135.5400 N   0  0  1  0  0  0  0  0  0  0  0  0
  186.7080  177.1630  135.3720 C   0  0  2  0  0  3  0  0  0  0  0  0
  186.8460  175.3510  136.9740 C   0  0  1  0  0  3  0  0  0  0  0  0
  185.6150  175.9210  136.4150 C   0  0  1  0  0  0  0  0  0  0  0  0
  187.3900  173.1530  136.0730 O   0  0  0  0  0  1  0  0  0  0  0  0
  1 38  1  6  0  0  0
  1  9  1  0  0  0  0
  2  5  1  0  0  0  0
  3 11  1  1  0  0  0
  4  3  1  0  0  0  0
  5  4  1  1  0  0  0
  5  3  1  0  0  0  0
  6  8  1  0  0  0  0
  8  3  1  0  0  0  0
  9  7  2  0  0  0  0
  9  2  1  0  0  0  0
 10  2  1  0  0  0  0
 10  6  1  0  0  0  0
 11 12  1  0  0  0  0
 13 14  1  0  0  0  0
 14 17  1  0  0  0  0
 15 12  1  6  0  0  0
 15 16  1  0  0  0  0
 15 13  1  0  0  0  0
 16 18  2  0  0  0  0
 18 17  1  0  0  0  0
 19 20  1  0  0  0  0
 19 16  1  0  0  0  0
 20 21  1  1  0  0  0
 22 20  1  0  0  0  0
 23 22  1  0  0  0  0
 24 23  1  0  0  0  0
 25 26  1  0  0  0  0
 26 24  1  0  0  0  0
 27 31  1  0  0  0  0
 28 27  2  0  0  0  0
 29 33  1  0  0  0  0
 30 29  2  0  0  0  0
 30 28  1  0  0  0  0
 31  1  1  0  0  0  0
 32 29  1  0  0  0  0
 33 31  2  0  0  0  0
 35 34  1  1  0  0  0
 35 37  1  0  0  0  0
 35 30  1  0  0  0  0
 36 37  1  0  0  0  0
 39 40  1  0  0  0  0
 39 38  1  0  0  0  0
 41 50  1  0  0  0  0
 42 51  1  6  0  0  0
 42 45  1  0  0  0  0
 43 45  1  0  0  0  0
 44 46  2  0  0  0  0
 46 43  1  0  0  0  0
 46 50  1  0  0  0  0
 47 50  1  0  0  0  0
 47 49  1  0  0  0  0
 48 47  1  0  0  0  0
 48 40  1  0  0  0  0
 48 41  1  0  0  0  0
 49 42  1  0  0  0  0
 50 49  1  0  0  0  0
M  END
>  <MODEL>
5

>  <REMARK>
 VINA RESULT:      -7.3      3.610      9.739
  Name = 
  17 active torsions:
  status: ('A' for Active; 'I' for Inactive)
    1  A    between atoms: C_4  and  C_25
    2  A    between atoms: C_4  and  N_33
    3  A    between atoms: C_6  and  C_11
    4  A    between atoms: C_7  and  C_27
    5  A    between atoms: C_7  and  O_45
    6  A    between atoms: C_8  and  C_41
    7  A    between atoms: C_8  and  C_42
    8  A    between atoms: C_10  and  C_12
    9  A    between atoms: C_10  and  C_30
   10  A    between atoms: C_11  and  C_30
   11  A    between atoms: C_12  and  N_37
   12  A    between atoms: C_17  and  C_38
   13  A    between atoms: C_17  and  C_41
   14  A    between atoms: C_22  and  N_33
   15  A    between atoms: C_32  and  C_42
   16  A    between atoms: C_36  and  N_37
   17  A    between atoms: C_42  and  C_44
                            x       y       z     vdW  Elec       q    Type
                         _______ _______ _______ _____ _____    ______ ____

>  <TORSDO>
F 17

$$$$
=
 OpenBabel10232412223D

 51 57  0  0  1  0  0  0  0  0999 V2000
  190.3120  176.4330  138.6120 C   0  0  2  0  0  3  0  0  0  0  0  0
  188.0670  176.4490  137.3890 N   0  0  0  0  0  0  0  0  0  0  0  0
  185.7570  176.3930  136.3880 C   0  0  1  0  0  0  0  0  0  0  0  0
  185.7190  177.0860  137.7350 C   0  0  0  0  0  2  0  0  0  0  0  0
  186.9490  177.2330  136.8430 C   0  0  1  0  0  3  0  0  0  0  0  0
  187.2520  174.3650  136.3940 C   0  0  0  0  0  2  0  0  0  0  0  0
  189.3550  178.3870  137.6160 O   0  0  0  0  0  0  0  0  0  0  0  0
  185.8210  174.8630  136.4260 C   0  0  0  0  0  2  0  0  0  0  0  0
  189.2320  177.1530  137.8510 C   0  0  0  0  0  0  0  0  0  0  0  0
  188.0080  174.9920  137.5470 C   0  0  0  0  0  2  0  0  0  0  0  0
  184.9370  177.0370  135.3660 N   0  0  0  0  0  2  0  0  0  0  0  0
  184.0820  178.0340  135.9990 C   0  0  0  0  0  2  0  0  0  0  0  0
  181.7520  177.4280  135.2790 C   0  0  0  0  0  2  0  0  0  0  0  0
  181.1750  178.8280  135.1140 C   0  0  0  0  0  2  0  0  0  0  0  0
  182.7640  177.4030  136.4330 C   0  0  2  0  0  3  0  0  0  0  0  0
  182.2560  178.1030  137.6720 C   0  0  0  0  0  0  0  0  0  0  0  0
  180.4090  179.2000  136.3770 C   0  0  0  0  0  2  0  0  0  0  0  0
  181.2270  178.9660  137.6180 C   0  0  0  0  0  3  0  0  0  0  0  0
  182.9590  177.8900  138.9040 N   0  0  0  0  0  2  0  0  0  0  0  0
  183.2890  178.9520  139.8470 C   0  0  2  0  0  3  0  0  0  0  0  0
  184.1010  179.9060  139.2320 O   0  0  0  0  0  1  0  0  0  0  0  0
  183.9750  178.3760  141.0810 C   0  0  0  0  0  2  0  0  0  0  0  0
  183.2680  178.7520  142.3820 C   0  0  0  0  0  2  0  0  0  0  0  0
  184.1930  178.6170  143.5830 C   0  0  0  0  0  2  0  0  0  0  0  0
  184.3850  178.9840  145.9400 O   0  0  0  0  0  1  0  0  0  0  0  0
  183.5150  179.1050  144.8540 C   0  0  0  0  0  2  0  0  0  0  0  0
  191.5880  177.0690  140.7020 C   0  0  0  0  0  3  0  0  0  0  0  0
  191.6090  177.4600  142.0410 C   0  0  0  0  0  3  0  0  0  0  0  0
  189.1840  177.4040  142.0990 C   0  0  0  0  0  0  0  0  0  0  0  0
  190.4120  177.6300  142.7490 C   0  0  0  0  0  0  0  0  0  0  0  0
  190.3660  176.8480  140.0510 C   0  0  0  0  0  0  0  0  0  0  0  0
  187.6500  177.6030  142.9320 Cl  0  0  0  0  0  0  0  0  0  0  0  0
  189.1710  177.0150  140.7560 C   0  0  0  0  0  3  0  0  0  0  0  0
  191.8220  178.1650  144.6410 N   0  0  0  0  0  1  0  0  0  0  0  0
  190.4480  178.0580  144.1840 C   0  0  2  0  0  3  0  0  0  0  0  0
  189.9820  177.5400  146.2160 O   0  0  0  0  0  1  0  0  0  0  0  0
  189.7560  177.1420  144.9810 O   0  0  0  0  0  0  0  0  0  0  0  0
  191.6690  176.5680  137.9390 C   0  0  0  0  0  2  0  0  0  0  0  0
  191.5620  176.2030  136.4680 C   0  0  0  0  0  2  0  0  0  0  0  0
  192.6080  175.1650  136.1020 C   0  0  0  0  0  2  0  0  0  0  0  0
  194.9000  174.9320  135.2450 N   0  0  0  0  0  2  0  0  0  0  0  0
  195.8640  174.2970  138.9360 C   0  0  2  0  0  3  0  0  0  0  0  0
  197.8080  175.1000  137.6840 O   0  0  0  0  0  0  0  0  0  0  0  0
  197.4970  176.1620  135.6640 O   0  0  0  0  0  0  0  0  0  0  0  0
  197.3570  174.1220  138.6220 C   0  0  0  0  0  2  0  0  0  0  0  0
  197.0410  175.4030  136.5610 C   0  0  0  0  0  0  0  0  0  0  0  0
  194.7430  175.7440  137.2520 N   0  0  1  0  0  0  0  0  0  0  0  0
  194.0000  175.7950  135.9930 C   0  0  2  0  0  3  0  0  0  0  0  0
  194.9610  174.3440  137.6780 C   0  0  1  0  0  3  0  0  0  0  0  0
  195.6470  174.8650  136.4900 C   0  0  1  0  0  0  0  0  0  0  0  0
  195.6670  175.4150  139.7490 O   0  0  0  0  0  1  0  0  0  0  0  0
  1 38  1  6  0  0  0
  1 31  1  0  0  0  0
  2 10  1  0  0  0  0
  2  9  1  0  0  0  0
  3 11  1  6  0  0  0
  3  8  1  0  0  0  0
  3  5  1  0  0  0  0
  3  4  1  0  0  0  0
  5  2  1  0  0  0  0
  5  4  1  1  0  0  0
  6  8  1  0  0  0  0
  6 10  1  0  0  0  0
  7  9  2  0  0  0  0
  9  1  1  0  0  0  0
 11 12  1  0  0  0  0
 13 15  1  0  0  0  0
 14 13  1  0  0  0  0
 14 17  1  0  0  0  0
 15 12  1  6  0  0  0
 15 16  1  0  0  0  0
 16 19  1  0  0  0  0
 17 18  1  0  0  0  0
 18 16  2  0  0  0  0
 19 20  1  0  0  0  0
 20 21  1  6  0  0  0
 20 22  1  0  0  0  0
 22 23  1  0  0  0  0
 23 24  1  0  0  0  0
 24 26  1  0  0  0  0
 26 25  1  0  0  0  0
 27 28  1  0  0  0  0
 28 30  2  0  0  0  0
 29 30  1  0  0  0  0
 29 32  1  0  0  0  0
 30 35  1  0  0  0  0
 31 27  2  0  0  0  0
 31 33  1  0  0  0  0
 33 29  2  0  0  0  0
 35 34  1  1  0  0  0
 35 37  1  0  0  0  0
 37 36  1  0  0  0  0
 39 38  1  0  0  0  0
 40 39  1  0  0  0  0
 41 48  1  0  0  0  0
 41 50  1  0  0  0  0
 42 51  1  6  0  0  0
 43 45  1  0  0  0  0
 44 46  2  0  0  0  0
 45 42  1  0  0  0  0
 46 43  1  0  0  0  0
 47 49  1  0  0  0  0
 48 40  1  0  0  0  0
 48 47  1  0  0  0  0
 49 42  1  0  0  0  0
 50 46  1  0  0  0  0
 50 47  1  0  0  0  0
 50 49  1  0  0  0  0
M  END
>  <MODEL>
6

>  <REMARK>
 VINA RESULT:      -7.1      2.807      9.574
  Name = 
  17 active torsions:
  status: ('A' for Active; 'I' for Inactive)
    1  A    between atoms: C_4  and  C_25
    2  A    between atoms: C_4  and  N_33
    3  A    between atoms: C_6  and  C_11
    4  A    between atoms: C_7  and  C_27
    5  A    between atoms: C_7  and  O_45
    6  A    between atoms: C_8  and  C_41
    7  A    between atoms: C_8  and  C_42
    8  A    between atoms: C_10  and  C_12
    9  A    between atoms: C_10  and  C_30
   10  A    between atoms: C_11  and  C_30
   11  A    between atoms: C_12  and  N_37
   12  A    between atoms: C_17  and  C_38
   13  A    between atoms: C_17  and  C_41
   14  A    between atoms: C_22  and  N_33
   15  A    between atoms: C_32  and  C_42
   16  A    between atoms: C_36  and  N_37
   17  A    between atoms: C_42  and  C_44
                            x       y       z     vdW  Elec       q    Type
                         _______ _______ _______ _____ _____    ______ ____

>  <TORSDO>
F 17

$$$$
=
 OpenBabel10232412223D

 51 57  0  0  1  0  0  0  0  0999 V2000
  191.3300  175.8610  137.0900 C   0  0  2  0  0  3  0  0  0  0  0  0
  190.4210  176.8270  139.2750 N   0  0  0  0  0  0  0  0  0  0  0  0
  189.4200  177.5680  141.4640 C   0  0  1  0  0  0  0  0  0  0  0  0
  190.0440  176.1960  141.6200 C   0  0  0  0  0  2  0  0  0  0  0  0
  190.6770  177.2110  140.6720 C   0  0  1  0  0  3  0  0  0  0  0  0
  188.1810  177.8170  139.2850 C   0  0  0  0  0  2  0  0  0  0  0  0
  192.7180  176.6590  138.8690 O   0  0  0  0  0  0  0  0  0  0  0  0
  188.0500  177.6050  140.7790 C   0  0  0  0  0  2  0  0  0  0  0  0
  191.5420  176.4660  138.4510 C   0  0  0  0  0  0  0  0  0  0  0  0
  189.0680  176.7280  138.7170 C   0  0  0  0  0  2  0  0  0  0  0  0
  189.6680  178.4630  142.5900 N   0  0  0  0  0  2  0  0  0  0  0  0
  189.0010  177.9360  143.7740 C   0  0  0  0  0  2  0  0  0  0  0  0
  191.2480  178.4110  144.7950 C   0  0  0  0  0  2  0  0  0  0  0  0
  191.8130  176.9960  144.8100 C   0  0  0  0  0  2  0  0  0  0  0  0
  189.7320  178.3800  145.0360 C   0  0  2  0  0  3  0  0  0  0  0  0
  189.3420  177.4810  146.1860 C   0  0  0  0  0  0  0  0  0  0  0  0
  191.6030  176.3940  146.1930 C   0  0  0  0  0  2  0  0  0  0  0  0
  190.1780  176.5400  146.6570 C   0  0  0  0  0  3  0  0  0  0  0  0
  188.0120  177.5960  146.7110 N   0  0  0  0  0  2  0  0  0  0  0  0
  187.6560  178.4320  147.8500 C   0  0  2  0  0  3  0  0  0  0  0  0
  187.6420  177.6710  149.0200 O   0  0  0  0  0  1  0  0  0  0  0  0
  186.3020  179.0950  147.6230 C   0  0  0  0  0  2  0  0  0  0  0  0
  185.4420  178.3510  146.6020 C   0  0  0  0  0  2  0  0  0  0  0  0
  185.5420  178.9790  145.2190 C   0  0  0  0  0  2  0  0  0  0  0  0
  184.4640  178.0500  143.2950 O   0  0  0  0  0  1  0  0  0  0  0  0
  184.2430  178.8110  144.4460 C   0  0  0  0  0  2  0  0  0  0  0  0
  192.1550  173.5070  136.6690 C   0  0  0  0  0  3  0  0  0  0  0  0
  193.1760  172.6210  136.3240 C   0  0  0  0  0  3  0  0  0  0  0  0
  194.7190  174.4800  136.1020 C   0  0  0  0  0  0  0  0  0  0  0  0
  194.4630  173.0980  136.0390 C   0  0  0  0  0  0  0  0  0  0  0  0
  192.4080  174.8850  136.7270 C   0  0  0  0  0  0  0  0  0  0  0  0
  196.3100  175.1390  135.7540 Cl  0  0  0  0  0  0  0  0  0  0  0  0
  193.6910  175.3620  136.4460 C   0  0  0  0  0  3  0  0  0  0  0  0
  194.9780  170.8510  135.3020 N   0  0  0  0  0  1  0  0  0  0  0  0
  195.5480  172.1370  135.6630 C   0  0  2  0  0  3  0  0  0  0  0  0
  195.9770  170.9420  137.3950 O   0  0  0  0  0  1  0  0  0  0  0  0
  196.4430  171.9740  136.7240 O   0  0  0  0  0  0  0  0  0  0  0  0
  191.1550  176.9250  136.0160 C   0  0  0  0  0  2  0  0  0  0  0  0
  189.7120  176.9570  135.5410 C   0  0  0  0  0  2  0  0  0  0  0  0
  189.2430  175.5590  135.1760 C   0  0  0  0  0  2  0  0  0  0  0  0
  187.0250  176.3930  135.8320 N   0  0  0  0  0  2  0  0  0  0  0  0
  186.4660  172.8320  137.2330 C   0  0  2  0  0  3  0  0  0  0  0  0
  184.3130  173.8960  136.7520 O   0  0  0  0  0  0  0  0  0  0  0  0
  184.2400  175.7240  135.3540 O   0  0  0  0  0  0  0  0  0  0  0  0
  185.0410  173.1380  137.7190 C   0  0  0  0  0  2  0  0  0  0  0  0
  184.9170  174.9710  136.1050 C   0  0  0  0  0  0  0  0  0  0  0  0
  187.1050  174.2850  135.3180 N   0  0  1  0  0  0  0  0  0  0  0  0
  187.7370  175.5350  134.8980 C   0  0  2  0  0  3  0  0  0  0  0  0
  187.2530  174.0860  136.7770 C   0  0  1  0  0  3  0  0  0  0  0  0
  186.3920  175.1590  136.2680 C   0  0  1  0  0  0  0  0  0  0  0  0
  186.4380  171.8530  136.2370 O   0  0  0  0  0  1  0  0  0  0  0  0
  1 38  1  6  0  0  0
  1  9  1  0  0  0  0
  2  5  1  0  0  0  0
  3  4  1  0  0  0  0
  3 11  1  1  0  0  0
  5  3  1  0  0  0  0
  5  4  1  1  0  0  0
  6  8  1  0  0  0  0
  8  3  1  0  0  0  0
  9  7  2  0  0  0  0
  9  2  1  0  0  0  0
 10  2  1  0  0  0  0
 10  6  1  0  0  0  0
 11 12  1  0  0  0  0
 13 14  1  0  0  0  0
 13 15  1  0  0  0  0
 14 17  1  0  0  0  0
 15 12  1  6  0  0  0
 15 16  1  0  0  0  0
 16 18  2  0  0  0  0
 16 19  1  0  0  0  0
 17 18  1  0  0  0  0
 19 20  1  0  0  0  0
 20 21  1  1  0  0  0
 22 20  1  0  0  0  0
 23 22  1  0  0  0  0
 24 23  1  0  0  0  0
 25 26  1  0  0  0  0
 26 24  1  0  0  0  0
 27 31  1  0  0  0  0
 28 27  2  0  0  0  0
 29 33  1  0  0  0  0
 30 29  2  0  0  0  0
 30 28  1  0  0  0  0
 31  1  1  0  0  0  0
 32 29  1  0  0  0  0
 33 31  2  0  0  0  0
 35 34  1  1  0  0  0
 35 30  1  0  0  0  0
 35 37  1  0  0  0  0
 37 36  1  0  0  0  0
 39 38  1  0  0  0  0
 40 39  1  0  0  0  0
 41 50  1  0  0  0  0
 42 51  1  6  0  0  0
 42 45  1  0  0  0  0
 43 45  1  0  0  0  0
 44 46  2  0  0  0  0
 46 50  1  0  0  0  0
 46 43  1  0  0  0  0
 47 50  1  0  0  0  0
 47 49  1  0  0  0  0
 48 40  1  0  0  0  0
 48 47  1  0  0  0  0
 48 41  1  0  0  0  0
 49 42  1  0  0  0  0
 50 49  1  0  0  0  0
M  END
>  <MODEL>
7

>  <REMARK>
 VINA RESULT:      -7.1      3.656      9.819
  Name = 
  17 active torsions:
  status: ('A' for Active; 'I' for Inactive)
    1  A    between atoms: C_4  and  C_25
    2  A    between atoms: C_4  and  N_33
    3  A    between atoms: C_6  and  C_11
    4  A    between atoms: C_7  and  C_27
    5  A    between atoms: C_7  and  O_45
    6  A    between atoms: C_8  and  C_41
    7  A    between atoms: C_8  and  C_42
    8  A    between atoms: C_10  and  C_12
    9  A    between atoms: C_10  and  C_30
   10  A    between atoms: C_11  and  C_30
   11  A    between atoms: C_12  and  N_37
   12  A    between atoms: C_17  and  C_38
   13  A    between atoms: C_17  and  C_41
   14  A    between atoms: C_22  and  N_33
   15  A    between atoms: C_32  and  C_42
   16  A    between atoms: C_36  and  N_37
   17  A    between atoms: C_42  and  C_44
                            x       y       z     vdW  Elec       q    Type
                         _______ _______ _______ _____ _____    ______ ____

>  <TORSDO>
F 17

$$$$
=
 OpenBabel10232412223D

 51 57  0  0  1  0  0  0  0  0999 V2000
  189.2470  178.3850  141.9730 C   0  0  2  0  0  3  0  0  0  0  0  0
  189.1200  177.4470  139.5980 N   0  0  0  0  0  0  0  0  0  0  0  0
  189.2260  176.5730  137.2390 C   0  0  1  0  0  0  0  0  0  0  0  0
  190.3980  176.0420  138.0390 C   0  0  0  0  0  2  0  0  0  0  0  0
  189.0530  176.2650  138.7250 C   0  0  1  0  0  3  0  0  0  0  0  0
  188.7430  178.9950  137.7390 C   0  0  0  0  0  2  0  0  0  0  0  0
  188.6140  176.1330  141.4660 O   0  0  0  0  0  0  0  0  0  0  0  0
  189.3530  178.0200  136.7520 C   0  0  0  0  0  2  0  0  0  0  0  0
  188.9750  177.2570  141.0150 C   0  0  0  0  0  0  0  0  0  0  0  0
  189.4020  178.7930  139.0880 C   0  0  0  0  0  2  0  0  0  0  0  0
  188.6130  175.5850  136.3560 N   0  0  0  0  0  2  0  0  0  0  0  0
  188.1130  176.2560  135.1630 C   0  0  0  0  0  2  0  0  0  0  0  0
  185.7720  177.1670  135.2360 C   0  0  0  0  0  2  0  0  0  0  0  0
  185.6420  177.3870  136.7380 C   0  0  0  0  0  2  0  0  0  0  0  0
  186.6390  175.9320  134.9530 C   0  0  2  0  0  3  0  0  0  0  0  0
  186.2590  174.7440  135.8050 C   0  0  0  0  0  0  0  0  0  0  0  0
  184.9190  176.1950  137.3510 C   0  0  0  0  0  2  0  0  0  0  0  0
  185.5330  174.8880  136.9270 C   0  0  0  0  0  3  0  0  0  0  0  0
  186.7700  173.4570  135.4350 N   0  0  0  0  0  2  0  0  0  0  0  0
  186.2220  172.1940  135.9140 C   0  0  2  0  0  3  0  0  0  0  0  0
  187.0590  171.1370  135.5510 O   0  0  0  0  0  1  0  0  0  0  0  0
  184.8160  171.9790  135.3630 C   0  0  0  0  0  2  0  0  0  0  0  0
  184.0910  170.8100  136.0280 C   0  0  0  0  0  2  0  0  0  0  0  0
  182.9830  171.2890  136.9540 C   0  0  0  0  0  2  0  0  0  0  0  0
  181.2200  172.9080  136.9580 O   0  0  0  0  0  1  0  0  0  0  0  0
  182.5590  172.7090  136.6130 C   0  0  0  0  0  2  0  0  0  0  0  0
  191.1150  177.5240  143.4470 C   0  0  0  0  0  3  0  0  0  0  0  0
  191.5790  177.0800  144.6860 C   0  0  0  0  0  3  0  0  0  0  0  0
  189.3590  177.3680  145.6230 C   0  0  0  0  0  0  0  0  0  0  0  0
  190.7080  176.9980  145.7810 C   0  0  0  0  0  0  0  0  0  0  0  0
  189.7730  177.8980  143.2900 C   0  0  0  0  0  0  0  0  0  0  0  0
  188.2200  177.2900  146.9590 Cl  0  0  0  0  0  0  0  0  0  0  0  0
  188.9030  177.8150  144.3800 C   0  0  0  0  0  3  0  0  0  0  0  0
  191.5390  177.6600  147.9540 N   0  0  0  0  0  1  0  0  0  0  0  0
  191.2200  176.5260  147.1070 C   0  0  2  0  0  3  0  0  0  0  0  0
  192.9350  175.7190  148.1170 O   0  0  0  0  0  1  0  0  0  0  0  0
  192.3560  175.7310  146.9340 O   0  0  0  0  0  0  0  0  0  0  0  0
  188.0330  179.2830  142.1530 C   0  0  0  0  0  2  0  0  0  0  0  0
  186.8040  178.6290  141.5450 C   0  0  0  0  0  2  0  0  0  0  0  0
  185.8530  178.1690  142.6360 C   0  0  0  0  0  2  0  0  0  0  0  0
  183.5580  178.4150  143.4800 N   0  0  0  0  0  2  0  0  0  0  0  0
  182.4920  177.6900  139.8340 C   0  0  2  0  0  3  0  0  0  0  0  0
  180.7240  178.9190  141.0000 O   0  0  0  0  0  0  0  0  0  0  0  0
  181.2230  180.0550  142.9400 O   0  0  0  0  0  0  0  0  0  0  0  0
  180.9920  177.8090  140.1420 C   0  0  0  0  0  2  0  0  0  0  0  0
  181.5340  179.1620  142.1060 C   0  0  0  0  0  0  0  0  0  0  0  0
  183.8560  179.0340  141.4210 N   0  0  1  0  0  0  0  0  0  0  0  0
  184.5970  179.0450  142.6820 C   0  0  2  0  0  3  0  0  0  0  0  0
  183.3900  177.6680  141.0960 C   0  0  1  0  0  3  0  0  0  0  0  0
  182.8090  178.3900  142.2340 C   0  0  1  0  0  0  0  0  0  0  0  0
  182.8850  178.6920  138.9430 O   0  0  0  0  0  1  0  0  0  0  0  0
  1 38  1  1  0  0  0
  1 31  1  0  0  0  0
  2  9  1  0  0  0  0
  3 11  1  6  0  0  0
  3  4  1  0  0  0  0
  3  5  1  0  0  0  0
  5  4  1  1  0  0  0
  5  2  1  0  0  0  0
  6 10  1  0  0  0  0
  8  3  1  0  0  0  0
  8  6  1  0  0  0  0
  9  7  2  0  0  0  0
  9  1  1  0  0  0  0
 10  2  1  0  0  0  0
 12 11  1  0  0  0  0
 13 14  1  0  0  0  0
 14 17  1  0  0  0  0
 15 12  1  1  0  0  0
 15 13  1  0  0  0  0
 15 16  1  0  0  0  0
 16 18  2  0  0  0  0
 18 17  1  0  0  0  0
 19 16  1  0  0  0  0
 19 20  1  0  0  0  0
 20 21  1  6  0  0  0
 22 20  1  0  0  0  0
 22 23  1  0  0  0  0
 23 24  1  0  0  0  0
 26 24  1  0  0  0  0
 26 25  1  0  0  0  0
 27 28  1  0  0  0  0
 28 30  2  0  0  0  0
 29 30  1  0  0  0  0
 29 32  1  0  0  0  0
 30 35  1  0  0  0  0
 31 27  2  0  0  0  0
 31 33  1  0  0  0  0
 33 29  2  0  0  0  0
 35 34  1  1  0  0  0
 37 35  1  0  0  0  0
 37 36  1  0  0  0  0
 39 38  1  0  0  0  0
 39 40  1  0  0  0  0
 40 48  1  0  0  0  0
 42 51  1  6  0  0  0
 42 45  1  0  0  0  0
 42 49  1  0  0  0  0
 43 46  1  0  0  0  0
 45 43  1  0  0  0  0
 46 50  1  0  0  0  0
 46 44  2  0  0  0  0
 47 50  1  0  0  0  0
 47 48  1  0  0  0  0
 48 41  1  0  0  0  0
 49 47  1  0  0  0  0
 49 50  1  0  0  0  0
 50 41  1  0  0  0  0
M  END
>  <MODEL>
8

>  <REMARK>
 VINA RESULT:      -6.9      2.752      4.782
  Name = 
  17 active torsions:
  status: ('A' for Active; 'I' for Inactive)
    1  A    between atoms: C_4  and  C_25
    2  A    between atoms: C_4  and  N_33
    3  A    between atoms: C_6  and  C_11
    4  A    between atoms: C_7  and  C_27
    5  A    between atoms: C_7  and  O_45
    6  A    between atoms: C_8  and  C_41
    7  A    between atoms: C_8  and  C_42
    8  A    between atoms: C_10  and  C_12
    9  A    between atoms: C_10  and  C_30
   10  A    between atoms: C_11  and  C_30
   11  A    between atoms: C_12  and  N_37
   12  A    between atoms: C_17  and  C_38
   13  A    between atoms: C_17  and  C_41
   14  A    between atoms: C_22  and  N_33
   15  A    between atoms: C_32  and  C_42
   16  A    between atoms: C_36  and  N_37
   17  A    between atoms: C_42  and  C_44
                            x       y       z     vdW  Elec       q    Type
                         _______ _______ _______ _____ _____    ______ ____

>  <TORSDO>
F 17

$$$$
=
 OpenBabel10232412223D

 51 57  0  0  1  0  0  0  0  0999 V2000
  190.1820  176.4440  138.3350 C   0  0  2  0  0  3  0  0  0  0  0  0
  187.9550  176.2290  137.0990 N   0  0  0  0  0  0  0  0  0  0  0  0
  185.6770  175.9060  136.0750 C   0  0  1  0  0  0  0  0  0  0  0  0
  185.5370  176.4250  137.4920 C   0  0  0  0  0  2  0  0  0  0  0  0
  186.7180  176.8740  136.6350 C   0  0  1  0  0  3  0  0  0  0  0  0
  187.4870  174.1660  135.8650 C   0  0  0  0  0  2  0  0  0  0  0  0
  188.9070  178.3140  137.5590 O   0  0  0  0  0  0  0  0  0  0  0  0
  185.9940  174.4130  135.9390 C   0  0  0  0  0  2  0  0  0  0  0  0
  188.9910  177.0570  137.6510 C   0  0  0  0  0  0  0  0  0  0  0  0
  188.1390  174.7740  137.0890 C   0  0  0  0  0  2  0  0  0  0  0  0
  184.7530  176.5190  135.1250 N   0  0  0  0  0  2  0  0  0  0  0  0
  183.4980  176.8140  135.8040 C   0  0  0  0  0  2  0  0  0  0  0  0
  182.3730  174.7140  135.0050 C   0  0  0  0  0  2  0  0  0  0  0  0
  181.1210  175.3260  134.3900 C   0  0  0  0  0  2  0  0  0  0  0  0
  182.8110  175.5230  136.2330 C   0  0  2  0  0  3  0  0  0  0  0  0
  181.6620  175.8490  137.1600 C   0  0  0  0  0  0  0  0  0  0  0  0
  179.9820  175.2420  135.3980 C   0  0  0  0  0  2  0  0  0  0  0  0
  180.3860  175.7790  136.7450 C   0  0  0  0  0  3  0  0  0  0  0  0
  181.9710  176.3230  138.4770 N   0  0  0  0  0  2  0  0  0  0  0  0
  181.0900  177.1810  139.2610 C   0  0  2  0  0  3  0  0  0  0  0  0
  180.7920  178.3440  138.5490 O   0  0  0  0  0  1  0  0  0  0  0  0
  181.7310  177.5210  140.6020 C   0  0  0  0  0  2  0  0  0  0  0  0
  183.2550  177.6040  140.5260 C   0  0  0  0  0  2  0  0  0  0  0  0
  183.7360  179.0450  140.4520 C   0  0  0  0  0  2  0  0  0  0  0  0
  186.0720  178.7390  140.0280 O   0  0  0  0  0  1  0  0  0  0  0  0
  185.1550  179.1780  140.9860 C   0  0  0  0  0  2  0  0  0  0  0  0
  191.5290  177.1250  140.3660 C   0  0  0  0  0  3  0  0  0  0  0  0
  191.5970  177.5150  141.7040 C   0  0  0  0  0  3  0  0  0  0  0  0
  189.1820  177.3620  141.8740 C   0  0  0  0  0  0  0  0  0  0  0  0
  190.4280  177.6360  142.4680 C   0  0  0  0  0  0  0  0  0  0  0  0
  190.2870  176.8580  139.7720 C   0  0  0  0  0  0  0  0  0  0  0  0
  187.6810  177.4980  142.7790 Cl  0  0  0  0  0  0  0  0  0  0  0  0
  189.1210  176.9750  140.5330 C   0  0  0  0  0  3  0  0  0  0  0  0
  191.2230  179.3230  144.0080 N   0  0  0  0  0  1  0  0  0  0  0  0
  190.5150  178.0610  143.9010 C   0  0  2  0  0  3  0  0  0  0  0  0
  190.3700  176.8680  145.6810 O   0  0  0  0  0  1  0  0  0  0  0  0
  191.1700  177.0860  144.6580 O   0  0  0  0  0  0  0  0  0  0  0  0
  191.4740  176.7130  137.5800 C   0  0  0  0  0  2  0  0  0  0  0  0
  191.4980  175.9190  136.2840 C   0  0  0  0  0  2  0  0  0  0  0  0
  192.6410  174.9190  136.2950 C   0  0  0  0  0  2  0  0  0  0  0  0
  194.9220  174.8070  135.3860 N   0  0  0  0  0  2  0  0  0  0  0  0
  196.0010  174.2380  139.0560 C   0  0  2  0  0  3  0  0  0  0  0  0
  197.8710  175.1410  137.7580 O   0  0  0  0  0  0  0  0  0  0  0  0
  197.4570  176.1770  135.7440 O   0  0  0  0  0  0  0  0  0  0  0  0
  197.4940  174.1430  138.7090 C   0  0  0  0  0  2  0  0  0  0  0  0
  197.0640  175.3980  136.6530 C   0  0  0  0  0  0  0  0  0  0  0  0
  194.7660  175.6170  137.3950 N   0  0  1  0  0  0  0  0  0  0  0  0
  193.9940  175.6230  136.1530 C   0  0  2  0  0  3  0  0  0  0  0  0
  195.0690  174.2320  137.8190 C   0  0  1  0  0  3  0  0  0  0  0  0
  195.7000  174.7850  136.6150 C   0  0  1  0  0  0  0  0  0  0  0  0
  195.7630  175.3470  139.8710 O   0  0  0  0  0  1  0  0  0  0  0  0
  1 38  1  6  0  0  0
  1 31  1  0  0  0  0
  2  9  1  0  0  0  0
  3 11  1  6  0  0  0
  3  5  1  0  0  0  0
  3  4  1  0  0  0  0
  5  2  1  0  0  0  0
  5  4  1  1  0  0  0
  6  8  1  0  0  0  0
  6 10  1  0  0  0  0
  7  9  2  0  0  0  0
  8  3  1  0  0  0  0
  9  1  1  0  0  0  0
 10  2  1  0  0  0  0
 11 12  1  0  0  0  0
 13 15  1  0  0  0  0
 14 13  1  0  0  0  0
 14 17  1  0  0  0  0
 15 12  1  6  0  0  0
 15 16  1  0  0  0  0
 16 19  1  0  0  0  0
 17 18  1  0  0  0  0
 18 16  2  0  0  0  0
 19 20  1  0  0  0  0
 20 21  1  6  0  0  0
 20 22  1  0  0  0  0
 23 22  1  0  0  0  0
 24 23  1  0  0  0  0
 24 26  1  0  0  0  0
 25 26  1  0  0  0  0
 27 28  1  0  0  0  0
 28 30  2  0  0  0  0
 29 30  1  0  0  0  0
 29 32  1  0  0  0  0
 30 35  1  0  0  0  0
 31 27  2  0  0  0  0
 31 33  1  0  0  0  0
 33 29  2  0  0  0  0
 35 34  1  6  0  0  0
 35 37  1  0  0  0  0
 37 36  1  0  0  0  0
 39 40  1  0  0  0  0
 39 38  1  0  0  0  0
 41 48  1  0  0  0  0
 41 50  1  0  0  0  0
 42 51  1  6  0  0  0
 43 45  1  0  0  0  0
 44 46  2  0  0  0  0
 45 42  1  0  0  0  0
 46 43  1  0  0  0  0
 47 49  1  0  0  0  0
 48 40  1  0  0  0  0
 48 47  1  0  0  0  0
 49 42  1  0  0  0  0
 50 46  1  0  0  0  0
 50 47  1  0  0  0  0
 50 49  1  0  0  0  0
M  END
>  <MODEL>
9

>  <REMARK>
 VINA RESULT:      -6.9      3.061      9.519
  Name = 
  17 active torsions:
  status: ('A' for Active; 'I' for Inactive)
    1  A    between atoms: C_4  and  C_25
    2  A    between atoms: C_4  and  N_33
    3  A    between atoms: C_6  and  C_11
    4  A    between atoms: C_7  and  C_27
    5  A    between atoms: C_7  and  O_45
    6  A    between atoms: C_8  and  C_41
    7  A    between atoms: C_8  and  C_42
    8  A    between atoms: C_10  and  C_12
    9  A    between atoms: C_10  and  C_30
   10  A    between atoms: C_11  and  C_30
   11  A    between atoms: C_12  and  N_37
   12  A    between atoms: C_17  and  C_38
   13  A    between atoms: C_17  and  C_41
   14  A    between atoms: C_22  and  N_33
   15  A    between atoms: C_32  and  C_42
   16  A    between atoms: C_36  and  N_37
   17  A    between atoms: C_42  and  C_44
                            x       y       z     vdW  Elec       q    Type
                         _______ _______ _______ _____ _____    ______ ____

>  <TORSDO>
F 17

$$$$
