=
 OpenBabel10232410183D

 41 46  0  0  1  0  0  0  0  0999 V2000
  188.6470  176.9880  140.6530 C   0  0  2  0  0  3  0  0  0  0  0  0
  186.0850  179.0670  142.4340 C   0  0  0  0  0  3  0  0  0  0  0  0
  187.9000  177.4480  141.8660 C   0  0  0  0  0  0  0  0  0  0  0  0
  184.7190  178.5680  146.1920 C   0  0  0  0  0  3  0  0  0  0  0  0
  185.8930  177.9990  145.9190 C   0  0  0  0  0  3  0  0  0  0  0  0
  187.4410  177.0830  144.3260 C   0  0  0  0  0  3  0  0  0  0  0  0
  186.3060  177.7520  144.5290 C   0  0  0  0  0  0  0  0  0  0  0  0
  184.1010  178.7660  143.8310 C   0  0  0  0  0  3  0  0  0  0  0  0
  185.3990  178.1430  143.3840 C   0  0  1  0  0  3  0  0  0  0  0  0
  188.0370  176.7620  143.0130 C   0  0  0  0  0  3  0  0  0  0  0  0
  183.7950  178.9600  145.1170 C   0  0  0  0  0  3  0  0  0  0  0  0
  187.1720  178.7280  141.7450 C   0  0  0  0  0  3  0  0  0  0  0  0
  189.9310  176.5070  141.0280 O   0  0  0  0  0  0  0  0  0  0  0  0
  191.1130  177.0790  140.5530 C   0  0  0  0  0  0  0  0  0  0  0  0
  191.5410  176.8140  139.3960 O   0  0  0  0  0  0  0  0  0  0  0  0
  191.9010  177.9790  141.4400 C   0  0  0  0  0  2  0  0  0  0  0  0
  191.5550  177.7290  142.8680 C   0  0  0  0  0  0  0  0  0  0  0  0
  190.6650  178.5310  145.0500 C   0  0  0  0  0  2  0  0  0  0  0  0
  191.7160  176.3790  143.4290 C   0  0  0  0  0  3  0  0  0  0  0  0
  191.4860  176.1550  144.7210 C   0  0  0  0  0  3  0  0  0  0  0  0
  191.0660  177.2250  145.5850 N   0  0  0  0  0  0  0  0  0  0  0  0
  191.0920  178.7300  143.6210 C   0  0  0  0  0  3  0  0  0  0  0  0
  189.4480  176.7260  147.3620 C   0  0  0  0  0  1  0  0  0  0  0  0
  190.9010  177.0010  147.0170 C   0  0  0  0  0  3  0  0  0  0  0  0
  191.7790  175.8560  147.4870 C   0  0  0  0  0  1  0  0  0  0  0  0
  188.8060  178.3210  139.4110 S   0  0  0  0  0  0  0  0  0  0  0  0
  188.6480  175.6640  136.3140 C   0  0  0  0  0  3  0  0  0  0  0  0
  182.3710  178.2180  137.3410 C   0  0  0  0  0  0  0  0  0  0  0  0
  182.0590  177.5160  136.0640 C   0  0  0  0  0  3  0  0  0  0  0  0
  183.4150  176.9180  135.6170 C   0  0  0  0  0  3  0  0  0  0  0  0
  184.4320  178.5090  138.6980 C   0  0  0  0  0  3  0  0  0  0  0  0
  185.8750  178.2140  138.7920 C   0  0  0  0  0  3  0  0  0  0  0  0
  183.7680  178.0710  137.6380 C   0  0  0  0  0  0  0  0  0  0  0  0
  188.0250  177.3580  138.1010 C   0  0  0  0  0  0  0  0  0  0  0  0
  184.3940  177.3190  136.6270 N   0  0  0  0  0  0  0  0  0  0  0  0
  188.8690  176.5740  137.4350 C   0  0  0  0  0  3  0  0  0  0  0  0
  186.5550  177.4830  137.8800 C   0  0  0  0  0  0  0  0  0  0  0  0
  181.5340  178.8320  138.0530 O   0  0  0  0  0  0  0  0  0  0  0  0
  186.2310  176.0850  135.7930 C   0  0  0  0  0  3  0  0  0  0  0  0
  185.7780  176.9340  136.7170 C   0  0  0  0  0  0  0  0  0  0  0  0
  187.5400  175.4630  135.6220 C   0  0  0  0  0  3  0  0  0  0  0  0
  1 26  1  6  0  0  0
  1 13  1  0  0  0  0
  1  3  1  0  0  0  0
  3 10  2  0  0  0  0
  5  4  2  0  0  0  0
  6  7  2  0  0  0  0
  7  5  1  0  0  0  0
  8 11  2  0  0  0  0
  9  2  1  6  0  0  0
  9  8  1  0  0  0  0
  9  7  1  0  0  0  0
 10  6  1  0  0  0  0
 11  4  1  0  0  0  0
 12  3  1  0  0  0  0
 12  2  2  0  0  0  0
 14 13  1  0  0  0  0
 14 16  1  0  0  0  0
 15 14  2  0  0  0  0
 16 17  1  0  0  0  0
 17 19  1  0  0  0  0
 17 22  2  0  0  0  0
 18 21  1  0  0  0  0
 19 20  2  0  0  0  0
 20 21  1  0  0  0  0
 21 24  1  0  0  0  0
 22 18  1  0  0  0  0
 24 23  1  0  0  0  0
 24 25  1  0  0  0  0
 27 36  1  0  0  0  0
 28 33  1  0  0  0  0
 28 38  2  0  0  0  0
 29 28  1  0  0  0  0
 30 29  2  0  0  0  0
 30 35  1  0  0  0  0
 31 32  1  0  0  0  0
 33 31  2  0  0  0  0
 34 26  1  0  0  0  0
 35 40  1  0  0  0  0
 35 33  1  0  0  0  0
 36 34  2  0  0  0  0
 37 34  1  0  0  0  0
 37 32  2  0  0  0  0
 39 40  2  0  0  0  0
 40 37  1  0  0  0  0
 41 39  1  0  0  0  0
 41 27  2  0  0  0  0
M  END
>  <MODEL>
1

>  <REMARK>
 VINA RESULT:      -9.9      0.000      0.000
  Name = 
  8 active torsions:
  status: ('A' for Active; 'I' for Inactive)
    1  A    between atoms: C_1  and  C_9
    2  A    between atoms: C_1  and  O_18
    3  A    between atoms: C_3  and  C_9
    4  A    between atoms: C_4  and  C_19
    5  A    between atoms: O_18  and  C_19
    6  A    between atoms: C_19  and  S_33
    7  A    between atoms: C_21  and  S_33
    8  A    between atoms: C_22  and  N_38
                            x       y       z     vdW  Elec       q    Type
                         _______ _______ _______ _____ _____    ______ ____

>  <TORSDO>
F 8

$$$$
=
 OpenBabel10232410183D

 41 46  0  0  1  0  0  0  0  0999 V2000
  188.8430  177.5180  140.8070 C   0  0  2  0  0  3  0  0  0  0  0  0
  186.8370  177.1190  143.9510 C   0  0  0  0  0  3  0  0  0  0  0  0
  187.6210  177.7020  141.6520 C   0  0  0  0  0  0  0  0  0  0  0  0
  183.4270  179.0280  144.9280 C   0  0  0  0  0  3  0  0  0  0  0  0
  183.7300  179.0050  143.6310 C   0  0  0  0  0  2  0  0  0  0  0  0
  185.3620  178.8160  141.8780 C   0  0  0  0  0  3  0  0  0  0  0  0
  185.1000  178.7180  143.1810 C   0  0  0  0  0  0  0  0  0  0  0  0
  185.7170  178.5090  145.6200 C   0  0  0  0  0  3  0  0  0  0  0  0
  186.1910  178.4420  144.1920 C   0  0  0  0  0  0  0  0  0  0  0  0
  186.6600  178.5420  141.2290 C   0  0  0  0  0  3  0  0  0  0  0  0
  184.4510  178.7760  145.9530 C   0  0  0  0  0  3  0  0  0  0  0  0
  187.4960  176.8240  142.8320 C   0  0  0  0  0  3  0  0  0  0  0  0
  189.9990  177.9160  141.5330 O   0  0  0  0  0  0  0  0  0  0  0  0
  190.8870  176.9950  142.0910 C   0  0  0  0  0  0  0  0  0  0  0  0
  190.8530  175.7790  141.7590 O   0  0  0  0  0  0  0  0  0  0  0  0
  191.8590  177.4470  143.1250 C   0  0  0  0  0  2  0  0  0  0  0  0
  191.2210  177.4400  144.4720 C   0  0  0  0  0  0  0  0  0  0  0  0
  191.1060  176.5830  146.8070 C   0  0  0  0  0  2  0  0  0  0  0  0
  190.1190  178.3700  144.7590 C   0  0  0  0  0  3  0  0  0  0  0  0
  189.4870  178.3250  145.9290 C   0  0  0  0  0  3  0  0  0  0  0  0
  189.8780  177.3750  146.9350 N   0  0  0  0  0  0  0  0  0  0  0  0
  191.6640  176.5970  145.4090 C   0  0  0  0  0  3  0  0  0  0  0  0
  189.0660  178.5990  148.9010 C   0  0  0  0  0  1  0  0  0  0  0  0
  189.1290  177.2630  148.1810 C   0  0  0  0  0  3  0  0  0  0  0  0
  187.7280  176.7400  147.9220 C   0  0  0  0  0  1  0  0  0  0  0  0
  188.7270  178.4500  139.2380 S   0  0  0  0  0  0  0  0  0  0  0  0
  187.2370  175.4220  136.9390 C   0  0  0  0  0  3  0  0  0  0  0  0
  194.0270  174.6480  137.4610 C   0  0  0  0  0  0  0  0  0  0  0  0
  193.7580  173.3320  136.8150 C   0  0  0  0  0  3  0  0  0  0  0  0
  192.2170  173.2820  136.6790 C   0  0  0  0  0  3  0  0  0  0  0  0
  192.5940  176.5320  138.2130 C   0  0  0  0  0  3  0  0  0  0  0  0
  191.2100  177.0280  138.3420 C   0  0  0  0  0  3  0  0  0  0  0  0
  192.7840  175.3260  137.6980 C   0  0  0  0  0  0  0  0  0  0  0  0
  188.7990  176.9680  138.2120 C   0  0  0  0  0  0  0  0  0  0  0  0
  191.7130  174.5300  137.2550 N   0  0  0  0  0  0  0  0  0  0  0  0
  187.6110  176.5630  137.7690 C   0  0  0  0  0  3  0  0  0  0  0  0
  190.1220  176.3420  137.9240 C   0  0  0  0  0  0  0  0  0  0  0  0
  195.1700  175.0980  137.7390 O   0  0  0  0  0  0  0  0  0  0  0  0
  189.4360  174.2410  136.6870 C   0  0  0  0  0  3  0  0  0  0  0  0
  190.3550  175.0040  137.2810 C   0  0  0  0  0  0  0  0  0  0  0  0
  188.0040  174.4440  136.4880 C   0  0  0  0  0  3  0  0  0  0  0  0
  1 26  1  6  0  0  0
  1 13  1  0  0  0  0
  1  3  1  0  0  0  0
  2  9  1  0  0  0  0
  3 12  1  0  0  0  0
  4 11  2  0  0  0  0
  5  4  1  0  0  0  0
  6  7  2  0  0  0  0
  7  5  1  0  0  0  0
  7  9  1  0  0  0  0
  8 11  1  0  0  0  0
  9  8  2  0  0  0  0
 10  3  2  0  0  0  0
 10  6  1  0  0  0  0
 12  2  2  0  0  0  0
 13 14  1  0  0  0  0
 14 16  1  0  0  0  0
 15 14  2  0  0  0  0
 16 17  1  0  0  0  0
 17 19  1  0  0  0  0
 17 22  2  0  0  0  0
 18 21  1  0  0  0  0
 19 20  2  0  0  0  0
 20 21  1  0  0  0  0
 21 24  1  0  0  0  0
 22 18  1  0  0  0  0
 24 23  1  0  0  0  0
 25 24  1  0  0  0  0
 27 36  1  0  0  0  0
 28 33  1  0  0  0  0
 28 38  2  0  0  0  0
 29 28  1  0  0  0  0
 30 29  2  0  0  0  0
 30 35  1  0  0  0  0
 31 32  1  0  0  0  0
 33 31  2  0  0  0  0
 34 26  1  0  0  0  0
 35 40  1  0  0  0  0
 35 33  1  0  0  0  0
 36 34  2  0  0  0  0
 37 34  1  0  0  0  0
 37 32  2  0  0  0  0
 39 40  2  0  0  0  0
 40 37  1  0  0  0  0
 41 39  1  0  0  0  0
 41 27  2  0  0  0  0
M  END
>  <MODEL>
2

>  <REMARK>
 VINA RESULT:      -9.7      2.731      5.062
  Name = 
  8 active torsions:
  status: ('A' for Active; 'I' for Inactive)
    1  A    between atoms: C_1  and  C_9
    2  A    between atoms: C_1  and  O_18
    3  A    between atoms: C_3  and  C_9
    4  A    between atoms: C_4  and  C_19
    5  A    between atoms: O_18  and  C_19
    6  A    between atoms: C_19  and  S_33
    7  A    between atoms: C_21  and  S_33
    8  A    between atoms: C_22  and  N_38
                            x       y       z     vdW  Elec       q    Type
                         _______ _______ _______ _____ _____    ______ ____

>  <TORSDO>
F 8

$$$$
=
 OpenBabel10232410183D

 41 46  0  0  1  0  0  0  0  0999 V2000
  188.4820  177.4690  139.9790 C   0  0  2  0  0  3  0  0  0  0  0  0
  185.7200  179.1980  141.8340 C   0  0  0  0  0  3  0  0  0  0  0  0
  187.7320  177.8540  141.2160 C   0  0  0  0  0  0  0  0  0  0  0  0
  184.6260  178.6290  145.6700 C   0  0  0  0  0  3  0  0  0  0  0  0
  185.8580  178.2350  145.3510 C   0  0  0  0  0  3  0  0  0  0  0  0
  187.4510  177.5090  143.7050 C   0  0  0  0  0  3  0  0  0  0  0  0
  186.2380  178.0050  143.9490 C   0  0  0  0  0  0  0  0  0  0  0  0
  183.8740  178.6500  143.3400 C   0  0  0  0  0  3  0  0  0  0  0  0
  185.2280  178.2150  142.8430 C   0  0  1  0  0  3  0  0  0  0  0  0
  188.0260  177.2360  142.3730 C   0  0  0  0  0  3  0  0  0  0  0  0
  183.6030  178.8400  144.6340 C   0  0  0  0  0  3  0  0  0  0  0  0
  186.8120  179.0030  141.0990 C   0  0  0  0  0  3  0  0  0  0  0  0
  189.8280  177.9180  140.0690 O   0  0  0  0  0  0  0  0  0  0  0  0
  190.8920  177.0480  140.3160 C   0  0  0  0  0  0  0  0  0  0  0  0
  190.8940  175.8770  139.8490 O   0  0  0  0  0  0  0  0  0  0  0  0
  192.0200  177.4970  141.1800 C   0  0  0  0  0  2  0  0  0  0  0  0
  191.6340  177.4150  142.6180 C   0  0  0  0  0  0  0  0  0  0  0  0
  190.9170  178.5180  144.7310 C   0  0  0  0  0  2  0  0  0  0  0  0
  191.5350  176.1000  143.2690 C   0  0  0  0  0  3  0  0  0  0  0  0
  191.2680  176.0120  144.5690 C   0  0  0  0  0  3  0  0  0  0  0  0
  191.0610  177.1980  145.3560 N   0  0  0  0  0  0  0  0  0  0  0  0
  191.3720  178.5350  143.2960 C   0  0  0  0  0  3  0  0  0  0  0  0
  189.4040  176.8150  147.1250 C   0  0  0  0  0  1  0  0  0  0  0  0
  190.8580  177.1070  146.7970 C   0  0  0  0  0  3  0  0  0  0  0  0
  191.7570  176.0440  147.4010 C   0  0  0  0  0  1  0  0  0  0  0  0
  187.6900  178.1390  138.4730 S   0  0  0  0  0  0  0  0  0  0  0  0
  185.9890  174.6600  137.1760 C   0  0  0  0  0  3  0  0  0  0  0  0
  192.5840  174.7100  135.3110 C   0  0  0  0  0  0  0  0  0  0  0  0
  192.3160  173.2920  134.9410 C   0  0  0  0  0  3  0  0  0  0  0  0
  190.8490  173.0570  135.3700 C   0  0  0  0  0  3  0  0  0  0  0  0
  191.2220  176.5200  136.3320 C   0  0  0  0  0  3  0  0  0  0  0  0
  189.9060  176.8770  136.8960 C   0  0  0  0  0  3  0  0  0  0  0  0
  191.4080  175.2780  135.9080 C   0  0  0  0  0  0  0  0  0  0  0  0
  187.6350  176.5380  137.6440 C   0  0  0  0  0  0  0  0  0  0  0  0
  190.3860  174.3140  135.9590 N   0  0  0  0  0  0  0  0  0  0  0  0
  186.4440  175.9460  137.6990 C   0  0  0  0  0  3  0  0  0  0  0  0
  188.8600  176.0230  136.9670 C   0  0  0  0  0  0  0  0  0  0  0  0
  193.6700  175.3170  135.1150 O   0  0  0  0  0  0  0  0  0  0  0  0
  188.1240  173.7000  136.2750 C   0  0  0  0  0  3  0  0  0  0  0  0
  189.0620  174.6370  136.4210 C   0  0  0  0  0  0  0  0  0  0  0  0
  186.6970  173.7150  136.5820 C   0  0  0  0  0  3  0  0  0  0  0  0
  1 26  1  6  0  0  0
  1 13  1  0  0  0  0
  1  3  1  0  0  0  0
  3 10  2  0  0  0  0
  5  4  2  0  0  0  0
  6  7  2  0  0  0  0
  7  5  1  0  0  0  0
  8 11  2  0  0  0  0
  9  2  1  6  0  0  0
  9  8  1  0  0  0  0
  9  7  1  0  0  0  0
 10  6  1  0  0  0  0
 11  4  1  0  0  0  0
 12  3  1  0  0  0  0
 12  2  2  0  0  0  0
 13 14  1  0  0  0  0
 14 16  1  0  0  0  0
 15 14  2  0  0  0  0
 16 17  1  0  0  0  0
 17 19  1  0  0  0  0
 17 22  2  0  0  0  0
 18 21  1  0  0  0  0
 19 20  2  0  0  0  0
 20 21  1  0  0  0  0
 21 24  1  0  0  0  0
 22 18  1  0  0  0  0
 24 23  1  0  0  0  0
 24 25  1  0  0  0  0
 27 36  1  0  0  0  0
 28 33  1  0  0  0  0
 29 28  1  0  0  0  0
 29 30  2  0  0  0  0
 30 35  1  0  0  0  0
 31 32  1  0  0  0  0
 32 37  2  0  0  0  0
 33 35  1  0  0  0  0
 33 31  2  0  0  0  0
 34 36  2  0  0  0  0
 34 26  1  0  0  0  0
 35 40  1  0  0  0  0
 37 34  1  0  0  0  0
 38 28  2  0  0  0  0
 39 40  2  0  0  0  0
 39 41  1  0  0  0  0
 40 37  1  0  0  0  0
 41 27  2  0  0  0  0
M  END
>  <MODEL>
3

>  <REMARK>
 VINA RESULT:      -9.3      2.402      4.259
  Name = 
  8 active torsions:
  status: ('A' for Active; 'I' for Inactive)
    1  A    between atoms: C_1  and  C_9
    2  A    between atoms: C_1  and  O_18
    3  A    between atoms: C_3  and  C_9
    4  A    between atoms: C_4  and  C_19
    5  A    between atoms: O_18  and  C_19
    6  A    between atoms: C_19  and  S_33
    7  A    between atoms: C_21  and  S_33
    8  A    between atoms: C_22  and  N_38
                            x       y       z     vdW  Elec       q    Type
                         _______ _______ _______ _____ _____    ______ ____

>  <TORSDO>
F 8

$$$$
=
 OpenBabel10232410183D

 41 46  0  0  1  0  0  0  0  0999 V2000
  188.7660  177.6260  140.8500 C   0  0  2  0  0  3  0  0  0  0  0  0
  186.8650  177.0990  144.0390 C   0  0  0  0  0  3  0  0  0  0  0  0
  187.5690  177.7690  141.7390 C   0  0  0  0  0  0  0  0  0  0  0  0
  183.4690  178.9390  145.1890 C   0  0  0  0  0  3  0  0  0  0  0  0
  183.7310  178.9640  143.8830 C   0  0  0  0  0  2  0  0  0  0  0  0
  185.3090  178.8510  142.0740 C   0  0  0  0  0  3  0  0  0  0  0  0
  185.0890  178.7060  143.3810 C   0  0  0  0  0  0  0  0  0  0  0  0
  185.7850  178.4190  145.7910 C   0  0  0  0  0  3  0  0  0  0  0  0
  186.2140  178.4060  144.3460 C   0  0  0  0  0  0  0  0  0  0  0  0
  186.5890  178.6130  141.3760 C   0  0  0  0  0  3  0  0  0  0  0  0
  184.5280  178.6610  146.1720 C   0  0  0  0  0  3  0  0  0  0  0  0
  187.4900  176.8490  142.8910 C   0  0  0  0  0  3  0  0  0  0  0  0
  189.9410  178.0060  141.5540 O   0  0  0  0  0  0  0  0  0  0  0  0
  190.8990  177.0790  141.9690 C   0  0  0  0  0  0  0  0  0  0  0  0
  190.9110  175.9070  141.5030 O   0  0  0  0  0  0  0  0  0  0  0  0
  191.8920  177.4660  143.0100 C   0  0  0  0  0  2  0  0  0  0  0  0
  191.2540  177.4720  144.3570 C   0  0  0  0  0  0  0  0  0  0  0  0
  191.0810  176.5770  146.6730 C   0  0  0  0  0  2  0  0  0  0  0  0
  190.2140  178.4660  144.6630 C   0  0  0  0  0  3  0  0  0  0  0  0
  189.5790  178.4380  145.8310 C   0  0  0  0  0  3  0  0  0  0  0  0
  189.9070  177.4440  146.8180 N   0  0  0  0  0  0  0  0  0  0  0  0
  191.6400  176.5840  145.2760 C   0  0  0  0  0  3  0  0  0  0  0  0
  188.4840  178.6810  148.3900 C   0  0  0  0  0  1  0  0  0  0  0  0
  189.1500  177.3560  148.0620 C   0  0  0  0  0  3  0  0  0  0  0  0
  188.1130  176.2520  147.9840 C   0  0  0  0  0  1  0  0  0  0  0  0
  188.5940  178.6150  139.3220 S   0  0  0  0  0  0  0  0  0  0  0  0
  189.8270  175.2050  137.4430 C   0  0  0  0  0  3  0  0  0  0  0  0
  183.3540  176.5090  135.6050 C   0  0  0  0  0  0  0  0  0  0  0  0
  183.5900  175.4150  134.6220 C   0  0  0  0  0  3  0  0  0  0  0  0
  185.0730  175.0250  134.8340 C   0  0  0  0  0  3  0  0  0  0  0  0
  184.7600  177.6260  137.3230 C   0  0  0  0  0  3  0  0  0  0  0  0
  186.1000  177.6940  137.9380 C   0  0  0  0  0  3  0  0  0  0  0  0
  184.5640  176.7640  136.3350 C   0  0  0  0  0  0  0  0  0  0  0  0
  188.4340  177.1660  138.2580 C   0  0  0  0  0  0  0  0  0  0  0  0
  185.5840  175.9070  135.8840 N   0  0  0  0  0  0  0  0  0  0  0  0
  189.5390  176.4270  138.1890 C   0  0  0  0  0  3  0  0  0  0  0  0
  187.1320  176.8960  137.5830 C   0  0  0  0  0  0  0  0  0  0  0  0
  182.2580  177.1050  135.7770 O   0  0  0  0  0  0  0  0  0  0  0  0
  187.7190  174.9170  136.1150 C   0  0  0  0  0  3  0  0  0  0  0  0
  186.8800  175.8770  136.5080 C   0  0  0  0  0  0  0  0  0  0  0  0
  189.0630  174.5740  136.5680 C   0  0  0  0  0  3  0  0  0  0  0  0
  1 26  1  6  0  0  0
  1 13  1  0  0  0  0
  1  3  1  0  0  0  0
  2  9  1  0  0  0  0
  3 12  1  0  0  0  0
  4 11  2  0  0  0  0
  5  4  1  0  0  0  0
  6  7  2  0  0  0  0
  7  5  1  0  0  0  0
  7  9  1  0  0  0  0
  8 11  1  0  0  0  0
  9  8  2  0  0  0  0
 10  3  2  0  0  0  0
 10  6  1  0  0  0  0
 12  2  2  0  0  0  0
 13 14  1  0  0  0  0
 14 16  1  0  0  0  0
 15 14  2  0  0  0  0
 16 17  1  0  0  0  0
 17 19  1  0  0  0  0
 17 22  2  0  0  0  0
 18 21  1  0  0  0  0
 19 20  2  0  0  0  0
 20 21  1  0  0  0  0
 21 24  1  0  0  0  0
 22 18  1  0  0  0  0
 24 23  1  0  0  0  0
 25 24  1  0  0  0  0
 27 36  1  0  0  0  0
 28 38  2  0  0  0  0
 28 33  1  0  0  0  0
 29 30  2  0  0  0  0
 29 28  1  0  0  0  0
 30 35  1  0  0  0  0
 31 32  1  0  0  0  0
 33 31  2  0  0  0  0
 34 26  1  0  0  0  0
 35 33  1  0  0  0  0
 35 40  1  0  0  0  0
 36 34  2  0  0  0  0
 37 32  2  0  0  0  0
 37 34  1  0  0  0  0
 39 40  2  0  0  0  0
 39 41  1  0  0  0  0
 40 37  1  0  0  0  0
 41 27  2  0  0  0  0
M  END
>  <MODEL>
4

>  <REMARK>
 VINA RESULT:      -9.2      1.199      2.170
  Name = 
  8 active torsions:
  status: ('A' for Active; 'I' for Inactive)
    1  A    between atoms: C_1  and  C_9
    2  A    between atoms: C_1  and  O_18
    3  A    between atoms: C_3  and  C_9
    4  A    between atoms: C_4  and  C_19
    5  A    between atoms: O_18  and  C_19
    6  A    between atoms: C_19  and  S_33
    7  A    between atoms: C_21  and  S_33
    8  A    between atoms: C_22  and  N_38
                            x       y       z     vdW  Elec       q    Type
                         _______ _______ _______ _____ _____    ______ ____

>  <TORSDO>
F 8

$$$$
=
 OpenBabel10232410183D

 41 46  0  0  1  0  0  0  0  0999 V2000
  188.6460  177.6330  140.3990 C   0  0  2  0  0  3  0  0  0  0  0  0
  185.4780  179.2750  141.5530 C   0  0  0  0  0  3  0  0  0  0  0  0
  187.6330  178.0170  141.4320 C   0  0  0  0  0  0  0  0  0  0  0  0
  183.6170  178.7720  145.0920 C   0  0  0  0  0  3  0  0  0  0  0  0
  184.9050  178.4330  145.0580 C   0  0  0  0  0  3  0  0  0  0  0  0
  186.8430  177.7380  143.8180 C   0  0  0  0  0  3  0  0  0  0  0  0
  185.5850  178.1780  143.7790 C   0  0  0  0  0  0  0  0  0  0  0  0
  183.3800  178.6790  142.6560 C   0  0  0  0  0  3  0  0  0  0  0  0
  184.8270  178.3000  142.4760 C   0  0  1  0  0  3  0  0  0  0  0  0
  187.7000  177.4530  142.6500 C   0  0  0  0  0  3  0  0  0  0  0  0
  182.8300  178.8960  143.8550 C   0  0  0  0  0  3  0  0  0  0  0  0
  186.7100  179.1140  141.0750 C   0  0  0  0  0  3  0  0  0  0  0  0
  189.9480  178.0040  140.8340 O   0  0  0  0  0  0  0  0  0  0  0  0
  190.8850  177.0680  141.2740 C   0  0  0  0  0  0  0  0  0  0  0  0
  190.8630  175.8800  140.8500 O   0  0  0  0  0  0  0  0  0  0  0  0
  191.8980  177.4660  142.2910 C   0  0  0  0  0  2  0  0  0  0  0  0
  191.3160  177.3830  143.6610 C   0  0  0  0  0  0  0  0  0  0  0  0
  191.0120  176.1660  145.8110 C   0  0  0  0  0  2  0  0  0  0  0  0
  190.5370  178.5120  144.1890 C   0  0  0  0  0  3  0  0  0  0  0  0
  189.9450  178.4250  145.3770 C   0  0  0  0  0  3  0  0  0  0  0  0
  190.0680  177.2300  146.1690 N   0  0  0  0  0  0  0  0  0  0  0  0
  191.5180  176.2880  144.3990 C   0  0  0  0  0  3  0  0  0  0  0  0
  189.9000  178.0500  148.4760 C   0  0  0  0  0  1  0  0  0  0  0  0
  189.3470  177.0990  147.4300 C   0  0  0  0  0  3  0  0  0  0  0  0
  187.8630  177.3430  147.2290 C   0  0  0  0  0  1  0  0  0  0  0  0
  188.2790  178.3950  138.7770 S   0  0  0  0  0  0  0  0  0  0  0  0
  189.5540  174.8170  137.2780 C   0  0  0  0  0  3  0  0  0  0  0  0
  182.9030  175.5730  135.8030 C   0  0  0  0  0  0  0  0  0  0  0  0
  183.1260  174.3650  134.9580 C   0  0  0  0  0  3  0  0  0  0  0  0
  184.6380  174.0730  135.1020 C   0  0  0  0  0  3  0  0  0  0  0  0
  184.3680  176.9750  137.2390 C   0  0  0  0  0  3  0  0  0  0  0  0
  185.7430  177.1840  137.7310 C   0  0  0  0  0  3  0  0  0  0  0  0
  184.1470  175.9780  136.3940 C   0  0  0  0  0  0  0  0  0  0  0  0
  188.1200  176.8080  137.9330 C   0  0  0  0  0  0  0  0  0  0  0  0
  185.1760  175.1120  135.9810 N   0  0  0  0  0  0  0  0  0  0  0  0
  189.2550  176.1150  137.8750 C   0  0  0  0  0  3  0  0  0  0  0  0
  186.7890  176.3920  137.4050 C   0  0  0  0  0  0  0  0  0  0  0  0
  181.7920  176.1380  135.9800 O   0  0  0  0  0  0  0  0  0  0  0  0
  187.3730  174.2580  136.1720 C   0  0  0  0  0  3  0  0  0  0  0  0
  186.5140  175.2250  136.4990 C   0  0  0  0  0  0  0  0  0  0  0  0
  188.7630  174.0390  136.5590 C   0  0  0  0  0  3  0  0  0  0  0  0
  1 26  1  6  0  0  0
  1 13  1  0  0  0  0
  1  3  1  0  0  0  0
  3 10  2  0  0  0  0
  5  4  2  0  0  0  0
  7  6  2  0  0  0  0
  7  5  1  0  0  0  0
  8 11  2  0  0  0  0
  9  2  1  6  0  0  0
  9  8  1  0  0  0  0
  9  7  1  0  0  0  0
 10  6  1  0  0  0  0
 11  4  1  0  0  0  0
 12  3  1  0  0  0  0
 12  2  2  0  0  0  0
 13 14  1  0  0  0  0
 14 16  1  0  0  0  0
 15 14  2  0  0  0  0
 16 17  1  0  0  0  0
 17 19  1  0  0  0  0
 17 22  2  0  0  0  0
 18 21  1  0  0  0  0
 19 20  2  0  0  0  0
 20 21  1  0  0  0  0
 21 24  1  0  0  0  0
 22 18  1  0  0  0  0
 24 23  1  0  0  0  0
 25 24  1  0  0  0  0
 27 36  1  0  0  0  0
 28 38  2  0  0  0  0
 28 33  1  0  0  0  0
 29 30  2  0  0  0  0
 29 28  1  0  0  0  0
 30 35  1  0  0  0  0
 31 32  1  0  0  0  0
 33 31  2  0  0  0  0
 34 26  1  0  0  0  0
 35 33  1  0  0  0  0
 35 40  1  0  0  0  0
 36 34  2  0  0  0  0
 37 32  2  0  0  0  0
 37 34  1  0  0  0  0
 39 40  2  0  0  0  0
 39 41  1  0  0  0  0
 40 37  1  0  0  0  0
 41 27  2  0  0  0  0
M  END
>  <MODEL>
5

>  <REMARK>
 VINA RESULT:      -8.8      1.364      1.955
  Name = 
  8 active torsions:
  status: ('A' for Active; 'I' for Inactive)
    1  A    between atoms: C_1  and  C_9
    2  A    between atoms: C_1  and  O_18
    3  A    between atoms: C_3  and  C_9
    4  A    between atoms: C_4  and  C_19
    5  A    between atoms: O_18  and  C_19
    6  A    between atoms: C_19  and  S_33
    7  A    between atoms: C_21  and  S_33
    8  A    between atoms: C_22  and  N_38
                            x       y       z     vdW  Elec       q    Type
                         _______ _______ _______ _____ _____    ______ ____

>  <TORSDO>
F 8

$$$$
=
 OpenBabel10232410183D

 41 46  0  0  1  0  0  0  0  0999 V2000
  189.0750  177.0030  140.9420 C   0  0  2  0  0  3  0  0  0  0  0  0
  189.6560  178.3330  144.4010 C   0  0  0  0  0  3  0  0  0  0  0  0
  189.7320  177.0030  142.2880 C   0  0  0  0  0  0  0  0  0  0  0  0
  191.6230  176.5210  147.4140 C   0  0  0  0  0  3  0  0  0  0  0  0
  191.8930  176.0720  146.1890 C   0  0  0  0  0  3  0  0  0  0  0  0
  191.2510  175.7740  143.8930 C   0  0  0  0  0  3  0  0  0  0  0  0
  190.9800  176.3410  145.0680 C   0  0  0  0  0  0  0  0  0  0  0  0
  189.5250  177.5770  146.7210 C   0  0  0  0  0  3  0  0  0  0  0  0
  189.7140  177.1380  145.2920 C   0  0  1  0  0  3  0  0  0  0  0  0
  190.4760  175.9430  142.6470 C   0  0  0  0  0  3  0  0  0  0  0  0
  190.4020  177.2940  147.6890 C   0  0  0  0  0  3  0  0  0  0  0  0
  189.6290  178.2500  143.0720 C   0  0  0  0  0  3  0  0  0  0  0  0
  189.8630  176.2660  140.0170 O   0  0  0  0  0  0  0  0  0  0  0  0
  190.8120  176.8730  139.1920 C   0  0  0  0  0  0  0  0  0  0  0  0
  191.8430  177.4130  139.6770 O   0  0  0  0  0  0  0  0  0  0  0  0
  190.5790  176.9220  137.7210 C   0  0  0  0  0  2  0  0  0  0  0  0
  189.8260  175.7150  137.2760 C   0  0  0  0  0  0  0  0  0  0  0  0
  187.7680  174.6730  136.3400 C   0  0  0  0  0  2  0  0  0  0  0  0
  190.4870  174.4010  137.2870 C   0  0  0  0  0  3  0  0  0  0  0  0
  189.8070  173.3030  136.9670 C   0  0  0  0  0  3  0  0  0  0  0  0
  188.4210  173.3840  136.5950 N   0  0  0  0  0  0  0  0  0  0  0  0
  188.5630  175.8400  136.8600 C   0  0  0  0  0  3  0  0  0  0  0  0
  186.1940  172.5010  136.0620 C   0  0  0  0  0  1  0  0  0  0  0  0
  187.6520  172.1730  136.3320 C   0  0  0  0  0  3  0  0  0  0  0  0
  188.2410  171.4030  135.1650 C   0  0  0  0  0  1  0  0  0  0  0  0
  188.7980  178.7030  140.3270 S   0  0  0  0  0  0  0  0  0  0  0  0
  185.5760  177.8410  137.9700 C   0  0  0  0  0  3  0  0  0  0  0  0
  183.3780  179.0000  144.3570 C   0  0  0  0  0  0  0  0  0  0  0  0
  182.0310  178.9640  143.7210 C   0  0  0  0  0  3  0  0  0  0  0  0
  182.3270  178.7820  142.2130 C   0  0  0  0  0  3  0  0  0  0  0  0
  185.7020  178.8000  143.5030 C   0  0  0  0  0  3  0  0  0  0  0  0
  186.5440  178.6310  142.3020 C   0  0  0  0  0  3  0  0  0  0  0  0
  184.3880  178.8590  143.3470 C   0  0  0  0  0  0  0  0  0  0  0  0
  187.0570  178.4130  139.9530 C   0  0  0  0  0  0  0  0  0  0  0  0
  183.7840  178.7420  142.0810 N   0  0  0  0  0  0  0  0  0  0  0  0
  186.8240  178.1230  138.6750 C   0  0  0  0  0  3  0  0  0  0  0  0
  186.0510  178.4900  141.0510 C   0  0  0  0  0  0  0  0  0  0  0  0
  183.5920  179.1190  145.5920 O   0  0  0  0  0  0  0  0  0  0  0  0
  183.8790  178.2330  139.7750 C   0  0  0  0  0  3  0  0  0  0  0  0
  184.5560  178.4920  140.8940 C   0  0  0  0  0  0  0  0  0  0  0  0
  184.3380  177.8920  138.4320 C   0  0  0  0  0  3  0  0  0  0  0  0
  1 13  1  6  0  0  0
  1  3  1  0  0  0  0
  3 10  2  0  0  0  0
  3 12  1  0  0  0  0
  4 11  1  0  0  0  0
  5  4  2  0  0  0  0
  6  7  2  0  0  0  0
  7  9  1  0  0  0  0
  7  5  1  0  0  0  0
  8 11  2  0  0  0  0
  9  2  1  6  0  0  0
  9  8  1  0  0  0  0
 10  6  1  0  0  0  0
 12  2  2  0  0  0  0
 14 15  2  0  0  0  0
 14 13  1  0  0  0  0
 16 14  1  0  0  0  0
 17 19  1  0  0  0  0
 17 16  1  0  0  0  0
 18 21  1  0  0  0  0
 18 22  1  0  0  0  0
 20 19  2  0  0  0  0
 21 20  1  0  0  0  0
 22 17  2  0  0  0  0
 23 24  1  0  0  0  0
 24 21  1  0  0  0  0
 25 24  1  0  0  0  0
 26  1  1  0  0  0  0
 27 41  2  0  0  0  0
 27 36  1  0  0  0  0
 28 38  2  0  0  0  0
 29 28  1  0  0  0  0
 30 29  2  0  0  0  0
 32 31  1  0  0  0  0
 33 31  2  0  0  0  0
 33 28  1  0  0  0  0
 34 26  1  0  0  0  0
 34 37  1  0  0  0  0
 35 30  1  0  0  0  0
 35 33  1  0  0  0  0
 36 34  2  0  0  0  0
 37 32  2  0  0  0  0
 39 40  2  0  0  0  0
 40 37  1  0  0  0  0
 40 35  1  0  0  0  0
 41 39  1  0  0  0  0
M  END
>  <MODEL>
6

>  <REMARK>
 VINA RESULT:      -8.8      2.488      6.338
  Name = 
  8 active torsions:
  status: ('A' for Active; 'I' for Inactive)
    1  A    between atoms: C_1  and  C_9
    2  A    between atoms: C_1  and  O_18
    3  A    between atoms: C_3  and  C_9
    4  A    between atoms: C_4  and  C_19
    5  A    between atoms: O_18  and  C_19
    6  A    between atoms: C_19  and  S_33
    7  A    between atoms: C_21  and  S_33
    8  A    between atoms: C_22  and  N_38
                            x       y       z     vdW  Elec       q    Type
                         _______ _______ _______ _____ _____    ______ ____

>  <TORSDO>
F 8

$$$$
=
 OpenBabel10232410183D

 41 46  0  0  1  0  0  0  0  0999 V2000
  183.3880  178.1240  140.8490 C   0  0  2  0  0  3  0  0  0  0  0  0
  181.9510  175.4780  138.6140 C   0  0  0  0  0  3  0  0  0  0  0  0
  183.2750  177.3730  139.5580 C   0  0  0  0  0  0  0  0  0  0  0  0
  182.3950  175.1490  134.6220 C   0  0  0  0  0  3  0  0  0  0  0  0
  183.3060  175.8910  135.2500 C   0  0  0  0  0  3  0  0  0  0  0  0
  183.9530  177.2470  137.1260 C   0  0  0  0  0  3  0  0  0  0  0  0
  183.0480  176.4240  136.5970 C   0  0  0  0  0  0  0  0  0  0  0  0
  180.7930  175.2950  136.4690 C   0  0  0  0  0  3  0  0  0  0  0  0
  181.7360  176.1350  137.2910 C   0  0  0  0  0  0  0  0  0  0  0  0
  183.8900  177.8610  138.4680 C   0  0  0  0  0  3  0  0  0  0  0  0
  181.0990  174.8450  135.2490 C   0  0  0  0  0  3  0  0  0  0  0  0
  182.6060  176.0580  139.6170 C   0  0  0  0  0  2  0  0  0  0  0  0
  182.4330  179.1770  140.8840 O   0  0  0  0  0  0  0  0  0  0  0  0
  181.0710  178.9460  141.0820 C   0  0  0  0  0  0  0  0  0  0  0  0
  180.5850  178.8970  142.2450 O   0  0  0  0  0  0  0  0  0  0  0  0
  180.1880  178.7100  139.9060 C   0  0  0  0  0  2  0  0  0  0  0  0
  180.2870  179.8480  138.9490 C   0  0  0  0  0  0  0  0  0  0  0  0
  180.2040  182.2910  138.4760 C   0  0  0  0  0  2  0  0  0  0  0  0
  180.6490  179.5890  137.5470 C   0  0  0  0  0  3  0  0  0  0  0  0
  180.6660  180.5820  136.6620 C   0  0  0  0  0  3  0  0  0  0  0  0
  180.3450  181.9250  137.0630 N   0  0  0  0  0  0  0  0  0  0  0  0
  180.0590  181.0930  139.3760 C   0  0  0  0  0  3  0  0  0  0  0  0
  181.1030  184.1930  136.5130 C   0  0  0  0  0  1  0  0  0  0  0  0
  180.2750  182.9970  136.0760 C   0  0  0  0  0  3  0  0  0  0  0  0
  180.7360  182.5080  134.7160 C   0  0  0  0  0  1  0  0  0  0  0  0
  185.0740  178.7880  141.0990 S   0  0  0  0  0  0  0  0  0  0  0  0
  183.3980  178.7890  144.8220 C   0  0  0  0  0  3  0  0  0  0  0  0
  189.9770  176.9460  145.3740 C   0  0  0  0  0  0  0  0  0  0  0  0
  189.7200  177.0910  146.8350 C   0  0  0  0  0  3  0  0  0  0  0  0
  188.2590  177.5910  146.9170 C   0  0  0  0  0  3  0  0  0  0  0  0
  188.6050  177.2970  143.3320 C   0  0  0  0  0  3  0  0  0  0  0  0
  187.2890  177.7180  142.8120 C   0  0  0  0  0  3  0  0  0  0  0  0
  188.8000  177.3240  144.6430 C   0  0  0  0  0  0  0  0  0  0  0  0
  185.0280  178.5620  142.8880 C   0  0  0  0  0  0  0  0  0  0  0  0
  187.7880  177.7160  145.5380 N   0  0  0  0  0  0  0  0  0  0  0  0
  183.8440  178.8300  143.4320 C   0  0  0  0  0  3  0  0  0  0  0  0
  186.2530  178.0900  143.5960 C   0  0  0  0  0  0  0  0  0  0  0  0
  191.0550  176.5420  144.8640 O   0  0  0  0  0  0  0  0  0  0  0  0
  185.5350  178.2490  146.0200 C   0  0  0  0  0  3  0  0  0  0  0  0
  186.4650  178.0530  145.0840 C   0  0  0  0  0  0  0  0  0  0  0  0
  184.1110  178.5480  145.9100 C   0  0  0  0  0  3  0  0  0  0  0  0
  1 13  1  6  0  0  0
  1 26  1  0  0  0  0
  2 12  1  0  0  0  0
  3 12  1  0  0  0  0
  3  1  1  0  0  0  0
  4 11  1  0  0  0  0
  4  5  2  0  0  0  0
  5  7  1  0  0  0  0
  6 10  1  0  0  0  0
  7  6  2  0  0  0  0
  7  9  1  0  0  0  0
  8  9  1  0  0  0  0
  9  2  2  0  0  0  0
 10  3  2  0  0  0  0
 11  8  2  0  0  0  0
 13 14  1  0  0  0  0
 14 15  2  0  0  0  0
 16 14  1  0  0  0  0
 17 22  2  0  0  0  0
 17 16  1  0  0  0  0
 18 22  1  0  0  0  0
 19 17  1  0  0  0  0
 20 21  1  0  0  0  0
 20 19  2  0  0  0  0
 21 18  1  0  0  0  0
 24 23  1  0  0  0  0
 24 21  1  0  0  0  0
 25 24  1  0  0  0  0
 26 34  1  0  0  0  0
 27 41  2  0  0  0  0
 28 29  1  0  0  0  0
 29 30  2  0  0  0  0
 31 33  2  0  0  0  0
 32 31  1  0  0  0  0
 32 37  2  0  0  0  0
 33 28  1  0  0  0  0
 33 35  1  0  0  0  0
 34 36  2  0  0  0  0
 34 37  1  0  0  0  0
 35 30  1  0  0  0  0
 36 27  1  0  0  0  0
 37 40  1  0  0  0  0
 38 28  2  0  0  0  0
 40 35  1  0  0  0  0
 40 39  2  0  0  0  0
 41 39  1  0  0  0  0
M  END
>  <MODEL>
7

>  <REMARK>
 VINA RESULT:      -8.6      2.982     10.529
  Name = 
  8 active torsions:
  status: ('A' for Active; 'I' for Inactive)
    1  A    between atoms: C_1  and  C_9
    2  A    between atoms: C_1  and  O_18
    3  A    between atoms: C_3  and  C_9
    4  A    between atoms: C_4  and  C_19
    5  A    between atoms: O_18  and  C_19
    6  A    between atoms: C_19  and  S_33
    7  A    between atoms: C_21  and  S_33
    8  A    between atoms: C_22  and  N_38
                            x       y       z     vdW  Elec       q    Type
                         _______ _______ _______ _____ _____    ______ ____

>  <TORSDO>
F 8

$$$$
=
 OpenBabel10232410183D

 41 46  0  0  1  0  0  0  0  0999 V2000
  189.2260  177.0220  141.0230 C   0  0  2  0  0  3  0  0  0  0  0  0
  189.7220  178.3390  144.5000 C   0  0  0  0  0  3  0  0  0  0  0  0
  189.8520  177.0180  142.3840 C   0  0  0  0  0  0  0  0  0  0  0  0
  191.6270  176.5220  147.5500 C   0  0  0  0  0  3  0  0  0  0  0  0
  191.9270  176.0790  146.3300 C   0  0  0  0  0  3  0  0  0  0  0  0
  191.3390  175.7880  144.0180 C   0  0  0  0  0  3  0  0  0  0  0  0
  191.0390  176.3500  145.1890 C   0  0  0  0  0  0  0  0  0  0  0  0
  189.5410  177.5720  146.8130 C   0  0  0  0  0  3  0  0  0  0  0  0
  189.7650  177.1400  145.3870 C   0  0  1  0  0  3  0  0  0  0  0  0
  190.5920  175.9600  142.7550 C   0  0  0  0  0  3  0  0  0  0  0  0
  190.3970  177.2890  147.8000 C   0  0  0  0  0  3  0  0  0  0  0  0
  189.7270  178.2610  143.1700 C   0  0  0  0  0  3  0  0  0  0  0  0
  190.0310  176.2780  140.1170 O   0  0  0  0  0  0  0  0  0  0  0  0
  191.0700  176.8600  139.3880 C   0  0  0  0  0  0  0  0  0  0  0  0
  192.0330  177.4270  139.9720 O   0  0  0  0  0  0  0  0  0  0  0  0
  191.0170  176.8480  137.8990 C   0  0  0  0  0  2  0  0  0  0  0  0
  192.0290  175.9000  137.3530 C   0  0  0  0  0  0  0  0  0  0  0  0
  192.6860  173.6020  136.6570 C   0  0  0  0  0  2  0  0  0  0  0  0
  193.3370  176.4080  136.9130 C   0  0  0  0  0  3  0  0  0  0  0  0
  194.2800  175.5670  136.4960 C   0  0  0  0  0  3  0  0  0  0  0  0
  194.0310  174.1510  136.4570 N   0  0  0  0  0  0  0  0  0  0  0  0
  191.7330  174.6010  137.2570 C   0  0  0  0  0  3  0  0  0  0  0  0
  194.7960  172.5600  134.7520 C   0  0  0  0  0  1  0  0  0  0  0  0
  195.0920  173.2220  136.0860 C   0  0  0  0  0  3  0  0  0  0  0  0
  196.4340  173.9290  136.0360 C   0  0  0  0  0  1  0  0  0  0  0  0
  188.9750  178.7230  140.4000 S   0  0  0  0  0  0  0  0  0  0  0  0
  185.9620  177.8040  137.8020 C   0  0  0  0  0  3  0  0  0  0  0  0
  183.2440  179.0260  143.9740 C   0  0  0  0  0  0  0  0  0  0  0  0
  181.9540  178.9720  143.2310 C   0  0  0  0  0  3  0  0  0  0  0  0
  182.3720  178.7720  141.7550 C   0  0  0  0  0  3  0  0  0  0  0  0
  185.6320  178.8350  143.3140 C   0  0  0  0  0  3  0  0  0  0  0  0
  186.5690  178.6580  142.1880 C   0  0  0  0  0  3  0  0  0  0  0  0
  184.3340  178.8820  143.0500 C   0  0  0  0  0  0  0  0  0  0  0  0
  187.2720  178.4130  139.8910 C   0  0  0  0  0  0  0  0  0  0  0  0
  183.8350  178.7430  141.7420 N   0  0  0  0  0  0  0  0  0  0  0  0
  187.1460  178.1060  138.6020 C   0  0  0  0  0  3  0  0  0  0  0  0
  186.1800  178.4960  140.9030 C   0  0  0  0  0  0  0  0  0  0  0  0
  183.3570  179.1630  145.2210 O   0  0  0  0  0  0  0  0  0  0  0  0
  184.1210  178.2050  139.4580 C   0  0  0  0  0  3  0  0  0  0  0  0
  184.7030  178.4840  140.6240 C   0  0  0  0  0  0  0  0  0  0  0  0
  184.6900  177.8500  138.1620 C   0  0  0  0  0  3  0  0  0  0  0  0
  1 13  1  6  0  0  0
  1  3  1  0  0  0  0
  3 10  2  0  0  0  0
  3 12  1  0  0  0  0
  4 11  1  0  0  0  0
  5  4  2  0  0  0  0
  6  7  2  0  0  0  0
  7  9  1  0  0  0  0
  7  5  1  0  0  0  0
  8 11  2  0  0  0  0
  9  2  1  6  0  0  0
  9  8  1  0  0  0  0
 10  6  1  0  0  0  0
 12  2  2  0  0  0  0
 14 15  2  0  0  0  0
 14 13  1  0  0  0  0
 16 14  1  0  0  0  0
 17 16  1  0  0  0  0
 18 22  1  0  0  0  0
 19 17  1  0  0  0  0
 20 19  2  0  0  0  0
 21 20  1  0  0  0  0
 21 18  1  0  0  0  0
 22 17  2  0  0  0  0
 23 24  1  0  0  0  0
 24 21  1  0  0  0  0
 25 24  1  0  0  0  0
 26  1  1  0  0  0  0
 27 41  2  0  0  0  0
 27 36  1  0  0  0  0
 28 38  2  0  0  0  0
 29 28  1  0  0  0  0
 30 29  2  0  0  0  0
 32 31  1  0  0  0  0
 33 31  2  0  0  0  0
 33 28  1  0  0  0  0
 34 26  1  0  0  0  0
 34 37  1  0  0  0  0
 35 30  1  0  0  0  0
 35 33  1  0  0  0  0
 36 34  2  0  0  0  0
 37 32  2  0  0  0  0
 39 40  2  0  0  0  0
 40 37  1  0  0  0  0
 40 35  1  0  0  0  0
 41 39  1  0  0  0  0
M  END
>  <MODEL>
8

>  <REMARK>
 VINA RESULT:      -8.6      3.438      6.294
  Name = 
  8 active torsions:
  status: ('A' for Active; 'I' for Inactive)
    1  A    between atoms: C_1  and  C_9
    2  A    between atoms: C_1  and  O_18
    3  A    between atoms: C_3  and  C_9
    4  A    between atoms: C_4  and  C_19
    5  A    between atoms: O_18  and  C_19
    6  A    between atoms: C_19  and  S_33
    7  A    between atoms: C_21  and  S_33
    8  A    between atoms: C_22  and  N_38
                            x       y       z     vdW  Elec       q    Type
                         _______ _______ _______ _____ _____    ______ ____

>  <TORSDO>
F 8

$$$$
=
 OpenBabel10232410183D

 41 46  0  0  1  0  0  0  0  0999 V2000
  189.7800  177.8100  140.9930 C   0  0  2  0  0  3  0  0  0  0  0  0
  190.1100  178.6480  144.6340 C   0  0  0  0  0  3  0  0  0  0  0  0
  190.2970  177.5860  142.3800 C   0  0  0  0  0  0  0  0  0  0  0  0
  191.6230  176.3140  147.5480 C   0  0  0  0  0  3  0  0  0  0  0  0
  191.9790  175.9970  146.3040 C   0  0  0  0  0  3  0  0  0  0  0  0
  191.5500  176.0410  143.9400 C   0  0  0  0  0  3  0  0  0  0  0  0
  191.2060  176.4810  145.1510 C   0  0  0  0  0  0  0  0  0  0  0  0
  189.6910  177.6260  146.8140 C   0  0  0  0  0  3  0  0  0  0  0  0
  189.9880  177.3520  145.3620 C   0  0  1  0  0  3  0  0  0  0  0  0
  190.9190  176.4290  142.6630 C   0  0  0  0  0  3  0  0  0  0  0  0
  190.4420  177.1510  147.8110 C   0  0  0  0  0  3  0  0  0  0  0  0
  190.2100  178.7320  143.3080 C   0  0  0  0  0  3  0  0  0  0  0  0
  188.4120  177.4280  140.9170 O   0  0  0  0  0  0  0  0  0  0  0  0
  187.3950  178.1610  141.5300 C   0  0  0  0  0  0  0  0  0  0  0  0
  187.0210  179.2700  141.0590 O   0  0  0  0  0  0  0  0  0  0  0  0
  186.7730  177.6480  142.7830 C   0  0  0  0  0  2  0  0  0  0  0  0
  185.3780  178.1560  142.9130 C   0  0  0  0  0  0  0  0  0  0  0  0
  183.6190  179.3340  144.2220 C   0  0  0  0  0  2  0  0  0  0  0  0
  184.4450  178.0140  141.7850 C   0  0  0  0  0  3  0  0  0  0  0  0
  183.1750  178.3910  141.9110 C   0  0  0  0  0  3  0  0  0  0  0  0
  182.6980  178.9530  143.1460 N   0  0  0  0  0  0  0  0  0  0  0  0
  184.9920  178.7450  144.0490 C   0  0  0  0  0  3  0  0  0  0  0  0
  180.6220  179.5360  141.9730 C   0  0  0  0  0  1  0  0  0  0  0  0
  181.2870  179.2830  143.3140 C   0  0  0  0  0  3  0  0  0  0  0  0
  180.5620  178.1790  144.0600 C   0  0  0  0  0  1  0  0  0  0  0  0
  190.7630  176.8970  139.7510 S   0  0  0  0  0  0  0  0  0  0  0  0
  188.4350  179.2690  137.3780 C   0  0  0  0  0  3  0  0  0  0  0  0
  187.8200  172.7750  135.2720 C   0  0  0  0  0  0  0  0  0  0  0  0
  186.7250  173.3300  134.4260 C   0  0  0  0  0  3  0  0  0  0  0  0
  186.6540  174.8230  134.8270 C   0  0  0  0  0  3  0  0  0  0  0  0
  189.3620  173.7440  136.9620 C   0  0  0  0  0  3  0  0  0  0  0  0
  189.7470  174.9660  137.6940 C   0  0  0  0  0  3  0  0  0  0  0  0
  188.3550  173.8160  136.1030 C   0  0  0  0  0  0  0  0  0  0  0  0
  189.6280  177.2730  138.3990 C   0  0  0  0  0  0  0  0  0  0  0  0
  187.6710  175.0210  135.8600 N   0  0  0  0  0  0  0  0  0  0  0  0
  189.3150  178.5630  138.3050 C   0  0  0  0  0  3  0  0  0  0  0  0
  189.1610  176.1710  137.5100 C   0  0  0  0  0  0  0  0  0  0  0  0
  188.2210  171.5820  135.2470 O   0  0  0  0  0  0  0  0  0  0  0  0
  187.4610  177.3670  136.0630 C   0  0  0  0  0  3  0  0  0  0  0  0
  188.0640  176.2550  136.4860 C   0  0  0  0  0  0  0  0  0  0  0  0
  187.6520  178.7650  136.4390 C   0  0  0  0  0  3  0  0  0  0  0  0
  1 26  1  6  0  0  0
  1  3  1  0  0  0  0
  3 10  2  0  0  0  0
  3 12  1  0  0  0  0
  4 11  1  0  0  0  0
  5  4  2  0  0  0  0
  6  7  2  0  0  0  0
  7  9  1  0  0  0  0
  7  5  1  0  0  0  0
  8 11  2  0  0  0  0
  9  2  1  6  0  0  0
  9  8  1  0  0  0  0
 10  6  1  0  0  0  0
 12  2  2  0  0  0  0
 13  1  1  0  0  0  0
 13 14  1  0  0  0  0
 14 16  1  0  0  0  0
 15 14  2  0  0  0  0
 16 17  1  0  0  0  0
 17 22  2  0  0  0  0
 19 20  2  0  0  0  0
 19 17  1  0  0  0  0
 20 21  1  0  0  0  0
 21 24  1  0  0  0  0
 21 18  1  0  0  0  0
 22 18  1  0  0  0  0
 23 24  1  0  0  0  0
 24 25  1  0  0  0  0
 27 36  1  0  0  0  0
 28 33  1  0  0  0  0
 29 30  2  0  0  0  0
 29 28  1  0  0  0  0
 30 35  1  0  0  0  0
 31 32  1  0  0  0  0
 33 31  2  0  0  0  0
 34 26  1  0  0  0  0
 35 33  1  0  0  0  0
 35 40  1  0  0  0  0
 36 34  2  0  0  0  0
 37 32  2  0  0  0  0
 37 34  1  0  0  0  0
 38 28  2  0  0  0  0
 39 41  1  0  0  0  0
 39 40  2  0  0  0  0
 40 37  1  0  0  0  0
 41 27  2  0  0  0  0
M  END
>  <MODEL>
9

>  <REMARK>
 VINA RESULT:      -8.6      2.754      6.091
  Name = 
  8 active torsions:
  status: ('A' for Active; 'I' for Inactive)
    1  A    between atoms: C_1  and  C_9
    2  A    between atoms: C_1  and  O_18
    3  A    between atoms: C_3  and  C_9
    4  A    between atoms: C_4  and  C_19
    5  A    between atoms: O_18  and  C_19
    6  A    between atoms: C_19  and  S_33
    7  A    between atoms: C_21  and  S_33
    8  A    between atoms: C_22  and  N_38
                            x       y       z     vdW  Elec       q    Type
                         _______ _______ _______ _____ _____    ______ ____

>  <TORSDO>
F 8

$$$$
