=
 OpenBabel10222421383D

 60 69  0  0  1  0  0  0  0  0999 V2000
  187.8740  177.8960  142.4400 C   0  0  1  0  0  3  0  0  0  0  0  0
  188.3820  177.9970  143.8440 C   0  0  0  0  0  0  0  0  0  0  0  0
  191.5400  177.4530  145.6520 C   0  0  0  0  0  2  0  0  0  0  0  0
  187.9050  177.9880  146.2530 C   0  0  0  0  0  2  0  0  0  0  0  0
  191.2780  176.5760  146.6120 C   0  0  0  0  0  0  0  0  0  0  0  0
  189.2420  175.8790  147.8810 F   0  0  0  0  0  0  0  0  0  0  0  0
  189.3690  177.7440  146.4130 C   0  0  1  0  0  3  0  0  0  0  0  0
  187.5360  177.9000  144.8350 N   0  0  0  0  0  0  0  0  0  0  0  0
  189.9140  176.7440  147.0800 C   0  0  0  0  0  0  0  0  0  0  0  0
  190.3330  178.3240  145.4380 C   0  0  2  0  0  3  0  0  0  0  0  0
  192.2210  175.5230  147.0690 C   0  0  0  0  0  1  0  0  0  0  0  0
  189.7970  178.1410  144.0920 N   0  0  0  0  0  2  0  0  0  0  0  0
  188.5720  176.7490  141.7230 C   0  0  0  0  0  2  0  0  0  0  0  0
  189.1340  177.2060  140.4170 C   0  0  0  0  0  0  0  0  0  0  0  0
  190.8260  176.8870  139.9620 S   0  0  0  0  0  0  0  0  0  0  0  0
  189.0580  178.0410  138.2770 C   0  0  0  0  0  2  0  0  0  0  0  0
  188.3950  177.7280  139.5130 N   0  0  0  0  0  0  0  0  0  0  0  0
  190.3480  177.2280  138.2340 C   0  0  2  0  0  3  0  0  0  0  0  0
  190.1020  175.9760  137.5350 N   0  0  0  0  0  2  0  0  0  0  0  0
  192.1600  174.7690  137.1150 C   0  0  0  0  0  3  0  0  0  0  0  0
  191.0270  175.3260  135.2370 C   0  0  0  0  0  3  0  0  0  0  0  0
  191.0730  175.3690  136.6820 C   0  0  0  0  0  0  0  0  0  0  0  0
  192.0720  174.7130  134.7980 N   0  0  0  0  0  0  0  0  0  0  0  0
  192.9190  174.2840  135.9100 C   0  0  1  0  0  3  0  0  0  0  0  0
  194.3150  174.9360  135.8090 C   0  0  2  0  0  3  0  0  0  0  0  0
  197.1000  173.2020  137.6270 C   0  0  1  0  0  3  0  0  0  0  0  0
  194.9520  172.0530  137.7180 C   0  0  0  0  0  2  0  0  0  0  0  0
  195.7280  173.1450  136.9950 C   0  0  1  0  0  3  0  0  0  0  0  0
  197.8820  172.0040  137.1100 C   0  0  0  0  0  2  0  0  0  0  0  0
  198.7050  174.9830  137.2550 O   0  0  0  0  0  0  0  0  0  0  0  0
  195.7510  170.7580  137.6480 C   0  0  0  0  0  3  0  0  0  0  0  0
  196.4220  175.3500  136.9640 O   0  0  0  0  0  0  0  0  0  0  0  0
  195.2140  174.5910  137.0200 C   0  0  1  0  0  3  0  0  0  0  0  0
  197.0880  170.7390  137.4100 C   0  0  0  0  0  3  0  0  0  0  0  0
  197.5190  174.5570  137.2440 C   0  0  0  0  0  0  0  0  0  0  0  0
  195.2560  177.0120  134.6970 C   0  0  0  0  0  1  0  0  0  0  0  0
  194.1970  177.1370  136.8400 O   0  0  0  0  0  1  0  0  0  0  0  0
  194.1850  176.4620  135.6180 C   0  0  2  0  0  3  0  0  0  0  0  0
  186.4910  177.6900  142.4330 O   0  0  0  0  0  0  0  0  0  0  0  0
  185.9580  178.8110  141.7950 C   0  0  0  0  0  2  0  0  0  0  0  0
  184.4480  178.6820  141.7460 C   0  0  0  0  0  2  0  0  0  0  0  0
  185.6470  174.6880  136.6540 C   0  0  1  0  0  3  0  0  0  0  0  0
  182.6830  177.2070  139.1070 C   0  0  0  0  0  3  0  0  0  0  0  0
  186.5590  172.6460  136.6860 O   0  0  0  0  0  0  0  0  0  0  0  0
  184.2020  172.9160  137.2810 C   0  0  0  0  0  0  0  0  0  0  0  0
  183.9090  171.7090  137.0640 O   0  0  0  0  0  0  0  0  0  0  0  0
  184.7430  179.8830  139.6830 O   0  0  0  0  0  0  0  0  0  0  0  0
  186.0160  177.5540  136.5250 O   0  0  0  0  0  0  0  0  0  0  0  0
  185.1980  179.3580  138.4980 N   0  0  0  0  0  2  0  0  0  0  0  0
  183.9430  178.9050  140.3320 C   0  0  1  0  0  3  0  0  0  0  0  0
  185.2340  177.1260  137.4170 C   0  0  0  0  0  0  0  0  0  0  0  0
  183.5480  175.2800  137.7590 C   0  0  0  0  0  0  0  0  0  0  0  0
  185.6090  173.3910  137.3570 C   0  0  2  0  0  3  0  0  0  0  0  0
  187.5250  173.6350  136.3610 C   0  0  0  0  0  2  0  0  0  0  0  0
  184.8150  178.0160  138.4560 N   0  0  0  0  0  0  0  0  0  0  0  0
  184.7950  175.7070  137.3800 C   0  0  0  0  0  0  0  0  0  0  0  0
  183.1870  173.8910  137.5590 N   0  0  0  0  0  2  0  0  0  0  0  0
  187.0030  174.9420  136.5490 O   0  0  0  0  0  0  0  0  0  0  0  0
  184.0360  177.6200  139.5720 C   0  0  2  0  0  3  0  0  0  0  0  0
  182.4910  176.1540  138.3150 C   0  0  0  0  0  3  0  0  0  0  0  0
  1 13  1  1  0  0  0
  1  2  1  0  0  0  0
  2 12  1  0  0  0  0
  2  8  2  0  0  0  0
  3  5  1  0  0  0  0
  5 11  1  0  0  0  0
  5  9  2  0  0  0  0
  7  4  1  6  0  0  0
  7  9  1  0  0  0  0
  8  4  1  0  0  0  0
  9  6  1  0  0  0  0
 10  3  1  6  0  0  0
 10  7  1  0  0  0  0
 12 10  1  0  0  0  0
 14 13  1  0  0  0  0
 15 14  1  0  0  0  0
 16 17  1  0  0  0  0
 17 14  2  0  0  0  0
 18 19  1  6  0  0  0
 18 16  1  0  0  0  0
 18 15  1  0  0  0  0
 21 22  1  0  0  0  0
 22 20  2  0  0  0  0
 22 19  1  0  0  0  0
 23 21  2  0  0  0  0
 23 24  1  0  0  0  0
 24 25  1  6  0  0  0
 24 20  1  0  0  0  0
 25 38  1  1  0  0  0
 26 29  1  6  0  0  0
 28 33  1  0  0  0  0
 28 26  1  0  0  0  0
 28 27  1  1  0  0  0
 29 34  1  0  0  0  0
 31 27  1  0  0  0  0
 32 33  1  0  0  0  0
 32 35  1  0  0  0  0
 33 25  1  6  0  0  0
 34 31  2  0  0  0  0
 35 30  2  0  0  0  0
 35 26  1  0  0  0  0
 38 36  1  6  0  0  0
 38 37  1  0  0  0  0
 39  1  1  0  0  0  0
 40 39  1  0  0  0  0
 41 40  1  0  0  0  0
 42 58  1  1  0  0  0
 42 53  1  0  0  0  0
 42 56  1  0  0  0  0
 45 53  1  0  0  0  0
 45 57  1  0  0  0  0
 46 45  2  0  0  0  0
 47 50  1  0  0  0  0
 48 51  2  0  0  0  0
 49 47  1  0  0  0  0
 50 41  1  1  0  0  0
 51 55  1  0  0  0  0
 52 60  1  0  0  0  0
 53 44  1  6  0  0  0
 54 58  1  0  0  0  0
 54 44  1  0  0  0  0
 55 49  1  0  0  0  0
 55 59  1  0  0  0  0
 56 51  1  0  0  0  0
 56 52  2  0  0  0  0
 57 52  1  0  0  0  0
 59 43  1  6  0  0  0
 59 50  1  0  0  0  0
 60 43  2  0  0  0  0
M  END
>  <MODEL>
1

>  <REMARK>
 VINA RESULT:      -9.7      0.000      0.000
  Name = 
  12 active torsions:
  status: ('A' for Active; 'I' for Inactive)
    1  A    between atoms: N_3  and  C_34
    2  A    between atoms: N_3  and  C_44
    3  A    between atoms: C_8  and  C_13
    4  A    between atoms: C_9  and  C_19
    5  A    between atoms: C_13  and  C_19
    6  A    between atoms: C_13  and  O_57
    7  A    between atoms: C_23  and  C_27
    8  A    between atoms: C_23  and  C_60
    9  A    between atoms: C_29  and  C_51
   10  A    between atoms: C_29  and  C_55
   11  A    between atoms: C_29  and  C_56
   12  A    between atoms: O_57  and  C_60
                            x       y       z     vdW  Elec       q    Type
                         _______ _______ _______ _____ _____    ______ ____

>  <TORSDO>
F 12

$$$$
=
 OpenBabel10222421383D

 60 69  0  0  1  0  0  0  0  0999 V2000
  190.5940  174.3190  136.9530 C   0  0  1  0  0  3  0  0  0  0  0  0
  191.9820  174.1300  136.4250 C   0  0  0  0  0  0  0  0  0  0  0  0
  195.2620  173.0470  137.6900 C   0  0  0  0  0  2  0  0  0  0  0  0
  193.6850  174.7030  134.7520 C   0  0  0  0  0  2  0  0  0  0  0  0
  196.1100  174.0340  137.4290 C   0  0  0  0  0  0  0  0  0  0  0  0
  196.2200  175.8970  135.7680 F   0  0  0  0  0  0  0  0  0  0  0  0
  194.6540  174.1100  135.7210 C   0  0  1  0  0  3  0  0  0  0  0  0
  192.3580  174.8030  135.3700 N   0  0  0  0  0  0  0  0  0  0  0  0
  195.7230  174.7130  136.2060 C   0  0  0  0  0  0  0  0  0  0  0  0
  194.2390  172.9760  136.5910 C   0  0  2  0  0  3  0  0  0  0  0  0
  197.2340  174.4330  138.3170 C   0  0  0  0  0  1  0  0  0  0  0  0
  192.9030  173.2560  137.1110 N   0  0  0  0  0  2  0  0  0  0  0  0
  190.1670  175.7690  136.7640 C   0  0  0  0  0  2  0  0  0  0  0  0
  190.6060  176.6040  137.9220 C   0  0  0  0  0  0  0  0  0  0  0  0
  189.5250  177.8030  138.6750 S   0  0  0  0  0  0  0  0  0  0  0  0
  191.9740  177.2280  139.6600 C   0  0  0  0  0  2  0  0  0  0  0  0
  191.7240  176.4060  138.5090 N   0  0  0  0  0  0  0  0  0  0  0  0
  190.6300  177.7750  140.1280 C   0  0  2  0  0  3  0  0  0  0  0  0
  190.0810  176.8930  141.1470 N   0  0  0  0  0  2  0  0  0  0  0  0
  189.9810  176.2700  143.4850 C   0  0  0  0  0  3  0  0  0  0  0  0
  190.5860  178.4230  143.1370 C   0  0  0  0  0  3  0  0  0  0  0  0
  190.2080  177.1600  142.5430 C   0  0  0  0  0  0  0  0  0  0  0  0
  190.5850  178.3060  144.4210 N   0  0  0  0  0  0  0  0  0  0  0  0
  190.2060  176.9480  144.8100 C   0  0  1  0  0  3  0  0  0  0  0  0
  188.9250  176.9690  145.6710 C   0  0  2  0  0  3  0  0  0  0  0  0
  185.7870  178.9330  145.0680 C   0  0  1  0  0  3  0  0  0  0  0  0
  186.9310  178.1950  143.0460 C   0  0  0  0  0  2  0  0  0  0  0  0
  186.8440  177.9840  144.5520 C   0  0  1  0  0  3  0  0  0  0  0  0
  184.4350  178.3450  144.6910 C   0  0  0  0  0  2  0  0  0  0  0  0
  185.4230  179.4300  147.4150 O   0  0  0  0  0  0  0  0  0  0  0  0
  185.5440  178.0050  142.4470 C   0  0  0  0  0  3  0  0  0  0  0  0
  187.4950  178.6800  146.6580 O   0  0  0  0  0  0  0  0  0  0  0  0
  188.0770  178.2410  145.4300 C   0  0  1  0  0  3  0  0  0  0  0  0
  184.4110  178.1120  143.1850 C   0  0  0  0  0  3  0  0  0  0  0  0
  186.1660  179.0180  146.4850 C   0  0  0  0  0  0  0  0  0  0  0  0
  190.6840  176.2710  147.3590 C   0  0  0  0  0  1  0  0  0  0  0  0
  188.3520  175.9840  147.8220 O   0  0  0  0  0  1  0  0  0  0  0  0
  189.2760  176.7990  147.1640 C   0  0  2  0  0  3  0  0  0  0  0  0
  189.6980  173.4710  136.2940 O   0  0  0  0  0  0  0  0  0  0  0  0
  188.6990  173.1990  137.2290 C   0  0  0  0  0  2  0  0  0  0  0  0
  187.5110  172.5810  136.5170 C   0  0  0  0  0  2  0  0  0  0  0  0
  183.1870  177.3500  137.8840 C   0  0  1  0  0  3  0  0  0  0  0  0
  187.0450  175.9750  135.7930 C   0  0  0  0  0  3  0  0  0  0  0  0
  182.5200  178.0760  139.8920 O   0  0  0  0  0  0  0  0  0  0  0  0
  184.6690  178.8260  138.9990 C   0  0  0  0  0  0  0  0  0  0  0  0
  184.7350  179.8400  139.7460 O   0  0  0  0  0  0  0  0  0  0  0  0
  185.9170  172.9140  134.7470 O   0  0  0  0  0  0  0  0  0  0  0  0
  182.8430  175.4980  135.6890 O   0  0  0  0  0  0  0  0  0  0  0  0
  184.7820  173.6850  134.8140 N   0  0  0  0  0  2  0  0  0  0  0  0
  186.9400  173.5510  135.4990 C   0  0  1  0  0  3  0  0  0  0  0  0
  184.0180  175.6500  136.1190 C   0  0  0  0  0  0  0  0  0  0  0  0
  185.4890  177.4690  137.0690 C   0  0  0  0  0  0  0  0  0  0  0  0
  183.6790  177.7400  139.2190 C   0  0  2  0  0  3  0  0  0  0  0  0
  181.5900  177.1510  139.3450 C   0  0  0  0  0  2  0  0  0  0  0  0
  185.0310  174.7250  135.7110 N   0  0  0  0  0  0  0  0  0  0  0  0
  184.3110  176.7650  137.0580 C   0  0  0  0  0  0  0  0  0  0  0  0
  185.6140  178.6180  137.9400 N   0  0  0  0  0  2  0  0  0  0  0  0
  182.1120  176.5320  138.1780 O   0  0  0  0  0  0  0  0  0  0  0  0
  186.3550  174.7250  136.2180 C   0  0  2  0  0  3  0  0  0  0  0  0
  186.6510  177.1800  136.1990 C   0  0  0  0  0  3  0  0  0  0  0  0
  1 13  1  6  0  0  0
  2  1  1  0  0  0  0
  2 12  1  0  0  0  0
  4  8  1  0  0  0  0
  5  3  1  0  0  0  0
  5 11  1  0  0  0  0
  6  9  1  0  0  0  0
  7  4  1  1  0  0  0
  7  9  1  0  0  0  0
  7 10  1  0  0  0  0
  8  2  2  0  0  0  0
  9  5  2  0  0  0  0
 10 12  1  0  0  0  0
 10  3  1  1  0  0  0
 13 14  1  0  0  0  0
 14 17  2  0  0  0  0
 14 15  1  0  0  0  0
 15 18  1  0  0  0  0
 16 18  1  0  0  0  0
 17 16  1  0  0  0  0
 18 19  1  1  0  0  0
 19 22  1  0  0  0  0
 20 24  1  0  0  0  0
 21 23  2  0  0  0  0
 22 21  1  0  0  0  0
 22 20  2  0  0  0  0
 23 24  1  0  0  0  0
 24 25  1  1  0  0  0
 25 38  1  1  0  0  0
 26 29  1  1  0  0  0
 26 35  1  0  0  0  0
 28 27  1  6  0  0  0
 28 26  1  0  0  0  0
 28 33  1  0  0  0  0
 31 27  1  0  0  0  0
 31 34  2  0  0  0  0
 33 25  1  1  0  0  0
 33 32  1  0  0  0  0
 34 29  1  0  0  0  0
 35 32  1  0  0  0  0
 35 30  2  0  0  0  0
 38 36  1  6  0  0  0
 38 37  1  0  0  0  0
 39  1  1  0  0  0  0
 39 40  1  0  0  0  0
 41 40  1  0  0  0  0
 42 56  1  1  0  0  0
 42 58  1  0  0  0  0
 42 53  1  0  0  0  0
 43 60  2  0  0  0  0
 45 46  2  0  0  0  0
 47 49  1  0  0  0  0
 47 50  1  0  0  0  0
 48 51  2  0  0  0  0
 49 55  1  0  0  0  0
 50 59  1  0  0  0  0
 50 41  1  1  0  0  0
 51 56  1  0  0  0  0
 52 57  1  0  0  0  0
 53 45  1  6  0  0  0
 53 44  1  0  0  0  0
 54 44  1  0  0  0  0
 55 51  1  0  0  0  0
 55 59  1  0  0  0  0
 56 52  2  0  0  0  0
 57 45  1  0  0  0  0
 58 54  1  0  0  0  0
 59 43  1  6  0  0  0
 60 52  1  0  0  0  0
M  END
>  <MODEL>
2

>  <REMARK>
 VINA RESULT:      -9.2      3.036      9.509
  Name = 
  12 active torsions:
  status: ('A' for Active; 'I' for Inactive)
    1  A    between atoms: N_3  and  C_34
    2  A    between atoms: N_3  and  C_44
    3  A    between atoms: C_8  and  C_13
    4  A    between atoms: C_9  and  C_19
    5  A    between atoms: C_13  and  C_19
    6  A    between atoms: C_13  and  O_57
    7  A    between atoms: C_23  and  C_27
    8  A    between atoms: C_23  and  C_60
    9  A    between atoms: C_29  and  C_51
   10  A    between atoms: C_29  and  C_55
   11  A    between atoms: C_29  and  C_56
   12  A    between atoms: O_57  and  C_60
                            x       y       z     vdW  Elec       q    Type
                         _______ _______ _______ _____ _____    ______ ____

>  <TORSDO>
F 12

$$$$
=
 OpenBabel10222421383D

 60 69  0  0  1  0  0  0  0  0999 V2000
  189.8050  175.2190  135.6440 C   0  0  1  0  0  3  0  0  0  0  0  0
  191.2550  174.9390  135.4040 C   0  0  0  0  0  0  0  0  0  0  0  0
  193.8730  172.7380  136.7580 C   0  0  0  0  0  2  0  0  0  0  0  0
  193.4280  175.7110  134.5620 C   0  0  0  0  0  2  0  0  0  0  0  0
  194.8670  173.5280  137.1430 C   0  0  0  0  0  0  0  0  0  0  0  0
  195.6720  175.8110  136.5220 F   0  0  0  0  0  0  0  0  0  0  0  0
  193.9950  174.5870  135.3640 C   0  0  1  0  0  3  0  0  0  0  0  0
  191.9990  175.8630  134.8560 N   0  0  0  0  0  0  0  0  0  0  0  0
  194.9370  174.6950  136.2830 C   0  0  0  0  0  0  0  0  0  0  0  0
  193.2170  173.3310  135.5430 C   0  0  2  0  0  3  0  0  0  0  0  0
  195.7190  173.2870  138.3370 C   0  0  0  0  0  1  0  0  0  0  0  0
  191.8280  173.6840  135.8270 N   0  0  0  0  0  2  0  0  0  0  0  0
  189.4300  174.8050  137.0610 C   0  0  0  0  0  2  0  0  0  0  0  0
  189.7970  175.8740  138.0380 C   0  0  0  0  0  0  0  0  0  0  0  0
  188.7080  177.2390  138.3850 S   0  0  0  0  0  0  0  0  0  0  0  0
  191.0250  176.8490  139.7180 C   0  0  0  0  0  2  0  0  0  0  0  0
  190.8460  175.7890  138.7650 N   0  0  0  0  0  0  0  0  0  0  0  0
  189.6700  177.5210  139.9110 C   0  0  2  0  0  3  0  0  0  0  0  0
  188.9880  176.9100  141.0420 N   0  0  0  0  0  2  0  0  0  0  0  0
  189.2280  176.2800  143.3690 C   0  0  0  0  0  3  0  0  0  0  0  0
  189.9720  178.3660  142.9050 C   0  0  0  0  0  3  0  0  0  0  0  0
  189.3770  177.1510  142.3950 C   0  0  0  0  0  0  0  0  0  0  0  0
  190.1790  178.2380  144.1710 N   0  0  0  0  0  0  0  0  0  0  0  0
  189.7410  176.9200  144.6300 C   0  0  1  0  0  3  0  0  0  0  0  0
  188.6350  177.0580  145.6970 C   0  0  2  0  0  3  0  0  0  0  0  0
  185.5520  179.1910  145.5770 C   0  0  1  0  0  3  0  0  0  0  0  0
  186.2370  178.2690  143.4280 C   0  0  0  0  0  2  0  0  0  0  0  0
  186.4350  178.1470  144.9320 C   0  0  1  0  0  3  0  0  0  0  0  0
  184.1220  178.6750  145.5060 C   0  0  0  0  0  2  0  0  0  0  0  0
  185.6810  179.8390  147.9120 O   0  0  0  0  0  0  0  0  0  0  0  0
  184.7510  178.1400  143.1190 C   0  0  0  0  0  3  0  0  0  0  0  0
  187.5220  178.9120  146.8240 O   0  0  0  0  0  0  0  0  0  0  0  0
  187.8270  178.3690  145.5390 C   0  0  1  0  0  3  0  0  0  0  0  0
  183.7910  178.3620  144.0520 C   0  0  0  0  0  3  0  0  0  0  0  0
  186.2050  179.3280  146.8860 C   0  0  0  0  0  0  0  0  0  0  0  0
  190.6170  176.3110  147.0920 C   0  0  0  0  0  1  0  0  0  0  0  0
  188.3900  176.2170  147.9680 O   0  0  0  0  0  1  0  0  0  0  0  0
  189.2330  176.9310  147.1130 C   0  0  2  0  0  3  0  0  0  0  0  0
  189.5300  176.5780  135.4590 O   0  0  0  0  0  0  0  0  0  0  0  0
  188.5500  176.6200  134.4660 C   0  0  0  0  0  2  0  0  0  0  0  0
  187.3160  177.3040  135.0180 C   0  0  0  0  0  2  0  0  0  0  0  0
  181.9240  177.8610  138.7510 C   0  0  1  0  0  3  0  0  0  0  0  0
  183.8390  177.1780  134.6260 C   0  0  0  0  0  3  0  0  0  0  0  0
  181.3330  179.5610  140.0790 O   0  0  0  0  0  0  0  0  0  0  0  0
  180.9680  179.7400  137.6680 C   0  0  0  0  0  0  0  0  0  0  0  0
  180.0990  180.6480  137.7690 O   0  0  0  0  0  0  0  0  0  0  0  0
  186.4130  175.1680  135.6580 O   0  0  0  0  0  0  0  0  0  0  0  0
  183.3560  175.3690  138.4200 O   0  0  0  0  0  0  0  0  0  0  0  0
  185.4260  174.9520  136.5880 N   0  0  0  0  0  2  0  0  0  0  0  0
  186.1210  176.3690  134.9600 C   0  0  1  0  0  3  0  0  0  0  0  0
  183.5250  176.2400  137.5230 C   0  0  0  0  0  0  0  0  0  0  0  0
  182.2140  178.0370  136.3300 C   0  0  0  0  0  0  0  0  0  0  0  0
  181.8280  179.3310  138.8100 C   0  0  2  0  0  3  0  0  0  0  0  0
  181.9510  178.5190  140.8220 C   0  0  0  0  0  2  0  0  0  0  0  0
  184.5900  176.0700  136.5830 N   0  0  0  0  0  0  0  0  0  0  0  0
  182.6320  177.4280  137.4860 C   0  0  0  0  0  0  0  0  0  0  0  0
  181.2420  179.1080  136.4090 N   0  0  0  0  0  2  0  0  0  0  0  0
  182.5150  177.5420  139.9600 O   0  0  0  0  0  0  0  0  0  0  0  0
  184.9490  177.0350  135.6090 C   0  0  2  0  0  3  0  0  0  0  0  0
  182.6380  177.6420  134.9680 C   0  0  0  0  0  3  0  0  0  0  0  0
  1 13  1  1  0  0  0
  2  1  1  0  0  0  0
  2 12  1  0  0  0  0
  3  5  1  0  0  0  0
  4  8  1  0  0  0  0
  5 11  1  0  0  0  0
  7  4  1  1  0  0  0
  7 10  1  0  0  0  0
  7  9  1  0  0  0  0
  8  2  2  0  0  0  0
  9  6  1  0  0  0  0
  9  5  2  0  0  0  0
 10 12  1  0  0  0  0
 10  3  1  1  0  0  0
 13 14  1  0  0  0  0
 14 15  1  0  0  0  0
 14 17  2  0  0  0  0
 15 18  1  0  0  0  0
 16 18  1  0  0  0  0
 17 16  1  0  0  0  0
 18 19  1  1  0  0  0
 19 22  1  0  0  0  0
 20 24  1  0  0  0  0
 21 23  2  0  0  0  0
 22 21  1  0  0  0  0
 22 20  2  0  0  0  0
 23 24  1  0  0  0  0
 24 25  1  1  0  0  0
 25 38  1  1  0  0  0
 26 29  1  1  0  0  0
 26 35  1  0  0  0  0
 28 27  1  6  0  0  0
 28 33  1  0  0  0  0
 28 26  1  0  0  0  0
 31 27  1  0  0  0  0
 31 34  2  0  0  0  0
 32 35  1  0  0  0  0
 33 25  1  1  0  0  0
 33 32  1  0  0  0  0
 34 29  1  0  0  0  0
 35 30  2  0  0  0  0
 38 36  1  6  0  0  0
 38 37  1  0  0  0  0
 39  1  1  0  0  0  0
 40 41  1  0  0  0  0
 40 39  1  0  0  0  0
 42 56  1  6  0  0  0
 42 53  1  0  0  0  0
 42 58  1  0  0  0  0
 43 60  2  0  0  0  0
 44 54  1  0  0  0  0
 45 46  2  0  0  0  0
 47 49  1  0  0  0  0
 50 41  1  1  0  0  0
 50 59  1  0  0  0  0
 50 47  1  0  0  0  0
 51 48  2  0  0  0  0
 52 57  1  0  0  0  0
 52 56  2  0  0  0  0
 53 45  1  6  0  0  0
 53 44  1  0  0  0  0
 55 49  1  0  0  0  0
 55 51  1  0  0  0  0
 56 51  1  0  0  0  0
 57 45  1  0  0  0  0
 58 54  1  0  0  0  0
 59 43  1  6  0  0  0
 59 55  1  0  0  0  0
 60 52  1  0  0  0  0
M  END
>  <MODEL>
3

>  <REMARK>
 VINA RESULT:      -9.0      3.128      9.638
  Name = 
  12 active torsions:
  status: ('A' for Active; 'I' for Inactive)
    1  A    between atoms: N_3  and  C_34
    2  A    between atoms: N_3  and  C_44
    3  A    between atoms: C_8  and  C_13
    4  A    between atoms: C_9  and  C_19
    5  A    between atoms: C_13  and  C_19
    6  A    between atoms: C_13  and  O_57
    7  A    between atoms: C_23  and  C_27
    8  A    between atoms: C_23  and  C_60
    9  A    between atoms: C_29  and  C_51
   10  A    between atoms: C_29  and  C_55
   11  A    between atoms: C_29  and  C_56
   12  A    between atoms: O_57  and  C_60
                            x       y       z     vdW  Elec       q    Type
                         _______ _______ _______ _____ _____    ______ ____

>  <TORSDO>
F 12

$$$$
=
 OpenBabel10222421383D

 60 69  0  0  1  0  0  0  0  0999 V2000
  189.2190  176.9410  135.9400 C   0  0  1  0  0  3  0  0  0  0  0  0
  187.9000  176.3500  136.3290 C   0  0  0  0  0  0  0  0  0  0  0  0
  186.3700  173.0130  136.5750 C   0  0  0  0  0  2  0  0  0  0  0  0
  185.4760  176.6270  136.6030 C   0  0  0  0  0  2  0  0  0  0  0  0
  185.2790  173.0440  135.8210 C   0  0  0  0  0  0  0  0  0  0  0  0
  183.7260  174.8220  135.0030 F   0  0  0  0  0  0  0  0  0  0  0  0
  185.4360  175.1350  136.6240 C   0  0  1  0  0  3  0  0  0  0  0  0
  186.8240  177.0860  136.2470 N   0  0  0  0  0  0  0  0  0  0  0  0
  184.7000  174.3740  135.8350 C   0  0  0  0  0  0  0  0  0  0  0  0
  186.5730  174.3660  137.1990 C   0  0  2  0  0  3  0  0  0  0  0  0
  184.7840  171.8980  135.0120 C   0  0  0  0  0  1  0  0  0  0  0  0
  187.8200  174.9660  136.7340 N   0  0  0  0  0  2  0  0  0  0  0  0
  189.6310  177.9920  136.9630 C   0  0  0  0  0  2  0  0  0  0  0  0
  189.5050  177.4550  138.3520 C   0  0  0  0  0  0  0  0  0  0  0  0
  190.6300  176.2290  138.9870 S   0  0  0  0  0  0  0  0  0  0  0  0
  188.7210  177.3840  140.5100 C   0  0  0  0  0  2  0  0  0  0  0  0
  188.6700  177.9430  139.1880 N   0  0  0  0  0  0  0  0  0  0  0  0
  190.0730  176.6960  140.6620 C   0  0  2  0  0  3  0  0  0  0  0  0
  191.0220  177.6270  141.2540 N   0  0  0  0  0  2  0  0  0  0  0  0
  191.3210  176.5760  143.4160 C   0  0  0  0  0  3  0  0  0  0  0  0
  191.6110  178.8210  143.4410 C   0  0  0  0  0  3  0  0  0  0  0  0
  191.3080  177.6470  142.6530 C   0  0  0  0  0  0  0  0  0  0  0  0
  191.8020  178.4700  144.6670 N   0  0  0  0  0  0  0  0  0  0  0  0
  191.6460  177.0230  144.8150 C   0  0  1  0  0  3  0  0  0  0  0  0
  190.5030  176.7010  145.8020 C   0  0  2  0  0  3  0  0  0  0  0  0
  187.1790  178.3830  146.2380 C   0  0  1  0  0  3  0  0  0  0  0  0
  187.9060  178.1470  143.9230 C   0  0  0  0  0  2  0  0  0  0  0  0
  188.1630  177.6630  145.3440 C   0  0  1  0  0  3  0  0  0  0  0  0
  185.8230  177.7260  146.0300 C   0  0  0  0  0  2  0  0  0  0  0  0
  187.3000  178.4120  148.6610 O   0  0  0  0  0  0  0  0  0  0  0  0
  186.4390  177.9150  143.5880 C   0  0  0  0  0  3  0  0  0  0  0  0
  189.2060  178.0410  147.3730 O   0  0  0  0  0  0  0  0  0  0  0  0
  189.5360  177.8940  145.9910 C   0  0  1  0  0  3  0  0  0  0  0  0
  185.4880  177.7630  144.5440 C   0  0  0  0  0  3  0  0  0  0  0  0
  187.8500  178.2560  147.5390 C   0  0  0  0  0  0  0  0  0  0  0  0
  192.4390  175.5750  146.9920 C   0  0  0  0  0  1  0  0  0  0  0  0
  190.1990  175.3510  147.8050 O   0  0  0  0  0  1  0  0  0  0  0  0
  191.0760  176.2190  147.1510 C   0  0  2  0  0  3  0  0  0  0  0  0
  190.1990  175.9460  135.8600 O   0  0  0  0  0  0  0  0  0  0  0  0
  190.7600  176.0890  134.5910 C   0  0  0  0  0  2  0  0  0  0  0  0
  192.2000  175.6180  134.6310 C   0  0  0  0  0  2  0  0  0  0  0  0
  197.9180  173.0030  136.5750 C   0  0  1  0  0  3  0  0  0  0  0  0
  193.6680  174.4410  137.5840 C   0  0  0  0  0  3  0  0  0  0  0  0
  199.9750  173.8470  136.3350 O   0  0  0  0  0  0  0  0  0  0  0  0
  198.5370  174.6850  138.1260 C   0  0  0  0  0  0  0  0  0  0  0  0
  199.4920  175.1480  138.8070 O   0  0  0  0  0  0  0  0  0  0  0  0
  192.1100  173.2190  134.7890 O   0  0  0  0  0  0  0  0  0  0  0  0
  195.7560  171.4200  135.4830 O   0  0  0  0  0  0  0  0  0  0  0  0
  193.1810  172.3790  134.9700 N   0  0  0  0  0  2  0  0  0  0  0  0
  192.3360  174.4060  135.5360 C   0  0  1  0  0  3  0  0  0  0  0  0
  195.4450  172.5420  135.9680 C   0  0  0  0  0  0  0  0  0  0  0  0
  196.1310  174.0660  137.8600 C   0  0  0  0  0  0  0  0  0  0  0  0
  198.7080  174.2400  136.7180 C   0  0  2  0  0  3  0  0  0  0  0  0
  199.6880  172.8980  135.3170 C   0  0  0  0  0  2  0  0  0  0  0  0
  194.1430  173.0740  135.7050 N   0  0  0  0  0  0  0  0  0  0  0  0
  196.4460  173.2900  136.7740 C   0  0  0  0  0  0  0  0  0  0  0  0
  197.2010  174.6450  138.6460 N   0  0  0  0  0  2  0  0  0  0  0  0
  198.3190  172.5220  135.3410 O   0  0  0  0  0  0  0  0  0  0  0  0
  193.7220  174.3690  136.0970 C   0  0  2  0  0  3  0  0  0  0  0  0
  194.7560  174.3210  138.3440 C   0  0  0  0  0  3  0  0  0  0  0  0
  1  2  1  0  0  0  0
  1 13  1  1  0  0  0
  2 12  1  0  0  0  0
  5  9  2  0  0  0  0
  5  3  1  0  0  0  0
  6  9  1  0  0  0  0
  7  4  1  6  0  0  0
  7 10  1  0  0  0  0
  8  2  2  0  0  0  0
  8  4  1  0  0  0  0
  9  7  1  0  0  0  0
 10  3  1  6  0  0  0
 11  5  1  0  0  0  0
 12 10  1  0  0  0  0
 13 14  1  0  0  0  0
 14 15  1  0  0  0  0
 14 17  2  0  0  0  0
 15 18  1  0  0  0  0
 16 18  1  0  0  0  0
 17 16  1  0  0  0  0
 18 19  1  6  0  0  0
 19 22  1  0  0  0  0
 20 24  1  0  0  0  0
 21 23  2  0  0  0  0
 22 20  2  0  0  0  0
 22 21  1  0  0  0  0
 23 24  1  0  0  0  0
 24 25  1  1  0  0  0
 25 38  1  1  0  0  0
 26 29  1  1  0  0  0
 26 35  1  0  0  0  0
 28 27  1  6  0  0  0
 28 33  1  0  0  0  0
 28 26  1  0  0  0  0
 31 27  1  0  0  0  0
 31 34  2  0  0  0  0
 32 35  1  0  0  0  0
 33 25  1  1  0  0  0
 33 32  1  0  0  0  0
 34 29  1  0  0  0  0
 35 30  2  0  0  0  0
 38 36  1  6  0  0  0
 38 37  1  0  0  0  0
 39  1  1  0  0  0  0
 40 41  1  0  0  0  0
 40 39  1  0  0  0  0
 42 58  1  6  0  0  0
 42 53  1  0  0  0  0
 42 56  1  0  0  0  0
 43 60  2  0  0  0  0
 45 57  1  0  0  0  0
 45 46  2  0  0  0  0
 47 49  1  0  0  0  0
 47 50  1  0  0  0  0
 48 51  2  0  0  0  0
 49 55  1  0  0  0  0
 50 41  1  6  0  0  0
 50 59  1  0  0  0  0
 51 56  1  0  0  0  0
 52 60  1  0  0  0  0
 52 57  1  0  0  0  0
 53 44  1  1  0  0  0
 53 45  1  0  0  0  0
 54 58  1  0  0  0  0
 54 44  1  0  0  0  0
 55 51  1  0  0  0  0
 55 59  1  0  0  0  0
 56 52  2  0  0  0  0
 59 43  1  1  0  0  0
M  END
>  <MODEL>
4

>  <REMARK>
 VINA RESULT:      -8.8      3.328     11.175
  Name = 
  12 active torsions:
  status: ('A' for Active; 'I' for Inactive)
    1  A    between atoms: N_3  and  C_34
    2  A    between atoms: N_3  and  C_44
    3  A    between atoms: C_8  and  C_13
    4  A    between atoms: C_9  and  C_19
    5  A    between atoms: C_13  and  C_19
    6  A    between atoms: C_13  and  O_57
    7  A    between atoms: C_23  and  C_27
    8  A    between atoms: C_23  and  C_60
    9  A    between atoms: C_29  and  C_51
   10  A    between atoms: C_29  and  C_55
   11  A    between atoms: C_29  and  C_56
   12  A    between atoms: O_57  and  C_60
                            x       y       z     vdW  Elec       q    Type
                         _______ _______ _______ _____ _____    ______ ____

>  <TORSDO>
F 12

$$$$
=
 OpenBabel10222421383D

 60 69  0  0  1  0  0  0  0  0999 V2000
  187.6140  177.5090  142.3430 C   0  0  1  0  0  3  0  0  0  0  0  0
  188.1950  177.7580  143.7000 C   0  0  0  0  0  0  0  0  0  0  0  0
  191.4490  177.4240  145.3820 C   0  0  0  0  0  2  0  0  0  0  0  0
  187.8450  177.9990  146.1180 C   0  0  0  0  0  2  0  0  0  0  0  0
  191.2470  176.6510  146.4420 C   0  0  0  0  0  0  0  0  0  0  0  0
  189.2880  176.0800  147.8840 F   0  0  0  0  0  0  0  0  0  0  0  0
  189.3180  177.7820  146.2240 C   0  0  1  0  0  3  0  0  0  0  0  0
  187.4030  177.7610  144.7390 N   0  0  0  0  0  0  0  0  0  0  0  0
  189.9080  176.8600  146.9620 C   0  0  0  0  0  0  0  0  0  0  0  0
  190.2230  178.2610  145.1440 C   0  0  2  0  0  3  0  0  0  0  0  0
  192.2250  175.6560  146.9550 C   0  0  0  0  0  1  0  0  0  0  0  0
  189.6190  177.9350  143.8550 N   0  0  0  0  0  2  0  0  0  0  0  0
  187.2250  178.8330  141.7000 C   0  0  0  0  0  2  0  0  0  0  0  0
  185.7400  178.9960  141.6830 C   0  0  0  0  0  0  0  0  0  0  0  0
  184.8270  179.0970  140.1570 S   0  0  0  0  0  0  0  0  0  0  0  0
  183.6230  179.0240  142.5740 C   0  0  0  0  0  2  0  0  0  0  0  0
  185.0450  178.9370  142.7540 N   0  0  0  0  0  0  0  0  0  0  0  0
  183.3270  178.6920  141.1150 C   0  0  2  0  0  3  0  0  0  0  0  0
  183.0370  177.2710  140.9970 N   0  0  0  0  0  2  0  0  0  0  0  0
  182.6650  175.9670  138.9900 C   0  0  0  0  0  3  0  0  0  0  0  0
  180.7980  176.9640  139.7920 C   0  0  0  0  0  3  0  0  0  0  0  0
  182.2170  176.7380  139.9560 C   0  0  0  0  0  0  0  0  0  0  0  0
  180.3890  176.3420  138.7390 N   0  0  0  0  0  0  0  0  0  0  0  0
  181.4990  175.6380  138.0970 C   0  0  1  0  0  3  0  0  0  0  0  0
  181.7100  176.1590  136.6590 C   0  0  2  0  0  3  0  0  0  0  0  0
  183.5210  172.9690  135.8750 C   0  0  1  0  0  3  0  0  0  0  0  0
  184.9670  174.8540  136.4220 C   0  0  0  0  0  2  0  0  0  0  0  0
  183.5310  174.3520  136.4860 C   0  0  1  0  0  3  0  0  0  0  0  0
  184.1260  172.0220  136.9000 C   0  0  0  0  0  2  0  0  0  0  0  0
  181.5090  171.7550  135.2710 O   0  0  0  0  0  0  0  0  0  0  0  0
  185.8700  173.8370  137.1070 C   0  0  0  0  0  3  0  0  0  0  0  0
  181.5090  174.0820  135.3980 O   0  0  0  0  0  0  0  0  0  0  0  0
  182.4200  175.1210  135.7570 C   0  0  1  0  0  3  0  0  0  0  0  0
  185.5040  172.5430  137.2890 C   0  0  0  0  0  3  0  0  0  0  0  0
  182.1010  172.8380  135.5220 C   0  0  0  0  0  0  0  0  0  0  0  0
  181.5230  178.6880  136.6900 C   0  0  0  0  0  1  0  0  0  0  0  0
  183.3670  177.6030  135.6140 O   0  0  0  0  0  1  0  0  0  0  0  0
  182.4680  177.5030  136.6780 C   0  0  2  0  0  3  0  0  0  0  0  0
  188.5360  176.8390  141.5310 O   0  0  0  0  0  0  0  0  0  0  0  0
  188.7470  177.6870  140.4430 C   0  0  0  0  0  2  0  0  0  0  0  0
  189.8870  177.1430  139.6060 C   0  0  0  0  0  2  0  0  0  0  0  0
  193.6650  174.6740  134.8170 C   0  0  1  0  0  3  0  0  0  0  0  0
  189.8340  174.4660  137.3510 C   0  0  0  0  0  3  0  0  0  0  0  0
  195.8070  174.0390  134.9360 O   0  0  0  0  0  0  0  0  0  0  0  0
  194.0640  172.5450  135.7790 C   0  0  0  0  0  0  0  0  0  0  0  0
  194.7840  171.5120  135.7170 O   0  0  0  0  0  0  0  0  0  0  0  0
  189.1610  177.8240  137.4160 O   0  0  0  0  0  0  0  0  0  0  0  0
  191.7380  176.7840  134.3680 O   0  0  0  0  0  0  0  0  0  0  0  0
  189.8500  177.6430  136.2430 N   0  0  0  0  0  2  0  0  0  0  0  0
  189.3810  176.6930  138.2480 C   0  0  1  0  0  3  0  0  0  0  0  0
  191.5560  176.0600  135.3850 C   0  0  0  0  0  0  0  0  0  0  0  0
  191.8510  173.6580  136.1020 C   0  0  0  0  0  0  0  0  0  0  0  0
  194.6250  173.9140  135.6410 C   0  0  2  0  0  3  0  0  0  0  0  0
  195.6890  175.3510  134.4040 C   0  0  0  0  0  2  0  0  0  0  0  0
  190.6140  176.4820  136.3760 N   0  0  0  0  0  0  0  0  0  0  0  0
  192.3420  174.8080  135.5370 C   0  0  0  0  0  0  0  0  0  0  0  0
  192.6640  172.4600  136.0810 N   0  0  0  0  0  2  0  0  0  0  0  0
  194.3600  175.8350  134.5270 O   0  0  0  0  0  0  0  0  0  0  0  0
  190.4100  175.8150  137.6100 C   0  0  2  0  0  3  0  0  0  0  0  0
  190.5010  173.5190  136.6940 C   0  0  0  0  0  3  0  0  0  0  0  0
  1 13  1  6  0  0  0
  1  2  1  0  0  0  0
  2 12  1  0  0  0  0
  2  8  2  0  0  0  0
  3  5  1  0  0  0  0
  5 11  1  0  0  0  0
  5  9  2  0  0  0  0
  7  4  1  6  0  0  0
  7  9  1  0  0  0  0
  8  4  1  0  0  0  0
  9  6  1  0  0  0  0
 10  3  1  1  0  0  0
 10  7  1  0  0  0  0
 12 10  1  0  0  0  0
 14 13  1  0  0  0  0
 14 17  2  0  0  0  0
 15 18  1  0  0  0  0
 15 14  1  0  0  0  0
 16 17  1  0  0  0  0
 18 19  1  1  0  0  0
 18 16  1  0  0  0  0
 20 22  2  0  0  0  0
 21 22  1  0  0  0  0
 22 19  1  0  0  0  0
 23 21  2  0  0  0  0
 24 25  1  6  0  0  0
 24 23  1  0  0  0  0
 24 20  1  0  0  0  0
 25 38  1  1  0  0  0
 26 28  1  0  0  0  0
 26 29  1  1  0  0  0
 27 31  1  0  0  0  0
 28 27  1  6  0  0  0
 29 34  1  0  0  0  0
 30 35  2  0  0  0  0
 31 34  2  0  0  0  0
 32 35  1  0  0  0  0
 32 33  1  0  0  0  0
 33 28  1  0  0  0  0
 33 25  1  1  0  0  0
 35 26  1  0  0  0  0
 37 38  1  0  0  0  0
 38 36  1  6  0  0  0
 39  1  1  0  0  0  0
 40 39  1  0  0  0  0
 41 40  1  0  0  0  0
 42 58  1  1  0  0  0
 42 56  1  0  0  0  0
 42 53  1  0  0  0  0
 45 57  1  0  0  0  0
 46 45  2  0  0  0  0
 47 50  1  0  0  0  0
 48 51  2  0  0  0  0
 49 55  1  0  0  0  0
 49 47  1  0  0  0  0
 50 41  1  1  0  0  0
 51 56  1  0  0  0  0
 51 55  1  0  0  0  0
 52 60  1  0  0  0  0
 53 44  1  6  0  0  0
 53 45  1  0  0  0  0
 54 58  1  0  0  0  0
 54 44  1  0  0  0  0
 55 59  1  0  0  0  0
 56 52  2  0  0  0  0
 57 52  1  0  0  0  0
 59 43  1  6  0  0  0
 59 50  1  0  0  0  0
 60 43  2  0  0  0  0
M  END
>  <MODEL>
5

>  <REMARK>
 VINA RESULT:      -8.4      2.372      8.746
  Name = 
  12 active torsions:
  status: ('A' for Active; 'I' for Inactive)
    1  A    between atoms: N_3  and  C_34
    2  A    between atoms: N_3  and  C_44
    3  A    between atoms: C_8  and  C_13
    4  A    between atoms: C_9  and  C_19
    5  A    between atoms: C_13  and  C_19
    6  A    between atoms: C_13  and  O_57
    7  A    between atoms: C_23  and  C_27
    8  A    between atoms: C_23  and  C_60
    9  A    between atoms: C_29  and  C_51
   10  A    between atoms: C_29  and  C_55
   11  A    between atoms: C_29  and  C_56
   12  A    between atoms: O_57  and  C_60
                            x       y       z     vdW  Elec       q    Type
                         _______ _______ _______ _____ _____    ______ ____

>  <TORSDO>
F 12

$$$$
=
 OpenBabel10222421383D

 60 69  0  0  1  0  0  0  0  0999 V2000
  187.9670  177.5510  136.8360 C   0  0  1  0  0  3  0  0  0  0  0  0
  186.5270  177.6820  137.2220 C   0  0  0  0  0  0  0  0  0  0  0  0
  184.5520  179.1850  139.9380 C   0  0  0  0  0  2  0  0  0  0  0  0
  184.2310  176.8240  137.0770 C   0  0  0  0  0  2  0  0  0  0  0  0
  183.8200  178.2070  140.4550 C   0  0  0  0  0  0  0  0  0  0  0  0
  182.9310  176.0200  139.6360 F   0  0  0  0  0  0  0  0  0  0  0  0
  183.9740  177.6700  138.2790 C   0  0  1  0  0  3  0  0  0  0  0  0
  185.6680  176.8030  136.7770 N   0  0  0  0  0  0  0  0  0  0  0  0
  183.4700  177.2480  139.4240 C   0  0  0  0  0  0  0  0  0  0  0  0
  184.7090  178.9520  138.4610 C   0  0  2  0  0  3  0  0  0  0  0  0
  183.4900  178.0780  141.8990 C   0  0  0  0  0  1  0  0  0  0  0  0
  186.1120  178.7340  138.1190 N   0  0  0  0  0  2  0  0  0  0  0  0
  188.8190  178.4530  137.7190 C   0  0  0  0  0  2  0  0  0  0  0  0
  188.7410  178.0200  139.1470 C   0  0  0  0  0  0  0  0  0  0  0  0
  189.3680  176.4410  139.6820 S   0  0  0  0  0  0  0  0  0  0  0  0
  188.4030  178.2850  141.4040 C   0  0  0  0  0  2  0  0  0  0  0  0
  188.3430  178.8110  140.0690 N   0  0  0  0  0  0  0  0  0  0  0  0
  189.3630  177.1000  141.3840 C   0  0  2  0  0  3  0  0  0  0  0  0
  190.6980  177.5590  141.7380 N   0  0  0  0  0  2  0  0  0  0  0  0
  191.3120  176.4570  143.8050 C   0  0  0  0  0  3  0  0  0  0  0  0
  191.5940  178.7030  143.8470 C   0  0  0  0  0  3  0  0  0  0  0  0
  191.1840  177.5470  143.0800 C   0  0  0  0  0  0  0  0  0  0  0  0
  191.9620  178.3230  145.0220 N   0  0  0  0  0  0  0  0  0  0  0  0
  191.8340  176.8720  145.1540 C   0  0  1  0  0  3  0  0  0  0  0  0
  190.8480  176.5160  146.2880 C   0  0  2  0  0  3  0  0  0  0  0  0
  187.6090  178.2160  147.1140 C   0  0  1  0  0  3  0  0  0  0  0  0
  188.1780  178.2040  144.7440 C   0  0  0  0  0  2  0  0  0  0  0  0
  188.5120  177.5710  146.0880 C   0  0  1  0  0  3  0  0  0  0  0  0
  186.2240  177.6130  146.9330 C   0  0  0  0  0  2  0  0  0  0  0  0
  187.8860  177.9910  149.5140 O   0  0  0  0  0  0  0  0  0  0  0  0
  186.6860  178.0400  144.4860 C   0  0  0  0  0  3  0  0  0  0  0  0
  189.6940  177.7140  148.0700 O   0  0  0  0  0  0  0  0  0  0  0  0
  189.9300  177.7040  146.6620 C   0  0  1  0  0  3  0  0  0  0  0  0
  185.7950  177.8110  145.4840 C   0  0  0  0  0  3  0  0  0  0  0  0
  188.3590  177.9400  148.3470 C   0  0  0  0  0  0  0  0  0  0  0  0
  192.2150  177.1040  148.3420 C   0  0  0  0  0  1  0  0  0  0  0  0
  192.5950  175.0590  147.1550 O   0  0  0  0  0  1  0  0  0  0  0  0
  191.6120  175.9830  147.5180 C   0  0  2  0  0  3  0  0  0  0  0  0
  188.3910  176.2240  136.9630 O   0  0  0  0  0  0  0  0  0  0  0  0
  187.8640  175.5650  135.8520 C   0  0  0  0  0  2  0  0  0  0  0  0
  188.6280  174.2740  135.6350 C   0  0  0  0  0  2  0  0  0  0  0  0
  195.0070  173.9110  137.2110 C   0  0  1  0  0  3  0  0  0  0  0  0
  191.5620  172.8560  134.3540 C   0  0  0  0  0  3  0  0  0  0  0  0
  195.9200  173.1570  139.1090 O   0  0  0  0  0  0  0  0  0  0  0  0
  195.1590  171.5550  137.4250 C   0  0  0  0  0  0  0  0  0  0  0  0
  195.8700  170.6110  137.8620 O   0  0  0  0  0  0  0  0  0  0  0  0
  189.9640  175.8840  134.4480 O   0  0  0  0  0  0  0  0  0  0  0  0
  193.8790  176.1200  135.7230 O   0  0  0  0  0  0  0  0  0  0  0  0
  191.2780  176.1910  134.7020 N   0  0  0  0  0  2  0  0  0  0  0  0
  189.7750  174.4930  134.6640 C   0  0  1  0  0  3  0  0  0  0  0  0
  193.2310  175.0390  135.7050 C   0  0  0  0  0  0  0  0  0  0  0  0
  193.6590  172.5510  135.6920 C   0  0  0  0  0  0  0  0  0  0  0  0
  194.9460  172.8110  138.1920 C   0  0  2  0  0  3  0  0  0  0  0  0
  195.8210  174.5740  139.1150 C   0  0  0  0  0  2  0  0  0  0  0  0
  191.8880  175.0430  135.2110 N   0  0  0  0  0  0  0  0  0  0  0  0
  193.8690  173.7990  136.2210 C   0  0  0  0  0  0  0  0  0  0  0  0
  194.4330  171.4340  136.1940 N   0  0  0  0  0  2  0  0  0  0  0  0
  195.0530  175.0370  138.0140 O   0  0  0  0  0  0  0  0  0  0  0  0
  191.0260  173.9190  135.2490 C   0  0  2  0  0  3  0  0  0  0  0  0
  192.7270  172.2520  134.5830 C   0  0  0  0  0  3  0  0  0  0  0  0
  1 39  1  0  0  0  0
  1  2  1  0  0  0  0
  1 13  1  1  0  0  0
  2 12  1  0  0  0  0
  3  5  1  0  0  0  0
  5 11  1  0  0  0  0
  7  4  1  1  0  0  0
  7 10  1  0  0  0  0
  7  9  1  0  0  0  0
  8  4  1  0  0  0  0
  8  2  2  0  0  0  0
  9  6  1  0  0  0  0
  9  5  2  0  0  0  0
 10  3  1  1  0  0  0
 12 10  1  0  0  0  0
 13 14  1  0  0  0  0
 14 15  1  0  0  0  0
 14 17  2  0  0  0  0
 15 18  1  0  0  0  0
 17 16  1  0  0  0  0
 18 16  1  0  0  0  0
 18 19  1  6  0  0  0
 19 22  1  0  0  0  0
 20 24  1  0  0  0  0
 21 23  2  0  0  0  0
 22 20  2  0  0  0  0
 22 21  1  0  0  0  0
 23 24  1  0  0  0  0
 24 25  1  1  0  0  0
 25 38  1  1  0  0  0
 26 29  1  1  0  0  0
 26 35  1  0  0  0  0
 28 27  1  6  0  0  0
 28 33  1  0  0  0  0
 28 26  1  0  0  0  0
 31 27  1  0  0  0  0
 31 34  2  0  0  0  0
 32 35  1  0  0  0  0
 33 25  1  1  0  0  0
 33 32  1  0  0  0  0
 34 29  1  0  0  0  0
 35 30  2  0  0  0  0
 37 38  1  0  0  0  0
 38 36  1  6  0  0  0
 40 39  1  0  0  0  0
 41 40  1  0  0  0  0
 42 56  1  6  0  0  0
 42 58  1  0  0  0  0
 42 53  1  0  0  0  0
 43 60  2  0  0  0  0
 44 54  1  0  0  0  0
 45 46  2  0  0  0  0
 47 50  1  0  0  0  0
 47 49  1  0  0  0  0
 49 55  1  0  0  0  0
 50 59  1  0  0  0  0
 50 41  1  1  0  0  0
 51 48  2  0  0  0  0
 51 56  1  0  0  0  0
 52 57  1  0  0  0  0
 52 56  2  0  0  0  0
 53 45  1  6  0  0  0
 53 44  1  0  0  0  0
 55 59  1  0  0  0  0
 55 51  1  0  0  0  0
 57 45  1  0  0  0  0
 58 54  1  0  0  0  0
 59 43  1  6  0  0  0
 60 52  1  0  0  0  0
M  END
>  <MODEL>
6

>  <REMARK>
 VINA RESULT:      -8.3      2.778      9.939
  Name = 
  12 active torsions:
  status: ('A' for Active; 'I' for Inactive)
    1  A    between atoms: N_3  and  C_34
    2  A    between atoms: N_3  and  C_44
    3  A    between atoms: C_8  and  C_13
    4  A    between atoms: C_9  and  C_19
    5  A    between atoms: C_13  and  C_19
    6  A    between atoms: C_13  and  O_57
    7  A    between atoms: C_23  and  C_27
    8  A    between atoms: C_23  and  C_60
    9  A    between atoms: C_29  and  C_51
   10  A    between atoms: C_29  and  C_55
   11  A    between atoms: C_29  and  C_56
   12  A    between atoms: O_57  and  C_60
                            x       y       z     vdW  Elec       q    Type
                         _______ _______ _______ _____ _____    ______ ____

>  <TORSDO>
F 12

$$$$
=
 OpenBabel10222421383D

 60 69  0  0  1  0  0  0  0  0999 V2000
  190.2160  174.9200  135.9550 C   0  0  1  0  0  3  0  0  0  0  0  0
  191.6760  175.0220  136.2700 C   0  0  0  0  0  0  0  0  0  0  0  0
  194.7200  173.0150  135.7830 C   0  0  0  0  0  2  0  0  0  0  0  0
  193.4590  175.9680  137.6670 C   0  0  0  0  0  2  0  0  0  0  0  0
  195.2460  172.8320  136.9880 C   0  0  0  0  0  0  0  0  0  0  0  0
  195.1550  174.0360  139.1750 F   0  0  0  0  0  0  0  0  0  0  0  0
  194.3010  174.8650  137.1170 C   0  0  1  0  0  3  0  0  0  0  0  0
  192.0610  175.7790  137.2620 N   0  0  0  0  0  0  0  0  0  0  0  0
  194.9710  173.9800  137.8310 C   0  0  0  0  0  0  0  0  0  0  0  0
  194.0710  174.3700  135.7320 C   0  0  2  0  0  3  0  0  0  0  0  0
  195.9340  171.5880  137.4240 C   0  0  0  0  0  1  0  0  0  0  0  0
  192.6320  174.2450  135.5180 N   0  0  0  0  0  2  0  0  0  0  0  0
  189.7530  176.1900  135.2540 C   0  0  0  0  0  2  0  0  0  0  0  0
  189.1350  177.1370  136.2300 C   0  0  0  0  0  0  0  0  0  0  0  0
  188.1420  176.5610  137.5930 S   0  0  0  0  0  0  0  0  0  0  0  0
  188.7970  179.1620  137.2630 C   0  0  0  0  0  2  0  0  0  0  0  0
  189.3960  178.3890  136.2120 N   0  0  0  0  0  0  0  0  0  0  0  0
  188.4000  178.1920  138.3720 C   0  0  2  0  0  3  0  0  0  0  0  0
  189.4790  178.1080  139.3440 N   0  0  0  0  0  0  0  0  0  0  0  0
  188.1080  177.3440  141.1890 C   0  0  0  0  0  2  0  0  0  0  0  0
  190.2200  177.8960  141.7860 C   0  0  0  0  0  3  0  0  0  0  0  0
  189.2540  177.7840  140.7160 C   0  0  0  0  0  0  0  0  0  0  0  0
  189.6700  177.5340  142.8940 N   0  0  0  0  0  0  0  0  0  0  0  0
  188.2790  177.1420  142.6700 C   0  0  1  0  0  3  0  0  0  0  0  0
  187.3260  178.0400  143.4880 C   0  0  2  0  0  3  0  0  0  0  0  0
  187.0730  177.8070  147.2230 C   0  0  1  0  0  3  0  0  0  0  0  0
  189.0740  176.7910  146.2720 C   0  0  0  0  0  2  0  0  0  0  0  0
  187.9180  177.7350  145.9710 C   0  0  1  0  0  3  0  0  0  0  0  0
  187.8170  178.6880  148.2150 C   0  0  0  0  0  2  0  0  0  0  0  0
  184.8570  178.7890  147.3220 O   0  0  0  0  0  0  0  0  0  0  0  0
  189.8000  177.2880  147.5140 C   0  0  0  0  0  3  0  0  0  0  0  0
  185.7140  177.9720  145.3150 O   0  0  0  0  0  0  0  0  0  0  0  0
  186.9340  177.4010  144.8410 C   0  0  1  0  0  3  0  0  0  0  0  0
  189.2160  178.1180  148.4160 C   0  0  0  0  0  3  0  0  0  0  0  0
  185.7970  178.2720  146.6620 C   0  0  0  0  0  0  0  0  0  0  0  0
  185.7600  179.8840  142.7250 C   0  0  0  0  0  1  0  0  0  0  0  0
  184.9690  177.6440  143.0260 O   0  0  0  0  0  1  0  0  0  0  0  0
  186.0800  178.4040  142.6530 C   0  0  2  0  0  3  0  0  0  0  0  0
  189.9650  173.8100  135.1420 O   0  0  0  0  0  0  0  0  0  0  0  0
  189.7080  172.7610  136.0250 C   0  0  0  0  0  2  0  0  0  0  0  0
  188.2980  172.9010  136.5630 C   0  0  0  0  0  2  0  0  0  0  0  0
  182.1590  175.2310  136.9970 C   0  0  1  0  0  3  0  0  0  0  0  0
  186.1450  174.9580  134.7210 C   0  0  0  0  0  3  0  0  0  0  0  0
  181.2420  176.4060  138.6650 O   0  0  0  0  0  0  0  0  0  0  0  0
  182.6880  177.5410  137.0520 C   0  0  0  0  0  0  0  0  0  0  0  0
  182.2340  178.6890  137.3070 O   0  0  0  0  0  0  0  0  0  0  0  0
  186.7340  171.6260  135.2540 O   0  0  0  0  0  0  0  0  0  0  0  0
  182.7830  172.6510  135.8480 O   0  0  0  0  0  0  0  0  0  0  0  0
  185.3660  171.7350  135.2940 N   0  0  0  0  0  2  0  0  0  0  0  0
  187.2950  172.9200  135.4230 C   0  0  1  0  0  3  0  0  0  0  0  0
  183.7200  173.4940  135.8820 C   0  0  0  0  0  0  0  0  0  0  0  0
  184.0610  175.9850  135.6600 C   0  0  0  0  0  0  0  0  0  0  0  0
  182.3990  176.3630  137.9120 C   0  0  2  0  0  3  0  0  0  0  0  0
  180.9110  175.0280  138.7660 C   0  0  0  0  0  2  0  0  0  0  0  0
  185.0580  173.0560  135.6270 N   0  0  0  0  0  0  0  0  0  0  0  0
  183.4120  174.9110  136.2120 C   0  0  0  0  0  0  0  0  0  0  0  0
  183.5900  177.3220  135.9590 N   0  0  0  0  0  2  0  0  0  0  0  0
  181.6600  174.2540  137.8400 O   0  0  0  0  0  0  0  0  0  0  0  0
  186.2010  173.8840  135.7520 C   0  0  2  0  0  3  0  0  0  0  0  0
  185.1940  175.8900  134.7120 C   0  0  0  0  0  3  0  0  0  0  0  0
  1 13  1  6  0  0  0
  1  2  1  0  0  0  0
  2  8  2  0  0  0  0
  3  5  1  0  0  0  0
  5 11  1  0  0  0  0
  5  9  2  0  0  0  0
  7  4  1  1  0  0  0
  7  9  1  0  0  0  0
  8  4  1  0  0  0  0
  9  6  1  0  0  0  0
 10  3  1  1  0  0  0
 10  7  1  0  0  0  0
 12 10  1  0  0  0  0
 12  2  1  0  0  0  0
 13 14  1  0  0  0  0
 14 15  1  0  0  0  0
 15 18  1  0  0  0  0
 16 18  1  0  0  0  0
 17 14  2  0  0  0  0
 17 16  1  0  0  0  0
 18 19  1  1  0  0  0
 19 22  2  0  0  0  0
 20 24  1  0  0  0  0
 21 23  2  0  0  0  0
 22 20  1  0  0  0  0
 22 21  1  0  0  0  0
 24 23  1  0  0  0  0
 24 25  1  1  0  0  0
 25 38  1  6  0  0  0
 26 29  1  1  0  0  0
 27 31  1  0  0  0  0
 28 27  1  1  0  0  0
 28 26  1  0  0  0  0
 29 34  1  0  0  0  0
 31 34  2  0  0  0  0
 32 35  1  0  0  0  0
 33 25  1  6  0  0  0
 33 32  1  0  0  0  0
 33 28  1  0  0  0  0
 35 26  1  0  0  0  0
 35 30  2  0  0  0  0
 38 36  1  1  0  0  0
 38 37  1  0  0  0  0
 39  1  1  0  0  0  0
 39 40  1  0  0  0  0
 40 41  1  0  0  0  0
 42 56  1  1  0  0  0
 42 58  1  0  0  0  0
 42 53  1  0  0  0  0
 44 54  1  0  0  0  0
 45 46  2  0  0  0  0
 47 49  1  0  0  0  0
 47 50  1  0  0  0  0
 48 51  2  0  0  0  0
 49 55  1  0  0  0  0
 50 59  1  0  0  0  0
 50 41  1  1  0  0  0
 51 56  1  0  0  0  0
 52 57  1  0  0  0  0
 52 56  2  0  0  0  0
 53 45  1  6  0  0  0
 53 44  1  0  0  0  0
 55 59  1  0  0  0  0
 55 51  1  0  0  0  0
 57 45  1  0  0  0  0
 58 54  1  0  0  0  0
 59 43  1  6  0  0  0
 60 43  2  0  0  0  0
 60 52  1  0  0  0  0
M  END
>  <MODEL>
7

>  <REMARK>
 VINA RESULT:      -8.2      2.896      9.250
  Name = 
  12 active torsions:
  status: ('A' for Active; 'I' for Inactive)
    1  A    between atoms: N_3  and  C_34
    2  A    between atoms: N_3  and  C_44
    3  A    between atoms: C_8  and  C_13
    4  A    between atoms: C_9  and  C_19
    5  A    between atoms: C_13  and  C_19
    6  A    between atoms: C_13  and  O_57
    7  A    between atoms: C_23  and  C_27
    8  A    between atoms: C_23  and  C_60
    9  A    between atoms: C_29  and  C_51
   10  A    between atoms: C_29  and  C_55
   11  A    between atoms: C_29  and  C_56
   12  A    between atoms: O_57  and  C_60
                            x       y       z     vdW  Elec       q    Type
                         _______ _______ _______ _____ _____    ______ ____

>  <TORSDO>
F 12

$$$$
=
 OpenBabel10222421383D

 60 69  0  0  1  0  0  0  0  0999 V2000
  187.2440  178.3800  137.0510 C   0  0  1  0  0  3  0  0  0  0  0  0
  185.8710  178.3530  137.6460 C   0  0  0  0  0  0  0  0  0  0  0  0
  184.2230  179.4160  140.7590 C   0  0  0  0  0  2  0  0  0  0  0  0
  183.6420  177.3280  137.7310 C   0  0  0  0  0  2  0  0  0  0  0  0
  183.6410  178.3360  141.2640 C   0  0  0  0  0  0  0  0  0  0  0  0
  182.7910  176.1740  140.3450 F   0  0  0  0  0  0  0  0  0  0  0  0
  183.5090  178.0290  139.0430 C   0  0  1  0  0  3  0  0  0  0  0  0
  185.0170  177.4550  137.2340 N   0  0  0  0  0  0  0  0  0  0  0  0
  183.2080  177.4560  140.1940 C   0  0  0  0  0  0  0  0  0  0  0  0
  184.1750  179.3420  139.2580 C   0  0  2  0  0  3  0  0  0  0  0  0
  183.5370  178.0390  142.7170 C   0  0  0  0  0  1  0  0  0  0  0  0
  185.5230  179.2750  138.7020 N   0  0  0  0  0  2  0  0  0  0  0  0
  187.1450  178.3400  135.5320 C   0  0  0  0  0  2  0  0  0  0  0  0
  187.6630  177.0430  135.0030 C   0  0  0  0  0  0  0  0  0  0  0  0
  189.3910  176.8020  134.6420 S   0  0  0  0  0  0  0  0  0  0  0  0
  187.5740  174.8100  134.4660 C   0  0  0  0  0  2  0  0  0  0  0  0
  186.9180  176.0080  134.9100 N   0  0  0  0  0  0  0  0  0  0  0  0
  189.0710  175.0050  134.6810 C   0  0  2  0  0  3  0  0  0  0  0  0
  189.4420  174.4670  135.9810 N   0  0  0  0  0  2  0  0  0  0  0  0
  191.5930  174.6460  137.0800 C   0  0  0  0  0  3  0  0  0  0  0  0
  191.3960  172.8280  135.7470 C   0  0  0  0  0  3  0  0  0  0  0  0
  190.7640  174.0160  136.2770 C   0  0  0  0  0  0  0  0  0  0  0  0
  192.5930  172.7390  136.2170 N   0  0  0  0  0  0  0  0  0  0  0  0
  192.8770  173.8620  137.1100 C   0  0  1  0  0  3  0  0  0  0  0  0
  194.0690  174.6870  136.5800 C   0  0  2  0  0  3  0  0  0  0  0  0
  197.4700  173.2780  137.2950 C   0  0  1  0  0  3  0  0  0  0  0  0
  195.6140  171.9090  138.0830 C   0  0  0  0  0  2  0  0  0  0  0  0
  195.9790  173.0690  137.1670 C   0  0  1  0  0  3  0  0  0  0  0  0
  198.1480  172.1640  136.5110 C   0  0  0  0  0  2  0  0  0  0  0  0
  198.6580  175.2150  136.4430 O   0  0  0  0  0  0  0  0  0  0  0  0
  196.4700  170.7060  137.7120 C   0  0  0  0  0  3  0  0  0  0  0  0
  196.3890  175.3350  136.9570 O   0  0  0  0  0  0  0  0  0  0  0  0
  195.3580  174.4530  137.4030 C   0  0  1  0  0  3  0  0  0  0  0  0
  197.6390  170.8260  137.0320 C   0  0  0  0  0  3  0  0  0  0  0  0
  197.5910  174.6660  136.8260 C   0  0  0  0  0  0  0  0  0  0  0  0
  194.4930  176.9200  135.4550 C   0  0  0  0  0  1  0  0  0  0  0  0
  193.8570  176.8050  137.7600 O   0  0  0  0  0  1  0  0  0  0  0  0
  193.7020  176.1850  136.5180 C   0  0  2  0  0  3  0  0  0  0  0  0
  187.9310  179.5310  137.4520 O   0  0  0  0  0  0  0  0  0  0  0  0
  189.1840  179.0810  137.8690 C   0  0  0  0  0  2  0  0  0  0  0  0
  189.2070  179.0170  139.3840 C   0  0  0  0  0  2  0  0  0  0  0  0
  190.1400  176.5350  145.4070 C   0  0  1  0  0  3  0  0  0  0  0  0
  187.3210  177.4770  141.8980 C   0  0  0  0  0  3  0  0  0  0  0  0
  191.0030  177.5540  147.2020 O   0  0  0  0  0  0  0  0  0  0  0  0
  188.6750  177.9780  146.5860 C   0  0  0  0  0  0  0  0  0  0  0  0
  188.3450  178.3890  147.7310 O   0  0  0  0  0  0  0  0  0  0  0  0
  189.4630  176.6250  139.3650 O   0  0  0  0  0  0  0  0  0  0  0  0
  190.5750  175.0040  142.9910 O   0  0  0  0  0  0  0  0  0  0  0  0
  189.8670  175.8460  140.4210 N   0  0  0  0  0  2  0  0  0  0  0  0
  188.6610  177.6850  139.8660 C   0  0  1  0  0  3  0  0  0  0  0  0
  189.8130  176.0040  142.8960 C   0  0  0  0  0  0  0  0  0  0  0  0
  188.0940  177.2400  144.2710 C   0  0  0  0  0  0  0  0  0  0  0  0
  190.0940  177.7860  146.1880 C   0  0  2  0  0  3  0  0  0  0  0  0
  191.9820  176.7680  146.5370 C   0  0  0  0  0  2  0  0  0  0  0  0
  189.4490  176.4770  141.5950 N   0  0  0  0  0  0  0  0  0  0  0  0
  189.3380  176.6790  144.1320 C   0  0  0  0  0  0  0  0  0  0  0  0
  187.6930  177.7560  145.5630 N   0  0  0  0  0  2  0  0  0  0  0  0
  191.4980  176.2960  145.2890 O   0  0  0  0  0  0  0  0  0  0  0  0
  188.6980  177.6560  141.3610 C   0  0  2  0  0  3  0  0  0  0  0  0
  187.0770  177.3110  143.1970 C   0  0  0  0  0  3  0  0  0  0  0  0
  1 13  1  6  0  0  0
  1 39  1  0  0  0  0
  1  2  1  0  0  0  0
  2 12  1  0  0  0  0
  3  5  1  0  0  0  0
  5 11  1  0  0  0  0
  7  4  1  1  0  0  0
  7 10  1  0  0  0  0
  7  9  1  0  0  0  0
  8  2  2  0  0  0  0
  8  4  1  0  0  0  0
  9  6  1  0  0  0  0
  9  5  2  0  0  0  0
 10  3  1  1  0  0  0
 12 10  1  0  0  0  0
 14 13  1  0  0  0  0
 15 18  1  0  0  0  0
 15 14  1  0  0  0  0
 16 18  1  0  0  0  0
 16 17  1  0  0  0  0
 17 14  2  0  0  0  0
 18 19  1  1  0  0  0
 19 22  1  0  0  0  0
 20 24  1  0  0  0  0
 21 23  2  0  0  0  0
 21 22  1  0  0  0  0
 22 20  2  0  0  0  0
 23 24  1  0  0  0  0
 24 25  1  6  0  0  0
 25 38  1  1  0  0  0
 26 29  1  6  0  0  0
 28 26  1  0  0  0  0
 28 33  1  0  0  0  0
 28 27  1  1  0  0  0
 29 34  1  0  0  0  0
 30 35  2  0  0  0  0
 31 27  1  0  0  0  0
 32 33  1  0  0  0  0
 33 25  1  6  0  0  0
 34 31  2  0  0  0  0
 35 32  1  0  0  0  0
 35 26  1  0  0  0  0
 38 36  1  6  0  0  0
 38 37  1  0  0  0  0
 39 40  1  0  0  0  0
 40 41  1  0  0  0  0
 42 56  1  6  0  0  0
 42 53  1  0  0  0  0
 43 60  2  0  0  0  0
 45 46  2  0  0  0  0
 47 50  1  0  0  0  0
 47 49  1  0  0  0  0
 49 55  1  0  0  0  0
 50 41  1  6  0  0  0
 50 59  1  0  0  0  0
 51 48  2  0  0  0  0
 51 56  1  0  0  0  0
 52 57  1  0  0  0  0
 53 45  1  1  0  0  0
 53 44  1  0  0  0  0
 54 44  1  0  0  0  0
 55 51  1  0  0  0  0
 56 52  2  0  0  0  0
 57 45  1  0  0  0  0
 58 42  1  0  0  0  0
 58 54  1  0  0  0  0
 59 55  1  0  0  0  0
 59 43  1  1  0  0  0
 60 52  1  0  0  0  0
M  END
>  <MODEL>
8

>  <REMARK>
 VINA RESULT:      -8.2      2.652      6.705
  Name = 
  12 active torsions:
  status: ('A' for Active; 'I' for Inactive)
    1  A    between atoms: N_3  and  C_34
    2  A    between atoms: N_3  and  C_44
    3  A    between atoms: C_8  and  C_13
    4  A    between atoms: C_9  and  C_19
    5  A    between atoms: C_13  and  C_19
    6  A    between atoms: C_13  and  O_57
    7  A    between atoms: C_23  and  C_27
    8  A    between atoms: C_23  and  C_60
    9  A    between atoms: C_29  and  C_51
   10  A    between atoms: C_29  and  C_55
   11  A    between atoms: C_29  and  C_56
   12  A    between atoms: O_57  and  C_60
                            x       y       z     vdW  Elec       q    Type
                         _______ _______ _______ _____ _____    ______ ____

>  <TORSDO>
F 12

$$$$
=
 OpenBabel10222421383D

 60 69  0  0  1  0  0  0  0  0999 V2000
  190.0660  174.6660  136.3000 C   0  0  1  0  0  3  0  0  0  0  0  0
  191.4600  174.4010  135.8230 C   0  0  0  0  0  0  0  0  0  0  0  0
  194.0320  171.7990  136.2090 C   0  0  0  0  0  2  0  0  0  0  0  0
  193.5880  175.2830  134.9730 C   0  0  0  0  0  2  0  0  0  0  0  0
  195.1150  172.4080  136.6740 C   0  0  0  0  0  0  0  0  0  0  0  0
  196.0200  174.7360  136.6070 F   0  0  0  0  0  0  0  0  0  0  0  0
  194.1480  173.9560  135.3660 C   0  0  1  0  0  3  0  0  0  0  0  0
  192.2100  175.4080  135.4630 N   0  0  0  0  0  0  0  0  0  0  0  0
  195.1830  173.7640  136.1620 C   0  0  0  0  0  0  0  0  0  0  0  0
  193.3010  172.7350  135.2870 C   0  0  2  0  0  3  0  0  0  0  0  0
  196.0630  171.8070  137.6490 C   0  0  0  0  0  1  0  0  0  0  0  0
  191.9780  173.0540  135.8180 N   0  0  0  0  0  2  0  0  0  0  0  0
  189.6130  176.0390  135.8230 C   0  0  0  0  0  2  0  0  0  0  0  0
  189.6710  177.0310  136.9390 C   0  0  0  0  0  0  0  0  0  0  0  0
  188.9480  178.6520  136.7900 S   0  0  0  0  0  0  0  0  0  0  0  0
  190.0380  177.7490  139.0910 C   0  0  0  0  0  2  0  0  0  0  0  0
  190.1230  176.7180  138.0940 N   0  0  0  0  0  0  0  0  0  0  0  0
  189.0040  178.7620  138.6110 C   0  0  2  0  0  3  0  0  0  0  0  0
  187.7030  178.4200  139.1650 N   0  0  0  0  0  2  0  0  0  0  0  0
  188.3810  178.3300  141.4890 C   0  0  0  0  0  3  0  0  0  0  0  0
  186.1410  178.4750  141.1930 C   0  0  0  0  0  3  0  0  0  0  0  0
  187.4440  178.4100  140.5690 C   0  0  0  0  0  0  0  0  0  0  0  0
  186.2820  178.4300  142.4740 N   0  0  0  0  0  0  0  0  0  0  0  0
  187.6980  178.3320  142.8290 C   0  0  1  0  0  3  0  0  0  0  0  0
  187.9690  177.0320  143.6160 C   0  0  2  0  0  3  0  0  0  0  0  0
  186.5500  178.1150  146.9150 C   0  0  1  0  0  3  0  0  0  0  0  0
  188.5650  176.7520  147.0710 C   0  0  0  0  0  2  0  0  0  0  0  0
  187.7170  177.5800  146.1150 C   0  0  1  0  0  3  0  0  0  0  0  0
  187.0810  179.2530  147.7740 C   0  0  0  0  0  2  0  0  0  0  0  0
  184.5890  179.1610  145.9420 O   0  0  0  0  0  0  0  0  0  0  0  0
  188.9420  177.6180  148.2650 C   0  0  0  0  0  3  0  0  0  0  0  0
  185.8840  177.6660  144.7090 O   0  0  0  0  0  0  0  0  0  0  0  0
  187.0870  176.9170  144.8830 C   0  0  1  0  0  3  0  0  0  0  0  0
  188.2450  178.7310  148.6060 C   0  0  0  0  0  3  0  0  0  0  0  0
  185.5950  178.4090  145.8380 C   0  0  0  0  0  0  0  0  0  0  0  0
  190.1540  178.2660  143.9880 C   0  0  0  0  0  1  0  0  0  0  0  0
  190.1310  176.0480  143.0880 O   0  0  0  0  0  1  0  0  0  0  0  0
  189.4690  176.9140  143.9600 C   0  0  2  0  0  3  0  0  0  0  0  0
  189.1900  173.6850  135.8230 O   0  0  0  0  0  0  0  0  0  0  0  0
  188.6360  173.1040  136.9640 C   0  0  0  0  0  2  0  0  0  0  0  0
  187.2580  172.5690  136.6280 C   0  0  0  0  0  2  0  0  0  0  0  0
  181.8550  175.9900  138.1800 C   0  0  1  0  0  3  0  0  0  0  0  0
  186.0450  175.8360  136.2920 C   0  0  0  0  0  3  0  0  0  0  0  0
  180.9180  176.2530  140.1940 O   0  0  0  0  0  0  0  0  0  0  0  0
  182.8770  177.5900  139.6000 C   0  0  0  0  0  0  0  0  0  0  0  0
  182.6560  178.4760  140.4690 O   0  0  0  0  0  0  0  0  0  0  0  0
  185.7380  172.7790  134.7760 O   0  0  0  0  0  0  0  0  0  0  0  0
  182.0890  174.4380  135.7500 O   0  0  0  0  0  0  0  0  0  0  0  0
  184.4510  173.2550  134.8360 N   0  0  0  0  0  2  0  0  0  0  0  0
  186.5350  173.5190  135.6900 C   0  0  1  0  0  3  0  0  0  0  0  0
  183.1680  174.7900  136.3000 C   0  0  0  0  0  0  0  0  0  0  0  0
  184.1070  176.7420  137.5970 C   0  0  0  0  0  0  0  0  0  0  0  0
  182.1610  176.2870  139.5920 C   0  0  2  0  0  3  0  0  0  0  0  0
  180.2670  175.2280  139.4550 C   0  0  0  0  0  2  0  0  0  0  0  0
  184.3930  174.1870  135.8730 N   0  0  0  0  0  0  0  0  0  0  0  0
  183.1320  175.7980  137.3920 C   0  0  0  0  0  0  0  0  0  0  0  0
  183.9050  177.7540  138.6120 N   0  0  0  0  0  2  0  0  0  0  0  0
  180.9880  174.9150  138.2720 O   0  0  0  0  0  0  0  0  0  0  0  0
  185.6470  174.4150  136.4940 C   0  0  2  0  0  3  0  0  0  0  0  0
  185.3540  176.8510  136.8070 C   0  0  0  0  0  3  0  0  0  0  0  0
  1 13  1  6  0  0  0
  2  1  1  0  0  0  0
  3  5  1  0  0  0  0
  4  8  1  0  0  0  0
  5 11  1  0  0  0  0
  7  4  1  1  0  0  0
  7  9  1  0  0  0  0
  8  2  2  0  0  0  0
  9  6  1  0  0  0  0
  9  5  2  0  0  0  0
 10  7  1  0  0  0  0
 10 12  1  0  0  0  0
 10  3  1  1  0  0  0
 12  2  1  0  0  0  0
 13 14  1  0  0  0  0
 14 17  2  0  0  0  0
 15 14  1  0  0  0  0
 15 18  1  0  0  0  0
 17 16  1  0  0  0  0
 18 16  1  0  0  0  0
 18 19  1  1  0  0  0
 19 22  1  0  0  0  0
 20 24  1  0  0  0  0
 21 23  2  0  0  0  0
 22 21  1  0  0  0  0
 22 20  2  0  0  0  0
 23 24  1  0  0  0  0
 24 25  1  6  0  0  0
 25 38  1  1  0  0  0
 26 29  1  6  0  0  0
 27 31  1  0  0  0  0
 28 26  1  0  0  0  0
 28 27  1  1  0  0  0
 29 34  1  0  0  0  0
 31 34  2  0  0  0  0
 32 33  1  0  0  0  0
 32 35  1  0  0  0  0
 33 25  1  6  0  0  0
 33 28  1  0  0  0  0
 35 30  2  0  0  0  0
 35 26  1  0  0  0  0
 37 38  1  0  0  0  0
 38 36  1  6  0  0  0
 39  1  1  0  0  0  0
 39 40  1  0  0  0  0
 41 40  1  0  0  0  0
 42 56  1  6  0  0  0
 42 58  1  0  0  0  0
 42 53  1  0  0  0  0
 43 60  2  0  0  0  0
 45 46  2  0  0  0  0
 47 49  1  0  0  0  0
 47 50  1  0  0  0  0
 48 51  2  0  0  0  0
 49 55  1  0  0  0  0
 50 59  1  0  0  0  0
 50 41  1  1  0  0  0
 51 56  1  0  0  0  0
 52 57  1  0  0  0  0
 53 45  1  6  0  0  0
 53 44  1  0  0  0  0
 54 44  1  0  0  0  0
 55 51  1  0  0  0  0
 55 59  1  0  0  0  0
 56 52  2  0  0  0  0
 57 45  1  0  0  0  0
 58 54  1  0  0  0  0
 59 43  1  6  0  0  0
 60 52  1  0  0  0  0
M  END
>  <MODEL>
9

>  <REMARK>
 VINA RESULT:      -8.2      3.093      9.382
  Name = 
  12 active torsions:
  status: ('A' for Active; 'I' for Inactive)
    1  A    between atoms: N_3  and  C_34
    2  A    between atoms: N_3  and  C_44
    3  A    between atoms: C_8  and  C_13
    4  A    between atoms: C_9  and  C_19
    5  A    between atoms: C_13  and  C_19
    6  A    between atoms: C_13  and  O_57
    7  A    between atoms: C_23  and  C_27
    8  A    between atoms: C_23  and  C_60
    9  A    between atoms: C_29  and  C_51
   10  A    between atoms: C_29  and  C_55
   11  A    between atoms: C_29  and  C_56
   12  A    between atoms: O_57  and  C_60
                            x       y       z     vdW  Elec       q    Type
                         _______ _______ _______ _____ _____    ______ ____

>  <TORSDO>
F 12

$$$$
