=
 OpenBabel10232412023D

 41 44  0  0  1  0  0  0  0  0999 V2000
  189.2510  175.6010  135.4000 C   0  0  0  0  0  0  0  0  0  0  0  0
  189.1570  178.5140  137.1310 C   0  0  0  0  0  2  0  0  0  0  0  0
  188.5230  178.0550  135.8230 C   0  0  0  0  0  2  0  0  0  0  0  0
  187.3460  172.4540  136.1310 N   0  0  0  0  0  2  0  0  0  0  0  0
  187.5340  170.2290  135.4930 O   0  0  0  0  0  0  0  0  0  0  0  0
  187.5120  176.0380  137.0930 C   0  0  1  0  0  3  0  0  0  0  0  0
  187.0470  174.6680  136.8850 N   0  0  0  0  0  0  0  0  0  0  0  0
  187.7660  173.8230  136.1920 C   0  0  0  0  0  0  0  0  0  0  0  0
  187.9600  171.4090  135.3660 C   0  0  0  0  0  0  0  0  0  0  0  0
  188.1520  176.5660  135.8040 C   0  0  2  0  0  3  0  0  0  0  0  0
  188.2160  178.5910  138.3530 C   0  0  1  0  0  3  0  0  0  0  0  0
  189.0250  174.2890  135.5400 C   0  0  0  0  0  3  0  0  0  0  0  0
  186.7770  178.1210  138.1610 C   0  0  0  0  0  3  0  0  0  0  0  0
  186.4430  176.9430  137.6130 C   0  0  0  0  0  3  0  0  0  0  0  0
  188.8800  177.9330  139.5270 C   0  0  0  0  0  0  0  0  0  0  0  0
  189.9960  177.3530  139.3830 O   0  0  0  0  0  0  0  0  0  0  0  0
  188.2820  178.0330  140.8240 N   0  0  0  0  0  2  0  0  0  0  0  0
  189.0000  177.7120  142.0620 C   0  0  0  0  0  2  0  0  0  0  0  0
  187.2640  177.3520  145.8540 S   0  0  0  0  0  0  0  0  0  0  0  0
  188.9770  178.4640  147.6740 C   0  0  0  0  0  1  0  0  0  0  0  0
  189.8130  176.5330  146.1960 C   0  0  1  0  0  3  0  0  0  0  0  0
  188.6520  177.1270  147.0150 C   0  0  2  0  0  3  0  0  0  0  0  0
  189.6390  176.9180  144.8120 N   0  0  0  0  0  0  0  0  0  0  0  0
  188.4400  177.2960  144.5190 C   0  0  0  0  0  0  0  0  0  0  0  0
  188.0980  177.7610  143.2120 N   0  0  0  0  0  2  0  0  0  0  0  0
  191.2110  176.8780  146.6960 C   0  0  0  0  0  2  0  0  0  0  0  0
  192.9360  176.1470  148.1760 O   0  0  0  0  0  1  0  0  0  0  0  0
  191.7410  175.7570  147.5720 C   0  0  0  0  0  2  0  0  0  0  0  0
  189.0250  171.6860  134.4940 O   0  0  0  0  0  0  0  0  0  0  0  0
  190.2350  170.9310  134.5210 C   0  0  0  0  0  1  0  0  0  0  0  0
  190.8860  176.1580  134.9040 S   0  0  0  0  0  0  0  0  0  0  0  0
  191.7880  175.0880  136.0740 C   0  0  2  0  0  3  0  0  0  0  0  0
  192.0190  175.8660  137.3520 C   0  0  0  0  0  2  0  0  0  0  0  0
  193.4550  175.6010  137.7010 C   0  0  0  0  0  2  0  0  0  0  0  0
  193.9710  174.7170  136.5790 C   0  0  2  0  0  3  0  0  0  0  0  0
  193.0340  174.7090  135.5280 O   0  0  0  0  0  0  0  0  0  0  0  0
  194.2300  173.2920  137.0810 C   0  0  1  0  0  3  0  0  0  0  0  0
  194.3770  172.3260  135.9100 C   0  0  0  0  0  2  0  0  0  0  0  0
  193.8590  171.0220  136.2800 N   0  0  0  0  0  1  0  0  0  0  0  0
  195.4810  172.6650  138.9870 O   0  0  0  0  0  0  0  0  0  0  0  0
  195.4690  173.2620  137.9230 C   0  0  0  0  0  3  0  0  0  0  0  0
  1 12  2  0  0  0  0
  1 10  1  0  0  0  0
  2 11  1  0  0  0  0
  3  2  1  0  0  0  0
  4  8  1  0  0  0  0
  6 14  1  6  0  0  0
  7  6  1  0  0  0  0
  8  7  2  0  0  0  0
  9  5  2  0  0  0  0
  9  4  1  0  0  0  0
 10  3  1  1  0  0  0
 10  6  1  0  0  0  0
 11 15  1  1  0  0  0
 12  8  1  0  0  0  0
 13 11  1  0  0  0  0
 14 13  2  0  0  0  0
 15 17  1  0  0  0  0
 16 15  2  0  0  0  0
 17 18  1  0  0  0  0
 18 25  1  0  0  0  0
 19 22  1  0  0  0  0
 21 26  1  1  0  0  0
 21 22  1  0  0  0  0
 22 20  1  6  0  0  0
 23 21  1  0  0  0  0
 24 23  2  0  0  0  0
 24 19  1  0  0  0  0
 25 24  1  0  0  0  0
 26 28  1  0  0  0  0
 28 27  1  0  0  0  0
 29 30  1  0  0  0  0
 29  9  1  0  0  0  0
 31  1  1  0  0  0  0
 32 31  1  6  0  0  0
 32 33  1  0  0  0  0
 33 34  1  0  0  0  0
 35 37  1  1  0  0  0
 35 34  1  0  0  0  0
 36 32  1  0  0  0  0
 36 35  1  0  0  0  0
 37 38  1  6  0  0  0
 37 41  1  0  0  0  0
 38 39  1  0  0  0  0
 41 40  2  0  0  0  0
M  END
>  <MODEL>
1

>  <REMARK>
 VINA RESULT:      -6.7      0.000      0.000
  Name = 
  11 active torsions:
  status: ('A' for Active; 'I' for Inactive)
    1  A    between atoms: C_1  and  S_21
    2  A    between atoms: C_3  and  S_21
    3  A    between atoms: C_9  and  C_28
    4  A    between atoms: C_10  and  C_15
    5  A    between atoms: C_12  and  N_29
    6  A    between atoms: C_12  and  N_41
    7  A    between atoms: C_13  and  C_30
    8  A    between atoms: C_13  and  C_34
    9  A    between atoms: C_14  and  C_15
   10  A    between atoms: C_15  and  C_26
   11  A    between atoms: C_24  and  O_35
                            x       y       z     vdW  Elec       q    Type
                         _______ _______ _______ _____ _____    ______ ____

>  <TORSDO>
F 11

$$$$
=
 OpenBabel10232412023D

 41 44  0  0  1  0  0  0  0  0999 V2000
  184.5620  176.6980  136.8530 C   0  0  0  0  0  0  0  0  0  0  0  0
  183.9690  179.3690  138.8530 C   0  0  0  0  0  2  0  0  0  0  0  0
  183.2850  178.8270  137.6040 C   0  0  0  0  0  2  0  0  0  0  0  0
  183.6960  173.1110  137.5250 N   0  0  0  0  0  2  0  0  0  0  0  0
  184.3660  171.0650  136.6560 O   0  0  0  0  0  0  0  0  0  0  0  0
  183.0540  176.5410  138.7980 C   0  0  1  0  0  3  0  0  0  0  0  0
  182.9420  175.1100  138.5220 N   0  0  0  0  0  0  0  0  0  0  0  0
  183.7430  174.5370  137.6610 C   0  0  0  0  0  0  0  0  0  0  0  0
  184.4390  172.3220  136.5870 C   0  0  0  0  0  0  0  0  0  0  0  0
  183.3230  177.2980  137.4910 C   0  0  2  0  0  3  0  0  0  0  0  0
  183.2430  179.1140  140.1930 C   0  0  1  0  0  3  0  0  0  0  0  0
  184.7170  175.3690  136.8950 C   0  0  0  0  0  3  0  0  0  0  0  0
  181.9680  178.2760  140.1500 C   0  0  0  0  0  3  0  0  0  0  0  0
  181.8780  177.0840  139.5400 C   0  0  0  0  0  3  0  0  0  0  0  0
  184.2300  178.6000  141.1980 C   0  0  0  0  0  0  0  0  0  0  0  0
  183.9790  177.5470  141.8550 O   0  0  0  0  0  0  0  0  0  0  0  0
  185.4880  179.2640  141.3560 N   0  0  0  0  0  2  0  0  0  0  0  0
  186.6260  178.6650  142.0610 C   0  0  0  0  0  2  0  0  0  0  0  0
  186.6260  177.3190  146.0250 S   0  0  0  0  0  0  0  0  0  0  0  0
  188.7610  178.4580  147.3020 C   0  0  0  0  0  1  0  0  0  0  0  0
  189.1820  177.0230  145.2100 C   0  0  1  0  0  3  0  0  0  0  0  0
  188.3800  177.2100  146.5110 C   0  0  2  0  0  3  0  0  0  0  0  0
  188.4170  177.5840  144.1180 N   0  0  0  0  0  0  0  0  0  0  0  0
  187.1620  177.7390  144.3800 C   0  0  0  0  0  0  0  0  0  0  0  0
  186.2650  178.3280  143.4380 N   0  0  0  0  0  2  0  0  0  0  0  0
  190.6030  177.5730  145.2310 C   0  0  0  0  0  2  0  0  0  0  0  0
  191.9410  176.8540  147.0730 O   0  0  0  0  0  1  0  0  0  0  0  0
  191.5580  176.5240  145.7730 C   0  0  0  0  0  2  0  0  0  0  0  0
  185.2450  172.9310  135.6120 O   0  0  0  0  0  0  0  0  0  0  0  0
  186.2640  172.2110  134.9200 C   0  0  0  0  0  1  0  0  0  0  0  0
  185.8940  177.7120  136.1990 S   0  0  0  0  0  0  0  0  0  0  0  0
  187.1330  177.1690  137.4230 C   0  0  2  0  0  3  0  0  0  0  0  0
  187.2430  178.2340  138.4940 C   0  0  0  0  0  2  0  0  0  0  0  0
  188.7200  178.4090  138.7010 C   0  0  0  0  0  2  0  0  0  0  0  0
  189.3680  177.4610  137.7070 C   0  0  2  0  0  3  0  0  0  0  0  0
  188.3900  177.0000  136.8030 O   0  0  0  0  0  0  0  0  0  0  0  0
  190.0320  176.2830  138.4280 C   0  0  1  0  0  3  0  0  0  0  0  0
  191.2190  175.7600  137.6260 C   0  0  0  0  0  2  0  0  0  0  0  0
  191.1980  174.3090  137.6080 N   0  0  0  0  0  1  0  0  0  0  0  0
  191.6650  176.9550  140.0010 O   0  0  0  0  0  0  0  0  0  0  0  0
  190.4890  176.7080  139.7900 C   0  0  0  0  0  3  0  0  0  0  0  0
  1 12  2  0  0  0  0
  1 10  1  0  0  0  0
  2 11  1  0  0  0  0
  3  2  1  0  0  0  0
  4  8  1  0  0  0  0
  6 14  1  6  0  0  0
  7  6  1  0  0  0  0
  8  7  2  0  0  0  0
  9  5  2  0  0  0  0
  9  4  1  0  0  0  0
 10  3  1  1  0  0  0
 10  6  1  0  0  0  0
 11 15  1  1  0  0  0
 12  8  1  0  0  0  0
 13 11  1  0  0  0  0
 14 13  2  0  0  0  0
 15 17  1  0  0  0  0
 15 16  2  0  0  0  0
 17 18  1  0  0  0  0
 18 25  1  0  0  0  0
 19 22  1  0  0  0  0
 21 26  1  1  0  0  0
 21 22  1  0  0  0  0
 22 20  1  6  0  0  0
 23 24  2  0  0  0  0
 23 21  1  0  0  0  0
 24 19  1  0  0  0  0
 25 24  1  0  0  0  0
 26 28  1  0  0  0  0
 28 27  1  0  0  0  0
 29  9  1  0  0  0  0
 30 29  1  0  0  0  0
 31  1  1  0  0  0  0
 32 31  1  6  0  0  0
 32 33  1  0  0  0  0
 33 34  1  0  0  0  0
 35 37  1  1  0  0  0
 35 34  1  0  0  0  0
 36 32  1  0  0  0  0
 36 35  1  0  0  0  0
 37 38  1  6  0  0  0
 37 41  1  0  0  0  0
 39 38  1  0  0  0  0
 41 40  2  0  0  0  0
M  END
>  <MODEL>
2

>  <REMARK>
 VINA RESULT:      -6.6      3.028      4.364
  Name = 
  11 active torsions:
  status: ('A' for Active; 'I' for Inactive)
    1  A    between atoms: C_1  and  S_21
    2  A    between atoms: C_3  and  S_21
    3  A    between atoms: C_9  and  C_28
    4  A    between atoms: C_10  and  C_15
    5  A    between atoms: C_12  and  N_29
    6  A    between atoms: C_12  and  N_41
    7  A    between atoms: C_13  and  C_30
    8  A    between atoms: C_13  and  C_34
    9  A    between atoms: C_14  and  C_15
   10  A    between atoms: C_15  and  C_26
   11  A    between atoms: C_24  and  O_35
                            x       y       z     vdW  Elec       q    Type
                         _______ _______ _______ _____ _____    ______ ____

>  <TORSDO>
F 11

$$$$
=
 OpenBabel10232412023D

 41 44  0  0  1  0  0  0  0  0999 V2000
  185.6110  176.1920  136.2410 C   0  0  0  0  0  0  0  0  0  0  0  0
  188.9800  176.0990  135.8760 C   0  0  0  0  0  2  0  0  0  0  0  0
  187.8580  176.7340  135.0630 C   0  0  0  0  0  2  0  0  0  0  0  0
  183.6330  178.3590  138.5780 N   0  0  0  0  0  2  0  0  0  0  0  0
  181.4660  178.3310  139.4110 O   0  0  0  0  0  0  0  0  0  0  0  0
  187.0620  177.9330  137.2150 C   0  0  1  0  0  3  0  0  0  0  0  0
  185.8660  178.5000  137.8360 N   0  0  0  0  0  0  0  0  0  0  0  0
  184.7410  177.8330  137.8360 C   0  0  0  0  0  0  0  0  0  0  0  0
  182.3100  177.8100  138.6330 C   0  0  0  0  0  0  0  0  0  0  0  0
  186.6770  177.2210  135.9120 C   0  0  2  0  0  3  0  0  0  0  0  0
  189.8220  177.0610  136.7430 C   0  0  1  0  0  3  0  0  0  0  0  0
  184.6600  176.5250  137.1220 C   0  0  0  0  0  3  0  0  0  0  0  0
  189.4010  178.5270  136.7730 C   0  0  0  0  0  3  0  0  0  0  0  0
  188.1470  178.9400  137.0170 C   0  0  0  0  0  3  0  0  0  0  0  0
  189.9710  176.4810  138.1180 C   0  0  0  0  0  0  0  0  0  0  0  0
  190.2900  175.2640  138.2640 O   0  0  0  0  0  0  0  0  0  0  0  0
  189.8260  177.3290  139.2620 N   0  0  0  0  0  2  0  0  0  0  0  0
  190.2640  176.9390  140.6070 C   0  0  0  0  0  2  0  0  0  0  0  0
  187.8760  176.8720  144.0440 S   0  0  0  0  0  0  0  0  0  0  0  0
  189.1060  178.3940  145.9550 C   0  0  0  0  0  1  0  0  0  0  0  0
  190.3750  176.3980  144.9470 C   0  0  1  0  0  3  0  0  0  0  0  0
  189.0320  176.9560  145.4520 C   0  0  2  0  0  3  0  0  0  0  0  0
  190.4350  176.5810  143.5130 N   0  0  0  0  0  0  0  0  0  0  0  0
  189.2850  176.7800  142.9600 C   0  0  0  0  0  0  0  0  0  0  0  0
  189.1590  177.0320  141.5600 N   0  0  0  0  0  2  0  0  0  0  0  0
  191.6160  176.9600  145.6290 C   0  0  0  0  0  2  0  0  0  0  0  0
  192.1120  176.7060  147.9510 O   0  0  0  0  0  1  0  0  0  0  0  0
  192.0690  176.0240  146.7350 C   0  0  0  0  0  2  0  0  0  0  0  0
  181.9550  176.7040  137.8430 O   0  0  0  0  0  0  0  0  0  0  0  0
  181.0230  176.8150  136.7700 C   0  0  0  0  0  1  0  0  0  0  0  0
  185.6790  174.5070  135.6230 S   0  0  0  0  0  0  0  0  0  0  0  0
  184.0450  174.0240  136.2750 C   0  0  2  0  0  3  0  0  0  0  0  0
  184.2410  172.8940  137.2650 C   0  0  0  0  0  2  0  0  0  0  0  0
  183.1780  171.8950  136.9110 C   0  0  0  0  0  2  0  0  0  0  0  0
  182.4610  172.4950  135.7140 C   0  0  2  0  0  3  0  0  0  0  0  0
  183.2100  173.5840  135.2260 O   0  0  0  0  0  0  0  0  0  0  0  0
  181.0450  172.9430  136.0930 C   0  0  1  0  0  3  0  0  0  0  0  0
  180.0390  172.5020  135.0360 C   0  0  0  0  0  2  0  0  0  0  0  0
  180.1510  171.0720  134.8160 N   0  0  0  0  0  1  0  0  0  0  0  0
  180.1650  173.0750  138.2840 O   0  0  0  0  0  0  0  0  0  0  0  0
  180.6660  172.3680  137.4240 C   0  0  0  0  0  3  0  0  0  0  0  0
  1 12  2  0  0  0  0
  2 11  1  0  0  0  0
  3  2  1  0  0  0  0
  4  9  1  0  0  0  0
  6 14  1  6  0  0  0
  6  7  1  0  0  0  0
  7  8  2  0  0  0  0
  8  4  1  0  0  0  0
  9  5  2  0  0  0  0
 10  3  1  1  0  0  0
 10  1  1  0  0  0  0
 10  6  1  0  0  0  0
 11 13  1  0  0  0  0
 11 15  1  1  0  0  0
 12  8  1  0  0  0  0
 13 14  2  0  0  0  0
 15 16  2  0  0  0  0
 15 17  1  0  0  0  0
 17 18  1  0  0  0  0
 18 25  1  0  0  0  0
 19 22  1  0  0  0  0
 21 22  1  0  0  0  0
 21 26  1  1  0  0  0
 22 20  1  6  0  0  0
 23 21  1  0  0  0  0
 24 23  2  0  0  0  0
 24 19  1  0  0  0  0
 25 24  1  0  0  0  0
 26 28  1  0  0  0  0
 28 27  1  0  0  0  0
 29  9  1  0  0  0  0
 30 29  1  0  0  0  0
 31  1  1  0  0  0  0
 32 31  1  6  0  0  0
 32 33  1  0  0  0  0
 34 33  1  0  0  0  0
 35 37  1  1  0  0  0
 35 34  1  0  0  0  0
 36 35  1  0  0  0  0
 36 32  1  0  0  0  0
 37 38  1  6  0  0  0
 37 41  1  0  0  0  0
 39 38  1  0  0  0  0
 41 40  2  0  0  0  0
M  END
>  <MODEL>
3

>  <REMARK>
 VINA RESULT:      -6.4      4.202      7.295
  Name = 
  11 active torsions:
  status: ('A' for Active; 'I' for Inactive)
    1  A    between atoms: C_1  and  S_21
    2  A    between atoms: C_3  and  S_21
    3  A    between atoms: C_9  and  C_28
    4  A    between atoms: C_10  and  C_15
    5  A    between atoms: C_12  and  N_29
    6  A    between atoms: C_12  and  N_41
    7  A    between atoms: C_13  and  C_30
    8  A    between atoms: C_13  and  C_34
    9  A    between atoms: C_14  and  C_15
   10  A    between atoms: C_15  and  C_26
   11  A    between atoms: C_24  and  O_35
                            x       y       z     vdW  Elec       q    Type
                         _______ _______ _______ _____ _____    ______ ____

>  <TORSDO>
F 11

$$$$
=
 OpenBabel10232412023D

 41 44  0  0  1  0  0  0  0  0999 V2000
  188.4250  178.2730  140.3220 C   0  0  0  0  0  0  0  0  0  0  0  0
  187.0290  177.8750  137.2590 C   0  0  0  0  0  2  0  0  0  0  0  0
  188.1620  178.7480  137.7850 C   0  0  0  0  0  2  0  0  0  0  0  0
  190.8830  176.0030  142.0170 N   0  0  0  0  0  2  0  0  0  0  0  0
  191.6250  175.7150  144.1990 O   0  0  0  0  0  0  0  0  0  0  0  0
  189.2900  176.6120  138.7170 C   0  0  1  0  0  3  0  0  0  0  0  0
  190.2060  176.1630  139.7650 N   0  0  0  0  0  0  0  0  0  0  0  0
  190.0560  176.5760  140.9970 C   0  0  0  0  0  0  0  0  0  0  0  0
  190.9130  176.3820  143.4000 C   0  0  0  0  0  0  0  0  0  0  0  0
  188.9690  178.0990  138.9160 C   0  0  2  0  0  3  0  0  0  0  0  0
  187.4480  176.6370  136.4360 C   0  0  1  0  0  3  0  0  0  0  0  0
  188.9960  177.5790  141.3130 C   0  0  0  0  0  3  0  0  0  0  0  0
  188.9420  176.3570  136.3020 C   0  0  0  0  0  3  0  0  0  0  0  0
  189.7900  176.3140  137.3420 C   0  0  0  0  0  3  0  0  0  0  0  0
  186.6840  175.4410  136.9220 C   0  0  0  0  0  0  0  0  0  0  0  0
  187.3030  174.4210  137.3460 O   0  0  0  0  0  0  0  0  0  0  0  0
  185.2550  175.4880  136.9750 N   0  0  0  0  0  2  0  0  0  0  0  0
  184.4490  174.5170  137.7220 C   0  0  0  0  0  2  0  0  0  0  0  0
  180.4600  175.7860  137.7010 S   0  0  0  0  0  0  0  0  0  0  0  0
  180.4410  178.5020  137.3770 C   0  0  0  0  0  1  0  0  0  0  0  0
  181.7060  177.4960  139.3770 C   0  0  1  0  0  3  0  0  0  0  0  0
  180.4620  177.4390  138.4700 C   0  0  2  0  0  3  0  0  0  0  0  0
  182.6860  176.5630  138.8660 N   0  0  0  0  0  0  0  0  0  0  0  0
  182.1960  175.6660  138.0760 C   0  0  0  0  0  0  0  0  0  0  0  0
  183.0260  174.6950  137.4370 N   0  0  0  0  0  2  0  0  0  0  0  0
  182.3100  178.8810  139.5740 C   0  0  0  0  0  2  0  0  0  0  0  0
  184.1070  180.2890  138.8760 O   0  0  0  0  0  1  0  0  0  0  0  0
  183.6390  178.9760  138.8480 C   0  0  0  0  0  2  0  0  0  0  0  0
  190.1570  177.4700  143.8650 O   0  0  0  0  0  0  0  0  0  0  0  0
  190.7490  178.7420  144.1220 C   0  0  0  0  0  1  0  0  0  0  0  0
  186.9520  179.2410  140.6690 S   0  0  0  0  0  0  0  0  0  0  0  0
  186.4450  178.2590  142.1200 C   0  0  2  0  0  3  0  0  0  0  0  0
  184.9490  178.0380  142.0490 C   0  0  0  0  0  2  0  0  0  0  0  0
  184.4590  178.3220  143.4390 C   0  0  0  0  0  2  0  0  0  0  0  0
  185.7000  178.7260  144.2150 C   0  0  2  0  0  3  0  0  0  0  0  0
  186.7570  178.9500  143.3110 O   0  0  0  0  0  0  0  0  0  0  0  0
  186.0830  177.6480  145.2340 C   0  0  1  0  0  3  0  0  0  0  0  0
  187.5930  177.4400  145.2580 C   0  0  0  0  0  2  0  0  0  0  0  0
  188.0990  177.6650  146.5990 N   0  0  0  0  0  1  0  0  0  0  0  0
  185.0100  179.0920  146.7690 O   0  0  0  0  0  0  0  0  0  0  0  0
  185.6030  178.0390  146.5980 C   0  0  0  0  0  3  0  0  0  0  0  0
  1 31  1  0  0  0  0
  1 12  2  0  0  0  0
  2  3  1  0  0  0  0
  4  9  1  0  0  0  0
  6 14  1  6  0  0  0
  6 10  1  0  0  0  0
  6  7  1  0  0  0  0
  7  8  2  0  0  0  0
  8 12  1  0  0  0  0
  8  4  1  0  0  0  0
  9 29  1  0  0  0  0
  9  5  2  0  0  0  0
 10  3  1  6  0  0  0
 10  1  1  0  0  0  0
 11 15  1  1  0  0  0
 11  2  1  0  0  0  0
 13 11  1  0  0  0  0
 13 14  2  0  0  0  0
 15 17  1  0  0  0  0
 15 16  2  0  0  0  0
 17 18  1  0  0  0  0
 19 24  1  0  0  0  0
 19 22  1  0  0  0  0
 21 26  1  6  0  0  0
 22 20  1  6  0  0  0
 22 21  1  0  0  0  0
 23 21  1  0  0  0  0
 24 23  2  0  0  0  0
 25 18  1  0  0  0  0
 25 24  1  0  0  0  0
 28 27  1  0  0  0  0
 28 26  1  0  0  0  0
 29 30  1  0  0  0  0
 32 31  1  6  0  0  0
 32 36  1  0  0  0  0
 33 32  1  0  0  0  0
 33 34  1  0  0  0  0
 34 35  1  0  0  0  0
 35 37  1  1  0  0  0
 36 35  1  0  0  0  0
 37 38  1  1  0  0  0
 37 41  1  0  0  0  0
 38 39  1  0  0  0  0
 41 40  2  0  0  0  0
M  END
>  <MODEL>
4

>  <REMARK>
 VINA RESULT:      -6.2      4.085      9.385
  Name = 
  11 active torsions:
  status: ('A' for Active; 'I' for Inactive)
    1  A    between atoms: C_1  and  S_21
    2  A    between atoms: C_3  and  S_21
    3  A    between atoms: C_9  and  C_28
    4  A    between atoms: C_10  and  C_15
    5  A    between atoms: C_12  and  N_29
    6  A    between atoms: C_12  and  N_41
    7  A    between atoms: C_13  and  C_30
    8  A    between atoms: C_13  and  C_34
    9  A    between atoms: C_14  and  C_15
   10  A    between atoms: C_15  and  C_26
   11  A    between atoms: C_24  and  O_35
                            x       y       z     vdW  Elec       q    Type
                         _______ _______ _______ _____ _____    ______ ____

>  <TORSDO>
F 11

$$$$
=
 OpenBabel10232412023D

 41 44  0  0  1  0  0  0  0  0999 V2000
  181.8610  176.7000  136.6950 C   0  0  0  0  0  0  0  0  0  0  0  0
  182.7120  179.5340  138.3470 C   0  0  0  0  0  2  0  0  0  0  0  0
  181.5010  179.1350  137.5120 C   0  0  0  0  0  2  0  0  0  0  0  0
  180.4930  173.5310  138.1640 N   0  0  0  0  0  2  0  0  0  0  0  0
  180.2840  171.3350  137.4370 O   0  0  0  0  0  0  0  0  0  0  0  0
  181.2050  177.0690  139.0440 C   0  0  1  0  0  3  0  0  0  0  0  0
  180.6630  175.7110  139.0450 N   0  0  0  0  0  0  0  0  0  0  0  0
  180.9220  174.8940  138.0560 C   0  0  0  0  0  0  0  0  0  0  0  0
  180.6200  172.5180  137.1570 C   0  0  0  0  0  0  0  0  0  0  0  0
  181.1330  177.6510  137.6270 C   0  0  2  0  0  3  0  0  0  0  0  0
  182.5060  179.5610  139.8780 C   0  0  1  0  0  3  0  0  0  0  0  0
  181.7020  175.3840  136.8820 C   0  0  0  0  0  3  0  0  0  0  0  0
  181.1500  179.1060  140.4110 C   0  0  0  0  0  3  0  0  0  0  0  0
  180.5590  177.9530  140.0590 C   0  0  0  0  0  3  0  0  0  0  0  0
  183.6480  178.8510  140.5420 C   0  0  0  0  0  0  0  0  0  0  0  0
  183.4830  177.6890  141.0190 O   0  0  0  0  0  0  0  0  0  0  0  0
  184.9420  179.4610  140.5650 N   0  0  0  0  0  2  0  0  0  0  0  0
  186.1680  178.7250  140.8920 C   0  0  0  0  0  2  0  0  0  0  0  0
  187.3350  177.5370  144.7330 S   0  0  0  0  0  0  0  0  0  0  0  0
  190.0440  177.8620  144.9290 C   0  0  0  0  0  1  0  0  0  0  0  0
  189.1040  176.3350  143.0860 C   0  0  1  0  0  3  0  0  0  0  0  0
  189.0010  176.8180  144.5450 C   0  0  2  0  0  3  0  0  0  0  0  0
  188.1880  177.1130  142.2810 N   0  0  0  0  0  0  0  0  0  0  0  0
  187.2660  177.7090  142.9620 C   0  0  0  0  0  0  0  0  0  0  0  0
  186.3050  178.5630  142.3390 N   0  0  0  0  0  2  0  0  0  0  0  0
  190.5070  176.3440  142.4910 C   0  0  0  0  0  2  0  0  0  0  0  0
  190.5780  176.0800  140.1190 O   0  0  0  0  0  1  0  0  0  0  0  0
  190.4930  177.0300  141.1370 C   0  0  0  0  0  2  0  0  0  0  0  0
  181.1180  172.8290  135.8810 O   0  0  0  0  0  0  0  0  0  0  0  0
  182.1950  172.1010  135.2960 C   0  0  0  0  0  1  0  0  0  0  0  0
  183.0470  177.2720  135.4730 S   0  0  0  0  0  0  0  0  0  0  0  0
  184.4890  176.4700  136.2510 C   0  0  2  0  0  3  0  0  0  0  0  0
  184.9260  177.3130  137.4300 C   0  0  0  0  0  2  0  0  0  0  0  0
  186.4190  177.3960  137.3020 C   0  0  0  0  0  2  0  0  0  0  0  0
  186.7450  176.6260  136.0340 C   0  0  2  0  0  3  0  0  0  0  0  0
  185.5530  176.3740  135.3280 O   0  0  0  0  0  0  0  0  0  0  0  0
  187.4640  175.3130  136.3620 C   0  0  1  0  0  3  0  0  0  0  0  0
  187.4530  174.3770  135.1580 C   0  0  0  0  0  2  0  0  0  0  0  0
  187.2870  173.0060  135.6030 N   0  0  0  0  0  1  0  0  0  0  0  0
  189.6060  176.2710  136.0690 O   0  0  0  0  0  0  0  0  0  0  0  0
  188.8770  175.5920  136.7740 C   0  0  0  0  0  3  0  0  0  0  0  0
  1 12  2  0  0  0  0
  1 10  1  0  0  0  0
  2 11  1  0  0  0  0
  3  2  1  0  0  0  0
  6  7  1  0  0  0  0
  6 14  1  1  0  0  0
  8  4  1  0  0  0  0
  8  7  2  0  0  0  0
  9  5  2  0  0  0  0
  9  4  1  0  0  0  0
 10  3  1  1  0  0  0
 10  6  1  0  0  0  0
 11 13  1  0  0  0  0
 11 15  1  1  0  0  0
 12  8  1  0  0  0  0
 14 13  2  0  0  0  0
 15 17  1  0  0  0  0
 15 16  2  0  0  0  0
 17 18  1  0  0  0  0
 18 25  1  0  0  0  0
 21 26  1  6  0  0  0
 21 22  1  0  0  0  0
 22 19  1  0  0  0  0
 22 20  1  6  0  0  0
 23 24  2  0  0  0  0
 23 21  1  0  0  0  0
 24 19  1  0  0  0  0
 25 24  1  0  0  0  0
 27 28  1  0  0  0  0
 28 26  1  0  0  0  0
 29  9  1  0  0  0  0
 30 29  1  0  0  0  0
 31  1  1  0  0  0  0
 32 31  1  6  0  0  0
 32 33  1  0  0  0  0
 34 33  1  0  0  0  0
 35 37  1  1  0  0  0
 35 34  1  0  0  0  0
 36 35  1  0  0  0  0
 36 32  1  0  0  0  0
 37 38  1  6  0  0  0
 37 41  1  0  0  0  0
 38 39  1  0  0  0  0
 40 41  2  0  0  0  0
M  END
>  <MODEL>
5

>  <REMARK>
 VINA RESULT:      -6.2      4.452      6.429
  Name = 
  11 active torsions:
  status: ('A' for Active; 'I' for Inactive)
    1  A    between atoms: C_1  and  S_21
    2  A    between atoms: C_3  and  S_21
    3  A    between atoms: C_9  and  C_28
    4  A    between atoms: C_10  and  C_15
    5  A    between atoms: C_12  and  N_29
    6  A    between atoms: C_12  and  N_41
    7  A    between atoms: C_13  and  C_30
    8  A    between atoms: C_13  and  C_34
    9  A    between atoms: C_14  and  C_15
   10  A    between atoms: C_15  and  C_26
   11  A    between atoms: C_24  and  O_35
                            x       y       z     vdW  Elec       q    Type
                         _______ _______ _______ _____ _____    ______ ____

>  <TORSDO>
F 11

$$$$
=
 OpenBabel10232412023D

 41 44  0  0  1  0  0  0  0  0999 V2000
  183.3620  176.0530  136.1560 C   0  0  0  0  0  0  0  0  0  0  0  0
  182.3750  178.7320  137.9830 C   0  0  0  0  0  2  0  0  0  0  0  0
  181.8400  178.0780  136.7150 C   0  0  0  0  0  2  0  0  0  0  0  0
  182.7860  172.4290  136.9320 N   0  0  0  0  0  2  0  0  0  0  0  0
  183.7070  170.4230  136.2090 O   0  0  0  0  0  0  0  0  0  0  0  0
  181.7330  175.8290  137.9940 C   0  0  1  0  0  3  0  0  0  0  0  0
  181.7760  174.3840  137.7780 N   0  0  0  0  0  0  0  0  0  0  0  0
  182.6890  173.8570  137.0040 C   0  0  0  0  0  0  0  0  0  0  0  0
  183.6670  171.6780  136.0870 C   0  0  0  0  0  0  0  0  0  0  0  0
  182.0290  176.5560  136.6760 C   0  0  2  0  0  3  0  0  0  0  0  0
  181.5770  178.4610  139.2780 C   0  0  1  0  0  3  0  0  0  0  0  0
  183.6360  174.7480  136.2710 C   0  0  0  0  0  3  0  0  0  0  0  0
  180.3930  177.5040  139.1850 C   0  0  0  0  0  3  0  0  0  0  0  0
  180.4600  176.2850  138.6260 C   0  0  0  0  0  3  0  0  0  0  0  0
  182.5300  178.0850  140.3740 C   0  0  0  0  0  0  0  0  0  0  0  0
  183.4260  177.2140  140.1660 O   0  0  0  0  0  0  0  0  0  0  0  0
  182.4700  178.7710  141.6280 N   0  0  0  0  0  2  0  0  0  0  0  0
  183.5420  178.7060  142.6270 C   0  0  0  0  0  2  0  0  0  0  0  0
  187.6340  178.3420  141.8190 S   0  0  0  0  0  0  0  0  0  0  0  0
  188.5700  176.1620  143.1790 C   0  0  0  0  0  1  0  0  0  0  0  0
  187.4450  178.0620  144.4960 C   0  0  1  0  0  3  0  0  0  0  0  0
  188.3810  177.6670  143.3390 C   0  0  2  0  0  3  0  0  0  0  0  0
  186.1140  178.2520  143.9630 N   0  0  0  0  0  0  0  0  0  0  0  0
  186.0810  178.4350  142.6850 C   0  0  0  0  0  0  0  0  0  0  0  0
  184.8480  178.5880  141.9800 N   0  0  0  0  0  2  0  0  0  0  0  0
  187.4350  177.1080  145.6850 C   0  0  0  0  0  2  0  0  0  0  0  0
  188.1120  177.0180  147.9730 O   0  0  0  0  0  1  0  0  0  0  0  0
  188.4290  177.5730  146.7330 C   0  0  0  0  0  2  0  0  0  0  0  0
  184.4830  172.3230  135.1430 O   0  0  0  0  0  0  0  0  0  0  0  0
  185.8860  172.0760  135.0690 C   0  0  0  0  0  1  0  0  0  0  0  0
  184.6380  177.1640  135.5510 S   0  0  0  0  0  0  0  0  0  0  0  0
  185.8970  176.6490  136.7680 C   0  0  2  0  0  3  0  0  0  0  0  0
  185.9910  177.7180  137.8370 C   0  0  0  0  0  2  0  0  0  0  0  0
  187.4650  177.9250  138.0350 C   0  0  0  0  0  2  0  0  0  0  0  0
  188.1270  176.9890  137.0380 C   0  0  2  0  0  3  0  0  0  0  0  0
  187.1530  176.5060  136.1410 O   0  0  0  0  0  0  0  0  0  0  0  0
  188.8210  175.8280  137.7560 C   0  0  1  0  0  3  0  0  0  0  0  0
  189.0200  174.6490  136.8090 C   0  0  0  0  0  2  0  0  0  0  0  0
  190.0350  173.7580  137.3390 N   0  0  0  0  0  1  0  0  0  0  0  0
  190.3270  176.3670  139.4980 O   0  0  0  0  0  0  0  0  0  0  0  0
  190.1450  176.2760  138.2940 C   0  0  0  0  0  3  0  0  0  0  0  0
  1 12  2  0  0  0  0
  1 10  1  0  0  0  0
  2 11  1  0  0  0  0
  3  2  1  0  0  0  0
  4  8  1  0  0  0  0
  6 14  1  6  0  0  0
  7  6  1  0  0  0  0
  8  7  2  0  0  0  0
  9  5  2  0  0  0  0
  9  4  1  0  0  0  0
 10  3  1  1  0  0  0
 10  6  1  0  0  0  0
 11 15  1  1  0  0  0
 12  8  1  0  0  0  0
 13 11  1  0  0  0  0
 14 13  2  0  0  0  0
 15 17  1  0  0  0  0
 16 15  2  0  0  0  0
 17 18  1  0  0  0  0
 19 24  1  0  0  0  0
 19 22  1  0  0  0  0
 21 26  1  1  0  0  0
 22 20  1  6  0  0  0
 22 21  1  0  0  0  0
 23 21  1  0  0  0  0
 24 23  2  0  0  0  0
 25 18  1  0  0  0  0
 25 24  1  0  0  0  0
 26 28  1  0  0  0  0
 28 27  1  0  0  0  0
 29  9  1  0  0  0  0
 30 29  1  0  0  0  0
 31  1  1  0  0  0  0
 32 31  1  6  0  0  0
 32 33  1  0  0  0  0
 33 34  1  0  0  0  0
 35 37  1  1  0  0  0
 35 34  1  0  0  0  0
 36 32  1  0  0  0  0
 36 35  1  0  0  0  0
 37 38  1  6  0  0  0
 37 41  1  0  0  0  0
 38 39  1  0  0  0  0
 41 40  2  0  0  0  0
M  END
>  <MODEL>
6

>  <REMARK>
 VINA RESULT:      -6.1      3.944      5.472
  Name = 
  11 active torsions:
  status: ('A' for Active; 'I' for Inactive)
    1  A    between atoms: C_1  and  S_21
    2  A    between atoms: C_3  and  S_21
    3  A    between atoms: C_9  and  C_28
    4  A    between atoms: C_10  and  C_15
    5  A    between atoms: C_12  and  N_29
    6  A    between atoms: C_12  and  N_41
    7  A    between atoms: C_13  and  C_30
    8  A    between atoms: C_13  and  C_34
    9  A    between atoms: C_14  and  C_15
   10  A    between atoms: C_15  and  C_26
   11  A    between atoms: C_24  and  O_35
                            x       y       z     vdW  Elec       q    Type
                         _______ _______ _______ _____ _____    ______ ____

>  <TORSDO>
F 11

$$$$
=
 OpenBabel10232412023D

 41 44  0  0  1  0  0  0  0  0999 V2000
  189.0330  178.0110  140.2290 C   0  0  0  0  0  0  0  0  0  0  0  0
  188.8230  176.9310  137.0230 C   0  0  0  0  0  2  0  0  0  0  0  0
  189.3250  178.2210  137.6590 C   0  0  0  0  0  2  0  0  0  0  0  0
  191.6040  177.0600  142.7890 N   0  0  0  0  0  2  0  0  0  0  0  0
  191.7570  177.2050  145.1010 O   0  0  0  0  0  0  0  0  0  0  0  0
  190.8920  176.8000  139.1520 C   0  0  1  0  0  3  0  0  0  0  0  0
  191.5780  176.8240  140.4430 N   0  0  0  0  0  0  0  0  0  0  0  0
  190.9390  177.1880  141.5250 C   0  0  0  0  0  0  0  0  0  0  0  0
  191.0940  177.4750  144.0630 C   0  0  0  0  0  0  0  0  0  0  0  0
  189.9710  178.0210  139.0360 C   0  0  2  0  0  3  0  0  0  0  0  0
  189.9070  175.9490  136.5250 C   0  0  1  0  0  3  0  0  0  0  0  0
  189.5290  177.6640  141.4230 C   0  0  0  0  0  3  0  0  0  0  0  0
  191.3630  176.3190  136.7930 C   0  0  0  0  0  3  0  0  0  0  0  0
  191.8320  176.6810  137.9970 C   0  0  0  0  0  3  0  0  0  0  0  0
  189.5720  174.5650  136.9960 C   0  0  0  0  0  0  0  0  0  0  0  0
  190.3900  173.9260  137.7210 O   0  0  0  0  0  0  0  0  0  0  0  0
  188.2940  174.0020  136.6850 N   0  0  0  0  0  2  0  0  0  0  0  0
  187.7570  172.8150  137.3580 C   0  0  0  0  0  2  0  0  0  0  0  0
  183.8250  172.1800  136.0690 S   0  0  0  0  0  0  0  0  0  0  0  0
  182.7880  174.5930  135.3060 C   0  0  0  0  0  1  0  0  0  0  0  0
  183.6630  174.3180  137.7080 C   0  0  1  0  0  3  0  0  0  0  0  0
  182.9050  173.6860  136.5260 C   0  0  2  0  0  3  0  0  0  0  0  0
  185.0470  173.9010  137.6380 N   0  0  0  0  0  0  0  0  0  0  0  0
  185.2440  172.8560  136.9060 C   0  0  0  0  0  0  0  0  0  0  0  0
  186.5540  172.3330  136.6800 N   0  0  0  0  0  2  0  0  0  0  0  0
  183.5470  175.8330  137.8260 C   0  0  0  0  0  2  0  0  0  0  0  0
  183.2930  177.1140  139.8250 O   0  0  0  0  0  1  0  0  0  0  0  0
  182.6500  176.1950  138.9960 C   0  0  0  0  0  2  0  0  0  0  0  0
  189.8740  178.1640  144.1610 O   0  0  0  0  0  0  0  0  0  0  0  0
  189.1520  178.2430  145.3880 C   0  0  0  0  0  1  0  0  0  0  0  0
  187.2650  178.2830  140.0620 S   0  0  0  0  0  0  0  0  0  0  0  0
  186.9700  178.5580  141.8420 C   0  0  2  0  0  3  0  0  0  0  0  0
  187.3880  177.3100  142.5920 C   0  0  0  0  0  2  0  0  0  0  0  0
  186.2700  177.0620  143.5620 C   0  0  0  0  0  2  0  0  0  0  0  0
  185.2590  178.1610  143.2820 C   0  0  2  0  0  3  0  0  0  0  0  0
  185.6010  178.8060  142.0780 O   0  0  0  0  0  0  0  0  0  0  0  0
  185.2120  179.1660  144.4380 C   0  0  1  0  0  3  0  0  0  0  0  0
  183.8630  179.8760  144.4810 C   0  0  0  0  0  2  0  0  0  0  0  0
  182.7920  178.8970  144.4620 N   0  0  0  0  0  1  0  0  0  0  0  0
  185.2930  179.0470  146.7980 O   0  0  0  0  0  0  0  0  0  0  0  0
  185.4580  178.4650  145.7380 C   0  0  0  0  0  3  0  0  0  0  0  0
  1 12  2  0  0  0  0
  2  3  1  0  0  0  0
  4  9  1  0  0  0  0
  6 14  1  6  0  0  0
  6  7  1  0  0  0  0
  7  8  2  0  0  0  0
  8  4  1  0  0  0  0
  9 29  1  0  0  0  0
  9  5  2  0  0  0  0
 10  3  1  6  0  0  0
 10  6  1  0  0  0  0
 10  1  1  0  0  0  0
 11 13  1  0  0  0  0
 11 15  1  1  0  0  0
 11  2  1  0  0  0  0
 12  8  1  0  0  0  0
 13 14  2  0  0  0  0
 15 16  2  0  0  0  0
 17 15  1  0  0  0  0
 17 18  1  0  0  0  0
 19 22  1  0  0  0  0
 19 24  1  0  0  0  0
 21 26  1  6  0  0  0
 22 20  1  6  0  0  0
 22 21  1  0  0  0  0
 23 21  1  0  0  0  0
 24 23  2  0  0  0  0
 25 24  1  0  0  0  0
 25 18  1  0  0  0  0
 26 28  1  0  0  0  0
 28 27  1  0  0  0  0
 29 30  1  0  0  0  0
 31  1  1  0  0  0  0
 32 31  1  6  0  0  0
 32 36  1  0  0  0  0
 32 33  1  0  0  0  0
 33 34  1  0  0  0  0
 35 34  1  0  0  0  0
 35 37  1  1  0  0  0
 36 35  1  0  0  0  0
 37 38  1  1  0  0  0
 37 41  1  0  0  0  0
 39 38  1  0  0  0  0
 41 40  2  0  0  0  0
M  END
>  <MODEL>
7

>  <REMARK>
 VINA RESULT:      -6.0      3.697      9.786
  Name = 
  11 active torsions:
  status: ('A' for Active; 'I' for Inactive)
    1  A    between atoms: C_1  and  S_21
    2  A    between atoms: C_3  and  S_21
    3  A    between atoms: C_9  and  C_28
    4  A    between atoms: C_10  and  C_15
    5  A    between atoms: C_12  and  N_29
    6  A    between atoms: C_12  and  N_41
    7  A    between atoms: C_13  and  C_30
    8  A    between atoms: C_13  and  C_34
    9  A    between atoms: C_14  and  C_15
   10  A    between atoms: C_15  and  C_26
   11  A    between atoms: C_24  and  O_35
                            x       y       z     vdW  Elec       q    Type
                         _______ _______ _______ _____ _____    ______ ____

>  <TORSDO>
F 11

$$$$
=
 OpenBabel10232412023D

 41 44  0  0  1  0  0  0  0  0999 V2000
  186.0290  178.4300  141.5060 C   0  0  0  0  0  0  0  0  0  0  0  0
  182.6440  178.4300  141.6740 C   0  0  0  0  0  2  0  0  0  0  0  0
  183.6960  179.5260  141.7980 C   0  0  0  0  0  2  0  0  0  0  0  0
  188.1570  178.2840  138.4200 N   0  0  0  0  0  2  0  0  0  0  0  0
  190.3800  177.7840  137.9750 O   0  0  0  0  0  0  0  0  0  0  0  0
  184.6390  178.7930  139.5010 C   0  0  1  0  0  3  0  0  0  0  0  0
  185.8730  178.7900  138.7160 N   0  0  0  0  0  0  0  0  0  0  0  0
  187.0010  178.4100  139.2590 C   0  0  0  0  0  0  0  0  0  0  0  0
  189.4850  177.9550  138.8470 C   0  0  0  0  0  0  0  0  0  0  0  0
  184.9320  179.2990  140.9190 C   0  0  2  0  0  3  0  0  0  0  0  0
  181.8600  178.3860  140.3430 C   0  0  1  0  0  3  0  0  0  0  0  0
  187.0400  178.0620  140.7100 C   0  0  0  0  0  3  0  0  0  0  0  0
  182.2690  179.3760  139.2560 C   0  0  0  0  0  3  0  0  0  0  0  0
  183.5330  179.5490  138.8410 C   0  0  0  0  0  3  0  0  0  0  0  0
  181.8190  176.9720  139.8430 C   0  0  0  0  0  0  0  0  0  0  0  0
  182.8210  176.2140  139.9990 O   0  0  0  0  0  0  0  0  0  0  0  0
  180.6160  176.4650  139.2580 N   0  0  0  0  0  2  0  0  0  0  0  0
  180.3740  175.0340  139.0400 C   0  0  0  0  0  2  0  0  0  0  0  0
  181.4280  173.9450  135.1380 S   0  0  0  0  0  0  0  0  0  0  0  0
  182.6610  171.5070  135.2470 C   0  0  0  0  0  1  0  0  0  0  0  0
  183.6450  173.4610  136.5980 C   0  0  1  0  0  3  0  0  0  0  0  0
  182.9780  172.9980  135.2890 C   0  0  2  0  0  3  0  0  0  0  0  0
  182.6160  173.9590  137.4840 N   0  0  0  0  0  0  0  0  0  0  0  0
  181.5110  174.2630  136.8880 C   0  0  0  0  0  0  0  0  0  0  0  0
  180.3680  174.7200  137.6120 N   0  0  0  0  0  2  0  0  0  0  0  0
  184.5180  172.4220  137.2910 C   0  0  0  0  0  2  0  0  0  0  0  0
  185.9920  174.3000  137.2750 O   0  0  0  0  0  1  0  0  0  0  0  0
  185.9550  172.9080  137.3530 C   0  0  0  0  0  2  0  0  0  0  0  0
  189.7900  177.8170  140.2110 O   0  0  0  0  0  0  0  0  0  0  0  0
  191.0410  177.2920  140.6520 C   0  0  0  0  0  1  0  0  0  0  0  0
  185.9310  177.7490  143.1650 S   0  0  0  0  0  0  0  0  0  0  0  0
  187.7270  177.8190  143.4810 C   0  0  2  0  0  3  0  0  0  0  0  0
  188.3510  176.5360  142.9720 C   0  0  0  0  0  2  0  0  0  0  0  0
  189.2820  176.1090  144.0690 C   0  0  0  0  0  2  0  0  0  0  0  0
  189.1060  177.1530  145.1580 C   0  0  2  0  0  3  0  0  0  0  0  0
  187.9760  177.9410  144.8650 O   0  0  0  0  0  0  0  0  0  0  0  0
  190.3560  178.0300  145.2810 C   0  0  1  0  0  3  0  0  0  0  0  0
  191.6080  177.1690  145.4150 C   0  0  0  0  0  2  0  0  0  0  0  0
  191.8500  176.8680  146.8130 N   0  0  0  0  0  1  0  0  0  0  0  0
  191.2280  179.8820  144.0960 O   0  0  0  0  0  0  0  0  0  0  0  0
  190.4780  178.9190  144.0810 C   0  0  0  0  0  3  0  0  0  0  0  0
  1 31  1  0  0  0  0
  2  3  1  0  0  0  0
  4  9  1  0  0  0  0
  4  8  1  0  0  0  0
  5  9  2  0  0  0  0
  6 14  1  6  0  0  0
  6 10  1  0  0  0  0
  7  8  2  0  0  0  0
  7  6  1  0  0  0  0
  8 12  1  0  0  0  0
  9 29  1  0  0  0  0
 10  1  1  0  0  0  0
 10  3  1  1  0  0  0
 11 15  1  6  0  0  0
 11  2  1  0  0  0  0
 12  1  2  0  0  0  0
 13 11  1  0  0  0  0
 14 13  2  0  0  0  0
 15 16  2  0  0  0  0
 17 15  1  0  0  0  0
 18 17  1  0  0  0  0
 19 22  1  0  0  0  0
 19 24  1  0  0  0  0
 21 26  1  1  0  0  0
 21 23  1  0  0  0  0
 22 20  1  1  0  0  0
 22 21  1  0  0  0  0
 24 23  2  0  0  0  0
 24 25  1  0  0  0  0
 25 18  1  0  0  0  0
 26 28  1  0  0  0  0
 27 28  1  0  0  0  0
 29 30  1  0  0  0  0
 32 31  1  1  0  0  0
 32 36  1  0  0  0  0
 33 32  1  0  0  0  0
 33 34  1  0  0  0  0
 34 35  1  0  0  0  0
 35 37  1  6  0  0  0
 36 35  1  0  0  0  0
 37 41  1  6  0  0  0
 37 38  1  0  0  0  0
 38 39  1  0  0  0  0
 41 40  2  0  0  0  0
M  END
>  <MODEL>
8

>  <REMARK>
 VINA RESULT:      -6.0      4.430      9.372
  Name = 
  11 active torsions:
  status: ('A' for Active; 'I' for Inactive)
    1  A    between atoms: C_1  and  S_21
    2  A    between atoms: C_3  and  S_21
    3  A    between atoms: C_9  and  C_28
    4  A    between atoms: C_10  and  C_15
    5  A    between atoms: C_12  and  N_29
    6  A    between atoms: C_12  and  N_41
    7  A    between atoms: C_13  and  C_30
    8  A    between atoms: C_13  and  C_34
    9  A    between atoms: C_14  and  C_15
   10  A    between atoms: C_15  and  C_26
   11  A    between atoms: C_24  and  O_35
                            x       y       z     vdW  Elec       q    Type
                         _______ _______ _______ _____ _____    ______ ____

>  <TORSDO>
F 11

$$$$
=
 OpenBabel10232412023D

 41 44  0  0  1  0  0  0  0  0999 V2000
  186.5080  178.1650  142.3640 C   0  0  0  0  0  0  0  0  0  0  0  0
  183.2040  178.5760  141.7280 C   0  0  0  0  0  2  0  0  0  0  0  0
  184.3230  179.5390  142.1060 C   0  0  0  0  0  2  0  0  0  0  0  0
  189.2670  177.6990  139.8670 N   0  0  0  0  0  2  0  0  0  0  0  0
  191.4550  176.9260  139.9560 O   0  0  0  0  0  0  0  0  0  0  0  0
  185.6830  178.6500  140.0900 C   0  0  1  0  0  3  0  0  0  0  0  0
  187.0570  178.4820  139.6190 N   0  0  0  0  0  0  0  0  0  0  0  0
  187.9710  177.9810  140.4100 C   0  0  0  0  0  0  0  0  0  0  0  0
  190.4080  177.2230  140.5930 C   0  0  0  0  0  0  0  0  0  0  0  0
  185.6940  179.1470  141.5410 C   0  0  2  0  0  3  0  0  0  0  0  0
  182.7560  178.5970  140.2500 C   0  0  1  0  0  3  0  0  0  0  0  0
  187.6250  177.6610  141.8260 C   0  0  0  0  0  3  0  0  0  0  0  0
  183.5260  179.5080  139.2970 C   0  0  0  0  0  3  0  0  0  0  0  0
  184.8640  179.5190  139.1940 C   0  0  0  0  0  3  0  0  0  0  0  0
  182.6620  177.1890  139.7430 C   0  0  0  0  0  0  0  0  0  0  0  0
  182.2520  176.2650  140.5060 O   0  0  0  0  0  0  0  0  0  0  0  0
  182.9640  176.9090  138.3730 N   0  0  0  0  0  2  0  0  0  0  0  0
  182.5980  175.6510  137.7130 C   0  0  0  0  0  2  0  0  0  0  0  0
  186.0440  173.3110  137.3020 S   0  0  0  0  0  0  0  0  0  0  0  0
  188.2040  174.9890  137.2780 C   0  0  0  0  0  1  0  0  0  0  0  0
  186.3630  175.3060  135.5120 C   0  0  1  0  0  3  0  0  0  0  0  0
  187.2140  174.3190  136.3310 C   0  0  2  0  0  3  0  0  0  0  0  0
  185.1080  175.5090  136.2020 N   0  0  0  0  0  0  0  0  0  0  0  0
  184.8280  174.5890  137.0640 C   0  0  0  0  0  0  0  0  0  0  0  0
  183.6540  174.6530  137.8760 N   0  0  0  0  0  2  0  0  0  0  0  0
  187.0350  176.6340  135.1830 C   0  0  0  0  0  2  0  0  0  0  0  0
  187.3590  178.7600  136.2200 O   0  0  0  0  0  1  0  0  0  0  0  0
  186.4230  177.7460  136.0170 C   0  0  0  0  0  2  0  0  0  0  0  0
  190.3640  177.0770  141.9890 O   0  0  0  0  0  0  0  0  0  0  0  0
  190.4560  175.7990  142.6150 C   0  0  0  0  0  1  0  0  0  0  0  0
  185.9400  177.5360  143.9480 S   0  0  0  0  0  0  0  0  0  0  0  0
  187.6040  177.1160  144.5670 C   0  0  2  0  0  3  0  0  0  0  0  0
  187.5180  176.9100  146.0650 C   0  0  0  0  0  2  0  0  0  0  0  0
  188.6970  177.6580  146.6160 C   0  0  0  0  0  2  0  0  0  0  0  0
  189.3650  178.2810  145.4030 C   0  0  2  0  0  3  0  0  0  0  0  0
  188.5070  178.1660  144.2920 O   0  0  0  0  0  0  0  0  0  0  0  0
  190.7120  177.6080  145.1150 C   0  0  1  0  0  3  0  0  0  0  0  0
  191.7760  178.6490  144.7850 C   0  0  0  0  0  2  0  0  0  0  0  0
  191.1680  179.7700  144.0920 N   0  0  0  0  0  1  0  0  0  0  0  0
  192.3240  176.5520  146.4850 O   0  0  0  0  0  0  0  0  0  0  0  0
  191.1440  176.8000  146.3010 C   0  0  0  0  0  3  0  0  0  0  0  0
  1 31  1  0  0  0  0
  2  3  1  0  0  0  0
  4  8  1  0  0  0  0
  4  9  1  0  0  0  0
  5  9  2  0  0  0  0
  6 14  1  6  0  0  0
  6 10  1  0  0  0  0
  7  6  1  0  0  0  0
  7  8  2  0  0  0  0
  8 12  1  0  0  0  0
  9 29  1  0  0  0  0
 10  3  1  1  0  0  0
 10  1  1  0  0  0  0
 11 15  1  6  0  0  0
 11  2  1  0  0  0  0
 12  1  2  0  0  0  0
 13 11  1  0  0  0  0
 14 13  2  0  0  0  0
 15 16  2  0  0  0  0
 17 15  1  0  0  0  0
 18 25  1  0  0  0  0
 18 17  1  0  0  0  0
 21 26  1  1  0  0  0
 21 23  1  0  0  0  0
 21 22  1  0  0  0  0
 22 20  1  1  0  0  0
 22 19  1  0  0  0  0
 23 24  2  0  0  0  0
 24 19  1  0  0  0  0
 24 25  1  0  0  0  0
 26 28  1  0  0  0  0
 28 27  1  0  0  0  0
 29 30  1  0  0  0  0
 32 31  1  1  0  0  0
 32 33  1  0  0  0  0
 33 34  1  0  0  0  0
 35 37  1  6  0  0  0
 35 34  1  0  0  0  0
 36 32  1  0  0  0  0
 36 35  1  0  0  0  0
 37 38  1  1  0  0  0
 37 41  1  0  0  0  0
 39 38  1  0  0  0  0
 41 40  2  0  0  0  0
M  END
>  <MODEL>
9

>  <REMARK>
 VINA RESULT:      -5.9      4.032      9.036
  Name = 
  11 active torsions:
  status: ('A' for Active; 'I' for Inactive)
    1  A    between atoms: C_1  and  S_21
    2  A    between atoms: C_3  and  S_21
    3  A    between atoms: C_9  and  C_28
    4  A    between atoms: C_10  and  C_15
    5  A    between atoms: C_12  and  N_29
    6  A    between atoms: C_12  and  N_41
    7  A    between atoms: C_13  and  C_30
    8  A    between atoms: C_13  and  C_34
    9  A    between atoms: C_14  and  C_15
   10  A    between atoms: C_15  and  C_26
   11  A    between atoms: C_24  and  O_35
                            x       y       z     vdW  Elec       q    Type
                         _______ _______ _______ _____ _____    ______ ____

>  <TORSDO>
F 11

$$$$
