=
 OpenBabel10232407503D

 32 36  0  0  1  0  0  0  0  0999 V2000
  187.6650  178.2030  140.6790 C   0  0  0  0  0  2  0  0  0  0  0  0
  189.0370  177.7260  143.1480 O   0  0  0  0  0  0  0  0  0  0  0  0
  187.0340  178.5080  142.0380 C   0  0  2  0  0  3  0  0  0  0  0  0
  189.5450  177.1990  141.9480 C   0  0  0  0  0  2  0  0  0  0  0  0
  187.6380  177.5710  143.0990 C   0  0  2  0  0  3  0  0  0  0  0  0
  189.1850  178.1250  140.7860 C   0  0  1  0  0  3  0  0  0  0  0  0
  186.9240  178.0210  146.7240 C   0  0  0  0  0  0  0  0  0  0  0  0
  187.7600  177.6810  145.7050 C   0  0  0  0  0  0  0  0  0  0  0  0
  189.4950  177.2640  147.2180 C   0  0  0  0  0  0  0  0  0  0  0  0
  185.5910  178.4180  146.1980 C   0  0  0  0  0  2  0  0  0  0  0  0
  187.3470  177.9980  148.0120 N   0  0  0  0  0  0  0  0  0  0  0  0
  185.8170  178.2570  144.7090 C   0  0  0  0  0  3  0  0  0  0  0  0
  187.0580  177.8290  144.4560 C   0  0  0  0  0  0  0  0  0  0  0  0
  191.1440  176.7830  147.5510 Cl  0  0  0  0  0  0  0  0  0  0  0  0
  188.6330  177.6220  148.2770 C   0  0  0  0  0  3  0  0  0  0  0  0
  189.0430  177.3050  145.9300 N   0  0  0  0  0  0  0  0  0  0  0  0
  184.8550  178.8420  140.8590 C   0  0  0  0  0  0  0  0  0  0  0  0
  184.7990  179.5870  139.6620 N   0  0  0  0  0  0  0  0  0  0  0  0
  183.6850  178.9960  140.1820 C   0  0  1  0  0  3  0  0  0  0  0  0
  185.5960  178.3110  141.9540 N   0  0  0  0  0  2  0  0  0  0  0  0
  183.3580  177.7360  139.4410 C   0  0  0  0  0  0  0  0  0  0  0  0
  182.5240  176.7490  139.9190 C   0  0  0  0  0  3  0  0  0  0  0  0
  183.8120  177.4170  138.2520 O   0  0  0  0  0  0  0  0  0  0  0  0
  183.3200  176.2510  137.9080 C   0  0  0  0  0  3  0  0  0  0  0  0
  182.5010  175.7880  138.9230 C   0  0  0  0  0  3  0  0  0  0  0  0
  189.7410  177.5830  139.4810 C   0  0  0  0  0  2  0  0  0  0  0  0
  191.1900  177.1590  139.6460 C   0  0  0  0  0  2  0  0  0  0  0  0
  190.7920  175.1210  138.2190 N   0  0  0  0  0  2  0  0  0  0  0  0
  191.5840  176.2720  138.5180 C   0  0  0  0  0  0  0  0  0  0  0  0
  192.6370  176.5130  137.8720 O   0  0  0  0  0  0  0  0  0  0  0  0
  189.8710  173.4880  136.6640 C   0  0  0  0  0  1  0  0  0  0  0  0
  191.1220  174.1980  137.1430 C   0  0  0  0  0  2  0  0  0  0  0  0
  1  6  1  0  0  0  0
  1  3  1  0  0  0  0
  3 20  1  6  0  0  0
  3  5  1  0  0  0  0
  4  2  1  0  0  0  0
  5  2  1  0  0  0  0
  5 13  1  1  0  0  0
  6 26  1  6  0  0  0
  6  4  1  0  0  0  0
  7 11  1  0  0  0  0
  8 16  1  0  0  0  0
  8  7  2  0  0  0  0
  9 14  1  0  0  0  0
  9 15  1  0  0  0  0
 10  7  1  0  0  0  0
 11 15  2  0  0  0  0
 12 10  1  0  0  0  0
 13 12  2  0  0  0  0
 13  8  1  0  0  0  0
 16  9  2  0  0  0  0
 17 20  1  0  0  0  0
 18 19  1  0  0  0  0
 18 17  2  0  0  0  0
 19 21  1  6  0  0  0
 19 17  1  0  0  0  0
 21 22  2  0  0  0  0
 23 21  1  0  0  0  0
 24 23  1  0  0  0  0
 24 25  2  0  0  0  0
 25 22  1  0  0  0  0
 26 27  1  0  0  0  0
 28 29  1  0  0  0  0
 29 27  1  0  0  0  0
 30 29  2  0  0  0  0
 31 32  1  0  0  0  0
 32 28  1  0  0  0  0
M  END
>  <MODEL>
1

>  <REMARK>
 VINA RESULT:      -9.0      0.000      0.000
  Name = 
  7 active torsions:
  status: ('A' for Active; 'I' for Inactive)
    1  A    between atoms: N_4  and  C_18
    2  A    between atoms: C_7  and  C_23
    3  A    between atoms: C_7  and  C_30
    4  A    between atoms: C_10  and  N_26
    5  A    between atoms: C_16  and  C_21
    6  A    between atoms: C_17  and  C_22
    7  A    between atoms: C_23  and  C_25
                            x       y       z     vdW  Elec       q    Type
                         _______ _______ _______ _____ _____    ______ ____

>  <TORSDO>
F 7

$$$$
=
 OpenBabel10232407503D

 32 36  0  0  1  0  0  0  0  0999 V2000
  187.6750  178.1630  140.6740 C   0  0  0  0  0  2  0  0  0  0  0  0
  189.0580  177.6770  143.1340 O   0  0  0  0  0  0  0  0  0  0  0  0
  187.0550  178.4760  142.0370 C   0  0  2  0  0  3  0  0  0  0  0  0
  189.5540  177.1430  141.9320 C   0  0  0  0  0  2  0  0  0  0  0  0
  187.6580  177.5340  143.0940 C   0  0  2  0  0  3  0  0  0  0  0  0
  189.1950  178.0710  140.7710 C   0  0  1  0  0  3  0  0  0  0  0  0
  186.9740  178.0030  146.7230 C   0  0  0  0  0  0  0  0  0  0  0  0
  187.8020  177.6580  145.6990 C   0  0  0  0  0  0  0  0  0  0  0  0
  189.5500  177.2500  147.1990 C   0  0  0  0  0  0  0  0  0  0  0  0
  185.6360  178.3960  146.2070 C   0  0  0  0  0  2  0  0  0  0  0  0
  187.4080  177.9870  148.0070 N   0  0  0  0  0  0  0  0  0  0  0  0
  185.8500  178.2280  144.7170 C   0  0  0  0  0  3  0  0  0  0  0  0
  187.0890  177.7990  144.4550 C   0  0  0  0  0  0  0  0  0  0  0  0
  191.2030  176.7720  147.5210 Cl  0  0  0  0  0  0  0  0  0  0  0  0
  188.6970  177.6130  148.2640 C   0  0  0  0  0  3  0  0  0  0  0  0
  189.0870  177.2830  145.9150 N   0  0  0  0  0  0  0  0  0  0  0  0
  184.8720  178.8270  140.8720 C   0  0  0  0  0  0  0  0  0  0  0  0
  184.8150  179.5710  139.6740 N   0  0  0  0  0  0  0  0  0  0  0  0
  183.6990  178.9910  140.2020 C   0  0  1  0  0  3  0  0  0  0  0  0
  185.6150  178.2920  141.9620 N   0  0  0  0  0  2  0  0  0  0  0  0
  183.3550  177.7330  139.4650 C   0  0  0  0  0  0  0  0  0  0  0  0
  183.7080  177.4780  138.1580 C   0  0  0  0  0  3  0  0  0  0  0  0
  182.6890  176.7200  139.9660 O   0  0  0  0  0  0  0  0  0  0  0  0
  182.5740  175.7910  139.0470 C   0  0  0  0  0  3  0  0  0  0  0  0
  183.2010  176.2190  137.8900 C   0  0  0  0  0  3  0  0  0  0  0  0
  189.7370  177.5230  139.4630 C   0  0  0  0  0  2  0  0  0  0  0  0
  189.2170  178.3250  138.2830 C   0  0  0  0  0  2  0  0  0  0  0  0
  187.3610  176.8830  137.3770 N   0  0  0  0  0  2  0  0  0  0  0  0
  188.6860  177.4020  137.2450 C   0  0  0  0  0  0  0  0  0  0  0  0
  189.4240  177.0440  136.2900 O   0  0  0  0  0  0  0  0  0  0  0  0
  186.5850  174.5990  137.0440 C   0  0  0  0  0  1  0  0  0  0  0  0
  186.7780  175.9630  136.4120 C   0  0  0  0  0  2  0  0  0  0  0  0
  1  6  1  0  0  0  0
  1  3  1  0  0  0  0
  3 20  1  6  0  0  0
  3  5  1  0  0  0  0
  4  2  1  0  0  0  0
  5  2  1  0  0  0  0
  5 13  1  1  0  0  0
  6 26  1  6  0  0  0
  6  4  1  0  0  0  0
  7 11  1  0  0  0  0
  8 16  1  0  0  0  0
  8  7  2  0  0  0  0
  9 14  1  0  0  0  0
  9 15  1  0  0  0  0
 10  7  1  0  0  0  0
 11 15  2  0  0  0  0
 12 10  1  0  0  0  0
 13 12  2  0  0  0  0
 13  8  1  0  0  0  0
 16  9  2  0  0  0  0
 17 20  1  0  0  0  0
 18 19  1  0  0  0  0
 18 17  2  0  0  0  0
 19 21  1  6  0  0  0
 19 17  1  0  0  0  0
 21 23  1  0  0  0  0
 22 21  2  0  0  0  0
 24 23  1  0  0  0  0
 25 22  1  0  0  0  0
 25 24  2  0  0  0  0
 27 26  1  0  0  0  0
 29 28  1  0  0  0  0
 29 27  1  0  0  0  0
 30 29  2  0  0  0  0
 32 31  1  0  0  0  0
 32 28  1  0  0  0  0
M  END
>  <MODEL>
2

>  <REMARK>
 VINA RESULT:      -8.9      1.497      1.727
  Name = 
  7 active torsions:
  status: ('A' for Active; 'I' for Inactive)
    1  A    between atoms: N_4  and  C_18
    2  A    between atoms: C_7  and  C_23
    3  A    between atoms: C_7  and  C_30
    4  A    between atoms: C_10  and  N_26
    5  A    between atoms: C_16  and  C_21
    6  A    between atoms: C_17  and  C_22
    7  A    between atoms: C_23  and  C_25
                            x       y       z     vdW  Elec       q    Type
                         _______ _______ _______ _____ _____    ______ ____

>  <TORSDO>
F 7

$$$$
=
 OpenBabel10232407503D

 32 36  0  0  1  0  0  0  0  0999 V2000
  187.6910  178.1320  141.8790 C   0  0  0  0  0  2  0  0  0  0  0  0
  188.3170  178.1370  139.0840 O   0  0  0  0  0  0  0  0  0  0  0  0
  189.0750  177.7550  141.3500 C   0  0  2  0  0  3  0  0  0  0  0  0
  186.9790  178.2390  139.5040 C   0  0  0  0  0  2  0  0  0  0  0  0
  188.9350  177.1910  139.9240 C   0  0  2  0  0  3  0  0  0  0  0  0
  186.9180  178.9560  140.8540 C   0  0  1  0  0  3  0  0  0  0  0  0
  191.8190  175.6990  138.1050 C   0  0  0  0  0  0  0  0  0  0  0  0
  190.4950  175.7380  138.4160 C   0  0  0  0  0  0  0  0  0  0  0  0
  190.0640  173.9550  136.9640 C   0  0  0  0  0  0  0  0  0  0  0  0
  192.5610  176.7610  138.8350 C   0  0  0  0  0  3  0  0  0  0  0  0
  192.3020  174.7960  137.2160 N   0  0  0  0  0  0  0  0  0  0  0  0
  191.4310  177.4150  139.6020 C   0  0  0  0  0  3  0  0  0  0  0  0
  190.2660  176.8090  139.3510 C   0  0  0  0  0  0  0  0  0  0  0  0
  188.9470  172.8300  136.2210 Cl  0  0  0  0  0  0  0  0  0  0  0  0
  191.4350  173.9150  136.6340 C   0  0  0  0  0  3  0  0  0  0  0  0
  189.6050  174.8800  137.8570 N   0  0  0  0  0  2  0  0  0  0  0  0
  190.8080  177.0800  143.0200 C   0  0  0  0  0  0  0  0  0  0  0  0
  191.8060  177.9940  143.4200 N   0  0  0  0  0  0  0  0  0  0  0  0
  191.7320  176.7430  143.9600 C   0  0  1  0  0  3  0  0  0  0  0  0
  189.6690  176.7600  142.2270 N   0  0  0  0  0  2  0  0  0  0  0  0
  191.1100  176.7880  145.3220 C   0  0  0  0  0  0  0  0  0  0  0  0
  189.8040  177.1520  145.5660 C   0  0  0  0  0  3  0  0  0  0  0  0
  191.7190  176.4840  146.4430 O   0  0  0  0  0  0  0  0  0  0  0  0
  190.8780  176.6310  147.4380 C   0  0  0  0  0  3  0  0  0  0  0  0
  189.6560  177.0480  146.9380 C   0  0  0  0  0  3  0  0  0  0  0  0
  185.4790  179.0940  141.3180 C   0  0  0  0  0  2  0  0  0  0  0  0
  185.0730  177.9090  142.1770 C   0  0  0  0  0  2  0  0  0  0  0  0
  185.2920  178.3380  144.6500 N   0  0  0  0  0  2  0  0  0  0  0  0
  184.5010  178.3940  143.4610 C   0  0  0  0  0  0  0  0  0  0  0  0
  183.3090  178.8000  143.5010 O   0  0  0  0  0  0  0  0  0  0  0  0
  185.9190  178.7650  146.9640 C   0  0  0  0  0  1  0  0  0  0  0  0
  184.7960  178.7780  145.9450 C   0  0  0  0  0  2  0  0  0  0  0  0
  2  4  1  0  0  0  0
  2  5  1  0  0  0  0
  3  1  1  0  0  0  0
  3 20  1  1  0  0  0
  4  6  1  0  0  0  0
  5 13  1  6  0  0  0
  5  3  1  0  0  0  0
  6 26  1  1  0  0  0
  6  1  1  0  0  0  0
  7  8  1  0  0  0  0
  7 10  1  0  0  0  0
  8 13  2  0  0  0  0
  9 16  1  0  0  0  0
 10 12  2  0  0  0  0
 11  7  2  0  0  0  0
 13 12  1  0  0  0  0
 14  9  1  0  0  0  0
 15  9  2  0  0  0  0
 15 11  1  0  0  0  0
 16  8  1  0  0  0  0
 17 18  2  0  0  0  0
 17 19  1  0  0  0  0
 18 19  1  0  0  0  0
 19 21  1  1  0  0  0
 20 17  1  0  0  0  0
 21 22  2  0  0  0  0
 21 23  1  0  0  0  0
 22 25  1  0  0  0  0
 23 24  1  0  0  0  0
 25 24  2  0  0  0  0
 26 27  1  0  0  0  0
 27 29  1  0  0  0  0
 28 32  1  0  0  0  0
 29 30  2  0  0  0  0
 29 28  1  0  0  0  0
 32 31  1  0  0  0  0
M  END
>  <MODEL>
3

>  <REMARK>
 VINA RESULT:      -8.8      3.414      8.837
  Name = 
  7 active torsions:
  status: ('A' for Active; 'I' for Inactive)
    1  A    between atoms: N_4  and  C_18
    2  A    between atoms: C_7  and  C_23
    3  A    between atoms: C_7  and  C_30
    4  A    between atoms: C_10  and  N_26
    5  A    between atoms: C_16  and  C_21
    6  A    between atoms: C_17  and  C_22
    7  A    between atoms: C_23  and  C_25
                            x       y       z     vdW  Elec       q    Type
                         _______ _______ _______ _____ _____    ______ ____

>  <TORSDO>
F 7

$$$$
=
 OpenBabel10232407503D

 32 36  0  0  1  0  0  0  0  0999 V2000
  190.1160  176.3770  144.0580 C   0  0  0  0  0  2  0  0  0  0  0  0
  190.9510  177.8760  141.7640 O   0  0  0  0  0  0  0  0  0  0  0  0
  189.3470  176.3470  142.7360 C   0  0  2  0  0  3  0  0  0  0  0  0
  191.5320  178.1300  143.0190 C   0  0  0  0  0  2  0  0  0  0  0  0
  189.5750  177.6720  141.9870 C   0  0  2  0  0  3  0  0  0  0  0  0
  191.5530  176.8440  143.8460 C   0  0  1  0  0  3  0  0  0  0  0  0
  188.3480  177.2450  138.4990 C   0  0  0  0  0  0  0  0  0  0  0  0
  189.2610  177.0090  139.4810 C   0  0  0  0  0  0  0  0  0  0  0  0
  190.5070  175.6460  138.0450 C   0  0  0  0  0  0  0  0  0  0  0  0
  187.2570  178.1240  138.9980 C   0  0  0  0  0  3  0  0  0  0  0  0
  188.4830  176.6880  137.2710 N   0  0  0  0  0  0  0  0  0  0  0  0
  187.6990  178.3360  140.4310 C   0  0  0  0  0  3  0  0  0  0  0  0
  188.8480  177.6960  140.6780 C   0  0  0  0  0  0  0  0  0  0  0  0
  191.8860  174.6130  137.7400 Cl  0  0  0  0  0  0  0  0  0  0  0  0
  189.5590  175.8820  137.0270 C   0  0  0  0  0  3  0  0  0  0  0  0
  190.3400  176.2140  139.2750 N   0  0  0  0  0  2  0  0  0  0  0  0
  187.3090  176.8360  144.0980 C   0  0  0  0  0  0  0  0  0  0  0  0
  187.3880  177.6920  145.2170 N   0  0  0  0  0  0  0  0  0  0  0  0
  186.2010  177.1470  144.8240 C   0  0  1  0  0  3  0  0  0  0  0  0
  187.9310  176.1610  143.0090 N   0  0  0  0  0  2  0  0  0  0  0  0
  185.3750  178.1530  144.0830 C   0  0  0  0  0  0  0  0  0  0  0  0
  184.7890  179.2550  144.6640 C   0  0  0  0  0  3  0  0  0  0  0  0
  185.1120  178.1170  142.7980 O   0  0  0  0  0  0  0  0  0  0  0  0
  184.3680  179.1520  142.4870 C   0  0  0  0  0  3  0  0  0  0  0  0
  184.1380  179.9020  143.6280 C   0  0  0  0  0  3  0  0  0  0  0  0
  192.1930  177.0910  145.1990 C   0  0  0  0  0  2  0  0  0  0  0  0
  191.6620  176.1160  146.2350 C   0  0  0  0  0  2  0  0  0  0  0  0
  189.8700  177.3280  147.5280 N   0  0  0  0  0  2  0  0  0  0  0  0
  191.2190  176.8620  147.4440 C   0  0  0  0  0  0  0  0  0  0  0  0
  192.0470  177.1220  148.3560 O   0  0  0  0  0  0  0  0  0  0  0  0
  187.8520  178.0610  148.6770 C   0  0  0  0  0  1  0  0  0  0  0  0
  189.3680  178.0770  148.6700 C   0  0  0  0  0  2  0  0  0  0  0  0
  2  5  1  0  0  0  0
  2  4  1  0  0  0  0
  3 20  1  1  0  0  0
  3  1  1  0  0  0  0
  4  6  1  0  0  0  0
  5 13  1  6  0  0  0
  5  3  1  0  0  0  0
  6  1  1  0  0  0  0
  6 26  1  1  0  0  0
  7 10  1  0  0  0  0
  7  8  1  0  0  0  0
  8 13  2  0  0  0  0
  9 16  1  0  0  0  0
 10 12  2  0  0  0  0
 11  7  2  0  0  0  0
 12 13  1  0  0  0  0
 14  9  1  0  0  0  0
 15 11  1  0  0  0  0
 15  9  2  0  0  0  0
 16  8  1  0  0  0  0
 17 19  1  0  0  0  0
 17 18  2  0  0  0  0
 19 21  1  6  0  0  0
 19 18  1  0  0  0  0
 20 17  1  0  0  0  0
 21 22  2  0  0  0  0
 23 21  1  0  0  0  0
 24 23  1  0  0  0  0
 24 25  2  0  0  0  0
 25 22  1  0  0  0  0
 26 27  1  0  0  0  0
 27 29  1  0  0  0  0
 28 32  1  0  0  0  0
 29 28  1  0  0  0  0
 29 30  2  0  0  0  0
 32 31  1  0  0  0  0
M  END
>  <MODEL>
4

>  <REMARK>
 VINA RESULT:      -8.6      3.182      7.292
  Name = 
  7 active torsions:
  status: ('A' for Active; 'I' for Inactive)
    1  A    between atoms: N_4  and  C_18
    2  A    between atoms: C_7  and  C_23
    3  A    between atoms: C_7  and  C_30
    4  A    between atoms: C_10  and  N_26
    5  A    between atoms: C_16  and  C_21
    6  A    between atoms: C_17  and  C_22
    7  A    between atoms: C_23  and  C_25
                            x       y       z     vdW  Elec       q    Type
                         _______ _______ _______ _____ _____    ______ ____

>  <TORSDO>
F 7

$$$$
=
 OpenBabel10232407503D

 32 36  0  0  1  0  0  0  0  0999 V2000
  187.2980  178.2380  142.3520 C   0  0  0  0  0  2  0  0  0  0  0  0
  187.5320  178.4060  139.5020 O   0  0  0  0  0  0  0  0  0  0  0  0
  188.5970  177.9060  141.6170 C   0  0  2  0  0  3  0  0  0  0  0  0
  186.2650  178.4700  140.1080 C   0  0  0  0  0  2  0  0  0  0  0  0
  188.2640  177.4220  140.1950 C   0  0  2  0  0  3  0  0  0  0  0  0
  186.3880  179.1100  141.4920 C   0  0  1  0  0  3  0  0  0  0  0  0
  190.8370  176.2410  137.7780 C   0  0  0  0  0  0  0  0  0  0  0  0
  189.5460  176.3290  138.1990 C   0  0  0  0  0  0  0  0  0  0  0  0
  188.8160  175.1250  136.3300 C   0  0  0  0  0  0  0  0  0  0  0  0
  191.7450  176.9450  138.7220 C   0  0  0  0  0  3  0  0  0  0  0  0
  191.1540  175.6010  136.6260 N   0  0  0  0  0  0  0  0  0  0  0  0
  190.7490  177.4570  139.7410 C   0  0  0  0  0  3  0  0  0  0  0  0
  189.5040  177.0860  139.4230 C   0  0  0  0  0  0  0  0  0  0  0  0
  187.5280  174.4070  135.3880 Cl  0  0  0  0  0  0  0  0  0  0  0  0
  190.1530  175.0360  135.8870 C   0  0  0  0  0  3  0  0  0  0  0  0
  188.5260  175.7830  137.4910 N   0  0  0  0  0  2  0  0  0  0  0  0
  190.5490  177.1560  142.9860 C   0  0  0  0  0  0  0  0  0  0  0  0
  191.5940  178.0550  143.2900 N   0  0  0  0  0  0  0  0  0  0  0  0
  191.5980  176.7760  143.7660 C   0  0  1  0  0  3  0  0  0  0  0  0
  189.3090  176.8700  142.3470 N   0  0  0  0  0  2  0  0  0  0  0  0
  191.1750  176.7440  145.2030 C   0  0  0  0  0  0  0  0  0  0  0  0
  189.9890  177.2620  145.6740 C   0  0  0  0  0  3  0  0  0  0  0  0
  191.8690  176.2180  146.1840 O   0  0  0  0  0  0  0  0  0  0  0  0
  191.2000  176.3630  147.3030 C   0  0  0  0  0  3  0  0  0  0  0  0
  190.0070  177.0130  147.0350 C   0  0  0  0  0  3  0  0  0  0  0  0
  185.0270  179.2050  142.1570 C   0  0  0  0  0  2  0  0  0  0  0  0
  185.1270  178.8890  143.6390 C   0  0  0  0  0  2  0  0  0  0  0  0
  182.6190  178.7990  143.4130 N   0  0  0  0  0  2  0  0  0  0  0  0
  183.7710  178.9220  144.2500 C   0  0  0  0  0  0  0  0  0  0  0  0
  183.6480  179.1110  145.4890 O   0  0  0  0  0  0  0  0  0  0  0  0
  180.3660  179.6250  142.9970 C   0  0  0  0  0  1  0  0  0  0  0  0
  181.2610  178.8390  143.9350 C   0  0  0  0  0  2  0  0  0  0  0  0
  2  4  1  0  0  0  0
  2  5  1  0  0  0  0
  3 20  1  1  0  0  0
  3  1  1  0  0  0  0
  4  6  1  0  0  0  0
  5 13  1  6  0  0  0
  5  3  1  0  0  0  0
  6 26  1  1  0  0  0
  6  1  1  0  0  0  0
  7  8  1  0  0  0  0
  7 10  1  0  0  0  0
  8 13  2  0  0  0  0
  9 16  1  0  0  0  0
 10 12  2  0  0  0  0
 11  7  2  0  0  0  0
 13 12  1  0  0  0  0
 14  9  1  0  0  0  0
 15  9  2  0  0  0  0
 15 11  1  0  0  0  0
 16  8  1  0  0  0  0
 17 18  2  0  0  0  0
 17 19  1  0  0  0  0
 18 19  1  0  0  0  0
 19 21  1  1  0  0  0
 20 17  1  0  0  0  0
 21 22  2  0  0  0  0
 21 23  1  0  0  0  0
 22 25  1  0  0  0  0
 23 24  1  0  0  0  0
 25 24  2  0  0  0  0
 26 27  1  0  0  0  0
 27 29  1  0  0  0  0
 28 32  1  0  0  0  0
 28 29  1  0  0  0  0
 29 30  2  0  0  0  0
 31 32  1  0  0  0  0
M  END
>  <MODEL>
5

>  <REMARK>
 VINA RESULT:      -8.6      3.694      9.065
  Name = 
  7 active torsions:
  status: ('A' for Active; 'I' for Inactive)
    1  A    between atoms: N_4  and  C_18
    2  A    between atoms: C_7  and  C_23
    3  A    between atoms: C_7  and  C_30
    4  A    between atoms: C_10  and  N_26
    5  A    between atoms: C_16  and  C_21
    6  A    between atoms: C_17  and  C_22
    7  A    between atoms: C_23  and  C_25
                            x       y       z     vdW  Elec       q    Type
                         _______ _______ _______ _____ _____    ______ ____

>  <TORSDO>
F 7

$$$$
=
 OpenBabel10232407503D

 32 36  0  0  1  0  0  0  0  0999 V2000
  186.8890  178.0700  142.7840 C   0  0  0  0  0  2  0  0  0  0  0  0
  186.0890  178.9240  140.1700 O   0  0  0  0  0  0  0  0  0  0  0  0
  187.8570  178.0990  141.6000 C   0  0  2  0  0  3  0  0  0  0  0  0
  185.1180  178.6710  141.1540 C   0  0  0  0  0  2  0  0  0  0  0  0
  187.0650  177.9160  140.2940 C   0  0  2  0  0  3  0  0  0  0  0  0
  185.6930  178.9840  142.5360 C   0  0  1  0  0  3  0  0  0  0  0  0
  188.8310  177.3980  137.0580 C   0  0  0  0  0  0  0  0  0  0  0  0
  187.8600  177.0710  137.9540 C   0  0  0  0  0  0  0  0  0  0  0  0
  187.0490  175.4070  136.5230 C   0  0  0  0  0  0  0  0  0  0  0  0
  189.6570  178.5250  137.5690 C   0  0  0  0  0  3  0  0  0  0  0  0
  188.9380  176.7470  135.8740 N   0  0  0  0  0  0  0  0  0  0  0  0
  188.9810  178.7890  138.8980 C   0  0  0  0  0  3  0  0  0  0  0  0
  187.9650  177.9420  139.0960 C   0  0  0  0  0  0  0  0  0  0  0  0
  185.9090  174.1280  136.1640 Cl  0  0  0  0  0  0  0  0  0  0  0  0
  188.0510  175.7460  135.5890 C   0  0  0  0  0  3  0  0  0  0  0  0
  186.9620  176.0860  137.7050 N   0  0  0  0  0  2  0  0  0  0  0  0
  190.2020  177.3280  141.9920 C   0  0  0  0  0  0  0  0  0  0  0  0
  191.2430  178.2670  142.1560 N   0  0  0  0  0  0  0  0  0  0  0  0
  191.4770  176.9260  142.2490 C   0  0  1  0  0  3  0  0  0  0  0  0
  188.8310  177.0300  141.7510 N   0  0  0  0  0  2  0  0  0  0  0  0
  191.5970  176.5070  143.6830 C   0  0  0  0  0  0  0  0  0  0  0  0
  191.3060  177.3200  144.7550 C   0  0  0  0  0  3  0  0  0  0  0  0
  191.9820  175.3230  144.0960 O   0  0  0  0  0  0  0  0  0  0  0  0
  191.9670  175.3040  145.4070 C   0  0  0  0  0  3  0  0  0  0  0  0
  191.5460  176.5390  145.8720 C   0  0  0  0  0  3  0  0  0  0  0  0
  184.6530  178.7340  143.6140 C   0  0  0  0  0  2  0  0  0  0  0  0
  184.8970  179.6290  144.8170 C   0  0  0  0  0  2  0  0  0  0  0  0
  186.7000  178.4090  146.0860 N   0  0  0  0  0  2  0  0  0  0  0  0
  185.3310  178.8020  145.9750 C   0  0  0  0  0  0  0  0  0  0  0  0
  184.4810  178.4130  146.8190 O   0  0  0  0  0  0  0  0  0  0  0  0
  188.5850  178.0430  147.5830 C   0  0  0  0  0  1  0  0  0  0  0  0
  187.1960  177.5880  147.1800 C   0  0  0  0  0  2  0  0  0  0  0  0
  2  5  1  0  0  0  0
  2  4  1  0  0  0  0
  3 20  1  1  0  0  0
  3  1  1  0  0  0  0
  4  6  1  0  0  0  0
  5 13  1  6  0  0  0
  5  3  1  0  0  0  0
  6  1  1  0  0  0  0
  6 26  1  1  0  0  0
  7 10  1  0  0  0  0
  7  8  1  0  0  0  0
  8 13  2  0  0  0  0
  9 16  1  0  0  0  0
 10 12  2  0  0  0  0
 11  7  2  0  0  0  0
 12 13  1  0  0  0  0
 14  9  1  0  0  0  0
 15 11  1  0  0  0  0
 15  9  2  0  0  0  0
 16  8  1  0  0  0  0
 17 18  2  0  0  0  0
 17 19  1  0  0  0  0
 18 19  1  0  0  0  0
 19 21  1  1  0  0  0
 20 17  1  0  0  0  0
 21 23  1  0  0  0  0
 21 22  2  0  0  0  0
 22 25  1  0  0  0  0
 23 24  1  0  0  0  0
 24 25  2  0  0  0  0
 26 27  1  0  0  0  0
 27 29  1  0  0  0  0
 28 32  1  0  0  0  0
 29 28  1  0  0  0  0
 29 30  2  0  0  0  0
 32 31  1  0  0  0  0
M  END
>  <MODEL>
6

>  <REMARK>
 VINA RESULT:      -8.5      3.551      8.870
  Name = 
  7 active torsions:
  status: ('A' for Active; 'I' for Inactive)
    1  A    between atoms: N_4  and  C_18
    2  A    between atoms: C_7  and  C_23
    3  A    between atoms: C_7  and  C_30
    4  A    between atoms: C_10  and  N_26
    5  A    between atoms: C_16  and  C_21
    6  A    between atoms: C_17  and  C_22
    7  A    between atoms: C_23  and  C_25
                            x       y       z     vdW  Elec       q    Type
                         _______ _______ _______ _____ _____    ______ ____

>  <TORSDO>
F 7

$$$$
=
 OpenBabel10232407503D

 32 36  0  0  1  0  0  0  0  0999 V2000
  184.3550  178.5880  143.0130 C   0  0  0  0  0  2  0  0  0  0  0  0
  181.6330  179.3480  142.5440 O   0  0  0  0  0  0  0  0  0  0  0  0
  183.8030  178.8300  141.6080 C   0  0  2  0  0  3  0  0  0  0  0  0
  182.0260  178.8910  143.8140 C   0  0  0  0  0  2  0  0  0  0  0  0
  182.2930  178.5370  141.5990 C   0  0  2  0  0  3  0  0  0  0  0  0
  183.4860  179.2690  144.0670 C   0  0  1  0  0  3  0  0  0  0  0  0
  180.6870  178.3150  138.2490 C   0  0  0  0  0  0  0  0  0  0  0  0
  181.1560  177.7370  139.3880 C   0  0  0  0  0  0  0  0  0  0  0  0
  180.4760  175.6270  138.6430 C   0  0  0  0  0  0  0  0  0  0  0  0
  180.8970  179.7870  138.2820 C   0  0  0  0  0  3  0  0  0  0  0  0
  180.0970  177.5720  137.2800 N   0  0  0  0  0  0  0  0  0  0  0  0
  181.5530  179.9460  139.6380 C   0  0  0  0  0  3  0  0  0  0  0  0
  181.6960  178.7630  140.2440 C   0  0  0  0  0  0  0  0  0  0  0  0
  180.3290  173.8990  138.8830 Cl  0  0  0  0  0  0  0  0  0  0  0  0
  179.9820  176.2220  137.4620 C   0  0  0  0  0  3  0  0  0  0  0  0
  181.0580  176.4020  139.6040 N   0  0  0  0  0  2  0  0  0  0  0  0
  184.9010  178.4450  139.3950 C   0  0  0  0  0  0  0  0  0  0  0  0
  184.9670  179.4840  138.4420 N   0  0  0  0  0  0  0  0  0  0  0  0
  185.5330  178.2660  138.2030 C   0  0  1  0  0  3  0  0  0  0  0  0
  184.4890  177.9570  140.6680 N   0  0  0  0  0  2  0  0  0  0  0  0
  187.0170  178.3220  138.4030 C   0  0  0  0  0  0  0  0  0  0  0  0
  187.9370  178.3420  137.3780 C   0  0  0  0  0  3  0  0  0  0  0  0
  187.6230  178.3670  139.5650 O   0  0  0  0  0  0  0  0  0  0  0  0
  188.9190  178.4130  139.3670 C   0  0  0  0  0  3  0  0  0  0  0  0
  189.1690  178.4010  138.0050 C   0  0  0  0  0  3  0  0  0  0  0  0
  183.9260  178.8010  145.4430 C   0  0  0  0  0  2  0  0  0  0  0  0
  185.3130  178.1840  145.3860 C   0  0  0  0  0  2  0  0  0  0  0  0
  187.1810  177.7040  147.0070 N   0  0  0  0  0  2  0  0  0  0  0  0
  186.0530  178.4990  146.6370 C   0  0  0  0  0  0  0  0  0  0  0  0
  185.6490  179.4280  147.3850 O   0  0  0  0  0  0  0  0  0  0  0  0
  189.4280  177.8030  147.9410 C   0  0  0  0  0  1  0  0  0  0  0  0
  187.9440  177.9400  148.2230 C   0  0  0  0  0  2  0  0  0  0  0  0
  1  6  1  0  0  0  0
  2  4  1  0  0  0  0
  3 20  1  6  0  0  0
  3  1  1  0  0  0  0
  4  6  1  0  0  0  0
  5 13  1  6  0  0  0
  5  3  1  0  0  0  0
  5  2  1  0  0  0  0
  6 26  1  1  0  0  0
  7 10  1  0  0  0  0
  7  8  1  0  0  0  0
  8 16  1  0  0  0  0
  8 13  2  0  0  0  0
  9 14  1  0  0  0  0
  9 16  1  0  0  0  0
 10 12  2  0  0  0  0
 11 15  1  0  0  0  0
 11  7  2  0  0  0  0
 12 13  1  0  0  0  0
 15  9  2  0  0  0  0
 17 20  1  0  0  0  0
 18 17  2  0  0  0  0
 19 21  1  1  0  0  0
 19 18  1  0  0  0  0
 19 17  1  0  0  0  0
 21 23  1  0  0  0  0
 22 25  1  0  0  0  0
 22 21  2  0  0  0  0
 24 23  1  0  0  0  0
 25 24  2  0  0  0  0
 27 26  1  0  0  0  0
 27 29  1  0  0  0  0
 28 32  1  0  0  0  0
 29 28  1  0  0  0  0
 29 30  2  0  0  0  0
 31 32  1  0  0  0  0
M  END
>  <MODEL>
7

>  <REMARK>
 VINA RESULT:      -8.3      3.805      8.619
  Name = 
  7 active torsions:
  status: ('A' for Active; 'I' for Inactive)
    1  A    between atoms: N_4  and  C_18
    2  A    between atoms: C_7  and  C_23
    3  A    between atoms: C_7  and  C_30
    4  A    between atoms: C_10  and  N_26
    5  A    between atoms: C_16  and  C_21
    6  A    between atoms: C_17  and  C_22
    7  A    between atoms: C_23  and  C_25
                            x       y       z     vdW  Elec       q    Type
                         _______ _______ _______ _____ _____    ______ ____

>  <TORSDO>
F 7

$$$$
=
 OpenBabel10232407503D

 32 36  0  0  1  0  0  0  0  0999 V2000
  190.6450  176.7880  140.8580 C   0  0  0  0  0  2  0  0  0  0  0  0
  188.3990  178.1140  139.6750 O   0  0  0  0  0  0  0  0  0  0  0  0
  190.4320  176.8450  139.3450 C   0  0  2  0  0  3  0  0  0  0  0  0
  188.4200  177.8670  141.0590 C   0  0  0  0  0  2  0  0  0  0  0  0
  188.9260  176.9670  139.0500 C   0  0  2  0  0  3  0  0  0  0  0  0
  189.8630  177.8920  141.5630 C   0  0  1  0  0  3  0  0  0  0  0  0
  187.8280  176.4790  135.5270 C   0  0  0  0  0  0  0  0  0  0  0  0
  187.8670  176.0890  136.8300 C   0  0  0  0  0  0  0  0  0  0  0  0
  186.4950  174.2540  136.3600 C   0  0  0  0  0  0  0  0  0  0  0  0
  188.6110  177.7280  135.3300 C   0  0  0  0  0  3  0  0  0  0  0  0
  187.1220  175.7760  134.6080 N   0  0  0  0  0  0  0  0  0  0  0  0
  189.0890  177.9860  136.7430 C   0  0  0  0  0  3  0  0  0  0  0  0
  188.6580  177.0330  137.5770 C   0  0  0  0  0  0  0  0  0  0  0  0
  185.6300  172.8240  136.8820 Cl  0  0  0  0  0  0  0  0  0  0  0  0
  186.4460  174.6580  135.0090 C   0  0  0  0  0  3  0  0  0  0  0  0
  187.2080  174.9860  137.2650 N   0  0  0  0  0  2  0  0  0  0  0  0
  192.0120  175.7070  137.7770 C   0  0  0  0  0  0  0  0  0  0  0  0
  192.8990  176.4660  136.9840 N   0  0  0  0  0  0  0  0  0  0  0  0
  192.9080  175.1020  136.9510 C   0  0  1  0  0  3  0  0  0  0  0  0
  190.9650  175.6350  138.7400 N   0  0  0  0  0  2  0  0  0  0  0  0
  194.0510  174.5590  137.7530 C   0  0  0  0  0  0  0  0  0  0  0  0
  194.4950  173.2570  137.6880 C   0  0  0  0  0  3  0  0  0  0  0  0
  194.7730  175.2480  138.6050 O   0  0  0  0  0  0  0  0  0  0  0  0
  195.6860  174.4610  139.1220 C   0  0  0  0  0  3  0  0  0  0  0  0
  195.5550  173.1960  138.5750 C   0  0  0  0  0  3  0  0  0  0  0  0
  189.9080  177.6450  143.0600 C   0  0  0  0  0  2  0  0  0  0  0  0
  188.7270  176.8010  143.5050 C   0  0  0  0  0  2  0  0  0  0  0  0
  186.7550  177.2590  145.0040 N   0  0  0  0  0  2  0  0  0  0  0  0
  188.1600  177.3550  144.7630 C   0  0  0  0  0  0  0  0  0  0  0  0
  188.9130  177.9490  145.5790 O   0  0  0  0  0  0  0  0  0  0  0  0
  185.5100  179.1460  145.9100 C   0  0  0  0  0  1  0  0  0  0  0  0
  186.1250  177.7920  146.2030 C   0  0  0  0  0  2  0  0  0  0  0  0
  1  6  1  0  0  0  0
  2  4  1  0  0  0  0
  3 20  1  6  0  0  0
  3  1  1  0  0  0  0
  4  6  1  0  0  0  0
  5 13  1  6  0  0  0
  5  3  1  0  0  0  0
  5  2  1  0  0  0  0
  6 26  1  1  0  0  0
  7  8  1  0  0  0  0
  8 16  1  0  0  0  0
  8 13  2  0  0  0  0
  9 14  1  0  0  0  0
  9 16  1  0  0  0  0
 10  7  1  0  0  0  0
 10 12  2  0  0  0  0
 11 15  1  0  0  0  0
 11  7  2  0  0  0  0
 12 13  1  0  0  0  0
 15  9  2  0  0  0  0
 17 20  1  0  0  0  0
 18 17  2  0  0  0  0
 19 18  1  0  0  0  0
 19 21  1  1  0  0  0
 19 17  1  0  0  0  0
 21 23  1  0  0  0  0
 22 21  2  0  0  0  0
 22 25  1  0  0  0  0
 23 24  1  0  0  0  0
 25 24  2  0  0  0  0
 26 27  1  0  0  0  0
 27 29  1  0  0  0  0
 28 32  1  0  0  0  0
 29 28  1  0  0  0  0
 29 30  2  0  0  0  0
 31 32  1  0  0  0  0
M  END
>  <MODEL>
8

>  <REMARK>
 VINA RESULT:      -8.3      3.747      9.397
  Name = 
  7 active torsions:
  status: ('A' for Active; 'I' for Inactive)
    1  A    between atoms: N_4  and  C_18
    2  A    between atoms: C_7  and  C_23
    3  A    between atoms: C_7  and  C_30
    4  A    between atoms: C_10  and  N_26
    5  A    between atoms: C_16  and  C_21
    6  A    between atoms: C_17  and  C_22
    7  A    between atoms: C_23  and  C_25
                            x       y       z     vdW  Elec       q    Type
                         _______ _______ _______ _____ _____    ______ ____

>  <TORSDO>
F 7

$$$$
=
 OpenBabel10232407503D

 32 36  0  0  1  0  0  0  0  0999 V2000
  189.1650  176.7070  141.7570 C   0  0  0  0  0  2  0  0  0  0  0  0
  187.3270  178.9030  141.7070 O   0  0  0  0  0  0  0  0  0  0  0  0
  187.9690  176.7940  142.7050 C   0  0  2  0  0  3  0  0  0  0  0  0
  188.5410  178.9870  141.0040 C   0  0  0  0  0  2  0  0  0  0  0  0
  187.6120  178.2730  142.9350 C   0  0  2  0  0  3  0  0  0  0  0  0
  188.9600  177.5940  140.5330 C   0  0  1  0  0  3  0  0  0  0  0  0
  184.2790  178.6520  144.5480 C   0  0  0  0  0  0  0  0  0  0  0  0
  185.0660  178.5640  143.4420 C   0  0  0  0  0  0  0  0  0  0  0  0
  183.1910  178.7080  142.0510 C   0  0  0  0  0  0  0  0  0  0  0  0
  185.1010  178.5740  145.7850 C   0  0  0  0  0  2  0  0  0  0  0  0
  182.9320  178.7650  144.4400 N   0  0  0  0  0  0  0  0  0  0  0  0
  186.4850  178.4150  145.1920 C   0  0  0  0  0  3  0  0  0  0  0  0
  186.4390  178.4200  143.8550 C   0  0  0  0  0  0  0  0  0  0  0  0
  182.4780  178.7420  140.4520 Cl  0  0  0  0  0  0  0  0  0  0  0  0
  182.3700  178.7930  143.1950 C   0  0  0  0  0  3  0  0  0  0  0  0
  184.5440  178.5870  142.1900 N   0  0  0  0  0  0  0  0  0  0  0  0
  189.4100  176.6270  144.7400 C   0  0  0  0  0  0  0  0  0  0  0  0
  190.5040  177.5010  144.9120 N   0  0  0  0  0  0  0  0  0  0  0  0
  190.1790  176.5780  145.8620 C   0  0  1  0  0  3  0  0  0  0  0  0
  188.3100  176.1580  143.9670 N   0  0  0  0  0  2  0  0  0  0  0  0
  189.4530  177.2230  147.0030 C   0  0  0  0  0  0  0  0  0  0  0  0
  188.2430  176.7870  147.4980 C   0  0  0  0  0  3  0  0  0  0  0  0
  189.8730  178.2690  147.6740 O   0  0  0  0  0  0  0  0  0  0  0  0
  188.9940  178.5600  148.6020 C   0  0  0  0  0  3  0  0  0  0  0  0
  187.9480  177.6550  148.5350 C   0  0  0  0  0  3  0  0  0  0  0  0
  190.2610  177.6640  139.7540 C   0  0  0  0  0  2  0  0  0  0  0  0
  190.0370  177.3110  138.2940 C   0  0  0  0  0  2  0  0  0  0  0  0
  187.6220  177.3640  137.5780 N   0  0  0  0  0  2  0  0  0  0  0  0
  188.8580  178.0540  137.7750 C   0  0  0  0  0  0  0  0  0  0  0  0
  188.9720  179.2690  137.4630 O   0  0  0  0  0  0  0  0  0  0  0  0
  185.3740  178.1120  138.1430 C   0  0  0  0  0  1  0  0  0  0  0  0
  186.4310  178.0190  137.0590 C   0  0  0  0  0  2  0  0  0  0  0  0
  1  3  1  0  0  0  0
  2  5  1  0  0  0  0
  3  5  1  0  0  0  0
  3 20  1  1  0  0  0
  4  2  1  0  0  0  0
  5 13  1  1  0  0  0
  6 26  1  1  0  0  0
  6  4  1  0  0  0  0
  6  1  1  0  0  0  0
  7 10  1  0  0  0  0
  8 13  1  0  0  0  0
  8  7  2  0  0  0  0
  9 16  2  0  0  0  0
  9 15  1  0  0  0  0
 11  7  1  0  0  0  0
 12 10  1  0  0  0  0
 13 12  2  0  0  0  0
 14  9  1  0  0  0  0
 15 11  2  0  0  0  0
 16  8  1  0  0  0  0
 17 18  2  0  0  0  0
 17 19  1  0  0  0  0
 18 19  1  0  0  0  0
 19 21  1  1  0  0  0
 20 17  1  0  0  0  0
 21 22  2  0  0  0  0
 21 23  1  0  0  0  0
 22 25  1  0  0  0  0
 23 24  1  0  0  0  0
 25 24  2  0  0  0  0
 27 26  1  0  0  0  0
 28 29  1  0  0  0  0
 29 27  1  0  0  0  0
 30 29  2  0  0  0  0
 32 28  1  0  0  0  0
 32 31  1  0  0  0  0
M  END
>  <MODEL>
9

>  <REMARK>
 VINA RESULT:      -8.2      3.171      6.385
  Name = 
  7 active torsions:
  status: ('A' for Active; 'I' for Inactive)
    1  A    between atoms: N_4  and  C_18
    2  A    between atoms: C_7  and  C_23
    3  A    between atoms: C_7  and  C_30
    4  A    between atoms: C_10  and  N_26
    5  A    between atoms: C_16  and  C_21
    6  A    between atoms: C_17  and  C_22
    7  A    between atoms: C_23  and  C_25
                            x       y       z     vdW  Elec       q    Type
                         _______ _______ _______ _____ _____    ______ ____

>  <TORSDO>
F 7

$$$$
