=
 OpenBabel10232409003D

 46 48  0  0  1  0  0  0  0  0999 V2000
  191.8240  176.0320  146.2300 O   0  0  0  0  0  1  0  0  0  0  0  0
  191.4320  176.7990  143.9350 C   0  0  0  0  0  3  0  0  0  0  0  0
  189.3420  175.8380  143.0180 C   0  0  0  0  0  2  0  0  0  0  0  0
  187.9090  177.2310  144.2660 C   0  0  2  0  0  3  0  0  0  0  0  0
  189.8570  177.2540  145.8060 C   0  0  0  0  0  0  0  0  0  0  0  0
  188.9590  178.0950  144.9560 C   0  0  0  0  0  2  0  0  0  0  0  0
  190.7110  176.4390  142.8690 C   0  0  0  0  0  0  0  0  0  0  0  0
  190.9900  176.7030  145.3430 C   0  0  0  0  0  0  0  0  0  0  0  0
  189.4970  177.0580  147.1340 O   0  0  0  0  0  1  0  0  0  0  0  0
  188.3370  176.8840  142.9150 N   0  0  0  0  0  2  0  0  0  0  0  0
  186.1750  179.2760  146.1400 O   0  0  0  0  0  1  0  0  0  0  0  0
  183.8410  178.6250  144.0710 C   0  0  0  0  0  0  0  0  0  0  0  0
  186.5870  177.9390  144.2210 C   0  0  0  0  0  0  0  0  0  0  0  0
  184.7890  179.1660  143.0320 C   0  0  0  0  0  2  0  0  0  0  0  0
  184.3160  178.1220  145.2250 C   0  0  0  0  0  3  0  0  0  0  0  0
  186.1040  178.4320  143.0650 C   0  0  0  0  0  3  0  0  0  0  0  0
  185.7990  178.0940  145.5010 C   0  0  2  0  0  3  0  0  0  0  0  0
  181.7010  179.0660  144.9740 F   0  0  0  0  0  0  0  0  0  0  0  0
  182.3670  178.6950  143.8190 C   0  0  1  0  0  3  0  0  0  0  0  0
  182.0930  179.6180  142.7960 O   0  0  0  0  0  0  0  0  0  0  0  0
  180.4340  178.0680  142.4130 F   0  0  0  0  0  0  0  0  0  0  0  0
  182.1440  178.2750  140.9710 F   0  0  0  0  0  0  0  0  0  0  0  0
  181.3060  178.9720  141.8220 C   0  0  0  0  0  0  0  0  0  0  0  0
  180.5900  179.8950  141.0720 F   0  0  0  0  0  0  0  0  0  0  0  0
  191.2640  176.6360  141.6000 O   0  0  0  0  0  0  0  0  0  0  0  0
  190.8460  177.6840  140.7300 C   0  0  0  0  0  2  0  0  0  0  0  0
  190.2740  177.1450  139.4200 C   0  0  1  0  0  3  0  0  0  0  0  0
  192.1290  176.4820  137.2420 O   0  0  0  0  0  0  0  0  0  0  0  0
  192.0930  174.2020  137.7360 N   0  0  0  0  0  2  0  0  0  0  0  0
  190.8300  175.8330  139.0850 N   0  0  0  0  0  2  0  0  0  0  0  0
  191.7020  175.5520  137.9800 C   0  0  0  0  0  0  0  0  0  0  0  0
  192.9130  173.8310  136.5920 C   0  0  0  0  0  2  0  0  0  0  0  0
  197.2020  174.3160  137.7480 C   0  0  0  0  0  0  0  0  0  0  0  0
  196.0880  174.0460  138.7200 C   0  0  2  0  0  3  0  0  0  0  0  0
  197.3490  173.5790  136.6460 C   0  0  0  0  0  3  0  0  0  0  0  0
  195.0840  172.4800  136.3800 C   0  0  0  0  0  0  0  0  0  0  0  0
  194.7590  174.2700  138.0830 C   0  0  0  0  0  3  0  0  0  0  0  0
  196.4200  172.5250  136.1960 C   0  0  0  0  0  3  0  0  0  0  0  0
  198.1320  175.3200  138.0020 O   0  0  0  0  0  1  0  0  0  0  0  0
  194.3120  173.5680  137.0380 C   0  0  0  0  0  0  0  0  0  0  0  0
  196.2020  174.9000  139.9690 C   0  0  0  0  0  1  0  0  0  0  0  0
  194.1300  170.1940  136.6090 C   0  0  0  0  0  1  0  0  0  0  0  0
  194.3540  171.3930  135.8780 O   0  0  0  0  0  0  0  0  0  0  0  0
  188.7480  177.1560  139.3920 C   0  0  0  0  0  2  0  0  0  0  0  0
  188.2220  178.4820  138.8700 C   0  0  0  0  0  2  0  0  0  0  0  0
  189.2540  179.2190  138.3190 F   0  0  0  0  0  0  0  0  0  0  0  0
  2  8  1  0  0  0  0
  4 13  1  6  0  0  0
  4  6  1  0  0  0  0
  5  9  1  0  0  0  0
  6  5  1  0  0  0  0
  7  3  1  0  0  0  0
  7  2  2  0  0  0  0
  8  5  2  0  0  0  0
  8  1  1  0  0  0  0
 10  3  1  0  0  0  0
 10  4  1  0  0  0  0
 12 15  2  0  0  0  0
 13 17  1  0  0  0  0
 14 16  1  0  0  0  0
 14 12  1  0  0  0  0
 15 17  1  0  0  0  0
 16 13  2  0  0  0  0
 17 11  1  6  0  0  0
 19 12  1  0  0  0  0
 19 18  1  1  0  0  0
 20 19  1  0  0  0  0
 22 23  1  0  0  0  0
 23 21  1  0  0  0  0
 23 20  1  0  0  0  0
 24 23  1  0  0  0  0
 25  7  1  0  0  0  0
 26 25  1  0  0  0  0
 27 44  1  1  0  0  0
 27 26  1  0  0  0  0
 28 31  2  0  0  0  0
 29 31  1  0  0  0  0
 30 27  1  0  0  0  0
 31 30  1  0  0  0  0
 32 40  1  0  0  0  0
 32 29  1  0  0  0  0
 33 39  1  0  0  0  0
 33 34  1  0  0  0  0
 34 41  1  1  0  0  0
 35 33  2  0  0  0  0
 36 40  1  0  0  0  0
 37 34  1  0  0  0  0
 38 36  2  0  0  0  0
 38 35  1  0  0  0  0
 40 37  2  0  0  0  0
 43 36  1  0  0  0  0
 43 42  1  0  0  0  0
 45 44  1  0  0  0  0
 46 45  1  0  0  0  0
M  END
>  <MODEL>
1

>  <REMARK>
 VINA RESULT:      -8.5      0.000      0.000
  Name = 
  13 active torsions:
  status: ('A' for Active; 'I' for Inactive)
    1  A    between atoms: C_2  and  C_5
    2  A    between atoms: C_2  and  C_8
    3  A    between atoms: C_5  and  N_31
    4  A    between atoms: C_5  and  C_37
    5  A    between atoms: C_6  and  C_17
    6  A    between atoms: O_11  and  C_28
    7  A    between atoms: C_16  and  C_45
    8  A    between atoms: C_18  and  O_43
    9  A    between atoms: O_21  and  C_36
   10  A    between atoms: O_21  and  C_37
   11  A    between atoms: C_25  and  N_27
   12  A    between atoms: C_25  and  C_40
   13  A    between atoms: O_43  and  C_45
                            x       y       z     vdW  Elec       q    Type
                         _______ _______ _______ _____ _____    ______ ____

>  <TORSDO>
F 13

$$$$
=
 OpenBabel10232409003D

 46 48  0  0  1  0  0  0  0  0999 V2000
  188.5000  177.1110  147.5840 O   0  0  0  0  0  1  0  0  0  0  0  0
  189.1820  177.6250  145.2860 C   0  0  0  0  0  3  0  0  0  0  0  0
  187.8030  176.3820  143.6470 C   0  0  0  0  0  2  0  0  0  0  0  0
  185.8910  177.7320  143.9200 C   0  0  2  0  0  3  0  0  0  0  0  0
  186.9000  178.0880  146.1610 C   0  0  0  0  0  0  0  0  0  0  0  0
  186.4590  178.7560  144.8970 C   0  0  0  0  0  2  0  0  0  0  0  0
  189.0550  177.1000  144.0630 C   0  0  0  0  0  0  0  0  0  0  0  0
  188.1430  177.6120  146.3380 C   0  0  0  0  0  0  0  0  0  0  0  0
  185.9740  177.9770  147.1930 O   0  0  0  0  0  1  0  0  0  0  0  0
  186.9120  177.3100  142.9670 N   0  0  0  0  0  2  0  0  0  0  0  0
  183.8410  180.2660  144.1970 O   0  0  0  0  0  1  0  0  0  0  0  0
  182.2070  178.7340  141.9300 C   0  0  0  0  0  0  0  0  0  0  0  0
  184.7100  178.2990  143.1890 C   0  0  0  0  0  0  0  0  0  0  0  0
  183.4690  178.8640  141.1160 C   0  0  0  0  0  2  0  0  0  0  0  0
  182.2630  178.7540  143.2740 C   0  0  0  0  0  3  0  0  0  0  0  0
  184.6460  178.2680  141.8440 C   0  0  0  0  0  3  0  0  0  0  0  0
  183.5830  178.9110  143.9880 C   0  0  2  0  0  3  0  0  0  0  0  0
  180.2900  179.8690  141.1410 F   0  0  0  0  0  0  0  0  0  0  0  0
  180.8930  178.6260  141.2220 C   0  0  1  0  0  3  0  0  0  0  0  0
  181.0780  178.1030  139.9320 O   0  0  0  0  0  0  0  0  0  0  0  0
  180.0270  176.3670  138.8430 F   0  0  0  0  0  0  0  0  0  0  0  0
  179.9840  176.4880  141.0850 F   0  0  0  0  0  0  0  0  0  0  0  0
  180.7570  176.7310  139.9650 C   0  0  0  0  0  0  0  0  0  0  0  0
  181.9060  175.9570  140.0510 F   0  0  0  0  0  0  0  0  0  0  0  0
  190.1240  177.2370  143.1710 O   0  0  0  0  0  0  0  0  0  0  0  0
  190.4400  176.2540  142.1910 C   0  0  0  0  0  2  0  0  0  0  0  0
  190.7860  176.8830  140.8420 C   0  0  1  0  0  3  0  0  0  0  0  0
  189.9770  177.0200  138.0220 O   0  0  0  0  0  0  0  0  0  0  0  0
  188.2160  178.4850  138.4670 N   0  0  0  0  0  2  0  0  0  0  0  0
  189.6450  177.6010  140.2710 N   0  0  0  0  0  2  0  0  0  0  0  0
  189.3160  177.6730  138.8760 C   0  0  0  0  0  0  0  0  0  0  0  0
  187.8690  178.6650  137.0660 C   0  0  0  0  0  2  0  0  0  0  0  0
  184.8120  175.4070  137.0880 C   0  0  0  0  0  0  0  0  0  0  0  0
  184.5330  176.8280  136.6870 C   0  0  2  0  0  3  0  0  0  0  0  0
  185.8480  174.7380  136.5790 C   0  0  0  0  0  3  0  0  0  0  0  0
  187.3340  176.5770  135.6740 C   0  0  0  0  0  0  0  0  0  0  0  0
  185.6470  177.7280  137.1020 C   0  0  0  0  0  3  0  0  0  0  0  0
  186.8750  175.3090  135.6850 C   0  0  0  0  0  3  0  0  0  0  0  0
  183.9650  174.7440  137.9710 O   0  0  0  0  0  1  0  0  0  0  0  0
  186.8970  177.6140  136.6470 C   0  0  0  0  0  0  0  0  0  0  0  0
  183.2260  177.3380  137.2680 C   0  0  0  0  0  1  0  0  0  0  0  0
  189.5700  176.2770  134.6250 C   0  0  0  0  0  1  0  0  0  0  0  0
  188.3200  176.9460  134.7490 O   0  0  0  0  0  0  0  0  0  0  0  0
  192.0470  177.7400  140.8960 C   0  0  0  0  0  2  0  0  0  0  0  0
  193.1830  177.0890  140.1250 C   0  0  0  0  0  2  0  0  0  0  0  0
  192.8870  177.0650  138.7740 F   0  0  0  0  0  0  0  0  0  0  0  0
  2  8  1  0  0  0  0
  3  7  1  0  0  0  0
  4 13  1  6  0  0  0
  4  6  1  0  0  0  0
  5  8  2  0  0  0  0
  5  9  1  0  0  0  0
  6  5  1  0  0  0  0
  7  2  2  0  0  0  0
  8  1  1  0  0  0  0
 10  3  1  0  0  0  0
 10  4  1  0  0  0  0
 12 15  2  0  0  0  0
 13 17  1  0  0  0  0
 14 16  1  0  0  0  0
 14 12  1  0  0  0  0
 15 17  1  0  0  0  0
 16 13  2  0  0  0  0
 17 11  1  6  0  0  0
 19 18  1  6  0  0  0
 19 12  1  0  0  0  0
 20 23  1  0  0  0  0
 20 19  1  0  0  0  0
 21 23  1  0  0  0  0
 23 24  1  0  0  0  0
 23 22  1  0  0  0  0
 25  7  1  0  0  0  0
 26 25  1  0  0  0  0
 27 44  1  1  0  0  0
 27 26  1  0  0  0  0
 28 31  2  0  0  0  0
 29 31  1  0  0  0  0
 30 27  1  0  0  0  0
 31 30  1  0  0  0  0
 32 29  1  0  0  0  0
 33 39  1  0  0  0  0
 34 33  1  0  0  0  0
 34 37  1  0  0  0  0
 34 41  1  1  0  0  0
 35 33  2  0  0  0  0
 36 38  2  0  0  0  0
 36 40  1  0  0  0  0
 38 35  1  0  0  0  0
 40 32  1  0  0  0  0
 40 37  2  0  0  0  0
 42 43  1  0  0  0  0
 43 36  1  0  0  0  0
 45 44  1  0  0  0  0
 46 45  1  0  0  0  0
M  END
>  <MODEL>
2

>  <REMARK>
 VINA RESULT:      -8.4      3.554      6.040
  Name = 
  13 active torsions:
  status: ('A' for Active; 'I' for Inactive)
    1  A    between atoms: C_2  and  C_5
    2  A    between atoms: C_2  and  C_8
    3  A    between atoms: C_5  and  N_31
    4  A    between atoms: C_5  and  C_37
    5  A    between atoms: C_6  and  C_17
    6  A    between atoms: O_11  and  C_28
    7  A    between atoms: C_16  and  C_45
    8  A    between atoms: C_18  and  O_43
    9  A    between atoms: O_21  and  C_36
   10  A    between atoms: O_21  and  C_37
   11  A    between atoms: C_25  and  N_27
   12  A    between atoms: C_25  and  C_40
   13  A    between atoms: O_43  and  C_45
                            x       y       z     vdW  Elec       q    Type
                         _______ _______ _______ _____ _____    ______ ____

>  <TORSDO>
F 13

$$$$
=
 OpenBabel10232409003D

 46 48  0  0  1  0  0  0  0  0999 V2000
  191.8310  176.0180  146.6020 O   0  0  0  0  0  1  0  0  0  0  0  0
  191.5350  176.7570  144.2840 C   0  0  0  0  0  3  0  0  0  0  0  0
  189.4920  175.7730  143.2870 C   0  0  0  0  0  2  0  0  0  0  0  0
  187.9980  177.1710  144.4560 C   0  0  2  0  0  3  0  0  0  0  0  0
  189.8780  177.2230  146.0790 C   0  0  0  0  0  0  0  0  0  0  0  0
  189.0120  178.0490  145.1810 C   0  0  0  0  0  2  0  0  0  0  0  0
  190.8630  176.3800  143.1910 C   0  0  0  0  0  0  0  0  0  0  0  0
  191.0330  176.6730  145.6720 C   0  0  0  0  0  0  0  0  0  0  0  0
  189.4610  177.0400  147.3920 O   0  0  0  0  0  1  0  0  0  0  0  0
  188.4870  176.8120  143.1290 N   0  0  0  0  0  2  0  0  0  0  0  0
  186.2200  179.3060  146.1810 O   0  0  0  0  0  1  0  0  0  0  0  0
  183.9310  178.5370  144.1020 C   0  0  0  0  0  0  0  0  0  0  0  0
  186.6760  177.8700  144.3450 C   0  0  0  0  0  0  0  0  0  0  0  0
  184.9000  179.0260  143.0550 C   0  0  0  0  0  2  0  0  0  0  0  0
  184.3840  178.0980  145.2900 C   0  0  0  0  0  3  0  0  0  0  0  0
  186.2160  178.2990  143.1550 C   0  0  0  0  0  3  0  0  0  0  0  0
  185.8610  178.0910  145.5980 C   0  0  2  0  0  3  0  0  0  0  0  0
  181.7830  179.1110  144.9000 F   0  0  0  0  0  0  0  0  0  0  0  0
  182.4640  178.5880  143.8150 C   0  0  1  0  0  3  0  0  0  0  0  0
  182.2180  179.3730  142.6760 O   0  0  0  0  0  0  0  0  0  0  0  0
  181.8400  177.8610  140.9810 F   0  0  0  0  0  0  0  0  0  0  0  0
  180.5290  179.6730  141.1950 F   0  0  0  0  0  0  0  0  0  0  0  0
  181.2440  178.7190  141.8950 C   0  0  0  0  0  0  0  0  0  0  0  0
  180.3600  178.0120  142.6970 F   0  0  0  0  0  0  0  0  0  0  0  0
  191.4700  176.5670  141.9450 O   0  0  0  0  0  0  0  0  0  0  0  0
  191.3160  177.7600  141.1820 C   0  0  0  0  0  2  0  0  0  0  0  0
  190.5910  177.5050  139.8620 C   0  0  1  0  0  3  0  0  0  0  0  0
  191.7700  176.6900  137.2980 O   0  0  0  0  0  0  0  0  0  0  0  0
  191.4440  174.4200  137.7260 N   0  0  0  0  0  2  0  0  0  0  0  0
  190.8190  176.1440  139.3730 N   0  0  0  0  0  2  0  0  0  0  0  0
  191.3600  175.7960  138.0900 C   0  0  0  0  0  0  0  0  0  0  0  0
  191.9110  173.9950  136.4150 C   0  0  0  0  0  2  0  0  0  0  0  0
  195.2660  171.3310  137.6840 C   0  0  0  0  0  0  0  0  0  0  0  0
  194.5450  171.2180  136.3710 C   0  0  2  0  0  3  0  0  0  0  0  0
  195.7360  172.5030  138.1140 C   0  0  0  0  0  3  0  0  0  0  0  0
  194.4510  174.1840  136.7240 C   0  0  0  0  0  0  0  0  0  0  0  0
  193.2820  172.0100  136.3860 C   0  0  0  0  0  3  0  0  0  0  0  0
  195.5250  173.8020  137.4460 C   0  0  0  0  0  3  0  0  0  0  0  0
  195.4950  170.2010  138.4630 O   0  0  0  0  0  1  0  0  0  0  0  0
  193.2430  173.3350  136.5430 C   0  0  0  0  0  0  0  0  0  0  0  0
  194.2340  169.7750  136.0140 C   0  0  0  0  0  1  0  0  0  0  0  0
  194.4770  175.7090  134.7580 C   0  0  0  0  0  1  0  0  0  0  0  0
  194.4200  175.4670  136.1590 O   0  0  0  0  0  0  0  0  0  0  0  0
  189.1090  177.8620  139.9230 C   0  0  0  0  0  2  0  0  0  0  0  0
  188.5580  178.1410  138.5350 C   0  0  0  0  0  2  0  0  0  0  0  0
  189.1540  179.2710  138.0060 F   0  0  0  0  0  0  0  0  0  0  0  0
  2  8  1  0  0  0  0
  4 13  1  6  0  0  0
  4  6  1  0  0  0  0
  5  9  1  0  0  0  0
  6  5  1  0  0  0  0
  7  3  1  0  0  0  0
  7  2  2  0  0  0  0
  8  5  2  0  0  0  0
  8  1  1  0  0  0  0
 10  3  1  0  0  0  0
 10  4  1  0  0  0  0
 12 15  2  0  0  0  0
 13 17  1  0  0  0  0
 14 16  1  0  0  0  0
 14 12  1  0  0  0  0
 15 17  1  0  0  0  0
 16 13  2  0  0  0  0
 17 11  1  6  0  0  0
 19 12  1  0  0  0  0
 19 18  1  1  0  0  0
 20 19  1  0  0  0  0
 21 23  1  0  0  0  0
 22 23  1  0  0  0  0
 23 20  1  0  0  0  0
 23 24  1  0  0  0  0
 25  7  1  0  0  0  0
 26 25  1  0  0  0  0
 27 44  1  1  0  0  0
 27 26  1  0  0  0  0
 28 31  2  0  0  0  0
 29 31  1  0  0  0  0
 30 27  1  0  0  0  0
 31 30  1  0  0  0  0
 32 40  1  0  0  0  0
 32 29  1  0  0  0  0
 33 35  2  0  0  0  0
 33 39  1  0  0  0  0
 34 41  1  1  0  0  0
 34 37  1  0  0  0  0
 34 33  1  0  0  0  0
 36 38  2  0  0  0  0
 37 40  2  0  0  0  0
 38 35  1  0  0  0  0
 40 36  1  0  0  0  0
 42 43  1  0  0  0  0
 43 36  1  0  0  0  0
 45 44  1  0  0  0  0
 46 45  1  0  0  0  0
M  END
>  <MODEL>
3

>  <REMARK>
 VINA RESULT:      -8.4      1.117      2.106
  Name = 
  13 active torsions:
  status: ('A' for Active; 'I' for Inactive)
    1  A    between atoms: C_2  and  C_5
    2  A    between atoms: C_2  and  C_8
    3  A    between atoms: C_5  and  N_31
    4  A    between atoms: C_5  and  C_37
    5  A    between atoms: C_6  and  C_17
    6  A    between atoms: O_11  and  C_28
    7  A    between atoms: C_16  and  C_45
    8  A    between atoms: C_18  and  O_43
    9  A    between atoms: O_21  and  C_36
   10  A    between atoms: O_21  and  C_37
   11  A    between atoms: C_25  and  N_27
   12  A    between atoms: C_25  and  C_40
   13  A    between atoms: O_43  and  C_45
                            x       y       z     vdW  Elec       q    Type
                         _______ _______ _______ _____ _____    ______ ____

>  <TORSDO>
F 13

$$$$
=
 OpenBabel10232409003D

 46 48  0  0  1  0  0  0  0  0999 V2000
  188.3840  177.5740  146.5840 O   0  0  0  0  0  1  0  0  0  0  0  0
  186.6540  177.2690  144.8740 C   0  0  0  0  0  3  0  0  0  0  0  0
  186.9200  178.9040  143.0330 C   0  0  0  0  0  2  0  0  0  0  0  0
  188.7800  177.8270  142.0670 C   0  0  2  0  0  3  0  0  0  0  0  0
  189.0860  177.0380  144.4020 C   0  0  0  0  0  0  0  0  0  0  0  0
  188.8560  176.6120  142.9860 C   0  0  0  0  0  2  0  0  0  0  0  0
  186.1050  177.9610  143.8710 C   0  0  0  0  0  0  0  0  0  0  0  0
  188.0830  177.2970  145.2560 C   0  0  0  0  0  0  0  0  0  0  0  0
  190.4000  177.1490  144.8410 O   0  0  0  0  0  1  0  0  0  0  0  0
  187.3910  178.2140  141.8430 N   0  0  0  0  0  2  0  0  0  0  0  0
  188.6930  178.9370  138.9920 O   0  0  0  0  0  1  0  0  0  0  0  0
  190.4640  176.3580  138.3880 C   0  0  0  0  0  0  0  0  0  0  0  0
  189.4520  177.5410  140.7570 C   0  0  0  0  0  0  0  0  0  0  0  0
  191.4300  176.9500  139.3810 C   0  0  0  0  0  2  0  0  0  0  0  0
  189.1590  176.6770  138.4400 C   0  0  0  0  0  3  0  0  0  0  0  0
  190.7550  177.2090  140.7040 C   0  0  0  0  0  3  0  0  0  0  0  0
  188.6400  177.6330  139.4860 C   0  0  2  0  0  3  0  0  0  0  0  0
  192.3360  175.6700  137.1190 F   0  0  0  0  0  0  0  0  0  0  0  0
  190.9850  175.4470  137.3210 C   0  0  1  0  0  3  0  0  0  0  0  0
  190.7740  174.1050  137.6820 O   0  0  0  0  0  0  0  0  0  0  0  0
  190.8360  172.6210  135.9230 F   0  0  0  0  0  0  0  0  0  0  0  0
  189.5600  174.4660  135.8030 F   0  0  0  0  0  0  0  0  0  0  0  0
  190.0350  173.4860  136.6550 C   0  0  0  0  0  0  0  0  0  0  0  0
  188.9490  172.7950  137.1750 F   0  0  0  0  0  0  0  0  0  0  0  0
  184.7400  177.7850  143.6170 O   0  0  0  0  0  0  0  0  0  0  0  0
  183.7470  178.6970  144.0760 C   0  0  0  0  0  2  0  0  0  0  0  0
  182.8850  179.2260  142.9300 C   0  0  1  0  0  3  0  0  0  0  0  0
  184.5480  179.6490  140.5470 O   0  0  0  0  0  0  0  0  0  0  0  0
  183.7020  177.7620  139.4660 N   0  0  0  0  0  2  0  0  0  0  0  0
  182.9820  178.3760  141.7420 N   0  0  0  0  0  2  0  0  0  0  0  0
  183.7790  178.6490  140.5810 C   0  0  0  0  0  0  0  0  0  0  0  0
  184.4230  178.0150  138.2280 C   0  0  0  0  0  2  0  0  0  0  0  0
  184.7750  173.6930  137.1500 C   0  0  0  0  0  0  0  0  0  0  0  0
  183.5920  174.5560  136.8140 C   0  0  2  0  0  3  0  0  0  0  0  0
  186.0200  174.0940  136.8800 C   0  0  0  0  0  3  0  0  0  0  0  0
  185.7660  176.5930  136.5670 C   0  0  0  0  0  0  0  0  0  0  0  0
  183.6250  175.8310  137.5880 C   0  0  0  0  0  3  0  0  0  0  0  0
  186.3910  175.4180  136.3460 C   0  0  0  0  0  3  0  0  0  0  0  0
  184.5930  172.4340  137.7140 O   0  0  0  0  0  1  0  0  0  0  0  0
  184.5960  176.7390  137.4750 C   0  0  0  0  0  0  0  0  0  0  0  0
  182.2760  173.8430  137.0670 C   0  0  0  0  0  1  0  0  0  0  0  0
  187.5730  177.8690  135.4290 C   0  0  0  0  0  1  0  0  0  0  0  0
  186.2640  177.7620  135.9750 O   0  0  0  0  0  0  0  0  0  0  0  0
  181.4400  179.4830  143.3470 C   0  0  0  0  0  2  0  0  0  0  0  0
  180.5470  178.3130  142.9700 C   0  0  0  0  0  2  0  0  0  0  0  0
  180.0650  177.6970  144.1100 F   0  0  0  0  0  0  0  0  0  0  0  0
  2  8  1  0  0  0  0
  3  7  1  0  0  0  0
  4 13  1  6  0  0  0
  4  6  1  0  0  0  0
  5  9  1  0  0  0  0
  5  8  2  0  0  0  0
  6  5  1  0  0  0  0
  7  2  2  0  0  0  0
  8  1  1  0  0  0  0
 10  4  1  0  0  0  0
 10  3  1  0  0  0  0
 12 15  2  0  0  0  0
 12 14  1  0  0  0  0
 14 16  1  0  0  0  0
 15 17  1  0  0  0  0
 16 13  2  0  0  0  0
 17 11  1  6  0  0  0
 17 13  1  0  0  0  0
 19 18  1  1  0  0  0
 19 20  1  0  0  0  0
 19 12  1  0  0  0  0
 21 23  1  0  0  0  0
 22 23  1  0  0  0  0
 23 24  1  0  0  0  0
 23 20  1  0  0  0  0
 25  7  1  0  0  0  0
 25 26  1  0  0  0  0
 27 44  1  1  0  0  0
 27 26  1  0  0  0  0
 28 31  2  0  0  0  0
 29 31  1  0  0  0  0
 30 27  1  0  0  0  0
 31 30  1  0  0  0  0
 32 29  1  0  0  0  0
 33 39  1  0  0  0  0
 34 41  1  1  0  0  0
 34 33  1  0  0  0  0
 34 37  1  0  0  0  0
 35 33  2  0  0  0  0
 36 40  1  0  0  0  0
 38 36  2  0  0  0  0
 38 35  1  0  0  0  0
 40 37  2  0  0  0  0
 40 32  1  0  0  0  0
 42 43  1  0  0  0  0
 43 36  1  0  0  0  0
 45 44  1  0  0  0  0
 45 46  1  0  0  0  0
M  END
>  <MODEL>
4

>  <REMARK>
 VINA RESULT:      -8.3      3.845      9.117
  Name = 
  13 active torsions:
  status: ('A' for Active; 'I' for Inactive)
    1  A    between atoms: C_2  and  C_5
    2  A    between atoms: C_2  and  C_8
    3  A    between atoms: C_5  and  N_31
    4  A    between atoms: C_5  and  C_37
    5  A    between atoms: C_6  and  C_17
    6  A    between atoms: O_11  and  C_28
    7  A    between atoms: C_16  and  C_45
    8  A    between atoms: C_18  and  O_43
    9  A    between atoms: O_21  and  C_36
   10  A    between atoms: O_21  and  C_37
   11  A    between atoms: C_25  and  N_27
   12  A    between atoms: C_25  and  C_40
   13  A    between atoms: O_43  and  C_45
                            x       y       z     vdW  Elec       q    Type
                         _______ _______ _______ _____ _____    ______ ____

>  <TORSDO>
F 13

$$$$
=
 OpenBabel10232409003D

 46 48  0  0  1  0  0  0  0  0999 V2000
  191.7960  176.1420  146.3480 O   0  0  0  0  0  1  0  0  0  0  0  0
  191.4600  176.7920  144.0080 C   0  0  0  0  0  3  0  0  0  0  0  0
  189.4050  175.7660  143.0830 C   0  0  0  0  0  2  0  0  0  0  0  0
  187.9250  177.2020  144.2230 C   0  0  2  0  0  3  0  0  0  0  0  0
  189.8300  177.3210  145.8120 C   0  0  0  0  0  0  0  0  0  0  0  0
  188.9470  178.1100  144.8980 C   0  0  0  0  0  2  0  0  0  0  0  0
  190.7710  176.3730  142.9420 C   0  0  0  0  0  0  0  0  0  0  0  0
  190.9810  176.7590  145.4070 C   0  0  0  0  0  0  0  0  0  0  0  0
  189.4360  177.1850  147.1380 O   0  0  0  0  0  1  0  0  0  0  0  0
  188.3930  176.7950  142.9030 N   0  0  0  0  0  2  0  0  0  0  0  0
  186.1410  179.3490  145.9280 O   0  0  0  0  0  1  0  0  0  0  0  0
  183.8490  178.5420  143.8650 C   0  0  0  0  0  0  0  0  0  0  0  0
  186.5990  177.8930  144.1080 C   0  0  0  0  0  0  0  0  0  0  0  0
  184.8120  179.0230  142.8100 C   0  0  0  0  0  2  0  0  0  0  0  0
  184.3080  178.1200  145.0570 C   0  0  0  0  0  3  0  0  0  0  0  0
  186.1330  178.3040  142.9140 C   0  0  0  0  0  3  0  0  0  0  0  0
  185.7860  178.1250  145.3610 C   0  0  2  0  0  3  0  0  0  0  0  0
  181.6880  178.9870  144.7100 F   0  0  0  0  0  0  0  0  0  0  0  0
  182.3800  178.5810  143.5830 C   0  0  1  0  0  3  0  0  0  0  0  0
  182.1140  179.4600  142.5190 O   0  0  0  0  0  0  0  0  0  0  0  0
  180.1580  178.2830  142.2180 F   0  0  0  0  0  0  0  0  0  0  0  0
  182.0000  177.7320  141.0570 F   0  0  0  0  0  0  0  0  0  0  0  0
  181.2890  178.7890  141.5940 C   0  0  0  0  0  0  0  0  0  0  0  0
  180.9160  179.6360  140.5600 F   0  0  0  0  0  0  0  0  0  0  0  0
  191.3570  176.5150  141.6800 O   0  0  0  0  0  0  0  0  0  0  0  0
  190.9160  177.4790  140.7280 C   0  0  0  0  0  2  0  0  0  0  0  0
  190.4980  176.8290  139.4100 C   0  0  1  0  0  3  0  0  0  0  0  0
  188.5140  175.6860  137.5710 O   0  0  0  0  0  0  0  0  0  0  0  0
  187.3710  177.7080  137.3470 N   0  0  0  0  0  2  0  0  0  0  0  0
  189.3320  177.4930  138.8240 N   0  0  0  0  0  2  0  0  0  0  0  0
  188.4140  176.9020  137.8930 C   0  0  0  0  0  0  0  0  0  0  0  0
  186.4490  177.2000  136.3420 C   0  0  0  0  0  2  0  0  0  0  0  0
  182.8010  174.7580  137.1780 C   0  0  0  0  0  0  0  0  0  0  0  0
  184.1710  174.4430  137.7080 C   0  0  2  0  0  3  0  0  0  0  0  0
  182.2820  175.9820  137.2930 C   0  0  0  0  0  3  0  0  0  0  0  0
  184.3100  177.4290  137.7420 C   0  0  0  0  0  0  0  0  0  0  0  0
  185.2140  175.2310  136.9920 C   0  0  0  0  0  3  0  0  0  0  0  0
  182.9910  177.1610  137.8270 C   0  0  0  0  0  3  0  0  0  0  0  0
  182.0260  173.7630  136.5910 O   0  0  0  0  0  1  0  0  0  0  0  0
  185.2750  176.5650  137.0100 C   0  0  0  0  0  0  0  0  0  0  0  0
  184.4950  172.9630  137.6080 C   0  0  0  0  0  1  0  0  0  0  0  0
  184.0500  179.4600  139.1550 C   0  0  0  0  0  1  0  0  0  0  0  0
  184.8140  178.6070  138.3100 O   0  0  0  0  0  0  0  0  0  0  0  0
  191.6530  176.7000  138.4220 C   0  0  0  0  0  2  0  0  0  0  0  0
  191.8050  175.2650  137.9440 C   0  0  0  0  0  2  0  0  0  0  0  0
  191.7210  175.2130  136.5650 F   0  0  0  0  0  0  0  0  0  0  0  0
  2  8  1  0  0  0  0
  4 13  1  6  0  0  0
  4  6  1  0  0  0  0
  5  9  1  0  0  0  0
  6  5  1  0  0  0  0
  7  3  1  0  0  0  0
  7  2  2  0  0  0  0
  8  5  2  0  0  0  0
  8  1  1  0  0  0  0
 10  3  1  0  0  0  0
 10  4  1  0  0  0  0
 12 15  2  0  0  0  0
 13 17  1  0  0  0  0
 14 16  1  0  0  0  0
 14 12  1  0  0  0  0
 15 17  1  0  0  0  0
 16 13  2  0  0  0  0
 17 11  1  6  0  0  0
 19 12  1  0  0  0  0
 19 18  1  1  0  0  0
 20 19  1  0  0  0  0
 22 23  1  0  0  0  0
 23 21  1  0  0  0  0
 23 20  1  0  0  0  0
 24 23  1  0  0  0  0
 25  7  1  0  0  0  0
 26 25  1  0  0  0  0
 27 44  1  6  0  0  0
 27 26  1  0  0  0  0
 28 31  2  0  0  0  0
 29 31  1  0  0  0  0
 30 27  1  0  0  0  0
 31 30  1  0  0  0  0
 32 40  1  0  0  0  0
 32 29  1  0  0  0  0
 33 35  2  0  0  0  0
 33 34  1  0  0  0  0
 34 41  1  6  0  0  0
 35 38  1  0  0  0  0
 36 38  2  0  0  0  0
 36 43  1  0  0  0  0
 37 40  2  0  0  0  0
 37 34  1  0  0  0  0
 39 33  1  0  0  0  0
 40 36  1  0  0  0  0
 43 42  1  0  0  0  0
 45 44  1  0  0  0  0
 46 45  1  0  0  0  0
M  END
>  <MODEL>
5

>  <REMARK>
 VINA RESULT:      -8.2      3.005      6.673
  Name = 
  13 active torsions:
  status: ('A' for Active; 'I' for Inactive)
    1  A    between atoms: C_2  and  C_5
    2  A    between atoms: C_2  and  C_8
    3  A    between atoms: C_5  and  N_31
    4  A    between atoms: C_5  and  C_37
    5  A    between atoms: C_6  and  C_17
    6  A    between atoms: O_11  and  C_28
    7  A    between atoms: C_16  and  C_45
    8  A    between atoms: C_18  and  O_43
    9  A    between atoms: O_21  and  C_36
   10  A    between atoms: O_21  and  C_37
   11  A    between atoms: C_25  and  N_27
   12  A    between atoms: C_25  and  C_40
   13  A    between atoms: O_43  and  C_45
                            x       y       z     vdW  Elec       q    Type
                         _______ _______ _______ _____ _____    ______ ____

>  <TORSDO>
F 13

$$$$
=
 OpenBabel10232409003D

 46 48  0  0  1  0  0  0  0  0999 V2000
  189.5820  177.0230  146.2780 O   0  0  0  0  0  1  0  0  0  0  0  0
  187.9690  176.9550  144.4340 C   0  0  0  0  0  3  0  0  0  0  0  0
  188.5160  178.6430  142.7070 C   0  0  0  0  0  2  0  0  0  0  0  0
  190.3440  177.4480  141.8220 C   0  0  2  0  0  3  0  0  0  0  0  0
  190.4000  176.5270  144.1280 C   0  0  0  0  0  0  0  0  0  0  0  0
  190.2440  176.1910  142.6790 C   0  0  0  0  0  2  0  0  0  0  0  0
  187.5600  177.7400  143.4330 C   0  0  0  0  0  0  0  0  0  0  0  0
  189.3610  176.8360  144.9190 C   0  0  0  0  0  0  0  0  0  0  0  0
  191.6810  176.4980  144.6660 O   0  0  0  0  0  1  0  0  0  0  0  0
  189.0160  177.9700  141.5190 N   0  0  0  0  0  2  0  0  0  0  0  0
  189.8720  177.7670  138.6010 O   0  0  0  0  0  1  0  0  0  0  0  0
  192.4980  175.9730  138.3990 C   0  0  0  0  0  0  0  0  0  0  0  0
  191.0870  177.1640  140.5510 C   0  0  0  0  0  0  0  0  0  0  0  0
  193.1550  177.0790  139.1830 C   0  0  0  0  0  2  0  0  0  0  0  0
  191.1680  175.7840  138.4800 C   0  0  0  0  0  3  0  0  0  0  0  0
  192.4200  177.3400  140.4720 C   0  0  0  0  0  3  0  0  0  0  0  0
  190.3140  176.6750  139.3480 C   0  0  2  0  0  3  0  0  0  0  0  0
  192.9820  175.3230  136.1790 F   0  0  0  0  0  0  0  0  0  0  0  0
  193.3370  175.1190  137.5010 C   0  0  1  0  0  3  0  0  0  0  0  0
  194.6980  175.4180  137.6790 O   0  0  0  0  0  0  0  0  0  0  0  0
  196.5740  174.0830  137.7050 F   0  0  0  0  0  0  0  0  0  0  0  0
  194.5400  173.1820  138.0110 F   0  0  0  0  0  0  0  0  0  0  0  0
  195.3200  174.2950  138.2610 C   0  0  0  0  0  0  0  0  0  0  0  0
  195.4340  174.4500  139.6350 F   0  0  0  0  0  0  0  0  0  0  0  0
  186.2090  177.7000  143.0710 O   0  0  0  0  0  0  0  0  0  0  0  0
  185.1690  178.1780  143.9200 C   0  0  0  0  0  2  0  0  0  0  0  0
  184.1270  178.9830  143.1460 C   0  0  1  0  0  3  0  0  0  0  0  0
  185.1520  179.4140  140.4280 O   0  0  0  0  0  0  0  0  0  0  0  0
  183.6620  177.8850  139.4870 N   0  0  0  0  0  2  0  0  0  0  0  0
  183.7190  178.3020  141.9160 N   0  0  0  0  0  2  0  0  0  0  0  0
  184.2210  178.5790  140.6010 C   0  0  0  0  0  0  0  0  0  0  0  0
  184.0670  178.1670  138.1190 C   0  0  0  0  0  2  0  0  0  0  0  0
  185.1280  173.9070  137.2890 C   0  0  0  0  0  0  0  0  0  0  0  0
  183.9400  174.6140  136.7010 C   0  0  2  0  0  3  0  0  0  0  0  0
  186.3450  174.4520  137.2480 C   0  0  0  0  0  3  0  0  0  0  0  0
  185.8660  176.8980  136.8010 C   0  0  0  0  0  0  0  0  0  0  0  0
  183.6710  175.8930  137.4190 C   0  0  0  0  0  3  0  0  0  0  0  0
  186.6560  175.8050  136.7470 C   0  0  0  0  0  3  0  0  0  0  0  0
  184.9880  172.6430  137.8540 O   0  0  0  0  0  1  0  0  0  0  0  0
  184.5330  176.9120  137.4610 C   0  0  0  0  0  0  0  0  0  0  0  0
  182.6930  173.7490  136.7220 C   0  0  0  0  0  1  0  0  0  0  0  0
  187.4640  178.8040  136.7760 C   0  0  0  0  0  1  0  0  0  0  0  0
  186.3290  178.1110  136.2720 O   0  0  0  0  0  0  0  0  0  0  0  0
  182.9360  179.3910  144.0080 C   0  0  0  0  0  2  0  0  0  0  0  0
  181.6270  179.1830  143.2650 C   0  0  0  0  0  2  0  0  0  0  0  0
  180.9240  178.1330  143.8270 F   0  0  0  0  0  0  0  0  0  0  0  0
  2  8  1  0  0  0  0
  3  7  1  0  0  0  0
  4 13  1  6  0  0  0
  4  6  1  0  0  0  0
  5  9  1  0  0  0  0
  5  8  2  0  0  0  0
  6  5  1  0  0  0  0
  7  2  2  0  0  0  0
  8  1  1  0  0  0  0
 10  4  1  0  0  0  0
 10  3  1  0  0  0  0
 12 15  2  0  0  0  0
 12 14  1  0  0  0  0
 14 16  1  0  0  0  0
 15 17  1  0  0  0  0
 16 13  2  0  0  0  0
 17 11  1  6  0  0  0
 17 13  1  0  0  0  0
 19 18  1  6  0  0  0
 19 20  1  0  0  0  0
 19 12  1  0  0  0  0
 20 23  1  0  0  0  0
 21 23  1  0  0  0  0
 22 23  1  0  0  0  0
 23 24  1  0  0  0  0
 25  7  1  0  0  0  0
 25 26  1  0  0  0  0
 27 26  1  1  0  0  0
 27 44  1  0  0  0  0
 28 31  2  0  0  0  0
 29 31  1  0  0  0  0
 30 27  1  0  0  0  0
 31 30  1  0  0  0  0
 32 29  1  0  0  0  0
 33 39  1  0  0  0  0
 34 41  1  1  0  0  0
 34 33  1  0  0  0  0
 34 37  1  0  0  0  0
 35 33  2  0  0  0  0
 36 40  1  0  0  0  0
 37 40  2  0  0  0  0
 38 36  2  0  0  0  0
 38 35  1  0  0  0  0
 40 32  1  0  0  0  0
 43 42  1  0  0  0  0
 43 36  1  0  0  0  0
 45 46  1  0  0  0  0
 45 44  1  0  0  0  0
M  END
>  <MODEL>
6

>  <REMARK>
 VINA RESULT:      -8.2      3.969      9.749
  Name = 
  13 active torsions:
  status: ('A' for Active; 'I' for Inactive)
    1  A    between atoms: C_2  and  C_5
    2  A    between atoms: C_2  and  C_8
    3  A    between atoms: C_5  and  N_31
    4  A    between atoms: C_5  and  C_37
    5  A    between atoms: C_6  and  C_17
    6  A    between atoms: O_11  and  C_28
    7  A    between atoms: C_16  and  C_45
    8  A    between atoms: C_18  and  O_43
    9  A    between atoms: O_21  and  C_36
   10  A    between atoms: O_21  and  C_37
   11  A    between atoms: C_25  and  N_27
   12  A    between atoms: C_25  and  C_40
   13  A    between atoms: O_43  and  C_45
                            x       y       z     vdW  Elec       q    Type
                         _______ _______ _______ _____ _____    ______ ____

>  <TORSDO>
F 13

$$$$
=
 OpenBabel10232409003D

 46 48  0  0  1  0  0  0  0  0999 V2000
  186.3400  178.7660  146.9770 O   0  0  0  0  0  1  0  0  0  0  0  0
  185.1910  177.9540  144.9700 C   0  0  0  0  0  3  0  0  0  0  0  0
  185.9950  179.1310  142.9450 C   0  0  0  0  0  2  0  0  0  0  0  0
  188.0530  177.9870  142.8440 C   0  0  2  0  0  3  0  0  0  0  0  0
  187.6520  177.7850  145.2870 C   0  0  0  0  0  0  0  0  0  0  0  0
  187.8490  177.0280  144.0120 C   0  0  0  0  0  2  0  0  0  0  0  0
  184.9650  178.3560  143.7150 C   0  0  0  0  0  0  0  0  0  0  0  0
  186.4430  178.1680  145.7270 C   0  0  0  0  0  0  0  0  0  0  0  0
  188.7790  178.0840  146.0450 O   0  0  0  0  0  1  0  0  0  0  0  0
  186.7940  178.2170  142.1430 N   0  0  0  0  0  2  0  0  0  0  0  0
  190.0700  175.4210  142.6290 O   0  0  0  0  0  1  0  0  0  0  0  0
  191.3230  177.0620  140.2010 C   0  0  0  0  0  0  0  0  0  0  0  0
  189.0810  177.4510  141.8920 C   0  0  0  0  0  0  0  0  0  0  0  0
  189.9380  176.9910  139.6100 C   0  0  0  0  0  2  0  0  0  0  0  0
  191.4960  176.9670  141.5320 C   0  0  0  0  0  3  0  0  0  0  0  0
  188.9150  177.5570  140.5600 C   0  0  0  0  0  3  0  0  0  0  0  0
  190.3150  176.7830  142.4530 C   0  0  2  0  0  3  0  0  0  0  0  0
  193.5950  177.6750  139.9820 F   0  0  0  0  0  0  0  0  0  0  0  0
  192.4990  177.1960  139.2860 C   0  0  1  0  0  3  0  0  0  0  0  0
  192.8090  175.9530  138.7080 O   0  0  0  0  0  0  0  0  0  0  0  0
  193.9030  176.8820  136.9080 F   0  0  0  0  0  0  0  0  0  0  0  0
  191.6600  176.7610  136.9300 F   0  0  0  0  0  0  0  0  0  0  0  0
  192.8210  176.1110  137.3080 C   0  0  0  0  0  0  0  0  0  0  0  0
  192.8590  174.8790  136.6720 F   0  0  0  0  0  0  0  0  0  0  0  0
  183.7360  178.0340  143.1300 O   0  0  0  0  0  0  0  0  0  0  0  0
  182.6830  178.9810  142.9770 C   0  0  0  0  0  2  0  0  0  0  0  0
  182.1780  179.0450  141.5360 C   0  0  1  0  0  3  0  0  0  0  0  0
  184.3980  179.9070  139.8170 O   0  0  0  0  0  0  0  0  0  0  0  0
  184.6840  177.7780  138.9050 N   0  0  0  0  0  2  0  0  0  0  0  0
  182.9900  178.2200  140.6400 N   0  0  0  0  0  2  0  0  0  0  0  0
  184.0390  178.6970  139.7850 C   0  0  0  0  0  0  0  0  0  0  0  0
  185.7030  178.2040  137.9570 C   0  0  0  0  0  2  0  0  0  0  0  0
  186.9220  174.0530  136.8380 C   0  0  0  0  0  0  0  0  0  0  0  0
  185.7470  174.7790  136.2460 C   0  0  2  0  0  3  0  0  0  0  0  0
  188.1240  174.6280  136.9080 C   0  0  0  0  0  3  0  0  0  0  0  0
  187.6020  177.0910  136.6380 C   0  0  0  0  0  0  0  0  0  0  0  0
  185.4070  175.9870  137.0520 C   0  0  0  0  0  3  0  0  0  0  0  0
  188.4230  176.0250  136.5370 C   0  0  0  0  0  3  0  0  0  0  0  0
  186.7880  172.7430  137.2880 O   0  0  0  0  0  1  0  0  0  0  0  0
  186.2360  177.0180  137.2240 C   0  0  0  0  0  0  0  0  0  0  0  0
  184.5250  173.8870  136.1290 C   0  0  0  0  0  1  0  0  0  0  0  0
  188.9600  179.1430  137.0030 C   0  0  0  0  0  1  0  0  0  0  0  0
  188.0580  178.3540  136.2370 O   0  0  0  0  0  0  0  0  0  0  0  0
  180.6880  178.7420  141.4180 C   0  0  0  0  0  2  0  0  0  0  0  0
  180.3690  178.0870  140.0850 C   0  0  0  0  0  2  0  0  0  0  0  0
  180.1260  176.7370  140.2650 F   0  0  0  0  0  0  0  0  0  0  0  0
  2  8  1  0  0  0  0
  3  7  1  0  0  0  0
  4 13  1  6  0  0  0
  4  6  1  0  0  0  0
  5  8  2  0  0  0  0
  5  9  1  0  0  0  0
  6  5  1  0  0  0  0
  7  2  2  0  0  0  0
  8  1  1  0  0  0  0
 10  4  1  0  0  0  0
 10  3  1  0  0  0  0
 12 15  2  0  0  0  0
 13 17  1  0  0  0  0
 14 12  1  0  0  0  0
 14 16  1  0  0  0  0
 15 17  1  0  0  0  0
 16 13  2  0  0  0  0
 17 11  1  6  0  0  0
 19 18  1  1  0  0  0
 19 12  1  0  0  0  0
 20 19  1  0  0  0  0
 21 23  1  0  0  0  0
 22 23  1  0  0  0  0
 23 20  1  0  0  0  0
 24 23  1  0  0  0  0
 25  7  1  0  0  0  0
 26 25  1  0  0  0  0
 27 44  1  1  0  0  0
 27 26  1  0  0  0  0
 29 31  1  0  0  0  0
 30 27  1  0  0  0  0
 31 28  2  0  0  0  0
 31 30  1  0  0  0  0
 32 29  1  0  0  0  0
 33 35  2  0  0  0  0
 33 39  1  0  0  0  0
 34 41  1  1  0  0  0
 34 33  1  0  0  0  0
 34 37  1  0  0  0  0
 36 40  1  0  0  0  0
 37 40  2  0  0  0  0
 38 36  2  0  0  0  0
 38 35  1  0  0  0  0
 40 32  1  0  0  0  0
 43 36  1  0  0  0  0
 43 42  1  0  0  0  0
 45 46  1  0  0  0  0
 45 44  1  0  0  0  0
M  END
>  <MODEL>
7

>  <REMARK>
 VINA RESULT:      -8.1      3.260      8.712
  Name = 
  13 active torsions:
  status: ('A' for Active; 'I' for Inactive)
    1  A    between atoms: C_2  and  C_5
    2  A    between atoms: C_2  and  C_8
    3  A    between atoms: C_5  and  N_31
    4  A    between atoms: C_5  and  C_37
    5  A    between atoms: C_6  and  C_17
    6  A    between atoms: O_11  and  C_28
    7  A    between atoms: C_16  and  C_45
    8  A    between atoms: C_18  and  O_43
    9  A    between atoms: O_21  and  C_36
   10  A    between atoms: O_21  and  C_37
   11  A    between atoms: C_25  and  N_27
   12  A    between atoms: C_25  and  C_40
   13  A    between atoms: O_43  and  C_45
                            x       y       z     vdW  Elec       q    Type
                         _______ _______ _______ _____ _____    ______ ____

>  <TORSDO>
F 13

$$$$
=
 OpenBabel10232409003D

 46 48  0  0  1  0  0  0  0  0999 V2000
  191.4830  176.3550  146.2140 O   0  0  0  0  0  1  0  0  0  0  0  0
  189.2420  176.9550  145.4220 C   0  0  0  0  0  3  0  0  0  0  0  0
  189.3450  178.7850  143.7570 C   0  0  0  0  0  2  0  0  0  0  0  0
  190.1520  177.4290  142.0070 C   0  0  2  0  0  3  0  0  0  0  0  0
  191.0330  176.1080  143.9170 C   0  0  0  0  0  0  0  0  0  0  0  0
  190.1330  176.0820  142.7220 C   0  0  0  0  0  2  0  0  0  0  0  0
  188.6380  177.9770  144.8070 C   0  0  0  0  0  0  0  0  0  0  0  0
  190.6100  176.4700  145.1390 C   0  0  0  0  0  0  0  0  0  0  0  0
  192.3560  175.7220  143.7410 O   0  0  0  0  0  1  0  0  0  0  0  0
  189.0300  178.2550  142.4400 N   0  0  0  0  0  2  0  0  0  0  0  0
  188.6640  178.7740  139.4240 O   0  0  0  0  0  1  0  0  0  0  0  0
  189.8190  176.2330  137.8850 C   0  0  0  0  0  0  0  0  0  0  0  0
  190.1070  177.2390  140.5200 C   0  0  0  0  0  0  0  0  0  0  0  0
  191.1660  176.7380  138.3330 C   0  0  0  0  0  2  0  0  0  0  0  0
  188.7110  176.5590  138.5750 C   0  0  0  0  0  3  0  0  0  0  0  0
  191.2130  176.9000  139.8310 C   0  0  0  0  0  3  0  0  0  0  0  0
  188.7940  177.4370  139.7990 C   0  0  2  0  0  3  0  0  0  0  0  0
  190.7620  175.7200  135.7800 F   0  0  0  0  0  0  0  0  0  0  0  0
  189.7290  175.4020  136.6440 C   0  0  1  0  0  3  0  0  0  0  0  0
  189.7840  174.0360  136.9690 O   0  0  0  0  0  0  0  0  0  0  0  0
  188.1260  174.2000  135.3800 F   0  0  0  0  0  0  0  0  0  0  0  0
  187.7230  173.1690  137.3340 F   0  0  0  0  0  0  0  0  0  0  0  0
  188.6830  173.3970  136.3660 C   0  0  0  0  0  0  0  0  0  0  0  0
  189.0550  172.1760  135.8230 F   0  0  0  0  0  0  0  0  0  0  0  0
  187.3200  178.2780  145.1670 O   0  0  0  0  0  0  0  0  0  0  0  0
  186.1920  177.6630  144.5530 C   0  0  0  0  0  2  0  0  0  0  0  0
  185.2440  178.6910  143.9390 C   0  0  1  0  0  3  0  0  0  0  0  0
  185.9570  179.5380  141.2190 O   0  0  0  0  0  0  0  0  0  0  0  0
  184.3230  178.1950  140.2360 N   0  0  0  0  0  2  0  0  0  0  0  0
  184.6750  178.2190  142.6750 N   0  0  0  0  0  2  0  0  0  0  0  0
  185.0280  178.6970  141.3690 C   0  0  0  0  0  0  0  0  0  0  0  0
  184.5740  178.6870  138.8900 C   0  0  0  0  0  2  0  0  0  0  0  0
  183.5460  174.7740  136.9930 C   0  0  0  0  0  0  0  0  0  0  0  0
  182.7310  176.0280  136.8440 C   0  0  2  0  0  3  0  0  0  0  0  0
  184.8650  174.7810  136.7920 C   0  0  0  0  0  3  0  0  0  0  0  0
  185.4630  177.2340  136.9710 C   0  0  0  0  0  0  0  0  0  0  0  0
  183.1390  177.0510  137.8490 C   0  0  0  0  0  3  0  0  0  0  0  0
  185.6790  175.9810  136.5200 C   0  0  0  0  0  3  0  0  0  0  0  0
  182.9300  173.5660  137.3050 O   0  0  0  0  0  1  0  0  0  0  0  0
  184.3590  177.5890  137.9030 C   0  0  0  0  0  0  0  0  0  0  0  0
  181.2420  175.7590  136.9680 C   0  0  0  0  0  1  0  0  0  0  0  0
  187.3800  178.1020  135.6440 C   0  0  0  0  0  1  0  0  0  0  0  0
  186.3480  178.2600  136.6100 O   0  0  0  0  0  0  0  0  0  0  0  0
  184.1740  179.1670  144.9180 C   0  0  0  0  0  2  0  0  0  0  0  0
  182.7850  178.7890  144.4330 C   0  0  0  0  0  2  0  0  0  0  0  0
  182.2290  179.8360  143.7210 F   0  0  0  0  0  0  0  0  0  0  0  0
  3  7  1  0  0  0  0
  4 13  1  6  0  0  0
  4 10  1  0  0  0  0
  4  6  1  0  0  0  0
  5  8  2  0  0  0  0
  6  5  1  0  0  0  0
  7 25  1  0  0  0  0
  7  2  2  0  0  0  0
  8  2  1  0  0  0  0
  8  1  1  0  0  0  0
  9  5  1  0  0  0  0
 10  3  1  0  0  0  0
 12 14  1  0  0  0  0
 12 15  2  0  0  0  0
 14 16  1  0  0  0  0
 15 17  1  0  0  0  0
 16 13  2  0  0  0  0
 17 11  1  6  0  0  0
 17 13  1  0  0  0  0
 19 18  1  6  0  0  0
 19 20  1  0  0  0  0
 19 12  1  0  0  0  0
 21 23  1  0  0  0  0
 23 20  1  0  0  0  0
 23 22  1  0  0  0  0
 24 23  1  0  0  0  0
 26 25  1  0  0  0  0
 27 26  1  1  0  0  0
 27 44  1  0  0  0  0
 28 31  2  0  0  0  0
 29 31  1  0  0  0  0
 30 27  1  0  0  0  0
 31 30  1  0  0  0  0
 32 29  1  0  0  0  0
 33 39  1  0  0  0  0
 34 41  1  1  0  0  0
 34 33  1  0  0  0  0
 34 37  1  0  0  0  0
 35 33  2  0  0  0  0
 36 40  1  0  0  0  0
 37 40  2  0  0  0  0
 38 35  1  0  0  0  0
 38 36  2  0  0  0  0
 40 32  1  0  0  0  0
 42 43  1  0  0  0  0
 43 36  1  0  0  0  0
 45 44  1  0  0  0  0
 46 45  1  0  0  0  0
M  END
>  <MODEL>
8

>  <REMARK>
 VINA RESULT:      -8.0      3.701      9.012
  Name = 
  13 active torsions:
  status: ('A' for Active; 'I' for Inactive)
    1  A    between atoms: C_2  and  C_5
    2  A    between atoms: C_2  and  C_8
    3  A    between atoms: C_5  and  N_31
    4  A    between atoms: C_5  and  C_37
    5  A    between atoms: C_6  and  C_17
    6  A    between atoms: O_11  and  C_28
    7  A    between atoms: C_16  and  C_45
    8  A    between atoms: C_18  and  O_43
    9  A    between atoms: O_21  and  C_36
   10  A    between atoms: O_21  and  C_37
   11  A    between atoms: C_25  and  N_27
   12  A    between atoms: C_25  and  C_40
   13  A    between atoms: O_43  and  C_45
                            x       y       z     vdW  Elec       q    Type
                         _______ _______ _______ _____ _____    ______ ____

>  <TORSDO>
F 13

$$$$
=
 OpenBabel10232409003D

 46 48  0  0  1  0  0  0  0  0999 V2000
  191.8890  176.5030  145.7200 O   0  0  0  0  0  1  0  0  0  0  0  0
  189.5390  176.9930  145.2220 C   0  0  0  0  0  3  0  0  0  0  0  0
  189.3420  178.7840  143.5230 C   0  0  0  0  0  2  0  0  0  0  0  0
  189.9670  177.4170  141.7080 C   0  0  2  0  0  3  0  0  0  0  0  0
  191.1490  176.1800  143.5090 C   0  0  0  0  0  0  0  0  0  0  0  0
  190.1010  176.0890  142.4460 C   0  0  0  0  0  2  0  0  0  0  0  0
  188.8160  177.9750  144.6740 C   0  0  0  0  0  0  0  0  0  0  0  0
  190.8770  176.5560  144.7690 C   0  0  0  0  0  0  0  0  0  0  0  0
  192.4530  175.8420  143.1650 O   0  0  0  0  0  1  0  0  0  0  0  0
  188.8780  178.2090  142.2700 N   0  0  0  0  0  2  0  0  0  0  0  0
  189.0690  179.1500  139.0840 O   0  0  0  0  0  1  0  0  0  0  0  0
  188.8300  176.2830  137.7140 C   0  0  0  0  0  0  0  0  0  0  0  0
  189.7340  177.1870  140.2450 C   0  0  0  0  0  0  0  0  0  0  0  0
  190.2890  176.1390  138.0660 C   0  0  0  0  0  2  0  0  0  0  0  0
  188.0440  177.1180  138.4170 C   0  0  0  0  0  3  0  0  0  0  0  0
  190.5120  176.3430  139.5420 C   0  0  0  0  0  3  0  0  0  0  0  0
  188.6050  177.9240  139.5620 C   0  0  2  0  0  3  0  0  0  0  0  0
  189.1500  175.6020  135.4740 F   0  0  0  0  0  0  0  0  0  0  0  0
  188.2840  175.5190  136.5490 C   0  0  1  0  0  3  0  0  0  0  0  0
  188.0890  174.1720  136.9000 O   0  0  0  0  0  0  0  0  0  0  0  0
  186.4100  173.3780  135.5390 F   0  0  0  0  0  0  0  0  0  0  0  0
  186.0060  175.0610  136.9700 F   0  0  0  0  0  0  0  0  0  0  0  0
  186.7130  173.8870  136.7940 C   0  0  0  0  0  0  0  0  0  0  0  0
  186.3180  172.9880  137.7740 F   0  0  0  0  0  0  0  0  0  0  0  0
  187.5460  178.2330  145.2000 O   0  0  0  0  0  0  0  0  0  0  0  0
  186.3680  177.5860  144.7280 C   0  0  0  0  0  2  0  0  0  0  0  0
  185.2490  178.5830  144.4320 C   0  0  1  0  0  3  0  0  0  0  0  0
  185.7200  179.6700  141.7440 O   0  0  0  0  0  0  0  0  0  0  0  0
  183.9470  178.4730  140.8120 N   0  0  0  0  0  2  0  0  0  0  0  0
  184.5410  178.2520  143.1940 N   0  0  0  0  0  2  0  0  0  0  0  0
  184.7800  178.8440  141.9090 C   0  0  0  0  0  0  0  0  0  0  0  0
  184.0810  179.0860  139.5000 C   0  0  0  0  0  2  0  0  0  0  0  0
  182.2460  176.9730  136.0160 C   0  0  0  0  0  0  0  0  0  0  0  0
  182.3490  176.3950  137.3990 C   0  0  2  0  0  3  0  0  0  0  0  0
  181.7590  178.1990  135.8160 C   0  0  0  0  0  3  0  0  0  0  0  0
  181.9360  179.2710  138.1030 C   0  0  0  0  0  0  0  0  0  0  0  0
  183.2940  177.1860  138.2390 C   0  0  0  0  0  3  0  0  0  0  0  0
  181.3800  179.1490  136.8800 C   0  0  0  0  0  3  0  0  0  0  0  0
  182.6200  176.2200  134.9070 O   0  0  0  0  0  1  0  0  0  0  0  0
  183.1070  178.4700  138.5520 C   0  0  0  0  0  0  0  0  0  0  0  0
  182.7850  174.9410  137.3790 C   0  0  0  0  0  1  0  0  0  0  0  0
  180.6680  181.3560  138.5830 C   0  0  0  0  0  1  0  0  0  0  0  0
  181.4460  180.2380  138.9920 O   0  0  0  0  0  0  0  0  0  0  0  0
  184.3020  178.7760  145.6120 C   0  0  0  0  0  2  0  0  0  0  0  0
  184.9720  178.3890  146.9190 C   0  0  0  0  0  2  0  0  0  0  0  0
  185.7430  179.4380  147.3860 F   0  0  0  0  0  0  0  0  0  0  0  0
  3  7  1  0  0  0  0
  4 13  1  6  0  0  0
  4 10  1  0  0  0  0
  4  6  1  0  0  0  0
  5  8  2  0  0  0  0
  6  5  1  0  0  0  0
  7 25  1  0  0  0  0
  7  2  2  0  0  0  0
  8  2  1  0  0  0  0
  8  1  1  0  0  0  0
  9  5  1  0  0  0  0
 10  3  1  0  0  0  0
 12 14  1  0  0  0  0
 12 15  2  0  0  0  0
 14 16  1  0  0  0  0
 15 17  1  0  0  0  0
 16 13  2  0  0  0  0
 17 11  1  6  0  0  0
 17 13  1  0  0  0  0
 19 18  1  6  0  0  0
 19 20  1  0  0  0  0
 19 12  1  0  0  0  0
 21 23  1  0  0  0  0
 23 20  1  0  0  0  0
 23 22  1  0  0  0  0
 23 24  1  0  0  0  0
 26 25  1  0  0  0  0
 27 26  1  1  0  0  0
 27 44  1  0  0  0  0
 28 31  2  0  0  0  0
 29 31  1  0  0  0  0
 30 27  1  0  0  0  0
 31 30  1  0  0  0  0
 32 29  1  0  0  0  0
 33 34  1  0  0  0  0
 34 41  1  6  0  0  0
 34 37  1  0  0  0  0
 35 33  2  0  0  0  0
 35 38  1  0  0  0  0
 36 40  1  0  0  0  0
 36 43  1  0  0  0  0
 37 40  2  0  0  0  0
 38 36  2  0  0  0  0
 39 33  1  0  0  0  0
 40 32  1  0  0  0  0
 42 43  1  0  0  0  0
 44 45  1  0  0  0  0
 45 46  1  0  0  0  0
M  END
>  <MODEL>
9

>  <REMARK>
 VINA RESULT:      -7.9      4.325      9.739
  Name = 
  13 active torsions:
  status: ('A' for Active; 'I' for Inactive)
    1  A    between atoms: C_2  and  C_5
    2  A    between atoms: C_2  and  C_8
    3  A    between atoms: C_5  and  N_31
    4  A    between atoms: C_5  and  C_37
    5  A    between atoms: C_6  and  C_17
    6  A    between atoms: O_11  and  C_28
    7  A    between atoms: C_16  and  C_45
    8  A    between atoms: C_18  and  O_43
    9  A    between atoms: O_21  and  C_36
   10  A    between atoms: O_21  and  C_37
   11  A    between atoms: C_25  and  N_27
   12  A    between atoms: C_25  and  C_40
   13  A    between atoms: O_43  and  C_45
                            x       y       z     vdW  Elec       q    Type
                         _______ _______ _______ _____ _____    ______ ____

>  <TORSDO>
F 13

$$$$
