=
 OpenBabel10222421393D

 60 65  0  0  1  0  0  0  0  0999 V2000
  183.5670  178.8860  143.2270 C   0  0  0  0  0  0  0  0  0  0  0  0
  182.1260  178.5810  142.9720 C   0  0  1  0  0  3  0  0  0  0  0  0
  181.2610  179.5970  143.7020 C   0  0  0  0  0  1  0  0  0  0  0  0
  186.6090  178.0400  138.3890 C   0  0  0  0  0  0  0  0  0  0  0  0
  180.3850  178.4770  141.0780 C   0  0  0  0  0  3  0  0  0  0  0  0
  182.1850  178.1270  138.1100 N   0  0  0  0  0  0  0  0  0  0  0  0
  183.5760  178.3080  138.3030 N   0  0  2  0  0  0  0  0  0  0  0  0
  185.6540  178.0280  137.2210 C   0  0  0  0  0  2  0  0  0  0  0  0
  185.1950  178.6980  141.5940 O   0  0  0  0  0  0  0  0  0  0  0  0
  184.1020  178.4750  144.3350 N   0  0  0  0  0  0  0  0  0  0  0  0
  184.3370  177.3520  137.5350 C   0  0  0  0  0  2  0  0  0  0  0  0
  181.7170  178.4520  141.5230 C   0  0  0  0  0  0  0  0  0  0  0  0
  184.3810  179.6320  142.2250 C   0  0  0  0  0  2  0  0  0  0  0  0
  185.0240  178.8600  140.2160 C   0  0  2  0  0  3  0  0  0  0  0  0
  180.3530  178.3390  139.7640 O   0  0  0  0  0  0  0  0  0  0  0  0
  182.4730  178.2540  140.3690 C   0  0  0  0  0  0  0  0  0  0  0  0
  183.8220  178.0260  139.7360 C   0  0  1  0  0  3  0  0  0  0  0  0
  181.5940  178.2080  139.3840 C   0  0  0  0  0  0  0  0  0  0  0  0
  186.2780  178.3950  139.6020 N   0  0  0  0  0  0  0  0  0  0  0  0
  181.1160  179.7330  136.5670 C   0  0  0  0  0  3  0  0  0  0  0  0
  180.1740  178.9860  134.4660 C   0  0  0  0  0  3  0  0  0  0  0  0
  180.5510  177.6750  134.7650 C   0  0  0  0  0  3  0  0  0  0  0  0
  180.4580  180.0160  135.3670 C   0  0  0  0  0  3  0  0  0  0  0  0
  181.5030  178.4190  136.8760 C   0  0  0  0  0  0  0  0  0  0  0  0
  181.2120  177.3930  135.9640 C   0  0  0  0  0  3  0  0  0  0  0  0
  187.9420  177.6780  138.1790 O   0  0  0  0  0  0  0  0  0  0  0  0
  188.7660  178.2340  137.1590 C   0  0  1  0  0  3  0  0  0  0  0  0
  189.1080  179.5500  137.4810 O   0  0  0  0  0  1  0  0  0  0  0  0
  190.0270  177.3920  137.0050 C   0  0  0  0  0  2  0  0  0  0  0  0
  190.0790  176.7360  135.6280 C   0  0  0  0  0  2  0  0  0  0  0  0
  190.5410  175.3560  135.7450 N   0  0  0  0  0  0  0  0  0  0  0  0
  192.2450  173.8160  136.5000 C   0  0  0  0  0  3  0  0  0  0  0  0
  191.8920  175.0400  136.1120 C   0  0  0  0  0  3  0  0  0  0  0  0
  193.6460  173.4950  136.8980 C   0  0  1  0  0  3  0  0  0  0  0  0
  194.0580  172.1780  136.3070 C   0  0  0  0  0  0  0  0  0  0  0  0
  194.7790  171.3310  137.0410 C   0  0  0  0  0  2  0  0  0  0  0  0
  193.4790  171.7050  135.0140 C   0  0  0  0  0  1  0  0  0  0  0  0
  194.5520  174.5510  136.4650 N   0  0  0  0  0  2  0  0  0  0  0  0
  195.8020  175.0490  139.7890 O   0  0  0  0  0  0  0  0  0  0  0  0
  195.4030  174.4560  138.7530 C   0  0  0  0  0  3  0  0  0  0  0  0
  194.9880  175.2110  137.6210 N   0  0  0  0  0  2  0  0  0  0  0  0
  189.6920  174.3030  135.2150 C   0  0  0  0  0  2  0  0  0  0  0  0
  188.2980  174.3830  135.8200 C   0  0  0  0  0  2  0  0  0  0  0  0
  188.2560  173.6660  137.0160 O   0  0  0  0  0  1  0  0  0  0  0  0
  185.4340  178.6820  144.6250 O   0  0  0  0  0  0  0  0  0  0  0  0
  186.0060  178.1670  145.7880 C   0  0  0  0  0  0  0  0  0  0  0  0
  185.6330  178.6500  146.9650 C   0  0  0  0  0  2  0  0  0  0  0  0
  187.0330  177.0830  145.7350 C   0  0  0  0  0  2  0  0  0  0  0  0
  188.4340  177.6530  145.9280 C   0  0  2  0  0  3  0  0  0  0  0  0
  190.8160  176.8910  145.4270 C   0  0  0  0  0  2  0  0  0  0  0  0
  188.1870  177.9790  142.9970 O   0  0  0  0  0  1  0  0  0  0  0  0
  189.4410  177.9660  143.6140 C   0  0  1  0  0  3  0  0  0  0  0  0
  189.4040  177.0980  144.8770 C   0  0  2  0  0  3  0  0  0  0  0  0
  190.1370  176.2330  142.0550 O   0  0  0  0  0  1  0  0  0  0  0  0
  190.5090  177.4510  142.6390 C   0  0  2  0  0  3  0  0  0  0  0  0
  191.7170  176.3990  144.2980 C   0  0  0  0  0  2  0  0  0  0  0  0
  191.7790  177.3550  143.2590 O   0  0  0  0  0  0  0  0  0  0  0  0
  189.0010  176.2170  147.8940 O   0  0  0  0  0  0  0  0  0  0  0  0
  189.2220  178.4930  148.0390 O   0  0  0  0  0  1  0  0  0  0  0  0
  188.9230  177.4890  147.3400 C   0  0  0  0  0  0  0  0  0  0  0  0
  1 10  2  0  0  0  0
  2  1  1  0  0  0  0
  2  3  1  6  0  0  0
  4 19  2  0  0  0  0
  5 12  2  0  0  0  0
  6  7  1  0  0  0  0
  6 18  1  0  0  0  0
  7 11  1  6  0  0  0
  7 17  1  0  0  0  0
  8 11  1  0  0  0  0
  8  4  1  0  0  0  0
  9 13  1  0  0  0  0
 10 45  1  0  0  0  0
 12  2  1  0  0  0  0
 13  1  1  0  0  0  0
 14 19  1  6  0  0  0
 14  9  1  0  0  0  0
 15  5  1  0  0  0  0
 16 12  1  0  0  0  0
 17 14  1  0  0  0  0
 17 16  1  1  0  0  0
 18 15  1  0  0  0  0
 18 16  2  0  0  0  0
 20 24  1  0  0  0  0
 21 22  2  0  0  0  0
 21 23  1  0  0  0  0
 22 25  1  0  0  0  0
 23 20  2  0  0  0  0
 24  6  1  0  0  0  0
 25 24  2  0  0  0  0
 26  4  1  0  0  0  0
 27 28  1  1  0  0  0
 27 26  1  0  0  0  0
 29 27  1  0  0  0  0
 30 31  1  0  0  0  0
 30 29  1  0  0  0  0
 31 33  1  0  0  0  0
 33 32  2  0  0  0  0
 34 32  1  6  0  0  0
 35 34  1  0  0  0  0
 35 36  2  0  0  0  0
 37 35  1  0  0  0  0
 38 34  1  0  0  0  0
 38 41  1  0  0  0  0
 40 39  2  0  0  0  0
 41 40  1  0  0  0  0
 42 31  1  0  0  0  0
 42 43  1  0  0  0  0
 43 44  1  0  0  0  0
 45 46  1  0  0  0  0
 46 47  2  0  0  0  0
 48 46  1  0  0  0  0
 49 48  1  1  0  0  0
 49 60  1  0  0  0  0
 52 51  1  6  0  0  0
 52 53  1  0  0  0  0
 53 50  1  0  0  0  0
 53 49  1  1  0  0  0
 55 54  1  1  0  0  0
 55 57  1  0  0  0  0
 55 52  1  0  0  0  0
 56 50  1  0  0  0  0
 57 56  1  0  0  0  0
 60 58  2  0  0  0  0
 60 59  1  0  0  0  0
M  END
>  <MODEL>
1

>  <REMARK>
 VINA RESULT:      -7.7      0.000      0.000
  Name = 
  19 active torsions:
  status: ('A' for Active; 'I' for Inactive)
    1  A    between atoms: C_1  and  C_12
    2  A    between atoms: N_5  and  C_12
    3  A    between atoms: N_5  and  N_58
    4  A    between atoms: C_8  and  C_32
    5  A    between atoms: C_8  and  C_50
    6  A    between atoms: C_9  and  C_12
    7  A    between atoms: C_10  and  O_57
    8  A    between atoms: N_15  and  C_51
    9  A    between atoms: C_16  and  C_42
   10  A    between atoms: O_18  and  N_27
   11  A    between atoms: O_18  and  C_32
   12  A    between atoms: C_19  and  C_49
   13  A    between atoms: C_19  and  O_57
   14  A    between atoms: N_24  and  C_37
   15  A    between atoms: N_24  and  C_38
   16  A    between atoms: N_24  and  C_42
   17  A    between atoms: C_28  and  C_50
   18  A    between atoms: C_36  and  C_50
   19  A    between atoms: C_37  and  C_49
                            x       y       z     vdW  Elec       q    Type
                         _______ _______ _______ _____ _____    ______ ____

>  <TORSDO>
F 19

$$$$
=
 OpenBabel10222421393D

 60 65  0  0  1  0  0  0  0  0999 V2000
  185.4020  178.1010  144.2700 C   0  0  0  0  0  0  0  0  0  0  0  0
  185.6370  178.6900  145.6240 C   0  0  1  0  0  3  0  0  0  0  0  0
  184.5100  178.2720  146.5560 C   0  0  0  0  0  1  0  0  0  0  0  0
  190.4290  176.3470  142.0270 C   0  0  0  0  0  0  0  0  0  0  0  0
  187.2830  178.6200  147.6020 C   0  0  0  0  0  3  0  0  0  0  0  0
  190.2970  177.4110  146.3280 N   0  0  0  0  0  0  0  0  0  0  0  0
  190.1620  176.9250  145.0050 N   0  0  2  0  0  0  0  0  0  0  0  0
  191.4340  176.2230  143.1450 C   0  0  0  0  0  2  0  0  0  0  0  0
  187.1110  177.2530  142.9600 O   0  0  0  0  0  0  0  0  0  0  0  0
  184.5800  178.7010  143.4660 N   0  0  0  0  0  0  0  0  0  0  0  0
  191.2940  177.3050  144.1930 C   0  0  0  0  0  2  0  0  0  0  0  0
  186.9890  178.4220  146.2430 C   0  0  0  0  0  0  0  0  0  0  0  0
  186.1100  176.8600  143.8410 C   0  0  0  0  0  2  0  0  0  0  0  0
  188.3060  176.6830  143.4060 C   0  0  2  0  0  3  0  0  0  0  0  0
  188.5440  178.3010  147.8350 O   0  0  0  0  0  0  0  0  0  0  0  0
  188.1890  177.9920  145.6800 C   0  0  0  0  0  0  0  0  0  0  0  0
  188.9680  177.6020  144.4490 C   0  0  1  0  0  3  0  0  0  0  0  0
  189.0440  177.9410  146.6860 C   0  0  0  0  0  0  0  0  0  0  0  0
  189.1490  176.5380  142.2090 N   0  0  0  0  0  0  0  0  0  0  0  0
  191.6470  177.6850  148.3790 C   0  0  0  0  0  3  0  0  0  0  0  0
  193.1680  175.9430  149.0980 C   0  0  0  0  0  3  0  0  0  0  0  0
  192.8020  175.1710  147.9930 C   0  0  0  0  0  3  0  0  0  0  0  0
  192.5890  177.2000  149.2910 C   0  0  0  0  0  3  0  0  0  0  0  0
  191.2690  176.9150  147.2670 C   0  0  0  0  0  0  0  0  0  0  0  0
  191.8580  175.6540  147.0830 C   0  0  0  0  0  3  0  0  0  0  0  0
  190.8670  176.2260  140.7050 O   0  0  0  0  0  0  0  0  0  0  0  0
  191.3120  177.3200  139.9110 C   0  0  1  0  0  3  0  0  0  0  0  0
  192.7080  177.3730  139.9020 O   0  0  0  0  0  1  0  0  0  0  0  0
  190.7880  177.1660  138.4870 C   0  0  0  0  0  2  0  0  0  0  0  0
  190.1860  175.7800  138.2750 C   0  0  0  0  0  2  0  0  0  0  0  0
  191.0710  174.9680  137.4450 N   0  0  0  0  0  0  0  0  0  0  0  0
  193.4880  174.9660  137.3880 C   0  0  0  0  0  3  0  0  0  0  0  0
  192.3290  175.4680  136.9680 C   0  0  0  0  0  3  0  0  0  0  0  0
  194.7940  175.5000  136.9040 C   0  0  1  0  0  3  0  0  0  0  0  0
  195.8480  174.4340  136.9900 C   0  0  0  0  0  0  0  0  0  0  0  0
  197.0020  174.6040  136.3470 C   0  0  0  0  0  2  0  0  0  0  0  0
  195.7200  173.3100  137.9650 C   0  0  0  0  0  1  0  0  0  0  0  0
  194.6690  175.9810  135.5330 N   0  0  0  0  0  2  0  0  0  0  0  0
  196.0360  179.2700  135.1150 O   0  0  0  0  0  0  0  0  0  0  0  0
  195.9430  178.0160  135.0780 C   0  0  0  0  0  3  0  0  0  0  0  0
  194.7760  177.3760  135.5820 N   0  0  0  0  0  2  0  0  0  0  0  0
  190.5410  173.7410  136.8760 C   0  0  0  0  0  2  0  0  0  0  0  0
  189.0450  173.8670  136.6280 C   0  0  0  0  0  2  0  0  0  0  0  0
  188.3800  172.7610  137.1550 O   0  0  0  0  0  1  0  0  0  0  0  0
  184.3410  178.2420  142.1880 O   0  0  0  0  0  0  0  0  0  0  0  0
  183.2370  178.6850  141.4590 C   0  0  0  0  0  0  0  0  0  0  0  0
  182.0870  178.8910  142.0830 C   0  0  0  0  0  2  0  0  0  0  0  0
  183.3250  178.9280  139.9870 C   0  0  0  0  0  2  0  0  0  0  0  0
  183.7440  177.6590  139.2510 C   0  0  2  0  0  3  0  0  0  0  0  0
  184.5720  177.1150  136.9020 C   0  0  0  0  0  2  0  0  0  0  0  0
  186.4420  178.8030  139.6680 O   0  0  0  0  0  1  0  0  0  0  0  0
  186.2090  177.8630  138.6610 C   0  0  1  0  0  3  0  0  0  0  0  0
  184.7670  177.9740  138.1520 C   0  0  2  0  0  3  0  0  0  0  0  0
  187.2280  179.3910  137.0650 O   0  0  0  0  0  1  0  0  0  0  0  0
  187.2020  178.0620  137.5060 C   0  0  2  0  0  3  0  0  0  0  0  0
  185.6680  177.4540  135.8950 C   0  0  0  0  0  2  0  0  0  0  0  0
  186.9430  177.1710  136.4360 O   0  0  0  0  0  0  0  0  0  0  0  0
  182.4440  175.5300  139.1020 O   0  0  0  0  0  1  0  0  0  0  0  0
  181.6980  177.4030  138.0140 O   0  0  0  0  0  0  0  0  0  0  0  0
  182.5610  176.8720  138.7620 C   0  0  0  0  0  0  0  0  0  0  0  0
  1  2  1  0  0  0  0
  2 12  1  0  0  0  0
  2  3  1  1  0  0  0
  4 19  2  0  0  0  0
  4  8  1  0  0  0  0
  5 15  1  0  0  0  0
  6 18  1  0  0  0  0
  6 24  1  0  0  0  0
  7 11  1  6  0  0  0
  7  6  1  0  0  0  0
  8 11  1  0  0  0  0
  9 14  1  0  0  0  0
  9 13  1  0  0  0  0
 10  1  2  0  0  0  0
 12  5  2  0  0  0  0
 13  1  1  0  0  0  0
 14 19  1  6  0  0  0
 14 17  1  0  0  0  0
 16 12  1  0  0  0  0
 16 18  2  0  0  0  0
 17  7  1  0  0  0  0
 17 16  1  1  0  0  0
 18 15  1  0  0  0  0
 20 23  1  0  0  0  0
 21 23  2  0  0  0  0
 22 21  1  0  0  0  0
 24 20  2  0  0  0  0
 25 24  1  0  0  0  0
 25 22  2  0  0  0  0
 26  4  1  0  0  0  0
 27 28  1  6  0  0  0
 27 26  1  0  0  0  0
 29 27  1  0  0  0  0
 30 29  1  0  0  0  0
 31 30  1  0  0  0  0
 33 32  2  0  0  0  0
 33 31  1  0  0  0  0
 34 35  1  0  0  0  0
 34 32  1  6  0  0  0
 35 37  1  0  0  0  0
 36 35  2  0  0  0  0
 38 41  1  0  0  0  0
 38 34  1  0  0  0  0
 40 39  2  0  0  0  0
 40 41  1  0  0  0  0
 42 31  1  0  0  0  0
 43 42  1  0  0  0  0
 43 44  1  0  0  0  0
 45 10  1  0  0  0  0
 46 47  2  0  0  0  0
 46 45  1  0  0  0  0
 48 46  1  0  0  0  0
 49 48  1  6  0  0  0
 50 53  1  0  0  0  0
 52 51  1  1  0  0  0
 53 52  1  0  0  0  0
 53 49  1  1  0  0  0
 55 54  1  6  0  0  0
 55 52  1  0  0  0  0
 56 57  1  0  0  0  0
 56 50  1  0  0  0  0
 57 55  1  0  0  0  0
 59 60  2  0  0  0  0
 60 58  1  0  0  0  0
 60 49  1  0  0  0  0
M  END
>  <MODEL>
2

>  <REMARK>
 VINA RESULT:      -7.7      2.512      8.234
  Name = 
  19 active torsions:
  status: ('A' for Active; 'I' for Inactive)
    1  A    between atoms: C_1  and  C_12
    2  A    between atoms: N_5  and  C_12
    3  A    between atoms: N_5  and  N_58
    4  A    between atoms: C_8  and  C_32
    5  A    between atoms: C_8  and  C_50
    6  A    between atoms: C_9  and  C_12
    7  A    between atoms: C_10  and  O_57
    8  A    between atoms: N_15  and  C_51
    9  A    between atoms: C_16  and  C_42
   10  A    between atoms: O_18  and  N_27
   11  A    between atoms: O_18  and  C_32
   12  A    between atoms: C_19  and  C_49
   13  A    between atoms: C_19  and  O_57
   14  A    between atoms: N_24  and  C_37
   15  A    between atoms: N_24  and  C_38
   16  A    between atoms: N_24  and  C_42
   17  A    between atoms: C_28  and  C_50
   18  A    between atoms: C_36  and  C_50
   19  A    between atoms: C_37  and  C_49
                            x       y       z     vdW  Elec       q    Type
                         _______ _______ _______ _____ _____    ______ ____

>  <TORSDO>
F 19

$$$$
=
 OpenBabel10222421393D

 60 65  0  0  1  0  0  0  0  0999 V2000
  185.1320  178.5650  144.0650 C   0  0  0  0  0  0  0  0  0  0  0  0
  185.3680  178.8110  145.5200 C   0  0  1  0  0  3  0  0  0  0  0  0
  184.2640  178.1470  146.3270 C   0  0  0  0  0  1  0  0  0  0  0  0
  190.1740  177.5480  141.4330 C   0  0  0  0  0  0  0  0  0  0  0  0
  187.0390  178.3030  147.4120 C   0  0  0  0  0  3  0  0  0  0  0  0
  190.0670  177.5240  145.8650 N   0  0  0  0  0  0  0  0  0  0  0  0
  189.9280  177.3730  144.4640 N   0  0  2  0  0  0  0  0  0  0  0  0
  191.1950  177.1820  142.4810 C   0  0  0  0  0  2  0  0  0  0  0  0
  186.8460  178.1090  142.5770 O   0  0  0  0  0  0  0  0  0  0  0  0
  184.2860  179.3200  143.4360 N   0  0  0  0  0  0  0  0  0  0  0  0
  191.0400  177.9700  143.7630 C   0  0  0  0  0  2  0  0  0  0  0  0
  186.7340  178.4360  146.0470 C   0  0  0  0  0  0  0  0  0  0  0  0
  185.8660  177.4860  143.3410 C   0  0  0  0  0  2  0  0  0  0  0  0
  188.0600  177.4790  142.8640 C   0  0  2  0  0  3  0  0  0  0  0  0
  188.3110  177.9710  147.5530 O   0  0  0  0  0  0  0  0  0  0  0  0
  187.9370  178.1890  145.3900 C   0  0  0  0  0  0  0  0  0  0  0  0
  188.7110  178.1330  144.0960 C   0  0  1  0  0  3  0  0  0  0  0  0
  188.8060  177.9170  146.3480 C   0  0  0  0  0  0  0  0  0  0  0  0
  188.8920  177.6540  141.6630 N   0  0  0  0  0  0  0  0  0  0  0  0
  191.7260  175.7140  146.1370 C   0  0  0  0  0  3  0  0  0  0  0  0
  193.0050  175.5080  148.1820 C   0  0  0  0  0  3  0  0  0  0  0  0
  192.3470  176.6250  148.7030 C   0  0  0  0  0  3  0  0  0  0  0  0
  192.6950  175.0530  146.8980 C   0  0  0  0  0  3  0  0  0  0  0  0
  191.0620  176.8400  146.6480 C   0  0  0  0  0  0  0  0  0  0  0  0
  191.3810  177.2870  147.9400 C   0  0  0  0  0  3  0  0  0  0  0  0
  190.5990  177.7660  140.1190 O   0  0  0  0  0  0  0  0  0  0  0  0
  190.3340  176.8760  139.0390 C   0  0  1  0  0  3  0  0  0  0  0  0
  189.7090  177.5610  137.9940 O   0  0  0  0  0  1  0  0  0  0  0  0
  191.6400  176.2610  138.5500 C   0  0  0  0  0  2  0  0  0  0  0  0
  191.7550  176.3600  137.0320 C   0  0  0  0  0  2  0  0  0  0  0  0
  192.0130  175.0420  136.4590 N   0  0  0  0  0  0  0  0  0  0  0  0
  193.9490  173.7870  137.1810 C   0  0  0  0  0  3  0  0  0  0  0  0
  193.3470  174.5490  136.2700 C   0  0  0  0  0  3  0  0  0  0  0  0
  195.3420  173.2900  136.9890 C   0  0  1  0  0  3  0  0  0  0  0  0
  195.3200  171.9400  136.3330 C   0  0  0  0  0  0  0  0  0  0  0  0
  194.4050  171.0480  136.7090 C   0  0  0  0  0  2  0  0  0  0  0  0
  196.1410  171.6670  135.1160 C   0  0  0  0  0  1  0  0  0  0  0  0
  196.1110  174.2330  136.1860 N   0  0  0  0  0  2  0  0  0  0  0  0
  198.3690  175.4450  138.6940 O   0  0  0  0  0  0  0  0  0  0  0  0
  197.8050  174.6520  137.8960 C   0  0  0  0  0  3  0  0  0  0  0  0
  196.7340  175.1130  137.0800 N   0  0  0  0  0  2  0  0  0  0  0  0
  190.9080  174.3430  135.8250 C   0  0  0  0  0  2  0  0  0  0  0  0
  190.1480  173.5070  136.8430 C   0  0  0  0  0  2  0  0  0  0  0  0
  188.8010  173.8700  136.8470 O   0  0  0  0  0  1  0  0  0  0  0  0
  184.0430  179.1820  142.0860 O   0  0  0  0  0  0  0  0  0  0  0  0
  182.8990  178.5320  141.6240 C   0  0  0  0  0  0  0  0  0  0  0  0
  181.7390  178.7530  142.2240 C   0  0  0  0  0  2  0  0  0  0  0  0
  182.9550  177.5890  140.4650 C   0  0  0  0  0  2  0  0  0  0  0  0
  182.8420  178.3440  139.1450 C   0  0  2  0  0  3  0  0  0  0  0  0
  183.5120  176.1900  137.9550 C   0  0  0  0  0  2  0  0  0  0  0  0
  181.5280  179.0520  136.5890 O   0  0  0  0  0  1  0  0  0  0  0  0
  182.5500  178.1010  136.6310 C   0  0  1  0  0  3  0  0  0  0  0  0
  182.5550  177.3820  137.9850 C   0  0  2  0  0  3  0  0  0  0  0  0
  181.0900  176.5510  135.4530 O   0  0  0  0  0  1  0  0  0  0  0  0
  182.3830  177.0890  135.4870 C   0  0  2  0  0  3  0  0  0  0  0  0
  183.1890  175.3280  136.7380 C   0  0  0  0  0  2  0  0  0  0  0  0
  183.3620  176.0680  135.5470 O   0  0  0  0  0  0  0  0  0  0  0  0
  185.2870  178.6820  138.7510 O   0  0  0  0  0  0  0  0  0  0  0  0
  183.8880  180.4920  138.8750 O   0  0  0  0  0  1  0  0  0  0  0  0
  184.0230  179.2400  138.9020 C   0  0  0  0  0  0  0  0  0  0  0  0
  1  2  1  0  0  0  0
  2 12  1  0  0  0  0
  2  3  1  1  0  0  0
  4 19  2  0  0  0  0
  4  8  1  0  0  0  0
  5 15  1  0  0  0  0
  6 18  1  0  0  0  0
  6 24  1  0  0  0  0
  7 11  1  6  0  0  0
  7  6  1  0  0  0  0
  8 11  1  0  0  0  0
  9 14  1  0  0  0  0
  9 13  1  0  0  0  0
 10  1  2  0  0  0  0
 12  5  2  0  0  0  0
 13  1  1  0  0  0  0
 14 19  1  6  0  0  0
 14 17  1  0  0  0  0
 16 12  1  0  0  0  0
 16 18  2  0  0  0  0
 17  7  1  0  0  0  0
 17 16  1  1  0  0  0
 18 15  1  0  0  0  0
 20 24  2  0  0  0  0
 20 23  1  0  0  0  0
 21 22  1  0  0  0  0
 23 21  2  0  0  0  0
 24 25  1  0  0  0  0
 25 22  2  0  0  0  0
 26  4  1  0  0  0  0
 27 28  1  6  0  0  0
 27 26  1  0  0  0  0
 29 27  1  0  0  0  0
 30 29  1  0  0  0  0
 31 30  1  0  0  0  0
 33 31  1  0  0  0  0
 33 32  2  0  0  0  0
 34 32  1  6  0  0  0
 35 36  2  0  0  0  0
 35 34  1  0  0  0  0
 37 35  1  0  0  0  0
 38 34  1  0  0  0  0
 38 41  1  0  0  0  0
 40 39  2  0  0  0  0
 41 40  1  0  0  0  0
 42 31  1  0  0  0  0
 42 43  1  0  0  0  0
 43 44  1  0  0  0  0
 45 10  1  0  0  0  0
 46 45  1  0  0  0  0
 46 47  2  0  0  0  0
 48 46  1  0  0  0  0
 49 48  1  1  0  0  0
 50 53  1  0  0  0  0
 52 51  1  1  0  0  0
 52 53  1  0  0  0  0
 53 49  1  1  0  0  0
 55 54  1  1  0  0  0
 55 57  1  0  0  0  0
 55 52  1  0  0  0  0
 56 50  1  0  0  0  0
 57 56  1  0  0  0  0
 58 60  2  0  0  0  0
 59 60  1  0  0  0  0
 60 49  1  0  0  0  0
M  END
>  <MODEL>
3

>  <REMARK>
 VINA RESULT:      -7.5      2.359      8.221
  Name = 
  19 active torsions:
  status: ('A' for Active; 'I' for Inactive)
    1  A    between atoms: C_1  and  C_12
    2  A    between atoms: N_5  and  C_12
    3  A    between atoms: N_5  and  N_58
    4  A    between atoms: C_8  and  C_32
    5  A    between atoms: C_8  and  C_50
    6  A    between atoms: C_9  and  C_12
    7  A    between atoms: C_10  and  O_57
    8  A    between atoms: N_15  and  C_51
    9  A    between atoms: C_16  and  C_42
   10  A    between atoms: O_18  and  N_27
   11  A    between atoms: O_18  and  C_32
   12  A    between atoms: C_19  and  C_49
   13  A    between atoms: C_19  and  O_57
   14  A    between atoms: N_24  and  C_37
   15  A    between atoms: N_24  and  C_38
   16  A    between atoms: N_24  and  C_42
   17  A    between atoms: C_28  and  C_50
   18  A    between atoms: C_36  and  C_50
   19  A    between atoms: C_37  and  C_49
                            x       y       z     vdW  Elec       q    Type
                         _______ _______ _______ _____ _____    ______ ____

>  <TORSDO>
F 19

$$$$
=
 OpenBabel10222421393D

 60 65  0  0  1  0  0  0  0  0999 V2000
  184.4440  178.6900  143.7620 C   0  0  0  0  0  0  0  0  0  0  0  0
  182.9670  178.5180  143.6180 C   0  0  1  0  0  3  0  0  0  0  0  0
  182.2550  179.4970  144.5380 C   0  0  0  0  0  1  0  0  0  0  0  0
  186.9600  178.2150  138.5830 C   0  0  0  0  0  0  0  0  0  0  0  0
  181.0600  178.7600  141.9050 C   0  0  0  0  0  3  0  0  0  0  0  0
  182.5510  178.6410  138.7540 N   0  0  0  0  0  0  0  0  0  0  0  0
  183.9640  178.7020  138.8280 N   0  0  2  0  0  0  0  0  0  0  0  0
  185.9070  178.4080  137.5210 C   0  0  0  0  0  2  0  0  0  0  0  0
  185.8990  178.5840  141.9650 O   0  0  0  0  0  0  0  0  0  0  0  0
  185.0420  178.1130  144.7580 N   0  0  0  0  0  0  0  0  0  0  0  0
  184.5740  177.7940  137.8860 C   0  0  0  0  0  2  0  0  0  0  0  0
  182.4200  178.5900  142.2110 C   0  0  0  0  0  0  0  0  0  0  0  0
  185.2220  179.4910  142.7740 C   0  0  0  0  0  2  0  0  0  0  0  0
  185.6170  178.9200  140.6380 C   0  0  2  0  0  3  0  0  0  0  0  0
  180.8990  178.7820  140.5930 O   0  0  0  0  0  0  0  0  0  0  0  0
  183.0500  178.4780  140.9740 C   0  0  0  0  0  0  0  0  0  0  0  0
  184.3150  178.2350  140.1880 C   0  0  1  0  0  3  0  0  0  0  0  0
  182.0850  178.6110  140.0810 C   0  0  0  0  0  0  0  0  0  0  0  0
  186.7700  178.4460  139.8550 N   0  0  0  0  0  0  0  0  0  0  0  0
  181.3960  180.4710  137.5620 C   0  0  0  0  0  3  0  0  0  0  0  0
  180.2960  180.0650  135.4440 C   0  0  0  0  0  3  0  0  0  0  0  0
  180.6760  178.7220  135.5070 C   0  0  0  0  0  3  0  0  0  0  0  0
  180.6570  180.9400  136.4720 C   0  0  0  0  0  3  0  0  0  0  0  0
  181.7870  179.1250  137.6330 C   0  0  0  0  0  0  0  0  0  0  0  0
  181.4170  178.2550  136.5960 C   0  0  0  0  0  3  0  0  0  0  0  0
  188.2370  177.7900  138.2030 O   0  0  0  0  0  0  0  0  0  0  0  0
  188.6110  177.4980  136.8610 C   0  0  1  0  0  3  0  0  0  0  0  0
  190.0030  177.4530  136.7480 O   0  0  0  0  0  1  0  0  0  0  0  0
  188.0120  176.1600  136.4430 C   0  0  0  0  0  2  0  0  0  0  0  0
  188.8940  175.4680  135.4070 C   0  0  0  0  0  2  0  0  0  0  0  0
  188.4690  174.0820  135.2290 N   0  0  0  0  0  0  0  0  0  0  0  0
  186.6740  172.6510  135.9850 C   0  0  0  0  0  3  0  0  0  0  0  0
  187.0860  173.7030  135.2820 C   0  0  0  0  0  3  0  0  0  0  0  0
  185.2370  172.2490  136.0240 C   0  0  1  0  0  3  0  0  0  0  0  0
  185.0940  170.8180  135.5930 C   0  0  0  0  0  0  0  0  0  0  0  0
  183.9090  170.2200  135.7030 C   0  0  0  0  0  2  0  0  0  0  0  0
  186.1820  170.1360  134.8310 C   0  0  0  0  0  1  0  0  0  0  0  0
  184.6950  172.4330  137.3640 N   0  0  0  0  0  2  0  0  0  0  0  0
  182.5720  175.0260  136.0870 O   0  0  0  0  0  0  0  0  0  0  0  0
  183.2810  173.9860  136.1160 C   0  0  0  0  0  3  0  0  0  0  0  0
  183.9130  173.5940  137.3290 N   0  0  0  0  0  2  0  0  0  0  0  0
  189.4850  173.0450  135.2720 C   0  0  0  0  0  2  0  0  0  0  0  0
  190.6600  173.4790  136.1350 C   0  0  0  0  0  2  0  0  0  0  0  0
  190.2830  173.4990  137.4770 O   0  0  0  0  0  1  0  0  0  0  0  0
  186.4070  178.1920  144.9370 O   0  0  0  0  0  0  0  0  0  0  0  0
  186.9690  178.1590  146.2140 C   0  0  0  0  0  0  0  0  0  0  0  0
  186.5060  178.9750  147.1490 C   0  0  0  0  0  2  0  0  0  0  0  0
  188.0850  177.2220  146.5470 C   0  0  0  0  0  2  0  0  0  0  0  0
  189.3930  177.6930  145.9190 C   0  0  2  0  0  3  0  0  0  0  0  0
  189.0980  176.1590  143.9030 C   0  0  0  0  0  2  0  0  0  0  0  0
  190.6870  179.5440  144.0060 O   0  0  0  0  0  1  0  0  0  0  0  0
  190.5880  178.1790  143.7280 C   0  0  1  0  0  3  0  0  0  0  0  0
  189.3370  177.5890  144.3900 C   0  0  2  0  0  3  0  0  0  0  0  0
  189.5810  178.7380  141.5850 O   0  0  0  0  0  1  0  0  0  0  0  0
  190.5520  177.9460  142.2100 C   0  0  2  0  0  3  0  0  0  0  0  0
  189.1200  176.1470  142.3780 C   0  0  0  0  0  2  0  0  0  0  0  0
  190.3770  176.5760  141.8970 O   0  0  0  0  0  0  0  0  0  0  0  0
  191.8310  177.1430  145.9150 O   0  0  0  0  0  0  0  0  0  0  0  0
  190.4690  176.2880  147.5470 O   0  0  0  0  0  1  0  0  0  0  0  0
  190.5890  177.0110  146.5230 C   0  0  0  0  0  0  0  0  0  0  0  0
  1 10  2  0  0  0  0
  2  1  1  0  0  0  0
  2  3  1  1  0  0  0
  4 19  2  0  0  0  0
  5 12  2  0  0  0  0
  6  7  1  0  0  0  0
  6 18  1  0  0  0  0
  7 11  1  6  0  0  0
  7 17  1  0  0  0  0
  8 11  1  0  0  0  0
  8  4  1  0  0  0  0
  9 13  1  0  0  0  0
 10 45  1  0  0  0  0
 12  2  1  0  0  0  0
 13  1  1  0  0  0  0
 14 19  1  6  0  0  0
 14  9  1  0  0  0  0
 15  5  1  0  0  0  0
 16 12  1  0  0  0  0
 17 14  1  0  0  0  0
 17 16  1  1  0  0  0
 18 15  1  0  0  0  0
 18 16  2  0  0  0  0
 20 24  1  0  0  0  0
 21 22  2  0  0  0  0
 21 23  1  0  0  0  0
 22 25  1  0  0  0  0
 23 20  2  0  0  0  0
 24  6  1  0  0  0  0
 25 24  2  0  0  0  0
 26  4  1  0  0  0  0
 27 28  1  1  0  0  0
 27 26  1  0  0  0  0
 29 27  1  0  0  0  0
 30 29  1  0  0  0  0
 31 42  1  0  0  0  0
 31 33  1  0  0  0  0
 31 30  1  0  0  0  0
 33 32  2  0  0  0  0
 34 32  1  1  0  0  0
 34 38  1  0  0  0  0
 35 36  2  0  0  0  0
 35 34  1  0  0  0  0
 37 35  1  0  0  0  0
 39 40  2  0  0  0  0
 40 41  1  0  0  0  0
 41 38  1  0  0  0  0
 42 43  1  0  0  0  0
 43 44  1  0  0  0  0
 45 46  1  0  0  0  0
 46 48  1  0  0  0  0
 46 47  2  0  0  0  0
 49 60  1  0  0  0  0
 49 48  1  1  0  0  0
 50 53  1  0  0  0  0
 52 51  1  6  0  0  0
 52 53  1  0  0  0  0
 53 49  1  1  0  0  0
 55 54  1  1  0  0  0
 55 52  1  0  0  0  0
 56 50  1  0  0  0  0
 57 55  1  0  0  0  0
 57 56  1  0  0  0  0
 58 60  2  0  0  0  0
 60 59  1  0  0  0  0
M  END
>  <MODEL>
4

>  <REMARK>
 VINA RESULT:      -7.4      2.219      4.261
  Name = 
  19 active torsions:
  status: ('A' for Active; 'I' for Inactive)
    1  A    between atoms: C_1  and  C_12
    2  A    between atoms: N_5  and  C_12
    3  A    between atoms: N_5  and  N_58
    4  A    between atoms: C_8  and  C_32
    5  A    between atoms: C_8  and  C_50
    6  A    between atoms: C_9  and  C_12
    7  A    between atoms: C_10  and  O_57
    8  A    between atoms: N_15  and  C_51
    9  A    between atoms: C_16  and  C_42
   10  A    between atoms: O_18  and  N_27
   11  A    between atoms: O_18  and  C_32
   12  A    between atoms: C_19  and  C_49
   13  A    between atoms: C_19  and  O_57
   14  A    between atoms: N_24  and  C_37
   15  A    between atoms: N_24  and  C_38
   16  A    between atoms: N_24  and  C_42
   17  A    between atoms: C_28  and  C_50
   18  A    between atoms: C_36  and  C_50
   19  A    between atoms: C_37  and  C_49
                            x       y       z     vdW  Elec       q    Type
                         _______ _______ _______ _____ _____    ______ ____

>  <TORSDO>
F 19

$$$$
=
 OpenBabel10222421393D

 60 65  0  0  1  0  0  0  0  0999 V2000
  185.5050  178.0240  144.1390 C   0  0  0  0  0  0  0  0  0  0  0  0
  185.6780  178.6310  145.4930 C   0  0  1  0  0  3  0  0  0  0  0  0
  184.5230  178.2060  146.3860 C   0  0  0  0  0  1  0  0  0  0  0  0
  190.6410  176.3230  142.1120 C   0  0  0  0  0  0  0  0  0  0  0  0
  187.2470  178.6080  147.5350 C   0  0  0  0  0  3  0  0  0  0  0  0
  190.3260  177.4310  146.3930 N   0  0  0  0  0  0  0  0  0  0  0  0
  190.2500  176.9300  145.0710 N   0  0  2  0  0  0  0  0  0  0  0  0
  191.6030  176.2270  143.2690 C   0  0  0  0  0  2  0  0  0  0  0  0
  187.2760  177.1880  142.9050 O   0  0  0  0  0  0  0  0  0  0  0  0
  184.7060  178.6020  143.2960 N   0  0  0  0  0  0  0  0  0  0  0  0
  191.4070  177.3180  144.2990 C   0  0  0  0  0  2  0  0  0  0  0  0
  187.0100  178.3910  146.1670 C   0  0  0  0  0  0  0  0  0  0  0  0
  186.2480  176.7900  143.7520 C   0  0  0  0  0  2  0  0  0  0  0  0
  188.4620  176.6410  143.4040 C   0  0  2  0  0  3  0  0  0  0  0  0
  188.5030  178.3110  147.8200 O   0  0  0  0  0  0  0  0  0  0  0  0
  188.2360  177.9740  145.6560 C   0  0  0  0  0  0  0  0  0  0  0  0
  189.0690  177.5810  144.4610 C   0  0  1  0  0  3  0  0  0  0  0  0
  189.0530  177.9460  146.6950 C   0  0  0  0  0  0  0  0  0  0  0  0
  189.3530  176.4960  142.2420 N   0  0  0  0  0  0  0  0  0  0  0  0
  191.8340  175.6810  147.2670 C   0  0  0  0  0  3  0  0  0  0  0  0
  193.1080  176.0470  149.2920 C   0  0  0  0  0  3  0  0  0  0  0  0
  192.5490  177.3210  149.4110 C   0  0  0  0  0  3  0  0  0  0  0  0
  192.7510  175.2270  148.2190 C   0  0  0  0  0  3  0  0  0  0  0  0
  191.2690  176.9610  147.3740 C   0  0  0  0  0  0  0  0  0  0  0  0
  191.6330  177.7760  148.4570 C   0  0  0  0  0  3  0  0  0  0  0  0
  191.1320  176.1940  140.8090 O   0  0  0  0  0  0  0  0  0  0  0  0
  191.6500  177.2770  140.0440 C   0  0  1  0  0  3  0  0  0  0  0  0
  192.5440  178.0260  140.8120 O   0  0  0  0  0  1  0  0  0  0  0  0
  192.3550  176.7360  138.8050 C   0  0  0  0  0  2  0  0  0  0  0  0
  191.4170  175.8600  137.9810 C   0  0  0  0  0  2  0  0  0  0  0  0
  192.1730  175.1080  136.9850 N   0  0  0  0  0  0  0  0  0  0  0  0
  194.2040  173.9950  137.6790 C   0  0  0  0  0  3  0  0  0  0  0  0
  192.9200  173.9330  137.3320 C   0  0  0  0  0  3  0  0  0  0  0  0
  194.9830  172.7700  138.0220 C   0  0  1  0  0  3  0  0  0  0  0  0
  194.9860  171.8220  136.8580 C   0  0  0  0  0  0  0  0  0  0  0  0
  194.5310  170.5820  137.0260 C   0  0  0  0  0  2  0  0  0  0  0  0
  195.2660  172.3100  135.4750 C   0  0  0  0  0  1  0  0  0  0  0  0
  196.3470  173.1230  138.3940 N   0  0  0  0  0  2  0  0  0  0  0  0
  197.6510  175.9400  136.5970 O   0  0  0  0  0  0  0  0  0  0  0  0
  197.4790  174.7470  136.9620 C   0  0  0  0  0  3  0  0  0  0  0  0
  196.5450  174.4500  137.9940 N   0  0  0  0  0  2  0  0  0  0  0  0
  192.3880  175.7190  135.6850 C   0  0  0  0  0  2  0  0  0  0  0  0
  193.8750  175.8050  135.3710 C   0  0  0  0  0  2  0  0  0  0  0  0
  194.4040  176.9840  135.8950 O   0  0  0  0  0  1  0  0  0  0  0  0
  184.5240  178.1260  142.0150 O   0  0  0  0  0  0  0  0  0  0  0  0
  183.7380  178.8190  141.0950 C   0  0  0  0  0  0  0  0  0  0  0  0
  182.4860  179.1210  141.4060 C   0  0  0  0  0  2  0  0  0  0  0  0
  184.2790  179.2260  139.7620 C   0  0  0  0  0  2  0  0  0  0  0  0
  184.7520  178.0080  138.9740 C   0  0  2  0  0  3  0  0  0  0  0  0
  185.8750  177.7930  136.6950 C   0  0  0  0  0  2  0  0  0  0  0  0
  187.4750  178.5810  139.9830 O   0  0  0  0  0  1  0  0  0  0  0  0
  187.2850  177.9050  138.7760 C   0  0  1  0  0  3  0  0  0  0  0  0
  185.9760  178.3510  138.1150 C   0  0  2  0  0  3  0  0  0  0  0  0
  188.7530  179.5170  137.6970 O   0  0  0  0  0  1  0  0  0  0  0  0
  188.4730  178.1520  137.8340 C   0  0  2  0  0  3  0  0  0  0  0  0
  187.1580  178.1300  135.9400 C   0  0  0  0  0  2  0  0  0  0  0  0
  188.2750  177.5390  136.5720 O   0  0  0  0  0  0  0  0  0  0  0  0
  182.7800  178.1610  137.4470 O   0  0  0  0  0  0  0  0  0  0  0  0
  183.4430  176.1230  138.2570 O   0  0  0  0  0  1  0  0  0  0  0  0
  183.6360  177.3660  138.1990 C   0  0  0  0  0  0  0  0  0  0  0  0
  1  2  1  0  0  0  0
  2 12  1  0  0  0  0
  2  3  1  1  0  0  0
  4 19  2  0  0  0  0
  4  8  1  0  0  0  0
  5 15  1  0  0  0  0
  6 18  1  0  0  0  0
  6 24  1  0  0  0  0
  7 11  1  6  0  0  0
  7  6  1  0  0  0  0
  8 11  1  0  0  0  0
  9 14  1  0  0  0  0
  9 13  1  0  0  0  0
 10  1  2  0  0  0  0
 12  5  2  0  0  0  0
 13  1  1  0  0  0  0
 14 19  1  6  0  0  0
 14 17  1  0  0  0  0
 16 12  1  0  0  0  0
 16 18  2  0  0  0  0
 17  7  1  0  0  0  0
 17 16  1  1  0  0  0
 18 15  1  0  0  0  0
 20 24  2  0  0  0  0
 20 23  1  0  0  0  0
 21 22  1  0  0  0  0
 23 21  2  0  0  0  0
 24 25  1  0  0  0  0
 25 22  2  0  0  0  0
 26  4  1  0  0  0  0
 27 26  1  0  0  0  0
 27 28  1  1  0  0  0
 29 27  1  0  0  0  0
 30 29  1  0  0  0  0
 31 33  1  0  0  0  0
 31 30  1  0  0  0  0
 33 32  2  0  0  0  0
 34 32  1  6  0  0  0
 34 38  1  0  0  0  0
 35 36  2  0  0  0  0
 35 34  1  0  0  0  0
 37 35  1  0  0  0  0
 39 40  2  0  0  0  0
 40 41  1  0  0  0  0
 41 38  1  0  0  0  0
 42 31  1  0  0  0  0
 43 42  1  0  0  0  0
 43 44  1  0  0  0  0
 45 10  1  0  0  0  0
 46 47  2  0  0  0  0
 46 45  1  0  0  0  0
 48 46  1  0  0  0  0
 49 48  1  6  0  0  0
 50 53  1  0  0  0  0
 52 51  1  1  0  0  0
 53 52  1  0  0  0  0
 53 49  1  1  0  0  0
 55 54  1  6  0  0  0
 55 52  1  0  0  0  0
 56 57  1  0  0  0  0
 56 50  1  0  0  0  0
 57 55  1  0  0  0  0
 58 60  2  0  0  0  0
 60 59  1  0  0  0  0
 60 49  1  0  0  0  0
M  END
>  <MODEL>
5

>  <REMARK>
 VINA RESULT:      -7.3      2.449      8.236
  Name = 
  19 active torsions:
  status: ('A' for Active; 'I' for Inactive)
    1  A    between atoms: C_1  and  C_12
    2  A    between atoms: N_5  and  C_12
    3  A    between atoms: N_5  and  N_58
    4  A    between atoms: C_8  and  C_32
    5  A    between atoms: C_8  and  C_50
    6  A    between atoms: C_9  and  C_12
    7  A    between atoms: C_10  and  O_57
    8  A    between atoms: N_15  and  C_51
    9  A    between atoms: C_16  and  C_42
   10  A    between atoms: O_18  and  N_27
   11  A    between atoms: O_18  and  C_32
   12  A    between atoms: C_19  and  C_49
   13  A    between atoms: C_19  and  O_57
   14  A    between atoms: N_24  and  C_37
   15  A    between atoms: N_24  and  C_38
   16  A    between atoms: N_24  and  C_42
   17  A    between atoms: C_28  and  C_50
   18  A    between atoms: C_36  and  C_50
   19  A    between atoms: C_37  and  C_49
                            x       y       z     vdW  Elec       q    Type
                         _______ _______ _______ _____ _____    ______ ____

>  <TORSDO>
F 19

$$$$
=
 OpenBabel10222421393D

 60 65  0  0  1  0  0  0  0  0999 V2000
  190.2710  177.5410  139.4030 C   0  0  0  0  0  0  0  0  0  0  0  0
  191.0330  176.8430  140.4820 C   0  0  1  0  0  3  0  0  0  0  0  0
  192.4710  177.3370  140.4820 C   0  0  0  0  0  1  0  0  0  0  0  0
  184.9580  178.8000  141.2920 C   0  0  0  0  0  0  0  0  0  0  0  0
  191.1360  176.5830  143.0420 C   0  0  0  0  0  3  0  0  0  0  0  0
  187.9910  177.4880  144.2480 N   0  0  0  0  0  0  0  0  0  0  0  0
  187.1800  178.0700  143.2430 N   0  0  2  0  0  0  0  0  0  0  0  0
  184.9560  178.7260  142.7980 C   0  0  0  0  0  2  0  0  0  0  0  0
  188.0850  178.2530  139.6730 O   0  0  0  0  0  0  0  0  0  0  0  0
  190.3700  177.1010  138.1870 N   0  0  0  0  0  0  0  0  0  0  0  0
  185.8160  177.6060  143.3410 C   0  0  0  0  0  2  0  0  0  0  0  0
  190.4330  176.9010  141.8680 C   0  0  0  0  0  0  0  0  0  0  0  0
  189.3980  178.7100  139.7150 C   0  0  0  0  0  2  0  0  0  0  0  0
  187.4710  178.6420  140.8670 C   0  0  2  0  0  3  0  0  0  0  0  0
  190.3420  176.7270  144.0890 O   0  0  0  0  0  0  0  0  0  0  0  0
  189.1460  177.2140  142.3000 C   0  0  0  0  0  0  0  0  0  0  0  0
  187.7250  177.5830  141.9550 C   0  0  1  0  0  3  0  0  0  0  0  0
  189.1840  177.0950  143.6160 C   0  0  0  0  0  0  0  0  0  0  0  0
  186.0370  178.7570  140.5570 N   0  0  0  0  0  0  0  0  0  0  0  0
  188.9790  177.6630  146.5050 C   0  0  0  0  0  3  0  0  0  0  0  0
  187.6450  178.4070  148.3830 C   0  0  0  0  0  3  0  0  0  0  0  0
  186.5390  178.5410  147.5410 C   0  0  0  0  0  3  0  0  0  0  0  0
  188.8660  177.9680  147.8640 C   0  0  0  0  0  3  0  0  0  0  0  0
  187.8750  177.7990  145.6490 C   0  0  0  0  0  0  0  0  0  0  0  0
  186.6530  178.2380  146.1820 C   0  0  0  0  0  3  0  0  0  0  0  0
  183.7410  178.9500  140.6200 O   0  0  0  0  0  0  0  0  0  0  0  0
  182.6930  177.9870  140.6480 C   0  0  1  0  0  3  0  0  0  0  0  0
  181.4530  178.6280  140.7120 O   0  0  0  0  0  1  0  0  0  0  0  0
  182.7640  177.1160  139.3990 C   0  0  0  0  0  2  0  0  0  0  0  0
  181.5220  176.2390  139.2740 C   0  0  0  0  0  2  0  0  0  0  0  0
  181.6960  175.2700  138.1960 N   0  0  0  0  0  0  0  0  0  0  0  0
  183.7360  174.7710  136.9980 C   0  0  0  0  0  3  0  0  0  0  0  0
  182.9210  174.5410  138.0250 C   0  0  0  0  0  3  0  0  0  0  0  0
  185.0000  173.9990  136.8140 C   0  0  1  0  0  3  0  0  0  0  0  0
  184.8930  173.1230  135.6000 C   0  0  0  0  0  0  0  0  0  0  0  0
  184.6900  173.6830  134.4080 C   0  0  0  0  0  2  0  0  0  0  0  0
  185.2430  171.6730  135.6690 C   0  0  0  0  0  1  0  0  0  0  0  0
  186.1340  174.9060  136.6890 N   0  0  0  0  0  2  0  0  0  0  0  0
  185.7660  178.4320  137.2300 O   0  0  0  0  0  0  0  0  0  0  0  0
  186.2340  177.2670  137.3110 C   0  0  0  0  0  3  0  0  0  0  0  0
  185.6090  176.2020  136.6050 N   0  0  0  0  0  2  0  0  0  0  0  0
  180.7120  175.2500  137.1280 C   0  0  0  0  0  2  0  0  0  0  0  0
  180.8690  176.4680  136.2300 C   0  0  0  0  0  2  0  0  0  0  0  0
  180.1950  177.5570  136.7820 O   0  0  0  0  0  1  0  0  0  0  0  0
  189.6680  177.6660  137.1440 O   0  0  0  0  0  0  0  0  0  0  0  0
  189.7510  177.1430  135.8540 C   0  0  0  0  0  0  0  0  0  0  0  0
  188.7730  177.3800  134.9920 C   0  0  0  0  0  2  0  0  0  0  0  0
  190.9210  176.3170  135.4240 C   0  0  0  0  0  2  0  0  0  0  0  0
  191.1710  175.1780  136.4070 C   0  0  2  0  0  3  0  0  0  0  0  0
  192.6610  173.1180  136.2040 C   0  0  0  0  0  2  0  0  0  0  0  0
  193.6240  176.5550  137.3270 O   0  0  0  0  0  1  0  0  0  0  0  0
  193.5130  175.1640  137.3970 C   0  0  1  0  0  3  0  0  0  0  0  0
  192.6030  174.6450  136.2770 C   0  0  2  0  0  3  0  0  0  0  0  0
  195.6240  174.9830  136.2020 O   0  0  0  0  0  1  0  0  0  0  0  0
  194.9010  174.5130  137.3050 C   0  0  2  0  0  3  0  0  0  0  0  0
  194.1220  172.6830  136.1400 C   0  0  0  0  0  2  0  0  0  0  0  0
  194.8150  173.0990  137.2980 O   0  0  0  0  0  0  0  0  0  0  0  0
  189.6110  173.7580  135.0660 O   0  0  0  0  0  0  0  0  0  0  0  0
  189.6710  173.5510  137.3470 O   0  0  0  0  0  1  0  0  0  0  0  0
  190.1220  174.1060  136.3110 C   0  0  0  0  0  0  0  0  0  0  0  0
  1 13  1  0  0  0  0
  1  2  1  0  0  0  0
  2  3  1  1  0  0  0
  2 12  1  0  0  0  0
  4  8  1  0  0  0  0
  5 15  1  0  0  0  0
  6 24  1  0  0  0  0
  7 11  1  1  0  0  0
  7  6  1  0  0  0  0
  8 11  1  0  0  0  0
  9 13  1  0  0  0  0
 10  1  2  0  0  0  0
 12 16  1  0  0  0  0
 12  5  2  0  0  0  0
 14  9  1  6  0  0  0
 14 17  1  0  0  0  0
 16 18  2  0  0  0  0
 17 16  1  1  0  0  0
 17  7  1  0  0  0  0
 18 15  1  0  0  0  0
 18  6  1  0  0  0  0
 19 14  1  0  0  0  0
 19  4  2  0  0  0  0
 20 23  1  0  0  0  0
 22 21  1  0  0  0  0
 23 21  2  0  0  0  0
 24 25  1  0  0  0  0
 24 20  2  0  0  0  0
 25 22  2  0  0  0  0
 26 27  1  0  0  0  0
 26  4  1  0  0  0  0
 27 28  1  6  0  0  0
 29 27  1  0  0  0  0
 30 29  1  0  0  0  0
 31 30  1  0  0  0  0
 32 33  2  0  0  0  0
 33 31  1  0  0  0  0
 34 32  1  6  0  0  0
 35 37  1  0  0  0  0
 35 34  1  0  0  0  0
 36 35  2  0  0  0  0
 38 34  1  0  0  0  0
 39 40  2  0  0  0  0
 41 38  1  0  0  0  0
 41 40  1  0  0  0  0
 42 31  1  0  0  0  0
 43 44  1  0  0  0  0
 43 42  1  0  0  0  0
 45 10  1  0  0  0  0
 46 45  1  0  0  0  0
 47 46  2  0  0  0  0
 48 46  1  0  0  0  0
 49 48  1  6  0  0  0
 50 53  1  0  0  0  0
 52 51  1  6  0  0  0
 53 49  1  1  0  0  0
 53 52  1  0  0  0  0
 55 54  1  6  0  0  0
 55 52  1  0  0  0  0
 56 50  1  0  0  0  0
 56 57  1  0  0  0  0
 57 55  1  0  0  0  0
 58 60  2  0  0  0  0
 60 49  1  0  0  0  0
 60 59  1  0  0  0  0
M  END
>  <MODEL>
6

>  <REMARK>
 VINA RESULT:      -7.2      2.292      9.361
  Name = 
  19 active torsions:
  status: ('A' for Active; 'I' for Inactive)
    1  A    between atoms: C_1  and  C_12
    2  A    between atoms: N_5  and  C_12
    3  A    between atoms: N_5  and  N_58
    4  A    between atoms: C_8  and  C_32
    5  A    between atoms: C_8  and  C_50
    6  A    between atoms: C_9  and  C_12
    7  A    between atoms: C_10  and  O_57
    8  A    between atoms: N_15  and  C_51
    9  A    between atoms: C_16  and  C_42
   10  A    between atoms: O_18  and  N_27
   11  A    between atoms: O_18  and  C_32
   12  A    between atoms: C_19  and  C_49
   13  A    between atoms: C_19  and  O_57
   14  A    between atoms: N_24  and  C_37
   15  A    between atoms: N_24  and  C_38
   16  A    between atoms: N_24  and  C_42
   17  A    between atoms: C_28  and  C_50
   18  A    between atoms: C_36  and  C_50
   19  A    between atoms: C_37  and  C_49
                            x       y       z     vdW  Elec       q    Type
                         _______ _______ _______ _____ _____    ______ ____

>  <TORSDO>
F 19

$$$$
=
 OpenBabel10222421393D

 60 65  0  0  1  0  0  0  0  0999 V2000
  184.8840  178.6710  143.8580 C   0  0  0  0  0  0  0  0  0  0  0  0
  185.1390  178.8760  145.3170 C   0  0  1  0  0  3  0  0  0  0  0  0
  184.0380  178.2000  146.1190 C   0  0  0  0  0  1  0  0  0  0  0  0
  189.8860  177.6860  141.1410 C   0  0  0  0  0  0  0  0  0  0  0  0
  186.8270  178.3050  147.1750 C   0  0  0  0  0  3  0  0  0  0  0  0
  189.8300  177.5440  145.5710 N   0  0  0  0  0  0  0  0  0  0  0  0
  189.6750  177.4320  144.1690 N   0  0  2  0  0  0  0  0  0  0  0  0
  190.9160  177.2840  142.1670 C   0  0  0  0  0  2  0  0  0  0  0  0
  186.5770  178.2420  142.3390 O   0  0  0  0  0  0  0  0  0  0  0  0
  184.0370  179.4500  143.2600 N   0  0  0  0  0  0  0  0  0  0  0  0
  190.7830  178.0390  143.4710 C   0  0  0  0  0  2  0  0  0  0  0  0
  186.5080  178.4770  145.8180 C   0  0  0  0  0  0  0  0  0  0  0  0
  185.6000  177.6060  143.0980 C   0  0  0  0  0  2  0  0  0  0  0  0
  187.7890  177.5950  142.5950 C   0  0  2  0  0  3  0  0  0  0  0  0
  188.0980  177.9600  147.2920 O   0  0  0  0  0  0  0  0  0  0  0  0
  187.7010  178.2390  145.1400 C   0  0  0  0  0  0  0  0  0  0  0  0
  188.4600  178.2110  143.8360 C   0  0  1  0  0  3  0  0  0  0  0  0
  188.5780  177.9340  146.0800 C   0  0  0  0  0  0  0  0  0  0  0  0
  188.6080  177.7960  141.3890 N   0  0  0  0  0  0  0  0  0  0  0  0
  191.1710  177.2390  147.6240 C   0  0  0  0  0  3  0  0  0  0  0  0
  192.7800  175.4390  147.7930 C   0  0  0  0  0  3  0  0  0  0  0  0
  192.4510  175.0270  146.4990 C   0  0  0  0  0  3  0  0  0  0  0  0
  192.1380  176.5450  148.3560 C   0  0  0  0  0  3  0  0  0  0  0  0
  190.8300  176.8320  146.3250 C   0  0  0  0  0  0  0  0  0  0  0  0
  191.4820  175.7200  145.7690 C   0  0  0  0  0  3  0  0  0  0  0  0
  190.2980  177.9360  139.8280 O   0  0  0  0  0  0  0  0  0  0  0  0
  189.4320  177.8850  138.7000 C   0  0  1  0  0  3  0  0  0  0  0  0
  188.9820  179.1690  138.3810 O   0  0  0  0  0  1  0  0  0  0  0  0
  190.1740  177.2840  137.5120 C   0  0  0  0  0  2  0  0  0  0  0  0
  190.9890  176.0670  137.9370 C   0  0  0  0  0  2  0  0  0  0  0  0
  191.9190  175.6870  136.8770 N   0  0  0  0  0  0  0  0  0  0  0  0
  194.1030  174.6750  136.6460 C   0  0  0  0  0  3  0  0  0  0  0  0
  193.3390  175.6720  137.0890 C   0  0  0  0  0  3  0  0  0  0  0  0
  195.5760  174.6530  136.8820 C   0  0  1  0  0  3  0  0  0  0  0  0
  195.8910  173.7930  138.0720 C   0  0  0  0  0  0  0  0  0  0  0  0
  195.6710  172.4810  138.0040 C   0  0  0  0  0  2  0  0  0  0  0  0
  196.6580  174.3410  139.2300 C   0  0  0  0  0  1  0  0  0  0  0  0
  196.2720  174.1610  135.7000 N   0  0  0  0  0  2  0  0  0  0  0  0
  199.7020  175.2070  135.6720 O   0  0  0  0  0  0  0  0  0  0  0  0
  198.6910  174.4760  135.8370 C   0  0  0  0  0  3  0  0  0  0  0  0
  197.3970  174.9760  135.5240 N   0  0  0  0  0  2  0  0  0  0  0  0
  191.4090  175.5910  135.5210 C   0  0  0  0  0  2  0  0  0  0  0  0
  190.9140  174.1820  135.2320 C   0  0  0  0  0  2  0  0  0  0  0  0
  190.6860  173.5030  136.4290 O   0  0  0  0  0  1  0  0  0  0  0  0
  183.7770  179.3490  141.9100 O   0  0  0  0  0  0  0  0  0  0  0  0
  182.7530  178.5310  141.4330 C   0  0  0  0  0  0  0  0  0  0  0  0
  181.5160  178.7150  141.8710 C   0  0  0  0  0  2  0  0  0  0  0  0
  183.0230  177.4480  140.4390 C   0  0  0  0  0  2  0  0  0  0  0  0
  183.1030  178.0160  139.0260 C   0  0  2  0  0  3  0  0  0  0  0  0
  180.7740  177.6590  138.0480 C   0  0  0  0  0  2  0  0  0  0  0  0
  183.6310  175.2450  138.1300 O   0  0  0  0  0  1  0  0  0  0  0  0
  182.3250  175.6970  138.3300 C   0  0  1  0  0  3  0  0  0  0  0  0
  182.2340  177.2030  138.0570 C   0  0  2  0  0  3  0  0  0  0  0  0
  181.7680  174.9320  136.0890 O   0  0  0  0  0  1  0  0  0  0  0  0
  181.3500  174.9280  137.4260 C   0  0  2  0  0  3  0  0  0  0  0  0
  179.9820  176.7560  137.1070 C   0  0  0  0  0  2  0  0  0  0  0  0
  180.0270  175.4160  137.5510 O   0  0  0  0  0  0  0  0  0  0  0  0
  185.4170  178.9030  139.3430 O   0  0  0  0  0  1  0  0  0  0  0  0
  184.8960  177.7180  137.4530 O   0  0  0  0  0  0  0  0  0  0  0  0
  184.5220  178.1840  138.5610 C   0  0  0  0  0  0  0  0  0  0  0  0
  1  2  1  0  0  0  0
  2 12  1  0  0  0  0
  2  3  1  1  0  0  0
  4 19  2  0  0  0  0
  4  8  1  0  0  0  0
  5 15  1  0  0  0  0
  6 18  1  0  0  0  0
  6 24  1  0  0  0  0
  7 11  1  6  0  0  0
  7  6  1  0  0  0  0
  8 11  1  0  0  0  0
  9 14  1  0  0  0  0
  9 13  1  0  0  0  0
 10  1  2  0  0  0  0
 12  5  2  0  0  0  0
 13  1  1  0  0  0  0
 14 19  1  6  0  0  0
 14 17  1  0  0  0  0
 16 12  1  0  0  0  0
 16 18  2  0  0  0  0
 17  7  1  0  0  0  0
 17 16  1  1  0  0  0
 18 15  1  0  0  0  0
 20 23  1  0  0  0  0
 21 23  2  0  0  0  0
 22 21  1  0  0  0  0
 24 20  2  0  0  0  0
 25 24  1  0  0  0  0
 25 22  2  0  0  0  0
 26  4  1  0  0  0  0
 27 28  1  6  0  0  0
 27 26  1  0  0  0  0
 29 30  1  0  0  0  0
 29 27  1  0  0  0  0
 31 33  1  0  0  0  0
 31 30  1  0  0  0  0
 32 33  2  0  0  0  0
 34 32  1  6  0  0  0
 34 35  1  0  0  0  0
 35 37  1  0  0  0  0
 36 35  2  0  0  0  0
 38 34  1  0  0  0  0
 39 40  2  0  0  0  0
 41 38  1  0  0  0  0
 41 40  1  0  0  0  0
 42 31  1  0  0  0  0
 43 42  1  0  0  0  0
 43 44  1  0  0  0  0
 45 10  1  0  0  0  0
 46 47  2  0  0  0  0
 46 45  1  0  0  0  0
 48 46  1  0  0  0  0
 49 48  1  1  0  0  0
 50 53  1  0  0  0  0
 52 51  1  6  0  0  0
 53 52  1  0  0  0  0
 53 49  1  1  0  0  0
 55 54  1  6  0  0  0
 55 57  1  0  0  0  0
 55 52  1  0  0  0  0
 56 57  1  0  0  0  0
 56 50  1  0  0  0  0
 59 60  2  0  0  0  0
 60 49  1  0  0  0  0
 60 58  1  0  0  0  0
M  END
>  <MODEL>
7

>  <REMARK>
 VINA RESULT:      -7.2      2.461      8.222
  Name = 
  19 active torsions:
  status: ('A' for Active; 'I' for Inactive)
    1  A    between atoms: C_1  and  C_12
    2  A    between atoms: N_5  and  C_12
    3  A    between atoms: N_5  and  N_58
    4  A    between atoms: C_8  and  C_32
    5  A    between atoms: C_8  and  C_50
    6  A    between atoms: C_9  and  C_12
    7  A    between atoms: C_10  and  O_57
    8  A    between atoms: N_15  and  C_51
    9  A    between atoms: C_16  and  C_42
   10  A    between atoms: O_18  and  N_27
   11  A    between atoms: O_18  and  C_32
   12  A    between atoms: C_19  and  C_49
   13  A    between atoms: C_19  and  O_57
   14  A    between atoms: N_24  and  C_37
   15  A    between atoms: N_24  and  C_38
   16  A    between atoms: N_24  and  C_42
   17  A    between atoms: C_28  and  C_50
   18  A    between atoms: C_36  and  C_50
   19  A    between atoms: C_37  and  C_49
                            x       y       z     vdW  Elec       q    Type
                         _______ _______ _______ _____ _____    ______ ____

>  <TORSDO>
F 19

$$$$
=
 OpenBabel10222421393D

 60 65  0  0  1  0  0  0  0  0999 V2000
  185.4440  178.1860  144.1510 C   0  0  0  0  0  0  0  0  0  0  0  0
  185.6530  178.7510  145.5190 C   0  0  1  0  0  3  0  0  0  0  0  0
  184.5010  178.3280  146.4180 C   0  0  0  0  0  1  0  0  0  0  0  0
  190.5060  176.4210  141.9960 C   0  0  0  0  0  0  0  0  0  0  0  0
  187.2520  178.6340  147.5340 C   0  0  0  0  0  3  0  0  0  0  0  0
  190.2840  177.4180  146.3110 N   0  0  0  0  0  0  0  0  0  0  0  0
  190.1750  176.9550  144.9770 N   0  0  2  0  0  0  0  0  0  0  0  0
  191.4840  176.2710  143.1350 C   0  0  0  0  0  2  0  0  0  0  0  0
  187.1750  177.3430  142.8670 O   0  0  0  0  0  0  0  0  0  0  0  0
  184.6460  178.8050  143.3380 N   0  0  0  0  0  0  0  0  0  0  0  0
  191.3290  177.3370  144.1970 C   0  0  0  0  0  2  0  0  0  0  0  0
  186.9880  178.4610  146.1650 C   0  0  0  0  0  0  0  0  0  0  0  0
  186.1510  176.9450  143.7190 C   0  0  0  0  0  2  0  0  0  0  0  0
  188.3550  176.7550  143.3320 C   0  0  2  0  0  3  0  0  0  0  0  0
  188.5050  178.3000  147.7910 O   0  0  0  0  0  0  0  0  0  0  0  0
  188.1960  178.0290  145.6230 C   0  0  0  0  0  0  0  0  0  0  0  0
  189.0000  177.6510  144.4040 C   0  0  1  0  0  3  0  0  0  0  0  0
  189.0280  177.9540  146.6470 C   0  0  0  0  0  0  0  0  0  0  0  0
  189.2240  176.6210  142.1520 N   0  0  0  0  0  0  0  0  0  0  0  0
  191.5940  177.6500  148.3920 C   0  0  0  0  0  3  0  0  0  0  0  0
  193.0760  175.8810  149.1220 C   0  0  0  0  0  3  0  0  0  0  0  0
  192.7240  175.1260  148.0000 C   0  0  0  0  0  3  0  0  0  0  0  0
  192.5100  177.1430  149.3180 C   0  0  0  0  0  3  0  0  0  0  0  0
  191.2300  176.8980  147.2640 C   0  0  0  0  0  0  0  0  0  0  0  0
  191.8060  175.6320  147.0760 C   0  0  0  0  0  3  0  0  0  0  0  0
  190.9740  176.3170  140.6830 O   0  0  0  0  0  0  0  0  0  0  0  0
  191.6530  177.3620  139.9950 C   0  0  1  0  0  3  0  0  0  0  0  0
  192.9600  177.4830  140.4740 O   0  0  0  0  0  1  0  0  0  0  0  0
  191.6730  177.0630  138.5010 C   0  0  0  0  0  2  0  0  0  0  0  0
  191.1590  175.6540  138.2200 C   0  0  0  0  0  2  0  0  0  0  0  0
  191.8230  175.1000  137.0440 N   0  0  0  0  0  0  0  0  0  0  0  0
  194.1360  174.4830  137.3840 C   0  0  0  0  0  3  0  0  0  0  0  0
  192.8730  174.1280  137.1570 C   0  0  0  0  0  3  0  0  0  0  0  0
  195.2280  173.4710  137.4840 C   0  0  1  0  0  3  0  0  0  0  0  0
  196.3610  173.8490  136.5750 C   0  0  0  0  0  0  0  0  0  0  0  0
  196.4840  175.1140  136.1770 C   0  0  0  0  0  2  0  0  0  0  0  0
  197.4750  172.8920  136.3030 C   0  0  0  0  0  1  0  0  0  0  0  0
  195.6950  173.3630  138.8600 N   0  0  0  0  0  2  0  0  0  0  0  0
  196.8800  176.2000  140.7070 O   0  0  0  0  0  0  0  0  0  0  0  0
  196.8150  175.0270  140.2560 C   0  0  0  0  0  3  0  0  0  0  0  0
  195.7630  174.6660  139.3690 N   0  0  0  0  0  2  0  0  0  0  0  0
  191.6010  175.7480  135.7630 C   0  0  0  0  0  2  0  0  0  0  0  0
  190.1220  175.7400  135.4070 C   0  0  0  0  0  2  0  0  0  0  0  0
  189.7730  174.5100  134.8500 O   0  0  0  0  0  1  0  0  0  0  0  0
  184.4330  178.3690  142.0480 O   0  0  0  0  0  0  0  0  0  0  0  0
  183.1550  178.3750  141.4880 C   0  0  0  0  0  0  0  0  0  0  0  0
  182.1970  179.0880  142.0620 C   0  0  0  0  0  2  0  0  0  0  0  0
  182.8430  177.5890  140.2550 C   0  0  0  0  0  2  0  0  0  0  0  0
  182.8380  178.4910  139.0250 C   0  0  2  0  0  3  0  0  0  0  0  0
  180.9570  177.9070  137.4050 C   0  0  0  0  0  2  0  0  0  0  0  0
  184.1320  176.0260  138.0200 O   0  0  0  0  0  1  0  0  0  0  0  0
  182.7530  176.2140  137.8950 C   0  0  1  0  0  3  0  0  0  0  0  0
  182.4280  177.7080  137.7710 C   0  0  2  0  0  3  0  0  0  0  0  0
  182.9510  175.7330  135.5190 O   0  0  0  0  0  1  0  0  0  0  0  0
  182.2190  175.4460  136.6780 C   0  0  2  0  0  3  0  0  0  0  0  0
  180.6310  177.0450  136.1890 C   0  0  0  0  0  2  0  0  0  0  0  0
  180.8350  175.6780  136.4810 O   0  0  0  0  0  0  0  0  0  0  0  0
  184.1180  180.6320  138.8660 O   0  0  0  0  0  1  0  0  0  0  0  0
  185.2150  178.6280  138.6930 O   0  0  0  0  0  0  0  0  0  0  0  0
  184.1300  179.2420  138.8670 C   0  0  0  0  0  0  0  0  0  0  0  0
  1  2  1  0  0  0  0
  2 12  1  0  0  0  0
  2  3  1  1  0  0  0
  4 19  2  0  0  0  0
  4  8  1  0  0  0  0
  5 15  1  0  0  0  0
  6 18  1  0  0  0  0
  6 24  1  0  0  0  0
  7 11  1  6  0  0  0
  7  6  1  0  0  0  0
  8 11  1  0  0  0  0
  9 14  1  0  0  0  0
  9 13  1  0  0  0  0
 10  1  2  0  0  0  0
 12  5  2  0  0  0  0
 13  1  1  0  0  0  0
 14 19  1  6  0  0  0
 14 17  1  0  0  0  0
 16 12  1  0  0  0  0
 16 18  2  0  0  0  0
 17  7  1  0  0  0  0
 17 16  1  1  0  0  0
 18 15  1  0  0  0  0
 20 23  1  0  0  0  0
 21 23  2  0  0  0  0
 22 21  1  0  0  0  0
 24 20  2  0  0  0  0
 25 24  1  0  0  0  0
 25 22  2  0  0  0  0
 26  4  1  0  0  0  0
 27 28  1  1  0  0  0
 27 26  1  0  0  0  0
 29 27  1  0  0  0  0
 30 29  1  0  0  0  0
 31 33  1  0  0  0  0
 31 30  1  0  0  0  0
 33 32  2  0  0  0  0
 34 32  1  1  0  0  0
 34 38  1  0  0  0  0
 35 34  1  0  0  0  0
 36 35  2  0  0  0  0
 37 35  1  0  0  0  0
 38 41  1  0  0  0  0
 40 39  2  0  0  0  0
 41 40  1  0  0  0  0
 42 31  1  0  0  0  0
 43 42  1  0  0  0  0
 44 43  1  0  0  0  0
 45 10  1  0  0  0  0
 46 45  1  0  0  0  0
 46 47  2  0  0  0  0
 48 46  1  0  0  0  0
 49 48  1  1  0  0  0
 50 53  1  0  0  0  0
 52 51  1  6  0  0  0
 53 52  1  0  0  0  0
 53 49  1  1  0  0  0
 55 54  1  6  0  0  0
 55 52  1  0  0  0  0
 56 57  1  0  0  0  0
 56 50  1  0  0  0  0
 57 55  1  0  0  0  0
 58 60  1  0  0  0  0
 59 60  2  0  0  0  0
 60 49  1  0  0  0  0
M  END
>  <MODEL>
8

>  <REMARK>
 VINA RESULT:      -7.0      2.560      8.590
  Name = 
  19 active torsions:
  status: ('A' for Active; 'I' for Inactive)
    1  A    between atoms: C_1  and  C_12
    2  A    between atoms: N_5  and  C_12
    3  A    between atoms: N_5  and  N_58
    4  A    between atoms: C_8  and  C_32
    5  A    between atoms: C_8  and  C_50
    6  A    between atoms: C_9  and  C_12
    7  A    between atoms: C_10  and  O_57
    8  A    between atoms: N_15  and  C_51
    9  A    between atoms: C_16  and  C_42
   10  A    between atoms: O_18  and  N_27
   11  A    between atoms: O_18  and  C_32
   12  A    between atoms: C_19  and  C_49
   13  A    between atoms: C_19  and  O_57
   14  A    between atoms: N_24  and  C_37
   15  A    between atoms: N_24  and  C_38
   16  A    between atoms: N_24  and  C_42
   17  A    between atoms: C_28  and  C_50
   18  A    between atoms: C_36  and  C_50
   19  A    between atoms: C_37  and  C_49
                            x       y       z     vdW  Elec       q    Type
                         _______ _______ _______ _____ _____    ______ ____

>  <TORSDO>
F 19

$$$$
=
 OpenBabel10222421393D

 60 65  0  0  1  0  0  0  0  0999 V2000
  185.4610  178.5070  144.3140 C   0  0  0  0  0  0  0  0  0  0  0  0
  185.6200  178.7970  145.7710 C   0  0  1  0  0  3  0  0  0  0  0  0
  184.4820  178.1450  146.5400 C   0  0  0  0  0  1  0  0  0  0  0  0
  190.6390  177.4710  141.9700 C   0  0  0  0  0  0  0  0  0  0  0  0
  187.1970  178.3610  147.7590 C   0  0  0  0  0  3  0  0  0  0  0  0
  190.3060  177.5710  146.3900 N   0  0  0  0  0  0  0  0  0  0  0  0
  190.2410  177.3790  144.9890 N   0  0  2  0  0  0  0  0  0  0  0  0
  191.6080  177.1460  143.0790 C   0  0  0  0  0  2  0  0  0  0  0  0
  187.2520  178.0280  142.9280 O   0  0  0  0  0  0  0  0  0  0  0  0
  184.6400  179.2360  143.6220 N   0  0  0  0  0  0  0  0  0  0  0  0
  191.3820  177.9680  144.3280 C   0  0  0  0  0  2  0  0  0  0  0  0
  186.9610  178.4520  146.3780 C   0  0  0  0  0  0  0  0  0  0  0  0
  186.2400  177.4160  143.6600 C   0  0  0  0  0  2  0  0  0  0  0  0
  188.4560  177.4200  143.2940 C   0  0  2  0  0  3  0  0  0  0  0  0
  188.4630  178.0460  147.9740 O   0  0  0  0  0  0  0  0  0  0  0  0
  188.1980  178.2000  145.7890 C   0  0  0  0  0  0  0  0  0  0  0  0
  189.0370  178.1150  144.5390 C   0  0  1  0  0  3  0  0  0  0  0  0
  189.0190  177.9630  146.7970 C   0  0  0  0  0  0  0  0  0  0  0  0
  189.3460  177.5700  142.1320 N   0  0  0  0  0  0  0  0  0  0  0  0
  191.6870  177.5240  148.4380 C   0  0  0  0  0  3  0  0  0  0  0  0
  193.1420  175.6460  148.9040 C   0  0  0  0  0  3  0  0  0  0  0  0
  192.7350  175.0380  147.7140 C   0  0  0  0  0  3  0  0  0  0  0  0
  192.6170  176.8890  149.2660 C   0  0  0  0  0  3  0  0  0  0  0  0
  191.2670  176.9200  147.2420 C   0  0  0  0  0  0  0  0  0  0  0  0
  191.8020  175.6720  146.8880 C   0  0  0  0  0  3  0  0  0  0  0  0
  191.1280  177.6560  140.6740 O   0  0  0  0  0  0  0  0  0  0  0  0
  190.5210  177.1080  139.5090 C   0  0  1  0  0  3  0  0  0  0  0  0
  189.8870  178.1150  138.7770 O   0  0  0  0  0  1  0  0  0  0  0  0
  191.5830  176.4300  138.6500 C   0  0  0  0  0  2  0  0  0  0  0  0
  191.3440  176.7080  137.1680 C   0  0  0  0  0  2  0  0  0  0  0  0
  190.9100  175.4900  136.4910 N   0  0  0  0  0  0  0  0  0  0  0  0
  188.6360  175.2010  135.7210 C   0  0  0  0  0  3  0  0  0  0  0  0
  189.5760  174.9790  136.6370 C   0  0  0  0  0  3  0  0  0  0  0  0
  187.2460  174.6830  135.8840 C   0  0  1  0  0  3  0  0  0  0  0  0
  187.2670  173.1870  136.0060 C   0  0  0  0  0  0  0  0  0  0  0  0
  188.3060  172.5080  135.5220 C   0  0  0  0  0  2  0  0  0  0  0  0
  186.2710  172.4750  136.8620 C   0  0  0  0  0  1  0  0  0  0  0  0
  186.6170  175.2800  137.0560 N   0  0  0  0  0  2  0  0  0  0  0  0
  186.5760  178.8030  137.7290 O   0  0  0  0  0  0  0  0  0  0  0  0
  186.6110  177.5610  137.9320 C   0  0  0  0  0  3  0  0  0  0  0  0
  186.5700  176.6620  136.8310 N   0  0  0  0  0  2  0  0  0  0  0  0
  191.9230  174.6450  135.8840 C   0  0  0  0  0  2  0  0  0  0  0  0
  192.0330  173.3210  136.6260 C   0  0  0  0  0  2  0  0  0  0  0  0
  192.3170  172.2940  135.7270 O   0  0  0  0  0  1  0  0  0  0  0  0
  184.4680  179.0560  142.2660 O   0  0  0  0  0  0  0  0  0  0  0  0
  183.2530  178.6080  141.7480 C   0  0  0  0  0  0  0  0  0  0  0  0
  182.1400  178.7990  142.4420 C   0  0  0  0  0  2  0  0  0  0  0  0
  183.1800  177.9130  140.4270 C   0  0  0  0  0  2  0  0  0  0  0  0
  182.0870  178.5200  139.5540 C   0  0  2  0  0  3  0  0  0  0  0  0
  180.5190  176.5140  139.4210 C   0  0  0  0  0  2  0  0  0  0  0  0
  183.2080  177.4970  137.0130 O   0  0  0  0  0  1  0  0  0  0  0  0
  182.4980  176.6560  137.8740 C   0  0  1  0  0  3  0  0  0  0  0  0
  181.4480  177.4560  138.6530 C   0  0  2  0  0  3  0  0  0  0  0  0
  181.0840  176.0110  136.0020 O   0  0  0  0  0  1  0  0  0  0  0  0
  181.8310  175.5230  137.0820 C   0  0  2  0  0  3  0  0  0  0  0  0
  179.9830  175.4580  138.4590 C   0  0  0  0  0  2  0  0  0  0  0  0
  181.0420  174.6950  137.9180 O   0  0  0  0  0  0  0  0  0  0  0  0
  183.8880  180.1390  138.9370 O   0  0  0  0  0  1  0  0  0  0  0  0
  181.7760  180.4010  138.0880 O   0  0  0  0  0  0  0  0  0  0  0  0
  182.5670  179.7300  138.8030 C   0  0  0  0  0  0  0  0  0  0  0  0
  1  2  1  0  0  0  0
  2 12  1  0  0  0  0
  2  3  1  1  0  0  0
  4 19  2  0  0  0  0
  4  8  1  0  0  0  0
  5 15  1  0  0  0  0
  6 18  1  0  0  0  0
  6 24  1  0  0  0  0
  7 11  1  6  0  0  0
  7  6  1  0  0  0  0
  8 11  1  0  0  0  0
  9 14  1  0  0  0  0
  9 13  1  0  0  0  0
 10  1  2  0  0  0  0
 12  5  2  0  0  0  0
 13  1  1  0  0  0  0
 14 19  1  6  0  0  0
 14 17  1  0  0  0  0
 16 12  1  0  0  0  0
 16 18  2  0  0  0  0
 17  7  1  0  0  0  0
 17 16  1  1  0  0  0
 18 15  1  0  0  0  0
 20 23  1  0  0  0  0
 21 23  2  0  0  0  0
 22 21  1  0  0  0  0
 24 20  2  0  0  0  0
 25 24  1  0  0  0  0
 25 22  2  0  0  0  0
 26  4  1  0  0  0  0
 27 28  1  6  0  0  0
 27 26  1  0  0  0  0
 29 27  1  0  0  0  0
 30 29  1  0  0  0  0
 31 33  1  0  0  0  0
 31 30  1  0  0  0  0
 32 33  2  0  0  0  0
 34 32  1  1  0  0  0
 34 35  1  0  0  0  0
 34 38  1  0  0  0  0
 35 37  1  0  0  0  0
 36 35  2  0  0  0  0
 39 40  2  0  0  0  0
 41 38  1  0  0  0  0
 41 40  1  0  0  0  0
 42 31  1  0  0  0  0
 42 43  1  0  0  0  0
 44 43  1  0  0  0  0
 45 10  1  0  0  0  0
 46 45  1  0  0  0  0
 46 47  2  0  0  0  0
 48 46  1  0  0  0  0
 49 48  1  6  0  0  0
 52 51  1  6  0  0  0
 52 53  1  0  0  0  0
 53 50  1  0  0  0  0
 53 49  1  1  0  0  0
 55 54  1  6  0  0  0
 55 52  1  0  0  0  0
 55 57  1  0  0  0  0
 56 50  1  0  0  0  0
 57 56  1  0  0  0  0
 59 60  2  0  0  0  0
 60 58  1  0  0  0  0
 60 49  1  0  0  0  0
M  END
>  <MODEL>
9

>  <REMARK>
 VINA RESULT:      -7.0      2.562      9.067
  Name = 
  19 active torsions:
  status: ('A' for Active; 'I' for Inactive)
    1  A    between atoms: C_1  and  C_12
    2  A    between atoms: N_5  and  C_12
    3  A    between atoms: N_5  and  N_58
    4  A    between atoms: C_8  and  C_32
    5  A    between atoms: C_8  and  C_50
    6  A    between atoms: C_9  and  C_12
    7  A    between atoms: C_10  and  O_57
    8  A    between atoms: N_15  and  C_51
    9  A    between atoms: C_16  and  C_42
   10  A    between atoms: O_18  and  N_27
   11  A    between atoms: O_18  and  C_32
   12  A    between atoms: C_19  and  C_49
   13  A    between atoms: C_19  and  O_57
   14  A    between atoms: N_24  and  C_37
   15  A    between atoms: N_24  and  C_38
   16  A    between atoms: N_24  and  C_42
   17  A    between atoms: C_28  and  C_50
   18  A    between atoms: C_36  and  C_50
   19  A    between atoms: C_37  and  C_49
                            x       y       z     vdW  Elec       q    Type
                         _______ _______ _______ _____ _____    ______ ____

>  <TORSDO>
F 19

$$$$
