=
 OpenBabel10232411023D

 26 29  0  0  1  0  0  0  0  0999 V2000
  187.1880  178.4140  139.5640 O   0  0  0  0  0  0  0  0  0  0  0  0
  191.1870  176.6220  137.9480 N   0  0  0  0  0  1  0  0  0  0  0  0
  186.7640  178.3940  142.0020 C   0  0  0  0  0  0  0  0  0  0  0  0
  184.9270  178.6060  140.3930 C   0  0  0  0  0  0  0  0  0  0  0  0
  190.7310  177.1710  140.6720 S   0  0  0  0  0  0  0  0  0  0  0  0
  186.3020  178.4900  140.6550 C   0  0  0  0  0  0  0  0  0  0  0  0
  189.2950  177.8870  138.5830 N   0  0  0  0  0  2  0  0  0  0  0  0
  190.3950  177.2990  138.9150 C   0  0  2  0  0  3  0  0  0  0  0  0
  188.9580  177.4860  140.8810 C   0  0  1  0  0  3  0  0  0  0  0  0
  188.5490  178.4050  142.3750 S   0  0  0  0  0  0  0  0  0  0  0  0
  185.8180  178.3490  143.0580 C   0  0  0  0  0  0  0  0  0  0  0  0
  188.5960  178.3970  139.7420 C   0  0  2  0  0  3  0  0  0  0  0  0
  184.4560  178.4770  142.7630 C   0  0  0  0  0  3  0  0  0  0  0  0
  184.0140  178.6100  141.4510 C   0  0  0  0  0  3  0  0  0  0  0  0
  187.0240  177.9180  147.1230 C   0  0  0  0  0  3  0  0  0  0  0  0
  187.6710  177.2550  146.1280 N   0  0  0  0  0  0  0  0  0  0  0  0
  187.2910  177.3750  144.8280 C   0  0  0  0  0  3  0  0  0  0  0  0
  186.2030  178.1860  144.4770 C   0  0  0  0  0  0  0  0  0  0  0  0
  185.5410  178.8870  145.4940 C   0  0  0  0  0  3  0  0  0  0  0  0
  185.9450  178.7510  146.8220 C   0  0  0  0  0  3  0  0  0  0  0  0
  184.4450  178.7290  138.9750 C   0  0  2  0  0  3  0  0  0  0  0  0
  183.4280  179.8190  138.8350 C   0  0  0  0  0  0  0  0  0  0  0  0
  183.7990  181.0200  138.8380 O   0  0  0  0  0  1  0  0  0  0  0  0
  182.0760  179.5150  138.7280 O   0  0  0  0  0  0  0  0  0  0  0  0
  183.9300  177.3980  138.4410 C   0  0  0  0  0  2  0  0  0  0  0  0
  184.7470  176.9590  137.3230 N   0  0  0  0  0  1  0  0  0  0  0  0
  1 12  1  0  0  0  0
  1  6  1  0  0  0  0
  3 10  1  0  0  0  0
  3 11  1  0  0  0  0
  4  6  1  0  0  0  0
  4 14  2  0  0  0  0
  6  3  2  0  0  0  0
  7  8  1  0  0  0  0
  8  2  1  1  0  0  0
  8  5  1  0  0  0  0
  9  5  1  1  0  0  0
  9 10  1  0  0  0  0
 11 18  1  0  0  0  0
 12  7  1  6  0  0  0
 12  9  1  0  0  0  0
 13 11  2  0  0  0  0
 14 13  1  0  0  0  0
 16 15  2  0  0  0  0
 17 16  1  0  0  0  0
 18 17  2  0  0  0  0
 18 19  1  0  0  0  0
 19 20  2  0  0  0  0
 20 15  1  0  0  0  0
 21 25  1  1  0  0  0
 21  4  1  0  0  0  0
 22 23  1  0  0  0  0
 22 21  1  0  0  0  0
 24 22  2  0  0  0  0
 26 25  1  0  0  0  0
M  END
>  <MODEL>
1

>  <REMARK>
 VINA RESULT:      -8.0      0.000      0.000
  Name = 
  4 active torsions:
  status: ('A' for Active; 'I' for Inactive)
    1  A    between atoms: C_1  and  C_22
    2  A    between atoms: C_8  and  C_23
    3  A    between atoms: C_9  and  C_22
    4  A    between atoms: C_13  and  C_22
                            x       y       z     vdW  Elec       q    Type
                         _______ _______ _______ _____ _____    ______ ____

>  <TORSDO>
F 4

$$$$
=
 OpenBabel10232411023D

 26 29  0  0  1  0  0  0  0  0999 V2000
  187.0470  178.5190  141.2720 O   0  0  0  0  0  0  0  0  0  0  0  0
  188.6780  177.4410  137.0310 N   0  0  0  0  0  1  0  0  0  0  0  0
  188.3600  177.8640  143.2650 C   0  0  0  0  0  0  0  0  0  0  0  0
  185.9650  178.3580  143.4250 C   0  0  0  0  0  0  0  0  0  0  0  0
  190.2310  177.2620  139.3740 S   0  0  0  0  0  0  0  0  0  0  0  0
  187.1350  178.2660  142.6540 C   0  0  0  0  0  0  0  0  0  0  0  0
  187.8720  178.3860  139.0400 N   0  0  0  0  0  2  0  0  0  0  0  0
  188.8280  177.8040  138.3970 C   0  0  2  0  0  3  0  0  0  0  0  0
  189.1090  177.4030  140.7900 C   0  0  1  0  0  3  0  0  0  0  0  0
  189.9200  177.8930  142.3220 S   0  0  0  0  0  0  0  0  0  0  0  0
  188.3650  177.4980  144.6350 C   0  0  0  0  0  0  0  0  0  0  0  0
  188.1970  178.5470  140.4410 C   0  0  2  0  0  3  0  0  0  0  0  0
  187.1840  177.6110  145.3780 C   0  0  0  0  0  3  0  0  0  0  0  0
  186.0010  178.0400  144.7860 C   0  0  0  0  0  3  0  0  0  0  0  0
  191.9080  176.1610  146.5900 C   0  0  0  0  0  3  0  0  0  0  0  0
  191.7710  176.0530  145.2420 N   0  0  0  0  0  0  0  0  0  0  0  0
  190.6420  176.4660  144.6050 C   0  0  0  0  0  3  0  0  0  0  0  0
  189.5750  177.0100  145.3330 C   0  0  0  0  0  0  0  0  0  0  0  0
  189.7130  177.1400  146.7210 C   0  0  0  0  0  3  0  0  0  0  0  0
  190.8790  176.7110  147.3570 C   0  0  0  0  0  3  0  0  0  0  0  0
  184.6800  178.8010  142.7850 C   0  0  2  0  0  3  0  0  0  0  0  0
  183.6930  179.2750  143.8060 C   0  0  0  0  0  0  0  0  0  0  0  0
  183.8770  180.3760  144.3860 O   0  0  0  0  0  1  0  0  0  0  0  0
  182.5900  178.4960  144.1390 O   0  0  0  0  0  0  0  0  0  0  0  0
  184.0960  177.7150  141.8900 C   0  0  0  0  0  2  0  0  0  0  0  0
  183.4850  178.3110  140.7150 N   0  0  0  0  0  1  0  0  0  0  0  0
  1  6  1  0  0  0  0
  3 11  1  0  0  0  0
  4 14  2  0  0  0  0
  6  3  2  0  0  0  0
  6  4  1  0  0  0  0
  8  2  1  1  0  0  0
  8  7  1  0  0  0  0
  8  5  1  0  0  0  0
  9  5  1  6  0  0  0
  9 10  1  0  0  0  0
 10  3  1  0  0  0  0
 11 18  1  0  0  0  0
 11 13  2  0  0  0  0
 12  7  1  6  0  0  0
 12  9  1  0  0  0  0
 12  1  1  0  0  0  0
 14 13  1  0  0  0  0
 15 20  1  0  0  0  0
 16 15  2  0  0  0  0
 17 16  1  0  0  0  0
 17 18  2  0  0  0  0
 18 19  1  0  0  0  0
 19 20  2  0  0  0  0
 21 25  1  1  0  0  0
 21  4  1  0  0  0  0
 21 22  1  0  0  0  0
 22 24  2  0  0  0  0
 22 23  1  0  0  0  0
 26 25  1  0  0  0  0
M  END
>  <MODEL>
2

>  <REMARK>
 VINA RESULT:      -7.9      2.695      3.571
  Name = 
  4 active torsions:
  status: ('A' for Active; 'I' for Inactive)
    1  A    between atoms: C_1  and  C_22
    2  A    between atoms: C_8  and  C_23
    3  A    between atoms: C_9  and  C_22
    4  A    between atoms: C_13  and  C_22
                            x       y       z     vdW  Elec       q    Type
                         _______ _______ _______ _____ _____    ______ ____

>  <TORSDO>
F 4

$$$$
=
 OpenBabel10232411023D

 26 29  0  0  1  0  0  0  0  0999 V2000
  190.7220  176.8520  144.4910 O   0  0  0  0  0  0  0  0  0  0  0  0
  192.4830  177.5470  140.2220 N   0  0  0  0  0  1  0  0  0  0  0  0
  188.3450  177.3980  144.9110 C   0  0  0  0  0  0  0  0  0  0  0  0
  189.9570  177.2350  146.7500 C   0  0  0  0  0  0  0  0  0  0  0  0
  189.7230  177.6030  140.7810 S   0  0  0  0  0  0  0  0  0  0  0  0
  189.6680  177.1420  145.3790 C   0  0  0  0  0  0  0  0  0  0  0  0
  191.7010  176.7910  142.3200 N   0  0  0  0  0  2  0  0  0  0  0  0
  191.4390  177.2180  141.1300 C   0  0  2  0  0  3  0  0  0  0  0  0
  189.5280  177.6640  142.5820 C   0  0  1  0  0  3  0  0  0  0  0  0
  187.9090  177.1270  143.1620 S   0  0  0  0  0  0  0  0  0  0  0  0
  187.3500  177.8110  145.8350 C   0  0  0  0  0  0  0  0  0  0  0  0
  190.4970  176.6410  143.1060 C   0  0  2  0  0  3  0  0  0  0  0  0
  187.6680  177.8830  147.1960 C   0  0  0  0  0  3  0  0  0  0  0  0
  188.9500  177.5950  147.6510 C   0  0  0  0  0  3  0  0  0  0  0  0
  183.3870  178.9060  144.7140 C   0  0  0  0  0  3  0  0  0  0  0  0
  183.7630  178.8850  146.0210 N   0  0  0  0  0  0  0  0  0  0  0  0
  185.0210  178.5280  146.3940 C   0  0  0  0  0  3  0  0  0  0  0  0
  185.9700  178.1580  145.4310 C   0  0  0  0  0  0  0  0  0  0  0  0
  185.5970  178.1930  144.0810 C   0  0  0  0  0  3  0  0  0  0  0  0
  184.3010  178.5620  143.7170 C   0  0  0  0  0  3  0  0  0  0  0  0
  191.3460  176.9440  147.2430 C   0  0  2  0  0  3  0  0  0  0  0  0
  191.6430  175.4770  147.2120 C   0  0  0  0  0  0  0  0  0  0  0  0
  190.9630  174.6890  147.9180 O   0  0  0  0  0  1  0  0  0  0  0  0
  192.6810  174.9820  146.4300 O   0  0  0  0  0  0  0  0  0  0  0  0
  191.5890  177.5450  148.6220 C   0  0  0  0  0  2  0  0  0  0  0  0
  192.8760  177.1110  149.1360 N   0  0  0  0  0  1  0  0  0  0  0  0
  1  6  1  0  0  0  0
  3  6  2  0  0  0  0
  3 11  1  0  0  0  0
  4 21  1  0  0  0  0
  4 14  2  0  0  0  0
  5  8  1  0  0  0  0
  6  4  1  0  0  0  0
  8  2  1  1  0  0  0
  8  7  1  0  0  0  0
  9  5  1  6  0  0  0
  9 12  1  0  0  0  0
  9 10  1  0  0  0  0
 10  3  1  0  0  0  0
 11 13  2  0  0  0  0
 12  7  1  6  0  0  0
 12  1  1  0  0  0  0
 13 14  1  0  0  0  0
 15 16  1  0  0  0  0
 16 17  2  0  0  0  0
 18 11  1  0  0  0  0
 18 17  1  0  0  0  0
 19 18  2  0  0  0  0
 20 19  1  0  0  0  0
 20 15  2  0  0  0  0
 21 25  1  1  0  0  0
 22 21  1  0  0  0  0
 22 23  1  0  0  0  0
 24 22  2  0  0  0  0
 25 26  1  0  0  0  0
M  END
>  <MODEL>
3

>  <REMARK>
 VINA RESULT:      -7.8      4.385      7.315
  Name = 
  4 active torsions:
  status: ('A' for Active; 'I' for Inactive)
    1  A    between atoms: C_1  and  C_22
    2  A    between atoms: C_8  and  C_23
    3  A    between atoms: C_9  and  C_22
    4  A    between atoms: C_13  and  C_22
                            x       y       z     vdW  Elec       q    Type
                         _______ _______ _______ _____ _____    ______ ____

>  <TORSDO>
F 4

$$$$
=
 OpenBabel10232411023D

 26 29  0  0  1  0  0  0  0  0999 V2000
  186.9180  178.5610  140.4710 O   0  0  0  0  0  0  0  0  0  0  0  0
  189.8790  177.0300  137.2000 N   0  0  0  0  0  1  0  0  0  0  0  0
  187.4360  178.1320  142.8530 C   0  0  0  0  0  0  0  0  0  0  0  0
  185.1520  178.6330  142.1170 C   0  0  0  0  0  0  0  0  0  0  0  0
  190.5170  177.1130  139.9420 S   0  0  0  0  0  0  0  0  0  0  0  0
  186.5130  178.4600  141.8150 C   0  0  0  0  0  0  0  0  0  0  0  0
  188.4600  178.1880  138.6930 N   0  0  0  0  0  2  0  0  0  0  0  0
  189.5590  177.5410  138.4870 C   0  0  2  0  0  3  0  0  0  0  0  0
  188.9790  177.4050  140.8550 C   0  0  1  0  0  3  0  0  0  0  0  0
  189.2260  178.0620  142.5150 S   0  0  0  0  0  0  0  0  0  0  0  0
  186.9520  177.9170  144.1690 C   0  0  0  0  0  0  0  0  0  0  0  0
  188.2850  178.5010  140.0940 C   0  0  2  0  0  3  0  0  0  0  0  0
  185.5920  178.1080  144.4380 C   0  0  0  0  0  3  0  0  0  0  0  0
  184.7040  178.4650  143.4310 C   0  0  0  0  0  3  0  0  0  0  0  0
  189.5400  176.8280  147.3760 C   0  0  0  0  0  3  0  0  0  0  0  0
  189.9710  176.7890  146.0860 N   0  0  0  0  0  0  0  0  0  0  0  0
  189.1530  177.1250  145.0520 C   0  0  0  0  0  3  0  0  0  0  0  0
  187.8270  177.5130  145.2910 C   0  0  0  0  0  0  0  0  0  0  0  0
  187.3800  177.5710  146.6180 C   0  0  0  0  0  3  0  0  0  0  0  0
  188.2340  177.2240  147.6650 C   0  0  0  0  0  3  0  0  0  0  0  0
  184.1850  178.9990  141.0270 C   0  0  2  0  0  3  0  0  0  0  0  0
  183.0310  178.0480  140.9760 C   0  0  0  0  0  0  0  0  0  0  0  0
  183.1610  176.9410  140.3930 O   0  0  0  0  0  0  0  0  0  0  0  0
  181.8080  178.3880  141.5440 O   0  0  0  0  0  1  0  0  0  0  0  0
  184.8820  179.1220  139.6780 C   0  0  0  0  0  2  0  0  0  0  0  0
  184.3410  180.2490  138.9380 N   0  0  0  0  0  1  0  0  0  0  0  0
  1  6  1  0  0  0  0
  3 11  1  0  0  0  0
  4 14  2  0  0  0  0
  6  4  1  0  0  0  0
  6  3  2  0  0  0  0
  8  2  1  1  0  0  0
  8  7  1  0  0  0  0
  8  5  1  0  0  0  0
  9  5  1  6  0  0  0
  9 10  1  0  0  0  0
 10  3  1  0  0  0  0
 11 13  2  0  0  0  0
 11 18  1  0  0  0  0
 12  7  1  6  0  0  0
 12  1  1  0  0  0  0
 12  9  1  0  0  0  0
 14 13  1  0  0  0  0
 15 20  1  0  0  0  0
 16 15  2  0  0  0  0
 17 18  2  0  0  0  0
 17 16  1  0  0  0  0
 18 19  1  0  0  0  0
 19 20  2  0  0  0  0
 21 25  1  6  0  0  0
 21  4  1  0  0  0  0
 22 21  1  0  0  0  0
 22 24  1  0  0  0  0
 23 22  2  0  0  0  0
 26 25  1  0  0  0  0
M  END
>  <MODEL>
4

>  <REMARK>
 VINA RESULT:      -7.3      1.685      2.136
  Name = 
  4 active torsions:
  status: ('A' for Active; 'I' for Inactive)
    1  A    between atoms: C_1  and  C_22
    2  A    between atoms: C_8  and  C_23
    3  A    between atoms: C_9  and  C_22
    4  A    between atoms: C_13  and  C_22
                            x       y       z     vdW  Elec       q    Type
                         _______ _______ _______ _____ _____    ______ ____

>  <TORSDO>
F 4

$$$$
=
 OpenBabel10232411023D

 26 29  0  0  1  0  0  0  0  0999 V2000
  187.4970  177.4770  144.4160 O   0  0  0  0  0  0  0  0  0  0  0  0
  191.4720  177.1170  146.8400 N   0  0  0  0  0  1  0  0  0  0  0  0
  187.6110  177.7540  141.9590 C   0  0  0  0  0  0  0  0  0  0  0  0
  185.6120  178.4000  143.2200 C   0  0  0  0  0  0  0  0  0  0  0  0
  191.3520  176.9150  144.0340 S   0  0  0  0  0  0  0  0  0  0  0  0
  186.9060  177.8560  143.1950 C   0  0  0  0  0  0  0  0  0  0  0  0
  189.3730  176.9170  145.7730 N   0  0  0  0  0  2  0  0  0  0  0  0
  190.6620  176.9200  145.6890 C   0  0  2  0  0  3  0  0  0  0  0  0
  189.7130  177.4850  143.5110 C   0  0  1  0  0  3  0  0  0  0  0  0
  189.2240  176.9060  141.8770 S   0  0  0  0  0  0  0  0  0  0  0  0
  187.0180  178.2680  140.7780 C   0  0  0  0  0  0  0  0  0  0  0  0
  188.7570  176.8270  144.4680 C   0  0  2  0  0  3  0  0  0  0  0  0
  185.7220  178.7940  140.8350 C   0  0  0  0  0  3  0  0  0  0  0  0
  185.0250  178.8550  142.0360 C   0  0  0  0  0  3  0  0  0  0  0  0
  189.0460  178.1700  137.0300 C   0  0  0  0  0  3  0  0  0  0  0  0
  189.7270  178.3840  138.1880 N   0  0  0  0  0  0  0  0  0  0  0  0
  189.0920  178.4280  139.3900 C   0  0  0  0  0  3  0  0  0  0  0  0
  187.7020  178.2620  139.4650 C   0  0  0  0  0  0  0  0  0  0  0  0
  186.9940  178.0240  138.2800 C   0  0  0  0  0  3  0  0  0  0  0  0
  187.6640  177.9830  137.0560 C   0  0  0  0  0  3  0  0  0  0  0  0
  184.8620  178.4870  144.5200 C   0  0  2  0  0  3  0  0  0  0  0  0
  183.5300  179.1450  144.3410 C   0  0  0  0  0  0  0  0  0  0  0  0
  183.4710  180.3770  144.0970 O   0  0  0  0  0  0  0  0  0  0  0  0
  182.3560  178.4100  144.4690 O   0  0  0  0  0  1  0  0  0  0  0  0
  185.6930  179.1670  145.6010 C   0  0  0  0  0  2  0  0  0  0  0  0
  185.1990  178.7970  146.9160 N   0  0  0  0  0  1  0  0  0  0  0  0
  3  6  1  0  0  0  0
  4 21  1  0  0  0  0
  5  8  1  0  0  0  0
  6  4  2  0  0  0  0
  6  1  1  0  0  0  0
  8  7  1  0  0  0  0
  8  2  1  6  0  0  0
  9 10  1  6  0  0  0
  9  5  1  0  0  0  0
  9 12  1  0  0  0  0
 10  3  1  0  0  0  0
 11 13  1  0  0  0  0
 11  3  2  0  0  0  0
 12  1  1  1  0  0  0
 12  7  1  0  0  0  0
 13 14  2  0  0  0  0
 14  4  1  0  0  0  0
 15 20  2  0  0  0  0
 15 16  1  0  0  0  0
 16 17  2  0  0  0  0
 17 18  1  0  0  0  0
 18 11  1  0  0  0  0
 19 18  2  0  0  0  0
 20 19  1  0  0  0  0
 21 25  1  1  0  0  0
 22 24  1  0  0  0  0
 22 21  1  0  0  0  0
 23 22  2  0  0  0  0
 25 26  1  0  0  0  0
M  END
>  <MODEL>
5

>  <REMARK>
 VINA RESULT:      -7.2      2.649      6.035
  Name = 
  4 active torsions:
  status: ('A' for Active; 'I' for Inactive)
    1  A    between atoms: C_1  and  C_22
    2  A    between atoms: C_8  and  C_23
    3  A    between atoms: C_9  and  C_22
    4  A    between atoms: C_13  and  C_22
                            x       y       z     vdW  Elec       q    Type
                         _______ _______ _______ _____ _____    ______ ____

>  <TORSDO>
F 4

$$$$
=
 OpenBabel10232411023D

 26 29  0  0  1  0  0  0  0  0999 V2000
  188.6680  177.8380  140.3610 O   0  0  0  0  0  0  0  0  0  0  0  0
  184.6890  179.8950  139.0410 N   0  0  0  0  0  1  0  0  0  0  0  0
  189.0990  177.4980  142.7750 C   0  0  0  0  0  0  0  0  0  0  0  0
  190.9280  177.4980  141.1430 C   0  0  0  0  0  0  0  0  0  0  0  0
  185.1450  178.9510  141.6550 S   0  0  0  0  0  0  0  0  0  0  0  0
  189.5560  177.5920  141.4260 C   0  0  0  0  0  0  0  0  0  0  0  0
  186.5660  178.5280  139.4770 N   0  0  0  0  0  2  0  0  0  0  0  0
  185.4740  179.0750  139.8960 C   0  0  2  0  0  3  0  0  0  0  0  0
  186.9140  178.5870  141.8080 C   0  0  1  0  0  3  0  0  0  0  0  0
  187.3150  177.4550  143.1500 S   0  0  0  0  0  0  0  0  0  0  0  0
  190.0490  177.3780  143.8220 C   0  0  0  0  0  0  0  0  0  0  0  0
  187.2610  177.8460  140.5460 C   0  0  2  0  0  3  0  0  0  0  0  0
  191.4080  177.2760  143.5050 C   0  0  0  0  0  3  0  0  0  0  0  0
  191.8440  177.3300  142.1860 C   0  0  0  0  0  3  0  0  0  0  0  0
  189.0340  177.3290  147.9610 C   0  0  0  0  0  3  0  0  0  0  0  0
  190.2640  176.9320  147.5390 N   0  0  0  0  0  0  0  0  0  0  0  0
  190.5990  176.9330  146.2200 C   0  0  0  0  0  3  0  0  0  0  0  0
  189.6690  177.3370  145.2520 C   0  0  0  0  0  0  0  0  0  0  0  0
  188.4050  177.7630  145.6790 C   0  0  0  0  0  3  0  0  0  0  0  0
  188.0800  177.7550  147.0360 C   0  0  0  0  0  3  0  0  0  0  0  0
  191.4050  177.5760  139.7210 C   0  0  2  0  0  3  0  0  0  0  0  0
  190.6280  176.6580  138.8300 C   0  0  0  0  0  0  0  0  0  0  0  0
  190.6560  175.4180  139.0370 O   0  0  0  0  0  1  0  0  0  0  0  0
  189.8950  177.1620  137.7610 O   0  0  0  0  0  0  0  0  0  0  0  0
  192.9060  177.3320  139.6190 C   0  0  0  0  0  2  0  0  0  0  0  0
  193.2550  176.9280  138.2680 N   0  0  0  0  0  1  0  0  0  0  0  0
  1 12  1  0  0  0  0
  1  6  1  0  0  0  0
  3 10  1  0  0  0  0
  3 11  1  0  0  0  0
  4  6  1  0  0  0  0
  4 14  2  0  0  0  0
  6  3  2  0  0  0  0
  7  8  1  0  0  0  0
  8  2  1  1  0  0  0
  8  5  1  0  0  0  0
  9  5  1  6  0  0  0
  9 10  1  0  0  0  0
 11 18  1  0  0  0  0
 12  7  1  6  0  0  0
 12  9  1  0  0  0  0
 13 11  2  0  0  0  0
 14 13  1  0  0  0  0
 16 15  1  0  0  0  0
 17 16  2  0  0  0  0
 18 19  2  0  0  0  0
 18 17  1  0  0  0  0
 19 20  1  0  0  0  0
 20 15  2  0  0  0  0
 21 25  1  1  0  0  0
 21  4  1  0  0  0  0
 22 23  1  0  0  0  0
 22 21  1  0  0  0  0
 24 22  2  0  0  0  0
 26 25  1  0  0  0  0
M  END
>  <MODEL>
6

>  <REMARK>
 VINA RESULT:      -7.2      2.789      5.548
  Name = 
  4 active torsions:
  status: ('A' for Active; 'I' for Inactive)
    1  A    between atoms: C_1  and  C_22
    2  A    between atoms: C_8  and  C_23
    3  A    between atoms: C_9  and  C_22
    4  A    between atoms: C_13  and  C_22
                            x       y       z     vdW  Elec       q    Type
                         _______ _______ _______ _____ _____    ______ ____

>  <TORSDO>
F 4

$$$$
=
 OpenBabel10232411023D

 26 29  0  0  1  0  0  0  0  0999 V2000
  187.5920  177.5630  143.8660 O   0  0  0  0  0  0  0  0  0  0  0  0
  189.3730  177.7350  148.1800 N   0  0  0  0  0  1  0  0  0  0  0  0
  189.1270  177.2860  141.9450 C   0  0  0  0  0  0  0  0  0  0  0  0
  186.8740  178.2060  141.6510 C   0  0  0  0  0  0  0  0  0  0  0  0
  190.8540  176.9130  145.9290 S   0  0  0  0  0  0  0  0  0  0  0  0
  187.8630  177.6640  142.4880 C   0  0  0  0  0  0  0  0  0  0  0  0
  188.2580  177.3120  146.1400 N   0  0  0  0  0  2  0  0  0  0  0  0
  189.3500  177.2900  146.8300 C   0  0  2  0  0  3  0  0  0  0  0  0
  189.9030  177.3600  144.4520 C   0  0  1  0  0  3  0  0  0  0  0  0
  190.3640  176.4330  142.9780 S   0  0  0  0  0  0  0  0  0  0  0  0
  189.3910  177.5260  140.5720 C   0  0  0  0  0  0  0  0  0  0  0  0
  188.4940  176.9360  144.7630 C   0  0  2  0  0  3  0  0  0  0  0  0
  188.3810  178.0580  139.7630 C   0  0  0  0  0  3  0  0  0  0  0  0
  187.1370  178.3890  140.2900 C   0  0  0  0  0  3  0  0  0  0  0  0
  193.1740  176.6090  138.8360 C   0  0  0  0  0  3  0  0  0  0  0  0
  193.0880  177.3520  139.9720 N   0  0  0  0  0  0  0  0  0  0  0  0
  191.8870  177.6610  140.5310 C   0  0  0  0  0  3  0  0  0  0  0  0
  190.6940  177.2250  139.9390 C   0  0  0  0  0  0  0  0  0  0  0  0
  190.7730  176.4440  138.7780 C   0  0  0  0  0  3  0  0  0  0  0  0
  192.0150  176.1370  138.2190 C   0  0  0  0  0  3  0  0  0  0  0  0
  185.5360  178.5840  142.2210 C   0  0  2  0  0  3  0  0  0  0  0  0
  184.4760  178.6060  141.1640 C   0  0  0  0  0  0  0  0  0  0  0  0
  183.6460  177.6630  141.0940 O   0  0  0  0  0  1  0  0  0  0  0  0
  184.4180  179.6460  140.2430 O   0  0  0  0  0  0  0  0  0  0  0  0
  185.6050  179.8990  142.9870 C   0  0  0  0  0  2  0  0  0  0  0  0
  184.6090  179.9130  144.0440 N   0  0  0  0  0  1  0  0  0  0  0  0
  3  6  1  0  0  0  0
  3 10  1  0  0  0  0
  4 21  1  0  0  0  0
  4  6  2  0  0  0  0
  5  8  1  0  0  0  0
  6  1  1  0  0  0  0
  7  8  1  0  0  0  0
  8  2  1  6  0  0  0
  9 10  1  6  0  0  0
  9 12  1  0  0  0  0
  9  5  1  0  0  0  0
 11  3  2  0  0  0  0
 12  1  1  6  0  0  0
 12  7  1  0  0  0  0
 13 14  2  0  0  0  0
 13 11  1  0  0  0  0
 14  4  1  0  0  0  0
 15 16  1  0  0  0  0
 16 17  2  0  0  0  0
 18 17  1  0  0  0  0
 18 11  1  0  0  0  0
 19 18  2  0  0  0  0
 20 19  1  0  0  0  0
 20 15  2  0  0  0  0
 21 25  1  6  0  0  0
 22 21  1  0  0  0  0
 23 22  1  0  0  0  0
 24 22  2  0  0  0  0
 25 26  1  0  0  0  0
M  END
>  <MODEL>
7

>  <REMARK>
 VINA RESULT:      -7.2      2.603      6.145
  Name = 
  4 active torsions:
  status: ('A' for Active; 'I' for Inactive)
    1  A    between atoms: C_1  and  C_22
    2  A    between atoms: C_8  and  C_23
    3  A    between atoms: C_9  and  C_22
    4  A    between atoms: C_13  and  C_22
                            x       y       z     vdW  Elec       q    Type
                         _______ _______ _______ _____ _____    ______ ____

>  <TORSDO>
F 4

$$$$
=
 OpenBabel10232411023D

 26 29  0  0  1  0  0  0  0  0999 V2000
  190.1080  176.8900  143.4110 O   0  0  0  0  0  0  0  0  0  0  0  0
  193.5630  177.4610  140.3210 N   0  0  0  0  0  1  0  0  0  0  0  0
  187.8100  177.5570  142.7780 C   0  0  0  0  0  0  0  0  0  0  0  0
  188.4660  177.3290  145.1280 C   0  0  0  0  0  0  0  0  0  0  0  0
  190.8360  177.6580  139.6420 S   0  0  0  0  0  0  0  0  0  0  0  0
  188.7900  177.2390  143.7640 C   0  0  0  0  0  0  0  0  0  0  0  0
  191.9210  176.7630  141.8700 N   0  0  0  0  0  2  0  0  0  0  0  0
  192.2160  177.1920  140.6880 C   0  0  2  0  0  3  0  0  0  0  0  0
  189.8900  177.7440  141.1860 C   0  0  1  0  0  3  0  0  0  0  0  0
  188.1550  177.2930  141.0070 S   0  0  0  0  0  0  0  0  0  0  0  0
  186.5360  178.0260  143.1910 C   0  0  0  0  0  0  0  0  0  0  0  0
  190.4890  176.6790  142.0610 C   0  0  2  0  0  3  0  0  0  0  0  0
  186.2420  178.0940  144.5570 C   0  0  0  0  0  3  0  0  0  0  0  0
  187.1890  177.7460  145.5140 C   0  0  0  0  0  3  0  0  0  0  0  0
  183.5510  179.1610  140.3680 C   0  0  0  0  0  3  0  0  0  0  0  0
  184.8490  179.5310  140.2000 N   0  0  0  0  0  0  0  0  0  0  0  0
  185.8110  179.1840  141.0970 C   0  0  0  0  0  3  0  0  0  0  0  0
  185.4820  178.4380  142.2380 C   0  0  0  0  0  0  0  0  0  0  0  0
  184.1510  178.0380  142.4110 C   0  0  0  0  0  3  0  0  0  0  0  0
  183.1780  178.4030  141.4790 C   0  0  0  0  0  3  0  0  0  0  0  0
  189.4930  176.9740  146.1650 C   0  0  2  0  0  3  0  0  0  0  0  0
  188.9870  177.2350  147.5500 C   0  0  0  0  0  0  0  0  0  0  0  0
  188.2350  176.3950  148.1070 O   0  0  0  0  0  0  0  0  0  0  0  0
  189.3210  178.4100  148.2140 O   0  0  0  0  0  1  0  0  0  0  0  0
  190.8210  177.6740  145.9020 C   0  0  0  0  0  2  0  0  0  0  0  0
  191.9220  176.8460  146.3630 N   0  0  0  0  0  1  0  0  0  0  0  0
  1  6  1  0  0  0  0
  3 11  2  0  0  0  0
  3  6  1  0  0  0  0
  4 14  1  0  0  0  0
  4 21  1  0  0  0  0
  5  8  1  0  0  0  0
  6  4  2  0  0  0  0
  8  2  1  1  0  0  0
  8  7  1  0  0  0  0
  9  5  1  6  0  0  0
  9 12  1  0  0  0  0
 10  9  1  0  0  0  0
 10  3  1  0  0  0  0
 11 13  1  0  0  0  0
 12  7  1  1  0  0  0
 12  1  1  0  0  0  0
 13 14  2  0  0  0  0
 15 20  1  0  0  0  0
 16 15  2  0  0  0  0
 16 17  1  0  0  0  0
 17 18  2  0  0  0  0
 18 19  1  0  0  0  0
 18 11  1  0  0  0  0
 20 19  2  0  0  0  0
 21 25  1  6  0  0  0
 21 22  1  0  0  0  0
 22 23  2  0  0  0  0
 22 24  1  0  0  0  0
 25 26  1  0  0  0  0
M  END
>  <MODEL>
8

>  <REMARK>
 VINA RESULT:      -7.1      3.422      6.365
  Name = 
  4 active torsions:
  status: ('A' for Active; 'I' for Inactive)
    1  A    between atoms: C_1  and  C_22
    2  A    between atoms: C_8  and  C_23
    3  A    between atoms: C_9  and  C_22
    4  A    between atoms: C_13  and  C_22
                            x       y       z     vdW  Elec       q    Type
                         _______ _______ _______ _____ _____    ______ ____

>  <TORSDO>
F 4

$$$$
=
 OpenBabel10232411023D

 26 29  0  0  1  0  0  0  0  0999 V2000
  187.0330  177.9730  141.7240 O   0  0  0  0  0  0  0  0  0  0  0  0
  183.4830  179.9120  144.0580 N   0  0  0  0  0  1  0  0  0  0  0  0
  188.9840  177.1290  142.9920 C   0  0  0  0  0  0  0  0  0  0  0  0
  189.1530  177.6680  140.6080 C   0  0  0  0  0  0  0  0  0  0  0  0
  185.5310  178.4380  145.3090 S   0  0  0  0  0  0  0  0  0  0  0  0
  188.3810  177.5710  141.7770 C   0  0  0  0  0  0  0  0  0  0  0  0
  184.9890  178.6560  142.7400 N   0  0  0  0  0  2  0  0  0  0  0  0
  184.5560  178.9920  143.9090 C   0  0  2  0  0  3  0  0  0  0  0  0
  186.8620  178.2100  144.1000 C   0  0  1  0  0  3  0  0  0  0  0  0
  187.9690  176.8410  144.4800 S   0  0  0  0  0  0  0  0  0  0  0  0
  190.3760  176.8570  143.0180 C   0  0  0  0  0  0  0  0  0  0  0  0
  186.1600  177.8120  142.8310 C   0  0  2  0  0  3  0  0  0  0  0  0
  191.1140  176.9540  141.8330 C   0  0  0  0  0  3  0  0  0  0  0  0
  190.5140  177.3480  140.6430 C   0  0  0  0  0  3  0  0  0  0  0  0
  192.3560  175.7090  146.6130 C   0  0  0  0  0  3  0  0  0  0  0  0
  191.7340  176.9140  146.5120 N   0  0  0  0  0  0  0  0  0  0  0  0
  191.1070  177.2980  145.3680 C   0  0  0  0  0  3  0  0  0  0  0  0
  191.0950  176.4560  144.2470 C   0  0  0  0  0  0  0  0  0  0  0  0
  191.7180  175.2050  144.3470 C   0  0  0  0  0  3  0  0  0  0  0  0
  192.3570  174.8290  145.5300 C   0  0  0  0  0  3  0  0  0  0  0  0
  188.5130  178.1130  139.3230 C   0  0  2  0  0  3  0  0  0  0  0  0
  188.1990  176.9500  138.4350 C   0  0  0  0  0  0  0  0  0  0  0  0
  189.1150  176.1530  138.1060 O   0  0  0  0  0  1  0  0  0  0  0  0
  186.9110  176.7580  137.9490 O   0  0  0  0  0  0  0  0  0  0  0  0
  189.3570  179.1630  138.6110 C   0  0  0  0  0  2  0  0  0  0  0  0
  188.7400  179.5250  137.3460 N   0  0  0  0  0  1  0  0  0  0  0  0
  1  6  1  0  0  0  0
  3 11  1  0  0  0  0
  3 10  1  0  0  0  0
  4 14  2  0  0  0  0
  4  6  1  0  0  0  0
  6  3  2  0  0  0  0
  7 12  1  0  0  0  0
  7  8  1  0  0  0  0
  8  2  1  6  0  0  0
  8  5  1  0  0  0  0
  9 10  1  1  0  0  0
  9  5  1  0  0  0  0
 11 18  1  0  0  0  0
 12  1  1  6  0  0  0
 12  9  1  0  0  0  0
 13 11  2  0  0  0  0
 14 13  1  0  0  0  0
 16 15  1  0  0  0  0
 17 16  2  0  0  0  0
 18 19  2  0  0  0  0
 18 17  1  0  0  0  0
 19 20  1  0  0  0  0
 20 15  2  0  0  0  0
 21 25  1  6  0  0  0
 21  4  1  0  0  0  0
 22 21  1  0  0  0  0
 23 22  1  0  0  0  0
 24 22  2  0  0  0  0
 26 25  1  0  0  0  0
M  END
>  <MODEL>
9

>  <REMARK>
 VINA RESULT:      -6.9      3.203      5.676
  Name = 
  4 active torsions:
  status: ('A' for Active; 'I' for Inactive)
    1  A    between atoms: C_1  and  C_22
    2  A    between atoms: C_8  and  C_23
    3  A    between atoms: C_9  and  C_22
    4  A    between atoms: C_13  and  C_22
                            x       y       z     vdW  Elec       q    Type
                         _______ _______ _______ _____ _____    ______ ____

>  <TORSDO>
F 4

$$$$
