=
 OpenBabel10232408453D

 55 59  0  0  1  0  0  0  0  0999 V2000
  185.0320  175.2360  137.0190 C   0  0  0  0  0  3  0  0  0  0  0  0
  186.4110  175.2150  136.7860 C   0  0  0  0  0  3  0  0  0  0  0  0
  187.1330  174.0240  136.9400 C   0  0  0  0  0  0  0  0  0  0  0  0
  185.0610  172.8920  137.5590 C   0  0  0  0  0  3  0  0  0  0  0  0
  186.4460  172.8670  137.3330 C   0  0  0  0  0  3  0  0  0  0  0  0
  184.3400  174.0710  137.3840 C   0  0  0  0  0  0  0  0  0  0  0  0
  189.2890  175.2000  137.2320 C   0  0  0  0  0  3  0  0  0  0  0  0
  191.3910  173.7890  135.4700 C   0  0  0  0  0  0  0  0  0  0  0  0
  192.3370  176.5530  138.6320 C   0  0  0  0  0  2  0  0  0  0  0  0
  191.1030  176.6230  137.8640 N   0  0  0  0  0  0  0  0  0  0  0  0
  188.6160  173.9870  136.6810 C   0  0  2  0  0  3  0  0  0  0  0  0
  190.2800  177.8210  137.9860 C   0  0  0  0  0  1  0  0  0  0  0  0
  193.2920  175.6200  138.0330 N   0  0  0  0  0  0  0  0  0  0  0  0
  193.0120  174.6560  137.1890 C   0  0  0  0  0  0  0  0  0  0  0  0
  188.8760  173.8730  135.2240 C   0  0  0  0  0  3  0  0  0  0  0  0
  192.4140  173.0550  134.8730 O   0  0  0  0  0  1  0  0  0  0  0  0
  191.6250  174.5230  136.6130 C   0  0  0  0  0  0  0  0  0  0  0  0
  194.1130  173.8710  136.7300 N   0  0  0  0  0  2  0  0  0  0  0  0
  190.1110  173.7670  134.7160 C   0  0  0  0  0  3  0  0  0  0  0  0
  190.6100  175.4390  137.2090 C   0  0  0  0  0  0  0  0  0  0  0  0
  197.8800  171.8140  136.6400 C   0  0  0  0  0  0  0  0  0  0  0  0
  196.9270  168.2880  137.1180 C   0  0  0  0  0  1  0  0  0  0  0  0
  199.0060  174.0620  136.8410 C   0  0  0  0  0  1  0  0  0  0  0  0
  195.3850  170.3040  136.7610 C   0  0  0  0  0  0  0  0  0  0  0  0
  195.2510  171.7400  136.5080 C   0  0  0  0  0  0  0  0  0  0  0  0
  196.5960  172.5370  135.5880 S   0  0  0  0  0  0  0  0  0  0  0  0
  197.8030  170.5600  136.9840 N   0  0  0  0  0  0  0  0  0  0  0  0
  194.2240  172.4580  136.9870 C   0  0  0  0  0  3  0  0  0  0  0  0
  196.7450  169.6820  136.5070 C   0  0  1  0  0  3  0  0  0  0  0  0
  194.2980  169.5380  136.9780 C   0  0  0  0  0  2  0  0  0  0  0  0
  200.1960  171.9900  137.5490 C   0  0  0  0  0  1  0  0  0  0  0  0
  198.9550  172.6390  137.1440 N   0  0  0  0  0  0  0  0  0  0  0  0
  181.8880  173.9100  136.5960 C   0  0  0  0  0  0  0  0  0  0  0  0
  182.5630  175.2650  138.4480 O   0  0  0  0  0  0  0  0  0  0  0  0
  181.2350  175.6060  138.1580 C   0  0  2  0  0  3  0  0  0  0  0  0
  181.5650  172.5640  136.4890 F   0  0  0  0  0  0  0  0  0  0  0  0
  180.6800  174.6700  137.0880 C   0  0  1  0  0  3  0  0  0  0  0  0
  179.9960  175.3320  136.0580 O   0  0  0  0  0  1  0  0  0  0  0  0
  182.8870  174.1130  137.7260 C   0  0  2  0  0  3  0  0  0  0  0  0
  182.3610  174.4070  135.3770 F   0  0  0  0  0  0  0  0  0  0  0  0
  181.0900  177.1280  137.9310 C   0  0  2  0  0  3  0  0  0  0  0  0
  181.3890  177.6470  136.5080 C   0  0  0  0  0  2  0  0  0  0  0  0
  182.7120  177.3750  136.1250 O   0  0  0  0  0  1  0  0  0  0  0  0
  181.6640  177.9700  139.0920 C   0  0  2  0  0  3  0  0  0  0  0  0
  179.9820  179.7510  138.5760 O   0  0  0  0  0  0  0  0  0  0  0  0
  180.3590  179.1210  140.7460 O   0  0  0  0  0  1  0  0  0  0  0  0
  180.6320  178.9710  139.5240 C   0  0  0  0  0  0  0  0  0  0  0  0
  182.9990  180.1520  138.9470 C   0  0  0  0  0  1  0  0  0  0  0  0
  183.0270  178.6420  138.7720 C   0  0  1  0  0  3  0  0  0  0  0  0
  184.1530  178.0790  139.6240 C   0  0  0  0  0  2  0  0  0  0  0  0
  183.7910  178.1650  141.1130 C   0  0  0  0  0  2  0  0  0  0  0  0
  184.4870  179.6080  142.8890 F   0  0  0  0  0  0  0  0  0  0  0  0
  184.9600  178.7190  141.9380 C   0  0  0  0  0  0  0  0  0  0  0  0
  185.8370  179.3880  141.1010 F   0  0  0  0  0  0  0  0  0  0  0  0
  185.6240  177.6780  142.5750 F   0  0  0  0  0  0  0  0  0  0  0  0
  1  6  1  0  0  0  0
  2  3  1  0  0  0  0
  2  1  2  0  0  0  0
  3  5  2  0  0  0  0
  5  4  1  0  0  0  0
  6  4  2  0  0  0  0
  8 17  2  0  0  0  0
 10 12  1  0  0  0  0
 10  9  1  0  0  0  0
 11  3  1  6  0  0  0
 11  7  1  0  0  0  0
 13  9  1  0  0  0  0
 14 13  2  0  0  0  0
 15 11  1  0  0  0  0
 16  8  1  0  0  0  0
 17 14  1  0  0  0  0
 17 20  1  0  0  0  0
 18 28  1  0  0  0  0
 18 14  1  0  0  0  0
 19 15  2  0  0  0  0
 19  8  1  0  0  0  0
 20  7  2  0  0  0  0
 20 10  1  0  0  0  0
 21 27  2  0  0  0  0
 21 32  1  0  0  0  0
 23 32  1  0  0  0  0
 24 30  2  0  0  0  0
 25 24  1  0  0  0  0
 25 28  2  0  0  0  0
 26 25  1  0  0  0  0
 26 21  1  0  0  0  0
 29 24  1  0  0  0  0
 29 27  1  0  0  0  0
 29 22  1  1  0  0  0
 32 31  1  0  0  0  0
 33 37  1  0  0  0  0
 33 39  1  0  0  0  0
 35 41  1  6  0  0  0
 35 34  1  0  0  0  0
 36 33  1  0  0  0  0
 37 38  1  6  0  0  0
 37 35  1  0  0  0  0
 39  6  1  6  0  0  0
 39 34  1  0  0  0  0
 40 33  1  0  0  0  0
 41 42  1  6  0  0  0
 41 44  1  0  0  0  0
 43 42  1  0  0  0  0
 44 47  1  6  0  0  0
 45 47  2  0  0  0  0
 47 46  1  0  0  0  0
 49 48  1  1  0  0  0
 49 44  1  0  0  0  0
 49 50  1  0  0  0  0
 50 51  1  0  0  0  0
 51 53  1  0  0  0  0
 53 55  1  0  0  0  0
 53 52  1  0  0  0  0
 54 53  1  0  0  0  0
M  END
>  <MODEL>
1

>  <REMARK>
 VINA RESULT:      -6.2      0.000      0.000
  Name = 
  11 active torsions:
  status: ('A' for Active; 'I' for Inactive)
    1  A    between atoms: C_8  and  C_35
    2  A    between atoms: C_13  and  C_34
    3  A    between atoms: C_16  and  C_34
    4  A    between atoms: C_23  and  C_34
    5  A    between atoms: C_23  and  C_50
    6  A    between atoms: C_23  and  C_53
    7  A    between atoms: C_28  and  N_44
    8  A    between atoms: C_37  and  C_39
    9  A    between atoms: C_37  and  C_47
   10  A    between atoms: C_41  and  C_46
   11  A    between atoms: C_47  and  C_53
                            x       y       z     vdW  Elec       q    Type
                         _______ _______ _______ _____ _____    ______ ____

>  <TORSDO>
F 11

$$$$
=
 OpenBabel10232408453D

 55 59  0  0  1  0  0  0  0  0999 V2000
  193.9130  174.5900  137.7770 C   0  0  0  0  0  3  0  0  0  0  0  0
  192.5440  174.8380  137.6240 C   0  0  0  0  0  3  0  0  0  0  0  0
  192.0780  175.5430  136.5060 C   0  0  0  0  0  0  0  0  0  0  0  0
  194.3780  175.7370  135.7140 C   0  0  0  0  0  3  0  0  0  0  0  0
  193.0070  175.9930  135.5580 C   0  0  0  0  0  3  0  0  0  0  0  0
  194.8390  175.0160  136.8130 C   0  0  0  0  0  0  0  0  0  0  0  0
  189.8970  174.5810  135.8490 C   0  0  0  0  0  3  0  0  0  0  0  0
  187.8810  176.8980  135.5570 C   0  0  0  0  0  0  0  0  0  0  0  0
  186.7800  172.7460  135.8370 C   0  0  0  0  0  2  0  0  0  0  0  0
  188.0410  173.1910  135.2640 N   0  0  0  0  0  0  0  0  0  0  0  0
  190.6070  175.8050  136.3240 C   0  0  2  0  0  3  0  0  0  0  0  0
  188.8420  172.2270  134.5200 C   0  0  0  0  0  1  0  0  0  0  0  0
  185.8610  173.8630  136.0530 N   0  0  0  0  0  0  0  0  0  0  0  0
  186.1860  175.1320  136.1390 C   0  0  0  0  0  0  0  0  0  0  0  0
  190.4020  176.9210  135.3660 C   0  0  0  0  0  3  0  0  0  0  0  0
  186.8910  177.8760  135.6340 O   0  0  0  0  0  1  0  0  0  0  0  0
  187.5950  175.5820  135.8470 C   0  0  0  0  0  0  0  0  0  0  0  0
  185.1130  176.0510  136.3480 N   0  0  0  0  0  2  0  0  0  0  0  0
  189.1890  177.3990  135.0600 C   0  0  0  0  0  3  0  0  0  0  0  0
  188.5740  174.4750  135.6410 C   0  0  0  0  0  0  0  0  0  0  0  0
  181.5790  176.1500  138.7830 C   0  0  0  0  0  0  0  0  0  0  0  0
  182.3320  178.7740  141.2570 C   0  0  0  0  0  1  0  0  0  0  0  0
  180.8790  173.9870  137.6910 C   0  0  0  0  0  1  0  0  0  0  0  0
  183.6970  178.1160  139.1890 C   0  0  0  0  0  0  0  0  0  0  0  0
  183.8220  177.2810  137.9940 C   0  0  0  0  0  0  0  0  0  0  0  0
  182.2780  176.7290  137.2170 S   0  0  0  0  0  0  0  0  0  0  0  0
  181.6980  176.8830  139.8530 N   0  0  0  0  0  0  0  0  0  0  0  0
  185.0120  176.8770  137.5240 C   0  0  0  0  0  3  0  0  0  0  0  0
  182.3280  178.1950  139.8380 C   0  0  1  0  0  3  0  0  0  0  0  0
  184.6880  178.9560  139.5500 C   0  0  0  0  0  2  0  0  0  0  0  0
  179.9830  174.6150  139.9300 C   0  0  0  0  0  1  0  0  0  0  0  0
  180.9420  174.8550  138.8580 N   0  0  0  0  0  0  0  0  0  0  0  0
  197.2050  174.8520  135.7960 C   0  0  0  0  0  0  0  0  0  0  0  0
  196.5800  173.7080  137.8020 O   0  0  0  0  0  0  0  0  0  0  0  0
  197.8300  173.2040  137.4190 C   0  0  2  0  0  3  0  0  0  0  0  0
  197.6530  176.1440  135.5560 F   0  0  0  0  0  0  0  0  0  0  0  0
  198.3710  173.9980  136.2340 C   0  0  1  0  0  3  0  0  0  0  0  0
  198.8780  173.1970  135.2010 O   0  0  0  0  0  1  0  0  0  0  0  0
  196.3070  174.8370  137.0240 C   0  0  2  0  0  3  0  0  0  0  0  0
  196.5660  174.3290  134.6670 F   0  0  0  0  0  0  0  0  0  0  0  0
  197.7940  171.6630  137.2990 C   0  0  2  0  0  3  0  0  0  0  0  0
  199.0450  170.9870  136.6960 C   0  0  0  0  0  2  0  0  0  0  0  0
  200.1220  170.9960  137.5960 O   0  0  0  0  0  1  0  0  0  0  0  0
  196.4320  171.1260  136.8050 C   0  0  2  0  0  3  0  0  0  0  0  0
  196.9280  169.0140  138.0550 O   0  0  0  0  0  0  0  0  0  0  0  0
  194.8170  169.9020  138.0920 O   0  0  0  0  0  1  0  0  0  0  0  0
  196.0080  169.9880  137.6900 C   0  0  0  0  0  0  0  0  0  0  0  0
  196.1790  169.2470  135.0830 C   0  0  0  0  0  1  0  0  0  0  0  0
  196.4150  170.7320  135.3040 C   0  0  1  0  0  3  0  0  0  0  0  0
  195.3630  171.5070  134.5250 C   0  0  0  0  0  2  0  0  0  0  0  0
  194.0200  170.7670  134.5590 C   0  0  0  0  0  2  0  0  0  0  0  0
  191.6760  171.0710  134.9260 F   0  0  0  0  0  0  0  0  0  0  0  0
  192.9140  171.6500  135.1530 C   0  0  0  0  0  0  0  0  0  0  0  0
  192.9420  172.8930  134.5450 F   0  0  0  0  0  0  0  0  0  0  0  0
  193.1080  171.7930  136.5220 F   0  0  0  0  0  0  0  0  0  0  0  0
  2  1  1  0  0  0  0
  3  2  2  0  0  0  0
  4  6  1  0  0  0  0
  5  4  2  0  0  0  0
  5  3  1  0  0  0  0
  6  1  2  0  0  0  0
  7 11  1  0  0  0  0
  8 16  1  0  0  0  0
  8 17  2  0  0  0  0
  9 13  1  0  0  0  0
 10 20  1  0  0  0  0
 10  9  1  0  0  0  0
 11  3  1  6  0  0  0
 12 10  1  0  0  0  0
 13 14  2  0  0  0  0
 14 18  1  0  0  0  0
 15 11  1  0  0  0  0
 17 14  1  0  0  0  0
 18 28  1  0  0  0  0
 19 15  2  0  0  0  0
 19  8  1  0  0  0  0
 20 17  1  0  0  0  0
 20  7  2  0  0  0  0
 21 32  1  0  0  0  0
 21 27  2  0  0  0  0
 23 32  1  0  0  0  0
 24 30  2  0  0  0  0
 24 29  1  0  0  0  0
 25 24  1  0  0  0  0
 26 25  1  0  0  0  0
 26 21  1  0  0  0  0
 28 25  2  0  0  0  0
 29 27  1  0  0  0  0
 29 22  1  1  0  0  0
 32 31  1  0  0  0  0
 33 37  1  0  0  0  0
 33 39  1  0  0  0  0
 35 41  1  6  0  0  0
 35 34  1  0  0  0  0
 36 33  1  0  0  0  0
 37 38  1  6  0  0  0
 37 35  1  0  0  0  0
 39  6  1  6  0  0  0
 39 34  1  0  0  0  0
 40 33  1  0  0  0  0
 41 42  1  6  0  0  0
 42 43  1  0  0  0  0
 44 41  1  0  0  0  0
 44 47  1  1  0  0  0
 47 45  2  0  0  0  0
 47 46  1  0  0  0  0
 49 48  1  1  0  0  0
 49 44  1  0  0  0  0
 50 51  1  0  0  0  0
 50 49  1  0  0  0  0
 51 53  1  0  0  0  0
 52 53  1  0  0  0  0
 53 55  1  0  0  0  0
 54 53  1  0  0  0  0
M  END
>  <MODEL>
2

>  <REMARK>
 VINA RESULT:      -6.1      5.344     13.478
  Name = 
  11 active torsions:
  status: ('A' for Active; 'I' for Inactive)
    1  A    between atoms: C_8  and  C_35
    2  A    between atoms: C_13  and  C_34
    3  A    between atoms: C_16  and  C_34
    4  A    between atoms: C_23  and  C_34
    5  A    between atoms: C_23  and  C_50
    6  A    between atoms: C_23  and  C_53
    7  A    between atoms: C_28  and  N_44
    8  A    between atoms: C_37  and  C_39
    9  A    between atoms: C_37  and  C_47
   10  A    between atoms: C_41  and  C_46
   11  A    between atoms: C_47  and  C_53
                            x       y       z     vdW  Elec       q    Type
                         _______ _______ _______ _____ _____    ______ ____

>  <TORSDO>
F 11

$$$$
=
 OpenBabel10232408453D

 55 59  0  0  1  0  0  0  0  0999 V2000
  191.5810  172.5780  136.3550 C   0  0  0  0  0  3  0  0  0  0  0  0
  190.5310  173.4050  136.7680 C   0  0  0  0  0  3  0  0  0  0  0  0
  190.2200  174.5630  136.0420 C   0  0  0  0  0  0  0  0  0  0  0  0
  192.0310  174.0340  134.4940 C   0  0  0  0  0  3  0  0  0  0  0  0
  190.9830  174.8700  134.9070 C   0  0  0  0  0  3  0  0  0  0  0  0
  192.3250  172.8710  135.2020 C   0  0  0  0  0  0  0  0  0  0  0  0
  187.7820  174.9620  135.9330 C   0  0  0  0  0  3  0  0  0  0  0  0
  187.2250  177.7790  137.0580 C   0  0  0  0  0  0  0  0  0  0  0  0
  184.2110  174.7630  136.4660 C   0  0  0  0  0  2  0  0  0  0  0  0
  185.4100  174.8510  135.6480 N   0  0  0  0  0  0  0  0  0  0  0  0
  189.0850  175.4550  136.4690 C   0  0  2  0  0  3  0  0  0  0  0  0
  185.4720  174.0640  134.4230 C   0  0  0  0  0  1  0  0  0  0  0  0
  184.0430  175.9480  137.3080 N   0  0  0  0  0  0  0  0  0  0  0  0
  184.9820  176.8010  137.6450 C   0  0  0  0  0  0  0  0  0  0  0  0
  189.3320  176.8470  136.0170 C   0  0  0  0  0  3  0  0  0  0  0  0
  186.9040  178.9400  137.7590 O   0  0  0  0  0  1  0  0  0  0  0  0
  186.3540  176.7110  137.0270 C   0  0  0  0  0  0  0  0  0  0  0  0
  184.5820  177.8920  138.4760 N   0  0  0  0  0  2  0  0  0  0  0  0
  188.5050  177.8600  136.3080 C   0  0  0  0  0  3  0  0  0  0  0  0
  186.5790  175.5060  136.1770 C   0  0  0  0  0  0  0  0  0  0  0  0
  182.0650  178.8430  141.8200 C   0  0  0  0  0  0  0  0  0  0  0  0
  184.4720  179.4350  144.5460 C   0  0  0  0  0  1  0  0  0  0  0  0
  180.1070  178.0170  140.4620 C   0  0  0  0  0  1  0  0  0  0  0  0
  184.9660  179.0520  142.0600 C   0  0  0  0  0  0  0  0  0  0  0  0
  184.4510  178.8360  140.7070 C   0  0  0  0  0  0  0  0  0  0  0  0
  182.8210  179.5390  140.3300 S   0  0  0  0  0  0  0  0  0  0  0  0
  182.7000  178.9050  142.9560 N   0  0  0  0  0  0  0  0  0  0  0  0
  185.1080  178.0970  139.8000 C   0  0  0  0  0  3  0  0  0  0  0  0
  183.9880  179.5680  143.0970 C   0  0  1  0  0  3  0  0  0  0  0  0
  186.2910  179.0220  142.3060 C   0  0  0  0  0  2  0  0  0  0  0  0
  179.9820  178.0640  142.9510 C   0  0  0  0  0  1  0  0  0  0  0  0
  180.7880  178.1710  141.7400 N   0  0  0  0  0  0  0  0  0  0  0  0
  194.0270  171.0370  135.8330 C   0  0  0  0  0  0  0  0  0  0  0  0
  194.5570  172.8340  134.3460 O   0  0  0  0  0  0  0  0  0  0  0  0
  195.7630  172.1860  134.6470 C   0  0  2  0  0  3  0  0  0  0  0  0
  193.4160  169.8060  135.6350 F   0  0  0  0  0  0  0  0  0  0  0  0
  195.4870  170.9280  135.4660 C   0  0  1  0  0  3  0  0  0  0  0  0
  196.3210  170.7890  136.5850 O   0  0  0  0  0  1  0  0  0  0  0  0
  193.5060  172.0420  134.8170 C   0  0  2  0  0  3  0  0  0  0  0  0
  193.8470  171.4750  137.1500 F   0  0  0  0  0  0  0  0  0  0  0  0
  196.8090  173.1860  135.1900 C   0  0  2  0  0  3  0  0  0  0  0  0
  198.1570  172.5920  135.6560 C   0  0  0  0  0  2  0  0  0  0  0  0
  199.2450  173.3330  135.1690 O   0  0  0  0  0  1  0  0  0  0  0  0
  196.1950  174.2680  136.1060 C   0  0  2  0  0  3  0  0  0  0  0  0
  197.9200  175.7970  137.0820 O   0  0  0  0  0  1  0  0  0  0  0  0
  196.9680  176.2820  135.0560 O   0  0  0  0  0  0  0  0  0  0  0  0
  197.0480  175.5020  136.0420 C   0  0  0  0  0  0  0  0  0  0  0  0
  197.2430  173.7200  138.3780 C   0  0  0  0  0  1  0  0  0  0  0  0
  195.9600  173.7990  137.5670 C   0  0  1  0  0  3  0  0  0  0  0  0
  194.9800  174.7010  138.3030 C   0  0  0  0  0  2  0  0  0  0  0  0
  194.0020  175.3460  137.3120 C   0  0  0  0  0  2  0  0  0  0  0  0
  192.0020  175.2620  138.6210 F   0  0  0  0  0  0  0  0  0  0  0  0
  192.9100  176.1370  138.0460 C   0  0  0  0  0  0  0  0  0  0  0  0
  192.2400  176.9440  137.1420 F   0  0  0  0  0  0  0  0  0  0  0  0
  193.4820  176.9210  139.0410 F   0  0  0  0  0  0  0  0  0  0  0  0
  1  2  1  0  0  0  0
  3  2  2  0  0  0  0
  4  5  2  0  0  0  0
  4  6  1  0  0  0  0
  5  3  1  0  0  0  0
  6  1  2  0  0  0  0
  7 20  2  0  0  0  0
  7 11  1  0  0  0  0
  8 16  1  0  0  0  0
  9 13  1  0  0  0  0
 10 20  1  0  0  0  0
 10  9  1  0  0  0  0
 11  3  1  6  0  0  0
 12 10  1  0  0  0  0
 13 14  2  0  0  0  0
 14 18  1  0  0  0  0
 15 19  2  0  0  0  0
 15 11  1  0  0  0  0
 17  8  2  0  0  0  0
 17 14  1  0  0  0  0
 18 28  1  0  0  0  0
 19  8  1  0  0  0  0
 20 17  1  0  0  0  0
 21 27  2  0  0  0  0
 23 32  1  0  0  0  0
 24 30  2  0  0  0  0
 24 29  1  0  0  0  0
 25 24  1  0  0  0  0
 26 25  1  0  0  0  0
 26 21  1  0  0  0  0
 27 29  1  0  0  0  0
 28 25  2  0  0  0  0
 29 22  1  1  0  0  0
 32 21  1  0  0  0  0
 32 31  1  0  0  0  0
 33 40  1  0  0  0  0
 34 35  1  0  0  0  0
 34 39  1  0  0  0  0
 35 41  1  1  0  0  0
 35 37  1  0  0  0  0
 36 33  1  0  0  0  0
 37 33  1  0  0  0  0
 37 38  1  1  0  0  0
 39  6  1  1  0  0  0
 39 33  1  0  0  0  0
 41 42  1  1  0  0  0
 41 44  1  0  0  0  0
 43 42  1  0  0  0  0
 44 47  1  1  0  0  0
 44 49  1  0  0  0  0
 46 47  2  0  0  0  0
 47 45  1  0  0  0  0
 49 50  1  0  0  0  0
 49 48  1  1  0  0  0
 51 53  1  0  0  0  0
 51 50  1  0  0  0  0
 53 52  1  0  0  0  0
 53 55  1  0  0  0  0
 54 53  1  0  0  0  0
M  END
>  <MODEL>
3

>  <REMARK>
 VINA RESULT:      -5.6      5.461     12.745
  Name = 
  11 active torsions:
  status: ('A' for Active; 'I' for Inactive)
    1  A    between atoms: C_8  and  C_35
    2  A    between atoms: C_13  and  C_34
    3  A    between atoms: C_16  and  C_34
    4  A    between atoms: C_23  and  C_34
    5  A    between atoms: C_23  and  C_50
    6  A    between atoms: C_23  and  C_53
    7  A    between atoms: C_28  and  N_44
    8  A    between atoms: C_37  and  C_39
    9  A    between atoms: C_37  and  C_47
   10  A    between atoms: C_41  and  C_46
   11  A    between atoms: C_47  and  C_53
                            x       y       z     vdW  Elec       q    Type
                         _______ _______ _______ _____ _____    ______ ____

>  <TORSDO>
F 11

$$$$
=
 OpenBabel10232408453D

 55 59  0  0  1  0  0  0  0  0999 V2000
  187.0870  177.1830  144.1480 C   0  0  0  0  0  3  0  0  0  0  0  0
  186.5940  177.2840  142.8430 C   0  0  0  0  0  3  0  0  0  0  0  0
  185.3530  177.8900  142.6040 C   0  0  0  0  0  0  0  0  0  0  0  0
  185.1260  178.2830  145.0020 C   0  0  0  0  0  3  0  0  0  0  0  0
  184.6240  178.3820  143.6950 C   0  0  0  0  0  3  0  0  0  0  0  0
  186.3700  177.7020  145.2360 C   0  0  0  0  0  0  0  0  0  0  0  0
  185.9270  178.1380  140.2120 C   0  0  0  0  0  3  0  0  0  0  0  0
  183.3380  178.8050  138.6740 C   0  0  0  0  0  0  0  0  0  0  0  0
  186.9900  177.4860  136.8170 C   0  0  0  0  0  2  0  0  0  0  0  0
  186.9650  178.2410  138.0600 N   0  0  0  0  0  0  0  0  0  0  0  0
  184.8180  178.0150  141.2030 C   0  0  2  0  0  3  0  0  0  0  0  0
  188.2170  178.8000  138.5560 C   0  0  0  0  0  1  0  0  0  0  0  0
  185.6780  177.4660  136.1710 N   0  0  0  0  0  0  0  0  0  0  0  0
  184.5240  177.7020  136.7480 C   0  0  0  0  0  0  0  0  0  0  0  0
  183.9120  179.1870  141.1060 C   0  0  0  0  0  3  0  0  0  0  0  0
  182.1720  178.8820  137.9140 O   0  0  0  0  0  1  0  0  0  0  0  0
  184.4670  178.1960  138.1710 C   0  0  0  0  0  0  0  0  0  0  0  0
  183.3680  177.6300  135.9120 N   0  0  0  0  0  2  0  0  0  0  0  0
  183.2540  179.5030  139.9830 C   0  0  0  0  0  3  0  0  0  0  0  0
  185.7800  178.2130  138.8790 C   0  0  0  0  0  0  0  0  0  0  0  0
  183.8870  173.4370  135.1550 C   0  0  0  0  0  0  0  0  0  0  0  0
  180.5210  172.0530  135.7270 C   0  0  0  0  0  1  0  0  0  0  0  0
  186.3770  173.8330  135.2010 C   0  0  0  0  0  1  0  0  0  0  0  0
  181.2250  174.5180  135.6680 C   0  0  0  0  0  0  0  0  0  0  0  0
  182.2870  175.5050  135.4660 C   0  0  0  0  0  0  0  0  0  0  0  0
  183.6350  175.0370  134.3460 S   0  0  0  0  0  0  0  0  0  0  0  0
  182.8570  172.7110  135.4850 N   0  0  0  0  0  0  0  0  0  0  0  0
  182.3120  176.6740  136.1220 C   0  0  0  0  0  3  0  0  0  0  0  0
  181.4900  173.1070  135.1790 C   0  0  1  0  0  3  0  0  0  0  0  0
  179.9910  174.9010  136.0520 C   0  0  0  0  0  2  0  0  0  0  0  0
  185.4540  171.5640  135.6640 C   0  0  0  0  0  1  0  0  0  0  0  0
  185.2230  172.9930  135.4850 N   0  0  0  0  0  0  0  0  0  0  0  0
  187.1890  178.7510  147.4470 C   0  0  0  0  0  0  0  0  0  0  0  0
  187.9070  176.5960  146.6970 O   0  0  0  0  0  0  0  0  0  0  0  0
  188.7240  176.9420  147.7810 C   0  0  2  0  0  3  0  0  0  0  0  0
  186.0720  179.1720  148.1560 F   0  0  0  0  0  0  0  0  0  0  0  0
  188.2250  178.2350  148.4180 C   0  0  1  0  0  3  0  0  0  0  0  0
  189.2400  179.1670  148.6770 O   0  0  0  0  0  1  0  0  0  0  0  0
  186.8500  177.5090  146.6370 C   0  0  2  0  0  3  0  0  0  0  0  0
  187.6880  179.7840  146.6460 F   0  0  0  0  0  0  0  0  0  0  0  0
  190.2190  176.8570  147.3990 C   0  0  2  0  0  3  0  0  0  0  0  0
  191.1840  177.7890  148.1640 C   0  0  0  0  0  2  0  0  0  0  0  0
  192.2080  177.0680  148.7970 O   0  0  0  0  0  1  0  0  0  0  0  0
  190.4490  176.7510  145.8750 C   0  0  2  0  0  3  0  0  0  0  0  0
  192.3580  175.3510  146.6900 O   0  0  0  0  0  1  0  0  0  0  0  0
  191.9790  175.5810  144.4430 O   0  0  0  0  0  0  0  0  0  0  0  0
  191.6310  175.8600  145.6210 C   0  0  0  0  0  0  0  0  0  0  0  0
  192.0160  178.4120  144.7120 C   0  0  0  0  0  1  0  0  0  0  0  0
  190.5920  178.1230  145.1600 C   0  0  1  0  0  3  0  0  0  0  0  0
  189.6750  178.2330  143.9520 C   0  0  0  0  0  2  0  0  0  0  0  0
  190.4930  178.1890  142.6550 C   0  0  0  0  0  2  0  0  0  0  0  0
  191.2430  176.5330  141.1000 F   0  0  0  0  0  0  0  0  0  0  0  0
  190.1330  176.9570  141.8130 C   0  0  0  0  0  0  0  0  0  0  0  0
  189.1300  177.2890  140.9190 F   0  0  0  0  0  0  0  0  0  0  0  0
  189.7010  175.9290  142.6420 F   0  0  0  0  0  0  0  0  0  0  0  0
  1  6  1  0  0  0  0
  2  1  2  0  0  0  0
  3  2  1  0  0  0  0
  3  5  2  0  0  0  0
  4  6  2  0  0  0  0
  5  4  1  0  0  0  0
  7 11  1  0  0  0  0
  8 19  1  0  0  0  0
  9 10  1  0  0  0  0
 10 12  1  0  0  0  0
 10 20  1  0  0  0  0
 11  3  1  1  0  0  0
 13 14  2  0  0  0  0
 13  9  1  0  0  0  0
 14 17  1  0  0  0  0
 15 11  1  0  0  0  0
 16  8  1  0  0  0  0
 17  8  2  0  0  0  0
 17 20  1  0  0  0  0
 18 28  1  0  0  0  0
 18 14  1  0  0  0  0
 19 15  2  0  0  0  0
 20  7  2  0  0  0  0
 21 32  1  0  0  0  0
 21 27  2  0  0  0  0
 23 32  1  0  0  0  0
 24 30  2  0  0  0  0
 25 24  1  0  0  0  0
 25 28  2  0  0  0  0
 26 21  1  0  0  0  0
 26 25  1  0  0  0  0
 29 27  1  0  0  0  0
 29 24  1  0  0  0  0
 29 22  1  1  0  0  0
 32 31  1  0  0  0  0
 33 36  1  0  0  0  0
 33 37  1  0  0  0  0
 34 35  1  0  0  0  0
 35 41  1  6  0  0  0
 35 37  1  0  0  0  0
 37 38  1  6  0  0  0
 39  6  1  6  0  0  0
 39 34  1  0  0  0  0
 39 33  1  0  0  0  0
 40 33  1  0  0  0  0
 41 42  1  6  0  0  0
 42 43  1  0  0  0  0
 44 47  1  1  0  0  0
 44 41  1  0  0  0  0
 46 47  2  0  0  0  0
 47 45  1  0  0  0  0
 49 48  1  6  0  0  0
 49 44  1  0  0  0  0
 50 49  1  0  0  0  0
 51 50  1  0  0  0  0
 52 53  1  0  0  0  0
 53 55  1  0  0  0  0
 53 51  1  0  0  0  0
 54 53  1  0  0  0  0
M  END
>  <MODEL>
4

>  <REMARK>
 VINA RESULT:      -5.5      6.395     11.287
  Name = 
  11 active torsions:
  status: ('A' for Active; 'I' for Inactive)
    1  A    between atoms: C_8  and  C_35
    2  A    between atoms: C_13  and  C_34
    3  A    between atoms: C_16  and  C_34
    4  A    between atoms: C_23  and  C_34
    5  A    between atoms: C_23  and  C_50
    6  A    between atoms: C_23  and  C_53
    7  A    between atoms: C_28  and  N_44
    8  A    between atoms: C_37  and  C_39
    9  A    between atoms: C_37  and  C_47
   10  A    between atoms: C_41  and  C_46
   11  A    between atoms: C_47  and  C_53
                            x       y       z     vdW  Elec       q    Type
                         _______ _______ _______ _____ _____    ______ ____

>  <TORSDO>
F 11

$$$$
=
 OpenBabel10232408453D

 55 59  0  0  1  0  0  0  0  0999 V2000
  192.1510  172.2820  135.7070 C   0  0  0  0  0  3  0  0  0  0  0  0
  191.0830  173.1590  135.9260 C   0  0  0  0  0  3  0  0  0  0  0  0
  191.2220  174.2270  136.8230 C   0  0  0  0  0  0  0  0  0  0  0  0
  193.5130  173.5110  137.2630 C   0  0  0  0  0  3  0  0  0  0  0  0
  192.4430  174.3900  137.4900 C   0  0  0  0  0  3  0  0  0  0  0  0
  193.3820  172.4630  136.3540 C   0  0  0  0  0  0  0  0  0  0  0  0
  188.8750  174.7850  136.2780 C   0  0  0  0  0  3  0  0  0  0  0  0
  188.2930  177.6160  137.3570 C   0  0  0  0  0  0  0  0  0  0  0  0
  185.2610  174.8120  136.1410 C   0  0  0  0  0  2  0  0  0  0  0  0
  186.5950  174.8340  135.5600 N   0  0  0  0  0  0  0  0  0  0  0  0
  190.0840  175.1840  137.0580 C   0  0  2  0  0  3  0  0  0  0  0  0
  186.8340  174.0620  134.3460 C   0  0  0  0  0  1  0  0  0  0  0  0
  185.0140  175.9930  136.9690 N   0  0  0  0  0  0  0  0  0  0  0  0
  185.9240  176.7770  137.4950 C   0  0  0  0  0  0  0  0  0  0  0  0
  190.4950  176.5640  136.6960 C   0  0  0  0  0  3  0  0  0  0  0  0
  187.9200  178.7840  138.0190 O   0  0  0  0  0  1  0  0  0  0  0  0
  187.3790  176.6080  137.1380 C   0  0  0  0  0  0  0  0  0  0  0  0
  185.4460  177.8790  138.2670 N   0  0  0  0  0  2  0  0  0  0  0  0
  189.6920  177.6240  136.8570 C   0  0  0  0  0  3  0  0  0  0  0  0
  187.6830  175.4030  136.3120 C   0  0  0  0  0  0  0  0  0  0  0  0
  182.3850  178.7710  141.1420 C   0  0  0  0  0  0  0  0  0  0  0  0
  184.2730  179.2240  144.2730 C   0  0  0  0  0  1  0  0  0  0  0  0
  180.6900  178.0320  139.4270 C   0  0  0  0  0  1  0  0  0  0  0  0
  185.1990  178.9130  141.9020 C   0  0  0  0  0  0  0  0  0  0  0  0
  184.9310  178.7510  140.4720 C   0  0  0  0  0  0  0  0  0  0  0  0
  183.4060  179.5000  139.8370 S   0  0  0  0  0  0  0  0  0  0  0  0
  182.8080  178.7820  142.3740 N   0  0  0  0  0  0  0  0  0  0  0  0
  185.7290  178.0290  139.6720 C   0  0  0  0  0  3  0  0  0  0  0  0
  184.0580  179.4140  142.7670 C   0  0  1  0  0  3  0  0  0  0  0  0
  186.4580  178.8470  142.3800 C   0  0  0  0  0  2  0  0  0  0  0  0
  180.1220  177.9990  141.8540 C   0  0  0  0  0  1  0  0  0  0  0  0
  181.1330  178.1290  140.8110 N   0  0  0  0  0  0  0  0  0  0  0  0
  195.2740  171.0820  137.4380 C   0  0  0  0  0  0  0  0  0  0  0  0
  195.3670  171.8450  135.1720 O   0  0  0  0  0  0  0  0  0  0  0  0
  196.6410  171.3550  135.4890 C   0  0  2  0  0  3  0  0  0  0  0  0
  194.6980  169.9640  138.0260 F   0  0  0  0  0  0  0  0  0  0  0  0
  196.6200  170.7020  136.8680 C   0  0  1  0  0  3  0  0  0  0  0  0
  197.6880  171.0870  137.6920 O   0  0  0  0  0  1  0  0  0  0  0  0
  194.4890  171.4730  136.1940 C   0  0  2  0  0  3  0  0  0  0  0  0
  195.3690  172.1340  138.3550 F   0  0  0  0  0  0  0  0  0  0  0  0
  197.7300  172.4160  135.2100 C   0  0  2  0  0  3  0  0  0  0  0  0
  199.1180  171.8890  134.7860 C   0  0  0  0  0  2  0  0  0  0  0  0
  199.2230  170.5020  134.9720 O   0  0  0  0  0  1  0  0  0  0  0  0
  197.7310  173.5680  136.2400 C   0  0  2  0  0  3  0  0  0  0  0  0
  197.3460  176.0410  136.1850 O   0  0  0  0  0  1  0  0  0  0  0  0
  196.4900  174.7080  134.5310 O   0  0  0  0  0  0  0  0  0  0  0  0
  197.1570  174.7980  135.5960 C   0  0  0  0  0  0  0  0  0  0  0  0
  199.9220  174.8890  136.1290 C   0  0  0  0  0  1  0  0  0  0  0  0
  199.1180  173.8410  136.8810 C   0  0  1  0  0  3  0  0  0  0  0  0
  198.9970  174.2780  138.3330 C   0  0  0  0  0  2  0  0  0  0  0  0
  197.5250  174.2950  138.7650 C   0  0  0  0  0  2  0  0  0  0  0  0
  197.7640  176.4630  139.7480 F   0  0  0  0  0  0  0  0  0  0  0  0
  197.3210  175.1750  140.0050 C   0  0  0  0  0  0  0  0  0  0  0  0
  198.0500  174.6570  141.0620 F   0  0  0  0  0  0  0  0  0  0  0  0
  195.9730  175.2140  140.3410 F   0  0  0  0  0  0  0  0  0  0  0  0
  1  2  2  0  0  0  0
  1  6  1  0  0  0  0
  2  3  1  0  0  0  0
  3  5  2  0  0  0  0
  4  5  1  0  0  0  0
  6  4  2  0  0  0  0
  7 20  2  0  0  0  0
  7 11  1  0  0  0  0
  8 16  1  0  0  0  0
  9 13  1  0  0  0  0
 10  9  1  0  0  0  0
 10 20  1  0  0  0  0
 11  3  1  6  0  0  0
 12 10  1  0  0  0  0
 13 14  2  0  0  0  0
 14 18  1  0  0  0  0
 15 19  2  0  0  0  0
 15 11  1  0  0  0  0
 17  8  2  0  0  0  0
 17 14  1  0  0  0  0
 18 28  1  0  0  0  0
 19  8  1  0  0  0  0
 20 17  1  0  0  0  0
 21 27  2  0  0  0  0
 23 32  1  0  0  0  0
 24 30  2  0  0  0  0
 24 29  1  0  0  0  0
 25 24  1  0  0  0  0
 26 25  1  0  0  0  0
 26 21  1  0  0  0  0
 27 29  1  0  0  0  0
 28 25  2  0  0  0  0
 29 22  1  1  0  0  0
 32 21  1  0  0  0  0
 32 31  1  0  0  0  0
 33 36  1  0  0  0  0
 33 40  1  0  0  0  0
 34 35  1  0  0  0  0
 34 39  1  0  0  0  0
 35 41  1  1  0  0  0
 35 37  1  0  0  0  0
 37 33  1  0  0  0  0
 37 38  1  1  0  0  0
 39  6  1  1  0  0  0
 39 33  1  0  0  0  0
 41 42  1  1  0  0  0
 41 44  1  0  0  0  0
 42 43  1  0  0  0  0
 44 47  1  6  0  0  0
 44 49  1  0  0  0  0
 46 47  2  0  0  0  0
 47 45  1  0  0  0  0
 49 48  1  6  0  0  0
 49 50  1  0  0  0  0
 50 51  1  0  0  0  0
 51 53  1  0  0  0  0
 52 53  1  0  0  0  0
 53 55  1  0  0  0  0
 53 54  1  0  0  0  0
M  END
>  <MODEL>
5

>  <REMARK>
 VINA RESULT:      -5.3      5.830     13.354
  Name = 
  11 active torsions:
  status: ('A' for Active; 'I' for Inactive)
    1  A    between atoms: C_8  and  C_35
    2  A    between atoms: C_13  and  C_34
    3  A    between atoms: C_16  and  C_34
    4  A    between atoms: C_23  and  C_34
    5  A    between atoms: C_23  and  C_50
    6  A    between atoms: C_23  and  C_53
    7  A    between atoms: C_28  and  N_44
    8  A    between atoms: C_37  and  C_39
    9  A    between atoms: C_37  and  C_47
   10  A    between atoms: C_41  and  C_46
   11  A    between atoms: C_47  and  C_53
                            x       y       z     vdW  Elec       q    Type
                         _______ _______ _______ _____ _____    ______ ____

>  <TORSDO>
F 11

$$$$
=
 OpenBabel10232408453D

 55 59  0  0  1  0  0  0  0  0999 V2000
  191.4680  173.8450  135.1620 C   0  0  0  0  0  3  0  0  0  0  0  0
  190.5590  174.7010  135.7920 C   0  0  0  0  0  3  0  0  0  0  0  0
  190.8160  175.1730  137.0860 C   0  0  0  0  0  0  0  0  0  0  0  0
  192.9050  173.9110  137.0910 C   0  0  0  0  0  3  0  0  0  0  0  0
  191.9930  174.7660  137.7280 C   0  0  0  0  0  3  0  0  0  0  0  0
  192.6600  173.4610  135.7950 C   0  0  0  0  0  0  0  0  0  0  0  0
  188.5800  176.2240  136.9950 C   0  0  0  0  0  3  0  0  0  0  0  0
  188.4780  178.4370  139.1410 C   0  0  0  0  0  0  0  0  0  0  0  0
  185.0150  176.8080  137.1710 C   0  0  0  0  0  2  0  0  0  0  0  0
  186.3240  176.8740  136.5400 N   0  0  0  0  0  0  0  0  0  0  0  0
  189.8510  176.1050  137.7690 C   0  0  2  0  0  3  0  0  0  0  0  0
  186.4140  176.6270  135.1060 C   0  0  0  0  0  1  0  0  0  0  0  0
  184.9750  177.5800  138.4130 N   0  0  0  0  0  0  0  0  0  0  0  0
  186.0090  177.9530  139.1300 C   0  0  0  0  0  0  0  0  0  0  0  0
  190.4710  177.4420  137.9450 C   0  0  0  0  0  3  0  0  0  0  0  0
  188.3090  179.2830  140.2360 O   0  0  0  0  0  1  0  0  0  0  0  0
  187.4110  177.7390  138.6190 C   0  0  0  0  0  0  0  0  0  0  0  0
  185.7260  178.7090  140.3090 N   0  0  0  0  0  2  0  0  0  0  0  0
  189.8510  178.4500  138.5730 C   0  0  0  0  0  3  0  0  0  0  0  0
  187.5030  176.9370  137.3650 C   0  0  0  0  0  0  0  0  0  0  0  0
  182.9820  179.0100  143.5950 C   0  0  0  0  0  0  0  0  0  0  0  0
  184.9670  177.8270  146.4640 C   0  0  0  0  0  1  0  0  0  0  0  0
  181.1410  179.3470  141.9050 C   0  0  0  0  0  1  0  0  0  0  0  0
  185.7670  178.2800  144.0710 C   0  0  0  0  0  0  0  0  0  0  0  0
  185.4500  178.7430  142.7190 C   0  0  0  0  0  0  0  0  0  0  0  0
  184.1210  179.9680  142.5640 S   0  0  0  0  0  0  0  0  0  0  0  0
  183.4140  178.4580  144.6940 N   0  0  0  0  0  0  0  0  0  0  0  0
  186.0560  178.2430  141.6310 C   0  0  0  0  0  3  0  0  0  0  0  0
  184.7790  178.6250  145.1690 C   0  0  1  0  0  3  0  0  0  0  0  0
  186.9870  177.7850  144.3620 C   0  0  0  0  0  2  0  0  0  0  0  0
  180.6150  178.4910  144.1860 C   0  0  0  0  0  1  0  0  0  0  0  0
  181.6140  178.8100  143.1730 N   0  0  0  0  0  0  0  0  0  0  0  0
  194.2070  171.4130  136.0610 C   0  0  0  0  0  0  0  0  0  0  0  0
  194.5760  173.1040  134.4100 O   0  0  0  0  0  0  0  0  0  0  0  0
  195.7220  172.2970  134.4280 C   0  0  2  0  0  3  0  0  0  0  0  0
  193.4090  170.2780  136.0760 F   0  0  0  0  0  0  0  0  0  0  0  0
  195.4990  171.0980  135.3440 C   0  0  1  0  0  3  0  0  0  0  0  0
  196.5640  170.8540  136.2240 O   0  0  0  0  0  1  0  0  0  0  0  0
  193.5840  172.4720  135.1640 C   0  0  2  0  0  3  0  0  0  0  0  0
  194.4280  171.8840  137.3590 F   0  0  0  0  0  0  0  0  0  0  0  0
  196.9950  173.1450  134.6460 C   0  0  2  0  0  3  0  0  0  0  0  0
  198.3370  172.3820  134.6850 C   0  0  0  0  0  2  0  0  0  0  0  0
  199.4150  173.2140  134.3460 O   0  0  0  0  0  1  0  0  0  0  0  0
  196.8130  174.2470  135.7140 C   0  0  2  0  0  3  0  0  0  0  0  0
  196.3860  176.6830  135.3280 O   0  0  0  0  0  1  0  0  0  0  0  0
  198.2310  175.6800  134.4130 O   0  0  0  0  0  0  0  0  0  0  0  0
  197.1920  175.5720  135.1170 C   0  0  0  0  0  0  0  0  0  0  0  0
  198.9130  174.6750  137.1170 C   0  0  0  0  0  1  0  0  0  0  0  0
  197.5690  173.9700  137.0420 C   0  0  1  0  0  3  0  0  0  0  0  0
  196.7470  174.3690  138.2580 C   0  0  0  0  0  2  0  0  0  0  0  0
  197.4610  173.9450  139.5480 C   0  0  0  0  0  2  0  0  0  0  0  0
  197.9250  176.2910  139.5030 F   0  0  0  0  0  0  0  0  0  0  0  0
  198.0130  175.1620  140.3020 C   0  0  0  0  0  0  0  0  0  0  0  0
  199.3440  174.9430  140.6180 F   0  0  0  0  0  0  0  0  0  0  0  0
  197.2840  175.3680  141.4670 F   0  0  0  0  0  0  0  0  0  0  0  0
  1  2  2  0  0  0  0
  1  6  1  0  0  0  0
  2  3  1  0  0  0  0
  3  5  2  0  0  0  0
  4  5  1  0  0  0  0
  6  4  2  0  0  0  0
  7 20  2  0  0  0  0
  7 11  1  0  0  0  0
  8 16  1  0  0  0  0
  9 13  1  0  0  0  0
 10  9  1  0  0  0  0
 10 20  1  0  0  0  0
 11  3  1  6  0  0  0
 11 15  1  0  0  0  0
 12 10  1  0  0  0  0
 13 14  2  0  0  0  0
 14 18  1  0  0  0  0
 15 19  2  0  0  0  0
 17 14  1  0  0  0  0
 17  8  2  0  0  0  0
 18 28  1  0  0  0  0
 19  8  1  0  0  0  0
 20 17  1  0  0  0  0
 21 27  2  0  0  0  0
 23 32  1  0  0  0  0
 24 30  2  0  0  0  0
 24 29  1  0  0  0  0
 25 24  1  0  0  0  0
 26 25  1  0  0  0  0
 26 21  1  0  0  0  0
 27 29  1  0  0  0  0
 28 25  2  0  0  0  0
 29 22  1  1  0  0  0
 32 21  1  0  0  0  0
 32 31  1  0  0  0  0
 33 36  1  0  0  0  0
 33 40  1  0  0  0  0
 34 35  1  0  0  0  0
 34 39  1  0  0  0  0
 35 41  1  1  0  0  0
 35 37  1  0  0  0  0
 37 33  1  0  0  0  0
 37 38  1  1  0  0  0
 39  6  1  1  0  0  0
 39 33  1  0  0  0  0
 41 42  1  1  0  0  0
 41 44  1  0  0  0  0
 43 42  1  0  0  0  0
 44 47  1  6  0  0  0
 44 49  1  0  0  0  0
 46 47  2  0  0  0  0
 47 45  1  0  0  0  0
 49 48  1  6  0  0  0
 49 50  1  0  0  0  0
 50 51  1  0  0  0  0
 51 53  1  0  0  0  0
 52 53  1  0  0  0  0
 53 54  1  0  0  0  0
 53 55  1  0  0  0  0
M  END
>  <MODEL>
6

>  <REMARK>
 VINA RESULT:      -4.3      6.206     13.175
  Name = 
  11 active torsions:
  status: ('A' for Active; 'I' for Inactive)
    1  A    between atoms: C_8  and  C_35
    2  A    between atoms: C_13  and  C_34
    3  A    between atoms: C_16  and  C_34
    4  A    between atoms: C_23  and  C_34
    5  A    between atoms: C_23  and  C_50
    6  A    between atoms: C_23  and  C_53
    7  A    between atoms: C_28  and  N_44
    8  A    between atoms: C_37  and  C_39
    9  A    between atoms: C_37  and  C_47
   10  A    between atoms: C_41  and  C_46
   11  A    between atoms: C_47  and  C_53
                            x       y       z     vdW  Elec       q    Type
                         _______ _______ _______ _____ _____    ______ ____

>  <TORSDO>
F 11

$$$$
=
 OpenBabel10232408453D

 55 59  0  0  1  0  0  0  0  0999 V2000
  191.2620  173.9090  135.0160 C   0  0  0  0  0  3  0  0  0  0  0  0
  190.3880  174.7640  135.6960 C   0  0  0  0  0  3  0  0  0  0  0  0
  190.6980  175.2030  136.9900 C   0  0  0  0  0  0  0  0  0  0  0  0
  192.7670  173.9120  136.8930 C   0  0  0  0  0  3  0  0  0  0  0  0
  191.8910  174.7650  137.5810 C   0  0  0  0  0  3  0  0  0  0  0  0
  192.4690  173.4940  135.5970 C   0  0  0  0  0  0  0  0  0  0  0  0
  188.4810  176.2980  136.9960 C   0  0  0  0  0  3  0  0  0  0  0  0
  188.4850  178.4500  139.2060 C   0  0  0  0  0  0  0  0  0  0  0  0
  184.9350  176.9430  137.2950 C   0  0  0  0  0  2  0  0  0  0  0  0
  186.2260  177.0020  136.6270 N   0  0  0  0  0  0  0  0  0  0  0  0
  189.7710  176.1320  137.7280 C   0  0  2  0  0  3  0  0  0  0  0  0
  186.2690  176.7950  135.1850 C   0  0  0  0  0  1  0  0  0  0  0  0
  184.9460  177.6800  138.5590 N   0  0  0  0  0  0  0  0  0  0  0  0
  186.0080  178.0130  139.2550 C   0  0  0  0  0  0  0  0  0  0  0  0
  190.4220  177.4520  137.9230 C   0  0  0  0  0  3  0  0  0  0  0  0
  188.3650  179.2670  140.3280 O   0  0  0  0  0  1  0  0  0  0  0  0
  187.3900  177.7880  138.6960 C   0  0  0  0  0  0  0  0  0  0  0  0
  185.7750  178.7400  140.4620 N   0  0  0  0  0  2  0  0  0  0  0  0
  189.8410  178.4530  138.5970 C   0  0  0  0  0  3  0  0  0  0  0  0
  187.4290  177.0200  137.4180 C   0  0  0  0  0  0  0  0  0  0  0  0
  183.1110  178.9440  143.8210 C   0  0  0  0  0  0  0  0  0  0  0  0
  185.1600  177.6620  146.6020 C   0  0  0  0  0  1  0  0  0  0  0  0
  181.2320  179.3410  142.1870 C   0  0  0  0  0  1  0  0  0  0  0  0
  185.9040  178.1900  144.2060 C   0  0  0  0  0  0  0  0  0  0  0  0
  185.5570  178.6960  142.8780 C   0  0  0  0  0  0  0  0  0  0  0  0
  184.2290  179.9300  142.7950 S   0  0  0  0  0  0  0  0  0  0  0  0
  183.5670  178.3550  144.8910 N   0  0  0  0  0  0  0  0  0  0  0  0
  186.1340  178.2310  141.7600 C   0  0  0  0  0  3  0  0  0  0  0  0
  184.9440  178.5020  145.3380 C   0  0  1  0  0  3  0  0  0  0  0  0
  187.1280  177.6810  144.4520 C   0  0  0  0  0  2  0  0  0  0  0  0
  180.7560  178.4130  144.4510 C   0  0  0  0  0  1  0  0  0  0  0  0
  181.7330  178.7620  143.4260 N   0  0  0  0  0  0  0  0  0  0  0  0
  193.1580  171.0330  135.2390 C   0  0  0  0  0  0  0  0  0  0  0  0
  194.7040  172.8490  135.0410 O   0  0  0  0  0  0  0  0  0  0  0  0
  195.4590  171.6690  135.0270 C   0  0  2  0  0  3  0  0  0  0  0  0
  192.2590  170.4670  134.3460 F   0  0  0  0  0  0  0  0  0  0  0  0
  194.5320  170.4580  134.9890 C   0  0  1  0  0  3  0  0  0  0  0  0
  194.8770  169.4530  135.9050 O   0  0  0  0  0  1  0  0  0  0  0  0
  193.3550  172.5060  134.9120 C   0  0  2  0  0  3  0  0  0  0  0  0
  192.7390  170.8370  136.5590 F   0  0  0  0  0  0  0  0  0  0  0  0
  196.5600  171.7010  136.1120 C   0  0  2  0  0  3  0  0  0  0  0  0
  196.2150  172.4360  137.4250 C   0  0  0  0  0  2  0  0  0  0  0  0
  195.3590  171.6730  138.2360 O   0  0  0  0  0  1  0  0  0  0  0  0
  197.9680  171.9710  135.5370 C   0  0  2  0  0  3  0  0  0  0  0  0
  200.1650  171.4040  136.5950 O   0  0  0  0  0  1  0  0  0  0  0  0
  198.6330  169.7540  136.1730 O   0  0  0  0  0  0  0  0  0  0  0  0
  198.9310  170.9770  136.1220 C   0  0  0  0  0  0  0  0  0  0  0  0
  197.3710  174.4600  135.4490 C   0  0  0  0  0  1  0  0  0  0  0  0
  198.4580  173.4330  135.7220 C   0  0  1  0  0  3  0  0  0  0  0  0
  199.0100  173.6750  137.1190 C   0  0  0  0  0  2  0  0  0  0  0  0
  198.5140  175.0210  137.6630 C   0  0  0  0  0  2  0  0  0  0  0  0
  197.3100  174.2850  139.5940 F   0  0  0  0  0  0  0  0  0  0  0  0
  198.4260  175.0020  139.1950 C   0  0  0  0  0  0  0  0  0  0  0  0
  198.3140  176.2990  139.6650 F   0  0  0  0  0  0  0  0  0  0  0  0
  199.5650  174.4080  139.7260 F   0  0  0  0  0  0  0  0  0  0  0  0
  1  6  2  0  0  0  0
  1  2  1  0  0  0  0
  2  3  2  0  0  0  0
  3  5  1  0  0  0  0
  4  5  2  0  0  0  0
  6  4  1  0  0  0  0
  7 20  2  0  0  0  0
  7 11  1  0  0  0  0
  8 16  1  0  0  0  0
  9 13  1  0  0  0  0
 10  9  1  0  0  0  0
 10 20  1  0  0  0  0
 11  3  1  6  0  0  0
 11 15  1  0  0  0  0
 12 10  1  0  0  0  0
 13 14  2  0  0  0  0
 14 18  1  0  0  0  0
 15 19  2  0  0  0  0
 17  8  2  0  0  0  0
 17 14  1  0  0  0  0
 18 28  1  0  0  0  0
 19  8  1  0  0  0  0
 20 17  1  0  0  0  0
 21 27  2  0  0  0  0
 23 32  1  0  0  0  0
 24 30  2  0  0  0  0
 24 29  1  0  0  0  0
 25 24  1  0  0  0  0
 26 25  1  0  0  0  0
 26 21  1  0  0  0  0
 27 29  1  0  0  0  0
 28 25  2  0  0  0  0
 29 22  1  1  0  0  0
 32 21  1  0  0  0  0
 32 31  1  0  0  0  0
 33 40  1  0  0  0  0
 35 34  1  0  0  0  0
 35 41  1  1  0  0  0
 36 33  1  0  0  0  0
 37 35  1  0  0  0  0
 37 33  1  0  0  0  0
 37 38  1  1  0  0  0
 39 34  1  0  0  0  0
 39 33  1  0  0  0  0
 39  6  1  1  0  0  0
 41 42  1  1  0  0  0
 42 43  1  0  0  0  0
 44 49  1  0  0  0  0
 44 41  1  0  0  0  0
 44 47  1  1  0  0  0
 47 46  2  0  0  0  0
 47 45  1  0  0  0  0
 49 48  1  1  0  0  0
 49 50  1  0  0  0  0
 50 51  1  0  0  0  0
 51 53  1  0  0  0  0
 53 52  1  0  0  0  0
 53 54  1  0  0  0  0
 53 55  1  0  0  0  0
M  END
>  <MODEL>
7

>  <REMARK>
 VINA RESULT:      -4.2      6.152     13.334
  Name = 
  11 active torsions:
  status: ('A' for Active; 'I' for Inactive)
    1  A    between atoms: C_8  and  C_35
    2  A    between atoms: C_13  and  C_34
    3  A    between atoms: C_16  and  C_34
    4  A    between atoms: C_23  and  C_34
    5  A    between atoms: C_23  and  C_50
    6  A    between atoms: C_23  and  C_53
    7  A    between atoms: C_28  and  N_44
    8  A    between atoms: C_37  and  C_39
    9  A    between atoms: C_37  and  C_47
   10  A    between atoms: C_41  and  C_46
   11  A    between atoms: C_47  and  C_53
                            x       y       z     vdW  Elec       q    Type
                         _______ _______ _______ _____ _____    ______ ____

>  <TORSDO>
F 11

$$$$
=
 OpenBabel10232408453D

 55 59  0  0  1  0  0  0  0  0999 V2000
  192.6830  175.8730  137.6100 C   0  0  0  0  0  3  0  0  0  0  0  0
  191.3050  176.0330  137.4250 C   0  0  0  0  0  3  0  0  0  0  0  0
  190.7580  175.9920  136.1360 C   0  0  0  0  0  0  0  0  0  0  0  0
  192.9980  175.6260  135.2380 C   0  0  0  0  0  3  0  0  0  0  0  0
  191.6170  175.7920  135.0470 C   0  0  0  0  0  3  0  0  0  0  0  0
  193.5380  175.6440  136.5210 C   0  0  0  0  0  0  0  0  0  0  0  0
  188.6160  174.8280  135.7180 C   0  0  0  0  0  3  0  0  0  0  0  0
  186.5010  176.9540  134.9950 C   0  0  0  0  0  0  0  0  0  0  0  0
  185.5820  172.9030  136.1230 C   0  0  0  0  0  2  0  0  0  0  0  0
  186.8190  173.2740  135.4530 N   0  0  0  0  0  0  0  0  0  0  0  0
  189.2760  176.1510  135.9260 C   0  0  2  0  0  3  0  0  0  0  0  0
  187.6560  172.2120  134.9080 C   0  0  0  0  0  1  0  0  0  0  0  0
  184.6170  174.0020  136.1220 N   0  0  0  0  0  0  0  0  0  0  0  0
  184.8870  175.2740  135.9450 C   0  0  0  0  0  0  0  0  0  0  0  0
  189.0180  177.0400  134.7660 C   0  0  0  0  0  3  0  0  0  0  0  0
  185.4710  177.8850  134.8870 O   0  0  0  0  0  1  0  0  0  0  0  0
  186.2740  175.7120  135.5480 C   0  0  0  0  0  0  0  0  0  0  0  0
  183.7770  176.1710  135.9800 N   0  0  0  0  0  2  0  0  0  0  0  0
  187.7830  177.3960  134.3870 C   0  0  0  0  0  3  0  0  0  0  0  0
  187.2980  174.6280  135.5560 C   0  0  0  0  0  0  0  0  0  0  0  0
  180.8430  176.0140  139.1100 C   0  0  0  0  0  0  0  0  0  0  0  0
  181.2240  179.2710  140.7890 C   0  0  0  0  0  1  0  0  0  0  0  0
  180.6190  173.5450  138.6470 C   0  0  0  0  0  1  0  0  0  0  0  0
  182.3410  178.4710  138.6240 C   0  0  0  0  0  0  0  0  0  0  0  0
  182.4920  177.4210  137.6160 C   0  0  0  0  0  0  0  0  0  0  0  0
  181.0630  176.3380  137.3420 S   0  0  0  0  0  0  0  0  0  0  0  0
  180.9290  176.9960  139.9620 N   0  0  0  0  0  0  0  0  0  0  0  0
  183.6480  177.2130  136.9670 C   0  0  0  0  0  3  0  0  0  0  0  0
  181.1420  178.3740  139.5480 C   0  0  1  0  0  3  0  0  0  0  0  0
  183.0940  179.5880  138.5750 C   0  0  0  0  0  2  0  0  0  0  0  0
  179.9820  174.4720  140.8720 C   0  0  0  0  0  1  0  0  0  0  0  0
  180.6300  174.6630  139.5790 N   0  0  0  0  0  0  0  0  0  0  0  0
  195.8990  176.1850  135.6310 C   0  0  0  0  0  0  0  0  0  0  0  0
  195.4360  174.2630  136.9780 O   0  0  0  0  0  0  0  0  0  0  0  0
  196.7370  174.1080  136.4810 C   0  0  2  0  0  3  0  0  0  0  0  0
  196.1790  177.5060  135.9500 F   0  0  0  0  0  0  0  0  0  0  0  0
  197.1660  175.3710  135.7400 C   0  0  1  0  0  3  0  0  0  0  0  0
  197.7620  175.1210  134.4960 O   0  0  0  0  0  1  0  0  0  0  0  0
  195.0180  175.5690  136.7080 C   0  0  2  0  0  3  0  0  0  0  0  0
  195.3230  176.0910  134.3590 F   0  0  0  0  0  0  0  0  0  0  0  0
  196.8950  172.7550  135.7510 C   0  0  2  0  0  3  0  0  0  0  0  0
  195.6300  172.1810  135.0760 C   0  0  0  0  0  2  0  0  0  0  0  0
  194.5530  172.1090  135.9720 O   0  0  0  0  0  1  0  0  0  0  0  0
  197.7610  171.7420  136.5330 C   0  0  2  0  0  3  0  0  0  0  0  0
  199.6830  172.3660  138.0110 O   0  0  0  0  0  1  0  0  0  0  0  0
  199.7740  172.8000  135.7640 O   0  0  0  0  0  0  0  0  0  0  0  0
  199.1290  172.3280  136.7380 C   0  0  0  0  0  0  0  0  0  0  0  0
  198.9970  169.5030  136.3850 C   0  0  0  0  0  1  0  0  0  0  0  0
  197.8240  170.3320  135.8870 C   0  0  1  0  0  3  0  0  0  0  0  0
  196.5440  169.5430  136.1190 C   0  0  0  0  0  2  0  0  0  0  0  0
  196.4940  169.0190  137.5600 C   0  0  0  0  0  2  0  0  0  0  0  0
  195.1790  168.9910  139.5580 F   0  0  0  0  0  0  0  0  0  0  0  0
  195.3020  169.6100  138.3240 C   0  0  0  0  0  0  0  0  0  0  0  0
  194.1400  169.3950  137.6010 F   0  0  0  0  0  0  0  0  0  0  0  0
  195.4900  170.9740  138.5130 F   0  0  0  0  0  0  0  0  0  0  0  0
  2  1  1  0  0  0  0
  3  2  2  0  0  0  0
  4  6  1  0  0  0  0
  5  4  2  0  0  0  0
  5  3  1  0  0  0  0
  6  1  2  0  0  0  0
  7 11  1  0  0  0  0
  8 17  2  0  0  0  0
 10 20  1  0  0  0  0
 10  9  1  0  0  0  0
 11  3  1  6  0  0  0
 12 10  1  0  0  0  0
 13  9  1  0  0  0  0
 14 18  1  0  0  0  0
 14 13  2  0  0  0  0
 15 11  1  0  0  0  0
 16  8  1  0  0  0  0
 17 20  1  0  0  0  0
 17 14  1  0  0  0  0
 18 28  1  0  0  0  0
 19 15  2  0  0  0  0
 19  8  1  0  0  0  0
 20  7  2  0  0  0  0
 21 32  1  0  0  0  0
 21 27  2  0  0  0  0
 23 32  1  0  0  0  0
 24 29  1  0  0  0  0
 25 24  1  0  0  0  0
 26 25  1  0  0  0  0
 26 21  1  0  0  0  0
 28 25  2  0  0  0  0
 29 27  1  0  0  0  0
 29 22  1  1  0  0  0
 30 24  2  0  0  0  0
 32 31  1  0  0  0  0
 33 37  1  0  0  0  0
 33 36  1  0  0  0  0
 33 39  1  0  0  0  0
 35 41  1  6  0  0  0
 35 34  1  0  0  0  0
 37 38  1  6  0  0  0
 37 35  1  0  0  0  0
 39  6  1  6  0  0  0
 39 34  1  0  0  0  0
 40 33  1  0  0  0  0
 41 42  1  1  0  0  0
 41 44  1  0  0  0  0
 42 43  1  0  0  0  0
 44 47  1  6  0  0  0
 46 47  2  0  0  0  0
 47 45  1  0  0  0  0
 49 50  1  0  0  0  0
 49 48  1  1  0  0  0
 49 44  1  0  0  0  0
 50 51  1  0  0  0  0
 51 53  1  0  0  0  0
 53 55  1  0  0  0  0
 53 52  1  0  0  0  0
 54 53  1  0  0  0  0
M  END
>  <MODEL>
8

>  <REMARK>
 VINA RESULT:      -3.9      5.731     13.760
  Name = 
  11 active torsions:
  status: ('A' for Active; 'I' for Inactive)
    1  A    between atoms: C_8  and  C_35
    2  A    between atoms: C_13  and  C_34
    3  A    between atoms: C_16  and  C_34
    4  A    between atoms: C_23  and  C_34
    5  A    between atoms: C_23  and  C_50
    6  A    between atoms: C_23  and  C_53
    7  A    between atoms: C_28  and  N_44
    8  A    between atoms: C_37  and  C_39
    9  A    between atoms: C_37  and  C_47
   10  A    between atoms: C_41  and  C_46
   11  A    between atoms: C_47  and  C_53
                            x       y       z     vdW  Elec       q    Type
                         _______ _______ _______ _____ _____    ______ ____

>  <TORSDO>
F 11

$$$$
=
 OpenBabel10232408453D

 55 59  0  0  1  0  0  0  0  0999 V2000
  187.0040  178.3790  140.2530 C   0  0  0  0  0  3  0  0  0  0  0  0
  188.0870  177.6200  139.7960 C   0  0  0  0  0  3  0  0  0  0  0  0
  188.1220  177.1710  138.4690 C   0  0  0  0  0  0  0  0  0  0  0  0
  185.9720  178.2600  138.0840 C   0  0  0  0  0  3  0  0  0  0  0  0
  187.0530  177.4950  137.6220 C   0  0  0  0  0  3  0  0  0  0  0  0
  185.9490  178.7260  139.3960 C   0  0  0  0  0  0  0  0  0  0  0  0
  188.8260  175.1100  137.2980 C   0  0  0  0  0  3  0  0  0  0  0  0
  191.8790  174.8220  137.6270 C   0  0  0  0  0  0  0  0  0  0  0  0
  189.5320  172.6390  134.7540 C   0  0  0  0  0  2  0  0  0  0  0  0
  188.9980  173.0910  136.0290 N   0  0  0  0  0  0  0  0  0  0  0  0
  189.2870  176.3650  137.9630 C   0  0  2  0  0  3  0  0  0  0  0  0
  187.7110  172.5630  136.4670 C   0  0  0  0  0  1  0  0  0  0  0  0
  190.9860  172.7870  134.6950 N   0  0  0  0  0  0  0  0  0  0  0  0
  191.7190  173.5710  135.4490 C   0  0  0  0  0  0  0  0  0  0  0  0
  190.2100  176.0430  139.0810 C   0  0  0  0  0  3  0  0  0  0  0  0
  193.2700  174.7710  137.5560 O   0  0  0  0  0  1  0  0  0  0  0  0
  191.1030  174.3090  136.6110 C   0  0  0  0  0  0  0  0  0  0  0  0
  193.1270  173.5460  135.2140 N   0  0  0  0  0  2  0  0  0  0  0  0
  191.3580  175.3780  138.9030 C   0  0  0  0  0  3  0  0  0  0  0  0
  189.6170  174.2050  136.6990 C   0  0  0  0  0  0  0  0  0  0  0  0
  197.4100  173.7470  135.4200 C   0  0  0  0  0  0  0  0  0  0  0  0
  198.1460  177.1940  134.3460 C   0  0  0  0  0  1  0  0  0  0  0  0
  197.4230  171.2370  135.6630 C   0  0  0  0  0  1  0  0  0  0  0  0
  195.8560  176.1420  134.8160 C   0  0  0  0  0  0  0  0  0  0  0  0
  195.0870  174.9760  135.2540 C   0  0  0  0  0  0  0  0  0  0  0  0
  195.9040  173.8490  136.4180 S   0  0  0  0  0  0  0  0  0  0  0  0
  197.9120  174.8290  134.8950 N   0  0  0  0  0  0  0  0  0  0  0  0
  193.8650  174.7020  134.7730 C   0  0  0  0  0  3  0  0  0  0  0  0
  197.3400  176.1480  135.1250 C   0  0  1  0  0  3  0  0  0  0  0  0
  195.2320  177.2530  134.3760 C   0  0  0  0  0  2  0  0  0  0  0  0
  199.4350  172.4280  134.8020 C   0  0  0  0  0  1  0  0  0  0  0  0
  198.0220  172.4640  135.1570 N   0  0  0  0  0  0  0  0  0  0  0  0
  183.8250  178.7080  140.8620 C   0  0  0  0  0  0  0  0  0  0  0  0
  184.0060  180.0150  138.8660 O   0  0  0  0  0  0  0  0  0  0  0  0
  182.6610  180.0550  139.2580 C   0  0  2  0  0  3  0  0  0  0  0  0
  184.2130  178.9430  142.1730 F   0  0  0  0  0  0  0  0  0  0  0  0
  182.4930  179.3760  140.6140 C   0  0  1  0  0  3  0  0  0  0  0  0
  181.4160  178.4790  140.6670 O   0  0  0  0  0  1  0  0  0  0  0  0
  184.7480  179.4520  139.9080 C   0  0  2  0  0  3  0  0  0  0  0  0
  183.7830  177.3360  140.5940 F   0  0  0  0  0  0  0  0  0  0  0  0
  181.7330  179.6060  138.1070 C   0  0  2  0  0  3  0  0  0  0  0  0
  180.2260  179.8940  138.2800 C   0  0  0  0  0  2  0  0  0  0  0  0
  179.9870  181.2440  138.5790 O   0  0  0  0  0  1  0  0  0  0  0  0
  182.0950  178.2130  137.5460 C   0  0  2  0  0  3  0  0  0  0  0  0
  183.0860  177.4530  135.3770 O   0  0  0  0  0  0  0  0  0  0  0  0
  181.5680  179.1680  135.4080 O   0  0  0  0  0  1  0  0  0  0  0  0
  182.2250  178.3070  136.0530 C   0  0  0  0  0  0  0  0  0  0  0  0
  180.0410  176.8090  136.9360 C   0  0  0  0  0  1  0  0  0  0  0  0
  181.1160  177.0860  137.9740 C   0  0  1  0  0  3  0  0  0  0  0  0
  181.8440  175.7840  138.2740 C   0  0  0  0  0  2  0  0  0  0  0  0
  183.2400  175.7940  137.6370 C   0  0  0  0  0  2  0  0  0  0  0  0
  182.3120  173.9570  136.4190 F   0  0  0  0  0  0  0  0  0  0  0  0
  183.5080  174.4950  136.8670 C   0  0  0  0  0  0  0  0  0  0  0  0
  184.1200  173.5800  137.7070 F   0  0  0  0  0  0  0  0  0  0  0  0
  184.3310  174.7520  135.7770 F   0  0  0  0  0  0  0  0  0  0  0  0
  2  1  1  0  0  0  0
  3  2  2  0  0  0  0
  4  6  1  0  0  0  0
  5  4  2  0  0  0  0
  5  3  1  0  0  0  0
  6  1  2  0  0  0  0
  7 11  1  0  0  0  0
  8 19  1  0  0  0  0
  9 10  1  0  0  0  0
 10 12  1  0  0  0  0
 10 20  1  0  0  0  0
 11  3  1  1  0  0  0
 11 15  1  0  0  0  0
 13  9  1  0  0  0  0
 13 14  2  0  0  0  0
 14 17  1  0  0  0  0
 16  8  1  0  0  0  0
 17 20  1  0  0  0  0
 17  8  2  0  0  0  0
 18 14  1  0  0  0  0
 19 15  2  0  0  0  0
 20  7  2  0  0  0  0
 21 26  1  0  0  0  0
 24 29  1  0  0  0  0
 24 25  1  0  0  0  0
 25 26  1  0  0  0  0
 27 29  1  0  0  0  0
 27 21  2  0  0  0  0
 28 18  1  0  0  0  0
 28 25  2  0  0  0  0
 29 22  1  6  0  0  0
 30 24  2  0  0  0  0
 31 32  1  0  0  0  0
 32 21  1  0  0  0  0
 32 23  1  0  0  0  0
 33 36  1  0  0  0  0
 34 35  1  0  0  0  0
 34 39  1  0  0  0  0
 35 41  1  6  0  0  0
 35 37  1  0  0  0  0
 37 38  1  6  0  0  0
 37 33  1  0  0  0  0
 39  6  1  6  0  0  0
 39 33  1  0  0  0  0
 40 33  1  0  0  0  0
 41 42  1  1  0  0  0
 42 43  1  0  0  0  0
 44 47  1  6  0  0  0
 44 49  1  0  0  0  0
 44 41  1  0  0  0  0
 45 47  2  0  0  0  0
 46 47  1  0  0  0  0
 49 48  1  6  0  0  0
 49 50  1  0  0  0  0
 51 50  1  0  0  0  0
 52 53  1  0  0  0  0
 53 51  1  0  0  0  0
 53 54  1  0  0  0  0
 55 53  1  0  0  0  0
M  END
>  <MODEL>
9

>  <REMARK>
 VINA RESULT:      -3.6      2.254      5.003
  Name = 
  11 active torsions:
  status: ('A' for Active; 'I' for Inactive)
    1  A    between atoms: C_8  and  C_35
    2  A    between atoms: C_13  and  C_34
    3  A    between atoms: C_16  and  C_34
    4  A    between atoms: C_23  and  C_34
    5  A    between atoms: C_23  and  C_50
    6  A    between atoms: C_23  and  C_53
    7  A    between atoms: C_28  and  N_44
    8  A    between atoms: C_37  and  C_39
    9  A    between atoms: C_37  and  C_47
   10  A    between atoms: C_41  and  C_46
   11  A    between atoms: C_47  and  C_53
                            x       y       z     vdW  Elec       q    Type
                         _______ _______ _______ _____ _____    ______ ____

>  <TORSDO>
F 11

$$$$
