=
 OpenBabel10222421553D

 40 45  0  0  1  0  0  0  0  0999 V2000
  192.2820  175.3830  137.5890 N   0  0  0  0  0  0  0  0  0  0  0  0
  193.3800  176.9290  139.1970 C   0  0  0  0  0  3  0  0  0  0  0  0
  190.1080  177.9290  138.8330 C   0  0  0  0  0  2  0  0  0  0  0  0
  190.9150  176.8640  139.6230 C   0  0  2  0  0  3  0  0  0  0  0  0
  188.2920  176.1190  136.7650 C   0  0  2  0  0  3  0  0  0  0  0  0
  190.4230  175.9800  141.9690 N   0  0  0  0  0  0  0  0  0  0  0  0
  190.2780  175.7930  135.0060 O   0  0  0  0  0  1  0  0  0  0  0  0
  192.3250  174.4710  136.5730 C   0  0  0  0  0  0  0  0  0  0  0  0
  191.1190  172.5190  135.5760 C   0  0  0  0  0  1  0  0  0  0  0  0
  187.6140  178.6470  139.0540 C   0  0  0  0  0  2  0  0  0  0  0  0
  188.0630  177.4080  141.7960 N   0  0  0  0  0  0  0  0  0  0  0  0
  194.6520  175.6310  137.5340 C   0  0  0  0  0  3  0  0  0  0  0  0
  189.9330  174.6970  135.8140 C   0  0  2  0  0  3  0  0  0  0  0  0
  189.3030  175.1210  137.0630 N   0  0  0  0  0  2  0  0  0  0  0  0
  190.1430  176.7480  140.8870 C   0  0  0  0  0  0  0  0  0  0  0  0
  187.5130  176.4140  137.9770 N   0  0  2  0  0  0  0  0  0  0  0  0
  188.8800  178.1630  139.6030 N   0  0  0  0  0  0  0  0  0  0  0  0
  193.4100  175.9620  138.0840 C   0  0  0  0  0  0  0  0  0  0  0  0
  186.9600  175.5420  136.8980 C   0  0  1  0  0  3  0  0  0  0  0  0
  187.1520  177.8250  137.8510 C   0  0  0  0  0  2  0  0  0  0  0  0
  193.5590  174.1300  136.0020 C   0  0  0  0  0  3  0  0  0  0  0  0
  192.3080  177.3310  139.8820 C   0  0  0  0  0  3  0  0  0  0  0  0
  187.3770  176.6150  143.9670 N   0  0  0  0  0  1  0  0  0  0  0  0
  191.1160  173.8850  136.0720 N   0  0  0  0  0  0  0  0  0  0  0  0
  194.7380  174.7110  136.4800 C   0  0  0  0  0  0  0  0  0  0  0  0
  188.9830  177.4430  140.8040 C   0  0  0  0  0  0  0  0  0  0  0  0
  189.5290  175.9400  143.0010 C   0  0  0  0  0  3  0  0  0  0  0  0
  188.3220  176.6650  142.9080 C   0  0  0  0  0  0  0  0  0  0  0  0
  196.9700  175.4610  135.5920 C   0  0  0  0  0  2  0  0  0  0  0  0
  198.3790  174.8730  135.5170 C   0  0  0  0  0  2  0  0  0  0  0  0
  198.3980  173.8130  134.5890 O   0  0  0  0  0  0  0  0  0  0  0  0
  196.0120  174.3900  135.8890 N   0  0  0  0  0  0  0  0  0  0  0  0
  197.6920  172.7530  135.1910 C   0  0  0  0  0  2  0  0  0  0  0  0
  196.2020  173.0910  135.2380 C   0  0  0  0  0  2  0  0  0  0  0  0
  185.9890  176.2320  135.9260 C   0  0  0  0  0  2  0  0  0  0  0  0
  184.6730  175.4710  135.8720 C   0  0  0  0  0  2  0  0  0  0  0  0
  184.0510  175.3650  137.2600 C   0  0  0  0  0  2  0  0  0  0  0  0
  183.4550  173.9880  137.4530 C   0  0  0  0  0  2  0  0  0  0  0  0
  184.4810  173.0640  137.6320 O   0  0  0  0  0  0  0  0  0  0  0  0
  184.0050  171.8860  137.0380 C   0  0  0  0  0  1  0  0  0  0  0  0
  1 18  1  0  0  0  0
  2 22  2  0  0  0  0
  3 17  1  0  0  0  0
  4  3  1  6  0  0  0
  4 22  1  0  0  0  0
  4 15  1  0  0  0  0
  5 19  1  0  0  0  0
  5 14  1  1  0  0  0
  5 16  1  0  0  0  0
  6 27  1  0  0  0  0
  8  1  2  0  0  0  0
  9 24  1  0  0  0  0
 10 17  1  0  0  0  0
 11 28  1  0  0  0  0
 12 18  2  0  0  0  0
 13  7  1  1  0  0  0
 13 24  1  0  0  0  0
 13 14  1  0  0  0  0
 15  6  2  0  0  0  0
 16 20  1  6  0  0  0
 17 26  1  0  0  0  0
 18  2  1  0  0  0  0
 19 35  1  6  0  0  0
 19 16  1  0  0  0  0
 20 10  1  0  0  0  0
 21 25  2  0  0  0  0
 21  8  1  0  0  0  0
 24  8  1  0  0  0  0
 25 12  1  0  0  0  0
 26 15  1  0  0  0  0
 26 11  2  0  0  0  0
 28 27  2  0  0  0  0
 28 23  1  0  0  0  0
 29 32  1  0  0  0  0
 30 29  1  0  0  0  0
 31 33  1  0  0  0  0
 31 30  1  0  0  0  0
 32 25  1  0  0  0  0
 33 34  1  0  0  0  0
 34 32  1  0  0  0  0
 36 35  1  0  0  0  0
 36 37  1  0  0  0  0
 37 38  1  0  0  0  0
 38 39  1  0  0  0  0
 40 39  1  0  0  0  0
M  END
>  <MODEL>
1

>  <REMARK>
 VINA RESULT:      -6.2      0.000      0.000
  Name = 
  6 active torsions:
  status: ('A' for Active; 'I' for Inactive)
    1  A    between atoms: C_4  and  C_8
    2  A    between atoms: C_4  and  C_30
    3  A    between atoms: C_8  and  C_25
    4  A    between atoms: C_24  and  C_30
    5  A    between atoms: C_25  and  O_27
    6  A    between atoms: N_32  and  C_35
                            x       y       z     vdW  Elec       q    Type
                         _______ _______ _______ _____ _____    ______ ____

>  <TORSDO>
F 6

$$$$
=
 OpenBabel10222421553D

 40 45  0  0  1  0  0  0  0  0999 V2000
  186.8790  178.0480  139.4760 N   0  0  0  0  0  0  0  0  0  0  0  0
  185.5280  177.3540  137.5080 C   0  0  0  0  0  3  0  0  0  0  0  0
  183.4140  177.5870  140.2130 C   0  0  0  0  0  2  0  0  0  0  0  0
  184.0720  178.5300  139.1700 C   0  0  2  0  0  3  0  0  0  0  0  0
  184.8290  178.4910  143.0460 C   0  0  2  0  0  3  0  0  0  0  0  0
  183.0740  180.6530  138.1590 N   0  0  0  0  0  0  0  0  0  0  0  0
  187.0460  177.0610  142.6150 O   0  0  0  0  0  1  0  0  0  0  0  0
  188.0660  178.1700  140.1410 C   0  0  0  0  0  0  0  0  0  0  0  0
  189.2810  179.5420  141.8430 C   0  0  0  0  0  1  0  0  0  0  0  0
  181.5510  178.0690  141.9680 C   0  0  0  0  0  2  0  0  0  0  0  0
  181.0400  180.3350  140.0030 N   0  0  0  0  0  0  0  0  0  0  0  0
  187.9580  176.9700  137.6440 C   0  0  0  0  0  3  0  0  0  0  0  0
  187.1270  178.4550  142.4610 C   0  0  2  0  0  3  0  0  0  0  0  0
  185.8260  179.0420  142.1450 N   0  0  0  0  0  2  0  0  0  0  0  0
  183.0410  179.5850  138.9940 C   0  0  0  0  0  0  0  0  0  0  0  0
  183.5570  179.2100  142.8790 N   0  0  2  0  0  0  0  0  0  0  0  0
  182.2020  178.2750  140.6740 N   0  0  0  0  0  0  0  0  0  0  0  0
  186.7990  177.4700  138.2460 C   0  0  0  0  0  0  0  0  0  0  0  0
  184.4500  179.4840  144.0440 C   0  0  1  0  0  3  0  0  0  0  0  0
  182.5280  178.2050  143.1360 C   0  0  0  0  0  2  0  0  0  0  0  0
  189.2390  177.6700  139.5580 C   0  0  0  0  0  3  0  0  0  0  0  0
  184.3340  177.8120  137.8880 C   0  0  0  0  0  3  0  0  0  0  0  0
  179.9820  182.3650  139.2450 N   0  0  0  0  0  1  0  0  0  0  0  0
  188.1120  178.7790  141.4380 N   0  0  0  0  0  0  0  0  0  0  0  0
  189.1930  177.0620  138.3000 C   0  0  0  0  0  0  0  0  0  0  0  0
  182.0450  179.4350  139.8990 C   0  0  0  0  0  0  0  0  0  0  0  0
  182.0630  181.5690  138.2170 C   0  0  0  0  0  3  0  0  0  0  0  0
  181.0290  181.4080  139.1630 C   0  0  0  0  0  0  0  0  0  0  0  0
  190.2920  175.7750  136.4370 C   0  0  0  0  0  2  0  0  0  0  0  0
  191.6490  175.7980  135.7350 C   0  0  0  0  0  2  0  0  0  0  0  0
  192.6420  175.3190  136.6130 O   0  0  0  0  0  0  0  0  0  0  0  0
  190.3840  176.5200  137.6970 N   0  0  0  0  0  0  0  0  0  0  0  0
  192.8210  176.3220  137.5840 C   0  0  0  0  0  2  0  0  0  0  0  0
  191.6000  176.3710  138.5020 C   0  0  0  0  0  2  0  0  0  0  0  0
  184.0540  178.7860  145.3550 C   0  0  0  0  0  2  0  0  0  0  0  0
  185.2100  178.8360  146.3440 C   0  0  0  0  0  2  0  0  0  0  0  0
  186.1820  177.6870  146.1010 C   0  0  0  0  0  2  0  0  0  0  0  0
  187.5720  178.0850  146.5470 C   0  0  0  0  0  2  0  0  0  0  0  0
  188.4560  177.0430  146.2820 O   0  0  0  0  0  0  0  0  0  0  0  0
  189.3470  177.5650  145.3350 C   0  0  0  0  0  1  0  0  0  0  0  0
  1  8  1  0  0  0  0
  2 22  2  0  0  0  0
  2 18  1  0  0  0  0
  3 17  1  0  0  0  0
  4 22  1  6  0  0  0
  4  3  1  0  0  0  0
  5 14  1  6  0  0  0
  5 19  1  0  0  0  0
  6 27  2  0  0  0  0
  6 15  1  0  0  0  0
  8 24  1  0  0  0  0
 10 20  1  0  0  0  0
 12 18  1  0  0  0  0
 12 25  2  0  0  0  0
 13  7  1  6  0  0  0
 14 13  1  0  0  0  0
 15  4  1  0  0  0  0
 15 26  2  0  0  0  0
 16  5  1  0  0  0  0
 16 20  1  1  0  0  0
 16 19  1  0  0  0  0
 17 10  1  0  0  0  0
 18  1  2  0  0  0  0
 19 35  1  1  0  0  0
 21  8  2  0  0  0  0
 24  9  1  0  0  0  0
 24 13  1  0  0  0  0
 25 21  1  0  0  0  0
 26 11  1  0  0  0  0
 26 17  1  0  0  0  0
 27 28  1  0  0  0  0
 28 23  1  0  0  0  0
 28 11  2  0  0  0  0
 29 32  1  0  0  0  0
 30 29  1  0  0  0  0
 30 31  1  0  0  0  0
 31 33  1  0  0  0  0
 32 25  1  0  0  0  0
 32 34  1  0  0  0  0
 33 34  1  0  0  0  0
 35 36  1  0  0  0  0
 37 36  1  0  0  0  0
 37 38  1  0  0  0  0
 39 38  1  0  0  0  0
 40 39  1  0  0  0  0
M  END
>  <MODEL>
2

>  <REMARK>
 VINA RESULT:      -5.7      4.568      8.130
  Name = 
  6 active torsions:
  status: ('A' for Active; 'I' for Inactive)
    1  A    between atoms: C_4  and  C_8
    2  A    between atoms: C_4  and  C_30
    3  A    between atoms: C_8  and  C_25
    4  A    between atoms: C_24  and  C_30
    5  A    between atoms: C_25  and  O_27
    6  A    between atoms: N_32  and  C_35
                            x       y       z     vdW  Elec       q    Type
                         _______ _______ _______ _____ _____    ______ ____

>  <TORSDO>
F 6

$$$$
=
 OpenBabel10222421553D

 40 45  0  0  1  0  0  0  0  0999 V2000
  186.0560  178.2140  139.2940 N   0  0  0  0  0  0  0  0  0  0  0  0
  186.1280  178.3230  136.8110 C   0  0  0  0  0  3  0  0  0  0  0  0
  189.3560  177.9720  137.9500 C   0  0  0  0  0  2  0  0  0  0  0  0
  188.1210  177.0750  137.6700 C   0  0  2  0  0  3  0  0  0  0  0  0
  189.6960  177.7880  141.2210 C   0  0  2  0  0  3  0  0  0  0  0  0
  188.1210  174.6670  136.8140 N   0  0  0  0  0  0  0  0  0  0  0  0
  187.8060  179.6140  141.7100 O   0  0  0  0  0  1  0  0  0  0  0  0
  185.4470  178.4510  140.4940 C   0  0  0  0  0  0  0  0  0  0  0  0
  185.2580  177.6240  142.8470 C   0  0  0  0  0  1  0  0  0  0  0  0
  191.8140  177.3130  138.5050 C   0  0  0  0  0  2  0  0  0  0  0  0
  190.8610  174.7540  137.1640 N   0  0  0  0  0  0  0  0  0  0  0  0
  184.2640  179.2600  138.1210 C   0  0  0  0  0  3  0  0  0  0  0  0
  187.4930  178.2670  141.9540 C   0  0  2  0  0  3  0  0  0  0  0  0
  188.3090  177.3640  141.1440 N   0  0  0  0  0  2  0  0  0  0  0  0
  188.7420  175.8000  137.2270 C   0  0  0  0  0  0  0  0  0  0  0  0
  190.5580  176.7850  140.5780 N   0  0  2  0  0  0  0  0  0  0  0  0
  190.5280  177.0930  137.8450 N   0  0  0  0  0  0  0  0  0  0  0  0
  185.4930  178.5940  138.1140 C   0  0  0  0  0  0  0  0  0  0  0  0
  190.4550  176.8740  142.0650 C   0  0  1  0  0  3  0  0  0  0  0  0
  191.6600  177.5550  140.0070 C   0  0  0  0  0  2  0  0  0  0  0  0
  184.2170  179.1240  140.5240 C   0  0  0  0  0  3  0  0  0  0  0  0
  187.2660  177.6600  136.5950 C   0  0  0  0  0  3  0  0  0  0  0  0
  191.0630  172.4560  136.4610 N   0  0  0  0  0  1  0  0  0  0  0  0
  186.0720  178.0430  141.7180 N   0  0  0  0  0  0  0  0  0  0  0  0
  183.6140  179.5370  139.3320 C   0  0  0  0  0  0  0  0  0  0  0  0
  190.0850  175.8370  137.4020 C   0  0  0  0  0  0  0  0  0  0  0  0
  188.8740  173.5620  136.5400 C   0  0  0  0  0  3  0  0  0  0  0  0
  190.2720  173.6060  136.7250 C   0  0  0  0  0  0  0  0  0  0  0  0
  182.2310  181.5090  138.6030 C   0  0  0  0  0  2  0  0  0  0  0  0
  180.7550  181.7670  138.3030 C   0  0  0  0  0  2  0  0  0  0  0  0
  180.0170  181.7290  139.5030 O   0  0  0  0  0  0  0  0  0  0  0  0
  182.3630  180.2500  139.3450 N   0  0  0  0  0  0  0  0  0  0  0  0
  179.9820  180.3780  139.8980 C   0  0  0  0  0  2  0  0  0  0  0  0
  181.3670  179.9480  140.3780 C   0  0  0  0  0  2  0  0  0  0  0  0
  191.5990  177.6290  142.7610 C   0  0  0  0  0  2  0  0  0  0  0  0
  191.1780  178.0420  144.1630 C   0  0  0  0  0  2  0  0  0  0  0  0
  190.3900  176.9280  144.8420 C   0  0  0  0  0  2  0  0  0  0  0  0
  190.6780  176.9240  146.3270 C   0  0  0  0  0  2  0  0  0  0  0  0
  192.0450  176.7560  146.5300 O   0  0  0  0  0  0  0  0  0  0  0  0
  192.1420  175.6780  147.4210 C   0  0  0  0  0  1  0  0  0  0  0  0
  1  8  1  0  0  0  0
  2 18  1  0  0  0  0
  4 22  1  6  0  0  0
  4  3  1  0  0  0  0
  5 14  1  6  0  0  0
  5 19  1  0  0  0  0
  6 15  1  0  0  0  0
  8 21  2  0  0  0  0
  8 24  1  0  0  0  0
 10 20  1  0  0  0  0
 11 26  1  0  0  0  0
 12 25  2  0  0  0  0
 13  7  1  6  0  0  0
 14 13  1  0  0  0  0
 15 26  2  0  0  0  0
 15  4  1  0  0  0  0
 16 20  1  1  0  0  0
 16  5  1  0  0  0  0
 16 19  1  0  0  0  0
 17  3  1  0  0  0  0
 17 10  1  0  0  0  0
 18 12  1  0  0  0  0
 18  1  2  0  0  0  0
 19 35  1  1  0  0  0
 22  2  2  0  0  0  0
 23 28  1  0  0  0  0
 24 13  1  0  0  0  0
 24  9  1  0  0  0  0
 25 32  1  0  0  0  0
 25 21  1  0  0  0  0
 26 17  1  0  0  0  0
 27 28  1  0  0  0  0
 27  6  2  0  0  0  0
 28 11  2  0  0  0  0
 29 32  1  0  0  0  0
 30 29  1  0  0  0  0
 30 31  1  0  0  0  0
 31 33  1  0  0  0  0
 32 34  1  0  0  0  0
 33 34  1  0  0  0  0
 35 36  1  0  0  0  0
 36 37  1  0  0  0  0
 37 38  1  0  0  0  0
 38 39  1  0  0  0  0
 39 40  1  0  0  0  0
M  END
>  <MODEL>
3

>  <REMARK>
 VINA RESULT:      -5.6      4.297     10.271
  Name = 
  6 active torsions:
  status: ('A' for Active; 'I' for Inactive)
    1  A    between atoms: C_4  and  C_8
    2  A    between atoms: C_4  and  C_30
    3  A    between atoms: C_8  and  C_25
    4  A    between atoms: C_24  and  C_30
    5  A    between atoms: C_25  and  O_27
    6  A    between atoms: N_32  and  C_35
                            x       y       z     vdW  Elec       q    Type
                         _______ _______ _______ _____ _____    ______ ____

>  <TORSDO>
F 6

$$$$
=
 OpenBabel10222421553D

 40 45  0  0  1  0  0  0  0  0999 V2000
  188.6590  175.9710  137.3940 N   0  0  0  0  0  0  0  0  0  0  0  0
  189.5080  178.2570  137.8830 C   0  0  0  0  0  3  0  0  0  0  0  0
  186.0740  178.4140  137.7240 C   0  0  0  0  0  2  0  0  0  0  0  0
  187.1710  178.0110  138.7450 C   0  0  2  0  0  3  0  0  0  0  0  0
  184.5500  175.5630  137.0890 C   0  0  2  0  0  3  0  0  0  0  0  0
  187.1050  178.3080  141.2820 N   0  0  0  0  0  0  0  0  0  0  0  0
  186.3960  174.7490  135.3350 O   0  0  0  0  0  1  0  0  0  0  0  0
  188.8220  174.7010  136.9180 C   0  0  0  0  0  0  0  0  0  0  0  0
  188.0170  172.3460  137.1650 C   0  0  0  0  0  1  0  0  0  0  0  0
  183.5120  178.7370  138.0560 C   0  0  0  0  0  2  0  0  0  0  0  0
  184.4730  179.0720  140.9230 N   0  0  0  0  0  0  0  0  0  0  0  0
  190.8940  176.5380  136.7890 C   0  0  0  0  0  3  0  0  0  0  0  0
  186.3860  174.1430  136.6020 C   0  0  2  0  0  3  0  0  0  0  0  0
  185.7870  175.0110  137.6140 N   0  0  0  0  0  2  0  0  0  0  0  0
  186.5610  178.4000  140.0430 C   0  0  0  0  0  0  0  0  0  0  0  0
  183.8340  176.2790  138.1560 N   0  0  2  0  0  0  0  0  0  0  0  0
  184.8980  178.7900  138.5180 N   0  0  0  0  0  0  0  0  0  0  0  0
  189.6630  176.8910  137.3500 C   0  0  0  0  0  0  0  0  0  0  0  0
  183.4050  174.9170  137.7180 C   0  0  1  0  0  3  0  0  0  0  0  0
  183.1480  177.3730  137.4710 C   0  0  0  0  0  2  0  0  0  0  0  0
  190.0470  174.3300  136.3450 C   0  0  0  0  0  3  0  0  0  0  0  0
  188.4370  178.7620  138.4970 C   0  0  0  0  0  3  0  0  0  0  0  0
  184.1830  179.3330  143.3030 N   0  0  0  0  0  1  0  0  0  0  0  0
  187.7420  173.7600  136.9740 N   0  0  0  0  0  0  0  0  0  0  0  0
  191.0970  175.2500  136.2750 C   0  0  0  0  0  0  0  0  0  0  0  0
  185.2700  178.7700  139.8710 C   0  0  0  0  0  0  0  0  0  0  0  0
  186.3390  178.6300  142.3660 C   0  0  0  0  0  3  0  0  0  0  0  0
  184.9940  179.0140  142.1810 C   0  0  0  0  0  0  0  0  0  0  0  0
  193.0690  175.8700  134.8380 C   0  0  0  0  0  2  0  0  0  0  0  0
  194.5500  175.4990  134.7830 C   0  0  0  0  0  2  0  0  0  0  0  0
  194.6860  174.1660  134.3460 O   0  0  0  0  0  0  0  0  0  0  0  0
  192.3530  174.8940  135.6680 N   0  0  0  0  0  0  0  0  0  0  0  0
  194.2430  173.3590  135.4110 C   0  0  0  0  0  2  0  0  0  0  0  0
  192.7260  173.4800  135.5500 C   0  0  0  0  0  2  0  0  0  0  0  0
  182.2190  174.8830  136.7390 C   0  0  0  0  0  2  0  0  0  0  0  0
  181.7070  173.4580  136.5870 C   0  0  0  0  0  2  0  0  0  0  0  0
  182.7950  172.5470  136.0310 C   0  0  0  0  0  2  0  0  0  0  0  0
  182.9770  171.3490  136.9370 C   0  0  0  0  0  2  0  0  0  0  0  0
  183.6640  170.3530  136.2500 O   0  0  0  0  0  0  0  0  0  0  0  0
  184.6030  171.0430  135.4700 C   0  0  0  0  0  1  0  0  0  0  0  0
  2 22  2  0  0  0  0
  3 17  1  0  0  0  0
  4  3  1  6  0  0  0
  4 15  1  0  0  0  0
  5 14  1  1  0  0  0
  5 19  1  0  0  0  0
  5 16  1  0  0  0  0
  6 27  1  0  0  0  0
  8 24  1  0  0  0  0
  8  1  2  0  0  0  0
 10 17  1  0  0  0  0
 11 28  1  0  0  0  0
 12 18  2  0  0  0  0
 13  7  1  6  0  0  0
 13 24  1  0  0  0  0
 13 14  1  0  0  0  0
 15  6  2  0  0  0  0
 16 20  1  6  0  0  0
 17 26  1  0  0  0  0
 18  1  1  0  0  0  0
 18  2  1  0  0  0  0
 19 35  1  6  0  0  0
 19 16  1  0  0  0  0
 20 10  1  0  0  0  0
 21  8  1  0  0  0  0
 22  4  1  0  0  0  0
 24  9  1  0  0  0  0
 25 21  2  0  0  0  0
 25 12  1  0  0  0  0
 26 15  1  0  0  0  0
 26 11  2  0  0  0  0
 28 27  2  0  0  0  0
 28 23  1  0  0  0  0
 29 32  1  0  0  0  0
 30 29  1  0  0  0  0
 31 30  1  0  0  0  0
 31 33  1  0  0  0  0
 32 25  1  0  0  0  0
 33 34  1  0  0  0  0
 34 32  1  0  0  0  0
 36 35  1  0  0  0  0
 37 36  1  0  0  0  0
 37 38  1  0  0  0  0
 39 38  1  0  0  0  0
 40 39  1  0  0  0  0
M  END
>  <MODEL>
4

>  <REMARK>
 VINA RESULT:      -5.3      2.526      3.805
  Name = 
  6 active torsions:
  status: ('A' for Active; 'I' for Inactive)
    1  A    between atoms: C_4  and  C_8
    2  A    between atoms: C_4  and  C_30
    3  A    between atoms: C_8  and  C_25
    4  A    between atoms: C_24  and  C_30
    5  A    between atoms: C_25  and  O_27
    6  A    between atoms: N_32  and  C_35
                            x       y       z     vdW  Elec       q    Type
                         _______ _______ _______ _____ _____    ______ ____

>  <TORSDO>
F 6

$$$$
=
 OpenBabel10222421553D

 40 45  0  0  1  0  0  0  0  0999 V2000
  185.4120  177.3030  137.7430 N   0  0  0  0  0  0  0  0  0  0  0  0
  184.0880  176.4630  135.8130 C   0  0  0  0  0  3  0  0  0  0  0  0
  187.4140  175.9020  135.1380 C   0  0  0  0  0  2  0  0  0  0  0  0
  186.2680  175.2410  135.9490 C   0  0  2  0  0  3  0  0  0  0  0  0
  189.5220  176.8810  137.4730 C   0  0  2  0  0  3  0  0  0  0  0  0
  185.8850  172.7440  136.3320 N   0  0  0  0  0  0  0  0  0  0  0  0
  188.1530  179.1060  138.0420 O   0  0  0  0  0  1  0  0  0  0  0  0
  185.5640  178.0890  138.8500 C   0  0  0  0  0  0  0  0  0  0  0  0
  186.7460  178.2530  141.0480 C   0  0  0  0  0  1  0  0  0  0  0  0
  189.7900  175.0050  134.5580 C   0  0  0  0  0  2  0  0  0  0  0  0
  188.3520  172.3870  135.1370 N   0  0  0  0  0  0  0  0  0  0  0  0
  183.2320  178.1840  137.3550 C   0  0  0  0  0  3  0  0  0  0  0  0
  188.0810  178.0420  138.9560 C   0  0  2  0  0  3  0  0  0  0  0  0
  188.3440  176.7560  138.3130 N   0  0  0  0  0  2  0  0  0  0  0  0
  186.5870  173.7950  135.8380 C   0  0  0  0  0  0  0  0  0  0  0  0
  189.9190  175.5560  136.9740 N   0  0  2  0  0  0  0  0  0  0  0  0
  188.3630  174.8260  134.8250 N   0  0  0  0  0  0  0  0  0  0  0  0
  184.2740  177.3250  136.9960 C   0  0  0  0  0  0  0  0  0  0  0  0
  190.6570  176.2110  138.0950 C   0  0  1  0  0  3  0  0  0  0  0  0
  190.4870  175.8140  135.6520 C   0  0  0  0  0  2  0  0  0  0  0  0
  184.5330  178.9630  139.2240 C   0  0  0  0  0  3  0  0  0  0  0  0
  184.9380  175.5480  135.3450 C   0  0  0  0  0  3  0  0  0  0  0  0
  188.2180  170.0040  135.4820 N   0  0  0  0  0  1  0  0  0  0  0  0
  186.7790  178.0450  139.6100 N   0  0  0  0  0  0  0  0  0  0  0  0
  183.3540  179.0180  138.4750 C   0  0  0  0  0  0  0  0  0  0  0  0
  187.7980  173.6160  135.2570 C   0  0  0  0  0  0  0  0  0  0  0  0
  186.4010  171.4860  136.2050 C   0  0  0  0  0  3  0  0  0  0  0  0
  187.6630  171.3070  135.6010 C   0  0  0  0  0  0  0  0  0  0  0  0
  182.3960  181.3450  138.4690 C   0  0  0  0  0  2  0  0  0  0  0  0
  180.9980  181.9600  138.4320 C   0  0  0  0  0  2  0  0  0  0  0  0
  180.3480  181.7260  139.6610 O   0  0  0  0  0  0  0  0  0  0  0  0
  182.2940  179.9270  138.8310 N   0  0  0  0  0  0  0  0  0  0  0  0
  180.0410  180.3530  139.6850 C   0  0  0  0  0  2  0  0  0  0  0  0
  181.3250  179.5430  139.8610 C   0  0  0  0  0  2  0  0  0  0  0  0
  191.9640  176.9170  137.7000 C   0  0  0  0  0  2  0  0  0  0  0  0
  193.1530  176.2090  138.3340 C   0  0  0  0  0  2  0  0  0  0  0  0
  193.7150  175.1470  137.3960 C   0  0  0  0  0  2  0  0  0  0  0  0
  194.9670  174.5420  137.9930 C   0  0  0  0  0  2  0  0  0  0  0  0
  195.2020  175.1100  139.2410 O   0  0  0  0  0  0  0  0  0  0  0  0
  196.4850  174.6720  139.5950 C   0  0  0  0  0  1  0  0  0  0  0  0
  1  8  1  0  0  0  0
  2 18  1  0  0  0  0
  4  3  1  6  0  0  0
  5 19  1  0  0  0  0
  5 14  1  1  0  0  0
  8 21  2  0  0  0  0
  8 24  1  0  0  0  0
 10 17  1  0  0  0  0
 10 20  1  0  0  0  0
 11 26  2  0  0  0  0
 11 28  1  0  0  0  0
 12 25  2  0  0  0  0
 13  7  1  6  0  0  0
 13 24  1  0  0  0  0
 14 13  1  0  0  0  0
 15  4  1  0  0  0  0
 15  6  2  0  0  0  0
 16 20  1  6  0  0  0
 16  5  1  0  0  0  0
 16 19  1  0  0  0  0
 17  3  1  0  0  0  0
 17 26  1  0  0  0  0
 18 12  1  0  0  0  0
 18  1  2  0  0  0  0
 19 35  1  6  0  0  0
 22  2  2  0  0  0  0
 22  4  1  0  0  0  0
 23 28  1  0  0  0  0
 24  9  1  0  0  0  0
 25 32  1  0  0  0  0
 25 21  1  0  0  0  0
 26 15  1  0  0  0  0
 27  6  1  0  0  0  0
 28 27  2  0  0  0  0
 29 32  1  0  0  0  0
 30 29  1  0  0  0  0
 30 31  1  0  0  0  0
 31 33  1  0  0  0  0
 32 34  1  0  0  0  0
 33 34  1  0  0  0  0
 35 36  1  0  0  0  0
 37 38  1  0  0  0  0
 37 36  1  0  0  0  0
 38 39  1  0  0  0  0
 39 40  1  0  0  0  0
M  END
>  <MODEL>
5

>  <REMARK>
 VINA RESULT:      -5.2      3.666     10.267
  Name = 
  6 active torsions:
  status: ('A' for Active; 'I' for Inactive)
    1  A    between atoms: C_4  and  C_8
    2  A    between atoms: C_4  and  C_30
    3  A    between atoms: C_8  and  C_25
    4  A    between atoms: C_24  and  C_30
    5  A    between atoms: C_25  and  O_27
    6  A    between atoms: N_32  and  C_35
                            x       y       z     vdW  Elec       q    Type
                         _______ _______ _______ _____ _____    ______ ____

>  <TORSDO>
F 6

$$$$
=
 OpenBabel10222421553D

 40 45  0  0  1  0  0  0  0  0999 V2000
  187.6850  177.4140  141.6150 N   0  0  0  0  0  0  0  0  0  0  0  0
  185.6410  178.6730  140.9680 C   0  0  0  0  0  3  0  0  0  0  0  0
  187.7060  178.5240  138.2200 C   0  0  0  0  0  2  0  0  0  0  0  0
  186.6710  177.6220  138.9450 C   0  0  2  0  0  3  0  0  0  0  0  0
  190.5490  176.9210  138.6660 C   0  0  2  0  0  3  0  0  0  0  0  0
  185.0650  175.9460  137.8760 N   0  0  0  0  0  0  0  0  0  0  0  0
  190.9130  177.8680  141.1390 O   0  0  0  0  0  1  0  0  0  0  0  0
  188.5600  176.9340  142.5470 C   0  0  0  0  0  0  0  0  0  0  0  0
  190.1860  175.0910  143.0120 C   0  0  0  0  0  1  0  0  0  0  0  0
  188.8700  178.2190  135.9110 C   0  0  0  0  0  2  0  0  0  0  0  0
  186.4340  176.4370  135.5250 N   0  0  0  0  0  0  0  0  0  0  0  0
  186.3890  178.4800  143.3080 C   0  0  0  0  0  3  0  0  0  0  0  0
  190.5100  176.5290  141.0040 C   0  0  2  0  0  3  0  0  0  0  0  0
  189.8020  176.3000  139.7460 N   0  0  0  0  0  2  0  0  0  0  0  0
  186.0650  176.8610  137.8210 C   0  0  0  0  0  0  0  0  0  0  0  0
  189.9630  176.5380  137.3720 N   0  0  2  0  0  0  0  0  0  0  0  0
  187.7400  178.0640  136.8260 N   0  0  0  0  0  0  0  0  0  0  0  0
  186.6060  178.1700  141.9620 C   0  0  0  0  0  0  0  0  0  0  0  0
  191.2210  175.9030  137.8680 C   0  0  1  0  0  3  0  0  0  0  0  0
  190.1770  177.6980  136.5100 C   0  0  0  0  0  2  0  0  0  0  0  0
  188.3640  177.2390  143.9020 C   0  0  0  0  0  3  0  0  0  0  0  0
  185.6470  178.4430  139.6540 C   0  0  0  0  0  3  0  0  0  0  0  0
  185.0750  174.8280  134.3520 N   0  0  0  0  0  1  0  0  0  0  0  0
  189.6890  176.1460  142.1450 N   0  0  0  0  0  0  0  0  0  0  0  0
  187.2720  178.0200  144.2940 C   0  0  0  0  0  0  0  0  0  0  0  0
  186.7370  177.0950  136.6690 C   0  0  0  0  0  0  0  0  0  0  0  0
  184.7140  175.2810  136.7360 C   0  0  0  0  0  3  0  0  0  0  0  0
  185.4190  175.5290  135.5390 C   0  0  0  0  0  0  0  0  0  0  0  0
  185.9100  179.1730  146.0680 C   0  0  0  0  0  2  0  0  0  0  0  0
  185.6020  178.9380  147.5460 C   0  0  0  0  0  2  0  0  0  0  0  0
  186.7580  179.1850  148.3130 O   0  0  0  0  0  0  0  0  0  0  0  0
  187.0690  178.3640  145.6780 N   0  0  0  0  0  0  0  0  0  0  0  0
  187.6390  178.1200  148.0460 C   0  0  0  0  0  2  0  0  0  0  0  0
  188.1840  178.2500  146.6240 C   0  0  0  0  0  2  0  0  0  0  0  0
  192.5220  176.4730  137.2790 C   0  0  0  0  0  2  0  0  0  0  0  0
  193.3900  175.3450  136.7390 C   0  0  0  0  0  2  0  0  0  0  0  0
  194.4890  174.9840  137.7310 C   0  0  0  0  0  2  0  0  0  0  0  0
  194.6390  173.4810  137.8100 C   0  0  0  0  0  2  0  0  0  0  0  0
  195.3840  173.1520  138.9380 O   0  0  0  0  0  0  0  0  0  0  0  0
  195.9840  174.3560  139.3320 C   0  0  0  0  0  1  0  0  0  0  0  0
  1 18  2  0  0  0  0
  1  8  1  0  0  0  0
  2 18  1  0  0  0  0
  4  3  1  6  0  0  0
  4 22  1  0  0  0  0
  5 14  1  1  0  0  0
  8 21  2  0  0  0  0
 10 20  1  0  0  0  0
 10 17  1  0  0  0  0
 11 28  2  0  0  0  0
 11 26  1  0  0  0  0
 12 25  2  0  0  0  0
 13  7  1  1  0  0  0
 13 24  1  0  0  0  0
 14 13  1  0  0  0  0
 15  6  1  0  0  0  0
 15  4  1  0  0  0  0
 16 20  1  6  0  0  0
 16 19  1  0  0  0  0
 16  5  1  0  0  0  0
 17  3  1  0  0  0  0
 18 12  1  0  0  0  0
 19 35  1  6  0  0  0
 19  5  1  0  0  0  0
 21 25  1  0  0  0  0
 22  2  2  0  0  0  0
 23 28  1  0  0  0  0
 24  8  1  0  0  0  0
 24  9  1  0  0  0  0
 25 32  1  0  0  0  0
 26 17  1  0  0  0  0
 26 15  2  0  0  0  0
 27  6  2  0  0  0  0
 28 27  1  0  0  0  0
 29 30  1  0  0  0  0
 30 31  1  0  0  0  0
 32 29  1  0  0  0  0
 32 34  1  0  0  0  0
 33 31  1  0  0  0  0
 34 33  1  0  0  0  0
 36 35  1  0  0  0  0
 36 37  1  0  0  0  0
 37 38  1  0  0  0  0
 38 39  1  0  0  0  0
 39 40  1  0  0  0  0
M  END
>  <MODEL>
6

>  <REMARK>
 VINA RESULT:      -5.1      3.363      9.379
  Name = 
  6 active torsions:
  status: ('A' for Active; 'I' for Inactive)
    1  A    between atoms: C_4  and  C_8
    2  A    between atoms: C_4  and  C_30
    3  A    between atoms: C_8  and  C_25
    4  A    between atoms: C_24  and  C_30
    5  A    between atoms: C_25  and  O_27
    6  A    between atoms: N_32  and  C_35
                            x       y       z     vdW  Elec       q    Type
                         _______ _______ _______ _____ _____    ______ ____

>  <TORSDO>
F 6

$$$$
=
 OpenBabel10222421553D

 40 45  0  0  1  0  0  0  0  0999 V2000
  187.7180  176.5710  136.7190 N   0  0  0  0  0  0  0  0  0  0  0  0
  186.6920  174.7650  135.3520 C   0  0  0  0  0  3  0  0  0  0  0  0
  184.4450  175.6420  137.8070 C   0  0  0  0  0  2  0  0  0  0  0  0
  184.9010  176.1540  136.4140 C   0  0  2  0  0  3  0  0  0  0  0  0
  185.4340  178.0280  139.8500 C   0  0  2  0  0  3  0  0  0  0  0  0
  183.4580  177.2870  134.6350 N   0  0  0  0  0  0  0  0  0  0  0  0
  187.9590  177.1550  139.9520 O   0  0  0  0  0  1  0  0  0  0  0  0
  188.7990  177.2660  137.1820 C   0  0  0  0  0  0  0  0  0  0  0  0
  189.5380  179.5040  138.0200 C   0  0  0  0  0  1  0  0  0  0  0  0
  182.4290  176.3740  139.2840 C   0  0  0  0  0  2  0  0  0  0  0  0
  181.4720  177.3270  136.5580 N   0  0  0  0  0  0  0  0  0  0  0  0
  189.1290  175.0980  135.4870 C   0  0  0  0  0  3  0  0  0  0  0  0
  187.6950  178.3070  139.1940 C   0  0  2  0  0  3  0  0  0  0  0  0
  186.3080  178.3500  138.7350 N   0  0  0  0  0  2  0  0  0  0  0  0
  183.6490  176.7300  135.8570 C   0  0  0  0  0  0  0  0  0  0  0  0
  184.0330  178.2580  139.4650 N   0  0  2  0  0  0  0  0  0  0  0  0
  183.0760  176.1390  137.9940 N   0  0  0  0  0  0  0  0  0  0  0  0
  187.8510  175.5070  135.8790 C   0  0  0  0  0  0  0  0  0  0  0  0
  184.7650  179.2320  140.3280 C   0  0  1  0  0  3  0  0  0  0  0  0
  183.2760  177.2510  140.2060 C   0  0  0  0  0  2  0  0  0  0  0  0
  190.0900  176.8670  136.8060 C   0  0  0  0  0  3  0  0  0  0  0  0
  185.4020  175.0320  135.5680 C   0  0  0  0  0  3  0  0  0  0  0  0
  179.9820  178.4770  135.0510 N   0  0  0  0  0  1  0  0  0  0  0  0
  188.6210  178.3770  138.0710 N   0  0  0  0  0  0  0  0  0  0  0  0
  190.2650  175.7740  135.9520 C   0  0  0  0  0  0  0  0  0  0  0  0
  182.6760  176.7550  136.7980 C   0  0  0  0  0  0  0  0  0  0  0  0
  182.2480  177.8510  134.3480 C   0  0  0  0  0  3  0  0  0  0  0  0
  181.2380  177.8760  135.3330 C   0  0  0  0  0  0  0  0  0  0  0  0
  192.3160  176.0420  134.5180 C   0  0  0  0  0  2  0  0  0  0  0  0
  193.8140  175.7860  134.6800 C   0  0  0  0  0  2  0  0  0  0  0  0
  194.0530  174.3980  134.7130 O   0  0  0  0  0  0  0  0  0  0  0  0
  191.5850  175.3360  135.5750 N   0  0  0  0  0  0  0  0  0  0  0  0
  193.5640  173.9470  135.9540 C   0  0  0  0  0  2  0  0  0  0  0  0
  192.0360  173.9920  135.9500 C   0  0  0  0  0  2  0  0  0  0  0  0
  184.4870  179.1140  141.8360 C   0  0  0  0  0  2  0  0  0  0  0  0
  185.7240  178.5980  142.5570 C   0  0  0  0  0  2  0  0  0  0  0  0
  185.4240  178.3390  144.0290 C   0  0  0  0  0  2  0  0  0  0  0  0
  184.0550  178.8790  144.3790 C   0  0  0  0  0  2  0  0  0  0  0  0
  183.9470  178.9980  145.7620 O   0  0  0  0  0  0  0  0  0  0  0  0
  185.2020  178.6090  146.2500 C   0  0  0  0  0  1  0  0  0  0  0  0
  1  8  1  0  0  0  0
  2 22  2  0  0  0  0
  2 18  1  0  0  0  0
  3 17  1  0  0  0  0
  4 22  1  6  0  0  0
  4  3  1  0  0  0  0
  5 14  1  6  0  0  0
  5 19  1  0  0  0  0
  6 15  1  0  0  0  0
  8 24  1  0  0  0  0
  9 24  1  0  0  0  0
 10 20  1  0  0  0  0
 11 26  1  0  0  0  0
 12 18  1  0  0  0  0
 12 25  2  0  0  0  0
 13  7  1  6  0  0  0
 14 13  1  0  0  0  0
 15  4  1  0  0  0  0
 15 26  2  0  0  0  0
 16  5  1  0  0  0  0
 16 20  1  1  0  0  0
 16 19  1  0  0  0  0
 17 10  1  0  0  0  0
 18  1  2  0  0  0  0
 19 35  1  1  0  0  0
 21  8  2  0  0  0  0
 23 28  1  0  0  0  0
 24 13  1  0  0  0  0
 25 21  1  0  0  0  0
 26 17  1  0  0  0  0
 27  6  2  0  0  0  0
 27 28  1  0  0  0  0
 28 11  2  0  0  0  0
 29 30  1  0  0  0  0
 29 32  1  0  0  0  0
 30 31  1  0  0  0  0
 31 33  1  0  0  0  0
 32 34  1  0  0  0  0
 32 25  1  0  0  0  0
 34 33  1  0  0  0  0
 35 36  1  0  0  0  0
 36 37  1  0  0  0  0
 37 38  1  0  0  0  0
 38 39  1  0  0  0  0
 39 40  1  0  0  0  0
M  END
>  <MODEL>
7

>  <REMARK>
 VINA RESULT:      -5.1      3.648      7.025
  Name = 
  6 active torsions:
  status: ('A' for Active; 'I' for Inactive)
    1  A    between atoms: C_4  and  C_8
    2  A    between atoms: C_4  and  C_30
    3  A    between atoms: C_8  and  C_25
    4  A    between atoms: C_24  and  C_30
    5  A    between atoms: C_25  and  O_27
    6  A    between atoms: N_32  and  C_35
                            x       y       z     vdW  Elec       q    Type
                         _______ _______ _______ _____ _____    ______ ____

>  <TORSDO>
F 6

$$$$
=
 OpenBabel10222421553D

 40 45  0  0  1  0  0  0  0  0999 V2000
  191.5580  174.4460  136.9910 N   0  0  0  0  0  0  0  0  0  0  0  0
  193.0470  176.0050  138.2280 C   0  0  0  0  0  3  0  0  0  0  0  0
  190.0460  177.6020  137.7010 C   0  0  0  0  0  2  0  0  0  0  0  0
  190.6520  176.5680  138.6870 C   0  0  2  0  0  3  0  0  0  0  0  0
  187.7740  175.8560  136.0760 C   0  0  2  0  0  3  0  0  0  0  0  0
  190.1180  176.3020  141.1710 N   0  0  0  0  0  0  0  0  0  0  0  0
  189.5440  174.7560  134.4020 O   0  0  0  0  0  1  0  0  0  0  0  0
  191.3500  173.3610  136.1860 C   0  0  0  0  0  0  0  0  0  0  0  0
  189.7040  171.5610  135.6310 C   0  0  0  0  0  1  0  0  0  0  0  0
  187.7770  178.8780  137.7960 C   0  0  0  0  0  2  0  0  0  0  0  0
  188.1070  178.1470  140.7310 N   0  0  0  0  0  0  0  0  0  0  0  0
  193.9200  174.1530  136.8580 C   0  0  0  0  0  3  0  0  0  0  0  0
  189.0210  173.9480  135.4240 C   0  0  2  0  0  3  0  0  0  0  0  0
  188.5670  174.7410  136.5650 N   0  0  0  0  0  2  0  0  0  0  0  0
  189.9460  176.8800  139.9560 C   0  0  0  0  0  0  0  0  0  0  0  0
  187.1450  176.5510  137.2090 N   0  0  2  0  0  0  0  0  0  0  0  0
  188.9410  178.2480  138.4200 N   0  0  0  0  0  0  0  0  0  0  0  0
  192.8100  174.8520  137.3410 C   0  0  0  0  0  0  0  0  0  0  0  0
  186.3600  175.6230  136.3420 C   0  0  1  0  0  3  0  0  0  0  0  0
  187.0840  177.9520  136.7960 C   0  0  0  0  0  2  0  0  0  0  0  0
  192.4500  172.6510  135.6850 C   0  0  0  0  0  3  0  0  0  0  0  0
  192.1250  176.7610  138.8270 C   0  0  0  0  0  3  0  0  0  0  0  0
  187.3930  177.9750  143.0280 N   0  0  0  0  0  1  0  0  0  0  0  0
  190.0180  172.9660  135.8310 N   0  0  0  0  0  0  0  0  0  0  0  0
  193.7490  173.0440  136.0180 C   0  0  0  0  0  0  0  0  0  0  0  0
  188.9570  177.7800  139.7430 C   0  0  0  0  0  0  0  0  0  0  0  0
  189.2960  176.6660  142.1990 C   0  0  0  0  0  3  0  0  0  0  0  0
  188.2660  177.6040  141.9700 C   0  0  0  0  0  0  0  0  0  0  0  0
  195.6870  172.9390  134.4140 C   0  0  0  0  0  2  0  0  0  0  0  0
  197.0870  172.3280  134.4180 C   0  0  0  0  0  2  0  0  0  0  0  0
  196.9880  170.9240  134.3460 O   0  0  0  0  0  0  0  0  0  0  0  0
  194.8920  172.3410  135.4920 N   0  0  0  0  0  0  0  0  0  0  0  0
  196.5030  170.5020  135.5980 C   0  0  0  0  0  2  0  0  0  0  0  0
  195.0360  170.9030  135.7420 C   0  0  0  0  0  2  0  0  0  0  0  0
  185.5040  176.2990  135.2590 C   0  0  0  0  0  2  0  0  0  0  0  0
  184.2800  175.4490  134.9530 C   0  0  0  0  0  2  0  0  0  0  0  0
  182.9990  176.2470  135.1660 C   0  0  0  0  0  2  0  0  0  0  0  0
  181.9000  175.3340  135.6640 C   0  0  0  0  0  2  0  0  0  0  0  0
  180.7660  176.0910  135.9450 O   0  0  0  0  0  0  0  0  0  0  0  0
  180.1170  175.3900  136.9710 C   0  0  0  0  0  1  0  0  0  0  0  0
  1 18  1  0  0  0  0
  2 22  2  0  0  0  0
  3 17  1  0  0  0  0
  4  3  1  6  0  0  0
  4 22  1  0  0  0  0
  4 15  1  0  0  0  0
  5 19  1  0  0  0  0
  5 14  1  1  0  0  0
  5 16  1  0  0  0  0
  6 27  1  0  0  0  0
  8  1  2  0  0  0  0
  9 24  1  0  0  0  0
 10 17  1  0  0  0  0
 11 28  1  0  0  0  0
 12 18  2  0  0  0  0
 13  7  1  6  0  0  0
 13 24  1  0  0  0  0
 13 14  1  0  0  0  0
 15  6  2  0  0  0  0
 16 20  1  6  0  0  0
 17 26  1  0  0  0  0
 18  2  1  0  0  0  0
 19 35  1  6  0  0  0
 19 16  1  0  0  0  0
 20 10  1  0  0  0  0
 21 25  2  0  0  0  0
 21  8  1  0  0  0  0
 24  8  1  0  0  0  0
 25 12  1  0  0  0  0
 26 15  1  0  0  0  0
 26 11  2  0  0  0  0
 28 27  2  0  0  0  0
 28 23  1  0  0  0  0
 29 30  1  0  0  0  0
 29 32  1  0  0  0  0
 31 30  1  0  0  0  0
 31 33  1  0  0  0  0
 32 34  1  0  0  0  0
 32 25  1  0  0  0  0
 33 34  1  0  0  0  0
 36 37  1  0  0  0  0
 36 35  1  0  0  0  0
 37 38  1  0  0  0  0
 38 39  1  0  0  0  0
 39 40  1  0  0  0  0
M  END
>  <MODEL>
8

>  <REMARK>
 VINA RESULT:      -4.8      1.813      2.034
  Name = 
  6 active torsions:
  status: ('A' for Active; 'I' for Inactive)
    1  A    between atoms: C_4  and  C_8
    2  A    between atoms: C_4  and  C_30
    3  A    between atoms: C_8  and  C_25
    4  A    between atoms: C_24  and  C_30
    5  A    between atoms: C_25  and  O_27
    6  A    between atoms: N_32  and  C_35
                            x       y       z     vdW  Elec       q    Type
                         _______ _______ _______ _____ _____    ______ ____

>  <TORSDO>
F 6

$$$$
=
 OpenBabel10222421553D

 40 45  0  0  1  0  0  0  0  0999 V2000
  186.6750  177.5970  142.6090 N   0  0  0  0  0  0  0  0  0  0  0  0
  184.4350  178.6030  143.0010 C   0  0  0  0  0  3  0  0  0  0  0  0
  185.2310  179.0520  139.6840 C   0  0  0  0  0  2  0  0  0  0  0  0
  184.6620  177.9350  140.6000 C   0  0  2  0  0  3  0  0  0  0  0  0
  188.1500  177.8470  138.7480 C   0  0  2  0  0  3  0  0  0  0  0  0
  182.9260  176.1650  139.9830 N   0  0  0  0  0  0  0  0  0  0  0  0
  189.3850  178.5690  141.0070 O   0  0  0  0  0  1  0  0  0  0  0  0
  187.8910  177.1550  143.0460 C   0  0  0  0  0  0  0  0  0  0  0  0
  189.7310  175.5320  142.5580 C   0  0  0  0  0  1  0  0  0  0  0  0
  185.3960  179.1680  137.0870 C   0  0  0  0  0  2  0  0  0  0  0  0
  183.1870  177.0980  137.3940 N   0  0  0  0  0  0  0  0  0  0  0  0
  186.0720  178.2750  144.8130 C   0  0  0  0  0  3  0  0  0  0  0  0
  189.0880  177.2080  140.8300 C   0  0  2  0  0  3  0  0  0  0  0  0
  187.9600  177.0120  139.9210 N   0  0  0  0  0  2  0  0  0  0  0  0
  183.7310  177.2170  139.6920 C   0  0  0  0  0  0  0  0  0  0  0  0
  187.1340  177.5210  137.7360 N   0  0  2  0  0  0  0  0  0  0  0  0
  184.7470  178.7530  138.3300 N   0  0  0  0  0  0  0  0  0  0  0  0
  185.7600  178.1450  143.4560 C   0  0  0  0  0  0  0  0  0  0  0  0
  188.5380  177.0300  137.6050 C   0  0  1  0  0  3  0  0  0  0  0  0
  186.8750  178.7850  137.0500 C   0  0  0  0  0  2  0  0  0  0  0  0
  188.2260  177.2830  144.4020 C   0  0  0  0  0  3  0  0  0  0  0  0
  183.9360  178.5170  141.7670 C   0  0  0  0  0  3  0  0  0  0  0  0
  181.6280  175.4410  136.5980 N   0  0  0  0  0  1  0  0  0  0  0  0
  188.8320  176.5890  142.1240 N   0  0  0  0  0  0  0  0  0  0  0  0
  187.3150  177.8480  145.2990 C   0  0  0  0  0  0  0  0  0  0  0  0
  183.8600  177.6690  138.4210 C   0  0  0  0  0  0  0  0  0  0  0  0
  182.2120  175.5800  138.9770 C   0  0  0  0  0  3  0  0  0  0  0  0
  182.3510  176.0540  137.6550 C   0  0  0  0  0  0  0  0  0  0  0  0
  188.8930  177.4280  147.2150 C   0  0  0  0  0  2  0  0  0  0  0  0
  189.3020  178.1700  148.4870 C   0  0  0  0  0  2  0  0  0  0  0  0
  188.2320  178.1590  149.4030 O   0  0  0  0  0  0  0  0  0  0  0  0
  187.6530  178.0090  146.6910 N   0  0  0  0  0  0  0  0  0  0  0  0
  187.2600  179.0330  148.8790 C   0  0  0  0  0  2  0  0  0  0  0  0
  186.6130  178.4010  147.6470 C   0  0  0  0  0  2  0  0  0  0  0  0
  189.4350  177.8430  136.6590 C   0  0  0  0  0  2  0  0  0  0  0  0
  190.3160  176.9100  135.8410 C   0  0  0  0  0  2  0  0  0  0  0  0
  191.2550  176.1200  136.7450 C   0  0  0  0  0  2  0  0  0  0  0  0
  191.1530  174.6440  136.4290 C   0  0  0  0  0  2  0  0  0  0  0  0
  190.5500  173.9850  137.4970 O   0  0  0  0  0  0  0  0  0  0  0  0
  189.3600  173.4680  136.9690 C   0  0  0  0  0  1  0  0  0  0  0  0
  1  8  2  0  0  0  0
  1 18  1  0  0  0  0
  2 18  1  0  0  0  0
  4  3  1  6  0  0  0
  4 22  1  0  0  0  0
  5 14  1  1  0  0  0
  8 21  1  0  0  0  0
 10 17  1  0  0  0  0
 11 28  2  0  0  0  0
 11 26  1  0  0  0  0
 12 25  1  0  0  0  0
 13  7  1  1  0  0  0
 13 24  1  0  0  0  0
 14 13  1  0  0  0  0
 15  6  1  0  0  0  0
 15  4  1  0  0  0  0
 16 20  1  6  0  0  0
 16  5  1  0  0  0  0
 17 26  1  0  0  0  0
 17  3  1  0  0  0  0
 18 12  2  0  0  0  0
 19 35  1  6  0  0  0
 19 16  1  0  0  0  0
 19  5  1  0  0  0  0
 20 10  1  0  0  0  0
 21 25  2  0  0  0  0
 22  2  2  0  0  0  0
 23 28  1  0  0  0  0
 24  9  1  0  0  0  0
 24  8  1  0  0  0  0
 25 32  1  0  0  0  0
 26 15  2  0  0  0  0
 27  6  2  0  0  0  0
 28 27  1  0  0  0  0
 29 30  1  0  0  0  0
 30 31  1  0  0  0  0
 32 29  1  0  0  0  0
 32 34  1  0  0  0  0
 33 31  1  0  0  0  0
 34 33  1  0  0  0  0
 36 35  1  0  0  0  0
 36 37  1  0  0  0  0
 38 37  1  0  0  0  0
 38 39  1  0  0  0  0
 40 39  1  0  0  0  0
M  END
>  <MODEL>
9

>  <REMARK>
 VINA RESULT:      -4.8      3.915      9.135
  Name = 
  6 active torsions:
  status: ('A' for Active; 'I' for Inactive)
    1  A    between atoms: C_4  and  C_8
    2  A    between atoms: C_4  and  C_30
    3  A    between atoms: C_8  and  C_25
    4  A    between atoms: C_24  and  C_30
    5  A    between atoms: C_25  and  O_27
    6  A    between atoms: N_32  and  C_35
                            x       y       z     vdW  Elec       q    Type
                         _______ _______ _______ _____ _____    ______ ____

>  <TORSDO>
F 6

$$$$
