=
 OpenBabel10232412083D

 39 42  0  0  1  0  0  0  0  0999 V2000
  188.9090  177.2520  140.4770 C   0  0  2  0  0  3  0  0  0  0  0  0
  185.3200  179.7050  141.0760 O   0  0  0  0  0  0  0  0  0  0  0  0
  187.6370  178.0390  140.5210 C   0  0  0  0  0  0  0  0  0  0  0  0
  187.2000  178.5970  139.4770 O   0  0  0  0  0  0  0  0  0  0  0  0
  186.9420  178.1590  141.7670 N   0  0  0  0  0  2  0  0  0  0  0  0
  185.7870  178.9740  141.9900 C   0  0  0  0  0  0  0  0  0  0  0  0
  185.1200  178.9490  143.3230 C   0  0  0  0  0  2  0  0  0  0  0  0
  185.8750  178.0460  144.2850 C   0  0  0  0  0  2  0  0  0  0  0  0
  185.6860  178.4830  145.5990 O   0  0  0  0  0  0  0  0  0  0  0  0
  189.0120  177.0770  146.4650 C   0  0  0  0  0  3  0  0  0  0  0  0
  186.8440  178.4530  147.6700 C   0  0  0  0  0  3  0  0  0  0  0  0
  189.0630  177.4370  147.7510 C   0  0  0  0  0  3  0  0  0  0  0  0
  187.9100  177.5880  145.5750 C   0  0  0  0  0  2  0  0  0  0  0  0
  186.6010  177.7530  146.3580 C   0  0  2  0  0  3  0  0  0  0  0  0
  187.9890  178.2660  148.3340 C   0  0  0  0  0  3  0  0  0  0  0  0
  189.1670  176.1110  142.5470 O   0  0  0  0  0  0  0  0  0  0  0  0
  190.3550  178.1200  142.3720 N   0  0  0  0  0  2  0  0  0  0  0  0
  189.4820  177.1110  141.8490 C   0  0  0  0  0  0  0  0  0  0  0  0
  191.9220  177.1010  143.7800 O   0  0  0  0  0  1  0  0  0  0  0  0
  191.5240  179.4370  144.0750 C   0  0  0  0  0  1  0  0  0  0  0  0
  190.9390  178.0860  143.7090 C   0  0  1  0  0  3  0  0  0  0  0  0
  189.8800  177.8750  139.5840 N   0  0  0  0  0  2  0  0  0  0  0  0
  191.2280  176.1670  136.5360 C   0  0  0  0  0  3  0  0  0  0  0  0
  192.4940  175.7890  136.9830 C   0  0  0  0  0  3  0  0  0  0  0  0
  190.7450  177.1500  138.7020 C   0  0  0  0  0  0  0  0  0  0  0  0
  192.8920  176.0890  138.2830 C   0  0  0  0  0  3  0  0  0  0  0  0
  192.0230  176.7680  139.1360 C   0  0  0  0  0  3  0  0  0  0  0  0
  190.3360  176.8490  137.3790 C   0  0  0  0  0  0  0  0  0  0  0  0
  187.8430  175.1200  137.1680 N   0  0  0  0  0  0  0  0  0  0  0  0
  187.1270  178.3540  136.0270 C   0  0  0  0  0  3  0  0  0  0  0  0
  187.9200  176.4270  136.8100 C   0  0  0  0  0  0  0  0  0  0  0  0
  185.6220  176.4270  136.1760 C   0  0  0  0  0  0  0  0  0  0  0  0
  188.9860  177.2150  136.8690 C   0  0  0  0  0  0  0  0  0  0  0  0
  185.5580  175.1160  136.5440 N   0  0  0  0  0  0  0  0  0  0  0  0
  186.6530  174.4630  137.0360 C   0  0  0  0  0  0  0  0  0  0  0  0
  186.5520  173.0310  137.4170 C   0  0  0  0  0  1  0  0  0  0  0  0
  184.4670  177.0870  135.6710 N   0  0  0  0  0  1  0  0  0  0  0  0
  188.5760  178.5700  136.3600 C   0  0  0  0  0  2  0  0  0  0  0  0
  186.8370  177.0950  136.3140 C   0  0  0  0  0  0  0  0  0  0  0  0
  1 22  1  6  0  0  0
  1  3  1  0  0  0  0
  1 18  1  0  0  0  0
  2  6  2  0  0  0  0
  3  5  1  0  0  0  0
  4  3  2  0  0  0  0
  5  6  1  0  0  0  0
  6  7  1  0  0  0  0
  7  8  1  0  0  0  0
  8  9  1  0  0  0  0
 10 12  2  0  0  0  0
 11 15  2  0  0  0  0
 12 15  1  0  0  0  0
 13 14  1  0  0  0  0
 13 10  1  0  0  0  0
 14  9  1  6  0  0  0
 14 11  1  0  0  0  0
 17 21  1  0  0  0  0
 18 17  1  0  0  0  0
 18 16  2  0  0  0  0
 21 19  1  0  0  0  0
 21 20  1  6  0  0  0
 23 24  2  0  0  0  0
 23 28  1  0  0  0  0
 24 26  1  0  0  0  0
 25 27  1  0  0  0  0
 25 22  1  0  0  0  0
 26 27  2  0  0  0  0
 28 25  2  0  0  0  0
 30 39  2  0  0  0  0
 30 38  1  0  0  0  0
 31 33  2  0  0  0  0
 31 29  1  0  0  0  0
 32 39  1  0  0  0  0
 32 34  2  0  0  0  0
 33 28  1  0  0  0  0
 34 35  1  0  0  0  0
 35 29  2  0  0  0  0
 35 36  1  0  0  0  0
 37 32  1  0  0  0  0
 38 33  1  0  0  0  0
 39 31  1  0  0  0  0
M  END
>  <MODEL>
1

>  <REMARK>
 VINA RESULT:      -8.9      0.000      0.000
  Name = 
  10 active torsions:
  status: ('A' for Active; 'I' for Inactive)
    1  A    between atoms: C_1  and  C_9
    2  A    between atoms: C_1  and  C_22
    3  A    between atoms: C_1  and  N_31
    4  A    between atoms: C_2  and  C_34
    5  A    between atoms: C_2  and  C_35
    6  A    between atoms: C_13  and  N_31
    7  A    between atoms: C_15  and  C_33
    8  A    between atoms: N_18  and  C_37
    9  A    between atoms: C_25  and  O_32
   10  A    between atoms: O_32  and  C_34
                            x       y       z     vdW  Elec       q    Type
                         _______ _______ _______ _____ _____    ______ ____

>  <TORSDO>
F 10

$$$$
=
 OpenBabel10232412083D

 39 42  0  0  1  0  0  0  0  0999 V2000
  185.1550  178.8890  140.7610 C   0  0  2  0  0  3  0  0  0  0  0  0
  181.1270  177.7730  139.4240 O   0  0  0  0  0  0  0  0  0  0  0  0
  183.7910  178.3770  140.4200 C   0  0  0  0  0  0  0  0  0  0  0  0
  183.5590  177.1370  140.4220 O   0  0  0  0  0  0  0  0  0  0  0  0
  182.7670  179.3170  140.0760 N   0  0  0  0  0  2  0  0  0  0  0  0
  181.4570  178.9740  139.6120 C   0  0  0  0  0  0  0  0  0  0  0  0
  180.4640  180.0570  139.3580 C   0  0  0  0  0  2  0  0  0  0  0  0
  180.7930  180.7970  138.0720 C   0  0  0  0  0  2  0  0  0  0  0  0
  181.3010  182.0660  138.3660 O   0  0  0  0  0  0  0  0  0  0  0  0
  181.0170  185.0740  136.2070 C   0  0  0  0  0  3  0  0  0  0  0  0
  180.6440  182.2650  136.0950 C   0  0  0  0  0  3  0  0  0  0  0  0
  180.6510  184.4800  135.0680 C   0  0  0  0  0  3  0  0  0  0  0  0
  181.4570  184.2490  137.3890 C   0  0  0  0  0  2  0  0  0  0  0  0
  180.6900  182.9220  137.4500 C   0  0  2  0  0  3  0  0  0  0  0  0
  180.5870  183.0070  134.9840 C   0  0  0  0  0  3  0  0  0  0  0  0
  185.6200  178.8190  138.4310 O   0  0  0  0  0  0  0  0  0  0  0  0
  187.4630  178.4250  139.8180 N   0  0  0  0  0  2  0  0  0  0  0  0
  186.0790  178.7210  139.6010 C   0  0  0  0  0  0  0  0  0  0  0  0
  188.9030  179.4400  138.2770 O   0  0  0  0  0  1  0  0  0  0  0  0
  189.5940  177.3640  139.2350 C   0  0  0  0  0  1  0  0  0  0  0  0
  188.4350  178.2150  138.7500 C   0  0  1  0  0  3  0  0  0  0  0  0
  185.6900  178.2090  141.9360 N   0  0  0  0  0  2  0  0  0  0  0  0
  185.4160  178.2320  145.6720 C   0  0  0  0  0  3  0  0  0  0  0  0
  184.1200  178.7180  145.8390 C   0  0  0  0  0  3  0  0  0  0  0  0
  185.1640  178.3540  143.2610 C   0  0  0  0  0  0  0  0  0  0  0  0
  183.3430  179.0270  144.7250 C   0  0  0  0  0  3  0  0  0  0  0  0
  183.8640  178.8490  143.4440 C   0  0  0  0  0  3  0  0  0  0  0  0
  185.9590  178.0410  144.3900 C   0  0  0  0  0  0  0  0  0  0  0  0
  188.1790  177.9370  146.4680 N   0  0  0  0  0  0  0  0  0  0  0  0
  189.2960  176.4810  143.4840 C   0  0  0  0  0  3  0  0  0  0  0  0
  188.2720  177.4620  145.1990 C   0  0  0  0  0  0  0  0  0  0  0  0
  190.5100  176.7410  145.5960 C   0  0  0  0  0  0  0  0  0  0  0  0
  187.3390  177.4990  144.2560 C   0  0  0  0  0  0  0  0  0  0  0  0
  190.4000  177.2180  146.8680 N   0  0  0  0  0  2  0  0  0  0  0  0
  189.2490  177.8110  147.3060 C   0  0  0  0  0  0  0  0  0  0  0  0
  189.1660  178.3300  148.6950 C   0  0  0  0  0  1  0  0  0  0  0  0
  191.7170  176.1240  145.1640 N   0  0  0  0  0  1  0  0  0  0  0  0
  187.9150  176.8550  143.0250 C   0  0  0  0  0  3  0  0  0  0  0  0
  189.4150  176.8690  144.7440 C   0  0  0  0  0  0  0  0  0  0  0  0
  1 18  1  6  0  0  0
  1 22  1  0  0  0  0
  2  6  2  0  0  0  0
  3  4  2  0  0  0  0
  3  1  1  0  0  0  0
  5  3  1  0  0  0  0
  6  5  1  0  0  0  0
  7  6  1  0  0  0  0
  8  9  1  0  0  0  0
  8  7  1  0  0  0  0
 10 13  1  0  0  0  0
 11 14  1  0  0  0  0
 12 10  2  0  0  0  0
 13 14  1  0  0  0  0
 14  9  1  1  0  0  0
 15 12  1  0  0  0  0
 15 11  2  0  0  0  0
 16 18  2  0  0  0  0
 18 17  1  0  0  0  0
 19 21  1  0  0  0  0
 21 20  1  1  0  0  0
 21 17  1  0  0  0  0
 22 25  1  0  0  0  0
 23 24  1  0  0  0  0
 25 27  2  0  0  0  0
 25 28  1  0  0  0  0
 26 24  2  0  0  0  0
 27 26  1  0  0  0  0
 28 23  2  0  0  0  0
 29 35  2  0  0  0  0
 30 39  1  0  0  0  0
 31 29  1  0  0  0  0
 32 34  1  0  0  0  0
 33 28  1  0  0  0  0
 33 31  2  0  0  0  0
 34 35  1  0  0  0  0
 35 36  1  0  0  0  0
 37 32  1  0  0  0  0
 38 30  2  0  0  0  0
 38 33  1  0  0  0  0
 39 31  1  0  0  0  0
 39 32  2  0  0  0  0
M  END
>  <MODEL>
2

>  <REMARK>
 VINA RESULT:      -8.8      4.315      9.456
  Name = 
  10 active torsions:
  status: ('A' for Active; 'I' for Inactive)
    1  A    between atoms: C_1  and  C_9
    2  A    between atoms: C_1  and  C_22
    3  A    between atoms: C_1  and  N_31
    4  A    between atoms: C_2  and  C_34
    5  A    between atoms: C_2  and  C_35
    6  A    between atoms: C_13  and  N_31
    7  A    between atoms: C_15  and  C_33
    8  A    between atoms: N_18  and  C_37
    9  A    between atoms: C_25  and  O_32
   10  A    between atoms: O_32  and  C_34
                            x       y       z     vdW  Elec       q    Type
                         _______ _______ _______ _____ _____    ______ ____

>  <TORSDO>
F 10

$$$$
=
 OpenBabel10232412083D

 39 42  0  0  1  0  0  0  0  0999 V2000
  189.3090  177.4100  139.9740 C   0  0  2  0  0  3  0  0  0  0  0  0
  193.4580  176.9000  138.6400 O   0  0  0  0  0  0  0  0  0  0  0  0
  190.7650  177.2170  139.6870 C   0  0  0  0  0  0  0  0  0  0  0  0
  191.6340  177.6690  140.4820 O   0  0  0  0  0  0  0  0  0  0  0  0
  191.1480  176.5290  138.4910 N   0  0  0  0  0  2  0  0  0  0  0  0
  192.4920  176.3740  138.0250 C   0  0  0  0  0  0  0  0  0  0  0  0
  192.7520  175.5700  136.7970 C   0  0  0  0  0  2  0  0  0  0  0  0
  194.1540  174.9840  136.8250 C   0  0  0  0  0  2  0  0  0  0  0  0
  194.2160  173.9360  137.7480 O   0  0  0  0  0  0  0  0  0  0  0  0
  197.8510  174.6100  137.3880 C   0  0  0  0  0  3  0  0  0  0  0  0
  195.8660  174.3650  139.3990 C   0  0  0  0  0  3  0  0  0  0  0  0
  198.1560  174.8010  138.6750 C   0  0  0  0  0  3  0  0  0  0  0  0
  196.4130  174.4840  136.9580 C   0  0  0  0  0  2  0  0  0  0  0  0
  195.5730  173.7890  138.0380 C   0  0  2  0  0  3  0  0  0  0  0  0
  197.0940  174.8020  139.6990 C   0  0  0  0  0  3  0  0  0  0  0  0
  189.0100  179.2960  138.5570 O   0  0  0  0  0  0  0  0  0  0  0  0
  187.5890  177.4910  138.1110 N   0  0  0  0  0  2  0  0  0  0  0  0
  188.6460  178.1240  138.8420 C   0  0  0  0  0  0  0  0  0  0  0  0
  187.6790  178.2110  135.8860 O   0  0  0  0  0  1  0  0  0  0  0  0
  185.6060  177.3350  136.6820 C   0  0  0  0  0  1  0  0  0  0  0  0
  186.8630  178.1170  137.0120 C   0  0  1  0  0  3  0  0  0  0  0  0
  189.1140  178.1450  141.2190 N   0  0  0  0  0  2  0  0  0  0  0  0
  186.7400  177.6770  144.0780 C   0  0  0  0  0  3  0  0  0  0  0  0
  185.5470  178.1160  143.5060 C   0  0  0  0  0  3  0  0  0  0  0  0
  187.9110  178.1080  141.9970 C   0  0  0  0  0  0  0  0  0  0  0  0
  185.5280  178.5550  142.1840 C   0  0  0  0  0  3  0  0  0  0  0  0
  186.7040  178.5540  141.4360 C   0  0  0  0  0  3  0  0  0  0  0  0
  187.9350  177.6640  143.3410 C   0  0  0  0  0  0  0  0  0  0  0  0
  188.7440  177.7640  146.2720 N   0  0  0  0  0  0  0  0  0  0  0  0
  191.2560  176.1770  144.4170 C   0  0  0  0  0  3  0  0  0  0  0  0
  189.4860  177.2190  145.2740 C   0  0  0  0  0  0  0  0  0  0  0  0
  191.1890  176.6060  146.8270 C   0  0  0  0  0  0  0  0  0  0  0  0
  189.1830  177.1660  143.9830 C   0  0  0  0  0  0  0  0  0  0  0  0
  190.4310  177.1540  147.8190 N   0  0  0  0  0  2  0  0  0  0  0  0
  189.2190  177.7290  147.5510 C   0  0  0  0  0  0  0  0  0  0  0  0
  188.4240  178.3250  148.6540 C   0  0  0  0  0  1  0  0  0  0  0  0
  192.4440  176.0090  147.1310 N   0  0  0  0  0  1  0  0  0  0  0  0
  190.3170  176.4720  143.2800 C   0  0  0  0  0  3  0  0  0  0  0  0
  190.7000  176.6430  145.5230 C   0  0  0  0  0  0  0  0  0  0  0  0
  1 18  1  6  0  0  0
  1 22  1  0  0  0  0
  3  1  1  0  0  0  0
  3  4  2  0  0  0  0
  5  3  1  0  0  0  0
  6  5  1  0  0  0  0
  6  2  2  0  0  0  0
  7  8  1  0  0  0  0
  7  6  1  0  0  0  0
  8  9  1  0  0  0  0
 10 12  2  0  0  0  0
 11 15  2  0  0  0  0
 12 15  1  0  0  0  0
 13 10  1  0  0  0  0
 13 14  1  0  0  0  0
 14  9  1  6  0  0  0
 14 11  1  0  0  0  0
 16 18  2  0  0  0  0
 17 18  1  0  0  0  0
 19 21  1  0  0  0  0
 21 20  1  6  0  0  0
 21 17  1  0  0  0  0
 22 25  1  0  0  0  0
 24 23  1  0  0  0  0
 25 28  1  0  0  0  0
 26 24  2  0  0  0  0
 27 25  2  0  0  0  0
 27 26  1  0  0  0  0
 28 33  1  0  0  0  0
 28 23  2  0  0  0  0
 29 35  2  0  0  0  0
 30 39  1  0  0  0  0
 31 39  1  0  0  0  0
 31 29  1  0  0  0  0
 32 37  1  0  0  0  0
 32 34  1  0  0  0  0
 33 31  2  0  0  0  0
 35 34  1  0  0  0  0
 35 36  1  0  0  0  0
 38 33  1  0  0  0  0
 38 30  2  0  0  0  0
 39 32  2  0  0  0  0
M  END
>  <MODEL>
3

>  <REMARK>
 VINA RESULT:      -8.6      3.073      9.482
  Name = 
  10 active torsions:
  status: ('A' for Active; 'I' for Inactive)
    1  A    between atoms: C_1  and  C_9
    2  A    between atoms: C_1  and  C_22
    3  A    between atoms: C_1  and  N_31
    4  A    between atoms: C_2  and  C_34
    5  A    between atoms: C_2  and  C_35
    6  A    between atoms: C_13  and  N_31
    7  A    between atoms: C_15  and  C_33
    8  A    between atoms: N_18  and  C_37
    9  A    between atoms: C_25  and  O_32
   10  A    between atoms: O_32  and  C_34
                            x       y       z     vdW  Elec       q    Type
                         _______ _______ _______ _____ _____    ______ ____

>  <TORSDO>
F 10

$$$$
=
 OpenBabel10232412083D

 39 42  0  0  1  0  0  0  0  0999 V2000
  185.8580  178.9790  141.1080 C   0  0  2  0  0  3  0  0  0  0  0  0
  182.2700  178.7250  138.5950 O   0  0  0  0  0  0  0  0  0  0  0  0
  184.7260  178.9780  140.1300 C   0  0  0  0  0  0  0  0  0  0  0  0
  184.5470  179.9660  139.3650 O   0  0  0  0  0  0  0  0  0  0  0  0
  183.8470  177.8480  140.0920 N   0  0  0  0  0  2  0  0  0  0  0  0
  182.6580  177.7560  139.3000 C   0  0  0  0  0  0  0  0  0  0  0  0
  181.8740  176.4890  139.3040 C   0  0  0  0  0  2  0  0  0  0  0  0
  182.5930  175.4080  138.5140 C   0  0  0  0  0  2  0  0  0  0  0  0
  182.8670  175.8640  137.2210 O   0  0  0  0  0  0  0  0  0  0  0  0
  186.4570  174.9960  136.8250 C   0  0  0  0  0  3  0  0  0  0  0  0
  183.9900  173.7990  137.5500 C   0  0  0  0  0  3  0  0  0  0  0  0
  186.4050  173.7160  137.2040 C   0  0  0  0  0  3  0  0  0  0  0  0
  185.2540  175.8880  136.9900 C   0  0  0  0  0  2  0  0  0  0  0  0
  183.9520  175.0990  136.7910 C   0  0  2  0  0  3  0  0  0  0  0  0
  185.1420  173.1380  137.7050 C   0  0  0  0  0  3  0  0  0  0  0  0
  188.2340  179.0070  141.0140 O   0  0  0  0  0  0  0  0  0  0  0  0
  187.1750  178.3520  139.0330 N   0  0  0  0  0  2  0  0  0  0  0  0
  187.1580  178.7760  140.4010 C   0  0  0  0  0  0  0  0  0  0  0  0
  188.8550  176.8490  138.4000 O   0  0  0  0  0  1  0  0  0  0  0  0
  188.1430  178.4570  136.7840 C   0  0  0  0  0  1  0  0  0  0  0  0
  188.3910  178.1550  138.2500 C   0  0  1  0  0  3  0  0  0  0  0  0
  185.6710  177.9510  142.1270 N   0  0  0  0  0  2  0  0  0  0  0  0
  185.4720  178.2940  145.8510 C   0  0  0  0  0  3  0  0  0  0  0  0
  184.1740  178.7810  146.0030 C   0  0  0  0  0  3  0  0  0  0  0  0
  185.1700  178.2060  143.4450 C   0  0  0  0  0  0  0  0  0  0  0  0
  183.3720  178.9850  144.8840 C   0  0  0  0  0  3  0  0  0  0  0  0
  183.8690  178.7020  143.6120 C   0  0  0  0  0  3  0  0  0  0  0  0
  185.9910  177.9990  144.5800 C   0  0  0  0  0  0  0  0  0  0  0  0
  188.1920  177.9250  146.6790 N   0  0  0  0  0  0  0  0  0  0  0  0
  189.3430  176.4420  143.7210 C   0  0  0  0  0  3  0  0  0  0  0  0
  188.2990  177.4370  145.4160 C   0  0  0  0  0  0  0  0  0  0  0  0
  190.5360  176.7280  145.8400 C   0  0  0  0  0  0  0  0  0  0  0  0
  187.3740  177.4610  144.4640 C   0  0  0  0  0  0  0  0  0  0  0  0
  190.4130  177.2190  147.1060 N   0  0  0  0  0  2  0  0  0  0  0  0
  189.2550  177.8120  147.5280 C   0  0  0  0  0  0  0  0  0  0  0  0
  189.1580  178.3450  148.9110 C   0  0  0  0  0  1  0  0  0  0  0  0
  191.7490  176.1110  145.4250 N   0  0  0  0  0  1  0  0  0  0  0  0
  187.9640  176.8060  143.2450 C   0  0  0  0  0  3  0  0  0  0  0  0
  189.4480  176.8440  144.9770 C   0  0  0  0  0  0  0  0  0  0  0  0
  1  3  1  6  0  0  0
  1 22  1  0  0  0  0
  2  6  2  0  0  0  0
  4  3  2  0  0  0  0
  5  3  1  0  0  0  0
  6  7  1  0  0  0  0
  6  5  1  0  0  0  0
  8  7  1  0  0  0  0
  9  8  1  0  0  0  0
 10 13  1  0  0  0  0
 10 12  2  0  0  0  0
 11 15  2  0  0  0  0
 12 15  1  0  0  0  0
 14 13  1  0  0  0  0
 14  9  1  1  0  0  0
 14 11  1  0  0  0  0
 17 18  1  0  0  0  0
 18 16  2  0  0  0  0
 18  1  1  0  0  0  0
 21 20  1  6  0  0  0
 21 19  1  0  0  0  0
 21 17  1  0  0  0  0
 22 25  1  0  0  0  0
 23 24  1  0  0  0  0
 25 27  2  0  0  0  0
 25 28  1  0  0  0  0
 26 24  2  0  0  0  0
 27 26  1  0  0  0  0
 28 23  2  0  0  0  0
 29 35  2  0  0  0  0
 30 39  1  0  0  0  0
 31 29  1  0  0  0  0
 32 34  1  0  0  0  0
 33 28  1  0  0  0  0
 33 31  2  0  0  0  0
 34 35  1  0  0  0  0
 35 36  1  0  0  0  0
 37 32  1  0  0  0  0
 38 30  2  0  0  0  0
 38 33  1  0  0  0  0
 39 31  1  0  0  0  0
 39 32  2  0  0  0  0
M  END
>  <MODEL>
4

>  <REMARK>
 VINA RESULT:      -8.5      2.755      8.682
  Name = 
  10 active torsions:
  status: ('A' for Active; 'I' for Inactive)
    1  A    between atoms: C_1  and  C_9
    2  A    between atoms: C_1  and  C_22
    3  A    between atoms: C_1  and  N_31
    4  A    between atoms: C_2  and  C_34
    5  A    between atoms: C_2  and  C_35
    6  A    between atoms: C_13  and  N_31
    7  A    between atoms: C_15  and  C_33
    8  A    between atoms: N_18  and  C_37
    9  A    between atoms: C_25  and  O_32
   10  A    between atoms: O_32  and  C_34
                            x       y       z     vdW  Elec       q    Type
                         _______ _______ _______ _____ _____    ______ ____

>  <TORSDO>
F 10

$$$$
=
 OpenBabel10232412083D

 39 42  0  0  1  0  0  0  0  0999 V2000
  186.9910  177.7700  139.1230 C   0  0  2  0  0  3  0  0  0  0  0  0
  191.0460  177.6710  140.7970 O   0  0  0  0  0  0  0  0  0  0  0  0
  188.3820  177.9060  139.6580 C   0  0  0  0  0  0  0  0  0  0  0  0
  189.1990  178.6960  139.1080 O   0  0  0  0  0  0  0  0  0  0  0  0
  188.7680  177.1150  140.7870 N   0  0  0  0  0  2  0  0  0  0  0  0
  190.0900  177.0480  141.3320 C   0  0  0  0  0  0  0  0  0  0  0  0
  190.3350  176.2360  142.5570 C   0  0  0  0  0  2  0  0  0  0  0  0
  189.3740  176.6310  143.6660 C   0  0  0  0  0  2  0  0  0  0  0  0
  190.0820  176.8890  144.8430 O   0  0  0  0  0  0  0  0  0  0  0  0
  186.8040  178.0160  146.1770 C   0  0  0  0  0  3  0  0  0  0  0  0
  189.4060  177.3310  147.0750 C   0  0  0  0  0  3  0  0  0  0  0  0
  187.0990  178.0210  147.4800 C   0  0  0  0  0  3  0  0  0  0  0  0
  187.7710  177.4340  145.1790 C   0  0  0  0  0  2  0  0  0  0  0  0
  189.2230  177.6690  145.6180 C   0  0  2  0  0  3  0  0  0  0  0  0
  188.4130  177.5360  147.9470 C   0  0  0  0  0  3  0  0  0  0  0  0
  187.0200  178.7630  136.9630 O   0  0  0  0  0  0  0  0  0  0  0  0
  186.9950  176.4230  136.9730 N   0  0  0  0  0  2  0  0  0  0  0  0
  187.0130  177.6950  137.6310 C   0  0  0  0  0  0  0  0  0  0  0  0
  187.7770  175.1610  135.1630 O   0  0  0  0  0  1  0  0  0  0  0  0
  185.5680  176.0550  135.0160 C   0  0  0  0  0  1  0  0  0  0  0  0
  186.9840  176.2490  135.5250 C   0  0  1  0  0  3  0  0  0  0  0  0
  186.1500  178.8780  139.5610 N   0  0  0  0  0  2  0  0  0  0  0  0
  183.1660  178.3740  141.7680 C   0  0  0  0  0  3  0  0  0  0  0  0
  183.6980  178.7080  143.0130 C   0  0  0  0  0  3  0  0  0  0  0  0
  185.3030  178.8390  140.7170 C   0  0  0  0  0  0  0  0  0  0  0  0
  185.0290  179.1050  143.1180 C   0  0  0  0  0  3  0  0  0  0  0  0
  185.8270  179.1660  141.9760 C   0  0  0  0  0  3  0  0  0  0  0  0
  183.9510  178.4320  140.6050 C   0  0  0  0  0  0  0  0  0  0  0  0
  182.2440  180.1700  138.7830 N   0  0  0  0  0  0  0  0  0  0  0  0
  182.6860  177.0170  137.3200 C   0  0  0  0  0  3  0  0  0  0  0  0
  182.6090  178.8880  138.5240 C   0  0  0  0  0  0  0  0  0  0  0  0
  181.4530  178.9410  136.4390 C   0  0  0  0  0  0  0  0  0  0  0  0
  183.3370  178.0880  139.2930 C   0  0  0  0  0  0  0  0  0  0  0  0
  181.0970  180.2290  136.7110 N   0  0  0  0  0  0  0  0  0  0  0  0
  181.4860  180.8430  137.8690 C   0  0  0  0  0  0  0  0  0  0  0  0
  181.0720  182.2440  138.1390 C   0  0  0  0  0  1  0  0  0  0  0  0
  181.0400  178.3250  135.2250 N   0  0  0  0  0  1  0  0  0  0  0  0
  183.4660  176.7690  138.5810 C   0  0  0  0  0  2  0  0  0  0  0  0
  182.2280  178.2570  137.3740 C   0  0  0  0  0  0  0  0  0  0  0  0
  1 18  1  6  0  0  0
  1 22  1  0  0  0  0
  1  3  1  0  0  0  0
  2  6  2  0  0  0  0
  3  5  1  0  0  0  0
  4  3  2  0  0  0  0
  5  6  1  0  0  0  0
  6  7  1  0  0  0  0
  7  8  1  0  0  0  0
  8  9  1  0  0  0  0
 10 12  2  0  0  0  0
 11 15  2  0  0  0  0
 12 15  1  0  0  0  0
 13 14  1  0  0  0  0
 13 10  1  0  0  0  0
 14  9  1  6  0  0  0
 14 11  1  0  0  0  0
 16 18  2  0  0  0  0
 17 18  1  0  0  0  0
 19 21  1  0  0  0  0
 21 20  1  1  0  0  0
 21 17  1  0  0  0  0
 22 25  1  0  0  0  0
 23 24  1  0  0  0  0
 24 26  2  0  0  0  0
 25 27  2  0  0  0  0
 27 26  1  0  0  0  0
 28 25  1  0  0  0  0
 28 23  2  0  0  0  0
 30 39  2  0  0  0  0
 30 38  1  0  0  0  0
 31 29  1  0  0  0  0
 31 33  2  0  0  0  0
 32 34  2  0  0  0  0
 32 39  1  0  0  0  0
 33 28  1  0  0  0  0
 34 35  1  0  0  0  0
 35 36  1  0  0  0  0
 35 29  2  0  0  0  0
 37 32  1  0  0  0  0
 38 33  1  0  0  0  0
 39 31  1  0  0  0  0
M  END
>  <MODEL>
5

>  <REMARK>
 VINA RESULT:      -8.4      2.965      6.305
  Name = 
  10 active torsions:
  status: ('A' for Active; 'I' for Inactive)
    1  A    between atoms: C_1  and  C_9
    2  A    between atoms: C_1  and  C_22
    3  A    between atoms: C_1  and  N_31
    4  A    between atoms: C_2  and  C_34
    5  A    between atoms: C_2  and  C_35
    6  A    between atoms: C_13  and  N_31
    7  A    between atoms: C_15  and  C_33
    8  A    between atoms: N_18  and  C_37
    9  A    between atoms: C_25  and  O_32
   10  A    between atoms: O_32  and  C_34
                            x       y       z     vdW  Elec       q    Type
                         _______ _______ _______ _____ _____    ______ ____

>  <TORSDO>
F 10

$$$$
=
 OpenBabel10232412083D

 39 42  0  0  1  0  0  0  0  0999 V2000
  186.8790  177.9590  139.3020 C   0  0  2  0  0  3  0  0  0  0  0  0
  190.9790  177.6640  140.8380 O   0  0  0  0  0  0  0  0  0  0  0  0
  188.2910  178.0290  139.7920 C   0  0  0  0  0  0  0  0  0  0  0  0
  189.1240  178.7880  139.2230 O   0  0  0  0  0  0  0  0  0  0  0  0
  188.6800  177.2090  140.8990 N   0  0  0  0  0  2  0  0  0  0  0  0
  190.0150  177.0780  141.3990 C   0  0  0  0  0  0  0  0  0  0  0  0
  190.2650  176.2420  142.6070 C   0  0  0  0  0  2  0  0  0  0  0  0
  189.3930  176.6970  143.7660 C   0  0  0  0  0  2  0  0  0  0  0  0
  190.1740  176.8710  144.9120 O   0  0  0  0  0  0  0  0  0  0  0  0
  187.0520  178.0240  146.5610 C   0  0  0  0  0  3  0  0  0  0  0  0
  189.7330  177.3480  147.1950 C   0  0  0  0  0  3  0  0  0  0  0  0
  187.4810  178.0480  147.8260 C   0  0  0  0  0  3  0  0  0  0  0  0
  187.9110  177.4250  145.4780 C   0  0  0  0  0  2  0  0  0  0  0  0
  189.4000  177.6640  145.7600 C   0  0  2  0  0  3  0  0  0  0  0  0
  188.8360  177.5680  148.1620 C   0  0  0  0  0  3  0  0  0  0  0  0
  186.4520  179.1140  137.2690 O   0  0  0  0  0  0  0  0  0  0  0  0
  187.2110  176.9150  137.0140 N   0  0  0  0  0  2  0  0  0  0  0  0
  186.8400  178.0450  137.8120 C   0  0  0  0  0  0  0  0  0  0  0  0
  188.1880  176.0700  135.0620 O   0  0  0  0  0  1  0  0  0  0  0  0
  185.8260  176.4190  135.0560 C   0  0  0  0  0  1  0  0  0  0  0  0
  187.1780  176.8930  135.5560 C   0  0  1  0  0  3  0  0  0  0  0  0
  186.0680  179.0190  139.8920 N   0  0  0  0  0  2  0  0  0  0  0  0
  183.0530  178.5420  142.0620 C   0  0  0  0  0  3  0  0  0  0  0  0
  183.6450  178.4470  143.3210 C   0  0  0  0  0  3  0  0  0  0  0  0
  185.2350  178.8490  141.0450 C   0  0  0  0  0  0  0  0  0  0  0  0
  185.0280  178.5490  143.4490 C   0  0  0  0  0  3  0  0  0  0  0  0
  185.8180  178.7450  142.3170 C   0  0  0  0  0  3  0  0  0  0  0  0
  183.8290  178.7430  140.9090 C   0  0  0  0  0  0  0  0  0  0  0  0
  183.5320  176.6460  138.7250 N   0  0  0  0  0  0  0  0  0  0  0  0
  181.9440  179.6060  137.7320 C   0  0  0  0  0  3  0  0  0  0  0  0
  183.0370  177.9090  138.6690 C   0  0  0  0  0  0  0  0  0  0  0  0
  182.1080  177.4870  136.5140 C   0  0  0  0  0  0  0  0  0  0  0  0
  183.1540  178.8600  139.5870 C   0  0  0  0  0  0  0  0  0  0  0  0
  182.6070  176.2210  136.5870 N   0  0  0  0  0  0  0  0  0  0  0  0
  183.3130  175.7980  137.6790 C   0  0  0  0  0  0  0  0  0  0  0  0
  183.8520  174.4150  137.7210 C   0  0  0  0  0  1  0  0  0  0  0  0
  181.3730  177.9040  135.3690 N   0  0  0  0  0  1  0  0  0  0  0  0
  182.4460  180.0810  139.0670 C   0  0  0  0  0  2  0  0  0  0  0  0
  182.3320  178.3500  137.5850 C   0  0  0  0  0  0  0  0  0  0  0  0
  1 18  1  6  0  0  0
  1  3  1  0  0  0  0
  1 22  1  0  0  0  0
  2  6  2  0  0  0  0
  3  5  1  0  0  0  0
  4  3  2  0  0  0  0
  5  6  1  0  0  0  0
  6  7  1  0  0  0  0
  7  8  1  0  0  0  0
  8  9  1  0  0  0  0
 10 12  2  0  0  0  0
 11 15  2  0  0  0  0
 12 15  1  0  0  0  0
 13 14  1  0  0  0  0
 13 10  1  0  0  0  0
 14  9  1  6  0  0  0
 14 11  1  0  0  0  0
 16 18  2  0  0  0  0
 17 18  1  0  0  0  0
 19 21  1  0  0  0  0
 21 20  1  1  0  0  0
 21 17  1  0  0  0  0
 22 25  1  0  0  0  0
 23 24  1  0  0  0  0
 24 26  2  0  0  0  0
 25 27  2  0  0  0  0
 27 26  1  0  0  0  0
 28 25  1  0  0  0  0
 28 23  2  0  0  0  0
 30 38  1  0  0  0  0
 31 29  1  0  0  0  0
 31 33  2  0  0  0  0
 32 34  2  0  0  0  0
 32 39  1  0  0  0  0
 33 28  1  0  0  0  0
 34 35  1  0  0  0  0
 35 36  1  0  0  0  0
 35 29  2  0  0  0  0
 37 32  1  0  0  0  0
 38 33  1  0  0  0  0
 39 30  2  0  0  0  0
 39 31  1  0  0  0  0
M  END
>  <MODEL>
6

>  <REMARK>
 VINA RESULT:      -8.4      2.486      5.820
  Name = 
  10 active torsions:
  status: ('A' for Active; 'I' for Inactive)
    1  A    between atoms: C_1  and  C_9
    2  A    between atoms: C_1  and  C_22
    3  A    between atoms: C_1  and  N_31
    4  A    between atoms: C_2  and  C_34
    5  A    between atoms: C_2  and  C_35
    6  A    between atoms: C_13  and  N_31
    7  A    between atoms: C_15  and  C_33
    8  A    between atoms: N_18  and  C_37
    9  A    between atoms: C_25  and  O_32
   10  A    between atoms: O_32  and  C_34
                            x       y       z     vdW  Elec       q    Type
                         _______ _______ _______ _____ _____    ______ ____

>  <TORSDO>
F 10

$$$$
=
 OpenBabel10232412083D

 39 42  0  0  1  0  0  0  0  0999 V2000
  189.3870  177.3720  139.9710 C   0  0  2  0  0  3  0  0  0  0  0  0
  193.5650  176.9260  138.7090 O   0  0  0  0  0  0  0  0  0  0  0  0
  190.8490  177.1960  139.7090 C   0  0  0  0  0  0  0  0  0  0  0  0
  191.6990  177.6320  140.5340 O   0  0  0  0  0  0  0  0  0  0  0  0
  191.2610  176.5440  138.5030 N   0  0  0  0  0  2  0  0  0  0  0  0
  192.6160  176.4110  138.0600 C   0  0  0  0  0  0  0  0  0  0  0  0
  192.9060  175.6430  136.8160 C   0  0  0  0  0  2  0  0  0  0  0  0
  191.8660  174.5560  136.5990 C   0  0  0  0  0  2  0  0  0  0  0  0
  191.1040  174.8430  135.4630 O   0  0  0  0  0  0  0  0  0  0  0  0
  187.4520  174.2880  135.0850 C   0  0  0  0  0  3  0  0  0  0  0  0
  189.6030  173.5710  136.7900 C   0  0  0  0  0  3  0  0  0  0  0  0
  187.2580  173.4620  136.1180 C   0  0  0  0  0  3  0  0  0  0  0  0
  188.8480  174.6740  134.6710 C   0  0  0  0  0  2  0  0  0  0  0  0
  189.7780  174.7650  135.8880 C   0  0  2  0  0  3  0  0  0  0  0  0
  188.4050  172.9910  136.9190 C   0  0  0  0  0  3  0  0  0  0  0  0
  189.0150  179.2560  138.5690 O   0  0  0  0  0  0  0  0  0  0  0  0
  187.7660  177.3550  138.0190 N   0  0  0  0  0  2  0  0  0  0  0  0
  188.7300  178.0540  138.8160 C   0  0  0  0  0  0  0  0  0  0  0  0
  187.8450  177.9090  135.7470 O   0  0  0  0  0  1  0  0  0  0  0  0
  185.7430  177.2160  136.6440 C   0  0  0  0  0  1  0  0  0  0  0  0
  187.0510  177.9440  136.8920 C   0  0  1  0  0  3  0  0  0  0  0  0
  189.1620  178.1280  141.1990 N   0  0  0  0  0  2  0  0  0  0  0  0
  186.7590  177.6440  144.0310 C   0  0  0  0  0  3  0  0  0  0  0  0
  185.5690  178.0740  143.4450 C   0  0  0  0  0  3  0  0  0  0  0  0
  187.9500  178.0820  141.9630 C   0  0  0  0  0  0  0  0  0  0  0  0
  185.5630  178.5110  142.1220 C   0  0  0  0  0  3  0  0  0  0  0  0
  186.7470  178.5180  141.3870 C   0  0  0  0  0  3  0  0  0  0  0  0
  187.9630  177.6400  143.3080 C   0  0  0  0  0  0  0  0  0  0  0  0
  188.7370  177.7510  146.2480 N   0  0  0  0  0  0  0  0  0  0  0  0
  191.2830  176.1810  144.4230 C   0  0  0  0  0  3  0  0  0  0  0  0
  189.4950  177.2100  145.2590 C   0  0  0  0  0  0  0  0  0  0  0  0
  191.1850  176.6120  146.8320 C   0  0  0  0  0  0  0  0  0  0  0  0
  189.2070  177.1530  143.9650 C   0  0  0  0  0  0  0  0  0  0  0  0
  190.4110  177.1550  147.8150 N   0  0  0  0  0  2  0  0  0  0  0  0
  189.1980  177.7200  147.5320 C   0  0  0  0  0  0  0  0  0  0  0  0
  188.3850  178.3120  148.6250 C   0  0  0  0  0  1  0  0  0  0  0  0
  192.4410  176.0260  147.1510 N   0  0  0  0  0  1  0  0  0  0  0  0
  190.3550  176.4670  143.2760 C   0  0  0  0  0  3  0  0  0  0  0  0
  190.7100  176.6440  145.5220 C   0  0  0  0  0  0  0  0  0  0  0  0
  1 18  1  6  0  0  0
  1 22  1  0  0  0  0
  3  1  1  0  0  0  0
  3  4  2  0  0  0  0
  5  3  1  0  0  0  0
  6  5  1  0  0  0  0
  6  2  2  0  0  0  0
  7  6  1  0  0  0  0
  8  7  1  0  0  0  0
  9  8  1  0  0  0  0
 10 12  2  0  0  0  0
 11 15  2  0  0  0  0
 12 15  1  0  0  0  0
 13 10  1  0  0  0  0
 13 14  1  0  0  0  0
 14  9  1  6  0  0  0
 14 11  1  0  0  0  0
 16 18  2  0  0  0  0
 17 18  1  0  0  0  0
 19 21  1  0  0  0  0
 21 20  1  6  0  0  0
 21 17  1  0  0  0  0
 22 25  1  0  0  0  0
 24 23  1  0  0  0  0
 25 28  1  0  0  0  0
 26 24  2  0  0  0  0
 27 25  2  0  0  0  0
 27 26  1  0  0  0  0
 28 33  1  0  0  0  0
 28 23  2  0  0  0  0
 29 35  2  0  0  0  0
 30 39  1  0  0  0  0
 31 39  1  0  0  0  0
 31 29  1  0  0  0  0
 32 37  1  0  0  0  0
 32 34  1  0  0  0  0
 33 31  2  0  0  0  0
 35 34  1  0  0  0  0
 35 36  1  0  0  0  0
 38 33  1  0  0  0  0
 38 30  2  0  0  0  0
 39 32  2  0  0  0  0
M  END
>  <MODEL>
7

>  <REMARK>
 VINA RESULT:      -8.4      2.643      9.243
  Name = 
  10 active torsions:
  status: ('A' for Active; 'I' for Inactive)
    1  A    between atoms: C_1  and  C_9
    2  A    between atoms: C_1  and  C_22
    3  A    between atoms: C_1  and  N_31
    4  A    between atoms: C_2  and  C_34
    5  A    between atoms: C_2  and  C_35
    6  A    between atoms: C_13  and  N_31
    7  A    between atoms: C_15  and  C_33
    8  A    between atoms: N_18  and  C_37
    9  A    between atoms: C_25  and  O_32
   10  A    between atoms: O_32  and  C_34
                            x       y       z     vdW  Elec       q    Type
                         _______ _______ _______ _____ _____    ______ ____

>  <TORSDO>
F 10

$$$$
=
 OpenBabel10232412083D

 39 42  0  0  1  0  0  0  0  0999 V2000
  188.9660  177.7790  143.2060 C   0  0  2  0  0  3  0  0  0  0  0  0
  190.8000  175.8870  139.6980 O   0  0  0  0  0  0  0  0  0  0  0  0
  189.5320  176.9830  142.0730 C   0  0  0  0  0  0  0  0  0  0  0  0
  189.9880  175.8240  142.2770 O   0  0  0  0  0  0  0  0  0  0  0  0
  189.5610  177.5660  140.7650 N   0  0  0  0  0  2  0  0  0  0  0  0
  190.1760  176.9780  139.6140 C   0  0  0  0  0  0  0  0  0  0  0  0
  190.0680  177.6650  138.2960 C   0  0  0  0  0  2  0  0  0  0  0  0
  188.7500  178.4150  138.1870 C   0  0  0  0  0  2  0  0  0  0  0  0
  188.6280  178.9820  136.9150 O   0  0  0  0  0  0  0  0  0  0  0  0
  185.9670  177.3580  134.8960 C   0  0  0  0  0  3  0  0  0  0  0  0
  186.6190  177.9200  137.5990 C   0  0  0  0  0  3  0  0  0  0  0  0
  185.1760  176.9420  135.8890 C   0  0  0  0  0  3  0  0  0  0  0  0
  187.3270  177.9320  135.1960 C   0  0  0  0  0  2  0  0  0  0  0  0
  187.3180  178.7060  136.5210 C   0  0  2  0  0  3  0  0  0  0  0  0
  185.5890  177.1230  137.2950 C   0  0  0  0  0  3  0  0  0  0  0  0
  190.6330  179.0170  144.3650 O   0  0  0  0  0  0  0  0  0  0  0  0
  190.2350  176.8690  145.2050 N   0  0  0  0  0  2  0  0  0  0  0  0
  189.9830  177.9400  144.2880 C   0  0  0  0  0  0  0  0  0  0  0  0
  190.6100  177.2000  147.4920 O   0  0  0  0  0  1  0  0  0  0  0  0
  191.9900  175.6120  146.3630 C   0  0  0  0  0  1  0  0  0  0  0  0
  191.2270  176.9200  146.2730 C   0  0  1  0  0  3  0  0  0  0  0  0
  187.7590  177.1530  143.7350 N   0  0  0  0  0  2  0  0  0  0  0  0
  184.9160  178.8970  145.4380 C   0  0  0  0  0  3  0  0  0  0  0  0
  185.3010  178.7900  146.7740 C   0  0  0  0  0  3  0  0  0  0  0  0
  186.9300  177.7320  144.7500 C   0  0  0  0  0  0  0  0  0  0  0  0
  186.4960  178.1540  147.1050 C   0  0  0  0  0  3  0  0  0  0  0  0
  187.3030  177.6260  146.0990 C   0  0  0  0  0  3  0  0  0  0  0  0
  185.7150  178.3750  144.4080 C   0  0  0  0  0  0  0  0  0  0  0  0
  182.8940  178.6410  143.3030 N   0  0  0  0  0  0  0  0  0  0  0  0
  185.2020  178.7950  140.6730 C   0  0  0  0  0  3  0  0  0  0  0  0
  184.0300  178.6580  142.5600 C   0  0  0  0  0  0  0  0  0  0  0  0
  182.7610  178.9570  140.5630 C   0  0  0  0  0  0  0  0  0  0  0  0
  185.2770  178.5300  142.9940 C   0  0  0  0  0  0  0  0  0  0  0  0
  181.6290  178.9430  141.3230 N   0  0  0  0  0  0  0  0  0  0  0  0
  181.6880  178.7880  142.6800 C   0  0  0  0  0  0  0  0  0  0  0  0
  180.4350  178.7660  143.4780 C   0  0  0  0  0  1  0  0  0  0  0  0
  182.6750  179.1250  139.1530 N   0  0  0  0  0  1  0  0  0  0  0  0
  186.1830  178.6070  141.7960 C   0  0  0  0  0  2  0  0  0  0  0  0
  183.9900  178.8090  141.2030 C   0  0  0  0  0  0  0  0  0  0  0  0
  1  3  1  6  0  0  0
  1 22  1  0  0  0  0
  1 18  1  0  0  0  0
  3  4  2  0  0  0  0
  5  3  1  0  0  0  0
  6  2  2  0  0  0  0
  6  5  1  0  0  0  0
  7  6  1  0  0  0  0
  8  7  1  0  0  0  0
  9  8  1  0  0  0  0
 10 13  1  0  0  0  0
 10 12  2  0  0  0  0
 12 15  1  0  0  0  0
 13 14  1  0  0  0  0
 14  9  1  1  0  0  0
 14 11  1  0  0  0  0
 15 11  2  0  0  0  0
 17 21  1  0  0  0  0
 18 16  2  0  0  0  0
 18 17  1  0  0  0  0
 21 20  1  1  0  0  0
 21 19  1  0  0  0  0
 22 25  1  0  0  0  0
 23 24  1  0  0  0  0
 24 26  2  0  0  0  0
 25 27  2  0  0  0  0
 27 26  1  0  0  0  0
 28 25  1  0  0  0  0
 28 23  2  0  0  0  0
 30 39  2  0  0  0  0
 30 38  1  0  0  0  0
 31 33  2  0  0  0  0
 31 29  1  0  0  0  0
 32 39  1  0  0  0  0
 32 34  2  0  0  0  0
 33 28  1  0  0  0  0
 34 35  1  0  0  0  0
 35 29  2  0  0  0  0
 35 36  1  0  0  0  0
 37 32  1  0  0  0  0
 38 33  1  0  0  0  0
 39 31  1  0  0  0  0
M  END
>  <MODEL>
8

>  <REMARK>
 VINA RESULT:      -8.4      2.552      7.684
  Name = 
  10 active torsions:
  status: ('A' for Active; 'I' for Inactive)
    1  A    between atoms: C_1  and  C_9
    2  A    between atoms: C_1  and  C_22
    3  A    between atoms: C_1  and  N_31
    4  A    between atoms: C_2  and  C_34
    5  A    between atoms: C_2  and  C_35
    6  A    between atoms: C_13  and  N_31
    7  A    between atoms: C_15  and  C_33
    8  A    between atoms: N_18  and  C_37
    9  A    between atoms: C_25  and  O_32
   10  A    between atoms: O_32  and  C_34
                            x       y       z     vdW  Elec       q    Type
                         _______ _______ _______ _____ _____    ______ ____

>  <TORSDO>
F 10

$$$$
=
 OpenBabel10232412083D

 39 42  0  0  1  0  0  0  0  0999 V2000
  186.5670  178.1560  140.8500 C   0  0  2  0  0  3  0  0  0  0  0  0
  185.2560  179.4940  144.8180 O   0  0  0  0  0  0  0  0  0  0  0  0
  185.9820  178.6830  142.1230 C   0  0  0  0  0  0  0  0  0  0  0  0
  185.3790  179.7920  142.1330 O   0  0  0  0  0  0  0  0  0  0  0  0
  186.1370  177.9180  143.3230 N   0  0  0  0  0  2  0  0  0  0  0  0
  185.7410  178.3470  144.6300 C   0  0  0  0  0  0  0  0  0  0  0  0
  185.8960  177.4160  145.7830 C   0  0  0  0  0  2  0  0  0  0  0  0
  187.1810  177.7070  146.5410 C   0  0  0  0  0  2  0  0  0  0  0  0
  188.1640  178.1620  145.6580 O   0  0  0  0  0  0  0  0  0  0  0  0
  191.5380  176.7460  145.0180 C   0  0  0  0  0  3  0  0  0  0  0  0
  189.6650  177.0550  147.1260 C   0  0  0  0  0  3  0  0  0  0  0  0
  191.8250  176.3250  146.2540 C   0  0  0  0  0  3  0  0  0  0  0  0
  190.3160  177.5910  144.7670 C   0  0  0  0  0  2  0  0  0  0  0  0
  189.1710  177.1970  145.7100 C   0  0  2  0  0  3  0  0  0  0  0  0
  190.9010  176.6080  147.3700 C   0  0  0  0  0  3  0  0  0  0  0  0
  188.6070  179.1510  141.5560 O   0  0  0  0  0  0  0  0  0  0  0  0
  188.8480  177.2880  140.1600 N   0  0  0  0  0  2  0  0  0  0  0  0
  188.0570  178.2320  140.8910 C   0  0  0  0  0  0  0  0  0  0  0  0
  190.8300  176.9000  141.3430 O   0  0  0  0  0  1  0  0  0  0  0  0
  190.8180  176.3950  139.0090 C   0  0  0  0  0  1  0  0  0  0  0  0
  190.3060  177.2990  140.1150 C   0  0  1  0  0  3  0  0  0  0  0  0
  186.0540  178.8880  139.6960 N   0  0  0  0  0  2  0  0  0  0  0  0
  184.0140  177.3830  136.9390 C   0  0  0  0  0  3  0  0  0  0  0  0
  182.7230  177.5920  137.4220 C   0  0  0  0  0  3  0  0  0  0  0  0
  184.9360  178.4650  138.9060 C   0  0  0  0  0  0  0  0  0  0  0  0
  182.5310  178.2320  138.6430 C   0  0  0  0  0  3  0  0  0  0  0  0
  183.6320  178.6630  139.3820 C   0  0  0  0  0  3  0  0  0  0  0  0
  185.1370  177.8110  137.6660 C   0  0  0  0  0  0  0  0  0  0  0  0
  186.5760  175.1830  137.1370 N   0  0  0  0  0  0  0  0  0  0  0  0
  188.6200  177.8560  136.1600 C   0  0  0  0  0  3  0  0  0  0  0  0
  187.0800  176.4170  136.8770 C   0  0  0  0  0  0  0  0  0  0  0  0
  189.0870  175.4560  136.0210 C   0  0  0  0  0  0  0  0  0  0  0  0
  186.4980  177.5880  137.1040 C   0  0  0  0  0  0  0  0  0  0  0  0
  188.5660  174.2240  136.2830 N   0  0  0  0  0  0  0  0  0  0  0  0
  187.3230  174.0820  136.8350 C   0  0  0  0  0  0  0  0  0  0  0  0
  186.7890  172.7250  137.1180 C   0  0  0  0  0  1  0  0  0  0  0  0
  190.3810  175.5780  135.4420 N   0  0  0  0  0  1  0  0  0  0  0  0
  187.4510  178.6620  136.6550 C   0  0  0  0  0  2  0  0  0  0  0  0
  188.3210  176.5780  136.3280 C   0  0  0  0  0  0  0  0  0  0  0  0
  1 22  1  6  0  0  0
  1 18  1  0  0  0  0
  1  3  1  0  0  0  0
  3  4  2  0  0  0  0
  3  5  1  0  0  0  0
  5  6  1  0  0  0  0
  6  2  2  0  0  0  0
  6  7  1  0  0  0  0
  7  8  1  0  0  0  0
  9  8  1  0  0  0  0
 10 12  2  0  0  0  0
 11 15  2  0  0  0  0
 12 15  1  0  0  0  0
 13 10  1  0  0  0  0
 13 14  1  0  0  0  0
 14  9  1  1  0  0  0
 14 11  1  0  0  0  0
 17 18  1  0  0  0  0
 18 16  2  0  0  0  0
 21 20  1  6  0  0  0
 21 17  1  0  0  0  0
 21 19  1  0  0  0  0
 23 24  2  0  0  0  0
 23 28  1  0  0  0  0
 24 26  1  0  0  0  0
 25 27  1  0  0  0  0
 25 22  1  0  0  0  0
 26 27  2  0  0  0  0
 28 25  2  0  0  0  0
 30 39  2  0  0  0  0
 30 38  1  0  0  0  0
 31 33  2  0  0  0  0
 31 29  1  0  0  0  0
 32 34  2  0  0  0  0
 32 39  1  0  0  0  0
 33 28  1  0  0  0  0
 34 35  1  0  0  0  0
 35 36  1  0  0  0  0
 35 29  2  0  0  0  0
 37 32  1  0  0  0  0
 38 33  1  0  0  0  0
 39 31  1  0  0  0  0
M  END
>  <MODEL>
9

>  <REMARK>
 VINA RESULT:      -8.2      1.877      4.236
  Name = 
  10 active torsions:
  status: ('A' for Active; 'I' for Inactive)
    1  A    between atoms: C_1  and  C_9
    2  A    between atoms: C_1  and  C_22
    3  A    between atoms: C_1  and  N_31
    4  A    between atoms: C_2  and  C_34
    5  A    between atoms: C_2  and  C_35
    6  A    between atoms: C_13  and  N_31
    7  A    between atoms: C_15  and  C_33
    8  A    between atoms: N_18  and  C_37
    9  A    between atoms: C_25  and  O_32
   10  A    between atoms: O_32  and  C_34
                            x       y       z     vdW  Elec       q    Type
                         _______ _______ _______ _____ _____    ______ ____

>  <TORSDO>
F 10

$$$$
