=
 OpenBabel10232408333D

 53 54  0  0  1  0  0  0  0  0999 V2000
  188.7290  178.1860  136.7080 N   0  0  0  0  0  0  0  0  0  0  0  0
  189.2030  176.8630  136.2710 C   0  0  1  0  0  3  0  0  0  0  0  0
  190.2520  176.5230  137.2430 C   0  0  0  0  0  0  0  0  0  0  0  0
  192.6210  175.7960  136.4300 C   0  0  0  0  0  3  0  0  0  0  0  0
  188.9490  178.2680  138.1000 N   0  0  0  0  0  2  0  0  0  0  0  0
  191.4380  176.1590  136.8360 C   0  0  0  0  0  0  0  0  0  0  0  0
  190.1050  177.4290  138.3980 C   0  0  1  0  0  3  0  0  0  0  0  0
  188.1370  175.7640  136.3200 C   0  0  0  0  0  1  0  0  0  0  0  0
  189.8330  176.6180  139.6510 C   0  0  0  0  0  2  0  0  0  0  0  0
  190.8500  176.9620  140.7320 C   0  0  0  0  0  2  0  0  0  0  0  0
  189.3950  175.9840  142.7230 Cl  0  0  0  0  0  0  0  0  0  0  0  0
  190.2190  177.4150  142.0520 C   0  0  1  0  0  0  0  0  0  0  0  0
  191.5200  177.9500  143.2380 S   0  0  0  0  0  0  0  0  0  0  0  0
  191.4580  176.4550  144.2780 C   0  0  0  0  0  2  0  0  0  0  0  0
  191.1270  176.8280  145.6790 C   0  0  0  0  0  0  0  0  0  0  0  0
  192.0420  176.8800  146.5430 O   0  0  0  0  0  0  0  0  0  0  0  0
  189.7690  177.0860  146.0380 N   0  0  0  0  0  2  0  0  0  0  0  0
  189.3800  177.5220  147.3730 C   0  0  0  0  0  2  0  0  0  0  0  0
  187.8850  177.3190  147.6200 C   0  0  1  0  0  3  0  0  0  0  0  0
  187.5830  177.3970  148.9830 O   0  0  0  0  0  1  0  0  0  0  0  0
  187.0320  178.2880  146.8040 C   0  0  2  0  0  3  0  0  0  0  0  0
  186.3250  179.1540  147.6420 O   0  0  0  0  0  1  0  0  0  0  0  0
  186.0630  177.5170  145.9230 C   0  0  0  0  0  2  0  0  0  0  0  0
  185.6100  178.3380  144.8900 O   0  0  0  0  0  0  0  0  0  0  0  0
  184.2410  178.4770  145.1260 C   0  0  0  0  0  2  0  0  0  0  0  0
  183.6690  179.5810  144.2530 C   0  0  0  0  0  2  0  0  0  0  0  0
  181.4560  178.7120  143.9800 O   0  0  0  0  0  1  0  0  0  0  0  0
  182.6270  179.0340  143.2910 C   0  0  0  0  0  2  0  0  0  0  0  0
  189.1500  178.4940  141.8200 C   0  0  0  0  0  2  0  0  0  0  0  0
  187.7540  178.0830  142.2700 C   0  0  0  0  0  2  0  0  0  0  0  0
  186.7380  178.5430  141.2480 C   0  0  0  0  0  2  0  0  0  0  0  0
  185.9460  179.5470  141.8030 O   0  0  0  0  0  1  0  0  0  0  0  0
  187.3070  178.4110  136.4430 C   0  0  0  0  0  2  0  0  0  0  0  0
  186.6310  178.7500  137.6490 O   0  0  0  0  0  0  0  0  0  0  0  0
  183.7120  176.4980  137.8820 C   0  0  0  0  0  0  0  0  0  0  0  0
  183.1380  178.6080  138.9250 C   0  0  0  0  0  3  0  0  0  0  0  0
  184.9870  176.9890  137.5880 C   0  0  0  0  0  3  0  0  0  0  0  0
  185.3460  178.2910  137.9570 C   0  0  0  0  0  0  0  0  0  0  0  0
  182.7870  177.3080  138.5500 C   0  0  0  0  0  3  0  0  0  0  0  0
  183.3380  175.1170  137.4860 C   0  0  0  0  0  1  0  0  0  0  0  0
  184.4140  179.0980  138.6300 C   0  0  0  0  0  3  0  0  0  0  0  0
  193.1390  174.4450  136.7660 C   0  0  0  0  0  2  0  0  0  0  0  0
  193.6380  173.7690  135.5050 C   0  0  0  0  0  2  0  0  0  0  0  0
  195.0740  173.3070  135.6880 C   0  0  0  0  0  2  0  0  0  0  0  0
  195.1060  172.1450  136.4640 O   0  0  0  0  0  0  0  0  0  0  0  0
  196.2160  172.2990  137.3010 C   0  0  1  0  0  3  0  0  0  0  0  0
  197.0680  171.0300  137.3090 C   0  0  0  0  0  2  0  0  0  0  0  0
  195.6340  169.3330  136.1600 O   0  0  0  0  0  0  0  0  0  0  0  0
  196.0780  169.1530  138.4030 O   0  0  0  0  0  1  0  0  0  0  0  0
  196.2430  169.7820  137.3250 C   0  0  0  0  0  0  0  0  0  0  0  0
  197.0430  173.5100  136.8780 C   0  0  0  0  0  2  0  0  0  0  0  0
  197.6920  174.1780  138.0770 C   0  0  0  0  0  2  0  0  0  0  0  0
  198.1130  175.4640  137.7370 O   0  0  0  0  0  1  0  0  0  0  0  0
  1  5  1  0  0  0  0
  2  8  1  1  0  0  0
  2  1  1  0  0  0  0
  2  3  1  0  0  0  0
  3  7  1  0  0  0  0
  4 42  1  0  0  0  0
  4  6  2  0  0  0  0
  5  7  1  0  0  0  0
  6  3  2  0  0  0  0
  7  9  1  1  0  0  0
  9 10  1  0  0  0  0
 10 12  1  0  0  0  0
 12 11  1  1  0  0  0
 12 13  1  0  0  0  0
 13 14  1  0  0  0  0
 14 15  1  0  0  0  0
 15 17  1  0  0  0  0
 15 16  2  0  0  0  0
 17 18  1  0  0  0  0
 18 19  1  0  0  0  0
 19 20  1  1  0  0  0
 21 19  1  0  0  0  0
 21 22  1  1  0  0  0
 23 21  1  0  0  0  0
 24 25  1  0  0  0  0
 24 23  1  0  0  0  0
 26 25  1  0  0  0  0
 28 27  1  0  0  0  0
 28 26  1  0  0  0  0
 29 12  1  0  0  0  0
 29 30  1  0  0  0  0
 31 32  1  0  0  0  0
 31 30  1  0  0  0  0
 33  1  1  0  0  0  0
 33 34  1  0  0  0  0
 34 38  1  0  0  0  0
 35 39  1  0  0  0  0
 37 35  2  0  0  0  0
 37 38  1  0  0  0  0
 38 41  2  0  0  0  0
 39 36  2  0  0  0  0
 40 35  1  0  0  0  0
 41 36  1  0  0  0  0
 43 44  1  0  0  0  0
 43 42  1  0  0  0  0
 44 45  1  0  0  0  0
 45 46  1  0  0  0  0
 46 51  1  6  0  0  0
 46 47  1  0  0  0  0
 47 50  1  0  0  0  0
 48 50  2  0  0  0  0
 50 49  1  0  0  0  0
 51 52  1  0  0  0  0
 53 52  1  0  0  0  0
M  END
>  <MODEL>
1

>  <REMARK>
 VINA RESULT:      -6.0      0.000      0.000
  Name = 
  29 active torsions:
  status: ('A' for Active; 'I' for Inactive)
    1  A    between atoms: C_1  and  C_12
    2  A    between atoms: C_1  and  O_36
    3  A    between atoms: C_2  and  C_10
    4  A    between atoms: C_3  and  C_22
    5  A    between atoms: C_4  and  C_13
    6  A    between atoms: C_4  and  C_51
    7  A    between atoms: O_6  and  C_19
    8  A    between atoms: O_6  and  C_40
    9  A    between atoms: C_7  and  C_30
   10  A    between atoms: C_7  and  C_50
   11  A    between atoms: C_8  and  C_9
   12  A    between atoms: C_8  and  C_14
   13  A    between atoms: C_10  and  C_35
   14  A    between atoms: C_12  and  C_31
   15  A    between atoms: C_13  and  O_36
   16  A    between atoms: C_14  and  C_23
   17  A    between atoms: N_15  and  C_19
   18  A    between atoms: C_17  and  C_31
   19  A    between atoms: C_17  and  N_52
   20  A    between atoms: C_22  and  S_38
   21  A    between atoms: C_23  and  C_26
   22  A    between atoms: C_23  and  S_38
   23  A    between atoms: C_26  and  C_32
   24  A    between atoms: O_29  and  C_35
   25  A    between atoms: O_29  and  C_41
   26  A    between atoms: C_32  and  C_43
   27  A    between atoms: C_35  and  C_47
   28  A    between atoms: C_41  and  C_50
   29  A    between atoms: C_42  and  C_47
                            x       y       z     vdW  Elec       q    Type
                         _______ _______ _______ _____ _____    ______ ____

>  <TORSDO>
F 29

$$$$
=
 OpenBabel10232408333D

 53 54  0  0  1  0  0  0  0  0999 V2000
  186.5810  178.1940  137.5110 N   0  0  0  0  0  0  0  0  0  0  0  0
  187.2390  177.0110  136.9330 C   0  0  1  0  0  3  0  0  0  0  0  0
  188.5840  177.0280  137.5280 C   0  0  0  0  0  0  0  0  0  0  0  0
  190.7000  176.8820  136.0090 C   0  0  0  0  0  3  0  0  0  0  0  0
  187.1810  178.4350  138.7650 N   0  0  0  0  0  2  0  0  0  0  0  0
  189.6430  176.9550  136.7670 C   0  0  0  0  0  0  0  0  0  0  0  0
  188.5550  177.9480  138.6790 C   0  0  1  0  0  3  0  0  0  0  0  0
  186.5760  175.6800  137.3020 C   0  0  0  0  0  1  0  0  0  0  0  0
  188.9040  177.1910  139.9470 C   0  0  0  0  0  2  0  0  0  0  0  0
  190.3210  177.5330  140.3920 C   0  0  0  0  0  2  0  0  0  0  0  0
  192.0130  178.2540  142.3030 Cl  0  0  0  0  0  0  0  0  0  0  0  0
  190.5760  177.2880  141.8830 C   0  0  1  0  0  0  0  0  0  0  0  0
  189.1540  177.8830  142.8870 S   0  0  0  0  0  0  0  0  0  0  0  0
  190.1530  178.5370  144.2640 C   0  0  0  0  0  2  0  0  0  0  0  0
  189.7010  177.9350  145.5460 C   0  0  0  0  0  0  0  0  0  0  0  0
  190.5120  177.8230  146.5030 O   0  0  0  0  0  0  0  0  0  0  0  0
  188.3600  177.4550  145.6660 N   0  0  0  0  0  2  0  0  0  0  0  0
  187.8290  176.9160  146.9110 C   0  0  0  0  0  2  0  0  0  0  0  0
  187.0550  177.9730  147.6980 C   0  0  1  0  0  3  0  0  0  0  0  0
  187.8930  178.6600  148.5830 O   0  0  0  0  0  1  0  0  0  0  0  0
  186.3050  178.9370  146.7800 C   0  0  2  0  0  3  0  0  0  0  0  0
  185.7910  180.0150  147.5050 O   0  0  0  0  0  1  0  0  0  0  0  0
  185.1780  178.2090  146.0670 C   0  0  0  0  0  2  0  0  0  0  0  0
  184.1550  179.1080  145.7640 O   0  0  0  0  0  0  0  0  0  0  0  0
  184.4340  179.5350  144.4650 C   0  0  0  0  0  2  0  0  0  0  0  0
  184.2890  178.3770  143.4910 C   0  0  0  0  0  2  0  0  0  0  0  0
  185.5390  179.6830  141.9230 O   0  0  0  0  0  1  0  0  0  0  0  0
  185.3960  178.3980  142.4480 C   0  0  0  0  0  2  0  0  0  0  0  0
  190.9180  175.8140  142.1560 C   0  0  0  0  0  2  0  0  0  0  0  0
  190.6470  175.3770  143.5890 C   0  0  0  0  0  2  0  0  0  0  0  0
  191.9410  175.3800  144.3720 C   0  0  0  0  0  2  0  0  0  0  0  0
  192.4420  174.0810  144.4440 O   0  0  0  0  0  1  0  0  0  0  0  0
  185.1410  178.0220  137.7040 C   0  0  0  0  0  2  0  0  0  0  0  0
  184.6890  178.8360  138.7810 O   0  0  0  0  0  0  0  0  0  0  0  0
  181.2240  179.9670  139.3770 C   0  0  0  0  0  0  0  0  0  0  0  0
  181.5070  177.7910  140.4030 C   0  0  0  0  0  3  0  0  0  0  0  0
  182.5520  179.9360  138.9410 C   0  0  0  0  0  3  0  0  0  0  0  0
  183.3660  178.8360  139.2340 C   0  0  0  0  0  0  0  0  0  0  0  0
  180.7020  178.8950  140.1090 C   0  0  0  0  0  3  0  0  0  0  0  0
  180.3670  181.1390  139.0630 C   0  0  0  0  0  1  0  0  0  0  0  0
  182.8350  177.7610  139.9670 C   0  0  0  0  0  3  0  0  0  0  0  0
  191.6390  175.7400  136.1530 C   0  0  0  0  0  2  0  0  0  0  0  0
  192.3770  175.8580  137.4710 C   0  0  0  0  0  2  0  0  0  0  0  0
  193.4390  174.7770  137.5790 C   0  0  0  0  0  2  0  0  0  0  0  0
  194.6440  175.3330  138.0160 O   0  0  0  0  0  0  0  0  0  0  0  0
  195.6130  174.3650  137.7330 C   0  0  1  0  0  3  0  0  0  0  0  0
  196.5430  174.1650  138.9300 C   0  0  0  0  0  2  0  0  0  0  0  0
  198.8270  173.8900  137.9490 O   0  0  0  0  0  0  0  0  0  0  0  0
  198.2900  175.7780  139.1370 O   0  0  0  0  0  1  0  0  0  0  0  0
  197.9290  174.6650  138.6730 C   0  0  0  0  0  0  0  0  0  0  0  0
  194.9560  173.0510  137.3250 C   0  0  0  0  0  2  0  0  0  0  0  0
  195.6410  171.8660  137.9860 C   0  0  0  0  0  2  0  0  0  0  0  0
  195.9000  170.8770  137.0370 O   0  0  0  0  0  1  0  0  0  0  0  0
  1 33  1  0  0  0  0
  1  5  1  0  0  0  0
  2  8  1  1  0  0  0
  2  1  1  0  0  0  0
  2  3  1  0  0  0  0
  3  7  1  0  0  0  0
  4 42  1  0  0  0  0
  4  6  2  0  0  0  0
  6  3  2  0  0  0  0
  7  5  1  0  0  0  0
  7  9  1  1  0  0  0
  9 10  1  0  0  0  0
 10 12  1  0  0  0  0
 12 29  1  0  0  0  0
 12 11  1  1  0  0  0
 12 13  1  0  0  0  0
 13 14  1  0  0  0  0
 14 15  1  0  0  0  0
 15 17  1  0  0  0  0
 15 16  2  0  0  0  0
 17 18  1  0  0  0  0
 18 19  1  0  0  0  0
 19 20  1  6  0  0  0
 21 22  1  1  0  0  0
 21 19  1  0  0  0  0
 23 21  1  0  0  0  0
 24 23  1  0  0  0  0
 25 24  1  0  0  0  0
 26 25  1  0  0  0  0
 27 28  1  0  0  0  0
 28 26  1  0  0  0  0
 29 30  1  0  0  0  0
 30 31  1  0  0  0  0
 31 32  1  0  0  0  0
 33 34  1  0  0  0  0
 34 38  1  0  0  0  0
 35 39  1  0  0  0  0
 37 38  1  0  0  0  0
 37 35  2  0  0  0  0
 38 41  2  0  0  0  0
 39 36  2  0  0  0  0
 40 35  1  0  0  0  0
 41 36  1  0  0  0  0
 42 43  1  0  0  0  0
 43 44  1  0  0  0  0
 44 45  1  0  0  0  0
 46 51  1  1  0  0  0
 46 45  1  0  0  0  0
 46 47  1  0  0  0  0
 48 50  2  0  0  0  0
 50 47  1  0  0  0  0
 50 49  1  0  0  0  0
 51 52  1  0  0  0  0
 53 52  1  0  0  0  0
M  END
>  <MODEL>
2

>  <REMARK>
 VINA RESULT:      -5.8      1.769      3.352
  Name = 
  29 active torsions:
  status: ('A' for Active; 'I' for Inactive)
    1  A    between atoms: C_1  and  C_12
    2  A    between atoms: C_1  and  O_36
    3  A    between atoms: C_2  and  C_10
    4  A    between atoms: C_3  and  C_22
    5  A    between atoms: C_4  and  C_13
    6  A    between atoms: C_4  and  C_51
    7  A    between atoms: O_6  and  C_19
    8  A    between atoms: O_6  and  C_40
    9  A    between atoms: C_7  and  C_30
   10  A    between atoms: C_7  and  C_50
   11  A    between atoms: C_8  and  C_9
   12  A    between atoms: C_8  and  C_14
   13  A    between atoms: C_10  and  C_35
   14  A    between atoms: C_12  and  C_31
   15  A    between atoms: C_13  and  O_36
   16  A    between atoms: C_14  and  C_23
   17  A    between atoms: N_15  and  C_19
   18  A    between atoms: C_17  and  C_31
   19  A    between atoms: C_17  and  N_52
   20  A    between atoms: C_22  and  S_38
   21  A    between atoms: C_23  and  C_26
   22  A    between atoms: C_23  and  S_38
   23  A    between atoms: C_26  and  C_32
   24  A    between atoms: O_29  and  C_35
   25  A    between atoms: O_29  and  C_41
   26  A    between atoms: C_32  and  C_43
   27  A    between atoms: C_35  and  C_47
   28  A    between atoms: C_41  and  C_50
   29  A    between atoms: C_42  and  C_47
                            x       y       z     vdW  Elec       q    Type
                         _______ _______ _______ _____ _____    ______ ____

>  <TORSDO>
F 29

$$$$
=
 OpenBabel10232408333D

 53 54  0  0  1  0  0  0  0  0999 V2000
  191.2250  177.8230  141.9340 N   0  0  0  0  0  0  0  0  0  0  0  0
  189.8340  177.3630  141.7880 C   0  0  1  0  0  3  0  0  0  0  0  0
  189.6280  177.3160  140.3330 C   0  0  0  0  0  0  0  0  0  0  0  0
  187.5860  178.5260  139.2500 C   0  0  0  0  0  3  0  0  0  0  0  0
  191.9240  177.4120  140.7790 N   0  0  0  0  0  2  0  0  0  0  0  0
  188.6060  177.9210  139.7910 C   0  0  0  0  0  0  0  0  0  0  0  0
  190.9530  177.3680  139.6890 C   0  0  1  0  0  3  0  0  0  0  0  0
  189.5720  175.9620  142.3490 C   0  0  0  0  0  1  0  0  0  0  0  0
  191.1710  176.1110  138.8680 C   0  0  0  0  0  2  0  0  0  0  0  0
  190.2210  176.0890  137.6770 C   0  0  0  0  0  2  0  0  0  0  0  0
  189.7900  173.6450  136.7380 Cl  0  0  0  0  0  0  0  0  0  0  0  0
  190.6810  175.1750  136.5360 C   0  0  1  0  0  0  0  0  0  0  0  0
  190.2330  175.9040  134.9070 S   0  0  0  0  0  0  0  0  0  0  0  0
  188.6550  175.0110  134.7250 C   0  0  0  0  0  2  0  0  0  0  0  0
  187.5230  175.9140  135.0600 C   0  0  0  0  0  0  0  0  0  0  0  0
  187.7180  177.1560  135.1400 O   0  0  0  0  0  0  0  0  0  0  0  0
  186.2320  175.3600  135.3230 N   0  0  0  0  0  2  0  0  0  0  0  0
  185.0630  176.1870  135.5900 C   0  0  0  0  0  2  0  0  0  0  0  0
  183.7790  175.3580  135.6180 C   0  0  1  0  0  3  0  0  0  0  0  0
  183.4700  174.8620  134.3470 O   0  0  0  0  0  1  0  0  0  0  0  0
  183.8440  174.2350  136.6520 C   0  0  2  0  0  3  0  0  0  0  0  0
  183.5980  172.9960  136.0570 O   0  0  0  0  0  1  0  0  0  0  0  0
  182.8330  174.4860  137.7580 C   0  0  0  0  0  2  0  0  0  0  0  0
  181.6140  174.8760  137.2030 O   0  0  0  0  0  0  0  0  0  0  0  0
  181.0160  175.6670  138.1850 C   0  0  0  0  0  2  0  0  0  0  0  0
  181.5360  177.0930  138.0990 C   0  0  0  0  0  2  0  0  0  0  0  0
  181.7970  178.6260  136.2820 O   0  0  0  0  0  1  0  0  0  0  0  0
  180.8600  177.8540  136.9700 C   0  0  0  0  0  2  0  0  0  0  0  0
  192.1800  174.8520  136.6480 C   0  0  0  0  0  2  0  0  0  0  0  0
  193.0380  175.5490  135.6020 C   0  0  0  0  0  2  0  0  0  0  0  0
  193.8460  174.5190  134.8430 C   0  0  0  0  0  2  0  0  0  0  0  0
  195.1080  175.0370  134.5600 O   0  0  0  0  0  1  0  0  0  0  0  0
  191.8990  177.2720  143.1110 C   0  0  0  0  0  2  0  0  0  0  0  0
  191.6260  178.0750  144.2540 O   0  0  0  0  0  0  0  0  0  0  0  0
  188.6050  177.5910  146.3230 C   0  0  0  0  0  0  0  0  0  0  0  0
  190.4620  176.4750  147.4060 C   0  0  0  0  0  3  0  0  0  0  0  0
  189.4520  177.9990  145.2880 C   0  0  0  0  0  3  0  0  0  0  0  0
  190.8070  177.6520  145.3050 C   0  0  0  0  0  0  0  0  0  0  0  0
  189.1110  176.8300  147.3820 C   0  0  0  0  0  3  0  0  0  0  0  0
  187.1680  177.9650  146.2980 C   0  0  0  0  0  1  0  0  0  0  0  0
  191.3090  176.8840  146.3710 C   0  0  0  0  0  3  0  0  0  0  0  0
  186.5670  177.7410  138.5060 C   0  0  0  0  0  2  0  0  0  0  0  0
  185.2210  178.4250  138.6220 C   0  0  0  0  0  2  0  0  0  0  0  0
  184.8060  178.5290  140.0790 C   0  0  0  0  0  2  0  0  0  0  0  0
  183.5490  179.1330  140.1760 O   0  0  0  0  0  0  0  0  0  0  0  0
  182.9140  178.4800  141.2370 C   0  0  1  0  0  3  0  0  0  0  0  0
  183.9260  178.0840  142.3110 C   0  0  0  0  0  2  0  0  0  0  0  0
  182.8080  178.6650  144.4720 O   0  0  0  0  0  1  0  0  0  0  0  0
  184.6140  179.8730  143.7340 O   0  0  0  0  0  0  0  0  0  0  0  0
  183.8140  178.9200  143.5460 C   0  0  0  0  0  0  0  0  0  0  0  0
  181.8110  179.3560  141.8220 C   0  0  0  0  0  2  0  0  0  0  0  0
  180.4360  178.8360  141.4400 C   0  0  0  0  0  2  0  0  0  0  0  0
  180.1470  177.6770  142.1620 O   0  0  0  0  0  1  0  0  0  0  0  0
  1 33  1  0  0  0  0
  2  1  1  0  0  0  0
  2  8  1  6  0  0  0
  3  2  1  0  0  0  0
  4  6  2  0  0  0  0
  5  1  1  0  0  0  0
  6  3  2  0  0  0  0
  7  9  1  1  0  0  0
  7  3  1  0  0  0  0
  7  5  1  0  0  0  0
 10  9  1  0  0  0  0
 12 29  1  0  0  0  0
 12 11  1  1  0  0  0
 12 10  1  0  0  0  0
 13 12  1  0  0  0  0
 14 13  1  0  0  0  0
 14 15  1  0  0  0  0
 15 16  2  0  0  0  0
 15 17  1  0  0  0  0
 17 18  1  0  0  0  0
 18 19  1  0  0  0  0
 19 20  1  6  0  0  0
 19 21  1  0  0  0  0
 21 22  1  6  0  0  0
 21 23  1  0  0  0  0
 24 23  1  0  0  0  0
 24 25  1  0  0  0  0
 26 25  1  0  0  0  0
 27 28  1  0  0  0  0
 28 26  1  0  0  0  0
 30 29  1  0  0  0  0
 31 30  1  0  0  0  0
 32 31  1  0  0  0  0
 33 34  1  0  0  0  0
 34 38  1  0  0  0  0
 35 39  1  0  0  0  0
 37 38  1  0  0  0  0
 37 35  2  0  0  0  0
 38 41  2  0  0  0  0
 39 36  2  0  0  0  0
 40 35  1  0  0  0  0
 41 36  1  0  0  0  0
 42 43  1  0  0  0  0
 42  4  1  0  0  0  0
 43 44  1  0  0  0  0
 44 45  1  0  0  0  0
 45 46  1  0  0  0  0
 46 51  1  1  0  0  0
 46 47  1  0  0  0  0
 47 50  1  0  0  0  0
 50 49  2  0  0  0  0
 50 48  1  0  0  0  0
 52 51  1  0  0  0  0
 52 53  1  0  0  0  0
M  END
>  <MODEL>
3

>  <REMARK>
 VINA RESULT:      -5.4      3.245     10.821
  Name = 
  29 active torsions:
  status: ('A' for Active; 'I' for Inactive)
    1  A    between atoms: C_1  and  C_12
    2  A    between atoms: C_1  and  O_36
    3  A    between atoms: C_2  and  C_10
    4  A    between atoms: C_3  and  C_22
    5  A    between atoms: C_4  and  C_13
    6  A    between atoms: C_4  and  C_51
    7  A    between atoms: O_6  and  C_19
    8  A    between atoms: O_6  and  C_40
    9  A    between atoms: C_7  and  C_30
   10  A    between atoms: C_7  and  C_50
   11  A    between atoms: C_8  and  C_9
   12  A    between atoms: C_8  and  C_14
   13  A    between atoms: C_10  and  C_35
   14  A    between atoms: C_12  and  C_31
   15  A    between atoms: C_13  and  O_36
   16  A    between atoms: C_14  and  C_23
   17  A    between atoms: N_15  and  C_19
   18  A    between atoms: C_17  and  C_31
   19  A    between atoms: C_17  and  N_52
   20  A    between atoms: C_22  and  S_38
   21  A    between atoms: C_23  and  C_26
   22  A    between atoms: C_23  and  S_38
   23  A    between atoms: C_26  and  C_32
   24  A    between atoms: O_29  and  C_35
   25  A    between atoms: O_29  and  C_41
   26  A    between atoms: C_32  and  C_43
   27  A    between atoms: C_35  and  C_47
   28  A    between atoms: C_41  and  C_50
   29  A    between atoms: C_42  and  C_47
                            x       y       z     vdW  Elec       q    Type
                         _______ _______ _______ _____ _____    ______ ____

>  <TORSDO>
F 29

$$$$
=
 OpenBabel10232408333D

 53 54  0  0  1  0  0  0  0  0999 V2000
  184.7830  179.4550  140.0840 N   0  0  0  0  0  0  0  0  0  0  0  0
  184.8220  178.4430  139.0160 C   0  0  1  0  0  3  0  0  0  0  0  0
  186.2570  178.2610  138.7520 C   0  0  0  0  0  0  0  0  0  0  0  0
  187.1860  178.4490  136.3220 C   0  0  0  0  0  3  0  0  0  0  0  0
  185.9870  179.3410  140.8120 N   0  0  0  0  0  2  0  0  0  0  0  0
  186.7220  178.3550  137.5360 C   0  0  0  0  0  0  0  0  0  0  0  0
  187.0000  178.8500  139.8820 C   0  0  1  0  0  3  0  0  0  0  0  0
  184.2390  177.0840  139.4160 C   0  0  0  0  0  1  0  0  0  0  0  0
  187.8320  177.7770  140.5590 C   0  0  0  0  0  2  0  0  0  0  0  0
  188.5170  178.3450  141.7960 C   0  0  0  0  0  2  0  0  0  0  0  0
  189.3810  175.9280  142.4680 Cl  0  0  0  0  0  0  0  0  0  0  0  0
  189.8210  177.6280  142.1640 C   0  0  1  0  0  0  0  0  0  0  0  0
  191.0060  177.6840  140.7570 S   0  0  0  0  0  0  0  0  0  0  0  0
  190.4530  176.1320  139.9800 C   0  0  0  0  0  2  0  0  0  0  0  0
  190.6070  176.2240  138.5040 C   0  0  0  0  0  0  0  0  0  0  0  0
  190.4470  177.3320  137.9270 O   0  0  0  0  0  0  0  0  0  0  0  0
  190.8990  175.0450  137.7500 N   0  0  0  0  0  2  0  0  0  0  0  0
  191.1300  175.0720  136.3110 C   0  0  0  0  0  2  0  0  0  0  0  0
  192.6030  174.8440  135.9720 C   0  0  1  0  0  3  0  0  0  0  0  0
  192.9850  175.5870  134.8510 O   0  0  0  0  0  1  0  0  0  0  0  0
  193.5160  175.1260  137.1640 C   0  0  2  0  0  3  0  0  0  0  0  0
  194.0510  176.4150  137.0860 O   0  0  0  0  0  1  0  0  0  0  0  0
  194.6390  174.1040  137.2150 C   0  0  0  0  0  2  0  0  0  0  0  0
  194.7690  173.6120  138.5150 O   0  0  0  0  0  0  0  0  0  0  0  0
  196.0810  173.9200  138.8780 C   0  0  0  0  0  2  0  0  0  0  0  0
  197.0460  173.4550  137.8000 C   0  0  0  0  0  2  0  0  0  0  0  0
  197.8340  175.6530  137.2740 O   0  0  0  0  0  1  0  0  0  0  0  0
  198.2430  174.3880  137.6980 C   0  0  0  0  0  2  0  0  0  0  0  0
  190.4190  178.1870  143.4650 C   0  0  0  0  0  2  0  0  0  0  0  0
  191.4530  177.2730  144.1080 C   0  0  0  0  0  2  0  0  0  0  0  0
  191.4070  177.4370  145.6110 C   0  0  0  0  0  2  0  0  0  0  0  0
  190.4510  176.5720  146.1420 O   0  0  0  0  0  1  0  0  0  0  0  0
  183.6600  179.2850  141.0060 C   0  0  0  0  0  2  0  0  0  0  0  0
  183.9020  178.1860  141.8780 O   0  0  0  0  0  0  0  0  0  0  0  0
  185.8640  178.1490  145.0070 C   0  0  0  0  0  0  0  0  0  0  0  0
  183.6440  178.9800  145.5040 C   0  0  0  0  0  3  0  0  0  0  0  0
  185.5100  178.0040  143.6630 C   0  0  0  0  0  3  0  0  0  0  0  0
  184.2230  178.3420  143.2300 C   0  0  0  0  0  0  0  0  0  0  0  0
  184.9300  178.6360  145.9280 C   0  0  0  0  0  3  0  0  0  0  0  0
  187.2320  177.7870  145.4590 C   0  0  0  0  0  1  0  0  0  0  0  0
  183.2900  178.8340  144.1600 C   0  0  0  0  0  3  0  0  0  0  0  0
  187.8470  177.2800  135.6880 C   0  0  0  0  0  2  0  0  0  0  0  0
  186.9390  176.7040  134.6210 C   0  0  0  0  0  2  0  0  0  0  0  0
  185.6420  176.2130  135.2410 C   0  0  0  0  0  2  0  0  0  0  0  0
  185.4230  174.8770  134.8950 O   0  0  0  0  0  0  0  0  0  0  0  0
  184.4430  174.4280  135.7860 C   0  0  1  0  0  3  0  0  0  0  0  0
  183.0440  174.6740  135.2190 C   0  0  0  0  0  2  0  0  0  0  0  0
  181.9450  176.1490  136.9130 O   0  0  0  0  0  1  0  0  0  0  0  0
  181.2530  173.9800  136.6360 O   0  0  0  0  0  0  0  0  0  0  0  0
  182.0240  174.9110  136.2860 C   0  0  0  0  0  0  0  0  0  0  0  0
  184.6500  172.9520  136.1110 C   0  0  0  0  0  2  0  0  0  0  0  0
  184.8390  172.7410  137.6040 C   0  0  0  0  0  2  0  0  0  0  0  0
  186.1940  172.8210  137.9280 O   0  0  0  0  0  1  0  0  0  0  0  0
  1  5  1  0  0  0  0
  1 33  1  0  0  0  0
  2  8  1  1  0  0  0
  2  1  1  0  0  0  0
  3  2  1  0  0  0  0
  3  7  1  0  0  0  0
  4  6  2  0  0  0  0
  6  3  2  0  0  0  0
  7  9  1  1  0  0  0
  7  5  1  0  0  0  0
  9 10  1  0  0  0  0
 10 12  1  0  0  0  0
 12 11  1  1  0  0  0
 12 29  1  0  0  0  0
 13 12  1  0  0  0  0
 14 13  1  0  0  0  0
 15 14  1  0  0  0  0
 16 15  2  0  0  0  0
 17 15  1  0  0  0  0
 18 17  1  0  0  0  0
 19 20  1  6  0  0  0
 19 18  1  0  0  0  0
 19 21  1  0  0  0  0
 21 22  1  6  0  0  0
 21 23  1  0  0  0  0
 23 24  1  0  0  0  0
 24 25  1  0  0  0  0
 26 25  1  0  0  0  0
 27 28  1  0  0  0  0
 28 26  1  0  0  0  0
 29 30  1  0  0  0  0
 30 31  1  0  0  0  0
 31 32  1  0  0  0  0
 33 34  1  0  0  0  0
 34 38  1  0  0  0  0
 35 40  1  0  0  0  0
 35 39  1  0  0  0  0
 36 39  2  0  0  0  0
 37 35  2  0  0  0  0
 38 37  1  0  0  0  0
 38 41  2  0  0  0  0
 41 36  1  0  0  0  0
 42  4  1  0  0  0  0
 43 44  1  0  0  0  0
 43 42  1  0  0  0  0
 45 44  1  0  0  0  0
 45 46  1  0  0  0  0
 46 47  1  6  0  0  0
 46 51  1  0  0  0  0
 47 50  1  0  0  0  0
 50 49  2  0  0  0  0
 50 48  1  0  0  0  0
 51 52  1  0  0  0  0
 52 53  1  0  0  0  0
M  END
>  <MODEL>
4

>  <REMARK>
 VINA RESULT:      -5.3      2.608      9.748
  Name = 
  29 active torsions:
  status: ('A' for Active; 'I' for Inactive)
    1  A    between atoms: C_1  and  C_12
    2  A    between atoms: C_1  and  O_36
    3  A    between atoms: C_2  and  C_10
    4  A    between atoms: C_3  and  C_22
    5  A    between atoms: C_4  and  C_13
    6  A    between atoms: C_4  and  C_51
    7  A    between atoms: O_6  and  C_19
    8  A    between atoms: O_6  and  C_40
    9  A    between atoms: C_7  and  C_30
   10  A    between atoms: C_7  and  C_50
   11  A    between atoms: C_8  and  C_9
   12  A    between atoms: C_8  and  C_14
   13  A    between atoms: C_10  and  C_35
   14  A    between atoms: C_12  and  C_31
   15  A    between atoms: C_13  and  O_36
   16  A    between atoms: C_14  and  C_23
   17  A    between atoms: N_15  and  C_19
   18  A    between atoms: C_17  and  C_31
   19  A    between atoms: C_17  and  N_52
   20  A    between atoms: C_22  and  S_38
   21  A    between atoms: C_23  and  C_26
   22  A    between atoms: C_23  and  S_38
   23  A    between atoms: C_26  and  C_32
   24  A    between atoms: O_29  and  C_35
   25  A    between atoms: O_29  and  C_41
   26  A    between atoms: C_32  and  C_43
   27  A    between atoms: C_35  and  C_47
   28  A    between atoms: C_41  and  C_50
   29  A    between atoms: C_42  and  C_47
                            x       y       z     vdW  Elec       q    Type
                         _______ _______ _______ _____ _____    ______ ____

>  <TORSDO>
F 29

$$$$
=
 OpenBabel10232408333D

 53 54  0  0  1  0  0  0  0  0999 V2000
  184.8440  179.3820  140.8170 N   0  0  0  0  0  0  0  0  0  0  0  0
  183.5420  178.7910  140.4690 C   0  0  1  0  0  3  0  0  0  0  0  0
  183.6020  178.6330  139.0090 C   0  0  0  0  0  0  0  0  0  0  0  0
  181.6990  179.5830  137.4990 C   0  0  0  0  0  3  0  0  0  0  0  0
  185.7670  178.9640  139.8350 N   0  0  0  0  0  2  0  0  0  0  0  0
  182.6500  179.1080  138.2530 C   0  0  0  0  0  0  0  0  0  0  0  0
  185.0130  178.7630  138.6010 C   0  0  1  0  0  3  0  0  0  0  0  0
  183.2930  177.4110  141.0850 C   0  0  0  0  0  1  0  0  0  0  0  0
  185.4700  177.4810  137.9300 C   0  0  0  0  0  2  0  0  0  0  0  0
  186.1400  177.7930  136.5980 C   0  0  0  0  0  2  0  0  0  0  0  0
  187.8390  177.1300  134.6710 Cl  0  0  0  0  0  0  0  0  0  0  0  0
  187.5080  177.1270  136.4230 C   0  0  1  0  0  0  0  0  0  0  0  0
  188.8150  178.1090  137.2670 S   0  0  0  0  0  0  0  0  0  0  0  0
  189.2400  176.8400  138.5040 C   0  0  0  0  0  2  0  0  0  0  0  0
  190.7150  176.7820  138.6810 C   0  0  0  0  0  0  0  0  0  0  0  0
  191.2170  177.0160  139.8120 O   0  0  0  0  0  0  0  0  0  0  0  0
  191.5500  176.4980  137.5570 N   0  0  0  0  0  2  0  0  0  0  0  0
  192.9960  176.3570  137.6700 C   0  0  0  0  0  2  0  0  0  0  0  0
  193.5350  175.2900  136.7180 C   0  0  1  0  0  3  0  0  0  0  0  0
  192.7500  174.1330  136.7580 O   0  0  0  0  0  1  0  0  0  0  0  0
  193.6810  175.8150  135.2910 C   0  0  2  0  0  3  0  0  0  0  0  0
  193.0910  174.9380  134.3760 O   0  0  0  0  0  1  0  0  0  0  0  0
  195.1500  176.0030  134.9510 C   0  0  0  0  0  2  0  0  0  0  0  0
  195.9280  175.7880  136.0890 O   0  0  0  0  0  0  0  0  0  0  0  0
  197.2450  175.8440  135.6320 C   0  0  0  0  0  2  0  0  0  0  0  0
  198.0600  174.7160  136.2420 C   0  0  0  0  0  2  0  0  0  0  0  0
  197.9200  172.5920  137.3360 O   0  0  0  0  0  1  0  0  0  0  0  0
  197.1630  173.5760  136.6990 C   0  0  0  0  0  2  0  0  0  0  0  0
  187.4800  175.6610  136.8830 C   0  0  0  0  0  2  0  0  0  0  0  0
  187.9440  174.6750  135.8190 C   0  0  0  0  0  2  0  0  0  0  0  0
  186.8930  173.6020  135.6320 C   0  0  0  0  0  2  0  0  0  0  0  0
  185.6260  174.1660  135.7710 O   0  0  0  0  0  1  0  0  0  0  0  0
  185.3380  178.9700  142.1310 C   0  0  0  0  0  2  0  0  0  0  0  0
  186.3850  178.0170  141.9860 O   0  0  0  0  0  0  0  0  0  0  0  0
  189.4450  176.9060  143.7310 C   0  0  0  0  0  0  0  0  0  0  0  0
  187.7510  177.3960  145.3910 C   0  0  0  0  0  3  0  0  0  0  0  0
  188.5510  177.2550  142.7140 C   0  0  0  0  0  3  0  0  0  0  0  0
  187.2530  177.6740  143.0270 C   0  0  0  0  0  0  0  0  0  0  0  0
  189.0440  176.9750  145.0690 C   0  0  0  0  0  3  0  0  0  0  0  0
  190.8200  176.4610  143.3910 C   0  0  0  0  0  1  0  0  0  0  0  0
  186.8570  177.7450  144.3740 C   0  0  0  0  0  3  0  0  0  0  0  0
  180.8930  178.6640  136.6550 C   0  0  0  0  0  2  0  0  0  0  0  0
  181.7360  178.1740  135.4950 C   0  0  0  0  0  2  0  0  0  0  0  0
  181.1350  176.9120  134.9020 C   0  0  0  0  0  2  0  0  0  0  0  0
  180.2780  176.3110  135.8280 O   0  0  0  0  0  0  0  0  0  0  0  0
  181.0180  175.2560  136.3730 C   0  0  1  0  0  3  0  0  0  0  0  0
  180.1350  174.3790  137.2610 C   0  0  0  0  0  2  0  0  0  0  0  0
  180.6730  175.9850  139.1010 O   0  0  0  0  0  0  0  0  0  0  0  0
  180.0230  173.8390  139.5830 O   0  0  0  0  0  1  0  0  0  0  0  0
  180.2620  174.7150  138.7130 C   0  0  0  0  0  0  0  0  0  0  0  0
  181.6720  174.4320  135.2680 C   0  0  0  0  0  2  0  0  0  0  0  0
  180.9390  173.1180  135.0560 C   0  0  0  0  0  2  0  0  0  0  0  0
  181.8320  172.0520  135.1650 O   0  0  0  0  0  1  0  0  0  0  0  0
  1 33  1  0  0  0  0
  2  1  1  0  0  0  0
  2  8  1  1  0  0  0
  3  2  1  0  0  0  0
  4  6  2  0  0  0  0
  5  1  1  0  0  0  0
  6  3  2  0  0  0  0
  7  9  1  1  0  0  0
  7  3  1  0  0  0  0
  7  5  1  0  0  0  0
 10  9  1  0  0  0  0
 12 11  1  6  0  0  0
 12 10  1  0  0  0  0
 12 29  1  0  0  0  0
 12 13  1  0  0  0  0
 13 14  1  0  0  0  0
 14 15  1  0  0  0  0
 15 16  2  0  0  0  0
 17 18  1  0  0  0  0
 17 15  1  0  0  0  0
 19 20  1  6  0  0  0
 19 18  1  0  0  0  0
 21 22  1  6  0  0  0
 21 19  1  0  0  0  0
 23 21  1  0  0  0  0
 23 24  1  0  0  0  0
 25 24  1  0  0  0  0
 25 26  1  0  0  0  0
 26 28  1  0  0  0  0
 28 27  1  0  0  0  0
 30 29  1  0  0  0  0
 31 32  1  0  0  0  0
 31 30  1  0  0  0  0
 34 33  1  0  0  0  0
 34 38  1  0  0  0  0
 35 39  1  0  0  0  0
 37 38  1  0  0  0  0
 37 35  2  0  0  0  0
 38 41  2  0  0  0  0
 39 36  2  0  0  0  0
 40 35  1  0  0  0  0
 41 36  1  0  0  0  0
 42  4  1  0  0  0  0
 43 42  1  0  0  0  0
 44 43  1  0  0  0  0
 44 45  1  0  0  0  0
 45 46  1  0  0  0  0
 46 51  1  6  0  0  0
 46 47  1  0  0  0  0
 47 50  1  0  0  0  0
 50 48  2  0  0  0  0
 50 49  1  0  0  0  0
 52 53  1  0  0  0  0
 52 51  1  0  0  0  0
M  END
>  <MODEL>
5

>  <REMARK>
 VINA RESULT:      -5.2      3.426     11.483
  Name = 
  29 active torsions:
  status: ('A' for Active; 'I' for Inactive)
    1  A    between atoms: C_1  and  C_12
    2  A    between atoms: C_1  and  O_36
    3  A    between atoms: C_2  and  C_10
    4  A    between atoms: C_3  and  C_22
    5  A    between atoms: C_4  and  C_13
    6  A    between atoms: C_4  and  C_51
    7  A    between atoms: O_6  and  C_19
    8  A    between atoms: O_6  and  C_40
    9  A    between atoms: C_7  and  C_30
   10  A    between atoms: C_7  and  C_50
   11  A    between atoms: C_8  and  C_9
   12  A    between atoms: C_8  and  C_14
   13  A    between atoms: C_10  and  C_35
   14  A    between atoms: C_12  and  C_31
   15  A    between atoms: C_13  and  O_36
   16  A    between atoms: C_14  and  C_23
   17  A    between atoms: N_15  and  C_19
   18  A    between atoms: C_17  and  C_31
   19  A    between atoms: C_17  and  N_52
   20  A    between atoms: C_22  and  S_38
   21  A    between atoms: C_23  and  C_26
   22  A    between atoms: C_23  and  S_38
   23  A    between atoms: C_26  and  C_32
   24  A    between atoms: O_29  and  C_35
   25  A    between atoms: O_29  and  C_41
   26  A    between atoms: C_32  and  C_43
   27  A    between atoms: C_35  and  C_47
   28  A    between atoms: C_41  and  C_50
   29  A    between atoms: C_42  and  C_47
                            x       y       z     vdW  Elec       q    Type
                         _______ _______ _______ _____ _____    ______ ____

>  <TORSDO>
F 29

$$$$
=
 OpenBabel10232408333D

 53 54  0  0  1  0  0  0  0  0999 V2000
  190.5660  177.8970  142.5180 N   0  0  0  0  0  0  0  0  0  0  0  0
  189.3250  177.2950  142.0020 C   0  0  1  0  0  3  0  0  0  0  0  0
  189.4910  177.3380  140.5420 C   0  0  0  0  0  0  0  0  0  0  0  0
  187.6390  178.3870  139.0340 C   0  0  0  0  0  3  0  0  0  0  0  0
  191.5740  177.6600  141.5590 N   0  0  0  0  0  2  0  0  0  0  0  0
  188.5640  177.8630  139.7880 C   0  0  0  0  0  0  0  0  0  0  0  0
  190.9150  177.5910  140.2580 C   0  0  1  0  0  3  0  0  0  0  0  0
  189.1180  175.8330  142.4120 C   0  0  0  0  0  1  0  0  0  0  0  0
  191.4900  176.4350  139.4610 C   0  0  0  0  0  2  0  0  0  0  0  0
  190.4300  175.8590  138.5290 C   0  0  0  0  0  2  0  0  0  0  0  0
  190.4530  173.6510  137.0600 Cl  0  0  0  0  0  0  0  0  0  0  0  0
  190.9910  175.3440  137.2000 C   0  0  1  0  0  0  0  0  0  0  0  0
  190.2900  176.2990  135.7920 S   0  0  0  0  0  0  0  0  0  0  0  0
  189.1340  175.0040  135.2380 C   0  0  0  0  0  2  0  0  0  0  0  0
  187.8090  175.6060  134.9350 C   0  0  0  0  0  0  0  0  0  0  0  0
  187.7490  176.7530  134.4160 O   0  0  0  0  0  0  0  0  0  0  0  0
  186.6170  174.8930  135.2690 N   0  0  0  0  0  2  0  0  0  0  0  0
  185.2870  175.3900  134.9400 C   0  0  0  0  0  2  0  0  0  0  0  0
  184.3240  175.2500  136.1190 C   0  0  1  0  0  3  0  0  0  0  0  0
  183.3780  176.2800  136.1240 O   0  0  0  0  0  1  0  0  0  0  0  0
  183.6530  173.8780  136.1520 C   0  0  2  0  0  3  0  0  0  0  0  0
  182.2620  174.0050  136.1570 O   0  0  0  0  0  1  0  0  0  0  0  0
  184.1050  173.1050  137.3790 C   0  0  0  0  0  2  0  0  0  0  0  0
  184.6290  171.8710  136.9920 O   0  0  0  0  0  0  0  0  0  0  0  0
  184.0950  171.6440  135.7230 C   0  0  0  0  0  2  0  0  0  0  0  0
  184.4280  170.2360  135.2590 C   0  0  0  0  0  2  0  0  0  0  0  0
  183.9850  167.9530  135.8200 O   0  0  0  0  0  1  0  0  0  0  0  0
  183.4230  169.2300  135.7960 C   0  0  0  0  0  2  0  0  0  0  0  0
  192.5280  175.3390  137.2050 C   0  0  0  0  0  2  0  0  0  0  0  0
  193.1380  173.9500  137.0790 C   0  0  0  0  0  2  0  0  0  0  0  0
  194.6450  174.0490  137.1720 C   0  0  0  0  0  2  0  0  0  0  0  0
  194.9960  174.6340  138.3880 O   0  0  0  0  0  1  0  0  0  0  0  0
  190.9950  177.3370  143.8000 C   0  0  0  0  0  2  0  0  0  0  0  0
  190.5680  178.1730  144.8690 O   0  0  0  0  0  0  0  0  0  0  0  0
  188.1160  177.8620  147.6140 C   0  0  0  0  0  0  0  0  0  0  0  0
  186.9380  177.6630  145.5070 C   0  0  0  0  0  3  0  0  0  0  0  0
  189.3220  178.0250  146.9250 C   0  0  0  0  0  3  0  0  0  0  0  0
  189.3450  178.0060  145.5260 C   0  0  0  0  0  0  0  0  0  0  0  0
  186.9240  177.6800  146.9040 C   0  0  0  0  0  3  0  0  0  0  0  0
  188.1000  177.8820  149.0990 C   0  0  0  0  0  1  0  0  0  0  0  0
  188.1440  177.8260  144.8190 C   0  0  0  0  0  3  0  0  0  0  0  0
  186.9450  177.5510  138.0210 C   0  0  0  0  0  2  0  0  0  0  0  0
  185.8240  178.3510  137.3890 C   0  0  0  0  0  2  0  0  0  0  0  0
  184.8660  178.8510  138.4570 C   0  0  0  0  0  2  0  0  0  0  0  0
  184.3850  177.7740  139.2070 O   0  0  0  0  0  0  0  0  0  0  0  0
  183.8200  178.3530  140.3490 C   0  0  1  0  0  3  0  0  0  0  0  0
  182.3690  177.9060  140.5200 C   0  0  0  0  0  2  0  0  0  0  0  0
  180.6740  178.0230  138.6840 O   0  0  0  0  0  0  0  0  0  0  0  0
  181.3250  179.9250  139.7890 O   0  0  0  0  0  1  0  0  0  0  0  0
  181.4230  178.6770  139.6550 C   0  0  0  0  0  0  0  0  0  0  0  0
  184.6460  178.0140  141.5870 C   0  0  0  0  0  2  0  0  0  0  0  0
  185.5060  179.1910  142.0130 C   0  0  0  0  0  2  0  0  0  0  0  0
  185.0430  179.7050  143.2250 O   0  0  0  0  0  1  0  0  0  0  0  0
  1 33  1  0  0  0  0
  2  8  1  1  0  0  0
  2  1  1  0  0  0  0
  3  2  1  0  0  0  0
  4  6  2  0  0  0  0
  5  1  1  0  0  0  0
  6  3  2  0  0  0  0
  7  9  1  6  0  0  0
  7  3  1  0  0  0  0
  7  5  1  0  0  0  0
 10  9  1  0  0  0  0
 12 11  1  6  0  0  0
 12 29  1  0  0  0  0
 12 10  1  0  0  0  0
 13 12  1  0  0  0  0
 14 13  1  0  0  0  0
 15 14  1  0  0  0  0
 15 17  1  0  0  0  0
 16 15  2  0  0  0  0
 18 17  1  0  0  0  0
 18 19  1  0  0  0  0
 19 20  1  6  0  0  0
 19 21  1  0  0  0  0
 21 22  1  1  0  0  0
 21 23  1  0  0  0  0
 24 23  1  0  0  0  0
 25 24  1  0  0  0  0
 26 25  1  0  0  0  0
 26 28  1  0  0  0  0
 28 27  1  0  0  0  0
 30 31  1  0  0  0  0
 30 29  1  0  0  0  0
 31 32  1  0  0  0  0
 33 34  1  0  0  0  0
 34 38  1  0  0  0  0
 35 40  1  0  0  0  0
 36 39  1  0  0  0  0
 37 35  1  0  0  0  0
 38 37  2  0  0  0  0
 39 35  2  0  0  0  0
 41 36  2  0  0  0  0
 41 38  1  0  0  0  0
 42  4  1  0  0  0  0
 43 42  1  0  0  0  0
 43 44  1  0  0  0  0
 44 45  1  0  0  0  0
 45 46  1  0  0  0  0
 46 47  1  1  0  0  0
 46 51  1  0  0  0  0
 48 50  2  0  0  0  0
 50 49  1  0  0  0  0
 50 47  1  0  0  0  0
 51 52  1  0  0  0  0
 52 53  1  0  0  0  0
M  END
>  <MODEL>
6

>  <REMARK>
 VINA RESULT:      -5.1      3.505     10.739
  Name = 
  29 active torsions:
  status: ('A' for Active; 'I' for Inactive)
    1  A    between atoms: C_1  and  C_12
    2  A    between atoms: C_1  and  O_36
    3  A    between atoms: C_2  and  C_10
    4  A    between atoms: C_3  and  C_22
    5  A    between atoms: C_4  and  C_13
    6  A    between atoms: C_4  and  C_51
    7  A    between atoms: O_6  and  C_19
    8  A    between atoms: O_6  and  C_40
    9  A    between atoms: C_7  and  C_30
   10  A    between atoms: C_7  and  C_50
   11  A    between atoms: C_8  and  C_9
   12  A    between atoms: C_8  and  C_14
   13  A    between atoms: C_10  and  C_35
   14  A    between atoms: C_12  and  C_31
   15  A    between atoms: C_13  and  O_36
   16  A    between atoms: C_14  and  C_23
   17  A    between atoms: N_15  and  C_19
   18  A    between atoms: C_17  and  C_31
   19  A    between atoms: C_17  and  N_52
   20  A    between atoms: C_22  and  S_38
   21  A    between atoms: C_23  and  C_26
   22  A    between atoms: C_23  and  S_38
   23  A    between atoms: C_26  and  C_32
   24  A    between atoms: O_29  and  C_35
   25  A    between atoms: O_29  and  C_41
   26  A    between atoms: C_32  and  C_43
   27  A    between atoms: C_35  and  C_47
   28  A    between atoms: C_41  and  C_50
   29  A    between atoms: C_42  and  C_47
                            x       y       z     vdW  Elec       q    Type
                         _______ _______ _______ _____ _____    ______ ____

>  <TORSDO>
F 29

$$$$
=
 OpenBabel10232408333D

 53 54  0  0  1  0  0  0  0  0999 V2000
  186.1650  178.7890  138.4940 N   0  0  0  0  0  0  0  0  0  0  0  0
  186.5430  177.7240  137.5510 C   0  0  1  0  0  3  0  0  0  0  0  0
  187.9490  177.4450  137.8770 C   0  0  0  0  0  0  0  0  0  0  0  0
  189.7640  177.4550  136.0020 C   0  0  0  0  0  3  0  0  0  0  0  0
  186.9780  178.6420  139.6380 N   0  0  0  0  0  2  0  0  0  0  0  0
  188.8570  177.4500  136.9390 C   0  0  0  0  0  0  0  0  0  0  0  0
  188.2340  178.0460  139.1930 C   0  0  1  0  0  3  0  0  0  0  0  0
  185.7520  176.4230  137.7220 C   0  0  0  0  0  1  0  0  0  0  0  0
  188.6540  176.9620  140.1680 C   0  0  0  0  0  2  0  0  0  0  0  0
  190.1310  177.1050  140.5110 C   0  0  0  0  0  2  0  0  0  0  0  0
  191.9870  178.0010  142.1820 Cl  0  0  0  0  0  0  0  0  0  0  0  0
  190.4110  177.1850  142.0160 C   0  0  1  0  0  0  0  0  0  0  0  0
  189.1320  178.2050  142.8560 S   0  0  0  0  0  0  0  0  0  0  0  0
  190.2040  178.7770  144.2140 C   0  0  0  0  0  2  0  0  0  0  0  0
  189.8630  178.0530  145.4660 C   0  0  0  0  0  0  0  0  0  0  0  0
  190.7570  177.8410  146.3280 O   0  0  0  0  0  0  0  0  0  0  0  0
  188.5320  177.5710  145.6620 N   0  0  0  0  0  2  0  0  0  0  0  0
  188.1090  176.9130  146.8920 C   0  0  0  0  0  2  0  0  0  0  0  0
  187.3200  177.8600  147.7960 C   0  0  1  0  0  3  0  0  0  0  0  0
  188.1570  178.4880  148.7250 O   0  0  0  0  0  1  0  0  0  0  0  0
  186.5160  178.8820  146.9930 C   0  0  2  0  0  3  0  0  0  0  0  0
  185.9740  179.8580  147.8320 O   0  0  0  0  0  1  0  0  0  0  0  0
  185.4040  178.1850  146.2260 C   0  0  0  0  0  2  0  0  0  0  0  0
  184.1850  178.8070  146.4950 O   0  0  0  0  0  0  0  0  0  0  0  0
  183.6540  179.0980  145.2380 C   0  0  0  0  0  2  0  0  0  0  0  0
  184.6710  178.7850  144.1530 C   0  0  0  0  0  2  0  0  0  0  0  0
  182.5990  178.3660  143.0320 O   0  0  0  0  0  1  0  0  0  0  0  0
  183.9840  178.3620  142.8640 C   0  0  0  0  0  2  0  0  0  0  0  0
  190.5510  175.7840  142.6330 C   0  0  0  0  0  2  0  0  0  0  0  0
  191.6510  175.6830  143.6810 C   0  0  0  0  0  2  0  0  0  0  0  0
  191.6780  174.2820  144.2520 C   0  0  0  0  0  2  0  0  0  0  0  0
  192.4740  174.2630  145.3960 O   0  0  0  0  0  1  0  0  0  0  0  0
  184.7620  178.7320  138.9040 C   0  0  0  0  0  2  0  0  0  0  0  0
  184.1790  180.0290  138.8450 O   0  0  0  0  0  0  0  0  0  0  0  0
  180.7730  179.3750  137.5730 C   0  0  0  0  0  0  0  0  0  0  0  0
  180.9040  181.6960  138.2560 C   0  0  0  0  0  3  0  0  0  0  0  0
  182.1070  179.1880  137.9490 C   0  0  0  0  0  3  0  0  0  0  0  0
  182.8480  180.2510  138.4770 C   0  0  0  0  0  0  0  0  0  0  0  0
  180.1730  180.6290  137.7260 C   0  0  0  0  0  3  0  0  0  0  0  0
  179.9940  178.2430  137.0110 C   0  0  0  0  0  1  0  0  0  0  0  0
  182.2380  181.5080  138.6320 C   0  0  0  0  0  3  0  0  0  0  0  0
  190.5320  176.2170  135.7070 C   0  0  0  0  0  2  0  0  0  0  0  0
  190.8250  175.4850  137.0010 C   0  0  0  0  0  2  0  0  0  0  0  0
  192.0000  174.5410  136.8180 C   0  0  0  0  0  2  0  0  0  0  0  0
  193.1970  175.2120  137.0820 O   0  0  0  0  0  0  0  0  0  0  0  0
  194.1720  174.2090  137.1240 C   0  0  1  0  0  3  0  0  0  0  0  0
  194.2850  173.5080  135.7700 C   0  0  0  0  0  2  0  0  0  0  0  0
  193.3580  171.2270  136.2100 O   0  0  0  0  0  1  0  0  0  0  0  0
  195.5890  171.5080  135.7570 O   0  0  0  0  0  0  0  0  0  0  0  0
  194.4510  172.0270  135.9010 C   0  0  0  0  0  0  0  0  0  0  0  0
  195.5170  174.7880  137.5530 C   0  0  0  0  0  2  0  0  0  0  0  0
  196.3580  173.7470  138.2720 C   0  0  0  0  0  2  0  0  0  0  0  0
  196.6360  174.1730  139.5710 O   0  0  0  0  0  1  0  0  0  0  0  0
  1 33  1  0  0  0  0
  1  5  1  0  0  0  0
  2  8  1  1  0  0  0
  2  3  1  0  0  0  0
  2  1  1  0  0  0  0
  3  7  1  0  0  0  0
  4  6  2  0  0  0  0
  6  3  2  0  0  0  0
  7  5  1  0  0  0  0
  7  9  1  1  0  0  0
  9 10  1  0  0  0  0
 10 12  1  0  0  0  0
 12 11  1  1  0  0  0
 12 29  1  0  0  0  0
 12 13  1  0  0  0  0
 13 14  1  0  0  0  0
 14 15  1  0  0  0  0
 15 17  1  0  0  0  0
 15 16  2  0  0  0  0
 17 18  1  0  0  0  0
 18 19  1  0  0  0  0
 19 20  1  1  0  0  0
 21 19  1  0  0  0  0
 21 22  1  1  0  0  0
 23 24  1  0  0  0  0
 23 21  1  0  0  0  0
 25 24  1  0  0  0  0
 26 25  1  0  0  0  0
 28 27  1  0  0  0  0
 28 26  1  0  0  0  0
 29 30  1  0  0  0  0
 30 31  1  0  0  0  0
 31 32  1  0  0  0  0
 34 33  1  0  0  0  0
 35 39  2  0  0  0  0
 35 37  1  0  0  0  0
 36 41  2  0  0  0  0
 37 38  2  0  0  0  0
 38 41  1  0  0  0  0
 38 34  1  0  0  0  0
 39 36  1  0  0  0  0
 40 35  1  0  0  0  0
 42  4  1  0  0  0  0
 42 43  1  0  0  0  0
 44 43  1  0  0  0  0
 44 45  1  0  0  0  0
 45 46  1  0  0  0  0
 46 47  1  6  0  0  0
 46 51  1  0  0  0  0
 47 50  1  0  0  0  0
 49 50  2  0  0  0  0
 50 48  1  0  0  0  0
 51 52  1  0  0  0  0
 52 53  1  0  0  0  0
M  END
>  <MODEL>
7

>  <REMARK>
 VINA RESULT:      -4.9      1.978      3.169
  Name = 
  29 active torsions:
  status: ('A' for Active; 'I' for Inactive)
    1  A    between atoms: C_1  and  C_12
    2  A    between atoms: C_1  and  O_36
    3  A    between atoms: C_2  and  C_10
    4  A    between atoms: C_3  and  C_22
    5  A    between atoms: C_4  and  C_13
    6  A    between atoms: C_4  and  C_51
    7  A    between atoms: O_6  and  C_19
    8  A    between atoms: O_6  and  C_40
    9  A    between atoms: C_7  and  C_30
   10  A    between atoms: C_7  and  C_50
   11  A    between atoms: C_8  and  C_9
   12  A    between atoms: C_8  and  C_14
   13  A    between atoms: C_10  and  C_35
   14  A    between atoms: C_12  and  C_31
   15  A    between atoms: C_13  and  O_36
   16  A    between atoms: C_14  and  C_23
   17  A    between atoms: N_15  and  C_19
   18  A    between atoms: C_17  and  C_31
   19  A    between atoms: C_17  and  N_52
   20  A    between atoms: C_22  and  S_38
   21  A    between atoms: C_23  and  C_26
   22  A    between atoms: C_23  and  S_38
   23  A    between atoms: C_26  and  C_32
   24  A    between atoms: O_29  and  C_35
   25  A    between atoms: O_29  and  C_41
   26  A    between atoms: C_32  and  C_43
   27  A    between atoms: C_35  and  C_47
   28  A    between atoms: C_41  and  C_50
   29  A    between atoms: C_42  and  C_47
                            x       y       z     vdW  Elec       q    Type
                         _______ _______ _______ _____ _____    ______ ____

>  <TORSDO>
F 29

$$$$
=
 OpenBabel10232408333D

 53 54  0  0  1  0  0  0  0  0999 V2000
  183.5810  179.1010  140.3330 N   0  0  0  0  0  0  0  0  0  0  0  0
  182.5940  178.2160  139.6930 C   0  0  1  0  0  3  0  0  0  0  0  0
  182.9930  178.2030  138.2780 C   0  0  0  0  0  0  0  0  0  0  0  0
  181.2500  178.7350  136.4120 C   0  0  0  0  0  3  0  0  0  0  0  0
  184.7640  179.0290  139.5670 N   0  0  0  0  0  2  0  0  0  0  0  0
  182.1200  178.4690  137.3440 C   0  0  0  0  0  0  0  0  0  0  0  0
  184.3640  178.7400  138.1930 C   0  0  1  0  0  3  0  0  0  0  0  0
  182.6200  176.7720  140.2050 C   0  0  0  0  0  1  0  0  0  0  0  0
  185.2870  177.6880  137.6070 C   0  0  0  0  0  2  0  0  0  0  0  0
  186.6590  178.2900  137.3250 C   0  0  0  0  0  2  0  0  0  0  0  0
  187.0590  175.6680  137.2960 Cl  0  0  0  0  0  0  0  0  0  0  0  0
  187.8070  177.2800  137.4190 C   0  0  1  0  0  0  0  0  0  0  0  0
  188.9710  177.4960  136.0110 S   0  0  0  0  0  0  0  0  0  0  0  0
  189.2330  175.7180  135.7050 C   0  0  0  0  0  2  0  0  0  0  0  0
  190.6850  175.4410  135.5510 C   0  0  0  0  0  0  0  0  0  0  0  0
  191.3680  176.1200  134.7390 O   0  0  0  0  0  0  0  0  0  0  0  0
  191.2840  174.3800  136.2980 N   0  0  0  0  0  2  0  0  0  0  0  0
  192.7130  174.0950  136.2490 C   0  0  0  0  0  2  0  0  0  0  0  0
  192.9880  172.5920  136.2240 C   0  0  1  0  0  3  0  0  0  0  0  0
  192.2130  171.9520  135.2520 O   0  0  0  0  0  1  0  0  0  0  0  0
  194.4740  172.2840  136.0420 C   0  0  2  0  0  3  0  0  0  0  0  0
  195.0540  171.9050  137.2540 O   0  0  0  0  0  1  0  0  0  0  0  0
  195.1940  173.4990  135.4820 C   0  0  0  0  0  2  0  0  0  0  0  0
  196.4950  173.5470  135.9830 O   0  0  0  0  0  0  0  0  0  0  0  0
  197.1200  174.5530  135.2440 C   0  0  0  0  0  2  0  0  0  0  0  0
  198.3650  175.0390  135.9680 C   0  0  0  0  0  2  0  0  0  0  0  0
  199.0230  174.7030  138.2430 O   0  0  0  0  0  1  0  0  0  0  0  0
  198.8020  174.0460  137.0320 C   0  0  0  0  0  2  0  0  0  0  0  0
  188.5090  177.3580  138.7840 C   0  0  0  0  0  2  0  0  0  0  0  0
  190.0220  177.5050  138.6900 C   0  0  0  0  0  2  0  0  0  0  0  0
  190.6840  176.5610  139.6700 C   0  0  0  0  0  2  0  0  0  0  0  0
  191.2130  177.2930  140.7320 O   0  0  0  0  0  1  0  0  0  0  0  0
  183.8910  178.7260  141.7130 C   0  0  0  0  0  2  0  0  0  0  0  0
  185.1550  179.2580  142.0940 O   0  0  0  0  0  0  0  0  0  0  0  0
  186.7250  177.7990  145.1020 C   0  0  0  0  0  0  0  0  0  0  0  0
  188.0850  177.2370  143.1790 C   0  0  0  0  0  3  0  0  0  0  0  0
  185.8350  178.4900  144.2730 C   0  0  0  0  0  3  0  0  0  0  0  0
  186.0650  178.5610  142.8950 C   0  0  0  0  0  0  0  0  0  0  0  0
  187.8500  177.1740  144.5550 C   0  0  0  0  0  3  0  0  0  0  0  0
  186.4750  177.7300  146.5650 C   0  0  0  0  0  1  0  0  0  0  0  0
  187.1960  177.9270  142.3500 C   0  0  0  0  0  3  0  0  0  0  0  0
  180.9220  177.7080  135.3890 C   0  0  0  0  0  2  0  0  0  0  0  0
  182.1690  176.9170  135.0510 C   0  0  0  0  0  2  0  0  0  0  0  0
  181.9960  175.4630  135.4560 C   0  0  0  0  0  2  0  0  0  0  0  0
  183.1950  174.9660  135.9730 O   0  0  0  0  0  0  0  0  0  0  0  0
  183.0590  173.5740  135.9290 C   0  0  1  0  0  3  0  0  0  0  0  0
  181.8610  173.1750  135.0690 C   0  0  0  0  0  2  0  0  0  0  0  0
  182.0370  170.8060  135.8510 O   0  0  0  0  0  1  0  0  0  0  0  0
  179.9830  171.7820  135.5480 O   0  0  0  0  0  0  0  0  0  0  0  0
  181.2360  171.8900  135.5100 C   0  0  0  0  0  0  0  0  0  0  0  0
  184.3410  172.9260  135.4150 C   0  0  0  0  0  2  0  0  0  0  0  0
  185.3320  172.6980  136.5440 C   0  0  0  0  0  2  0  0  0  0  0  0
  184.6480  172.4630  137.7370 O   0  0  0  0  0  1  0  0  0  0  0  0
  1 33  1  0  0  0  0
  2  8  1  1  0  0  0
  2  1  1  0  0  0  0
  3  2  1  0  0  0  0
  4  6  2  0  0  0  0
  5  1  1  0  0  0  0
  6  3  2  0  0  0  0
  7  9  1  1  0  0  0
  7  3  1  0  0  0  0
  7  5  1  0  0  0  0
 10 12  1  0  0  0  0
 10  9  1  0  0  0  0
 12 11  1  6  0  0  0
 12 29  1  0  0  0  0
 13 12  1  0  0  0  0
 14 13  1  0  0  0  0
 15 14  1  0  0  0  0
 15 17  1  0  0  0  0
 16 15  2  0  0  0  0
 18 17  1  0  0  0  0
 19 20  1  6  0  0  0
 19 18  1  0  0  0  0
 21 19  1  0  0  0  0
 21 22  1  1  0  0  0
 23 24  1  0  0  0  0
 23 21  1  0  0  0  0
 25 26  1  0  0  0  0
 25 24  1  0  0  0  0
 26 28  1  0  0  0  0
 28 27  1  0  0  0  0
 30 29  1  0  0  0  0
 30 31  1  0  0  0  0
 31 32  1  0  0  0  0
 33 34  1  0  0  0  0
 34 38  1  0  0  0  0
 35 40  1  0  0  0  0
 36 39  2  0  0  0  0
 37 35  2  0  0  0  0
 38 37  1  0  0  0  0
 39 35  1  0  0  0  0
 41 38  2  0  0  0  0
 41 36  1  0  0  0  0
 42  4  1  0  0  0  0
 43 42  1  0  0  0  0
 43 44  1  0  0  0  0
 44 45  1  0  0  0  0
 46 47  1  6  0  0  0
 46 45  1  0  0  0  0
 47 50  1  0  0  0  0
 50 49  2  0  0  0  0
 50 48  1  0  0  0  0
 51 46  1  0  0  0  0
 51 52  1  0  0  0  0
 52 53  1  0  0  0  0
M  END
>  <MODEL>
8

>  <REMARK>
 VINA RESULT:      -4.8      3.529     11.126
  Name = 
  29 active torsions:
  status: ('A' for Active; 'I' for Inactive)
    1  A    between atoms: C_1  and  C_12
    2  A    between atoms: C_1  and  O_36
    3  A    between atoms: C_2  and  C_10
    4  A    between atoms: C_3  and  C_22
    5  A    between atoms: C_4  and  C_13
    6  A    between atoms: C_4  and  C_51
    7  A    between atoms: O_6  and  C_19
    8  A    between atoms: O_6  and  C_40
    9  A    between atoms: C_7  and  C_30
   10  A    between atoms: C_7  and  C_50
   11  A    between atoms: C_8  and  C_9
   12  A    between atoms: C_8  and  C_14
   13  A    between atoms: C_10  and  C_35
   14  A    between atoms: C_12  and  C_31
   15  A    between atoms: C_13  and  O_36
   16  A    between atoms: C_14  and  C_23
   17  A    between atoms: N_15  and  C_19
   18  A    between atoms: C_17  and  C_31
   19  A    between atoms: C_17  and  N_52
   20  A    between atoms: C_22  and  S_38
   21  A    between atoms: C_23  and  C_26
   22  A    between atoms: C_23  and  S_38
   23  A    between atoms: C_26  and  C_32
   24  A    between atoms: O_29  and  C_35
   25  A    between atoms: O_29  and  C_41
   26  A    between atoms: C_32  and  C_43
   27  A    between atoms: C_35  and  C_47
   28  A    between atoms: C_41  and  C_50
   29  A    between atoms: C_42  and  C_47
                            x       y       z     vdW  Elec       q    Type
                         _______ _______ _______ _____ _____    ______ ____

>  <TORSDO>
F 29

$$$$
=
 OpenBabel10232408333D

 53 54  0  0  1  0  0  0  0  0999 V2000
  190.6840  177.6220  143.1580 N   0  0  0  0  0  0  0  0  0  0  0  0
  189.4410  176.9830  142.6950 C   0  0  1  0  0  3  0  0  0  0  0  0
  189.4460  177.2070  141.2430 C   0  0  0  0  0  0  0  0  0  0  0  0
  187.3750  178.2680  140.0630 C   0  0  0  0  0  3  0  0  0  0  0  0
  191.5980  177.5810  142.0840 N   0  0  0  0  0  2  0  0  0  0  0  0
  188.4090  177.7380  140.6530 C   0  0  0  0  0  0  0  0  0  0  0  0
  190.8110  177.6080  140.8540 C   0  0  1  0  0  3  0  0  0  0  0  0
  189.3810  175.4720  142.9400 C   0  0  0  0  0  1  0  0  0  0  0  0
  191.3770  176.6030  139.8690 C   0  0  0  0  0  2  0  0  0  0  0  0
  190.3080  176.1910  138.8640 C   0  0  0  0  0  2  0  0  0  0  0  0
  190.2000  174.1060  137.2280 Cl  0  0  0  0  0  0  0  0  0  0  0  0
  190.8720  175.7310  137.5160 C   0  0  1  0  0  0  0  0  0  0  0  0
  190.3060  176.8470  136.1660 S   0  0  0  0  0  0  0  0  0  0  0  0
  189.6410  175.5300  135.0960 C   0  0  0  0  0  2  0  0  0  0  0  0
  188.1770  175.7140  134.9190 C   0  0  0  0  0  0  0  0  0  0  0  0
  187.7090  176.8710  134.7460 O   0  0  0  0  0  0  0  0  0  0  0  0
  187.3100  174.5800  134.9850 N   0  0  0  0  0  2  0  0  0  0  0  0
  185.8740  174.6750  134.7540 C   0  0  0  0  0  2  0  0  0  0  0  0
  185.1030  173.6230  135.5510 C   0  0  1  0  0  3  0  0  0  0  0  0
  185.6560  172.3500  135.3750 O   0  0  0  0  0  1  0  0  0  0  0  0
  185.0020  173.9860  137.0320 C   0  0  2  0  0  3  0  0  0  0  0  0
  185.5450  172.9760  137.8290 O   0  0  0  0  0  1  0  0  0  0  0  0
  183.5500  174.2190  137.4130 C   0  0  0  0  0  2  0  0  0  0  0  0
  183.3370  175.5780  137.6470 O   0  0  0  0  0  0  0  0  0  0  0  0
  182.0950  175.8450  137.0700 C   0  0  0  0  0  2  0  0  0  0  0  0
  182.2700  176.2710  135.6210 C   0  0  0  0  0  2  0  0  0  0  0  0
  180.8240  178.0390  134.9090 O   0  0  0  0  0  1  0  0  0  0  0  0
  180.9370  176.6500  134.9970 C   0  0  0  0  0  2  0  0  0  0  0  0
  192.4020  175.5930  137.5670 C   0  0  0  0  0  2  0  0  0  0  0  0
  192.8880  174.1510  137.5740 C   0  0  0  0  0  2  0  0  0  0  0  0
  194.2590  174.0820  138.2110 C   0  0  0  0  0  2  0  0  0  0  0  0
  194.7920  175.3670  138.3010 O   0  0  0  0  0  1  0  0  0  0  0  0
  191.2860  176.9540  144.3130 C   0  0  0  0  0  2  0  0  0  0  0  0
  191.1530  177.7670  145.4740 O   0  0  0  0  0  0  0  0  0  0  0  0
  187.5830  177.7720  146.4250 C   0  0  0  0  0  0  0  0  0  0  0  0
  188.9160  177.7720  148.4480 C   0  0  0  0  0  3  0  0  0  0  0  0
  188.7500  177.7700  145.6550 C   0  0  0  0  0  3  0  0  0  0  0  0
  190.0060  177.7710  146.2740 C   0  0  0  0  0  0  0  0  0  0  0  0
  187.6660  177.7750  147.8210 C   0  0  0  0  0  3  0  0  0  0  0  0
  186.2550  177.7720  145.7610 C   0  0  0  0  0  1  0  0  0  0  0  0
  190.0820  177.7700  147.6770 C   0  0  0  0  0  3  0  0  0  0  0  0
  186.6370  177.5000  139.0270 C   0  0  0  0  0  2  0  0  0  0  0  0
  185.7200  178.4340  138.2650 C   0  0  0  0  0  2  0  0  0  0  0  0
  184.8090  179.1780  139.2260 C   0  0  0  0  0  2  0  0  0  0  0  0
  183.9640  178.2760  139.8770 O   0  0  0  0  0  0  0  0  0  0  0  0
  183.6090  178.9100  141.0730 C   0  0  1  0  0  3  0  0  0  0  0  0
  182.1570  178.6010  141.4380 C   0  0  0  0  0  2  0  0  0  0  0  0
  180.2790  178.6020  139.7860 O   0  0  0  0  0  0  0  0  0  0  0  0
  181.1860  180.5780  140.5160 O   0  0  0  0  0  1  0  0  0  0  0  0
  181.1780  179.3210  140.5650 C   0  0  0  0  0  0  0  0  0  0  0  0
  184.5540  178.5010  142.1980 C   0  0  0  0  0  2  0  0  0  0  0  0
  183.8180  178.3980  143.5230 C   0  0  0  0  0  2  0  0  0  0  0  0
  184.2510  179.4040  144.3880 O   0  0  0  0  0  1  0  0  0  0  0  0
  1 33  1  0  0  0  0
  2  8  1  6  0  0  0
  2  1  1  0  0  0  0
  3  2  1  0  0  0  0
  4  6  2  0  0  0  0
  5  1  1  0  0  0  0
  6  3  2  0  0  0  0
  7  9  1  6  0  0  0
  7  3  1  0  0  0  0
  7  5  1  0  0  0  0
 10  9  1  0  0  0  0
 12 11  1  6  0  0  0
 12 29  1  0  0  0  0
 12 10  1  0  0  0  0
 13 12  1  0  0  0  0
 14 13  1  0  0  0  0
 15 17  1  0  0  0  0
 15 14  1  0  0  0  0
 16 15  2  0  0  0  0
 18 17  1  0  0  0  0
 18 19  1  0  0  0  0
 19 20  1  1  0  0  0
 19 21  1  0  0  0  0
 21 23  1  0  0  0  0
 21 22  1  1  0  0  0
 23 24  1  0  0  0  0
 25 24  1  0  0  0  0
 26 25  1  0  0  0  0
 27 28  1  0  0  0  0
 28 26  1  0  0  0  0
 29 30  1  0  0  0  0
 30 31  1  0  0  0  0
 31 32  1  0  0  0  0
 33 34  1  0  0  0  0
 34 38  1  0  0  0  0
 35 39  1  0  0  0  0
 37 38  1  0  0  0  0
 37 35  2  0  0  0  0
 38 41  2  0  0  0  0
 39 36  2  0  0  0  0
 40 35  1  0  0  0  0
 41 36  1  0  0  0  0
 42  4  1  0  0  0  0
 43 42  1  0  0  0  0
 43 44  1  0  0  0  0
 44 45  1  0  0  0  0
 45 46  1  0  0  0  0
 46 47  1  1  0  0  0
 46 51  1  0  0  0  0
 48 50  2  0  0  0  0
 49 50  1  0  0  0  0
 50 47  1  0  0  0  0
 51 52  1  0  0  0  0
 52 53  1  0  0  0  0
M  END
>  <MODEL>
9

>  <REMARK>
 VINA RESULT:      -4.8      2.946     10.668
  Name = 
  29 active torsions:
  status: ('A' for Active; 'I' for Inactive)
    1  A    between atoms: C_1  and  C_12
    2  A    between atoms: C_1  and  O_36
    3  A    between atoms: C_2  and  C_10
    4  A    between atoms: C_3  and  C_22
    5  A    between atoms: C_4  and  C_13
    6  A    between atoms: C_4  and  C_51
    7  A    between atoms: O_6  and  C_19
    8  A    between atoms: O_6  and  C_40
    9  A    between atoms: C_7  and  C_30
   10  A    between atoms: C_7  and  C_50
   11  A    between atoms: C_8  and  C_9
   12  A    between atoms: C_8  and  C_14
   13  A    between atoms: C_10  and  C_35
   14  A    between atoms: C_12  and  C_31
   15  A    between atoms: C_13  and  O_36
   16  A    between atoms: C_14  and  C_23
   17  A    between atoms: N_15  and  C_19
   18  A    between atoms: C_17  and  C_31
   19  A    between atoms: C_17  and  N_52
   20  A    between atoms: C_22  and  S_38
   21  A    between atoms: C_23  and  C_26
   22  A    between atoms: C_23  and  S_38
   23  A    between atoms: C_26  and  C_32
   24  A    between atoms: O_29  and  C_35
   25  A    between atoms: O_29  and  C_41
   26  A    between atoms: C_32  and  C_43
   27  A    between atoms: C_35  and  C_47
   28  A    between atoms: C_41  and  C_50
   29  A    between atoms: C_42  and  C_47
                            x       y       z     vdW  Elec       q    Type
                         _______ _______ _______ _____ _____    ______ ____

>  <TORSDO>
F 29

$$$$
