=
 OpenBabel10232411163D

 33 38  0  0  1  0  0  0  0  0999 V2000
  186.9500  176.5490  137.0380 N   0  0  0  0  0  0  0  0  0  0  0  0
  188.4380  174.9290  136.1670 N   0  0  0  0  0  0  0  0  0  0  0  0
  189.8380  178.1100  139.8220 C   0  0  1  0  0  3  0  0  0  0  0  0
  188.7750  177.1290  139.3530 C   0  0  1  0  0  0  0  0  0  0  0  0
  186.3790  177.7650  143.7000 C   0  0  0  0  0  3  0  0  0  0  0  0
  186.6100  177.6450  137.9020 C   0  0  0  0  0  2  0  0  0  0  0  0
  188.3670  178.4220  139.9200 C   0  0  2  0  0  0  0  0  0  0  0  0
  190.5330  177.7050  141.1400 C   0  0  0  0  0  2  0  0  0  0  0  0
  188.1590  176.0290  137.0430 C   0  0  0  0  0  0  0  0  0  0  0  0
  189.6160  174.3940  136.0460 C   0  0  0  0  0  3  0  0  0  0  0  0
  191.2250  175.6130  139.0220 N   0  0  0  0  0  2  0  0  0  0  0  0
  187.5260  177.8530  138.8130 C   0  0  1  0  0  3  0  0  0  0  0  0
  190.4070  175.6160  138.0350 C   0  0  0  0  0  0  0  0  0  0  0  0
  189.6630  177.0030  142.0770 N   0  0  0  0  0  0  0  0  0  0  0  0
  187.7030  178.2130  141.2670 C   0  0  0  0  0  0  0  0  0  0  0  0
  187.6610  177.2510  143.4970 C   0  0  0  0  0  3  0  0  0  0  0  0
  186.4210  178.7370  141.4870 C   0  0  0  0  0  3  0  0  0  0  0  0
  188.3340  177.4860  142.2910 C   0  0  0  0  0  0  0  0  0  0  0  0
  189.2830  176.6290  137.9470 C   0  0  2  0  0  3  0  0  0  0  0  0
  190.8160  174.9230  136.7750 C   0  0  0  0  0  2  0  0  0  0  0  0
  185.7520  178.5210  142.7010 C   0  0  0  0  0  0  0  0  0  0  0  0
  184.4360  179.0540  142.9220 N   0  0  0  0  0  0  0  0  0  0  0  0
  183.3280  178.7320  142.0360 C   0  0  0  0  0  1  0  0  0  0  0  0
  184.2040  179.8770  143.9720 O   0  0  0  0  0  1  0  0  0  0  0  0
  190.1540  175.7840  142.7070 C   0  0  0  0  0  2  0  0  0  0  0  0
  191.4180  176.0740  143.4960 C   0  0  0  0  0  2  0  0  0  0  0  0
  191.1020  177.0480  144.6100 C   0  0  0  0  0  2  0  0  0  0  0  0
  191.5990  176.4870  145.9240 C   0  0  0  0  0  2  0  0  0  0  0  0
  190.6320  176.8610  147.0320 C   0  0  0  0  0  2  0  0  0  0  0  0
  189.4460  177.6270  146.4680 C   0  0  0  0  0  2  0  0  0  0  0  0
  187.1820  177.8460  147.1830 O   0  0  0  0  0  0  0  0  0  0  0  0
  188.3970  177.8220  147.5090 C   0  0  0  0  0  0  0  0  0  0  0  0
  188.7610  178.0100  148.8350 O   0  0  0  0  0  1  0  0  0  0  0  0
  1  9  2  0  0  0  0
  1  6  1  0  0  0  0
  2  9  1  0  0  0  0
  3  7  1  0  0  0  0
  3  8  1  1  0  0  0
  4  3  1  0  0  0  0
  4  7  1  0  0  0  0
  6 12  1  0  0  0  0
  7 15  1  0  0  0  0
  8 14  1  0  0  0  0
  9 19  1  0  0  0  0
 10  2  2  0  0  0  0
 10 20  1  0  0  0  0
 12  4  1  0  0  0  0
 12  7  1  0  0  0  0
 13 11  2  0  0  0  0
 14 18  1  0  0  0  0
 14 25  1  0  0  0  0
 15 17  2  0  0  0  0
 15 18  1  0  0  0  0
 16  5  1  0  0  0  0
 17 21  1  0  0  0  0
 18 16  2  0  0  0  0
 19 13  1  0  0  0  0
 19  4  1  0  0  0  0
 20 13  1  0  0  0  0
 21 22  1  0  0  0  0
 21  5  2  0  0  0  0
 22 24  1  0  0  0  0
 23 22  1  0  0  0  0
 25 26  1  0  0  0  0
 26 27  1  0  0  0  0
 27 28  1  0  0  0  0
 28 29  1  0  0  0  0
 30 29  1  0  0  0  0
 30 32  1  0  0  0  0
 31 32  2  0  0  0  0
 32 33  1  0  0  0  0
M  END
>  <MODEL>
1

>  <REMARK>
 VINA RESULT:      -8.3      0.000      0.000
  Name = 
  8 active torsions:
  status: ('A' for Active; 'I' for Inactive)
    1  A    between atoms: C_6  and  C_17
    2  A    between atoms: C_6  and  C_26
    3  A    between atoms: C_13  and  C_22
    4  A    between atoms: C_13  and  C_29
    5  A    between atoms: C_17  and  C_22
    6  A    between atoms: N_18  and  C_30
    7  A    between atoms: N_20  and  C_33
    8  A    between atoms: C_26  and  C_30
                            x       y       z     vdW  Elec       q    Type
                         _______ _______ _______ _____ _____    ______ ____

>  <TORSDO>
F 8

$$$$
=
 OpenBabel10232411163D

 33 38  0  0  1  0  0  0  0  0999 V2000
  186.5890  175.0290  136.0990 N   0  0  0  0  0  0  0  0  0  0  0  0
  188.3910  173.4980  136.1790 N   0  0  0  0  0  0  0  0  0  0  0  0
  188.7640  178.1230  138.1540 C   0  0  1  0  0  3  0  0  0  0  0  0
  187.9230  176.8580  138.0730 C   0  0  1  0  0  0  0  0  0  0  0  0
  184.7860  178.8190  141.4440 C   0  0  0  0  0  3  0  0  0  0  0  0
  185.9780  176.3040  136.3510 C   0  0  0  0  0  2  0  0  0  0  0  0
  187.2690  178.1710  137.9670 C   0  0  2  0  0  0  0  0  0  0  0  0
  189.2780  178.4490  139.5730 C   0  0  0  0  0  2  0  0  0  0  0  0
  187.8360  174.7920  136.4460 C   0  0  0  0  0  0  0  0  0  0  0  0
  189.6310  173.1890  136.4180 C   0  0  0  0  0  3  0  0  0  0  0  0
  190.5650  175.8250  138.6780 N   0  0  0  0  0  2  0  0  0  0  0  0
  186.6990  177.0430  137.1550 C   0  0  1  0  0  3  0  0  0  0  0  0
  189.9260  175.2600  137.7210 C   0  0  0  0  0  0  0  0  0  0  0  0
  188.3610  178.0620  140.6400 N   0  0  0  0  0  0  0  0  0  0  0  0
  186.4240  178.4320  139.1990 C   0  0  0  0  0  0  0  0  0  0  0  0
  186.1380  178.5140  141.6100 C   0  0  0  0  0  3  0  0  0  0  0  0
  185.0690  178.7540  139.0440 C   0  0  0  0  0  3  0  0  0  0  0  0
  186.9650  178.3360  140.4930 C   0  0  0  0  0  0  0  0  0  0  0  0
  188.7130  175.9140  137.0890 C   0  0  2  0  0  3  0  0  0  0  0  0
  190.6190  174.1870  136.9440 C   0  0  0  0  0  2  0  0  0  0  0  0
  184.2410  178.9520  140.1600 C   0  0  0  0  0  0  0  0  0  0  0  0
  182.8510  179.2760  139.9990 N   0  0  0  0  0  0  0  0  0  0  0  0
  181.8600  178.8800  140.9870 C   0  0  0  0  0  1  0  0  0  0  0  0
  182.4360  179.9620  138.9070 O   0  0  0  0  0  1  0  0  0  0  0  0
  188.8910  177.3380  141.7870 C   0  0  0  0  0  2  0  0  0  0  0  0
  189.4600  178.3090  142.8050 C   0  0  0  0  0  2  0  0  0  0  0  0
  189.5370  177.6340  144.1570 C   0  0  0  0  0  2  0  0  0  0  0  0
  188.1910  177.0320  144.4950 C   0  0  0  0  0  2  0  0  0  0  0  0
  187.4120  177.9970  145.3700 C   0  0  0  0  0  2  0  0  0  0  0  0
  185.9200  177.8690  145.1060 C   0  0  0  0  0  2  0  0  0  0  0  0
  185.6980  179.3130  146.9900 O   0  0  0  0  0  1  0  0  0  0  0  0
  185.1440  178.7820  145.9930 C   0  0  0  0  0  0  0  0  0  0  0  0
  183.8010  179.0230  145.7380 O   0  0  0  0  0  0  0  0  0  0  0  0
  1  6  1  0  0  0  0
  1  9  2  0  0  0  0
  2 10  2  0  0  0  0
  2  9  1  0  0  0  0
  3  8  1  1  0  0  0
  4  3  1  0  0  0  0
  5 16  1  0  0  0  0
  6 12  1  0  0  0  0
  7  4  1  0  0  0  0
  7  3  1  0  0  0  0
  7 15  1  0  0  0  0
  8 14  1  0  0  0  0
  9 19  1  0  0  0  0
 10 20  1  0  0  0  0
 12  7  1  0  0  0  0
 12  4  1  0  0  0  0
 13 11  2  0  0  0  0
 14 25  1  0  0  0  0
 15 18  1  0  0  0  0
 17 15  2  0  0  0  0
 17 21  1  0  0  0  0
 18 14  1  0  0  0  0
 18 16  2  0  0  0  0
 19 13  1  0  0  0  0
 19  4  1  0  0  0  0
 20 13  1  0  0  0  0
 21  5  2  0  0  0  0
 22 21  1  0  0  0  0
 22 23  1  0  0  0  0
 24 22  1  0  0  0  0
 25 26  1  0  0  0  0
 26 27  1  0  0  0  0
 27 28  1  0  0  0  0
 28 29  1  0  0  0  0
 30 29  1  0  0  0  0
 30 32  1  0  0  0  0
 32 31  1  0  0  0  0
 33 32  2  0  0  0  0
M  END
>  <MODEL>
2

>  <REMARK>
 VINA RESULT:      -7.6      1.856      2.714
  Name = 
  8 active torsions:
  status: ('A' for Active; 'I' for Inactive)
    1  A    between atoms: C_6  and  C_17
    2  A    between atoms: C_6  and  C_26
    3  A    between atoms: C_13  and  C_22
    4  A    between atoms: C_13  and  C_29
    5  A    between atoms: C_17  and  C_22
    6  A    between atoms: N_18  and  C_30
    7  A    between atoms: N_20  and  C_33
    8  A    between atoms: C_26  and  C_30
                            x       y       z     vdW  Elec       q    Type
                         _______ _______ _______ _____ _____    ______ ____

>  <TORSDO>
F 8

$$$$
=
 OpenBabel10232411163D

 33 38  0  0  1  0  0  0  0  0999 V2000
  186.8910  174.6330  136.5310 N   0  0  0  0  0  0  0  0  0  0  0  0
  188.9260  173.4390  136.7090 N   0  0  0  0  0  0  0  0  0  0  0  0
  188.5980  178.3060  137.9910 C   0  0  1  0  0  3  0  0  0  0  0  0
  187.9780  176.9250  138.1410 C   0  0  1  0  0  0  0  0  0  0  0  0
  184.6950  178.8360  141.3990 C   0  0  0  0  0  3  0  0  0  0  0  0
  186.0860  175.8170  136.6410 C   0  0  0  0  0  2  0  0  0  0  0  0
  187.1090  178.0850  137.8950 C   0  0  2  0  0  0  0  0  0  0  0  0
  189.1060  178.9160  139.3140 C   0  0  0  0  0  2  0  0  0  0  0  0
  188.1730  174.6530  136.8270 C   0  0  0  0  0  0  0  0  0  0  0  0
  190.2090  173.3710  136.9080 C   0  0  0  0  0  3  0  0  0  0  0  0
  190.7770  176.4280  138.7140 N   0  0  0  0  0  2  0  0  0  0  0  0
  186.7040  176.7730  137.2870 C   0  0  1  0  0  3  0  0  0  0  0  0
  190.2040  175.6330  137.8880 C   0  0  0  0  0  0  0  0  0  0  0  0
  188.3110  178.5500  140.4810 N   0  0  0  0  0  0  0  0  0  0  0  0
  186.2830  178.3880  139.1300 C   0  0  0  0  0  0  0  0  0  0  0  0
  186.0850  178.7790  141.5190 C   0  0  0  0  0  3  0  0  0  0  0  0
  184.8880  178.4620  139.0190 C   0  0  0  0  0  3  0  0  0  0  0  0
  186.8840  178.5730  140.3870 C   0  0  0  0  0  0  0  0  0  0  0  0
  188.8740  175.9840  137.2500 C   0  0  2  0  0  3  0  0  0  0  0  0
  191.0350  174.5820  137.2250 C   0  0  0  0  0  2  0  0  0  0  0  0
  184.0840  178.6890  140.1470 C   0  0  0  0  0  0  0  0  0  0  0  0
  182.6540  178.7580  140.0320 N   0  0  0  0  0  0  0  0  0  0  0  0
  182.0140  179.5780  139.0140 C   0  0  0  0  0  1  0  0  0  0  0  0
  181.8690  178.0520  140.8800 O   0  0  0  0  0  1  0  0  0  0  0  0
  189.0010  178.0980  141.6830 C   0  0  0  0  0  2  0  0  0  0  0  0
  188.8850  176.5910  141.8180 C   0  0  0  0  0  2  0  0  0  0  0  0
  188.4380  176.2460  143.2230 C   0  0  0  0  0  2  0  0  0  0  0  0
  188.2580  177.5190  144.0200 C   0  0  0  0  0  2  0  0  0  0  0  0
  189.0830  177.4400  145.2920 C   0  0  0  0  0  2  0  0  0  0  0  0
  190.5140  177.8770  145.0260 C   0  0  0  0  0  2  0  0  0  0  0  0
  192.0020  176.6950  146.4670 O   0  0  0  0  0  1  0  0  0  0  0  0
  191.4700  176.7730  145.3290 C   0  0  0  0  0  0  0  0  0  0  0  0
  191.7990  175.8500  144.3460 O   0  0  0  0  0  0  0  0  0  0  0  0
  1  6  1  0  0  0  0
  1  9  2  0  0  0  0
  2  9  1  0  0  0  0
  2 10  2  0  0  0  0
  3  4  1  0  0  0  0
  3  8  1  1  0  0  0
  5 16  1  0  0  0  0
  6 12  1  0  0  0  0
  7  3  1  0  0  0  0
  7  4  1  0  0  0  0
  7 15  1  0  0  0  0
  8 14  1  0  0  0  0
  9 19  1  0  0  0  0
 10 20  1  0  0  0  0
 12  7  1  0  0  0  0
 12  4  1  0  0  0  0
 13 11  2  0  0  0  0
 14 25  1  0  0  0  0
 15 18  1  0  0  0  0
 17 15  2  0  0  0  0
 17 21  1  0  0  0  0
 18 14  1  0  0  0  0
 18 16  2  0  0  0  0
 19 13  1  0  0  0  0
 19  4  1  0  0  0  0
 20 13  1  0  0  0  0
 21  5  2  0  0  0  0
 22 21  1  0  0  0  0
 22 24  1  0  0  0  0
 23 22  1  0  0  0  0
 25 26  1  0  0  0  0
 26 27  1  0  0  0  0
 27 28  1  0  0  0  0
 28 29  1  0  0  0  0
 30 29  1  0  0  0  0
 30 32  1  0  0  0  0
 32 31  1  0  0  0  0
 33 32  2  0  0  0  0
M  END
>  <MODEL>
3

>  <REMARK>
 VINA RESULT:      -7.4      2.093      2.840
  Name = 
  8 active torsions:
  status: ('A' for Active; 'I' for Inactive)
    1  A    between atoms: C_6  and  C_17
    2  A    between atoms: C_6  and  C_26
    3  A    between atoms: C_13  and  C_22
    4  A    between atoms: C_13  and  C_29
    5  A    between atoms: C_17  and  C_22
    6  A    between atoms: N_18  and  C_30
    7  A    between atoms: N_20  and  C_33
    8  A    between atoms: C_26  and  C_30
                            x       y       z     vdW  Elec       q    Type
                         _______ _______ _______ _____ _____    ______ ____

>  <TORSDO>
F 8

$$$$
=
 OpenBabel10232411163D

 33 38  0  0  1  0  0  0  0  0999 V2000
  185.7920  178.8730  146.8530 N   0  0  0  0  0  0  0  0  0  0  0  0
  187.6260  179.0100  148.3420 N   0  0  0  0  0  0  0  0  0  0  0  0
  187.8040  176.1560  144.1880 C   0  0  1  0  0  3  0  0  0  0  0  0
  187.4670  177.5270  144.7540 C   0  0  1  0  0  0  0  0  0  0  0  0
  186.5490  179.1360  140.1050 C   0  0  0  0  0  3  0  0  0  0  0  0
  185.1270  178.3770  145.6810 C   0  0  0  0  0  2  0  0  0  0  0  0
  186.5480  176.8930  143.7980 C   0  0  2  0  0  0  0  0  0  0  0  0
  188.9430  176.1650  143.1470 C   0  0  0  0  0  2  0  0  0  0  0  0
  187.0070  178.4750  147.1650 C   0  0  0  0  0  0  0  0  0  0  0  0
  188.7910  178.6280  148.7740 C   0  0  0  0  0  3  0  0  0  0  0  0
  190.1110  177.0260  145.8380 N   0  0  0  0  0  2  0  0  0  0  0  0
  185.9460  177.7340  144.8870 C   0  0  1  0  0  3  0  0  0  0  0  0
  189.2160  177.4370  146.6580 C   0  0  0  0  0  0  0  0  0  0  0  0
  188.9880  177.3700  142.3270 N   0  0  0  0  0  0  0  0  0  0  0  0
  186.5660  177.6450  142.4820 C   0  0  0  0  0  0  0  0  0  0  0  0
  187.7560  178.6610  140.6230 C   0  0  0  0  0  3  0  0  0  0  0  0
  185.3590  178.1140  141.9440 C   0  0  0  0  0  3  0  0  0  0  0  0
  187.7680  177.9010  141.8000 C   0  0  0  0  0  0  0  0  0  0  0  0
  187.7430  177.4010  146.3000 C   0  0  2  0  0  3  0  0  0  0  0  0
  189.5750  177.5380  148.1060 C   0  0  0  0  0  2  0  0  0  0  0  0
  185.3400  178.8590  140.7550 C   0  0  0  0  0  0  0  0  0  0  0  0
  184.1020  179.3440  140.2100 N   0  0  0  0  0  0  0  0  0  0  0  0
  182.8180  178.8840  140.7160 C   0  0  0  0  0  1  0  0  0  0  0  0
  184.1130  180.2480  139.2020 O   0  0  0  0  0  1  0  0  0  0  0  0
  190.2690  178.0390  142.1360 C   0  0  0  0  0  2  0  0  0  0  0  0
  191.3210  177.0400  141.6920 C   0  0  0  0  0  2  0  0  0  0  0  0
  191.6540  177.2730  140.2350 C   0  0  0  0  0  2  0  0  0  0  0  0
  190.5860  176.6420  139.3680 C   0  0  0  0  0  2  0  0  0  0  0  0
  190.4220  177.4530  138.0960 C   0  0  0  0  0  2  0  0  0  0  0  0
  189.0940  177.1330  137.4280 C   0  0  0  0  0  2  0  0  0  0  0  0
  187.2590  178.3190  136.4730 O   0  0  0  0  0  0  0  0  0  0  0  0
  188.3770  178.3830  137.0480 C   0  0  0  0  0  0  0  0  0  0  0  0
  188.9560  179.6200  137.2980 O   0  0  0  0  0  1  0  0  0  0  0  0
  1  9  2  0  0  0  0
  2 10  2  0  0  0  0
  3  8  1  6  0  0  0
  3  4  1  0  0  0  0
  4 12  1  0  0  0  0
  4 19  1  0  0  0  0
  5 16  2  0  0  0  0
  5 21  1  0  0  0  0
  6  1  1  0  0  0  0
  7  3  1  0  0  0  0
  7  4  1  0  0  0  0
  7 12  1  0  0  0  0
  9  2  1  0  0  0  0
 11 13  2  0  0  0  0
 12  6  1  0  0  0  0
 13 20  1  0  0  0  0
 14  8  1  0  0  0  0
 15  7  1  0  0  0  0
 16 18  1  0  0  0  0
 17 15  1  0  0  0  0
 18 14  1  0  0  0  0
 18 15  2  0  0  0  0
 19 13  1  0  0  0  0
 19  9  1  0  0  0  0
 20 10  1  0  0  0  0
 21 17  2  0  0  0  0
 22 23  1  0  0  0  0
 22 21  1  0  0  0  0
 24 22  1  0  0  0  0
 25 14  1  0  0  0  0
 26 25  1  0  0  0  0
 27 26  1  0  0  0  0
 28 27  1  0  0  0  0
 29 28  1  0  0  0  0
 30 29  1  0  0  0  0
 31 32  2  0  0  0  0
 32 33  1  0  0  0  0
 32 30  1  0  0  0  0
M  END
>  <MODEL>
4

>  <REMARK>
 VINA RESULT:      -7.3      3.447      7.285
  Name = 
  8 active torsions:
  status: ('A' for Active; 'I' for Inactive)
    1  A    between atoms: C_6  and  C_17
    2  A    between atoms: C_6  and  C_26
    3  A    between atoms: C_13  and  C_22
    4  A    between atoms: C_13  and  C_29
    5  A    between atoms: C_17  and  C_22
    6  A    between atoms: N_18  and  C_30
    7  A    between atoms: N_20  and  C_33
    8  A    between atoms: C_26  and  C_30
                            x       y       z     vdW  Elec       q    Type
                         _______ _______ _______ _____ _____    ______ ____

>  <TORSDO>
F 8

$$$$
=
 OpenBabel10232411163D

 33 38  0  0  1  0  0  0  0  0999 V2000
  191.3450  177.4330  141.4740 N   0  0  0  0  0  0  0  0  0  0  0  0
  190.1000  178.4830  139.7580 N   0  0  0  0  0  0  0  0  0  0  0  0
  187.8380  176.1260  143.6000 C   0  0  1  0  0  3  0  0  0  0  0  0
  188.9060  177.1330  143.2010 C   0  0  1  0  0  0  0  0  0  0  0  0
  189.7390  178.0570  148.0480 C   0  0  0  0  0  3  0  0  0  0  0  0
  191.4700  176.6700  142.6840 C   0  0  0  0  0  2  0  0  0  0  0  0
  189.2120  176.1200  144.2220 C   0  0  2  0  0  0  0  0  0  0  0  0
  186.7060  176.7170  144.4680 C   0  0  0  0  0  2  0  0  0  0  0  0
  190.1640  177.7090  140.9630 C   0  0  0  0  0  0  0  0  0  0  0  0
  188.9890  178.7480  139.1380 C   0  0  0  0  0  3  0  0  0  0  0  0
  186.5860  178.0470  141.7190 N   0  0  0  0  0  2  0  0  0  0  0  0
  190.3220  176.5350  143.3000 C   0  0  1  0  0  3  0  0  0  0  0  0
  187.6860  177.9430  141.0690 C   0  0  0  0  0  0  0  0  0  0  0  0
  187.1420  177.7780  145.3690 N   0  0  0  0  0  0  0  0  0  0  0  0
  189.3600  176.7790  145.5790 C   0  0  0  0  0  0  0  0  0  0  0  0
  188.5610  178.2620  147.3290 C   0  0  0  0  0  3  0  0  0  0  0  0
  190.5340  176.5680  146.3170 C   0  0  0  0  0  3  0  0  0  0  0  0
  188.3590  177.6130  146.1040 C   0  0  0  0  0  0  0  0  0  0  0  0
  188.8600  177.1620  141.6260 C   0  0  2  0  0  3  0  0  0  0  0  0
  187.6670  178.2110  139.5980 C   0  0  0  0  0  2  0  0  0  0  0  0
  190.7320  177.2000  147.5540 C   0  0  0  0  0  0  0  0  0  0  0  0
  191.9380  176.9880  148.3050 N   0  0  0  0  0  0  0  0  0  0  0  0
  192.7410  175.7880  148.1280 C   0  0  0  0  0  1  0  0  0  0  0  0
  192.3500  177.9140  149.2040 O   0  0  0  0  0  1  0  0  0  0  0  0
  186.3600  179.0060  145.4320 C   0  0  0  0  0  2  0  0  0  0  0  0
  185.1370  178.8060  146.3080 C   0  0  0  0  0  2  0  0  0  0  0  0
  183.8960  178.7930  145.4420 C   0  0  0  0  0  2  0  0  0  0  0  0
  184.1790  179.5230  144.1480 C   0  0  0  0  0  2  0  0  0  0  0  0
  183.1840  179.0810  143.0900 C   0  0  0  0  0  2  0  0  0  0  0  0
  181.8430  178.7510  143.7260 C   0  0  0  0  0  2  0  0  0  0  0  0
  180.4120  180.4760  142.9110 O   0  0  0  0  0  1  0  0  0  0  0  0
  180.7190  179.2560  142.8870 C   0  0  0  0  0  0  0  0  0  0  0  0
  179.9890  178.3750  142.1010 O   0  0  0  0  0  0  0  0  0  0  0  0
  1  6  1  0  0  0  0
  2  9  1  0  0  0  0
  3  7  1  0  0  0  0
  3  8  1  1  0  0  0
  4 12  1  0  0  0  0
  4  3  1  0  0  0  0
  4  7  1  0  0  0  0
  6 12  1  0  0  0  0
  7 15  1  0  0  0  0
  8 14  1  0  0  0  0
  9  1  2  0  0  0  0
  9 19  1  0  0  0  0
 10 20  1  0  0  0  0
 10  2  2  0  0  0  0
 12  7  1  0  0  0  0
 13 19  1  0  0  0  0
 13 11  2  0  0  0  0
 14 25  1  0  0  0  0
 14 18  1  0  0  0  0
 15 18  2  0  0  0  0
 15 17  1  0  0  0  0
 16  5  2  0  0  0  0
 17 21  2  0  0  0  0
 18 16  1  0  0  0  0
 19  4  1  0  0  0  0
 20 13  1  0  0  0  0
 21  5  1  0  0  0  0
 21 22  1  0  0  0  0
 22 24  1  0  0  0  0
 23 22  1  0  0  0  0
 25 26  1  0  0  0  0
 27 26  1  0  0  0  0
 28 27  1  0  0  0  0
 29 30  1  0  0  0  0
 29 28  1  0  0  0  0
 32 31  1  0  0  0  0
 32 30  1  0  0  0  0
 33 32  2  0  0  0  0
M  END
>  <MODEL>
5

>  <REMARK>
 VINA RESULT:      -7.1      2.713      6.813
  Name = 
  8 active torsions:
  status: ('A' for Active; 'I' for Inactive)
    1  A    between atoms: C_6  and  C_17
    2  A    between atoms: C_6  and  C_26
    3  A    between atoms: C_13  and  C_22
    4  A    between atoms: C_13  and  C_29
    5  A    between atoms: C_17  and  C_22
    6  A    between atoms: N_18  and  C_30
    7  A    between atoms: N_20  and  C_33
    8  A    between atoms: C_26  and  C_30
                            x       y       z     vdW  Elec       q    Type
                         _______ _______ _______ _____ _____    ______ ____

>  <TORSDO>
F 8

$$$$
=
 OpenBabel10232411163D

 33 38  0  0  1  0  0  0  0  0999 V2000
  185.7160  178.7830  146.8940 N   0  0  0  0  0  0  0  0  0  0  0  0
  187.5080  178.9610  148.4290 N   0  0  0  0  0  0  0  0  0  0  0  0
  187.8790  176.1700  144.2440 C   0  0  1  0  0  3  0  0  0  0  0  0
  187.4840  177.5220  144.8190 C   0  0  1  0  0  0  0  0  0  0  0  0
  186.6240  179.1620  140.1700 C   0  0  0  0  0  3  0  0  0  0  0  0
  185.0960  178.2820  145.7000 C   0  0  0  0  0  2  0  0  0  0  0  0
  186.6090  176.8710  143.8340 C   0  0  2  0  0  0  0  0  0  0  0  0
  189.0420  176.2310  143.2310 C   0  0  0  0  0  2  0  0  0  0  0  0
  186.9360  178.4210  147.2310 C   0  0  0  0  0  0  0  0  0  0  0  0
  188.6740  178.6120  148.8840 C   0  0  0  0  0  3  0  0  0  0  0  0
  190.1160  177.0930  145.9600 N   0  0  0  0  0  2  0  0  0  0  0  0
  185.9540  177.6770  144.9190 C   0  0  1  0  0  3  0  0  0  0  0  0
  189.1880  177.4640  146.7640 C   0  0  0  0  0  0  0  0  0  0  0  0
  189.0670  177.4480  142.4280 N   0  0  0  0  0  0  0  0  0  0  0  0
  186.6340  177.6410  142.5280 C   0  0  0  0  0  0  0  0  0  0  0  0
  187.8330  178.7200  140.7110 C   0  0  0  0  0  3  0  0  0  0  0  0
  185.4250  178.0780  141.9670 C   0  0  0  0  0  3  0  0  0  0  0  0
  187.8430  177.9450  141.8790 C   0  0  0  0  0  0  0  0  0  0  0  0
  187.7270  177.3840  146.3700 C   0  0  2  0  0  3  0  0  0  0  0  0
  189.5100  177.5570  148.2210 C   0  0  0  0  0  2  0  0  0  0  0  0
  185.4100  178.8370  140.7870 C   0  0  0  0  0  0  0  0  0  0  0  0
  184.1700  179.2890  140.2180 N   0  0  0  0  0  0  0  0  0  0  0  0
  182.8900  178.7790  140.6860 C   0  0  0  0  0  1  0  0  0  0  0  0
  184.1740  180.2070  139.2230 O   0  0  0  0  0  1  0  0  0  0  0  0
  190.3290  178.1610  142.2770 C   0  0  0  0  0  2  0  0  0  0  0  0
  191.4170  177.2080  141.8180 C   0  0  0  0  0  2  0  0  0  0  0  0
  191.6800  177.4190  140.3430 C   0  0  0  0  0  2  0  0  0  0  0  0
  190.7460  176.5450  139.5360 C   0  0  0  0  0  2  0  0  0  0  0  0
  191.1710  176.5600  138.0790 C   0  0  0  0  0  2  0  0  0  0  0  0
  191.9210  175.2840  137.7300 C   0  0  0  0  0  2  0  0  0  0  0  0
  194.1900  174.5840  137.5130 O   0  0  0  0  0  0  0  0  0  0  0  0
  193.3830  175.5460  137.6020 C   0  0  0  0  0  0  0  0  0  0  0  0
  193.8580  176.8500  137.6130 O   0  0  0  0  0  1  0  0  0  0  0  0
  1  9  2  0  0  0  0
  2 10  2  0  0  0  0
  3  8  1  6  0  0  0
  3  4  1  0  0  0  0
  4 12  1  0  0  0  0
  4 19  1  0  0  0  0
  5 16  2  0  0  0  0
  5 21  1  0  0  0  0
  6  1  1  0  0  0  0
  7  3  1  0  0  0  0
  7  4  1  0  0  0  0
  7 12  1  0  0  0  0
  9  2  1  0  0  0  0
 11 13  2  0  0  0  0
 12  6  1  0  0  0  0
 13 20  1  0  0  0  0
 14  8  1  0  0  0  0
 15  7  1  0  0  0  0
 16 18  1  0  0  0  0
 17 15  1  0  0  0  0
 18 14  1  0  0  0  0
 18 15  2  0  0  0  0
 19 13  1  0  0  0  0
 19  9  1  0  0  0  0
 20 10  1  0  0  0  0
 21 17  2  0  0  0  0
 22 23  1  0  0  0  0
 22 21  1  0  0  0  0
 24 22  1  0  0  0  0
 25 14  1  0  0  0  0
 26 25  1  0  0  0  0
 27 26  1  0  0  0  0
 28 27  1  0  0  0  0
 29 28  1  0  0  0  0
 30 29  1  0  0  0  0
 31 32  2  0  0  0  0
 32 33  1  0  0  0  0
 32 30  1  0  0  0  0
M  END
>  <MODEL>
6

>  <REMARK>
 VINA RESULT:      -7.0      3.673      7.474
  Name = 
  8 active torsions:
  status: ('A' for Active; 'I' for Inactive)
    1  A    between atoms: C_6  and  C_17
    2  A    between atoms: C_6  and  C_26
    3  A    between atoms: C_13  and  C_22
    4  A    between atoms: C_13  and  C_29
    5  A    between atoms: C_17  and  C_22
    6  A    between atoms: N_18  and  C_30
    7  A    between atoms: N_20  and  C_33
    8  A    between atoms: C_26  and  C_30
                            x       y       z     vdW  Elec       q    Type
                         _______ _______ _______ _____ _____    ______ ____

>  <TORSDO>
F 8

$$$$
=
 OpenBabel10232411163D

 33 38  0  0  1  0  0  0  0  0999 V2000
  189.6680  176.9410  142.5430 N   0  0  0  0  0  0  0  0  0  0  0  0
  187.4810  177.4550  143.2830 N   0  0  0  0  0  0  0  0  0  0  0  0
  189.0630  178.6890  138.6570 C   0  0  1  0  0  3  0  0  0  0  0  0
  188.9650  177.5810  139.6940 C   0  0  1  0  0  0  0  0  0  0  0  0
  190.9250  174.3970  136.3680 C   0  0  0  0  0  3  0  0  0  0  0  0
  190.7300  176.9510  141.5760 C   0  0  0  0  0  2  0  0  0  0  0  0
  190.2250  177.7790  138.9640 C   0  0  2  0  0  0  0  0  0  0  0  0
  188.3040  178.3950  137.3450 C   0  0  0  0  0  2  0  0  0  0  0  0
  188.5070  177.5040  142.2840 C   0  0  0  0  0  0  0  0  0  0  0  0
  186.3280  178.0400  143.1520 C   0  0  0  0  0  3  0  0  0  0  0  0
  186.2530  178.6060  139.6020 N   0  0  0  0  0  2  0  0  0  0  0  0
  190.3140  177.3320  140.3950 C   0  0  1  0  0  3  0  0  0  0  0  0
  186.7740  178.4460  140.7620 C   0  0  0  0  0  0  0  0  0  0  0  0
  188.2910  176.9860  136.9700 N   0  0  0  0  0  0  0  0  0  0  0  0
  190.4660  176.6190  138.0180 C   0  0  0  0  0  0  0  0  0  0  0  0
  189.7240  175.1030  136.2710 C   0  0  0  0  0  3  0  0  0  0  0  0
  191.6740  175.9120  138.0960 C   0  0  0  0  0  3  0  0  0  0  0  0
  189.4970  176.2240  137.0810 C   0  0  0  0  0  0  0  0  0  0  0  0
  188.2680  178.2560  140.9360 C   0  0  2  0  0  3  0  0  0  0  0  0
  185.9870  178.8800  141.9580 C   0  0  0  0  0  2  0  0  0  0  0  0
  191.9140  174.8000  137.2730 C   0  0  0  0  0  0  0  0  0  0  0  0
  193.1500  174.0730  137.3600 N   0  0  0  0  0  0  0  0  0  0  0  0
  193.3740  172.8620  136.5850 C   0  0  0  0  0  1  0  0  0  0  0  0
  194.1390  174.5090  138.1760 O   0  0  0  0  0  1  0  0  0  0  0  0
  187.0280  176.3810  136.5680 C   0  0  0  0  0  2  0  0  0  0  0  0
  185.9670  177.4510  136.3890 C   0  0  0  0  0  2  0  0  0  0  0  0
  184.6040  176.7990  136.3100 C   0  0  0  0  0  2  0  0  0  0  0  0
  184.0610  176.5990  137.7080 C   0  0  0  0  0  2  0  0  0  0  0  0
  183.4690  175.2070  137.8270 C   0  0  0  0  0  2  0  0  0  0  0  0
  184.0920  174.2740  136.8010 C   0  0  0  0  0  2  0  0  0  0  0  0
  185.6180  172.9760  138.0960 O   0  0  0  0  0  1  0  0  0  0  0  0
  184.5420  173.0050  137.4430 C   0  0  0  0  0  0  0  0  0  0  0  0
  183.7920  171.8470  137.2930 O   0  0  0  0  0  0  0  0  0  0  0  0
  3  8  1  6  0  0  0
  3  7  1  0  0  0  0
  3  4  1  0  0  0  0
  4 12  1  0  0  0  0
  4 19  1  0  0  0  0
  5 21  1  0  0  0  0
  6  1  1  0  0  0  0
  7  4  1  0  0  0  0
  7 12  1  0  0  0  0
  9  1  2  0  0  0  0
  9  2  1  0  0  0  0
 10  2  2  0  0  0  0
 11 13  2  0  0  0  0
 12  6  1  0  0  0  0
 13 19  1  0  0  0  0
 13 20  1  0  0  0  0
 14 18  1  0  0  0  0
 14  8  1  0  0  0  0
 15 17  1  0  0  0  0
 15  7  1  0  0  0  0
 16  5  2  0  0  0  0
 16 18  1  0  0  0  0
 18 15  2  0  0  0  0
 19  9  1  0  0  0  0
 20 10  1  0  0  0  0
 21 22  1  0  0  0  0
 21 17  2  0  0  0  0
 22 24  1  0  0  0  0
 23 22  1  0  0  0  0
 25 14  1  0  0  0  0
 26 25  1  0  0  0  0
 27 26  1  0  0  0  0
 27 28  1  0  0  0  0
 28 29  1  0  0  0  0
 30 32  1  0  0  0  0
 30 29  1  0  0  0  0
 32 31  1  0  0  0  0
 33 32  2  0  0  0  0
M  END
>  <MODEL>
7

>  <REMARK>
 VINA RESULT:      -6.6      3.902      8.355
  Name = 
  8 active torsions:
  status: ('A' for Active; 'I' for Inactive)
    1  A    between atoms: C_6  and  C_17
    2  A    between atoms: C_6  and  C_26
    3  A    between atoms: C_13  and  C_22
    4  A    between atoms: C_13  and  C_29
    5  A    between atoms: C_17  and  C_22
    6  A    between atoms: N_18  and  C_30
    7  A    between atoms: N_20  and  C_33
    8  A    between atoms: C_26  and  C_30
                            x       y       z     vdW  Elec       q    Type
                         _______ _______ _______ _____ _____    ______ ____

>  <TORSDO>
F 8

$$$$
=
 OpenBabel10232411163D

 33 38  0  0  1  0  0  0  0  0999 V2000
  189.8040  176.8980  142.7100 N   0  0  0  0  0  0  0  0  0  0  0  0
  187.6620  177.4110  143.5730 N   0  0  0  0  0  0  0  0  0  0  0  0
  188.9850  178.6640  138.8700 C   0  0  1  0  0  3  0  0  0  0  0  0
  188.9440  177.5510  139.9070 C   0  0  1  0  0  0  0  0  0  0  0  0
  190.7130  174.3800  136.4640 C   0  0  0  0  0  3  0  0  0  0  0  0
  190.8110  176.9120  141.6860 C   0  0  0  0  0  2  0  0  0  0  0  0
  190.1620  177.7520  139.1090 C   0  0  2  0  0  0  0  0  0  0  0  0
  188.1540  178.3760  137.6020 C   0  0  0  0  0  2  0  0  0  0  0  0
  188.6310  177.4630  142.5190 C   0  0  0  0  0  0  0  0  0  0  0  0
  186.5040  177.9980  143.5090 C   0  0  0  0  0  3  0  0  0  0  0  0
  186.2320  178.5790  139.9700 N   0  0  0  0  0  2  0  0  0  0  0  0
  190.3300  177.2980  140.5310 C   0  0  1  0  0  3  0  0  0  0  0  0
  186.8170  178.4140  141.0990 C   0  0  0  0  0  0  0  0  0  0  0  0
  188.1190  176.9680  137.2220 N   0  0  0  0  0  0  0  0  0  0  0  0
  190.3490  176.5960  138.1460 C   0  0  0  0  0  0  0  0  0  0  0  0
  189.5090  175.0870  136.4370 C   0  0  0  0  0  3  0  0  0  0  0  0
  191.5590  175.8870  138.1540 C   0  0  0  0  0  3  0  0  0  0  0  0
  189.3290  176.2050  137.2620 C   0  0  0  0  0  0  0  0  0  0  0  0
  188.3180  178.2210  141.1890 C   0  0  2  0  0  3  0  0  0  0  0  0
  186.0980  178.8430  142.3380 C   0  0  0  0  0  2  0  0  0  0  0  0
  191.7520  174.7790  137.3140 C   0  0  0  0  0  0  0  0  0  0  0  0
  192.9900  174.0510  137.3290 N   0  0  0  0  0  0  0  0  0  0  0  0
  193.1720  172.8470  136.5320 C   0  0  0  0  0  1  0  0  0  0  0  0
  194.0210  174.4790  138.0960 O   0  0  0  0  0  1  0  0  0  0  0  0
  186.8350  176.3660  136.8890 C   0  0  0  0  0  2  0  0  0  0  0  0
  185.7820  177.4430  136.7050 C   0  0  0  0  0  2  0  0  0  0  0  0
  184.4910  177.0000  137.3600 C   0  0  0  0  0  2  0  0  0  0  0  0
  183.3180  177.5850  136.6040 C   0  0  0  0  0  2  0  0  0  0  0  0
  182.2280  177.9760  137.5850 C   0  0  0  0  0  2  0  0  0  0  0  0
  182.8360  178.5170  138.8690 C   0  0  0  0  0  2  0  0  0  0  0  0
  181.8160  180.6710  138.7970 O   0  0  0  0  0  0  0  0  0  0  0  0
  182.8840  180.0070  138.8460 C   0  0  0  0  0  0  0  0  0  0  0  0
  184.1070  180.6630  138.8460 O   0  0  0  0  0  1  0  0  0  0  0  0
  3  8  1  6  0  0  0
  3  7  1  0  0  0  0
  3  4  1  0  0  0  0
  4 12  1  0  0  0  0
  4 19  1  0  0  0  0
  5 21  1  0  0  0  0
  6  1  1  0  0  0  0
  7  4  1  0  0  0  0
  7 12  1  0  0  0  0
  9  1  2  0  0  0  0
  9  2  1  0  0  0  0
 10  2  2  0  0  0  0
 11 13  2  0  0  0  0
 12  6  1  0  0  0  0
 13 19  1  0  0  0  0
 13 20  1  0  0  0  0
 14 18  1  0  0  0  0
 14  8  1  0  0  0  0
 15 17  1  0  0  0  0
 15  7  1  0  0  0  0
 16  5  2  0  0  0  0
 16 18  1  0  0  0  0
 18 15  2  0  0  0  0
 19  9  1  0  0  0  0
 20 10  1  0  0  0  0
 21 22  1  0  0  0  0
 21 17  2  0  0  0  0
 22 24  1  0  0  0  0
 23 22  1  0  0  0  0
 25 14  1  0  0  0  0
 26 25  1  0  0  0  0
 26 27  1  0  0  0  0
 28 27  1  0  0  0  0
 28 29  1  0  0  0  0
 29 30  1  0  0  0  0
 31 32  2  0  0  0  0
 32 33  1  0  0  0  0
 32 30  1  0  0  0  0
M  END
>  <MODEL>
8

>  <REMARK>
 VINA RESULT:      -6.6      3.428      8.176
  Name = 
  8 active torsions:
  status: ('A' for Active; 'I' for Inactive)
    1  A    between atoms: C_6  and  C_17
    2  A    between atoms: C_6  and  C_26
    3  A    between atoms: C_13  and  C_22
    4  A    between atoms: C_13  and  C_29
    5  A    between atoms: C_17  and  C_22
    6  A    between atoms: N_18  and  C_30
    7  A    between atoms: N_20  and  C_33
    8  A    between atoms: C_26  and  C_30
                            x       y       z     vdW  Elec       q    Type
                         _______ _______ _______ _____ _____    ______ ____

>  <TORSDO>
F 8

$$$$
=
 OpenBabel10232411163D

 33 38  0  0  1  0  0  0  0  0999 V2000
  186.8020  178.3150  147.6570 N   0  0  0  0  0  0  0  0  0  0  0  0
  189.0130  178.5350  148.4690 N   0  0  0  0  0  0  0  0  0  0  0  0
  188.0070  176.0940  144.1720 C   0  0  1  0  0  3  0  0  0  0  0  0
  187.7720  177.3620  144.9780 C   0  0  1  0  0  0  0  0  0  0  0  0
  185.2110  179.2520  141.1170 C   0  0  0  0  0  3  0  0  0  0  0  0
  185.8220  177.8500  146.7160 C   0  0  0  0  0  2  0  0  0  0  0  0
  186.6380  176.7110  144.3070 C   0  0  2  0  0  0  0  0  0  0  0  0
  188.7230  176.3270  142.8250 C   0  0  0  0  0  2  0  0  0  0  0  0
  188.0790  178.0360  147.5040 C   0  0  0  0  0  0  0  0  0  0  0  0
  190.2820  178.2550  148.4460 C   0  0  0  0  0  3  0  0  0  0  0  0
  190.6570  177.0790  145.0690 N   0  0  0  0  0  2  0  0  0  0  0  0
  186.3740  177.3780  145.6260 C   0  0  1  0  0  3  0  0  0  0  0  0
  190.0620  177.3100  146.1800 C   0  0  0  0  0  0  0  0  0  0  0  0
  188.3910  177.5960  142.1870 N   0  0  0  0  0  0  0  0  0  0  0  0
  186.1500  177.5720  143.1580 C   0  0  0  0  0  0  0  0  0  0  0  0
  186.5560  178.8770  141.1500 C   0  0  0  0  0  3  0  0  0  0  0  0
  184.7990  177.9430  143.1060 C   0  0  0  0  0  3  0  0  0  0  0  0
  187.0260  178.0250  142.1570 C   0  0  0  0  0  0  0  0  0  0  0  0
  188.5630  177.1350  146.3220 C   0  0  2  0  0  3  0  0  0  0  0  0
  190.8800  177.3260  147.4320 C   0  0  0  0  0  2  0  0  0  0  0  0
  184.3190  178.7800  142.0880 C   0  0  0  0  0  0  0  0  0  0  0  0
  182.9350  179.1640  142.0400 N   0  0  0  0  0  0  0  0  0  0  0  0
  182.1570  179.3500  143.2560 C   0  0  0  0  0  1  0  0  0  0  0  0
  182.3250  179.3590  140.8470 O   0  0  0  0  0  1  0  0  0  0  0  0
  189.4740  178.4230  141.6710 C   0  0  0  0  0  2  0  0  0  0  0  0
  190.0680  177.7910  140.4250 C   0  0  0  0  0  2  0  0  0  0  0  0
  189.3620  178.3320  139.2010 C   0  0  0  0  0  2  0  0  0  0  0  0
  189.1840  177.2200  138.1920 C   0  0  0  0  0  2  0  0  0  0  0  0
  190.4600  177.0560  137.3880 C   0  0  0  0  0  2  0  0  0  0  0  0
  191.0560  175.6750  137.6090 C   0  0  0  0  0  2  0  0  0  0  0  0
  190.0940  173.5090  137.3550 O   0  0  0  0  0  1  0  0  0  0  0  0
  190.2980  174.6420  136.8480 C   0  0  0  0  0  0  0  0  0  0  0  0
  189.8440  174.9180  135.5650 O   0  0  0  0  0  0  0  0  0  0  0  0
  3  8  1  6  0  0  0
  3  7  1  0  0  0  0
  3  4  1  0  0  0  0
  4 12  1  0  0  0  0
  4 19  1  0  0  0  0
  5 16  2  0  0  0  0
  5 21  1  0  0  0  0
  6  1  1  0  0  0  0
  7  4  1  0  0  0  0
  7 12  1  0  0  0  0
  9  1  2  0  0  0  0
  9  2  1  0  0  0  0
 10  2  2  0  0  0  0
 11 13  2  0  0  0  0
 12  6  1  0  0  0  0
 13 19  1  0  0  0  0
 13 20  1  0  0  0  0
 14  8  1  0  0  0  0
 15  7  1  0  0  0  0
 16 18  1  0  0  0  0
 17 15  1  0  0  0  0
 18 14  1  0  0  0  0
 18 15  2  0  0  0  0
 19  9  1  0  0  0  0
 20 10  1  0  0  0  0
 21 17  2  0  0  0  0
 22 21  1  0  0  0  0
 22 23  1  0  0  0  0
 24 22  1  0  0  0  0
 25 14  1  0  0  0  0
 26 25  1  0  0  0  0
 27 26  1  0  0  0  0
 28 27  1  0  0  0  0
 29 30  1  0  0  0  0
 29 28  1  0  0  0  0
 32 31  1  0  0  0  0
 32 30  1  0  0  0  0
 33 32  2  0  0  0  0
M  END
>  <MODEL>
9

>  <REMARK>
 VINA RESULT:      -6.5      3.426      7.543
  Name = 
  8 active torsions:
  status: ('A' for Active; 'I' for Inactive)
    1  A    between atoms: C_6  and  C_17
    2  A    between atoms: C_6  and  C_26
    3  A    between atoms: C_13  and  C_22
    4  A    between atoms: C_13  and  C_29
    5  A    between atoms: C_17  and  C_22
    6  A    between atoms: N_18  and  C_30
    7  A    between atoms: N_20  and  C_33
    8  A    between atoms: C_26  and  C_30
                            x       y       z     vdW  Elec       q    Type
                         _______ _______ _______ _____ _____    ______ ____

>  <TORSDO>
F 8

$$$$
