=
 OpenBabel10232408253D

 30 32  0  0  1  0  0  0  0  0999 V2000
  188.5130  177.4300  141.8610 C   0  0  0  0  0  3  0  0  0  0  0  0
  189.7870  177.0630  141.6930 C   0  0  0  0  0  0  0  0  0  0  0  0
  190.4570  176.3330  142.7340 N   0  0  0  0  0  0  0  0  0  0  0  0
  190.2100  175.0100  142.9000 O   0  0  0  0  0  1  0  0  0  0  0  0
  190.9090  176.8090  146.7610 C   0  0  0  0  0  2  0  0  0  0  0  0
  191.8140  176.0880  144.7890 C   0  0  0  0  0  2  0  0  0  0  0  0
  189.5900  177.1150  146.0220 C   0  0  0  0  0  2  0  0  0  0  0  0
  192.0640  176.8440  145.9470 O   0  0  0  0  0  0  0  0  0  0  0  0
  189.6450  178.3330  145.0950 C   0  0  0  0  0  2  0  0  0  0  0  0
  190.8270  178.3720  144.1100 C   0  0  0  0  0  2  0  0  0  0  0  0
  191.3780  177.0120  143.6430 C   0  0  2  0  0  3  0  0  0  0  0  0
  190.5010  177.3730  140.4110 C   0  0  0  0  0  2  0  0  0  0  0  0
  190.6100  176.1680  139.6080 N   0  0  0  0  0  2  0  0  0  0  0  0
  190.4260  176.5690  138.2250 C   0  0  0  0  0  2  0  0  0  0  0  0
  189.1660  177.2780  138.0840 N   0  0  0  0  0  0  0  0  0  0  0  0
  186.8530  176.9540  137.2380 C   0  0  0  0  0  2  0  0  0  0  0  0
  186.8960  178.4000  137.4520 N   0  0  0  0  0  2  0  0  0  0  0  0
  188.0120  178.9650  136.6880 C   0  0  0  0  0  2  0  0  0  0  0  0
  188.1680  176.2870  137.6790 C   0  0  0  0  0  2  0  0  0  0  0  0
  189.3350  178.2480  137.0000 C   0  0  0  0  0  2  0  0  0  0  0  0
  187.7280  178.1750  140.8290 C   0  0  0  0  0  2  0  0  0  0  0  0
  186.7480  179.1200  141.4960 C   0  0  0  0  0  2  0  0  0  0  0  0
  185.6380  178.3700  142.0640 N   0  0  0  0  0  2  0  0  0  0  0  0
  184.7770  178.3440  146.2080 C   0  0  0  0  0  0  0  0  0  0  0  0
  184.1240  178.8960  143.9420 C   0  0  0  0  0  3  0  0  0  0  0  0
  183.8480  178.8830  145.3130 C   0  0  0  0  0  3  0  0  0  0  0  0
  184.5100  178.3330  147.5350 F   0  0  0  0  0  0  0  0  0  0  0  0
  185.9820  177.8190  145.7320 C   0  0  0  0  0  3  0  0  0  0  0  0
  186.2580  177.8320  144.3620 C   0  0  0  0  0  3  0  0  0  0  0  0
  185.3330  178.3690  143.4610 C   0  0  0  0  0  0  0  0  0  0  0  0
  2  1  2  0  0  0  0
  2  3  1  0  0  0  0
  3  4  1  0  0  0  0
  6  8  1  0  0  0  0
  7  5  1  0  0  0  0
  8  5  1  0  0  0  0
  9  7  1  0  0  0  0
 10  9  1  0  0  0  0
 11  3  1  1  0  0  0
 11 10  1  0  0  0  0
 11  6  1  0  0  0  0
 12  2  1  0  0  0  0
 13 12  1  0  0  0  0
 14 13  1  0  0  0  0
 15 14  1  0  0  0  0
 16 17  1  0  0  0  0
 16 19  1  0  0  0  0
 18 20  1  0  0  0  0
 18 17  1  0  0  0  0
 19 15  1  0  0  0  0
 20 15  1  0  0  0  0
 21 22  1  0  0  0  0
 21  1  1  0  0  0  0
 22 23  1  0  0  0  0
 23 30  1  0  0  0  0
 24 27  1  0  0  0  0
 25 26  1  0  0  0  0
 26 24  2  0  0  0  0
 28 24  1  0  0  0  0
 29 28  2  0  0  0  0
 30 25  2  0  0  0  0
 30 29  1  0  0  0  0
M  END
>  <MODEL>
1

>  <REMARK>
 VINA RESULT:      -8.0      0.000      0.000
  Name = 
  10 active torsions:
  status: ('A' for Active; 'I' for Inactive)
    1  A    between atoms: N_1  and  C_17
    2  A    between atoms: C_2  and  C_19
    3  A    between atoms: C_2  and  N_30
    4  A    between atoms: N_9  and  C_19
    5  A    between atoms: N_9  and  C_27
    6  A    between atoms: N_12  and  C_18
    7  A    between atoms: N_12  and  C_25
    8  A    between atoms: C_14  and  C_16
    9  A    between atoms: C_14  and  C_18
   10  A    between atoms: C_17  and  N_30
                            x       y       z     vdW  Elec       q    Type
                         _______ _______ _______ _____ _____    ______ ____

>  <TORSDO>
F 10

$$$$
=
 OpenBabel10232408253D

 30 32  0  0  1  0  0  0  0  0999 V2000
  188.6870  177.4070  141.8350 C   0  0  0  0  0  3  0  0  0  0  0  0
  189.9690  177.0400  141.7490 C   0  0  0  0  0  0  0  0  0  0  0  0
  190.5610  176.2770  142.8140 N   0  0  0  0  0  0  0  0  0  0  0  0
  190.2280  174.9730  142.9800 O   0  0  0  0  0  1  0  0  0  0  0  0
  190.9210  176.7470  146.8520 C   0  0  0  0  0  2  0  0  0  0  0  0
  191.8390  175.9630  144.9100 C   0  0  0  0  0  2  0  0  0  0  0  0
  189.6450  177.1260  146.0730 C   0  0  0  0  0  2  0  0  0  0  0  0
  192.1000  176.7090  146.0730 O   0  0  0  0  0  0  0  0  0  0  0  0
  189.7990  178.3340  145.1430 C   0  0  0  0  0  2  0  0  0  0  0  0
  191.0100  178.2980  144.1940 C   0  0  0  0  0  2  0  0  0  0  0  0
  191.4930  176.9050  143.7490 C   0  0  2  0  0  3  0  0  0  0  0  0
  190.7760  177.3820  140.5310 C   0  0  0  0  0  2  0  0  0  0  0  0
  190.7030  176.2940  139.5730 N   0  0  0  0  0  2  0  0  0  0  0  0
  190.6020  176.9010  138.2590 C   0  0  0  0  0  2  0  0  0  0  0  0
  191.4460  176.1830  137.3200 N   0  0  0  0  0  0  0  0  0  0  0  0
  192.1920  173.8790  136.7680 C   0  0  0  0  0  2  0  0  0  0  0  0
  193.1030  174.6920  135.9620 N   0  0  0  0  0  2  0  0  0  0  0  0
  193.8100  175.6300  136.8360 C   0  0  0  0  0  2  0  0  0  0  0  0
  191.1720  174.7580  137.5110 C   0  0  0  0  0  2  0  0  0  0  0  0
  192.8360  176.4500  137.6980 C   0  0  0  0  0  2  0  0  0  0  0  0
  187.9810  178.1840  140.7700 C   0  0  0  0  0  2  0  0  0  0  0  0
  186.8550  178.9990  141.3750 C   0  0  0  0  0  2  0  0  0  0  0  0
  185.8880  178.1180  142.0140 N   0  0  0  0  0  2  0  0  0  0  0  0
  184.9210  178.3650  146.1270 C   0  0  0  0  0  0  0  0  0  0  0  0
  184.3670  178.8420  143.8190 C   0  0  0  0  0  3  0  0  0  0  0  0
  184.0550  178.9180  145.1790 C   0  0  0  0  0  3  0  0  0  0  0  0
  184.6200  178.4400  147.4450 F   0  0  0  0  0  0  0  0  0  0  0  0
  186.0990  177.7350  145.7140 C   0  0  0  0  0  3  0  0  0  0  0  0
  186.4110  177.6590  144.3530 C   0  0  0  0  0  3  0  0  0  0  0  0
  185.5480  178.2100  143.4000 C   0  0  0  0  0  0  0  0  0  0  0  0
  2  1  2  0  0  0  0
  2  3  1  0  0  0  0
  3  4  1  0  0  0  0
  6  8  1  0  0  0  0
  7  5  1  0  0  0  0
  8  5  1  0  0  0  0
  9  7  1  0  0  0  0
 10  9  1  0  0  0  0
 11  3  1  1  0  0  0
 11 10  1  0  0  0  0
 11  6  1  0  0  0  0
 12  2  1  0  0  0  0
 13 12  1  0  0  0  0
 14 13  1  0  0  0  0
 15 19  1  0  0  0  0
 15 20  1  0  0  0  0
 15 14  1  0  0  0  0
 16 19  1  0  0  0  0
 17 16  1  0  0  0  0
 17 18  1  0  0  0  0
 18 20  1  0  0  0  0
 21 22  1  0  0  0  0
 21  1  1  0  0  0  0
 22 23  1  0  0  0  0
 23 30  1  0  0  0  0
 24 27  1  0  0  0  0
 25 26  1  0  0  0  0
 26 24  2  0  0  0  0
 28 24  1  0  0  0  0
 29 28  2  0  0  0  0
 30 25  2  0  0  0  0
 30 29  1  0  0  0  0
M  END
>  <MODEL>
2

>  <REMARK>
 VINA RESULT:      -7.9      1.514      2.401
  Name = 
  10 active torsions:
  status: ('A' for Active; 'I' for Inactive)
    1  A    between atoms: N_1  and  C_17
    2  A    between atoms: C_2  and  C_19
    3  A    between atoms: C_2  and  N_30
    4  A    between atoms: N_9  and  C_19
    5  A    between atoms: N_9  and  C_27
    6  A    between atoms: N_12  and  C_18
    7  A    between atoms: N_12  and  C_25
    8  A    between atoms: C_14  and  C_16
    9  A    between atoms: C_14  and  C_18
   10  A    between atoms: C_17  and  N_30
                            x       y       z     vdW  Elec       q    Type
                         _______ _______ _______ _____ _____    ______ ____

>  <TORSDO>
F 10

$$$$
=
 OpenBabel10232408253D

 30 32  0  0  1  0  0  0  0  0999 V2000
  190.1970  176.9740  140.2780 C   0  0  0  0  0  3  0  0  0  0  0  0
  189.2780  177.8500  139.8610 C   0  0  0  0  0  0  0  0  0  0  0  0
  189.1640  178.1460  138.4600 N   0  0  0  0  0  0  0  0  0  0  0  0
  189.0010  179.4280  138.0490 O   0  0  0  0  0  1  0  0  0  0  0  0
  187.5490  177.4020  134.7870 C   0  0  0  0  0  2  0  0  0  0  0  0
  189.4370  177.6170  136.0570 C   0  0  0  0  0  2  0  0  0  0  0  0
  186.7030  177.8250  136.0060 C   0  0  0  0  0  2  0  0  0  0  0  0
  188.7910  176.8080  135.1060 O   0  0  0  0  0  0  0  0  0  0  0  0
  186.6080  176.7720  137.1140 C   0  0  0  0  0  2  0  0  0  0  0  0
  187.9440  176.1650  137.5780 C   0  0  0  0  0  2  0  0  0  0  0  0
  189.1850  177.0710  137.4690 C   0  0  2  0  0  3  0  0  0  0  0  0
  188.3410  178.4900  140.8440 C   0  0  0  0  0  2  0  0  0  0  0  0
  186.9990  178.5230  140.2900 N   0  0  0  0  0  2  0  0  0  0  0  0
  186.1170  178.9560  141.3590 C   0  0  0  0  0  2  0  0  0  0  0  0
  184.8070  179.2720  140.8170 N   0  0  0  0  0  0  0  0  0  0  0  0
  182.4470  178.5040  140.9050 C   0  0  0  0  0  2  0  0  0  0  0  0
  182.4190  179.4360  139.7780 N   0  0  0  0  0  2  0  0  0  0  0  0
  183.4130  179.0210  138.7870 C   0  0  0  0  0  2  0  0  0  0  0  0
  183.8380  178.4640  141.5590 C   0  0  0  0  0  2  0  0  0  0  0  0
  184.8050  178.8430  139.4170 C   0  0  0  0  0  2  0  0  0  0  0  0
  190.3770  176.5890  141.7120 C   0  0  0  0  0  2  0  0  0  0  0  0
  191.5500  177.3380  142.3120 C   0  0  0  0  0  2  0  0  0  0  0  0
  191.0810  178.2660  143.3320 N   0  0  0  0  0  2  0  0  0  0  0  0
  189.1950  176.9830  146.8970 C   0  0  0  0  0  0  0  0  0  0  0  0
  189.0460  177.9990  144.7040 C   0  0  0  0  0  3  0  0  0  0  0  0
  188.4310  177.5720  145.8850 C   0  0  0  0  0  3  0  0  0  0  0  0
  188.6000  176.5710  148.0410 F   0  0  0  0  0  0  0  0  0  0  0  0
  190.5730  176.8220  146.7280 C   0  0  0  0  0  3  0  0  0  0  0  0
  191.1880  177.2490  145.5470 C   0  0  0  0  0  3  0  0  0  0  0  0
  190.4300  177.8380  144.5310 C   0  0  0  0  0  0  0  0  0  0  0  0
  1 21  1  0  0  0  0
  2  1  2  0  0  0  0
  2 12  1  0  0  0  0
  3  2  1  0  0  0  0
  4  3  1  0  0  0  0
  5  8  1  0  0  0  0
  5  7  1  0  0  0  0
  6 11  1  0  0  0  0
  7  9  1  0  0  0  0
  8  6  1  0  0  0  0
  9 10  1  0  0  0  0
 11 10  1  0  0  0  0
 11  3  1  1  0  0  0
 13 12  1  0  0  0  0
 13 14  1  0  0  0  0
 15 14  1  0  0  0  0
 15 19  1  0  0  0  0
 16 19  1  0  0  0  0
 17 16  1  0  0  0  0
 18 20  1  0  0  0  0
 18 17  1  0  0  0  0
 20 15  1  0  0  0  0
 21 22  1  0  0  0  0
 22 23  1  0  0  0  0
 23 30  1  0  0  0  0
 24 27  1  0  0  0  0
 25 26  1  0  0  0  0
 26 24  2  0  0  0  0
 28 24  1  0  0  0  0
 29 28  2  0  0  0  0
 30 25  2  0  0  0  0
 30 29  1  0  0  0  0
M  END
>  <MODEL>
3

>  <REMARK>
 VINA RESULT:      -7.4      2.803      6.341
  Name = 
  10 active torsions:
  status: ('A' for Active; 'I' for Inactive)
    1  A    between atoms: N_1  and  C_17
    2  A    between atoms: C_2  and  C_19
    3  A    between atoms: C_2  and  N_30
    4  A    between atoms: N_9  and  C_19
    5  A    between atoms: N_9  and  C_27
    6  A    between atoms: N_12  and  C_18
    7  A    between atoms: N_12  and  C_25
    8  A    between atoms: C_14  and  C_16
    9  A    between atoms: C_14  and  C_18
   10  A    between atoms: C_17  and  N_30
                            x       y       z     vdW  Elec       q    Type
                         _______ _______ _______ _____ _____    ______ ____

>  <TORSDO>
F 10

$$$$
=
 OpenBabel10232408253D

 30 32  0  0  1  0  0  0  0  0999 V2000
  186.6700  178.0480  142.5440 C   0  0  0  0  0  3  0  0  0  0  0  0
  187.8630  177.8420  141.9780 C   0  0  0  0  0  0  0  0  0  0  0  0
  188.7410  176.8410  142.5190 N   0  0  0  0  0  0  0  0  0  0  0  0
  188.2330  175.6650  142.9670 O   0  0  0  0  0  1  0  0  0  0  0  0
  191.6790  176.3670  145.3100 C   0  0  0  0  0  2  0  0  0  0  0  0
  190.9130  175.8780  143.2130 C   0  0  0  0  0  2  0  0  0  0  0  0
  190.3590  177.1100  145.5990 C   0  0  0  0  0  2  0  0  0  0  0  0
  192.0350  176.3030  143.9440 O   0  0  0  0  0  0  0  0  0  0  0  0
  190.2050  178.4460  144.8670 C   0  0  0  0  0  2  0  0  0  0  0  0
  190.4770  178.4160  143.3530 C   0  0  0  0  0  2  0  0  0  0  0  0
  190.1770  177.0900  142.6270 C   0  0  2  0  0  3  0  0  0  0  0  0
  188.2690  178.6190  140.7610 C   0  0  0  0  0  2  0  0  0  0  0  0
  188.2170  177.7600  139.5920 N   0  0  0  0  0  2  0  0  0  0  0  0
  189.5400  177.7900  138.9930 C   0  0  0  0  0  2  0  0  0  0  0  0
  189.9590  176.4390  138.6620 N   0  0  0  0  0  0  0  0  0  0  0  0
  191.9050  175.1910  137.7530 C   0  0  0  0  0  2  0  0  0  0  0  0
  190.8530  174.1760  137.7200 N   0  0  0  0  0  2  0  0  0  0  0  0
  189.7230  174.6810  136.9360 C   0  0  0  0  0  2  0  0  0  0  0  0
  191.3930  176.5020  138.3760 C   0  0  0  0  0  2  0  0  0  0  0  0
  189.2510  176.0540  137.4400 C   0  0  0  0  0  2  0  0  0  0  0  0
  185.6830  179.0520  142.0410 C   0  0  0  0  0  2  0  0  0  0  0  0
  184.7260  179.4470  143.1490 C   0  0  0  0  0  2  0  0  0  0  0  0
  184.6560  178.3900  144.1470 N   0  0  0  0  0  2  0  0  0  0  0  0
  187.0730  178.3720  147.6220 C   0  0  0  0  0  0  0  0  0  0  0  0
  186.3900  177.3270  145.5470 C   0  0  0  0  0  3  0  0  0  0  0  0
  187.1850  177.3290  146.6970 C   0  0  0  0  0  3  0  0  0  0  0  0
  187.8420  178.3740  148.7360 F   0  0  0  0  0  0  0  0  0  0  0  0
  186.1670  179.4120  147.3960 C   0  0  0  0  0  3  0  0  0  0  0  0
  185.3710  179.4090  146.2460 C   0  0  0  0  0  3  0  0  0  0  0  0
  185.4780  178.3690  145.3170 C   0  0  0  0  0  0  0  0  0  0  0  0
  2  3  1  0  0  0  0
  2  1  2  0  0  0  0
  3  4  1  0  0  0  0
  5  7  1  0  0  0  0
  6  8  1  0  0  0  0
  8  5  1  0  0  0  0
  9  7  1  0  0  0  0
 10  9  1  0  0  0  0
 11  3  1  1  0  0  0
 11  6  1  0  0  0  0
 11 10  1  0  0  0  0
 12  2  1  0  0  0  0
 13 12  1  0  0  0  0
 14 13  1  0  0  0  0
 15 14  1  0  0  0  0
 16 19  1  0  0  0  0
 17 16  1  0  0  0  0
 18 20  1  0  0  0  0
 18 17  1  0  0  0  0
 19 15  1  0  0  0  0
 20 15  1  0  0  0  0
 21  1  1  0  0  0  0
 21 22  1  0  0  0  0
 22 23  1  0  0  0  0
 23 30  1  0  0  0  0
 24 27  1  0  0  0  0
 25 26  1  0  0  0  0
 26 24  2  0  0  0  0
 28 24  1  0  0  0  0
 29 28  2  0  0  0  0
 30 25  2  0  0  0  0
 30 29  1  0  0  0  0
M  END
>  <MODEL>
4

>  <REMARK>
 VINA RESULT:      -7.3      1.665      2.769
  Name = 
  10 active torsions:
  status: ('A' for Active; 'I' for Inactive)
    1  A    between atoms: N_1  and  C_17
    2  A    between atoms: C_2  and  C_19
    3  A    between atoms: C_2  and  N_30
    4  A    between atoms: N_9  and  C_19
    5  A    between atoms: N_9  and  C_27
    6  A    between atoms: N_12  and  C_18
    7  A    between atoms: N_12  and  C_25
    8  A    between atoms: C_14  and  C_16
    9  A    between atoms: C_14  and  C_18
   10  A    between atoms: C_17  and  N_30
                            x       y       z     vdW  Elec       q    Type
                         _______ _______ _______ _____ _____    ______ ____

>  <TORSDO>
F 10

$$$$
=
 OpenBabel10232408253D

 30 32  0  0  1  0  0  0  0  0999 V2000
  183.8240  179.0260  143.3150 C   0  0  0  0  0  3  0  0  0  0  0  0
  184.4300  178.9330  142.1270 C   0  0  0  0  0  0  0  0  0  0  0  0
  183.7020  178.4250  140.9980 N   0  0  0  0  0  0  0  0  0  0  0  0
  183.2720  177.1390  140.9920 O   0  0  0  0  0  1  0  0  0  0  0  0
  182.2900  177.9770  137.1960 C   0  0  0  0  0  2  0  0  0  0  0  0
  182.0680  178.9970  139.2290 C   0  0  0  0  0  2  0  0  0  0  0  0
  183.4390  177.1240  137.7700 C   0  0  0  0  0  2  0  0  0  0  0  0
  182.0960  179.2190  137.8420 O   0  0  0  0  0  0  0  0  0  0  0  0
  184.7420  177.8910  138.0200 C   0  0  0  0  0  2  0  0  0  0  0  0
  184.6050  179.2020  138.8140 C   0  0  0  0  0  2  0  0  0  0  0  0
  183.4520  179.2720  139.8330 C   0  0  2  0  0  3  0  0  0  0  0  0
  185.8480  179.3970  141.9620 C   0  0  0  0  0  2  0  0  0  0  0  0
  186.7420  178.2530  141.9800 N   0  0  0  0  0  2  0  0  0  0  0  0
  187.5670  178.3500  140.7890 C   0  0  0  0  0  2  0  0  0  0  0  0
  188.9540  178.0860  141.1310 N   0  0  0  0  0  0  0  0  0  0  0  0
  191.0270  177.1110  140.1700 C   0  0  0  0  0  2  0  0  0  0  0  0
  191.3830  177.2440  141.5820 N   0  0  0  0  0  2  0  0  0  0  0  0
  190.3990  176.5240  142.3950 C   0  0  0  0  0  2  0  0  0  0  0  0
  189.6220  177.6750  139.8950 C   0  0  0  0  0  2  0  0  0  0  0  0
  188.9620  176.9620  142.0680 C   0  0  0  0  0  2  0  0  0  0  0  0
  184.4940  179.5590  144.5410 C   0  0  0  0  0  2  0  0  0  0  0  0
  184.4380  178.5330  145.6570 C   0  0  0  0  0  2  0  0  0  0  0  0
  185.3730  178.8930  146.7130 N   0  0  0  0  0  2  0  0  0  0  0  0
  189.2480  177.2110  146.9760 C   0  0  0  0  0  0  0  0  0  0  0  0
  187.3800  178.3310  148.0350 C   0  0  0  0  0  3  0  0  0  0  0  0
  188.6600  177.7730  148.1130 C   0  0  0  0  0  3  0  0  0  0  0  0
  190.4870  176.6710  147.0510 F   0  0  0  0  0  0  0  0  0  0  0  0
  188.5550  177.2070  145.7610 C   0  0  0  0  0  3  0  0  0  0  0  0
  187.2760  177.7660  145.6830 C   0  0  0  0  0  3  0  0  0  0  0  0
  186.6830  178.3300  146.8170 C   0  0  0  0  0  0  0  0  0  0  0  0
  1 21  1  0  0  0  0
  2  1  2  0  0  0  0
  3  2  1  0  0  0  0
  4  3  1  0  0  0  0
  5  7  1  0  0  0  0
  5  8  1  0  0  0  0
  6 11  1  0  0  0  0
  7  9  1  0  0  0  0
  8  6  1  0  0  0  0
  9 10  1  0  0  0  0
 10 11  1  0  0  0  0
 11  3  1  1  0  0  0
 12 13  1  0  0  0  0
 12  2  1  0  0  0  0
 14 15  1  0  0  0  0
 14 13  1  0  0  0  0
 15 20  1  0  0  0  0
 16 17  1  0  0  0  0
 17 18  1  0  0  0  0
 19 16  1  0  0  0  0
 19 15  1  0  0  0  0
 20 18  1  0  0  0  0
 21 22  1  0  0  0  0
 22 23  1  0  0  0  0
 23 30  1  0  0  0  0
 24 27  1  0  0  0  0
 24 26  1  0  0  0  0
 25 26  2  0  0  0  0
 28 24  2  0  0  0  0
 29 28  1  0  0  0  0
 29 30  2  0  0  0  0
 30 25  1  0  0  0  0
M  END
>  <MODEL>
5

>  <REMARK>
 VINA RESULT:      -7.3      3.478      6.859
  Name = 
  10 active torsions:
  status: ('A' for Active; 'I' for Inactive)
    1  A    between atoms: N_1  and  C_17
    2  A    between atoms: C_2  and  C_19
    3  A    between atoms: C_2  and  N_30
    4  A    between atoms: N_9  and  C_19
    5  A    between atoms: N_9  and  C_27
    6  A    between atoms: N_12  and  C_18
    7  A    between atoms: N_12  and  C_25
    8  A    between atoms: C_14  and  C_16
    9  A    between atoms: C_14  and  C_18
   10  A    between atoms: C_17  and  N_30
                            x       y       z     vdW  Elec       q    Type
                         _______ _______ _______ _____ _____    ______ ____

>  <TORSDO>
F 10

$$$$
=
 OpenBabel10232408253D

 30 32  0  0  1  0  0  0  0  0999 V2000
  184.4750  179.5800  143.2180 C   0  0  0  0  0  3  0  0  0  0  0  0
  185.0400  178.8620  142.2420 C   0  0  0  0  0  0  0  0  0  0  0  0
  184.4230  178.8170  140.9460 N   0  0  0  0  0  0  0  0  0  0  0  0
  184.7510  179.7400  140.0070 O   0  0  0  0  0  1  0  0  0  0  0  0
  181.6070  178.1520  138.0680 C   0  0  0  0  0  2  0  0  0  0  0  0
  183.4670  177.3940  139.1610 C   0  0  0  0  0  2  0  0  0  0  0  0
  181.7060  179.4740  138.8550 C   0  0  0  0  0  2  0  0  0  0  0  0
  182.1840  177.0340  138.7140 O   0  0  0  0  0  0  0  0  0  0  0  0
  181.3310  179.3660  140.3360 C   0  0  0  0  0  2  0  0  0  0  0  0
  182.0120  178.2300  141.1190 C   0  0  0  0  0  2  0  0  0  0  0  0
  183.4130  177.8070  140.6380 C   0  0  2  0  0  3  0  0  0  0  0  0
  186.3340  178.1420  142.4840 C   0  0  0  0  0  2  0  0  0  0  0  0
  187.3640  178.6790  141.6130 N   0  0  0  0  0  2  0  0  0  0  0  0
  188.5290  177.8270  141.7690 C   0  0  0  0  0  2  0  0  0  0  0  0
  188.9570  177.3370  140.4700 N   0  0  0  0  0  0  0  0  0  0  0  0
  191.0180  176.7890  139.1970 C   0  0  0  0  0  2  0  0  0  0  0  0
  189.9990  176.7590  138.1480 N   0  0  0  0  0  2  0  0  0  0  0  0
  189.2980  178.0450  138.1230 C   0  0  0  0  0  2  0  0  0  0  0  0
  190.3900  177.0590  140.5750 C   0  0  0  0  0  2  0  0  0  0  0  0
  188.7560  178.4250  139.5110 C   0  0  0  0  0  2  0  0  0  0  0  0
  185.0530  179.7010  144.5910 C   0  0  0  0  0  2  0  0  0  0  0  0
  184.5210  178.5970  145.4840 C   0  0  0  0  0  2  0  0  0  0  0  0
  185.2010  178.6230  146.7700 N   0  0  0  0  0  2  0  0  0  0  0  0
  189.2250  177.4290  147.3160 C   0  0  0  0  0  0  0  0  0  0  0  0
  187.2600  177.5690  145.9070 C   0  0  0  0  0  3  0  0  0  0  0  0
  188.5890  177.1790  146.0960 C   0  0  0  0  0  3  0  0  0  0  0  0
  190.5120  177.0500  147.5000 F   0  0  0  0  0  0  0  0  0  0  0  0
  188.5310  178.0700  148.3460 C   0  0  0  0  0  3  0  0  0  0  0  0
  187.2020  178.4610  148.1580 C   0  0  0  0  0  3  0  0  0  0  0  0
  186.5600  178.2130  146.9400 C   0  0  0  0  0  0  0  0  0  0  0  0
  1 21  1  0  0  0  0
  2 12  1  0  0  0  0
  2  1  2  0  0  0  0
  3  2  1  0  0  0  0
  4  3  1  0  0  0  0
  5  8  1  0  0  0  0
  5  7  1  0  0  0  0
  6 11  1  0  0  0  0
  7  9  1  0  0  0  0
  8  6  1  0  0  0  0
  9 10  1  0  0  0  0
 11  3  1  6  0  0  0
 11 10  1  0  0  0  0
 13 14  1  0  0  0  0
 13 12  1  0  0  0  0
 15 19  1  0  0  0  0
 15 14  1  0  0  0  0
 16 19  1  0  0  0  0
 17 16  1  0  0  0  0
 18 17  1  0  0  0  0
 18 20  1  0  0  0  0
 20 15  1  0  0  0  0
 21 22  1  0  0  0  0
 22 23  1  0  0  0  0
 23 30  1  0  0  0  0
 24 27  1  0  0  0  0
 24 28  1  0  0  0  0
 25 26  1  0  0  0  0
 25 30  2  0  0  0  0
 26 24  2  0  0  0  0
 29 28  2  0  0  0  0
 30 29  1  0  0  0  0
M  END
>  <MODEL>
6

>  <REMARK>
 VINA RESULT:      -7.2      3.543      6.533
  Name = 
  10 active torsions:
  status: ('A' for Active; 'I' for Inactive)
    1  A    between atoms: N_1  and  C_17
    2  A    between atoms: C_2  and  C_19
    3  A    between atoms: C_2  and  N_30
    4  A    between atoms: N_9  and  C_19
    5  A    between atoms: N_9  and  C_27
    6  A    between atoms: N_12  and  C_18
    7  A    between atoms: N_12  and  C_25
    8  A    between atoms: C_14  and  C_16
    9  A    between atoms: C_14  and  C_18
   10  A    between atoms: C_17  and  N_30
                            x       y       z     vdW  Elec       q    Type
                         _______ _______ _______ _____ _____    ______ ____

>  <TORSDO>
F 10

$$$$
=
 OpenBabel10232408253D

 30 32  0  0  1  0  0  0  0  0999 V2000
  184.3500  179.3210  143.0890 C   0  0  0  0  0  3  0  0  0  0  0  0
  185.0830  179.0740  141.9990 C   0  0  0  0  0  0  0  0  0  0  0  0
  184.4280  178.8320  140.7430 N   0  0  0  0  0  0  0  0  0  0  0  0
  184.7600  179.5680  139.6530 O   0  0  0  0  0  1  0  0  0  0  0  0
  181.4740  177.8280  138.1140 C   0  0  0  0  0  2  0  0  0  0  0  0
  183.3550  177.1840  139.2410 C   0  0  0  0  0  2  0  0  0  0  0  0
  181.6450  179.2530  138.6790 C   0  0  0  0  0  2  0  0  0  0  0  0
  182.0440  176.8050  138.9050 O   0  0  0  0  0  0  0  0  0  0  0  0
  181.3300  179.3900  140.1720 C   0  0  0  0  0  2  0  0  0  0  0  0
  182.0100  178.3650  141.0970 C   0  0  0  0  0  2  0  0  0  0  0  0
  183.3760  177.8230  140.6360 C   0  0  2  0  0  3  0  0  0  0  0  0
  186.5820  179.0910  142.0750 C   0  0  0  0  0  2  0  0  0  0  0  0
  187.0670  177.7840  142.4780 N   0  0  0  0  0  2  0  0  0  0  0  0
  188.3940  177.6370  141.9090 C   0  0  0  0  0  2  0  0  0  0  0  0
  189.3400  177.2860  142.9540 N   0  0  0  0  0  0  0  0  0  0  0  0
  191.4040  178.1280  144.0490 C   0  0  0  0  0  2  0  0  0  0  0  0
  191.3280  176.7590  144.5610 N   0  0  0  0  0  2  0  0  0  0  0  0
  191.2820  175.8270  143.4320 C   0  0  0  0  0  2  0  0  0  0  0  0
  190.1940  178.4580  143.1600 C   0  0  0  0  0  2  0  0  0  0  0  0
  190.1620  176.1880  142.4420 C   0  0  0  0  0  2  0  0  0  0  0  0
  184.9420  179.6020  144.4330 C   0  0  0  0  0  2  0  0  0  0  0  0
  184.4880  178.5570  145.4340 C   0  0  0  0  0  2  0  0  0  0  0  0
  185.1530  178.7700  146.7120 N   0  0  0  0  0  2  0  0  0  0  0  0
  189.0990  177.4820  147.5420 C   0  0  0  0  0  0  0  0  0  0  0  0
  187.2010  177.5660  146.0400 C   0  0  0  0  0  3  0  0  0  0  0  0
  188.5040  177.1460  146.3220 C   0  0  0  0  0  3  0  0  0  0  0  0
  190.3600  177.0740  147.8160 F   0  0  0  0  0  0  0  0  0  0  0  0
  188.3890  178.2400  148.4790 C   0  0  0  0  0  3  0  0  0  0  0  0
  187.0860  178.6610  148.1960 C   0  0  0  0  0  3  0  0  0  0  0  0
  186.4860  178.3270  146.9780 C   0  0  0  0  0  0  0  0  0  0  0  0
  1 21  1  0  0  0  0
  2 12  1  0  0  0  0
  2  1  2  0  0  0  0
  3  2  1  0  0  0  0
  4  3  1  0  0  0  0
  5  7  1  0  0  0  0
  5  8  1  0  0  0  0
  6 11  1  0  0  0  0
  7  9  1  0  0  0  0
  8  6  1  0  0  0  0
  9 10  1  0  0  0  0
 11  3  1  6  0  0  0
 11 10  1  0  0  0  0
 12 13  1  0  0  0  0
 14 13  1  0  0  0  0
 14 15  1  0  0  0  0
 15 19  1  0  0  0  0
 16 17  1  0  0  0  0
 18 17  1  0  0  0  0
 19 16  1  0  0  0  0
 20 15  1  0  0  0  0
 20 18  1  0  0  0  0
 21 22  1  0  0  0  0
 22 23  1  0  0  0  0
 23 30  1  0  0  0  0
 24 27  1  0  0  0  0
 24 28  1  0  0  0  0
 25 26  1  0  0  0  0
 25 30  2  0  0  0  0
 26 24  2  0  0  0  0
 29 28  2  0  0  0  0
 30 29  1  0  0  0  0
M  END
>  <MODEL>
7

>  <REMARK>
 VINA RESULT:      -7.2      3.644      7.133
  Name = 
  10 active torsions:
  status: ('A' for Active; 'I' for Inactive)
    1  A    between atoms: N_1  and  C_17
    2  A    between atoms: C_2  and  C_19
    3  A    between atoms: C_2  and  N_30
    4  A    between atoms: N_9  and  C_19
    5  A    between atoms: N_9  and  C_27
    6  A    between atoms: N_12  and  C_18
    7  A    between atoms: N_12  and  C_25
    8  A    between atoms: C_14  and  C_16
    9  A    between atoms: C_14  and  C_18
   10  A    between atoms: C_17  and  N_30
                            x       y       z     vdW  Elec       q    Type
                         _______ _______ _______ _____ _____    ______ ____

>  <TORSDO>
F 10

$$$$
=
 OpenBabel10232408253D

 30 32  0  0  1  0  0  0  0  0999 V2000
  189.9700  177.2720  140.5020 C   0  0  0  0  0  3  0  0  0  0  0  0
  188.8250  177.9180  140.2560 C   0  0  0  0  0  0  0  0  0  0  0  0
  188.1550  177.7200  139.0010 N   0  0  0  0  0  0  0  0  0  0  0  0
  186.9970  178.3750  138.7410 O   0  0  0  0  0  1  0  0  0  0  0  0
  188.7260  177.6100  134.9620 C   0  0  0  0  0  2  0  0  0  0  0  0
  189.6560  177.4880  137.0470 C   0  0  0  0  0  2  0  0  0  0  0  0
  187.3670  177.9440  135.6090 C   0  0  0  0  0  2  0  0  0  0  0  0
  189.6070  176.8710  135.7850 O   0  0  0  0  0  0  0  0  0  0  0  0
  186.6920  176.7670  136.3200 C   0  0  0  0  0  2  0  0  0  0  0  0
  187.5750  175.9880  137.3110 C   0  0  0  0  0  2  0  0  0  0  0  0
  188.6910  176.7860  138.0120 C   0  0  2  0  0  3  0  0  0  0  0  0
  188.2200  178.8100  141.3000 C   0  0  0  0  0  2  0  0  0  0  0  0
  187.3700  178.0280  142.1800 N   0  0  0  0  0  2  0  0  0  0  0  0
  186.0160  178.5200  141.9990 C   0  0  0  0  0  2  0  0  0  0  0  0
  185.4520  178.8880  143.2860 N   0  0  0  0  0  0  0  0  0  0  0  0
  185.3210  178.0910  145.6340 C   0  0  0  0  0  2  0  0  0  0  0  0
  184.3210  179.1590  145.6220 N   0  0  0  0  0  2  0  0  0  0  0  0
  183.3380  178.8840  144.5730 C   0  0  0  0  0  2  0  0  0  0  0  0
  186.0350  177.9820  144.2760 C   0  0  0  0  0  2  0  0  0  0  0  0
  184.0100  178.6420  143.2120 C   0  0  0  0  0  2  0  0  0  0  0  0
  190.7280  177.4000  141.7850 C   0  0  0  0  0  2  0  0  0  0  0  0
  190.4950  176.1800  142.6550 C   0  0  0  0  0  2  0  0  0  0  0  0
  191.3130  176.2600  143.8560 N   0  0  0  0  0  2  0  0  0  0  0  0
  189.7540  177.5410  147.5760 C   0  0  0  0  0  0  0  0  0  0  0  0
  191.5170  176.4720  146.3070 C   0  0  0  0  0  3  0  0  0  0  0  0
  190.9950  176.8990  147.5320 C   0  0  0  0  0  3  0  0  0  0  0  0
  189.2470  177.9540  148.7620 F   0  0  0  0  0  0  0  0  0  0  0  0
  189.0360  177.7560  146.3960 C   0  0  0  0  0  3  0  0  0  0  0  0
  189.5580  177.3290  145.1720 C   0  0  0  0  0  3  0  0  0  0  0  0
  190.7990  176.6860  145.1200 C   0  0  0  0  0  0  0  0  0  0  0  0
  1 21  1  0  0  0  0
  2  1  2  0  0  0  0
  2 12  1  0  0  0  0
  3  2  1  0  0  0  0
  4  3  1  0  0  0  0
  5  7  1  0  0  0  0
  5  8  1  0  0  0  0
  6 11  1  0  0  0  0
  7  9  1  0  0  0  0
  8  6  1  0  0  0  0
  9 10  1  0  0  0  0
 10 11  1  0  0  0  0
 11  3  1  1  0  0  0
 12 13  1  0  0  0  0
 14 13  1  0  0  0  0
 14 15  1  0  0  0  0
 15 19  1  0  0  0  0
 17 16  1  0  0  0  0
 18 17  1  0  0  0  0
 19 16  1  0  0  0  0
 20 15  1  0  0  0  0
 20 18  1  0  0  0  0
 21 22  1  0  0  0  0
 22 23  1  0  0  0  0
 23 30  1  0  0  0  0
 24 27  1  0  0  0  0
 25 26  2  0  0  0  0
 26 24  1  0  0  0  0
 28 24  2  0  0  0  0
 29 28  1  0  0  0  0
 30 29  2  0  0  0  0
 30 25  1  0  0  0  0
M  END
>  <MODEL>
8

>  <REMARK>
 VINA RESULT:      -7.1      2.513      6.978
  Name = 
  10 active torsions:
  status: ('A' for Active; 'I' for Inactive)
    1  A    between atoms: N_1  and  C_17
    2  A    between atoms: C_2  and  C_19
    3  A    between atoms: C_2  and  N_30
    4  A    between atoms: N_9  and  C_19
    5  A    between atoms: N_9  and  C_27
    6  A    between atoms: N_12  and  C_18
    7  A    between atoms: N_12  and  C_25
    8  A    between atoms: C_14  and  C_16
    9  A    between atoms: C_14  and  C_18
   10  A    between atoms: C_17  and  N_30
                            x       y       z     vdW  Elec       q    Type
                         _______ _______ _______ _____ _____    ______ ____

>  <TORSDO>
F 10

$$$$
=
 OpenBabel10232408253D

 30 32  0  0  1  0  0  0  0  0999 V2000
  190.0030  176.9720  140.7000 C   0  0  0  0  0  3  0  0  0  0  0  0
  189.2000  177.9510  140.2720 C   0  0  0  0  0  0  0  0  0  0  0  0
  189.0610  178.1880  138.8610 N   0  0  0  0  0  0  0  0  0  0  0  0
  188.9820  179.4580  138.3920 O   0  0  0  0  0  1  0  0  0  0  0  0
  188.0120  177.6030  134.9620 C   0  0  0  0  0  2  0  0  0  0  0  0
  189.6170  177.4110  136.5780 C   0  0  0  0  0  2  0  0  0  0  0  0
  187.1070  178.3340  135.9740 C   0  0  0  0  0  2  0  0  0  0  0  0
  188.9600  176.7280  135.5400 O   0  0  0  0  0  0  0  0  0  0  0  0
  186.5200  177.4390  137.0690 C   0  0  0  0  0  2  0  0  0  0  0  0
  187.5250  176.5390  137.8090 C   0  0  0  0  0  2  0  0  0  0  0  0
  188.9660  177.0690  137.9260 C   0  0  2  0  0  3  0  0  0  0  0  0
  188.4150  178.7710  141.2530 C   0  0  0  0  0  2  0  0  0  0  0  0
  187.0300  178.3350  141.2570 N   0  0  0  0  0  2  0  0  0  0  0  0
  186.6900  178.0370  142.6370 C   0  0  0  0  0  2  0  0  0  0  0  0
  185.2460  178.0480  142.8000 N   0  0  0  0  0  0  0  0  0  0  0  0
  183.1850  178.8770  141.6900 C   0  0  0  0  0  2  0  0  0  0  0  0
  182.6780  178.4630  142.9980 N   0  0  0  0  0  2  0  0  0  0  0  0
  183.4220  179.1650  144.0460 C   0  0  0  0  0  2  0  0  0  0  0  0
  184.6850  178.5650  141.5510 C   0  0  0  0  0  2  0  0  0  0  0  0
  184.9410  178.9890  143.8800 C   0  0  0  0  0  2  0  0  0  0  0  0
  190.1960  176.6390  142.1450 C   0  0  0  0  0  2  0  0  0  0  0  0
  191.5410  177.1490  142.6250 C   0  0  0  0  0  2  0  0  0  0  0  0
  191.3630  178.0230  143.7750 N   0  0  0  0  0  2  0  0  0  0  0  0
  189.0840  176.9190  147.1670 C   0  0  0  0  0  0  0  0  0  0  0  0
  189.2320  178.0340  145.0220 C   0  0  0  0  0  3  0  0  0  0  0  0
  188.4860  177.6640  146.1460 C   0  0  0  0  0  3  0  0  0  0  0  0
  188.3630  176.5620  148.2560 F   0  0  0  0  0  0  0  0  0  0  0  0
  190.4270  176.5440  147.0630 C   0  0  0  0  0  3  0  0  0  0  0  0
  191.1720  176.9130  145.9390 C   0  0  0  0  0  3  0  0  0  0  0  0
  190.5800  177.6590  144.9150 C   0  0  0  0  0  0  0  0  0  0  0  0
  1 21  1  0  0  0  0
  2  1  2  0  0  0  0
  2 12  1  0  0  0  0
  3  2  1  0  0  0  0
  4  3  1  0  0  0  0
  5  8  1  0  0  0  0
  5  7  1  0  0  0  0
  6 11  1  0  0  0  0
  7  9  1  0  0  0  0
  8  6  1  0  0  0  0
  9 10  1  0  0  0  0
 10 11  1  0  0  0  0
 11  3  1  1  0  0  0
 12 13  1  0  0  0  0
 13 14  1  0  0  0  0
 14 15  1  0  0  0  0
 15 20  1  0  0  0  0
 16 17  1  0  0  0  0
 17 18  1  0  0  0  0
 19 16  1  0  0  0  0
 19 15  1  0  0  0  0
 20 18  1  0  0  0  0
 21 22  1  0  0  0  0
 22 23  1  0  0  0  0
 23 30  1  0  0  0  0
 24 27  1  0  0  0  0
 25 26  1  0  0  0  0
 26 24  2  0  0  0  0
 28 24  1  0  0  0  0
 29 28  2  0  0  0  0
 30 25  2  0  0  0  0
 30 29  1  0  0  0  0
M  END
>  <MODEL>
9

>  <REMARK>
 VINA RESULT:      -7.0      2.530      6.565
  Name = 
  10 active torsions:
  status: ('A' for Active; 'I' for Inactive)
    1  A    between atoms: N_1  and  C_17
    2  A    between atoms: C_2  and  C_19
    3  A    between atoms: C_2  and  N_30
    4  A    between atoms: N_9  and  C_19
    5  A    between atoms: N_9  and  C_27
    6  A    between atoms: N_12  and  C_18
    7  A    between atoms: N_12  and  C_25
    8  A    between atoms: C_14  and  C_16
    9  A    between atoms: C_14  and  C_18
   10  A    between atoms: C_17  and  N_30
                            x       y       z     vdW  Elec       q    Type
                         _______ _______ _______ _____ _____    ______ ____

>  <TORSDO>
F 10

$$$$
