=
 OpenBabel10232407563D

 26 29  0  0  1  0  0  0  0  0999 V2000
  188.8340  177.2120  140.5930 C   0  0  0  0  0  0  0  0  0  0  0  0
  187.1710  178.0820  142.1290 C   0  0  0  0  0  3  0  0  0  0  0  0
  191.3300  177.7540  142.5520 N   0  0  2  0  0  0  0  0  0  0  0  0
  192.3070  176.9390  143.2590 C   0  0  0  0  0  2  0  0  0  0  0  0
  188.2660  177.2450  141.8800 C   0  0  0  0  0  0  0  0  0  0  0  0
  189.8960  178.9390  144.1580 C   0  0  0  0  0  2  0  0  0  0  0  0
  189.6760  177.6310  144.9390 C   0  0  1  0  0  3  0  0  0  0  0  0
  187.2220  178.8360  139.8670 N   0  0  0  0  0  0  0  0  0  0  0  0
  186.6570  178.8730  141.1010 C   0  0  0  0  0  3  0  0  0  0  0  0
  188.2900  178.0400  139.5960 C   0  0  0  0  0  3  0  0  0  0  0  0
  191.6090  176.0630  144.2920 C   0  0  0  0  0  2  0  0  0  0  0  0
  190.0190  175.7310  138.9780 C   0  0  0  0  0  3  0  0  0  0  0  0
  191.8960  178.0930  141.2560 C   0  0  0  0  0  2  0  0  0  0  0  0
  188.8210  176.4470  142.9330 N   0  0  0  0  0  2  0  0  0  0  0  0
  191.2840  177.2450  140.1810 C   0  0  0  0  0  0  0  0  0  0  0  0
  188.5840  176.7260  144.3450 C   0  0  0  0  0  2  0  0  0  0  0  0
  190.0660  176.3840  140.3230 C   0  0  1  0  0  3  0  0  0  0  0  0
  191.0210  176.1630  138.2250 C   0  0  0  0  0  3  0  0  0  0  0  0
  190.9650  176.9060  145.3940 C   0  0  2  0  0  3  0  0  0  0  0  0
  191.1710  178.9860  143.3100 C   0  0  0  0  0  2  0  0  0  0  0  0
  191.8240  177.1150  138.9820 C   0  0  0  0  0  3  0  0  0  0  0  0
  190.7820  176.0770  146.6680 C   0  0  2  0  0  3  0  0  0  0  0  0
  189.6650  176.4920  147.3990 O   0  0  0  0  0  1  0  0  0  0  0  0
  192.2150  177.1360  148.4270 O   0  0  0  0  0  1  0  0  0  0  0  0
  192.8700  175.1950  147.4000 O   0  0  0  0  0  0  0  0  0  0  0  0
  192.0060  176.1010  147.5230 C   0  0  0  0  0  0  0  0  0  0  0  0
  1  5  1  0  0  0  0
  3 13  1  6  0  0  0
  3  4  1  0  0  0  0
  3 20  1  0  0  0  0
  4 11  1  0  0  0  0
  5  2  2  0  0  0  0
  5 14  1  0  0  0  0
  7  6  1  6  0  0  0
  7 19  1  0  0  0  0
  8  9  2  0  0  0  0
  9  2  1  0  0  0  0
 10  8  1  0  0  0  0
 10  1  2  0  0  0  0
 11 19  1  0  0  0  0
 14 16  1  0  0  0  0
 15 17  1  0  0  0  0
 15 13  1  0  0  0  0
 16  7  1  0  0  0  0
 17 12  1  6  0  0  0
 17  1  1  0  0  0  0
 18 12  2  0  0  0  0
 18 21  1  0  0  0  0
 19 22  1  1  0  0  0
 20  6  1  0  0  0  0
 21 15  2  0  0  0  0
 22 23  1  1  0  0  0
 22 26  1  0  0  0  0
 25 26  2  0  0  0  0
 26 24  1  0  0  0  0
M  END
>  <MODEL>
1

>  <REMARK>
 VINA RESULT:      -6.2      0.000      0.000
  Name = 
  2 active torsions:
  status: ('A' for Active; 'I' for Inactive)
    1  A    between atoms: C_1  and  C_12
    2  A    between atoms: C_1  and  C_23
                            x       y       z     vdW  Elec       q    Type
                         _______ _______ _______ _____ _____    ______ ____

>  <TORSDO>
F 2

$$$$
=
 OpenBabel10232407563D

 26 29  0  0  1  0  0  0  0  0999 V2000
  191.1050  176.5640  139.6930 C   0  0  0  0  0  0  0  0  0  0  0  0
  192.4040  175.8200  137.7850 C   0  0  0  0  0  3  0  0  0  0  0  0
  188.5320  177.4190  137.9580 N   0  0  2  0  0  0  0  0  0  0  0  0
  187.1490  176.9780  137.8420 C   0  0  0  0  0  2  0  0  0  0  0  0
  191.2090  175.8010  138.5150 C   0  0  0  0  0  0  0  0  0  0  0  0
  189.7310  177.0020  135.8530 C   0  0  0  0  0  2  0  0  0  0  0  0
  189.1760  175.5670  135.8120 C   0  0  1  0  0  3  0  0  0  0  0  0
  193.3560  177.3320  139.3640 N   0  0  0  0  0  0  0  0  0  0  0  0
  193.4760  176.5940  138.2310 C   0  0  0  0  0  3  0  0  0  0  0  0
  192.2070  177.3410  140.0900 C   0  0  0  0  0  3  0  0  0  0  0  0
  187.0970  175.5460  137.3250 C   0  0  0  0  0  2  0  0  0  0  0  0
  190.0120  176.6320  141.9300 C   0  0  0  0  0  3  0  0  0  0  0  0
  188.5740  178.4730  138.9570 C   0  0  0  0  0  2  0  0  0  0  0  0
  190.0920  175.0300  138.0540 N   0  0  0  0  0  2  0  0  0  0  0  0
  189.1170  177.9450  140.2520 C   0  0  0  0  0  0  0  0  0  0  0  0
  189.9630  174.5690  136.6770 C   0  0  0  0  0  2  0  0  0  0  0  0
  189.8010  176.6270  140.4490 C   0  0  1  0  0  3  0  0  0  0  0  0
  189.5420  177.7560  142.4540 C   0  0  0  0  0  3  0  0  0  0  0  0
  187.6360  175.4490  135.8970 C   0  0  2  0  0  3  0  0  0  0  0  0
  188.9050  177.9970  136.6760 C   0  0  0  0  0  2  0  0  0  0  0  0
  188.9730  178.5850  141.3990 C   0  0  0  0  0  3  0  0  0  0  0  0
  187.0790  174.2070  135.1950 C   0  0  2  0  0  3  0  0  0  0  0  0
  186.0150  174.5260  134.3470 O   0  0  0  0  0  1  0  0  0  0  0  0
  187.6230  172.3150  136.7420 O   0  0  0  0  0  1  0  0  0  0  0  0
  185.4560  173.0060  136.4600 O   0  0  0  0  0  0  0  0  0  0  0  0
  186.6720  173.1550  136.1740 C   0  0  0  0  0  0  0  0  0  0  0  0
  1 10  1  0  0  0  0
  1 17  1  0  0  0  0
  2  9  2  0  0  0  0
  2  5  1  0  0  0  0
  3 20  1  6  0  0  0
  3 13  1  0  0  0  0
  4  3  1  0  0  0  0
  5  1  2  0  0  0  0
  6 20  1  0  0  0  0
  7  6  1  1  0  0  0
  7 19  1  0  0  0  0
  7 16  1  0  0  0  0
  8 10  2  0  0  0  0
  9  8  1  0  0  0  0
 11  4  1  0  0  0  0
 12 18  2  0  0  0  0
 13 15  1  0  0  0  0
 14  5  1  0  0  0  0
 15 17  1  0  0  0  0
 15 21  2  0  0  0  0
 16 14  1  0  0  0  0
 17 12  1  1  0  0  0
 19 22  1  1  0  0  0
 19 11  1  0  0  0  0
 21 18  1  0  0  0  0
 22 23  1  1  0  0  0
 22 26  1  0  0  0  0
 26 25  2  0  0  0  0
 26 24  1  0  0  0  0
M  END
>  <MODEL>
2

>  <REMARK>
 VINA RESULT:      -5.4      5.009      8.062
  Name = 
  2 active torsions:
  status: ('A' for Active; 'I' for Inactive)
    1  A    between atoms: C_1  and  C_12
    2  A    between atoms: C_1  and  C_23
                            x       y       z     vdW  Elec       q    Type
                         _______ _______ _______ _____ _____    ______ ____

>  <TORSDO>
F 2

$$$$
=
 OpenBabel10232407563D

 26 29  0  0  1  0  0  0  0  0999 V2000
  190.3170  177.7650  145.3350 C   0  0  0  0  0  0  0  0  0  0  0  0
  189.0680  177.1790  147.3290 C   0  0  0  0  0  3  0  0  0  0  0  0
  187.8970  177.1520  143.3030 N   0  0  2  0  0  0  0  0  0  0  0  0
  187.0710  177.9270  142.3880 C   0  0  0  0  0  2  0  0  0  0  0  0
  189.1590  177.8880  146.1250 C   0  0  0  0  0  0  0  0  0  0  0  0
  186.5170  176.2380  145.1200 C   0  0  0  0  0  2  0  0  0  0  0  0
  185.8730  177.6200  145.3360 C   0  0  1  0  0  3  0  0  0  0  0  0
  191.2300  176.2450  146.9540 N   0  0  0  0  0  0  0  0  0  0  0  0
  190.1230  176.3600  147.7320 C   0  0  0  0  0  3  0  0  0  0  0  0
  191.3450  176.9140  145.7760 C   0  0  0  0  0  3  0  0  0  0  0  0
  186.2430  178.9440  143.1640 C   0  0  0  0  0  2  0  0  0  0  0  0
  191.7710  178.9960  143.7290 C   0  0  0  0  0  3  0  0  0  0  0  0
  189.0410  176.6600  142.5530 C   0  0  0  0  0  2  0  0  0  0  0  0
  188.0720  178.7130  145.6870 N   0  0  0  0  0  2  0  0  0  0  0  0
  190.2610  177.4720  142.8680 C   0  0  0  0  0  0  0  0  0  0  0  0
  186.7150  178.5710  146.2020 C   0  0  0  0  0  2  0  0  0  0  0  0
  190.4030  178.4510  143.9940 C   0  0  1  0  0  3  0  0  0  0  0  0
  192.2950  178.4130  142.6600 C   0  0  0  0  0  3  0  0  0  0  0  0
  185.2310  178.2550  144.0810 C   0  0  2  0  0  3  0  0  0  0  0  0
  187.1070  176.0050  143.7250 C   0  0  0  0  0  2  0  0  0  0  0  0
  191.3440  177.4550  142.1120 C   0  0  0  0  0  3  0  0  0  0  0  0
  184.0670  179.1970  144.4010 C   0  0  2  0  0  3  0  0  0  0  0  0
  183.7320  179.1630  145.7580 O   0  0  0  0  0  1  0  0  0  0  0  0
  182.9900  178.7880  142.1780 O   0  0  0  0  0  0  0  0  0  0  0  0
  181.7390  178.7890  144.0980 O   0  0  0  0  0  1  0  0  0  0  0  0
  182.8690  178.9020  143.5580 C   0  0  0  0  0  0  0  0  0  0  0  0
  1 10  2  0  0  0  0
  1  5  1  0  0  0  0
  2  9  1  0  0  0  0
  3  4  1  6  0  0  0
  3 20  1  0  0  0  0
  4 11  1  0  0  0  0
  5  2  2  0  0  0  0
  7  6  1  6  0  0  0
  7 16  1  0  0  0  0
  8  9  2  0  0  0  0
 10  8  1  0  0  0  0
 11 19  1  0  0  0  0
 13 15  1  0  0  0  0
 13  3  1  0  0  0  0
 14  5  1  0  0  0  0
 14 16  1  0  0  0  0
 15 17  1  0  0  0  0
 17 12  1  6  0  0  0
 17  1  1  0  0  0  0
 18 12  2  0  0  0  0
 19 22  1  1  0  0  0
 19  7  1  0  0  0  0
 20  6  1  0  0  0  0
 21 18  1  0  0  0  0
 21 15  2  0  0  0  0
 22 23  1  1  0  0  0
 24 26  2  0  0  0  0
 26 25  1  0  0  0  0
 26 22  1  0  0  0  0
M  END
>  <MODEL>
3

>  <REMARK>
 VINA RESULT:      -5.2      3.647      6.377
  Name = 
  2 active torsions:
  status: ('A' for Active; 'I' for Inactive)
    1  A    between atoms: C_1  and  C_12
    2  A    between atoms: C_1  and  C_23
                            x       y       z     vdW  Elec       q    Type
                         _______ _______ _______ _____ _____    ______ ____

>  <TORSDO>
F 2

$$$$
=
 OpenBabel10232407563D

 26 29  0  0  1  0  0  0  0  0999 V2000
  188.4470  174.0870  136.1520 C   0  0  0  0  0  0  0  0  0  0  0  0
  186.2190  173.3570  135.5350 C   0  0  0  0  0  3  0  0  0  0  0  0
  187.7270  177.2250  136.1210 N   0  0  2  0  0  0  0  0  0  0  0  0
  187.6620  178.2980  137.1030 C   0  0  0  0  0  2  0  0  0  0  0  0
  187.0550  174.1280  136.3520 C   0  0  0  0  0  0  0  0  0  0  0  0
  185.4850  176.7680  135.2200 C   0  0  0  0  0  2  0  0  0  0  0  0
  184.9100  176.7370  136.6480 C   0  0  1  0  0  3  0  0  0  0  0  0
  188.1180  172.5390  134.3470 N   0  0  0  0  0  0  0  0  0  0  0  0
  186.7730  172.5590  134.5330 C   0  0  0  0  0  3  0  0  0  0  0  0
  188.9550  173.2820  135.1180 C   0  0  0  0  0  3  0  0  0  0  0  0
  186.5830  177.9990  138.1370 C   0  0  0  0  0  2  0  0  0  0  0  0
  190.6330  174.2800  137.3300 C   0  0  0  0  0  3  0  0  0  0  0  0
  189.0650  177.2260  135.5560 C   0  0  0  0  0  2  0  0  0  0  0  0
  186.4960  174.9710  137.3680 N   0  0  0  0  0  2  0  0  0  0  0  0
  189.8820  176.1160  136.1440 C   0  0  0  0  0  0  0  0  0  0  0  0
  185.1000  175.3910  137.3670 C   0  0  0  0  0  2  0  0  0  0  0  0
  189.3610  174.9740  136.9620 C   0  0  1  0  0  3  0  0  0  0  0  0
  191.6690  174.9150  136.8000 C   0  0  0  0  0  3  0  0  0  0  0  0
  185.1910  177.9940  137.5040 C   0  0  2  0  0  3  0  0  0  0  0  0
  186.7880  177.5590  135.0600 C   0  0  0  0  0  2  0  0  0  0  0  0
  191.2000  176.0750  136.0550 C   0  0  0  0  0  3  0  0  0  0  0  0
  184.1180  178.2640  138.5620 C   0  0  2  0  0  3  0  0  0  0  0  0
  182.8400  178.3270  137.9990 O   0  0  0  0  0  1  0  0  0  0  0  0
  185.0620  179.4330  140.5640 O   0  0  0  0  0  1  0  0  0  0  0  0
  184.0320  180.6220  138.8980 O   0  0  0  0  0  0  0  0  0  0  0  0
  184.4100  179.5060  139.3400 C   0  0  0  0  0  0  0  0  0  0  0  0
  1  5  1  0  0  0  0
  1 17  1  0  0  0  0
  2  5  2  0  0  0  0
  3 20  1  6  0  0  0
  3  4  1  0  0  0  0
  4 11  1  0  0  0  0
  5 14  1  0  0  0  0
  7  6  1  6  0  0  0
  7 16  1  0  0  0  0
  7 19  1  0  0  0  0
  8  9  2  0  0  0  0
  8 10  1  0  0  0  0
  9  2  1  0  0  0  0
 10  1  2  0  0  0  0
 13  3  1  0  0  0  0
 13 15  1  0  0  0  0
 15 17  1  0  0  0  0
 16 14  1  0  0  0  0
 17 12  1  6  0  0  0
 18 12  2  0  0  0  0
 19 11  1  0  0  0  0
 19 22  1  1  0  0  0
 20  6  1  0  0  0  0
 21 15  2  0  0  0  0
 21 18  1  0  0  0  0
 22 23  1  6  0  0  0
 22 26  1  0  0  0  0
 25 26  2  0  0  0  0
 26 24  1  0  0  0  0
M  END
>  <MODEL>
4

>  <REMARK>
 VINA RESULT:      -5.2      6.608      8.281
  Name = 
  2 active torsions:
  status: ('A' for Active; 'I' for Inactive)
    1  A    between atoms: C_1  and  C_12
    2  A    between atoms: C_1  and  C_23
                            x       y       z     vdW  Elec       q    Type
                         _______ _______ _______ _____ _____    ______ ____

>  <TORSDO>
F 2

$$$$
=
 OpenBabel10232407563D

 26 29  0  0  1  0  0  0  0  0999 V2000
  183.0480  176.3040  137.2400 C   0  0  0  0  0  0  0  0  0  0  0  0
  180.7750  177.0580  137.6240 C   0  0  0  0  0  3  0  0  0  0  0  0
  184.4010  178.5340  139.1260 N   0  0  2  0  0  0  0  0  0  0  0  0
  185.1610  178.5390  140.3680 C   0  0  0  0  0  2  0  0  0  0  0  0
  182.0240  176.6750  138.1300 C   0  0  0  0  0  0  0  0  0  0  0  0
  182.2410  179.6620  139.4530 C   0  0  0  0  0  2  0  0  0  0  0  0
  181.9990  178.8450  140.7350 C   0  0  1  0  0  3  0  0  0  0  0  0
  181.5620  176.7150  135.3990 N   0  0  0  0  0  0  0  0  0  0  0  0
  180.5610  177.0670  136.2450 C   0  0  0  0  0  3  0  0  0  0  0  0
  182.7870  176.3470  135.8590 C   0  0  0  0  0  3  0  0  0  0  0  0
  184.3040  178.0070  141.5090 C   0  0  0  0  0  2  0  0  0  0  0  0
  185.0470  174.8370  137.0060 C   0  0  0  0  0  3  0  0  0  0  0  0
  185.3510  178.4630  138.0290 C   0  0  0  0  0  2  0  0  0  0  0  0
  182.2650  176.6860  139.5430 N   0  0  0  0  0  2  0  0  0  0  0  0
  185.3990  177.0730  137.4690 C   0  0  0  0  0  0  0  0  0  0  0  0
  181.4390  177.4370  140.4810 C   0  0  0  0  0  2  0  0  0  0  0  0
  184.4260  175.9710  137.7570 C   0  0  1  0  0  3  0  0  0  0  0  0
  186.1550  175.2410  136.4020 C   0  0  0  0  0  3  0  0  0  0  0  0
  183.1210  178.9320  141.7970 C   0  0  2  0  0  3  0  0  0  0  0  0
  183.7100  179.8120  139.0420 C   0  0  0  0  0  2  0  0  0  0  0  0
  186.3830  176.6500  136.6940 C   0  0  0  0  0  3  0  0  0  0  0  0
  182.6200  178.7360  143.2310 C   0  0  2  0  0  3  0  0  0  0  0  0
  181.3410  179.2710  143.4100 O   0  0  0  0  0  1  0  0  0  0  0  0
  184.6510  180.0770  143.8170 O   0  0  0  0  0  0  0  0  0  0  0  0
  183.4150  179.0570  145.4550 O   0  0  0  0  0  1  0  0  0  0  0  0
  183.5720  179.3050  144.2310 C   0  0  0  0  0  0  0  0  0  0  0  0
  1 17  1  0  0  0  0
  1  5  1  0  0  0  0
  2  5  2  0  0  0  0
  3 13  1  6  0  0  0
  3  4  1  0  0  0  0
  4 11  1  0  0  0  0
  5 14  1  0  0  0  0
  7  6  1  6  0  0  0
  7 19  1  0  0  0  0
  8 10  1  0  0  0  0
  8  9  2  0  0  0  0
  9  2  1  0  0  0  0
 10  1  2  0  0  0  0
 11 19  1  0  0  0  0
 14 16  1  0  0  0  0
 15 17  1  0  0  0  0
 15 13  1  0  0  0  0
 16  7  1  0  0  0  0
 17 12  1  6  0  0  0
 18 21  1  0  0  0  0
 18 12  2  0  0  0  0
 19 22  1  1  0  0  0
 20  3  1  0  0  0  0
 20  6  1  0  0  0  0
 21 15  2  0  0  0  0
 22 23  1  6  0  0  0
 22 26  1  0  0  0  0
 24 26  2  0  0  0  0
 26 25  1  0  0  0  0
M  END
>  <MODEL>
5

>  <REMARK>
 VINA RESULT:      -5.2      6.454      7.946
  Name = 
  2 active torsions:
  status: ('A' for Active; 'I' for Inactive)
    1  A    between atoms: C_1  and  C_12
    2  A    between atoms: C_1  and  C_23
                            x       y       z     vdW  Elec       q    Type
                         _______ _______ _______ _____ _____    ______ ____

>  <TORSDO>
F 2

$$$$
=
 OpenBabel10232407563D

 26 29  0  0  1  0  0  0  0  0999 V2000
  189.5970  174.9420  136.9690 C   0  0  0  0  0  0  0  0  0  0  0  0
  190.7950  176.8910  137.7750 C   0  0  0  0  0  3  0  0  0  0  0  0
  192.0770  173.7710  135.2840 N   0  0  2  0  0  0  0  0  0  0  0  0
  192.9230  172.5880  135.3430 C   0  0  0  0  0  2  0  0  0  0  0  0
  190.7320  175.5050  137.5820 C   0  0  0  0  0  0  0  0  0  0  0  0
  193.4130  175.7870  135.7250 C   0  0  0  0  0  2  0  0  0  0  0  0
  194.0410  175.1110  136.9580 C   0  0  1  0  0  3  0  0  0  0  0  0
  188.6510  177.1380  136.7600 N   0  0  0  0  0  0  0  0  0  0  0  0
  189.7340  177.6960  137.3580 C   0  0  0  0  0  3  0  0  0  0  0  0
  188.5640  175.7980  136.5520 C   0  0  0  0  0  3  0  0  0  0  0  0
  193.7220  172.5790  136.6400 C   0  0  0  0  0  2  0  0  0  0  0  0
  188.1810  172.8940  136.9050 C   0  0  0  0  0  3  0  0  0  0  0  0
  190.9590  173.4690  134.4070 C   0  0  0  0  0  2  0  0  0  0  0  0
  191.8250  174.6690  137.9820 N   0  0  0  0  0  2  0  0  0  0  0  0
  189.7240  173.1910  135.2110 C   0  0  0  0  0  0  0  0  0  0  0  0
  193.1680  175.1840  138.2210 C   0  0  0  0  0  2  0  0  0  0  0  0
  189.5440  173.4630  136.6730 C   0  0  1  0  0  3  0  0  0  0  0  0
  187.6910  172.4070  135.7740 C   0  0  0  0  0  3  0  0  0  0  0  0
  194.7130  173.7430  136.6920 C   0  0  2  0  0  3  0  0  0  0  0  0
  192.8630  174.8280  134.6640 C   0  0  0  0  0  2  0  0  0  0  0  0
  188.6630  172.5890  134.7040 C   0  0  0  0  0  3  0  0  0  0  0  0
  195.8610  173.4300  137.6560 C   0  0  2  0  0  3  0  0  0  0  0  0
  195.3980  172.8540  138.8420 O   0  0  0  0  0  1  0  0  0  0  0  0
  197.3460  175.3070  136.9230 O   0  0  0  0  0  0  0  0  0  0  0  0
  196.8050  175.0430  139.1340 O   0  0  0  0  0  1  0  0  0  0  0  0
  196.6840  174.6420  137.9480 C   0  0  0  0  0  0  0  0  0  0  0  0
  1  5  1  0  0  0  0
  3 13  1  6  0  0  0
  3  4  1  0  0  0  0
  4 11  1  0  0  0  0
  5  2  2  0  0  0  0
  5 14  1  0  0  0  0
  7  6  1  6  0  0  0
  7 16  1  0  0  0  0
  8  9  2  0  0  0  0
  9  2  1  0  0  0  0
 10  8  1  0  0  0  0
 10  1  2  0  0  0  0
 11 19  1  0  0  0  0
 13 15  1  0  0  0  0
 14 16  1  0  0  0  0
 15 17  1  0  0  0  0
 17 12  1  6  0  0  0
 17  1  1  0  0  0  0
 18 12  2  0  0  0  0
 19  7  1  0  0  0  0
 19 22  1  1  0  0  0
 20  3  1  0  0  0  0
 20  6  1  0  0  0  0
 21 15  2  0  0  0  0
 21 18  1  0  0  0  0
 22 26  1  0  0  0  0
 22 23  1  1  0  0  0
 24 26  2  0  0  0  0
 26 25  1  0  0  0  0
M  END
>  <MODEL>
6

>  <REMARK>
 VINA RESULT:      -5.1      6.211      7.991
  Name = 
  2 active torsions:
  status: ('A' for Active; 'I' for Inactive)
    1  A    between atoms: C_1  and  C_12
    2  A    between atoms: C_1  and  C_23
                            x       y       z     vdW  Elec       q    Type
                         _______ _______ _______ _____ _____    ______ ____

>  <TORSDO>
F 2

$$$$
=
 OpenBabel10232407563D

 26 29  0  0  1  0  0  0  0  0999 V2000
  190.7330  176.7380  140.5940 C   0  0  0  0  0  0  0  0  0  0  0  0
  192.2080  176.5450  138.6790 C   0  0  0  0  0  3  0  0  0  0  0  0
  188.2750  177.9780  138.9240 N   0  0  2  0  0  0  0  0  0  0  0  0
  186.9250  177.5610  138.5760 C   0  0  0  0  0  2  0  0  0  0  0  0
  190.9600  176.3140  139.2720 C   0  0  0  0  0  0  0  0  0  0  0  0
  189.6550  178.1510  136.8970 C   0  0  0  0  0  2  0  0  0  0  0  0
  189.1610  176.7680  136.4340 C   0  0  1  0  0  3  0  0  0  0  0  0
  192.9710  177.6030  140.6760 N   0  0  0  0  0  0  0  0  0  0  0  0
  193.2100  177.1910  139.4050 C   0  0  0  0  0  3  0  0  0  0  0  0
  191.7680  177.4000  141.2760 C   0  0  0  0  0  3  0  0  0  0  0  0
  186.9700  176.3150  137.7010 C   0  0  0  0  0  2  0  0  0  0  0  0
  189.4610  176.1960  142.6670 C   0  0  0  0  0  3  0  0  0  0  0  0
  188.1970  178.7320  140.1640 C   0  0  0  0  0  2  0  0  0  0  0  0
  189.9150  175.6740  138.5290 N   0  0  0  0  0  2  0  0  0  0  0  0
  188.6540  177.8910  141.3180 C   0  0  0  0  0  0  0  0  0  0  0  0
  189.9150  175.5910  137.0740 C   0  0  0  0  0  2  0  0  0  0  0  0
  189.3700  176.5780  141.2240 C   0  0  1  0  0  3  0  0  0  0  0  0
  188.9070  177.1340  143.4220 C   0  0  0  0  0  3  0  0  0  0  0  0
  187.6260  176.6070  136.3500 C   0  0  2  0  0  3  0  0  0  0  0  0
  188.7280  178.8800  137.8760 C   0  0  0  0  0  2  0  0  0  0  0  0
  188.3940  178.2030  142.5760 C   0  0  0  0  0  3  0  0  0  0  0  0
  187.1750  175.5850  135.3020 C   0  0  2  0  0  3  0  0  0  0  0  0
  188.1690  175.3530  134.3460 O   0  0  0  0  0  1  0  0  0  0  0  0
  185.6570  177.3320  134.3460 O   0  0  0  0  0  0  0  0  0  0  0  0
  185.0230  175.1300  134.3850 O   0  0  0  0  0  1  0  0  0  0  0  0
  185.8990  175.9960  134.6430 C   0  0  0  0  0  0  0  0  0  0  0  0
  1 17  1  0  0  0  0
  1 10  1  0  0  0  0
  2  5  1  0  0  0  0
  2  9  2  0  0  0  0
  3 20  1  6  0  0  0
  3 13  1  0  0  0  0
  4  3  1  0  0  0  0
  5  1  2  0  0  0  0
  6 20  1  0  0  0  0
  7  6  1  1  0  0  0
  7 16  1  0  0  0  0
  8 10  2  0  0  0  0
  9  8  1  0  0  0  0
 11  4  1  0  0  0  0
 12 18  2  0  0  0  0
 13 15  1  0  0  0  0
 14  5  1  0  0  0  0
 15 21  2  0  0  0  0
 16 14  1  0  0  0  0
 17 15  1  0  0  0  0
 17 12  1  1  0  0  0
 19 22  1  6  0  0  0
 19  7  1  0  0  0  0
 19 11  1  0  0  0  0
 21 18  1  0  0  0  0
 22 23  1  6  0  0  0
 24 26  2  0  0  0  0
 25 26  1  0  0  0  0
 26 22  1  0  0  0  0
M  END
>  <MODEL>
7

>  <REMARK>
 VINA RESULT:      -5.1      5.200      8.130
  Name = 
  2 active torsions:
  status: ('A' for Active; 'I' for Inactive)
    1  A    between atoms: C_1  and  C_12
    2  A    between atoms: C_1  and  C_23
                            x       y       z     vdW  Elec       q    Type
                         _______ _______ _______ _____ _____    ______ ____

>  <TORSDO>
F 2

$$$$
=
 OpenBabel10232407563D

 26 29  0  0  1  0  0  0  0  0999 V2000
  186.8850  175.3000  136.9580 C   0  0  0  0  0  0  0  0  0  0  0  0
  187.5970  177.5910  137.3160 C   0  0  0  0  0  3  0  0  0  0  0  0
  189.5890  174.4030  135.4570 N   0  0  2  0  0  0  0  0  0  0  0  0
  190.6810  173.4780  135.7240 C   0  0  0  0  0  2  0  0  0  0  0  0
  187.8540  176.2170  137.4060 C   0  0  0  0  0  0  0  0  0  0  0  0
  190.4240  176.7150  135.4410 C   0  0  0  0  0  2  0  0  0  0  0  0
  191.1740  176.4620  136.7620 C   0  0  1  0  0  3  0  0  0  0  0  0
  185.4660  177.1370  136.3450 N   0  0  0  0  0  0  0  0  0  0  0  0
  186.3860  178.0340  136.7820 C   0  0  0  0  0  3  0  0  0  0  0  0
  185.6900  175.7980  136.4130 C   0  0  0  0  0  3  0  0  0  0  0  0
  191.4450  173.9130  136.9680 C   0  0  0  0  0  2  0  0  0  0  0  0
  185.9740  173.0160  137.3520 C   0  0  0  0  0  3  0  0  0  0  0  0
  188.5800  173.6850  134.6970 C   0  0  0  0  0  2  0  0  0  0  0  0
  189.1040  175.7480  137.9280 N   0  0  0  0  0  2  0  0  0  0  0  0
  187.4310  173.3040  135.5820 C   0  0  0  0  0  0  0  0  0  0  0  0
  190.2910  176.5900  138.0140 C   0  0  0  0  0  2  0  0  0  0  0  0
  187.1750  173.8190  136.9650 C   0  0  1  0  0  3  0  0  0  0  0  0
  185.6220  172.2130  136.3580 C   0  0  0  0  0  3  0  0  0  0  0  0
  192.1430  175.2570  136.7530 C   0  0  2  0  0  3  0  0  0  0  0  0
  190.1210  175.4620  134.6120 C   0  0  0  0  0  2  0  0  0  0  0  0
  186.5410  172.3890  135.2410 C   0  0  0  0  0  3  0  0  0  0  0  0
  193.3200  175.4130  137.7200 C   0  0  2  0  0  3  0  0  0  0  0  0
  193.8260  176.7160  137.7140 O   0  0  0  0  0  1  0  0  0  0  0  0
  194.9310  173.6420  138.4510 O   0  0  0  0  0  1  0  0  0  0  0  0
  194.8690  174.3320  136.2670 O   0  0  0  0  0  0  0  0  0  0  0  0
  194.4050  174.4270  137.4330 C   0  0  0  0  0  0  0  0  0  0  0  0
  1 17  1  0  0  0  0
  1  5  1  0  0  0  0
  2  5  2  0  0  0  0
  3 20  1  6  0  0  0
  3  4  1  0  0  0  0
  4 11  1  0  0  0  0
  5 14  1  0  0  0  0
  7  6  1  6  0  0  0
  7 16  1  0  0  0  0
  8 10  1  0  0  0  0
  8  9  2  0  0  0  0
  9  2  1  0  0  0  0
 10  1  2  0  0  0  0
 13  3  1  0  0  0  0
 13 15  1  0  0  0  0
 14 16  1  0  0  0  0
 15 17  1  0  0  0  0
 17 12  1  6  0  0  0
 18 12  2  0  0  0  0
 19  7  1  0  0  0  0
 19 11  1  0  0  0  0
 19 22  1  1  0  0  0
 20  6  1  0  0  0  0
 21 15  2  0  0  0  0
 21 18  1  0  0  0  0
 22 23  1  6  0  0  0
 25 26  2  0  0  0  0
 26 22  1  0  0  0  0
 26 24  1  0  0  0  0
M  END
>  <MODEL>
8

>  <REMARK>
 VINA RESULT:      -5.1      6.088      7.731
  Name = 
  2 active torsions:
  status: ('A' for Active; 'I' for Inactive)
    1  A    between atoms: C_1  and  C_12
    2  A    between atoms: C_1  and  C_23
                            x       y       z     vdW  Elec       q    Type
                         _______ _______ _______ _____ _____    ______ ____

>  <TORSDO>
F 2

$$$$
=
 OpenBabel10232407563D

 26 29  0  0  1  0  0  0  0  0999 V2000
  191.0080  175.6880  137.8830 C   0  0  0  0  0  0  0  0  0  0  0  0
  191.8380  174.1550  136.1990 C   0  0  0  0  0  3  0  0  0  0  0  0
  188.0860  175.9900  136.5660 N   0  0  2  0  0  0  0  0  0  0  0  0
  186.7220  175.6480  136.9450 C   0  0  0  0  0  2  0  0  0  0  0  0
  190.8470  174.5180  137.1190 C   0  0  0  0  0  0  0  0  0  0  0  0
  188.7680  174.6860  134.5970 C   0  0  0  0  0  2  0  0  0  0  0  0
  188.2440  173.3980  135.2580 C   0  0  1  0  0  3  0  0  0  0  0  0
  193.1060  176.0870  136.7870 N   0  0  0  0  0  0  0  0  0  0  0  0
  192.9710  174.9560  136.0490 C   0  0  0  0  0  3  0  0  0  0  0  0
  192.1580  176.4700  137.6830 C   0  0  0  0  0  3  0  0  0  0  0  0
  186.5760  174.1370  137.0700 C   0  0  0  0  0  2  0  0  0  0  0  0
  190.4650  176.7170  140.0870 C   0  0  0  0  0  3  0  0  0  0  0  0
  188.3420  177.3450  137.0220 C   0  0  0  0  0  2  0  0  0  0  0  0
  189.6670  173.7180  137.2650 N   0  0  0  0  0  2  0  0  0  0  0  0
  189.1810  177.3280  138.2660 C   0  0  0  0  0  0  0  0  0  0  0  0
  189.2290  172.7630  136.2530 C   0  0  0  0  0  2  0  0  0  0  0  0
  189.9150  176.1460  138.8190 C   0  0  1  0  0  3  0  0  0  0  0  0
  190.1110  177.9880  140.2060 C   0  0  0  0  0  3  0  0  0  0  0  0
  186.7690  173.4440  135.7200 C   0  0  2  0  0  3  0  0  0  0  0  0
  188.1400  175.9860  135.1120 C   0  0  0  0  0  2  0  0  0  0  0  0
  189.2980  178.3770  139.0610 C   0  0  0  0  0  3  0  0  0  0  0  0
  186.0850  172.0740  135.7160 C   0  0  2  0  0  3  0  0  0  0  0  0
  186.3320  171.3760  134.5310 O   0  0  0  0  0  1  0  0  0  0  0  0
  183.8200  172.9600  135.1220 O   0  0  0  0  0  0  0  0  0  0  0  0
  184.1010  171.6100  136.9530 O   0  0  0  0  0  1  0  0  0  0  0  0
  184.6160  172.1890  135.9610 C   0  0  0  0  0  0  0  0  0  0  0  0
  1 17  1  0  0  0  0
  2  5  1  0  0  0  0
  3 20  1  6  0  0  0
  3  4  1  0  0  0  0
  3 13  1  0  0  0  0
  4 11  1  0  0  0  0
  5 14  1  0  0  0  0
  5  1  2  0  0  0  0
  6 20  1  0  0  0  0
  7  6  1  1  0  0  0
  7 19  1  0  0  0  0
  7 16  1  0  0  0  0
  8 10  2  0  0  0  0
  9  2  2  0  0  0  0
  9  8  1  0  0  0  0
 10  1  1  0  0  0  0
 12 18  2  0  0  0  0
 13 15  1  0  0  0  0
 15 17  1  0  0  0  0
 15 21  2  0  0  0  0
 16 14  1  0  0  0  0
 17 12  1  1  0  0  0
 19 22  1  1  0  0  0
 19 11  1  0  0  0  0
 21 18  1  0  0  0  0
 22 23  1  6  0  0  0
 22 26  1  0  0  0  0
 24 26  2  0  0  0  0
 26 25  1  0  0  0  0
M  END
>  <MODEL>
9

>  <REMARK>
 VINA RESULT:      -5.0      6.102      9.038
  Name = 
  2 active torsions:
  status: ('A' for Active; 'I' for Inactive)
    1  A    between atoms: C_1  and  C_12
    2  A    between atoms: C_1  and  C_23
                            x       y       z     vdW  Elec       q    Type
                         _______ _______ _______ _____ _____    ______ ____

>  <TORSDO>
F 2

$$$$
