=
 OpenBabel10222422133D

 58 65  0  0  1  0  0  0  0  0999 V2000
  187.6910  178.0120  139.3920 C   0  0  0  0  0  0  0  0  0  0  0  0
  189.8090  176.2240  137.9260 C   0  0  0  0  0  0  0  0  0  0  0  0
  188.7260  176.8280  137.3960 C   0  0  0  0  0  0  0  0  0  0  0  0
  189.6890  176.8510  140.3950 C   0  0  0  0  0  0  0  0  0  0  0  0
  187.7010  177.5630  138.1420 C   0  0  0  0  0  3  0  0  0  0  0  0
  190.1490  176.1660  139.3530 C   0  0  0  0  0  3  0  0  0  0  0  0
  188.7160  177.8530  140.3250 O   0  0  0  0  0  0  0  0  0  0  0  0
  188.7650  172.4520  136.0590 C   0  0  0  0  0  3  0  0  0  0  0  0
  190.3630  174.2290  136.4540 C   0  0  0  0  0  0  0  0  0  0  0  0
  189.0800  173.6910  136.6140 C   0  0  0  0  0  3  0  0  0  0  0  0
  192.6370  173.9870  135.5460 C   0  0  0  0  0  0  0  0  0  0  0  0
  194.1990  175.9470  136.1820 C   0  0  1  0  0  3  0  0  0  0  0  0
  195.2950  174.9300  136.4220 C   0  0  0  0  0  2  0  0  0  0  0  0
  192.0400  175.9020  136.8560 C   0  0  0  0  0  0  0  0  0  0  0  0
  191.3280  173.4820  135.7110 C   0  0  0  0  0  0  0  0  0  0  0  0
  192.9140  175.2350  136.0920 C   0  0  0  0  0  0  0  0  0  0  0  0
  189.7390  171.7490  135.3500 C   0  0  0  0  0  3  0  0  0  0  0  0
  192.7240  176.9490  137.5010 N   0  0  0  0  0  2  0  0  0  0  0  0
  190.7310  175.4600  137.0580 C   0  0  0  0  0  0  0  0  0  0  0  0
  190.9860  172.2700  135.1940 N   0  0  0  0  0  0  0  0  0  0  0  0
  193.9670  172.9660  134.8600 S   0  0  0  0  0  0  0  0  0  0  0  0
  194.0710  176.8730  137.2610 O   0  0  0  0  0  0  0  0  0  0  0  0
  195.4240  174.0650  135.1700 C   0  0  2  0  0  3  0  0  0  0  0  0
  196.6970  173.2380  135.2570 C   0  0  0  0  0  2  0  0  0  0  0  0
  197.9020  174.0200  134.7610 C   0  0  0  0  0  2  0  0  0  0  0  0
  198.1100  175.1980  135.5880 N   0  0  0  0  0  1  0  0  0  0  0  0
  190.2700  176.5500  141.6320 O   0  0  0  0  0  0  0  0  0  0  0  0
  191.8560  177.8040  142.9860 O   0  0  0  0  0  0  0  0  0  0  0  0
  189.5990  178.0620  143.2180 O   0  0  0  0  0  1  0  0  0  0  0  0
  190.5510  177.4850  142.6330 C   0  0  0  0  0  0  0  0  0  0  0  0
  188.4610  176.7510  135.9160 C   0  0  0  0  0  2  0  0  0  0  0  0
  187.0080  176.5500  135.6220 C   0  0  0  0  0  0  0  0  0  0  0  0
  186.4330  175.3820  135.9450 C   0  0  0  0  0  3  0  0  0  0  0  0
  182.6010  172.8890  134.7160 O   0  0  0  0  0  0  0  0  0  0  0  0
  182.7820  174.8650  135.9490 O   0  0  0  0  0  0  0  0  0  0  0  0
  185.0510  175.0520  135.7390 N   0  0  0  0  0  0  0  0  0  0  0  0
  184.6600  173.9070  135.0940 O   0  0  0  0  0  0  0  0  0  0  0  0
  183.2960  173.8110  135.2150 C   0  0  0  0  0  0  0  0  0  0  0  0
  183.8770  175.6980  136.3340 C   0  0  0  0  0  2  0  0  0  0  0  0
  185.7600  178.4390  134.3470 N   0  0  0  0  0  0  0  0  0  0  0  0
  186.3130  177.5950  134.9140 C   0  0  0  0  0  0  0  0  0  0  0  0
  186.2510  178.9380  139.9090 S   0  0  0  0  0  0  0  0  0  0  0  0
  186.2860  178.2400  141.5890 C   0  0  0  0  0  2  0  0  0  0  0  0
  184.8960  178.2780  142.1990 C   0  0  0  0  0  2  0  0  0  0  0  0
  185.2240  178.4900  147.8320 F   0  0  0  0  0  0  0  0  0  0  0  0
  184.9900  178.3300  143.6850 C   0  0  0  0  0  0  0  0  0  0  0  0
  183.9600  178.6970  145.8430 C   0  0  0  0  0  3  0  0  0  0  0  0
  186.3190  178.1090  145.7090 C   0  0  0  0  0  0  0  0  0  0  0  0
  185.1760  178.4280  146.4780 C   0  0  0  0  0  0  0  0  0  0  0  0
  186.2080  178.0640  144.3140 C   0  0  0  0  0  3  0  0  0  0  0  0
  183.8650  178.6490  144.4510 C   0  0  0  0  0  3  0  0  0  0  0  0
  187.5740  177.8410  146.2700 O   0  0  0  0  0  0  0  0  0  0  0  0
  187.8890  178.0160  147.6460 C   0  0  0  0  0  2  0  0  0  0  0  0
  189.2990  177.5220  147.9170 C   0  0  0  0  0  2  0  0  0  0  0  0
  189.9470  177.0310  146.6310 C   0  0  0  0  0  2  0  0  0  0  0  0
  191.3920  177.1640  146.7180 N   0  0  0  0  0  0  0  0  0  0  0  0
  191.8750  175.9890  147.4610 C   0  0  0  0  0  2  0  0  0  0  0  0
  191.9710  176.0120  146.0080 C   0  0  0  0  0  2  0  0  0  0  0  0
  1 42  1  0  0  0  0
  1  7  1  0  0  0  0
  2  6  1  0  0  0  0
  3  2  2  0  0  0  0
  3  5  1  0  0  0  0
  4 27  1  0  0  0  0
  5  1  2  0  0  0  0
  6  4  2  0  0  0  0
  7  4  1  0  0  0  0
  8 10  1  0  0  0  0
  9 10  2  0  0  0  0
  9 19  1  0  0  0  0
 11 15  1  0  0  0  0
 11 16  2  0  0  0  0
 12 13  1  1  0  0  0
 12 22  1  0  0  0  0
 14 19  2  0  0  0  0
 14 18  1  0  0  0  0
 15  9  1  0  0  0  0
 16 12  1  0  0  0  0
 16 14  1  0  0  0  0
 17  8  2  0  0  0  0
 19  2  1  0  0  0  0
 20 17  1  0  0  0  0
 20 15  2  0  0  0  0
 21 23  1  0  0  0  0
 21 11  1  0  0  0  0
 22 18  1  0  0  0  0
 23 24  1  1  0  0  0
 23 13  1  0  0  0  0
 25 24  1  0  0  0  0
 25 26  1  0  0  0  0
 27 30  1  0  0  0  0
 30 28  2  0  0  0  0
 30 29  1  0  0  0  0
 31  3  1  0  0  0  0
 32 31  1  0  0  0  0
 32 33  2  0  0  0  0
 34 38  2  0  0  0  0
 35 39  1  0  0  0  0
 36 33  1  0  0  0  0
 36 39  1  0  0  0  0
 37 38  1  0  0  0  0
 37 36  1  0  0  0  0
 38 35  1  0  0  0  0
 40 41  3  0  0  0  0
 41 32  1  0  0  0  0
 42 43  1  0  0  0  0
 43 44  1  0  0  0  0
 44 46  1  0  0  0  0
 46 50  2  0  0  0  0
 46 51  1  0  0  0  0
 47 49  1  0  0  0  0
 48 52  1  0  0  0  0
 48 49  2  0  0  0  0
 49 45  1  0  0  0  0
 50 48  1  0  0  0  0
 51 47  2  0  0  0  0
 52 53  1  0  0  0  0
 53 54  1  0  0  0  0
 55 56  1  0  0  0  0
 55 54  1  0  0  0  0
 56 57  1  0  0  0  0
 58 56  1  0  0  0  0
 58 57  1  0  0  0  0
M  END
>  <MODEL>
1

>  <REMARK>
 VINA RESULT:      -7.2      0.000      0.000
  Name = 
  18 active torsions:
  status: ('A' for Active; 'I' for Inactive)
    1  A    between atoms: C_2  and  C_26
    2  A    between atoms: C_2  and  O_36
    3  A    between atoms: N_3  and  C_8
    4  A    between atoms: C_7  and  S_31
    5  A    between atoms: C_8  and  C_26
    6  A    between atoms: C_10  and  C_32
    7  A    between atoms: C_10  and  C_37
    8  A    between atoms: C_11  and  C_54
    9  A    between atoms: C_13  and  N_44
   10  A    between atoms: C_19  and  C_29
   11  A    between atoms: C_22  and  C_29
   12  A    between atoms: C_22  and  S_31
   13  A    between atoms: C_23  and  O_47
   14  A    between atoms: C_27  and  C_43
   15  A    between atoms: C_32  and  C_35
   16  A    between atoms: C_33  and  O_36
   17  A    between atoms: C_38  and  O_47
   18  A    between atoms: C_54  and  C_58
                            x       y       z     vdW  Elec       q    Type
                         _______ _______ _______ _____ _____    ______ ____

>  <TORSDO>
F 18

$$$$
=
 OpenBabel10222422133D

 58 65  0  0  1  0  0  0  0  0999 V2000
  187.0550  178.3860  140.2170 C   0  0  0  0  0  0  0  0  0  0  0  0
  189.3760  176.9340  138.6880 C   0  0  0  0  0  0  0  0  0  0  0  0
  189.1760  177.0010  140.0200 C   0  0  0  0  0  0  0  0  0  0  0  0
  187.4470  178.3010  137.7310 C   0  0  0  0  0  0  0  0  0  0  0  0
  188.1390  177.7850  140.6950 C   0  0  0  0  0  3  0  0  0  0  0  0
  188.6080  177.6570  137.6660 C   0  0  0  0  0  3  0  0  0  0  0  0
  186.6580  178.4120  138.8800 O   0  0  0  0  0  0  0  0  0  0  0  0
  188.8690  173.4060  136.2190 C   0  0  0  0  0  3  0  0  0  0  0  0
  190.3130  174.9990  137.3350 C   0  0  0  0  0  0  0  0  0  0  0  0
  189.0310  174.5710  136.9660 C   0  0  0  0  0  3  0  0  0  0  0  0
  192.7420  174.6110  137.2960 C   0  0  0  0  0  0  0  0  0  0  0  0
  194.0740  176.3740  138.6400 C   0  0  1  0  0  3  0  0  0  0  0  0
  194.9400  175.2470  139.1630 C   0  0  0  0  0  2  0  0  0  0  0  0
  191.8210  176.4820  138.4760 C   0  0  0  0  0  0  0  0  0  0  0  0
  191.4370  174.2180  136.9260 C   0  0  0  0  0  0  0  0  0  0  0  0
  192.8720  175.7900  138.0220 C   0  0  0  0  0  0  0  0  0  0  0  0
  189.9920  172.6650  135.8480 C   0  0  0  0  0  3  0  0  0  0  0  0
  192.2800  177.4160  139.4230 N   0  0  0  0  0  2  0  0  0  0  0  0
  190.5050  176.1490  138.1460 C   0  0  0  0  0  0  0  0  0  0  0  0
  191.2370  173.0790  136.2060 N   0  0  0  0  0  0  0  0  0  0  0  0
  194.1670  173.5210  137.0450 S   0  0  0  0  0  0  0  0  0  0  0  0
  193.6130  177.2340  139.6820 O   0  0  0  0  0  0  0  0  0  0  0  0
  195.4700  174.4600  137.9670 C   0  0  2  0  0  3  0  0  0  0  0  0
  196.5680  173.5150  138.4310 C   0  0  0  0  0  2  0  0  0  0  0  0
  197.5220  173.1750  137.2970 C   0  0  0  0  0  2  0  0  0  0  0  0
  198.8810  173.5460  137.6570 N   0  0  0  0  0  1  0  0  0  0  0  0
  186.9890  178.8610  136.5330 O   0  0  0  0  0  0  0  0  0  0  0  0
  188.2890  177.6080  134.9020 O   0  0  0  0  0  1  0  0  0  0  0  0
  186.1740  178.3430  134.4540 O   0  0  0  0  0  0  0  0  0  0  0  0
  187.1280  178.2760  135.2700 C   0  0  0  0  0  0  0  0  0  0  0  0
  190.0850  176.2570  140.9620 C   0  0  0  0  0  2  0  0  0  0  0  0
  189.9490  176.7510  142.3690 C   0  0  0  0  0  0  0  0  0  0  0  0
  188.9040  176.3450  143.1030 C   0  0  0  0  0  3  0  0  0  0  0  0
  189.7120  177.2500  147.6800 O   0  0  0  0  0  0  0  0  0  0  0  0
  187.8470  177.7250  146.3560 O   0  0  0  0  0  0  0  0  0  0  0  0
  188.6520  176.7200  144.4660 N   0  0  0  0  0  0  0  0  0  0  0  0
  189.6050  176.6030  145.4460 O   0  0  0  0  0  0  0  0  0  0  0  0
  189.1070  177.1980  146.5790 C   0  0  0  0  0  0  0  0  0  0  0  0
  187.5030  177.4620  144.9940 C   0  0  0  0  0  2  0  0  0  0  0  0
  191.6740  178.4980  143.2200 N   0  0  0  0  0  0  0  0  0  0  0  0
  190.9060  177.7210  142.8370 C   0  0  0  0  0  0  0  0  0  0  0  0
  185.9890  179.1980  141.4020 S   0  0  0  0  0  0  0  0  0  0  0  0
  184.5480  179.1390  140.2930 C   0  0  0  0  0  2  0  0  0  0  0  0
  183.5120  178.1710  140.8360 C   0  0  0  0  0  2  0  0  0  0  0  0
  181.8520  174.5910  136.7980 F   0  0  0  0  0  0  0  0  0  0  0  0
  183.0800  177.2310  139.7650 C   0  0  0  0  0  0  0  0  0  0  0  0
  181.5120  175.5960  138.9120 C   0  0  0  0  0  3  0  0  0  0  0  0
  183.4580  176.2180  137.5870 C   0  0  0  0  0  0  0  0  0  0  0  0
  182.2750  175.4620  137.7480 C   0  0  0  0  0  0  0  0  0  0  0  0
  183.8460  177.0970  138.6050 C   0  0  0  0  0  3  0  0  0  0  0  0
  181.9120  176.4760  139.9190 C   0  0  0  0  0  3  0  0  0  0  0  0
  184.2810  176.1280  136.4570 O   0  0  0  0  0  0  0  0  0  0  0  0
  185.4170  175.2790  136.3610 C   0  0  0  0  0  2  0  0  0  0  0  0
  185.0950  174.0900  135.4730 C   0  0  0  0  0  2  0  0  0  0  0  0
  184.8570  172.8460  136.3160 C   0  0  0  0  0  2  0  0  0  0  0  0
  183.6660  172.1510  135.8550 N   0  0  0  0  0  0  0  0  0  0  0  0
  183.9650  170.7140  135.9350 C   0  0  0  0  0  2  0  0  0  0  0  0
  183.1780  171.3450  136.9850 C   0  0  0  0  0  2  0  0  0  0  0  0
  1  5  2  0  0  0  0
  1 42  1  0  0  0  0
  2  3  2  0  0  0  0
  3  5  1  0  0  0  0
  3 31  1  0  0  0  0
  4  7  1  0  0  0  0
  6  4  2  0  0  0  0
  6  2  1  0  0  0  0
  7  1  1  0  0  0  0
  8 10  1  0  0  0  0
  9 19  1  0  0  0  0
 10  9  2  0  0  0  0
 11 16  2  0  0  0  0
 12 13  1  1  0  0  0
 12 22  1  0  0  0  0
 14 18  1  0  0  0  0
 15 11  1  0  0  0  0
 15  9  1  0  0  0  0
 16 14  1  0  0  0  0
 16 12  1  0  0  0  0
 17 20  1  0  0  0  0
 17  8  2  0  0  0  0
 18 22  1  0  0  0  0
 19 14  2  0  0  0  0
 19  2  1  0  0  0  0
 20 15  2  0  0  0  0
 21 11  1  0  0  0  0
 21 23  1  0  0  0  0
 23 24  1  1  0  0  0
 23 13  1  0  0  0  0
 25 26  1  0  0  0  0
 25 24  1  0  0  0  0
 27  4  1  0  0  0  0
 28 30  1  0  0  0  0
 29 30  2  0  0  0  0
 30 27  1  0  0  0  0
 31 32  1  0  0  0  0
 32 41  1  0  0  0  0
 32 33  2  0  0  0  0
 33 36  1  0  0  0  0
 35 38  1  0  0  0  0
 36 39  1  0  0  0  0
 36 37  1  0  0  0  0
 37 38  1  0  0  0  0
 38 34  2  0  0  0  0
 39 35  1  0  0  0  0
 41 40  3  0  0  0  0
 43 44  1  0  0  0  0
 43 42  1  0  0  0  0
 45 49  1  0  0  0  0
 46 51  1  0  0  0  0
 46 44  1  0  0  0  0
 47 51  2  0  0  0  0
 48 49  2  0  0  0  0
 48 50  1  0  0  0  0
 49 47  1  0  0  0  0
 50 46  2  0  0  0  0
 52 48  1  0  0  0  0
 53 52  1  0  0  0  0
 54 55  1  0  0  0  0
 54 53  1  0  0  0  0
 56 57  1  0  0  0  0
 56 55  1  0  0  0  0
 56 58  1  0  0  0  0
 57 58  1  0  0  0  0
M  END
>  <MODEL>
2

>  <REMARK>
 VINA RESULT:      -6.8      2.810      7.534
  Name = 
  18 active torsions:
  status: ('A' for Active; 'I' for Inactive)
    1  A    between atoms: C_2  and  C_26
    2  A    between atoms: C_2  and  O_36
    3  A    between atoms: N_3  and  C_8
    4  A    between atoms: C_7  and  S_31
    5  A    between atoms: C_8  and  C_26
    6  A    between atoms: C_10  and  C_32
    7  A    between atoms: C_10  and  C_37
    8  A    between atoms: C_11  and  C_54
    9  A    between atoms: C_13  and  N_44
   10  A    between atoms: C_19  and  C_29
   11  A    between atoms: C_22  and  C_29
   12  A    between atoms: C_22  and  S_31
   13  A    between atoms: C_23  and  O_47
   14  A    between atoms: C_27  and  C_43
   15  A    between atoms: C_32  and  C_35
   16  A    between atoms: C_33  and  O_36
   17  A    between atoms: C_38  and  O_47
   18  A    between atoms: C_54  and  C_58
                            x       y       z     vdW  Elec       q    Type
                         _______ _______ _______ _____ _____    ______ ____

>  <TORSDO>
F 18

$$$$
=
 OpenBabel10222422133D

 58 65  0  0  1  0  0  0  0  0999 V2000
  186.9580  178.2470  139.6750 C   0  0  0  0  0  0  0  0  0  0  0  0
  188.4740  176.3400  137.7010 C   0  0  0  0  0  0  0  0  0  0  0  0
  188.8460  176.7110  138.9420 C   0  0  0  0  0  0  0  0  0  0  0  0
  186.2800  177.5900  137.3400 C   0  0  0  0  0  0  0  0  0  0  0  0
  188.1610  177.6930  139.7860 C   0  0  0  0  0  3  0  0  0  0  0  0
  187.3280  176.8700  136.9510 C   0  0  0  0  0  3  0  0  0  0  0  0
  186.0400  178.0040  138.6540 O   0  0  0  0  0  0  0  0  0  0  0  0
  187.1030  172.3860  136.5620 C   0  0  0  0  0  3  0  0  0  0  0  0
  188.8240  174.0920  136.5710 C   0  0  0  0  0  0  0  0  0  0  0  0
  187.5220  173.6770  136.8800 C   0  0  0  0  0  3  0  0  0  0  0  0
  191.0240  173.5450  135.6130 C   0  0  0  0  0  0  0  0  0  0  0  0
  192.7330  175.4740  135.8300 C   0  0  1  0  0  3  0  0  0  0  0  0
  193.7790  174.4400  136.1910 C   0  0  0  0  0  2  0  0  0  0  0  0
  190.6180  175.6900  136.6000 C   0  0  0  0  0  0  0  0  0  0  0  0
  189.7000  173.1660  135.9240 C   0  0  0  0  0  0  0  0  0  0  0  0
  191.4050  174.8460  135.9230 C   0  0  0  0  0  0  0  0  0  0  0  0
  187.9930  171.5090  135.9400 C   0  0  0  0  0  3  0  0  0  0  0  0
  191.3980  176.7820  137.0230 N   0  0  0  0  0  2  0  0  0  0  0  0
  189.2980  175.3790  136.9360 C   0  0  0  0  0  0  0  0  0  0  0  0
  189.2570  171.9100  135.6400 N   0  0  0  0  0  0  0  0  0  0  0  0
  192.2500  172.3350  135.0530 S   0  0  0  0  0  0  0  0  0  0  0  0
  192.7220  176.5760  136.7370 O   0  0  0  0  0  0  0  0  0  0  0  0
  193.7850  173.3690  135.1020 C   0  0  2  0  0  3  0  0  0  0  0  0
  195.0090  172.4840  135.2710 C   0  0  0  0  0  2  0  0  0  0  0  0
  195.5440  172.5440  136.6930 C   0  0  0  0  0  2  0  0  0  0  0  0
  196.9710  172.2640  136.7030 N   0  0  0  0  0  1  0  0  0  0  0  0
  185.3480  177.9020  136.3440 O   0  0  0  0  0  0  0  0  0  0  0  0
  183.2530  176.8930  137.0630 O   0  0  0  0  0  1  0  0  0  0  0  0
  183.9820  176.7580  134.9020 O   0  0  0  0  0  0  0  0  0  0  0  0
  184.1890  177.1670  136.0730 C   0  0  0  0  0  0  0  0  0  0  0  0
  190.0870  176.1340  139.5680 C   0  0  0  0  0  2  0  0  0  0  0  0
  190.2720  176.6100  140.9740 C   0  0  0  0  0  0  0  0  0  0  0  0
  191.2850  177.4440  141.2520 C   0  0  0  0  0  3  0  0  0  0  0  0
  191.2570  180.4610  144.9010 O   0  0  0  0  0  0  0  0  0  0  0  0
  192.0150  178.2550  144.7750 O   0  0  0  0  0  0  0  0  0  0  0  0
  191.5760  177.9940  142.5460 N   0  0  0  0  0  0  0  0  0  0  0  0
  191.1860  179.2580  142.9090 O   0  0  0  0  0  0  0  0  0  0  0  0
  191.4650  179.4090  144.2440 C   0  0  0  0  0  0  0  0  0  0  0  0
  192.0960  177.2910  143.7230 C   0  0  0  0  0  2  0  0  0  0  0  0
  188.7020  175.6430  142.8050 N   0  0  0  0  0  0  0  0  0  0  0  0
  189.4020  176.0700  141.9890 C   0  0  0  0  0  0  0  0  0  0  0  0
  186.4590  179.3700  140.9740 S   0  0  0  0  0  0  0  0  0  0  0  0
  184.6910  179.0100  140.7390 C   0  0  0  0  0  2  0  0  0  0  0  0
  184.2420  177.9430  141.7200 C   0  0  0  0  0  2  0  0  0  0  0  0
  186.0440  179.2220  146.9150 F   0  0  0  0  0  0  0  0  0  0  0  0
  184.7220  178.2730  143.0910 C   0  0  0  0  0  0  0  0  0  0  0  0
  184.5540  179.5880  145.1150 C   0  0  0  0  0  3  0  0  0  0  0  0
  186.2690  177.8700  144.9220 C   0  0  0  0  0  0  0  0  0  0  0  0
  185.6320  178.8890  145.6670 C   0  0  0  0  0  0  0  0  0  0  0  0
  185.8020  177.5750  143.6360 C   0  0  0  0  0  3  0  0  0  0  0  0
  184.0990  179.2830  143.8310 C   0  0  0  0  0  3  0  0  0  0  0  0
  187.3630  177.1370  145.4000 O   0  0  0  0  0  0  0  0  0  0  0  0
  188.5230  177.7180  145.9810 C   0  0  0  0  0  2  0  0  0  0  0  0
  189.0380  176.8290  147.0990 C   0  0  0  0  0  2  0  0  0  0  0  0
  190.5460  176.9720  147.2420 C   0  0  0  0  0  2  0  0  0  0  0  0
  191.1300  175.7080  147.6600 N   0  0  0  0  0  0  0  0  0  0  0  0
  192.2420  175.4370  146.7360 C   0  0  0  0  0  2  0  0  0  0  0  0
  192.5210  175.9910  148.0540 C   0  0  0  0  0  2  0  0  0  0  0  0
  1  5  2  0  0  0  0
  1 42  1  0  0  0  0
  2  3  2  0  0  0  0
  3 31  1  0  0  0  0
  3  5  1  0  0  0  0
  4  7  1  0  0  0  0
  6  4  2  0  0  0  0
  6  2  1  0  0  0  0
  7  1  1  0  0  0  0
  8 10  1  0  0  0  0
  9 10  2  0  0  0  0
  9 19  1  0  0  0  0
 11 16  2  0  0  0  0
 11 15  1  0  0  0  0
 12 16  1  0  0  0  0
 12 13  1  1  0  0  0
 12 22  1  0  0  0  0
 14 19  2  0  0  0  0
 14 18  1  0  0  0  0
 15  9  1  0  0  0  0
 16 14  1  0  0  0  0
 17  8  2  0  0  0  0
 19  2  1  0  0  0  0
 20 15  2  0  0  0  0
 20 17  1  0  0  0  0
 21 23  1  0  0  0  0
 21 11  1  0  0  0  0
 22 18  1  0  0  0  0
 23 24  1  1  0  0  0
 23 13  1  0  0  0  0
 24 25  1  0  0  0  0
 25 26  1  0  0  0  0
 27  4  1  0  0  0  0
 29 30  2  0  0  0  0
 30 27  1  0  0  0  0
 30 28  1  0  0  0  0
 31 32  1  0  0  0  0
 32 33  2  0  0  0  0
 32 41  1  0  0  0  0
 33 36  1  0  0  0  0
 36 37  1  0  0  0  0
 36 39  1  0  0  0  0
 37 38  1  0  0  0  0
 38 35  1  0  0  0  0
 38 34  2  0  0  0  0
 39 35  1  0  0  0  0
 41 40  3  0  0  0  0
 43 42  1  0  0  0  0
 43 44  1  0  0  0  0
 44 46  1  0  0  0  0
 46 50  2  0  0  0  0
 46 51  1  0  0  0  0
 47 49  1  0  0  0  0
 48 52  1  0  0  0  0
 48 49  2  0  0  0  0
 49 45  1  0  0  0  0
 50 48  1  0  0  0  0
 51 47  2  0  0  0  0
 52 53  1  0  0  0  0
 53 54  1  0  0  0  0
 54 55  1  0  0  0  0
 55 56  1  0  0  0  0
 56 58  1  0  0  0  0
 57 56  1  0  0  0  0
 57 58  1  0  0  0  0
M  END
>  <MODEL>
3

>  <REMARK>
 VINA RESULT:      -5.8      2.043      5.426
  Name = 
  18 active torsions:
  status: ('A' for Active; 'I' for Inactive)
    1  A    between atoms: C_2  and  C_26
    2  A    between atoms: C_2  and  O_36
    3  A    between atoms: N_3  and  C_8
    4  A    between atoms: C_7  and  S_31
    5  A    between atoms: C_8  and  C_26
    6  A    between atoms: C_10  and  C_32
    7  A    between atoms: C_10  and  C_37
    8  A    between atoms: C_11  and  C_54
    9  A    between atoms: C_13  and  N_44
   10  A    between atoms: C_19  and  C_29
   11  A    between atoms: C_22  and  C_29
   12  A    between atoms: C_22  and  S_31
   13  A    between atoms: C_23  and  O_47
   14  A    between atoms: C_27  and  C_43
   15  A    between atoms: C_32  and  C_35
   16  A    between atoms: C_33  and  O_36
   17  A    between atoms: C_38  and  O_47
   18  A    between atoms: C_54  and  C_58
                            x       y       z     vdW  Elec       q    Type
                         _______ _______ _______ _____ _____    ______ ____

>  <TORSDO>
F 18

$$$$
=
 OpenBabel10222422133D

 58 65  0  0  1  0  0  0  0  0999 V2000
  188.1100  177.3630  138.2110 C   0  0  0  0  0  0  0  0  0  0  0  0
  190.2470  175.8640  136.4730 C   0  0  0  0  0  0  0  0  0  0  0  0
  190.2440  176.0420  137.8100 C   0  0  0  0  0  0  0  0  0  0  0  0
  188.1350  177.0720  135.7090 C   0  0  0  0  0  0  0  0  0  0  0  0
  189.2810  176.8450  138.5680 C   0  0  0  0  0  3  0  0  0  0  0  0
  189.3030  176.4670  135.5230 C   0  0  0  0  0  3  0  0  0  0  0  0
  187.5200  177.2570  136.9520 O   0  0  0  0  0  0  0  0  0  0  0  0
  189.7020  171.8100  135.0360 C   0  0  0  0  0  3  0  0  0  0  0  0
  191.1150  173.7500  135.3660 C   0  0  0  0  0  0  0  0  0  0  0  0
  189.8610  173.1320  135.4480 C   0  0  0  0  0  3  0  0  0  0  0  0
  193.4970  173.5820  134.7720 C   0  0  0  0  0  0  0  0  0  0  0  0
  194.8310  175.7310  135.3100 C   0  0  1  0  0  3  0  0  0  0  0  0
  195.9540  174.8480  135.8140 C   0  0  0  0  0  2  0  0  0  0  0  0
  192.6130  175.5940  135.7260 C   0  0  0  0  0  0  0  0  0  0  0  0
  192.2150  172.9960  134.8510 C   0  0  0  0  0  0  0  0  0  0  0  0
  193.6180  174.9090  135.1690 C   0  0  0  0  0  0  0  0  0  0  0  0
  190.8030  171.1050  134.5500 C   0  0  0  0  0  3  0  0  0  0  0  0
  193.1380  176.7680  136.2960 N   0  0  0  0  0  2  0  0  0  0  0  0
  191.3210  175.0750  135.8330 C   0  0  0  0  0  0  0  0  0  0  0  0
  192.0220  171.7030  134.4700 N   0  0  0  0  0  0  0  0  0  0  0  0
  194.9680  172.5950  134.3930 S   0  0  0  0  0  0  0  0  0  0  0  0
  194.5070  176.7740  136.2280 O   0  0  0  0  0  0  0  0  0  0  0  0
  196.2980  173.8420  134.7170 C   0  0  2  0  0  3  0  0  0  0  0  0
  197.6010  173.1410  135.0650 C   0  0  0  0  0  2  0  0  0  0  0  0
  198.2030  173.6960  136.3470 C   0  0  0  0  0  2  0  0  0  0  0  0
  198.2010  172.6760  137.3830 N   0  0  0  0  0  1  0  0  0  0  0  0
  187.4790  177.5080  134.5520 O   0  0  0  0  0  0  0  0  0  0  0  0
  185.2210  176.6070  134.4300 O   0  0  0  0  0  1  0  0  0  0  0  0
  185.6330  178.8520  134.3460 O   0  0  0  0  0  0  0  0  0  0  0  0
  186.0960  177.6860  134.4350 C   0  0  0  0  0  0  0  0  0  0  0  0
  191.3160  175.4170  138.6620 C   0  0  0  0  0  2  0  0  0  0  0  0
  191.6790  176.2880  139.8230 C   0  0  0  0  0  0  0  0  0  0  0  0
  190.9290  176.2420  140.9330 C   0  0  0  0  0  3  0  0  0  0  0  0
  190.9010  179.8960  143.9430 O   0  0  0  0  0  0  0  0  0  0  0  0
  191.4370  177.6510  144.3020 O   0  0  0  0  0  0  0  0  0  0  0  0
  191.1640  177.0040  142.1260 N   0  0  0  0  0  0  0  0  0  0  0  0
  190.8760  178.3430  142.2100 O   0  0  0  0  0  0  0  0  0  0  0  0
  191.0550  178.7240  143.5160 C   0  0  0  0  0  0  0  0  0  0  0  0
  191.5080  176.5000  143.4590 C   0  0  0  0  0  2  0  0  0  0  0  0
  193.6490  177.9570  139.5260 N   0  0  0  0  0  0  0  0  0  0  0  0
  192.7730  177.2110  139.6560 C   0  0  0  0  0  0  0  0  0  0  0  0
  187.1930  178.2390  139.4720 S   0  0  0  0  0  0  0  0  0  0  0  0
  185.6130  178.0500  138.5920 C   0  0  0  0  0  2  0  0  0  0  0  0
  184.7530  179.2850  138.7920 C   0  0  0  0  0  2  0  0  0  0  0  0
  181.1570  178.5010  143.0730 F   0  0  0  0  0  0  0  0  0  0  0  0
  183.8110  179.0750  139.9260 C   0  0  0  0  0  0  0  0  0  0  0  0
  181.5520  178.9470  140.7840 C   0  0  0  0  0  3  0  0  0  0  0  0
  183.4410  178.6150  142.2850 C   0  0  0  0  0  0  0  0  0  0  0  0
  182.0460  178.6810  142.0650 C   0  0  0  0  0  0  0  0  0  0  0  0
  184.3090  178.8140  141.2050 C   0  0  0  0  0  3  0  0  0  0  0  0
  182.4300  179.1440  139.7170 C   0  0  0  0  0  3  0  0  0  0  0  0
  184.0120  178.3670  143.5400 O   0  0  0  0  0  0  0  0  0  0  0  0
  183.7480  179.1390  144.7040 C   0  0  0  0  0  2  0  0  0  0  0  0
  184.7760  178.8200  145.7760 C   0  0  0  0  0  2  0  0  0  0  0  0
  186.1070  178.4450  145.1420 C   0  0  0  0  0  2  0  0  0  0  0  0
  186.6700  177.2850  145.8130 N   0  0  0  0  0  0  0  0  0  0  0  0
  188.1260  177.3550  145.6150 C   0  0  0  0  0  2  0  0  0  0  0  0
  187.5500  177.7940  146.8780 C   0  0  0  0  0  2  0  0  0  0  0  0
  1  5  2  0  0  0  0
  1 42  1  0  0  0  0
  2  3  2  0  0  0  0
  3  5  1  0  0  0  0
  3 31  1  0  0  0  0
  4  7  1  0  0  0  0
  6  4  2  0  0  0  0
  6  2  1  0  0  0  0
  7  1  1  0  0  0  0
  8 10  1  0  0  0  0
  9 10  2  0  0  0  0
  9 19  1  0  0  0  0
 11 15  1  0  0  0  0
 11 16  2  0  0  0  0
 12 13  1  1  0  0  0
 12 22  1  0  0  0  0
 14 19  2  0  0  0  0
 14 18  1  0  0  0  0
 15  9  1  0  0  0  0
 16 12  1  0  0  0  0
 16 14  1  0  0  0  0
 17  8  2  0  0  0  0
 19  2  1  0  0  0  0
 20 17  1  0  0  0  0
 20 15  2  0  0  0  0
 21 23  1  0  0  0  0
 21 11  1  0  0  0  0
 22 18  1  0  0  0  0
 23 24  1  1  0  0  0
 23 13  1  0  0  0  0
 24 25  1  0  0  0  0
 25 26  1  0  0  0  0
 27  4  1  0  0  0  0
 28 30  1  0  0  0  0
 29 30  2  0  0  0  0
 30 27  1  0  0  0  0
 31 32  1  0  0  0  0
 32 33  2  0  0  0  0
 33 36  1  0  0  0  0
 36 37  1  0  0  0  0
 36 39  1  0  0  0  0
 37 38  1  0  0  0  0
 38 34  2  0  0  0  0
 38 35  1  0  0  0  0
 39 35  1  0  0  0  0
 40 41  3  0  0  0  0
 41 32  1  0  0  0  0
 43 44  1  0  0  0  0
 43 42  1  0  0  0  0
 44 46  1  0  0  0  0
 46 50  1  0  0  0  0
 47 49  2  0  0  0  0
 48 52  1  0  0  0  0
 49 48  1  0  0  0  0
 49 45  1  0  0  0  0
 50 48  2  0  0  0  0
 51 46  2  0  0  0  0
 51 47  1  0  0  0  0
 52 53  1  0  0  0  0
 53 54  1  0  0  0  0
 55 54  1  0  0  0  0
 55 56  1  0  0  0  0
 56 58  1  0  0  0  0
 57 56  1  0  0  0  0
 57 58  1  0  0  0  0
M  END
>  <MODEL>
4

>  <REMARK>
 VINA RESULT:      -5.8      2.597      5.703
  Name = 
  18 active torsions:
  status: ('A' for Active; 'I' for Inactive)
    1  A    between atoms: C_2  and  C_26
    2  A    between atoms: C_2  and  O_36
    3  A    between atoms: N_3  and  C_8
    4  A    between atoms: C_7  and  S_31
    5  A    between atoms: C_8  and  C_26
    6  A    between atoms: C_10  and  C_32
    7  A    between atoms: C_10  and  C_37
    8  A    between atoms: C_11  and  C_54
    9  A    between atoms: C_13  and  N_44
   10  A    between atoms: C_19  and  C_29
   11  A    between atoms: C_22  and  C_29
   12  A    between atoms: C_22  and  S_31
   13  A    between atoms: C_23  and  O_47
   14  A    between atoms: C_27  and  C_43
   15  A    between atoms: C_32  and  C_35
   16  A    between atoms: C_33  and  O_36
   17  A    between atoms: C_38  and  O_47
   18  A    between atoms: C_54  and  C_58
                            x       y       z     vdW  Elec       q    Type
                         _______ _______ _______ _____ _____    ______ ____

>  <TORSDO>
F 18

$$$$
=
 OpenBabel10222422133D

 58 65  0  0  1  0  0  0  0  0999 V2000
  188.1690  177.7910  139.8060 C   0  0  0  0  0  0  0  0  0  0  0  0
  190.1100  176.0910  138.0230 C   0  0  0  0  0  0  0  0  0  0  0  0
  189.0040  176.7580  137.6380 C   0  0  0  0  0  0  0  0  0  0  0  0
  190.2110  176.5100  140.5370 C   0  0  0  0  0  0  0  0  0  0  0  0
  188.0650  177.4490  138.5260 C   0  0  0  0  0  3  0  0  0  0  0  0
  190.5660  175.9060  139.4070 C   0  0  0  0  0  3  0  0  0  0  0  0
  189.2630  177.5330  140.6320 O   0  0  0  0  0  0  0  0  0  0  0  0
  188.9120  172.3860  136.1140 C   0  0  0  0  0  3  0  0  0  0  0  0
  190.5200  174.1750  136.4070 C   0  0  0  0  0  0  0  0  0  0  0  0
  189.2710  173.6050  136.6870 C   0  0  0  0  0  3  0  0  0  0  0  0
  192.6770  174.0180  135.2330 C   0  0  0  0  0  0  0  0  0  0  0  0
  194.2730  175.9780  135.7780 C   0  0  1  0  0  3  0  0  0  0  0  0
  195.4050  174.9730  135.8430 C   0  0  0  0  0  2  0  0  0  0  0  0
  192.2080  175.8610  136.6910 C   0  0  0  0  0  0  0  0  0  0  0  0
  191.4030  173.4810  135.5240 C   0  0  0  0  0  0  0  0  0  0  0  0
  192.9970  175.2460  135.8020 C   0  0  0  0  0  0  0  0  0  0  0  0
  189.8080  171.7350  135.2660 C   0  0  0  0  0  3  0  0  0  0  0  0
  192.9470  176.8910  137.3020 N   0  0  0  0  0  2  0  0  0  0  0  0
  190.9370  175.3850  137.0210 C   0  0  0  0  0  0  0  0  0  0  0  0
  191.0210  172.2860  134.9930 N   0  0  0  0  0  0  0  0  0  0  0  0
  193.9340  173.0550  134.3530 S   0  0  0  0  0  0  0  0  0  0  0  0
  194.2580  176.8520  136.9060 O   0  0  0  0  0  0  0  0  0  0  0  0
  195.4000  174.1670  134.5450 C   0  0  2  0  0  3  0  0  0  0  0  0
  196.6870  173.3620  134.4470 C   0  0  0  0  0  2  0  0  0  0  0  0
  197.1500  172.8890  135.8150 C   0  0  0  0  0  2  0  0  0  0  0  0
  196.8240  171.4840  135.9970 N   0  0  0  0  0  1  0  0  0  0  0  0
  190.8840  176.0940  141.6920 O   0  0  0  0  0  0  0  0  0  0  0  0
  191.0120  177.0280  143.9350 O   0  0  0  0  0  1  0  0  0  0  0  0
  192.4530  177.6580  142.2800 O   0  0  0  0  0  0  0  0  0  0  0  0
  191.4730  176.9510  142.6270 C   0  0  0  0  0  0  0  0  0  0  0  0
  188.6160  176.8120  136.1850 C   0  0  0  0  0  2  0  0  0  0  0  0
  187.1750  177.1730  136.0080 C   0  0  0  0  0  0  0  0  0  0  0  0
  186.3020  176.2180  135.6590 C   0  0  0  0  0  3  0  0  0  0  0  0
  181.9590  178.0270  136.1890 O   0  0  0  0  0  0  0  0  0  0  0  0
  182.7980  176.5730  134.5650 O   0  0  0  0  0  0  0  0  0  0  0  0
  184.8920  176.4110  135.4690 N   0  0  0  0  0  0  0  0  0  0  0  0
  184.1580  177.2660  136.2510 O   0  0  0  0  0  0  0  0  0  0  0  0
  182.9000  177.3460  135.7070 C   0  0  0  0  0  0  0  0  0  0  0  0
  184.0670  175.9530  134.3470 C   0  0  0  0  0  2  0  0  0  0  0  0
  186.5080  179.6750  136.2320 N   0  0  0  0  0  0  0  0  0  0  0  0
  186.8090  178.5620  136.1310 C   0  0  0  0  0  0  0  0  0  0  0  0
  186.8020  178.6980  140.5170 S   0  0  0  0  0  0  0  0  0  0  0  0
  187.6800  178.9820  142.0850 C   0  0  0  0  0  2  0  0  0  0  0  0
  187.6930  177.7100  142.9130 C   0  0  0  0  0  2  0  0  0  0  0  0
  184.7750  178.4450  147.6900 F   0  0  0  0  0  0  0  0  0  0  0  0
  186.9180  177.9090  144.1690 C   0  0  0  0  0  0  0  0  0  0  0  0
  186.7120  177.6800  146.5700 C   0  0  0  0  0  3  0  0  0  0  0  0
  184.9130  178.7070  145.2900 C   0  0  0  0  0  0  0  0  0  0  0  0
  185.4530  178.2860  146.5270 C   0  0  0  0  0  0  0  0  0  0  0  0
  185.6590  178.5110  144.1210 C   0  0  0  0  0  3  0  0  0  0  0  0
  187.4440  177.4900  145.3960 C   0  0  0  0  0  3  0  0  0  0  0  0
  183.6540  179.3080  145.1640 O   0  0  0  0  0  0  0  0  0  0  0  0
  182.5030  178.6520  144.6480 C   0  0  0  0  0  2  0  0  0  0  0  0
  182.6510  178.4600  143.1490 C   0  0  0  0  0  2  0  0  0  0  0  0
  181.5490  179.2000  142.4050 C   0  0  0  0  0  2  0  0  0  0  0  0
  180.6850  178.2520  141.7210 N   0  0  0  0  0  0  0  0  0  0  0  0
  180.4040  178.8270  140.3960 C   0  0  0  0  0  2  0  0  0  0  0  0
  181.4180  177.7900  140.5300 C   0  0  0  0  0  2  0  0  0  0  0  0
  1 42  1  0  0  0  0
  1  7  1  0  0  0  0
  2  6  1  0  0  0  0
  3  2  2  0  0  0  0
  3  5  1  0  0  0  0
  4  7  1  0  0  0  0
  4 27  1  0  0  0  0
  5  1  2  0  0  0  0
  6  4  2  0  0  0  0
  8 10  1  0  0  0  0
  9 10  2  0  0  0  0
  9 19  1  0  0  0  0
 11 15  1  0  0  0  0
 11 16  2  0  0  0  0
 12 16  1  0  0  0  0
 12 13  1  1  0  0  0
 12 22  1  0  0  0  0
 14 19  2  0  0  0  0
 14 18  1  0  0  0  0
 15  9  1  0  0  0  0
 16 14  1  0  0  0  0
 17  8  2  0  0  0  0
 19  2  1  0  0  0  0
 20 17  1  0  0  0  0
 20 15  2  0  0  0  0
 21 23  1  0  0  0  0
 21 11  1  0  0  0  0
 22 18  1  0  0  0  0
 23 24  1  1  0  0  0
 23 13  1  0  0  0  0
 24 25  1  0  0  0  0
 25 26  1  0  0  0  0
 27 30  1  0  0  0  0
 29 30  2  0  0  0  0
 30 28  1  0  0  0  0
 31  3  1  0  0  0  0
 32 41  1  0  0  0  0
 32 31  1  0  0  0  0
 33 32  2  0  0  0  0
 35 38  1  0  0  0  0
 36 33  1  0  0  0  0
 36 37  1  0  0  0  0
 38 34  2  0  0  0  0
 38 37  1  0  0  0  0
 39 35  1  0  0  0  0
 39 36  1  0  0  0  0
 41 40  3  0  0  0  0
 42 43  1  0  0  0  0
 43 44  1  0  0  0  0
 44 46  1  0  0  0  0
 46 51  1  0  0  0  0
 48 49  2  0  0  0  0
 49 47  1  0  0  0  0
 49 45  1  0  0  0  0
 50 46  2  0  0  0  0
 50 48  1  0  0  0  0
 51 47  2  0  0  0  0
 52 48  1  0  0  0  0
 53 52  1  0  0  0  0
 54 53  1  0  0  0  0
 55 54  1  0  0  0  0
 56 55  1  0  0  0  0
 57 58  1  0  0  0  0
 57 56  1  0  0  0  0
 58 56  1  0  0  0  0
M  END
>  <MODEL>
5

>  <REMARK>
 VINA RESULT:      -5.1      2.108      3.825
  Name = 
  18 active torsions:
  status: ('A' for Active; 'I' for Inactive)
    1  A    between atoms: C_2  and  C_26
    2  A    between atoms: C_2  and  O_36
    3  A    between atoms: N_3  and  C_8
    4  A    between atoms: C_7  and  S_31
    5  A    between atoms: C_8  and  C_26
    6  A    between atoms: C_10  and  C_32
    7  A    between atoms: C_10  and  C_37
    8  A    between atoms: C_11  and  C_54
    9  A    between atoms: C_13  and  N_44
   10  A    between atoms: C_19  and  C_29
   11  A    between atoms: C_22  and  C_29
   12  A    between atoms: C_22  and  S_31
   13  A    between atoms: C_23  and  O_47
   14  A    between atoms: C_27  and  C_43
   15  A    between atoms: C_32  and  C_35
   16  A    between atoms: C_33  and  O_36
   17  A    between atoms: C_38  and  O_47
   18  A    between atoms: C_54  and  C_58
                            x       y       z     vdW  Elec       q    Type
                         _______ _______ _______ _____ _____    ______ ____

>  <TORSDO>
F 18

$$$$
=
 OpenBabel10222422133D

 58 65  0  0  1  0  0  0  0  0999 V2000
  184.6960  177.9490  137.7390 C   0  0  0  0  0  0  0  0  0  0  0  0
  186.9030  176.1750  136.3920 C   0  0  0  0  0  0  0  0  0  0  0  0
  187.0750  177.2750  137.1530 C   0  0  0  0  0  0  0  0  0  0  0  0
  184.3680  175.9200  136.2830 C   0  0  0  0  0  0  0  0  0  0  0  0
  186.0090  178.1370  137.6700 C   0  0  0  0  0  3  0  0  0  0  0  0
  185.6170  175.6510  135.9150 C   0  0  0  0  0  3  0  0  0  0  0  0
  184.0080  176.8220  137.2890 O   0  0  0  0  0  0  0  0  0  0  0  0
  187.2890  171.8620  136.6280 C   0  0  0  0  0  3  0  0  0  0  0  0
  188.1780  174.0190  135.9710 C   0  0  0  0  0  0  0  0  0  0  0  0
  187.1400  173.2430  136.5030 C   0  0  0  0  0  3  0  0  0  0  0  0
  190.4530  174.1170  135.0390 C   0  0  0  0  0  0  0  0  0  0  0  0
  191.2310  176.5260  134.5130 C   0  0  1  0  0  3  0  0  0  0  0  0
  192.5870  176.1580  135.0790 C   0  0  0  0  0  2  0  0  0  0  0  0
  189.1750  176.1180  135.3600 C   0  0  0  0  0  0  0  0  0  0  0  0
  189.3800  173.3630  135.5630 C   0  0  0  0  0  0  0  0  0  0  0  0
  190.2650  175.4880  134.9060 C   0  0  0  0  0  0  0  0  0  0  0  0
  188.4830  171.2620  136.2280 C   0  0  0  0  0  3  0  0  0  0  0  0
  189.4310  177.5010  135.3640 N   0  0  0  0  0  2  0  0  0  0  0  0
  188.0770  175.4320  135.8870 C   0  0  0  0  0  0  0  0  0  0  0  0
  189.4930  172.0140  135.7120 N   0  0  0  0  0  0  0  0  0  0  0  0
  192.0860  173.3810  134.7690 S   0  0  0  0  0  0  0  0  0  0  0  0
  190.7380  177.7570  135.0410 O   0  0  0  0  0  0  0  0  0  0  0  0
  193.0720  174.8950  134.3690 C   0  0  2  0  0  3  0  0  0  0  0  0
  194.5400  174.6670  134.6930 C   0  0  0  0  0  2  0  0  0  0  0  0
  195.3810  175.8850  134.3460 C   0  0  0  0  0  2  0  0  0  0  0  0
  196.3810  176.1140  135.3760 N   0  0  0  0  0  1  0  0  0  0  0  0
  183.3660  175.2000  135.6210 O   0  0  0  0  0  0  0  0  0  0  0  0
  183.4300  172.8470  136.2370 O   0  0  0  0  0  0  0  0  0  0  0  0
  181.5430  174.1100  136.4830 O   0  0  0  0  0  1  0  0  0  0  0  0
  182.7450  174.0500  136.1190 C   0  0  0  0  0  0  0  0  0  0  0  0
  188.4600  177.7400  137.5150 C   0  0  0  0  0  2  0  0  0  0  0  0
  188.6790  177.7330  138.9950 C   0  0  0  0  0  0  0  0  0  0  0  0
  189.7350  177.0750  139.4940 C   0  0  0  0  0  3  0  0  0  0  0  0
  191.6680  178.2220  143.6610 O   0  0  0  0  0  0  0  0  0  0  0  0
  190.0400  176.6300  143.1420 O   0  0  0  0  0  0  0  0  0  0  0  0
  190.0810  176.9940  140.8850 N   0  0  0  0  0  0  0  0  0  0  0  0
  190.9730  177.8570  141.4700 O   0  0  0  0  0  0  0  0  0  0  0  0
  190.9500  177.6220  142.8220 C   0  0  0  0  0  0  0  0  0  0  0  0
  189.4290  176.1940  141.9260 C   0  0  0  0  0  2  0  0  0  0  0  0
  186.8780  178.8610  140.4900 N   0  0  0  0  0  0  0  0  0  0  0  0
  187.6830  178.3600  139.8260 C   0  0  0  0  0  0  0  0  0  0  0  0
  183.7320  179.2390  138.5160 S   0  0  0  0  0  0  0  0  0  0  0  0
  183.1990  178.1560  139.8770 C   0  0  0  0  0  2  0  0  0  0  0  0
  182.1360  178.8490  140.7110 C   0  0  0  0  0  2  0  0  0  0  0  0
  183.6360  178.9180  146.1540 F   0  0  0  0  0  0  0  0  0  0  0  0
  182.5400  178.8650  142.1440 C   0  0  0  0  0  0  0  0  0  0  0  0
  181.9530  178.9250  144.4910 C   0  0  0  0  0  3  0  0  0  0  0  0
  184.2950  178.8570  143.8270 C   0  0  0  0  0  0  0  0  0  0  0  0
  183.3080  178.8970  144.8380 C   0  0  0  0  0  0  0  0  0  0  0  0
  183.8940  178.8410  142.4860 C   0  0  0  0  0  3  0  0  0  0  0  0
  181.5690  178.9090  143.1490 C   0  0  0  0  0  3  0  0  0  0  0  0
  185.6700  178.8420  144.0950 O   0  0  0  0  0  0  0  0  0  0  0  0
  186.4770  177.6720  144.0700 C   0  0  0  0  0  2  0  0  0  0  0  0
  187.7680  177.9220  144.8300 C   0  0  0  0  0  2  0  0  0  0  0  0
  187.4870  178.0880  146.3160 C   0  0  0  0  0  2  0  0  0  0  0  0
  188.0020  176.9460  147.0520 N   0  0  0  0  0  0  0  0  0  0  0  0
  189.4600  177.1270  147.1360 C   0  0  0  0  0  2  0  0  0  0  0  0
  188.6240  177.4730  148.2780 C   0  0  0  0  0  2  0  0  0  0  0  0
  1 42  1  0  0  0  0
  2  3  2  0  0  0  0
  3 31  1  0  0  0  0
  3  5  1  0  0  0  0
  4  7  1  0  0  0  0
  5  1  2  0  0  0  0
  6  4  2  0  0  0  0
  6  2  1  0  0  0  0
  7  1  1  0  0  0  0
  9 10  2  0  0  0  0
 10  8  1  0  0  0  0
 11 15  1  0  0  0  0
 12 16  1  0  0  0  0
 12 22  1  0  0  0  0
 12 13  1  1  0  0  0
 14 18  1  0  0  0  0
 14 19  2  0  0  0  0
 15 20  2  0  0  0  0
 15  9  1  0  0  0  0
 16 11  2  0  0  0  0
 16 14  1  0  0  0  0
 17  8  2  0  0  0  0
 19  9  1  0  0  0  0
 19  2  1  0  0  0  0
 20 17  1  0  0  0  0
 21 11  1  0  0  0  0
 22 18  1  0  0  0  0
 23 24  1  1  0  0  0
 23 21  1  0  0  0  0
 23 13  1  0  0  0  0
 25 24  1  0  0  0  0
 25 26  1  0  0  0  0
 27 30  1  0  0  0  0
 27  4  1  0  0  0  0
 30 28  2  0  0  0  0
 30 29  1  0  0  0  0
 31 32  1  0  0  0  0
 32 33  2  0  0  0  0
 32 41  1  0  0  0  0
 33 36  1  0  0  0  0
 36 37  1  0  0  0  0
 36 39  1  0  0  0  0
 37 38  1  0  0  0  0
 38 35  1  0  0  0  0
 38 34  2  0  0  0  0
 39 35  1  0  0  0  0
 41 40  3  0  0  0  0
 42 43  1  0  0  0  0
 43 44  1  0  0  0  0
 44 46  1  0  0  0  0
 46 50  2  0  0  0  0
 46 51  1  0  0  0  0
 47 49  1  0  0  0  0
 48 52  1  0  0  0  0
 48 49  2  0  0  0  0
 49 45  1  0  0  0  0
 50 48  1  0  0  0  0
 51 47  2  0  0  0  0
 53 52  1  0  0  0  0
 53 54  1  0  0  0  0
 54 55  1  0  0  0  0
 55 56  1  0  0  0  0
 56 57  1  0  0  0  0
 56 58  1  0  0  0  0
 57 58  1  0  0  0  0
M  END
>  <MODEL>
6

>  <REMARK>
 VINA RESULT:      -5.1      2.092      5.358
  Name = 
  18 active torsions:
  status: ('A' for Active; 'I' for Inactive)
    1  A    between atoms: C_2  and  C_26
    2  A    between atoms: C_2  and  O_36
    3  A    between atoms: N_3  and  C_8
    4  A    between atoms: C_7  and  S_31
    5  A    between atoms: C_8  and  C_26
    6  A    between atoms: C_10  and  C_32
    7  A    between atoms: C_10  and  C_37
    8  A    between atoms: C_11  and  C_54
    9  A    between atoms: C_13  and  N_44
   10  A    between atoms: C_19  and  C_29
   11  A    between atoms: C_22  and  C_29
   12  A    between atoms: C_22  and  S_31
   13  A    between atoms: C_23  and  O_47
   14  A    between atoms: C_27  and  C_43
   15  A    between atoms: C_32  and  C_35
   16  A    between atoms: C_33  and  O_36
   17  A    between atoms: C_38  and  O_47
   18  A    between atoms: C_54  and  C_58
                            x       y       z     vdW  Elec       q    Type
                         _______ _______ _______ _____ _____    ______ ____

>  <TORSDO>
F 18

$$$$
=
 OpenBabel10222422133D

 58 65  0  0  1  0  0  0  0  0999 V2000
  191.2970  176.9910  139.3740 C   0  0  0  0  0  0  0  0  0  0  0  0
  188.8050  176.1240  137.6790 C   0  0  0  0  0  0  0  0  0  0  0  0
  188.9320  177.2090  138.4700 C   0  0  0  0  0  0  0  0  0  0  0  0
  191.0500  174.9400  137.9320 C   0  0  0  0  0  0  0  0  0  0  0  0
  190.0770  177.5150  139.3310 C   0  0  0  0  0  3  0  0  0  0  0  0
  189.7790  175.0320  137.5550 C   0  0  0  0  0  3  0  0  0  0  0  0
  191.7710  175.9590  138.5650 O   0  0  0  0  0  0  0  0  0  0  0  0
  187.1010  179.0930  135.0170 C   0  0  0  0  0  3  0  0  0  0  0  0
  187.0270  176.8970  136.0380 C   0  0  0  0  0  0  0  0  0  0  0  0
  187.6790  178.1190  135.8300 C   0  0  0  0  0  3  0  0  0  0  0  0
  185.0750  175.4640  135.6010 C   0  0  0  0  0  0  0  0  0  0  0  0
  185.1590  173.2170  136.8780 C   0  0  1  0  0  3  0  0  0  0  0  0
  183.6810  173.3820  137.1660 C   0  0  0  0  0  2  0  0  0  0  0  0
  186.8260  174.7340  137.0640 C   0  0  0  0  0  0  0  0  0  0  0  0
  185.7680  176.6780  135.3990 C   0  0  0  0  0  0  0  0  0  0  0  0
  185.6880  174.5040  136.3990 C   0  0  0  0  0  0  0  0  0  0  0  0
  185.8650  178.8440  134.4200 C   0  0  0  0  0  3  0  0  0  0  0  0
  187.0030  173.7060  138.0080 N   0  0  0  0  0  2  0  0  0  0  0  0
  187.5620  175.9100  136.9070 C   0  0  0  0  0  0  0  0  0  0  0  0
  185.2300  177.6590  134.6210 N   0  0  0  0  0  0  0  0  0  0  0  0
  183.3650  175.2460  135.0460 S   0  0  0  0  0  0  0  0  0  0  0  0
  185.9060  172.8850  138.0470 O   0  0  0  0  0  0  0  0  0  0  0  0
  182.9630  173.6220  135.8390 C   0  0  2  0  0  3  0  0  0  0  0  0
  181.4610  173.4980  136.0500 C   0  0  0  0  0  2  0  0  0  0  0  0
  181.1410  172.7520  137.3350 C   0  0  0  0  0  2  0  0  0  0  0  0
  180.1090  171.7570  137.0930 N   0  0  0  0  0  1  0  0  0  0  0  0
  191.6960  173.7380  137.6230 O   0  0  0  0  0  0  0  0  0  0  0  0
  192.0860  173.5250  135.2310 O   0  0  0  0  0  0  0  0  0  0  0  0
  193.7890  173.4100  136.7480 O   0  0  0  0  0  1  0  0  0  0  0  0
  192.5570  173.5480  136.5370 C   0  0  0  0  0  0  0  0  0  0  0  0
  187.8220  178.2220  138.5530 C   0  0  0  0  0  2  0  0  0  0  0  0
  187.1420  178.1920  139.8860 C   0  0  0  0  0  0  0  0  0  0  0  0
  185.9250  178.7390  140.0090 C   0  0  0  0  0  3  0  0  0  0  0  0
  182.1340  178.7940  142.8460 O   0  0  0  0  0  0  0  0  0  0  0  0
  184.3910  178.4620  143.3510 O   0  0  0  0  0  0  0  0  0  0  0  0
  185.1460  178.7700  141.2150 N   0  0  0  0  0  0  0  0  0  0  0  0
  183.7800  178.8940  141.2030 O   0  0  0  0  0  0  0  0  0  0  0  0
  183.3380  178.7200  142.4910 C   0  0  0  0  0  0  0  0  0  0  0  0
  185.5930  178.4640  142.5780 C   0  0  0  0  0  2  0  0  0  0  0  0
  188.4580  177.2180  141.9040 N   0  0  0  0  0  0  0  0  0  0  0  0
  187.8750  177.6530  141.0040 C   0  0  0  0  0  0  0  0  0  0  0  0
  192.4440  177.7020  140.5470 S   0  0  0  0  0  0  0  0  0  0  0  0
  191.7840  176.7240  141.9320 C   0  0  0  0  0  2  0  0  0  0  0  0
  191.3960  177.6400  143.0800 C   0  0  0  0  0  2  0  0  0  0  0  0
  191.9310  174.8900  147.9810 F   0  0  0  0  0  0  0  0  0  0  0  0
  191.5360  176.9220  144.3770 C   0  0  0  0  0  0  0  0  0  0  0  0
  192.1140  174.9300  145.6240 C   0  0  0  0  0  3  0  0  0  0  0  0
  191.3370  176.9150  146.8000 C   0  0  0  0  0  0  0  0  0  0  0  0
  191.7960  175.5780  146.8210 C   0  0  0  0  0  0  0  0  0  0  0  0
  191.2130  177.5720  145.5700 C   0  0  0  0  0  3  0  0  0  0  0  0
  191.9850  175.5980  144.4040 C   0  0  0  0  0  3  0  0  0  0  0  0
  190.9850  177.6260  147.9550 O   0  0  0  0  0  0  0  0  0  0  0  0
  189.7370  178.2810  148.1410 C   0  0  0  0  0  2  0  0  0  0  0  0
  188.6020  177.3120  147.8630 C   0  0  0  0  0  2  0  0  0  0  0  0
  187.2710  178.0480  147.8190 C   0  0  0  0  0  2  0  0  0  0  0  0
  186.9330  178.3890  146.4470 N   0  0  0  0  0  0  0  0  0  0  0  0
  187.4960  177.3230  145.6030 C   0  0  0  0  0  2  0  0  0  0  0  0
  186.0780  177.3040  145.9370 C   0  0  0  0  0  2  0  0  0  0  0  0
  1 42  1  0  0  0  0
  2  3  2  0  0  0  0
  3 31  1  0  0  0  0
  3  5  1  0  0  0  0
  4  7  1  0  0  0  0
  5  1  2  0  0  0  0
  6  2  1  0  0  0  0
  6  4  2  0  0  0  0
  7  1  1  0  0  0  0
  8 10  1  0  0  0  0
  9 19  1  0  0  0  0
 10  9  2  0  0  0  0
 11 16  2  0  0  0  0
 12 13  1  1  0  0  0
 12 22  1  0  0  0  0
 14 18  1  0  0  0  0
 15 11  1  0  0  0  0
 15  9  1  0  0  0  0
 16 12  1  0  0  0  0
 16 14  1  0  0  0  0
 17 20  1  0  0  0  0
 17  8  2  0  0  0  0
 18 22  1  0  0  0  0
 19 14  2  0  0  0  0
 19  2  1  0  0  0  0
 20 15  2  0  0  0  0
 21 11  1  0  0  0  0
 21 23  1  0  0  0  0
 23 24  1  1  0  0  0
 23 13  1  0  0  0  0
 24 25  1  0  0  0  0
 26 25  1  0  0  0  0
 27  4  1  0  0  0  0
 28 30  2  0  0  0  0
 30 29  1  0  0  0  0
 30 27  1  0  0  0  0
 31 32  1  0  0  0  0
 32 33  2  0  0  0  0
 32 41  1  0  0  0  0
 33 36  1  0  0  0  0
 36 39  1  0  0  0  0
 37 36  1  0  0  0  0
 37 38  1  0  0  0  0
 38 34  2  0  0  0  0
 38 35  1  0  0  0  0
 39 35  1  0  0  0  0
 41 40  3  0  0  0  0
 42 43  1  0  0  0  0
 43 44  1  0  0  0  0
 44 46  1  0  0  0  0
 46 51  2  0  0  0  0
 46 50  1  0  0  0  0
 47 49  2  0  0  0  0
 48 49  1  0  0  0  0
 48 52  1  0  0  0  0
 49 45  1  0  0  0  0
 50 48  2  0  0  0  0
 51 47  1  0  0  0  0
 52 53  1  0  0  0  0
 54 53  1  0  0  0  0
 55 54  1  0  0  0  0
 56 55  1  0  0  0  0
 57 58  1  0  0  0  0
 57 56  1  0  0  0  0
 58 56  1  0  0  0  0
M  END
>  <MODEL>
7

>  <REMARK>
 VINA RESULT:      -4.4      3.445      7.608
  Name = 
  18 active torsions:
  status: ('A' for Active; 'I' for Inactive)
    1  A    between atoms: C_2  and  C_26
    2  A    between atoms: C_2  and  O_36
    3  A    between atoms: N_3  and  C_8
    4  A    between atoms: C_7  and  S_31
    5  A    between atoms: C_8  and  C_26
    6  A    between atoms: C_10  and  C_32
    7  A    between atoms: C_10  and  C_37
    8  A    between atoms: C_11  and  C_54
    9  A    between atoms: C_13  and  N_44
   10  A    between atoms: C_19  and  C_29
   11  A    between atoms: C_22  and  C_29
   12  A    between atoms: C_22  and  S_31
   13  A    between atoms: C_23  and  O_47
   14  A    between atoms: C_27  and  C_43
   15  A    between atoms: C_32  and  C_35
   16  A    between atoms: C_33  and  O_36
   17  A    between atoms: C_38  and  O_47
   18  A    between atoms: C_54  and  C_58
                            x       y       z     vdW  Elec       q    Type
                         _______ _______ _______ _____ _____    ______ ____

>  <TORSDO>
F 18

$$$$
=
 OpenBabel10222422133D

 58 65  0  0  1  0  0  0  0  0999 V2000
  185.9360  178.1280  137.6670 C   0  0  0  0  0  0  0  0  0  0  0  0
  186.5910  177.9890  140.7310 C   0  0  0  0  0  0  0  0  0  0  0  0
  185.3780  177.9790  140.1420 C   0  0  0  0  0  0  0  0  0  0  0  0
  188.2030  178.1900  138.7640 C   0  0  0  0  0  0  0  0  0  0  0  0
  185.1160  178.1580  138.7120 C   0  0  0  0  0  3  0  0  0  0  0  0
  187.8750  178.2090  140.0520 C   0  0  0  0  0  3  0  0  0  0  0  0
  187.3150  177.9210  137.7180 O   0  0  0  0  0  0  0  0  0  0  0  0
  183.8740  179.8980  143.5190 C   0  0  0  0  0  3  0  0  0  0  0  0
  185.7980  178.4900  143.0910 C   0  0  0  0  0  0  0  0  0  0  0  0
  184.7130  179.2400  142.6210 C   0  0  0  0  0  3  0  0  0  0  0  0
  187.1110  177.6820  145.0090 C   0  0  0  0  0  0  0  0  0  0  0  0
  189.1760  176.2910  144.3120 C   0  0  1  0  0  3  0  0  0  0  0  0
  189.9620  177.0070  145.3910 C   0  0  0  0  0  2  0  0  0  0  0  0
  187.7660  177.1490  142.7670 C   0  0  0  0  0  0  0  0  0  0  0  0
  186.0160  178.4150  144.5020 C   0  0  0  0  0  0  0  0  0  0  0  0
  187.9170  177.0190  144.0900 C   0  0  0  0  0  0  0  0  0  0  0  0
  184.1280  179.8100  144.8880 C   0  0  0  0  0  3  0  0  0  0  0  0
  188.9090  176.6240  142.1360 N   0  0  0  0  0  2  0  0  0  0  0  0
  186.7040  177.8580  142.1990 C   0  0  0  0  0  0  0  0  0  0  0  0
  185.1820  179.0820  145.3460 N   0  0  0  0  0  0  0  0  0  0  0  0
  187.5940  177.7830  146.7520 S   0  0  0  0  0  0  0  0  0  0  0  0
  189.8610  176.2790  143.0590 O   0  0  0  0  0  0  0  0  0  0  0  0
  189.2000  176.8650  146.7070 C   0  0  2  0  0  3  0  0  0  0  0  0
  190.0910  177.3090  147.8560 C   0  0  0  0  0  2  0  0  0  0  0  0
  191.5020  176.7610  147.7080 C   0  0  0  0  0  2  0  0  0  0  0  0
  192.3580  177.2910  148.7560 N   0  0  0  0  0  1  0  0  0  0  0  0
  189.5520  178.4190  138.4720 O   0  0  0  0  0  0  0  0  0  0  0  0
  191.1130  176.9550  137.3140 O   0  0  0  0  0  0  0  0  0  0  0  0
  190.9650  177.0040  139.5920 O   0  0  0  0  0  1  0  0  0  0  0  0
  190.5520  177.4420  138.4880 C   0  0  0  0  0  0  0  0  0  0  0  0
  184.1330  177.8090  140.9710 C   0  0  0  0  0  2  0  0  0  0  0  0
  182.9510  178.4740  140.3380 C   0  0  0  0  0  0  0  0  0  0  0  0
  183.1470  179.5390  139.5500 C   0  0  0  0  0  3  0  0  0  0  0  0
  180.8260  183.1780  137.6030 O   0  0  0  0  0  0  0  0  0  0  0  0
  180.4340  180.8810  137.4430 O   0  0  0  0  0  0  0  0  0  0  0  0
  182.1160  180.2670  138.8650 N   0  0  0  0  0  0  0  0  0  0  0  0
  182.1340  181.6340  138.7540 O   0  0  0  0  0  0  0  0  0  0  0  0
  181.1130  181.9920  137.9080 C   0  0  0  0  0  0  0  0  0  0  0  0
  181.0500  179.7250  138.0150 C   0  0  0  0  0  2  0  0  0  0  0  0
  180.5890  177.5940  140.9710 N   0  0  0  0  0  0  0  0  0  0  0  0
  181.6390  177.9880  140.6870 C   0  0  0  0  0  0  0  0  0  0  0  0
  185.1980  178.3290  136.0510 S   0  0  0  0  0  0  0  0  0  0  0  0
  184.2630  176.7740  136.1770 C   0  0  0  0  0  2  0  0  0  0  0  0
  182.7770  177.0660  136.2870 C   0  0  0  0  0  2  0  0  0  0  0  0
  180.0180  172.5090  138.1580 F   0  0  0  0  0  0  0  0  0  0  0  0
  182.0540  175.8580  136.7740 C   0  0  0  0  0  0  0  0  0  0  0  0
  180.2680  174.8590  138.0670 C   0  0  0  0  0  3  0  0  0  0  0  0
  181.8250  173.4390  136.8460 C   0  0  0  0  0  0  0  0  0  0  0  0
  180.6990  173.5840  137.6890 C   0  0  0  0  0  0  0  0  0  0  0  0
  182.4900  174.5860  136.3980 C   0  0  0  0  0  3  0  0  0  0  0  0
  180.9420  175.9950  137.6120 C   0  0  0  0  0  3  0  0  0  0  0  0
  182.3250  172.1960  136.4370 O   0  0  0  0  0  0  0  0  0  0  0  0
  183.5380  171.6260  136.9120 C   0  0  0  0  0  2  0  0  0  0  0  0
  184.4530  171.3170  135.7400 C   0  0  0  0  0  2  0  0  0  0  0  0
  185.6930  172.1960  135.7860 C   0  0  0  0  0  2  0  0  0  0  0  0
  185.8930  172.7090  137.1320 N   0  0  0  0  0  0  0  0  0  0  0  0
  187.3470  172.8200  137.3230 C   0  0  0  0  0  2  0  0  0  0  0  0
  186.5710  174.0080  136.9970 C   0  0  0  0  0  2  0  0  0  0  0  0
  1  7  1  0  0  0  0
  1  5  2  0  0  0  0
  2 19  1  0  0  0  0
  3  2  2  0  0  0  0
  3 31  1  0  0  0  0
  4  6  2  0  0  0  0
  5  3  1  0  0  0  0
  6  2  1  0  0  0  0
  7  4  1  0  0  0  0
  8 17  1  0  0  0  0
  9 15  1  0  0  0  0
 10  9  1  0  0  0  0
 10  8  2  0  0  0  0
 11 21  1  0  0  0  0
 12 13  1  1  0  0  0
 13 23  1  0  0  0  0
 14 16  2  0  0  0  0
 15 11  2  0  0  0  0
 15 20  1  0  0  0  0
 16 12  1  0  0  0  0
 16 11  1  0  0  0  0
 17 20  2  0  0  0  0
 18 14  1  0  0  0  0
 18 22  1  0  0  0  0
 19 14  1  0  0  0  0
 19  9  2  0  0  0  0
 22 12  1  0  0  0  0
 23 21  1  0  0  0  0
 23 24  1  1  0  0  0
 25 24  1  0  0  0  0
 25 26  1  0  0  0  0
 27 30  1  0  0  0  0
 27  4  1  0  0  0  0
 28 30  2  0  0  0  0
 30 29  1  0  0  0  0
 32 41  1  0  0  0  0
 32 31  1  0  0  0  0
 33 32  2  0  0  0  0
 34 38  2  0  0  0  0
 35 38  1  0  0  0  0
 35 39  1  0  0  0  0
 36 33  1  0  0  0  0
 37 36  1  0  0  0  0
 38 37  1  0  0  0  0
 39 36  1  0  0  0  0
 41 40  3  0  0  0  0
 42 43  1  0  0  0  0
 42  1  1  0  0  0  0
 43 44  1  0  0  0  0
 44 46  1  0  0  0  0
 46 51  1  0  0  0  0
 48 49  2  0  0  0  0
 49 47  1  0  0  0  0
 49 45  1  0  0  0  0
 50 46  2  0  0  0  0
 50 48  1  0  0  0  0
 51 47  2  0  0  0  0
 52 48  1  0  0  0  0
 52 53  1  0  0  0  0
 54 55  1  0  0  0  0
 54 53  1  0  0  0  0
 55 56  1  0  0  0  0
 56 57  1  0  0  0  0
 58 56  1  0  0  0  0
 58 57  1  0  0  0  0
M  END
>  <MODEL>
8

>  <REMARK>
 VINA RESULT:      -4.4      4.183      9.422
  Name = 
  18 active torsions:
  status: ('A' for Active; 'I' for Inactive)
    1  A    between atoms: C_2  and  C_26
    2  A    between atoms: C_2  and  O_36
    3  A    between atoms: N_3  and  C_8
    4  A    between atoms: C_7  and  S_31
    5  A    between atoms: C_8  and  C_26
    6  A    between atoms: C_10  and  C_32
    7  A    between atoms: C_10  and  C_37
    8  A    between atoms: C_11  and  C_54
    9  A    between atoms: C_13  and  N_44
   10  A    between atoms: C_19  and  C_29
   11  A    between atoms: C_22  and  C_29
   12  A    between atoms: C_22  and  S_31
   13  A    between atoms: C_23  and  O_47
   14  A    between atoms: C_27  and  C_43
   15  A    between atoms: C_32  and  C_35
   16  A    between atoms: C_33  and  O_36
   17  A    between atoms: C_38  and  O_47
   18  A    between atoms: C_54  and  C_58
                            x       y       z     vdW  Elec       q    Type
                         _______ _______ _______ _____ _____    ______ ____

>  <TORSDO>
F 18

$$$$
=
 OpenBabel10222422133D

 58 65  0  0  1  0  0  0  0  0999 V2000
  187.7630  177.6980  140.9250 C   0  0  0  0  0  0  0  0  0  0  0  0
  184.9620  178.4350  139.7230 C   0  0  0  0  0  0  0  0  0  0  0  0
  186.1500  178.3910  139.0870 C   0  0  0  0  0  0  0  0  0  0  0  0
  185.5530  177.8200  142.1270 C   0  0  0  0  0  0  0  0  0  0  0  0
  187.4520  178.1490  139.7150 C   0  0  0  0  0  3  0  0  0  0  0  0
  184.7530  178.2760  141.1680 C   0  0  0  0  0  3  0  0  0  0  0  0
  186.8550  177.3510  141.9250 O   0  0  0  0  0  0  0  0  0  0  0  0
  182.5650  175.4460  137.6910 C   0  0  0  0  0  3  0  0  0  0  0  0
  182.9590  177.7540  138.3180 C   0  0  0  0  0  0  0  0  0  0  0  0
  183.3050  176.3980  138.3910 C   0  0  0  0  0  3  0  0  0  0  0  0
  181.4700  179.4880  137.4070 C   0  0  0  0  0  0  0  0  0  0  0  0
  182.1440  181.8810  138.1210 C   0  0  1  0  0  3  0  0  0  0  0  0
  181.8420  182.3340  136.7070 C   0  0  0  0  0  2  0  0  0  0  0  0
  183.3130  180.0760  138.8200 C   0  0  0  0  0  0  0  0  0  0  0  0
  181.8360  178.1290  137.5170 C   0  0  0  0  0  0  0  0  0  0  0  0
  182.2140  180.4110  138.1350 C   0  0  0  0  0  0  0  0  0  0  0  0
  181.4820  175.8550  136.9120 C   0  0  0  0  0  3  0  0  0  0  0  0
  183.9970  181.2570  139.1650 N   0  0  0  0  0  2  0  0  0  0  0  0
  183.7290  178.7510  138.9710 C   0  0  0  0  0  0  0  0  0  0  0  0
  181.1450  177.1710  136.8390 N   0  0  0  0  0  0  0  0  0  0  0  0
  180.2410  180.0440  136.1980 S   0  0  0  0  0  0  0  0  0  0  0  0
  183.4110  182.3490  138.5820 O   0  0  0  0  0  0  0  0  0  0  0  0
  180.4270  181.8790  136.3540 C   0  0  2  0  0  3  0  0  0  0  0  0
  179.9830  182.5630  135.0700 C   0  0  0  0  0  2  0  0  0  0  0  0
  180.9400  183.6760  134.6750 C   0  0  0  0  0  2  0  0  0  0  0  0
  180.2430  184.9510  134.6510 N   0  0  0  0  0  1  0  0  0  0  0  0
  185.0060  177.7820  143.4150 O   0  0  0  0  0  0  0  0  0  0  0  0
  182.7470  178.4230  144.0520 O   0  0  0  0  0  0  0  0  0  0  0  0
  184.5210  179.8400  144.3000 O   0  0  0  0  0  1  0  0  0  0  0  0
  184.1000  178.7150  143.9280 C   0  0  0  0  0  0  0  0  0  0  0  0
  186.2280  178.6390  137.6050 C   0  0  0  0  0  2  0  0  0  0  0  0
  186.1350  177.3660  136.8240 C   0  0  0  0  0  0  0  0  0  0  0  0
  186.6990  176.2550  137.3190 C   0  0  0  0  0  3  0  0  0  0  0  0
  185.2740  171.8730  136.2320 O   0  0  0  0  0  0  0  0  0  0  0  0
  186.8600  173.2420  135.1990 O   0  0  0  0  0  0  0  0  0  0  0  0
  186.6780  174.9630  136.6940 N   0  0  0  0  0  0  0  0  0  0  0  0
  185.7940  173.9830  137.0670 O   0  0  0  0  0  0  0  0  0  0  0  0
  185.9210  172.9500  136.1720 C   0  0  0  0  0  0  0  0  0  0  0  0
  187.3750  174.5470  135.4730 C   0  0  0  0  0  2  0  0  0  0  0  0
  185.0310  177.4640  134.4740 N   0  0  0  0  0  0  0  0  0  0  0  0
  185.5210  177.4180  135.5210 C   0  0  0  0  0  0  0  0  0  0  0  0
  189.5010  177.4780  141.2860 S   0  0  0  0  0  0  0  0  0  0  0  0
  190.0030  177.8630  139.5800 C   0  0  0  0  0  2  0  0  0  0  0  0
  191.4600  177.4910  139.3690 C   0  0  0  0  0  2  0  0  0  0  0  0
  191.7920  172.7770  136.2780 F   0  0  0  0  0  0  0  0  0  0  0  0
  191.5560  176.2480  138.5530 C   0  0  0  0  0  0  0  0  0  0  0  0
  190.5110  174.5460  137.1870 C   0  0  0  0  0  3  0  0  0  0  0  0
  192.9020  174.4440  137.6340 C   0  0  0  0  0  0  0  0  0  0  0  0
  191.7450  173.9090  137.0230 C   0  0  0  0  0  0  0  0  0  0  0  0
  192.7900  175.6140  138.3950 C   0  0  0  0  0  3  0  0  0  0  0  0
  190.4140  175.7110  137.9500 C   0  0  0  0  0  3  0  0  0  0  0  0
  194.1700  173.8570  137.5280 O   0  0  0  0  0  0  0  0  0  0  0  0
  195.1240  174.1890  136.5280 C   0  0  0  0  0  2  0  0  0  0  0  0
  196.3840  174.7290  137.1810 C   0  0  0  0  0  2  0  0  0  0  0  0
  197.4160  173.6240  137.3450 C   0  0  0  0  0  2  0  0  0  0  0  0
  198.2760  173.5660  136.1740 N   0  0  0  0  0  0  0  0  0  0  0  0
  199.6560  173.6940  136.6660 C   0  0  0  0  0  2  0  0  0  0  0  0
  199.1310  172.3770  136.3320 C   0  0  0  0  0  2  0  0  0  0  0  0
  1 42  1  0  0  0  0
  1  7  1  0  0  0  0
  2  6  1  0  0  0  0
  3  5  1  0  0  0  0
  3  2  2  0  0  0  0
  4 27  1  0  0  0  0
  5  1  2  0  0  0  0
  6  4  2  0  0  0  0
  7  4  1  0  0  0  0
  8 10  1  0  0  0  0
  9 10  2  0  0  0  0
  9 19  1  0  0  0  0
 11 15  1  0  0  0  0
 11 16  2  0  0  0  0
 12 13  1  6  0  0  0
 12 16  1  0  0  0  0
 12 22  1  0  0  0  0
 14 19  2  0  0  0  0
 14 18  1  0  0  0  0
 15  9  1  0  0  0  0
 16 14  1  0  0  0  0
 17  8  2  0  0  0  0
 19  2  1  0  0  0  0
 20 17  1  0  0  0  0
 20 15  2  0  0  0  0
 21 23  1  0  0  0  0
 21 11  1  0  0  0  0
 22 18  1  0  0  0  0
 23 24  1  6  0  0  0
 23 13  1  0  0  0  0
 25 24  1  0  0  0  0
 26 25  1  0  0  0  0
 27 30  1  0  0  0  0
 30 28  2  0  0  0  0
 30 29  1  0  0  0  0
 31  3  1  0  0  0  0
 32 33  2  0  0  0  0
 32 31  1  0  0  0  0
 35 39  1  0  0  0  0
 35 38  1  0  0  0  0
 36 37  1  0  0  0  0
 36 33  1  0  0  0  0
 38 34  2  0  0  0  0
 38 37  1  0  0  0  0
 39 36  1  0  0  0  0
 40 41  3  0  0  0  0
 41 32  1  0  0  0  0
 43 42  1  0  0  0  0
 44 43  1  0  0  0  0
 45 49  1  0  0  0  0
 46 44  1  0  0  0  0
 47 51  1  0  0  0  0
 48 50  2  0  0  0  0
 49 47  2  0  0  0  0
 49 48  1  0  0  0  0
 50 46  1  0  0  0  0
 51 46  2  0  0  0  0
 52 48  1  0  0  0  0
 53 54  1  0  0  0  0
 53 52  1  0  0  0  0
 54 55  1  0  0  0  0
 56 58  1  0  0  0  0
 56 57  1  0  0  0  0
 56 55  1  0  0  0  0
 58 57  1  0  0  0  0
M  END
>  <MODEL>
9

>  <REMARK>
 VINA RESULT:      -4.4      4.153     10.014
  Name = 
  18 active torsions:
  status: ('A' for Active; 'I' for Inactive)
    1  A    between atoms: C_2  and  C_26
    2  A    between atoms: C_2  and  O_36
    3  A    between atoms: N_3  and  C_8
    4  A    between atoms: C_7  and  S_31
    5  A    between atoms: C_8  and  C_26
    6  A    between atoms: C_10  and  C_32
    7  A    between atoms: C_10  and  C_37
    8  A    between atoms: C_11  and  C_54
    9  A    between atoms: C_13  and  N_44
   10  A    between atoms: C_19  and  C_29
   11  A    between atoms: C_22  and  C_29
   12  A    between atoms: C_22  and  S_31
   13  A    between atoms: C_23  and  O_47
   14  A    between atoms: C_27  and  C_43
   15  A    between atoms: C_32  and  C_35
   16  A    between atoms: C_33  and  O_36
   17  A    between atoms: C_38  and  O_47
   18  A    between atoms: C_54  and  C_58
                            x       y       z     vdW  Elec       q    Type
                         _______ _______ _______ _____ _____    ______ ____

>  <TORSDO>
F 18

$$$$
