=
 OpenBabel10232410423D

 64 72  0  0  1  0  0  0  0  0999 V2000
  188.8680  177.2270  140.4740 C   0  0  0  0  0  0  0  0  0  0  0  0
  190.3580  176.2480  142.1920 S   0  0  0  0  0  0  0  0  0  0  0  0
  190.0330  176.5030  140.5610 C   0  0  0  0  0  0  0  0  0  0  0  0
  189.0860  177.9050  139.2820 N   0  0  0  0  0  0  0  0  0  0  0  0
  189.3090  177.6580  137.8510 N   0  0  0  0  0  0  0  0  0  0  0  0
  188.9800  177.0790  142.7480 C   0  0  0  0  0  0  0  0  0  0  0  0
  188.2940  177.6580  141.6680 C   0  0  0  0  0  3  0  0  0  0  0  0
  190.3440  177.9720  138.6100 C   0  0  2  0  0  3  0  0  0  0  0  0
  190.9740  176.7530  139.3490 C   0  0  1  0  0  3  0  0  0  0  0  0
  188.5610  177.1440  144.1900 C   0  0  2  0  0  3  0  0  0  0  0  0
  185.0850  178.5000  143.3750 C   0  0  0  0  0  3  0  0  0  0  0  0
  186.3920  178.0320  143.2420 C   0  0  0  0  0  3  0  0  0  0  0  0
  186.6510  178.0570  145.6520 C   0  0  0  0  0  3  0  0  0  0  0  0
  184.5400  178.7230  144.6490 C   0  0  0  0  0  0  0  0  0  0  0  0
  185.3400  178.5260  145.7840 C   0  0  0  0  0  3  0  0  0  0  0  0
  187.1780  177.7650  144.3750 C   0  0  0  0  0  0  0  0  0  0  0  0
  180.7310  178.5670  144.1930 C   0  0  0  0  0  1  0  0  0  0  0  0
  182.1610  178.8040  143.8040 C   0  0  0  0  0  0  0  0  0  0  0  0
  183.1480  179.0160  144.8190 N   0  0  0  0  0  2  0  0  0  0  0  0
  182.4710  178.9130  142.5540 N   0  0  0  0  0  2  0  0  0  0  0  0
  189.6250  177.8450  145.0130 C   0  0  0  0  0  0  0  0  0  0  0  0
  190.1620  178.9080  144.5870 O   0  0  0  0  0  0  0  0  0  0  0  0
  190.0410  177.3340  146.2800 N   0  0  0  0  0  1  0  0  0  0  0  0
  192.4050  177.0830  139.7430 C   0  0  0  0  0  2  0  0  0  0  0  0
  193.3590  176.6250  138.6620 C   0  0  0  0  0  2  0  0  0  0  0  0
  192.8500  175.4750  138.0370 O   0  0  0  0  0  0  0  0  0  0  0  0
  193.6440  175.2800  136.9170 C   0  0  2  0  0  3  0  0  0  0  0  0
  194.0350  176.6520  136.3470 C   0  0  0  0  0  1  0  0  0  0  0  0
  192.3990  175.0130  134.6680 C   0  0  0  0  0  1  0  0  0  0  0  0
  192.9550  174.3320  135.9180 C   0  0  1  0  0  3  0  0  0  0  0  0
  197.4120  173.7720  135.8560 C   0  0  2  0  0  3  0  0  0  0  0  0
  195.5040  170.4940  135.9070 C   0  0  2  0  0  3  0  0  0  0  0  0
  193.7630  172.1600  136.7380 N   0  0  0  0  0  2  0  0  0  0  0  0
  195.2940  170.6400  138.4290 O   0  0  0  0  0  1  0  0  0  0  0  0
  198.3510  172.9430  136.7210 C   0  0  0  0  0  2  0  0  0  0  0  0
  193.7060  173.0450  135.5680 C   0  0  2  0  0  3  0  0  0  0  0  0
  196.9750  174.9920  136.6560 C   0  0  0  0  0  1  0  0  0  0  0  0
  192.9200  170.0270  135.6140 C   0  0  0  0  0  1  0  0  0  0  0  0
  197.7500  171.5450  136.8260 C   0  0  1  0  0  3  0  0  0  0  0  0
  194.9150  169.9980  137.2390 C   0  0  0  0  0  0  0  0  0  0  0  0
  195.0380  173.3200  135.0310 N   0  0  0  0  0  2  0  0  0  0  0  0
  196.4420  171.6500  136.1110 C   0  0  0  0  0  0  0  0  0  0  0  0
  196.2590  172.8670  135.6250 C   0  0  0  0  0  0  0  0  0  0  0  0
  194.0410  170.7970  136.2890 C   0  0  1  0  0  0  0  0  0  0  0  0
  194.6800  168.6250  137.3030 O   0  0  0  0  0  1  0  0  0  0  0  0
  198.6820  170.5470  136.1570 C   0  0  0  0  0  2  0  0  0  0  0  0
  198.6950  169.2920  136.8770 N   0  0  0  0  0  1  0  0  0  0  0  0
  188.9310  178.8520  137.1040 C   0  0  0  0  0  2  0  0  0  0  0  0
  187.6570  178.5640  136.3180 C   0  0  0  0  0  2  0  0  0  0  0  0
  186.6250  178.2070  137.1950 O   0  0  0  0  0  0  0  0  0  0  0  0
  184.9480  174.4200  136.9530 C   0  0  0  0  0  2  0  0  0  0  0  0
  185.8140  177.3450  136.4590 C   0  0  1  0  0  3  0  0  0  0  0  0
  186.3600  174.8190  137.0870 N   0  0  0  0  0  0  0  0  0  0  0  0
  184.0110  175.6120  136.7170 C   0  0  0  0  0  2  0  0  0  0  0  0
  186.7910  175.9460  135.7800 S   0  0  0  0  0  0  0  0  0  0  0  0
  184.6230  176.8830  137.3150 C   0  0  2  0  0  3  0  0  0  0  0  0
  183.5890  177.9880  137.4970 C   0  0  0  0  0  3  0  0  0  0  0  0
  182.1540  177.5590  137.1210 C   0  0  0  0  0  2  0  0  0  0  0  0
  181.0920  178.3290  137.9020 C   0  0  0  0  0  2  0  0  0  0  0  0
  182.7660  179.8300  139.0100 C   0  0  0  0  0  2  0  0  0  0  0  0
  181.5260  179.7670  138.1090 C   0  0  0  0  0  2  0  0  0  0  0  0
  183.6660  178.5910  138.9040 C   0  0  0  0  0  2  0  0  0  0  0  0
  187.1250  173.6020  136.8520 C   0  0  0  0  0  2  0  0  0  0  0  0
  186.3360  172.4840  137.1520 O   0  0  0  0  0  1  0  0  0  0  0  0
  1  3  2  0  0  0  0
  1  7  1  0  0  0  0
  2  6  1  0  0  0  0
  3  2  1  0  0  0  0
  4  1  1  0  0  0  0
  5  4  1  0  0  0  0
  6 10  1  0  0  0  0
  7  6  2  0  0  0  0
  8  5  1  6  0  0  0
  8  4  1  0  0  0  0
  8  9  1  0  0  0  0
  9 24  1  1  0  0  0
  9  3  1  0  0  0  0
 10 16  1  0  0  0  0
 10 21  1  1  0  0  0
 11 14  1  0  0  0  0
 12 11  2  0  0  0  0
 12 16  1  0  0  0  0
 13 15  1  0  0  0  0
 14 19  1  0  0  0  0
 14 15  2  0  0  0  0
 16 13  2  0  0  0  0
 18 17  1  0  0  0  0
 18 19  1  0  0  0  0
 20 18  2  0  0  0  0
 21 23  1  0  0  0  0
 22 21  2  0  0  0  0
 25 24  1  0  0  0  0
 26 25  1  0  0  0  0
 27 28  1  6  0  0  0
 27 26  1  0  0  0  0
 30 29  1  6  0  0  0
 30 27  1  0  0  0  0
 31 37  1  1  0  0  0
 31 35  1  0  0  0  0
 32 42  1  1  0  0  0
 32 44  1  0  0  0  0
 32 40  1  0  0  0  0
 35 39  1  0  0  0  0
 36 30  1  1  0  0  0
 36 33  1  0  0  0  0
 39 46  1  6  0  0  0
 40 45  1  0  0  0  0
 40 34  1  0  0  0  0
 41 36  1  0  0  0  0
 41 43  1  0  0  0  0
 42 39  1  0  0  0  0
 43 31  1  0  0  0  0
 43 42  2  0  0  0  0
 44 38  1  6  0  0  0
 44 33  1  0  0  0  0
 44 40  1  0  0  0  0
 46 47  1  0  0  0  0
 48  5  1  0  0  0  0
 49 48  1  0  0  0  0
 49 50  1  0  0  0  0
 51 53  1  0  0  0  0
 52 50  1  1  0  0  0
 52 56  1  0  0  0  0
 54 51  1  0  0  0  0
 54 56  1  0  0  0  0
 55 52  1  0  0  0  0
 55 53  1  0  0  0  0
 56 57  1  6  0  0  0
 57 62  1  0  0  0  0
 58 57  1  0  0  0  0
 58 59  1  0  0  0  0
 59 61  1  0  0  0  0
 61 60  1  0  0  0  0
 62 60  1  0  0  0  0
 63 53  1  0  0  0  0
 63 64  1  0  0  0  0
M  END
>  <MODEL>
1

>  <REMARK>
 VINA RESULT:      -8.4      0.000      0.000
  Name = 
  17 active torsions:
  status: ('A' for Active; 'I' for Inactive)
    1  A    between atoms: C_3  and  O_38
    2  A    between atoms: C_3  and  C_58
    3  A    between atoms: C_9  and  C_54
    4  A    between atoms: C_12  and  O_38
    5  A    between atoms: C_14  and  C_35
    6  A    between atoms: C_14  and  O_48
    7  A    between atoms: C_15  and  C_51
    8  A    between atoms: C_15  and  C_52
    9  A    between atoms: N_20  and  C_58
   10  A    between atoms: C_21  and  C_23
   11  A    between atoms: C_21  and  C_28
   12  A    between atoms: C_21  and  C_60
   13  A    between atoms: N_22  and  C_44
   14  A    between atoms: C_29  and  C_35
   15  A    between atoms: C_32  and  C_36
   16  A    between atoms: C_37  and  N_50
   17  A    between atoms: O_48  and  C_51
                            x       y       z     vdW  Elec       q    Type
                         _______ _______ _______ _____ _____    ______ ____

>  <TORSDO>
F 17

$$$$
=
 OpenBabel10232410423D

 64 72  0  0  1  0  0  0  0  0999 V2000
  191.5590  175.9530  138.2390 C   0  0  0  0  0  0  0  0  0  0  0  0
  190.9630  176.2740  135.8570 S   0  0  0  0  0  0  0  0  0  0  0  0
  190.4610  176.2370  137.4620 C   0  0  0  0  0  0  0  0  0  0  0  0
  191.2020  176.5960  139.4170 N   0  0  0  0  0  0  0  0  0  0  0  0
  190.1710  176.5750  140.4630 N   0  0  0  0  0  0  0  0  0  0  0  0
  192.5920  175.9190  136.2050 C   0  0  0  0  0  0  0  0  0  0  0  0
  192.7910  175.8640  137.5940 C   0  0  0  0  0  3  0  0  0  0  0  0
  190.1170  177.5160  139.5380 C   0  0  2  0  0  3  0  0  0  0  0  0
  189.3970  177.0710  138.2300 C   0  0  1  0  0  3  0  0  0  0  0  0
  193.6420  175.6730  135.1580 C   0  0  2  0  0  3  0  0  0  0  0  0
  195.5460  172.4630  134.3460 C   0  0  0  0  0  3  0  0  0  0  0  0
  195.1910  173.8090  134.4390 C   0  0  0  0  0  3  0  0  0  0  0  0
  193.0240  173.1810  135.3250 C   0  0  0  0  0  3  0  0  0  0  0  0
  194.6540  171.4660  134.7690 C   0  0  0  0  0  0  0  0  0  0  0  0
  193.3810  171.8320  135.2310 C   0  0  0  0  0  3  0  0  0  0  0  0
  193.9460  174.1890  134.9660 C   0  0  0  0  0  0  0  0  0  0  0  0
  195.2110  167.9530  136.2150 C   0  0  0  0  0  1  0  0  0  0  0  0
  195.3630  169.4430  136.1030 C   0  0  0  0  0  0  0  0  0  0  0  0
  195.0630  170.0970  134.8650 N   0  0  0  0  0  2  0  0  0  0  0  0
  195.8590  170.1070  137.0940 N   0  0  0  0  0  2  0  0  0  0  0  0
  194.8870  176.4850  135.4650 C   0  0  0  0  0  0  0  0  0  0  0  0
  195.0140  177.6540  135.0020 O   0  0  0  0  0  0  0  0  0  0  0  0
  195.9330  175.9590  136.2830 N   0  0  0  0  0  1  0  0  0  0  0  0
  188.9180  178.2980  137.4700 C   0  0  0  0  0  2  0  0  0  0  0  0
  187.4910  178.0980  137.0080 C   0  0  0  0  0  2  0  0  0  0  0  0
  187.4800  177.3790  135.8020 O   0  0  0  0  0  0  0  0  0  0  0  0
  186.5240  176.3890  135.9710 C   0  0  2  0  0  3  0  0  0  0  0  0
  186.5890  175.4320  134.7720 C   0  0  0  0  0  1  0  0  0  0  0  0
  184.3670  177.4100  134.9790 C   0  0  0  0  0  1  0  0  0  0  0  0
  185.1380  177.0090  136.2360 C   0  0  1  0  0  3  0  0  0  0  0  0
  182.8160  178.8600  139.6070 C   0  0  2  0  0  3  0  0  0  0  0  0
  181.6540  175.3510  138.7530 C   0  0  2  0  0  3  0  0  0  0  0  0
  182.9160  176.0430  136.6490 N   0  0  0  0  0  2  0  0  0  0  0  0
  180.1960  176.2710  136.8950 O   0  0  0  0  0  1  0  0  0  0  0  0
  181.3210  179.0170  139.8540 C   0  0  0  0  0  2  0  0  0  0  0  0
  184.2420  176.2740  137.2350 C   0  0  2  0  0  3  0  0  0  0  0  0
  183.2340  179.8690  138.5460 C   0  0  0  0  0  1  0  0  0  0  0  0
  182.7330  173.5450  137.1540 C   0  0  0  0  0  1  0  0  0  0  0  0
  180.6760  177.6620  139.5880 C   0  0  1  0  0  3  0  0  0  0  0  0
  180.7520  175.1450  137.5230 C   0  0  0  0  0  0  0  0  0  0  0  0
  184.1550  176.9810  138.5120 N   0  0  0  0  0  2  0  0  0  0  0  0
  181.7990  176.8060  139.0980 C   0  0  0  0  0  0  0  0  0  0  0  0
  182.9390  177.4780  139.0800 C   0  0  0  0  0  0  0  0  0  0  0  0
  182.2530  174.9670  137.3850 C   0  0  1  0  0  0  0  0  0  0  0  0
  179.9820  173.9840  137.5470 O   0  0  0  0  0  1  0  0  0  0  0  0
  180.0810  177.1270  140.8830 C   0  0  0  0  0  2  0  0  0  0  0  0
  180.1020  178.1390  141.9160 N   0  0  0  0  0  1  0  0  0  0  0  0
  190.7180  177.1770  141.6740 C   0  0  0  0  0  2  0  0  0  0  0  0
  189.5910  177.8560  142.4440 C   0  0  0  0  0  2  0  0  0  0  0  0
  190.0260  178.1880  143.7320 O   0  0  0  0  0  0  0  0  0  0  0  0
  189.7490  176.6910  147.5920 C   0  0  0  0  0  2  0  0  0  0  0  0
  189.4950  177.1950  144.5540 C   0  0  1  0  0  3  0  0  0  0  0  0
  190.9410  176.9770  146.7750 N   0  0  0  0  0  0  0  0  0  0  0  0
  188.4390  176.8380  146.8070 C   0  0  0  0  0  2  0  0  0  0  0  0
  190.8240  176.1170  145.2220 S   0  0  0  0  0  0  0  0  0  0  0  0
  188.6280  177.8300  145.6540 C   0  0  2  0  0  3  0  0  0  0  0  0
  187.3000  178.3400  145.1100 C   0  0  0  0  0  3  0  0  0  0  0  0
  187.0110  177.8880  143.6620 C   0  0  0  0  0  2  0  0  0  0  0  0
  185.5160  177.7820  143.3710 C   0  0  0  0  0  2  0  0  0  0  0  0
  184.8530  178.6950  145.6100 C   0  0  0  0  0  2  0  0  0  0  0  0
  184.7580  178.8810  144.0900 C   0  0  0  0  0  2  0  0  0  0  0  0
  186.1470  178.0050  146.0640 C   0  0  0  0  0  2  0  0  0  0  0  0
  192.0530  176.3740  147.4980 C   0  0  0  0  0  2  0  0  0  0  0  0
  192.3780  177.1650  148.6070 O   0  0  0  0  0  1  0  0  0  0  0  0
  1  4  1  0  0  0  0
  2  6  1  0  0  0  0
  2  3  1  0  0  0  0
  3  9  1  0  0  0  0
  3  1  2  0  0  0  0
  4  5  1  0  0  0  0
  5 48  1  0  0  0  0
  6  7  2  0  0  0  0
  7  1  1  0  0  0  0
  8  4  1  6  0  0  0
  8  5  1  0  0  0  0
  9 24  1  6  0  0  0
  9  8  1  0  0  0  0
 10 21  1  1  0  0  0
 10  6  1  0  0  0  0
 11 12  2  0  0  0  0
 11 14  1  0  0  0  0
 12 16  1  0  0  0  0
 14 19  1  0  0  0  0
 14 15  2  0  0  0  0
 15 13  1  0  0  0  0
 16 10  1  0  0  0  0
 16 13  2  0  0  0  0
 18 17  1  0  0  0  0
 18 20  2  0  0  0  0
 19 18  1  0  0  0  0
 21 23  1  0  0  0  0
 22 21  2  0  0  0  0
 25 24  1  0  0  0  0
 26 27  1  0  0  0  0
 26 25  1  0  0  0  0
 27 28  1  6  0  0  0
 27 30  1  0  0  0  0
 30 29  1  6  0  0  0
 31 37  1  6  0  0  0
 31 35  1  0  0  0  0
 32 42  1  6  0  0  0
 33 36  1  0  0  0  0
 33 44  1  0  0  0  0
 34 40  1  0  0  0  0
 36 30  1  6  0  0  0
 36 41  1  0  0  0  0
 39 35  1  0  0  0  0
 39 46  1  1  0  0  0
 40 45  1  0  0  0  0
 40 32  1  0  0  0  0
 41 43  1  0  0  0  0
 42 39  1  0  0  0  0
 43 42  2  0  0  0  0
 43 31  1  0  0  0  0
 44 38  1  6  0  0  0
 44 40  1  0  0  0  0
 44 32  1  0  0  0  0
 46 47  1  0  0  0  0
 48 49  1  0  0  0  0
 49 50  1  0  0  0  0
 52 50  1  1  0  0  0
 52 55  1  0  0  0  0
 52 56  1  0  0  0  0
 53 63  1  0  0  0  0
 53 51  1  0  0  0  0
 54 51  1  0  0  0  0
 55 53  1  0  0  0  0
 56 57  1  6  0  0  0
 56 54  1  0  0  0  0
 57 62  1  0  0  0  0
 58 57  1  0  0  0  0
 59 58  1  0  0  0  0
 59 61  1  0  0  0  0
 60 62  1  0  0  0  0
 61 60  1  0  0  0  0
 63 64  1  0  0  0  0
M  END
>  <MODEL>
2

>  <REMARK>
 VINA RESULT:      -8.1      2.649     11.891
  Name = 
  17 active torsions:
  status: ('A' for Active; 'I' for Inactive)
    1  A    between atoms: C_3  and  O_38
    2  A    between atoms: C_3  and  C_58
    3  A    between atoms: C_9  and  C_54
    4  A    between atoms: C_12  and  O_38
    5  A    between atoms: C_14  and  C_35
    6  A    between atoms: C_14  and  O_48
    7  A    between atoms: C_15  and  C_51
    8  A    between atoms: C_15  and  C_52
    9  A    between atoms: N_20  and  C_58
   10  A    between atoms: C_21  and  C_23
   11  A    between atoms: C_21  and  C_28
   12  A    between atoms: C_21  and  C_60
   13  A    between atoms: N_22  and  C_44
   14  A    between atoms: C_29  and  C_35
   15  A    between atoms: C_32  and  C_36
   16  A    between atoms: C_37  and  N_50
   17  A    between atoms: O_48  and  C_51
                            x       y       z     vdW  Elec       q    Type
                         _______ _______ _______ _____ _____    ______ ____

>  <TORSDO>
F 17

$$$$
=
 OpenBabel10232410423D

 64 72  0  0  1  0  0  0  0  0999 V2000
  190.6140  176.7830  140.8910 C   0  0  0  0  0  0  0  0  0  0  0  0
  189.0160  178.4940  141.6960 S   0  0  0  0  0  0  0  0  0  0  0  0
  190.0360  177.9570  140.4710 C   0  0  0  0  0  0  0  0  0  0  0  0
  190.8220  176.1570  139.6690 N   0  0  0  0  0  0  0  0  0  0  0  0
  191.5520  176.3310  138.4060 N   0  0  0  0  0  0  0  0  0  0  0  0
  189.3490  177.1940  142.7440 C   0  0  0  0  0  0  0  0  0  0  0  0
  190.1880  176.2630  142.1130 C   0  0  0  0  0  3  0  0  0  0  0  0
  190.2570  176.5930  138.4330 C   0  0  2  0  0  3  0  0  0  0  0  0
  189.9170  178.0330  138.9230 C   0  0  1  0  0  3  0  0  0  0  0  0
  188.8320  177.0950  144.1530 C   0  0  2  0  0  3  0  0  0  0  0  0
  185.5050  178.1730  145.6870 C   0  0  0  0  0  3  0  0  0  0  0  0
  186.8140  177.7110  145.5440 C   0  0  0  0  0  3  0  0  0  0  0  0
  186.5380  177.6620  143.1370 C   0  0  0  0  0  3  0  0  0  0  0  0
  184.7120  178.4110  144.5550 C   0  0  0  0  0  0  0  0  0  0  0  0
  185.2270  178.1250  143.2820 C   0  0  0  0  0  3  0  0  0  0  0  0
  187.3620  177.4890  144.2710 C   0  0  0  0  0  0  0  0  0  0  0  0
  180.9670  179.1280  144.1070 C   0  0  0  0  0  1  0  0  0  0  0  0
  182.3970  178.9340  143.6930 C   0  0  0  0  0  0  0  0  0  0  0  0
  183.4420  179.0640  144.6630 N   0  0  0  0  0  2  0  0  0  0  0  0
  182.6780  178.7490  142.4450 N   0  0  0  0  0  2  0  0  0  0  0  0
  189.7220  177.8860  145.0930 C   0  0  0  0  0  0  0  0  0  0  0  0
  189.8450  177.5340  146.3000 O   0  0  0  0  0  0  0  0  0  0  0  0
  190.4440  179.0340  144.6420 N   0  0  0  0  0  1  0  0  0  0  0  0
  188.5310  178.4210  138.4340 C   0  0  0  0  0  2  0  0  0  0  0  0
  188.5040  178.4530  136.9210 C   0  0  0  0  0  2  0  0  0  0  0  0
  187.1900  178.6650  136.4750 O   0  0  0  0  0  0  0  0  0  0  0  0
  186.8750  177.5510  135.7110 C   0  0  2  0  0  3  0  0  0  0  0  0
  186.3330  178.0220  134.3540 C   0  0  0  0  0  1  0  0  0  0  0  0
  184.9130  177.3020  137.3740 C   0  0  0  0  0  1  0  0  0  0  0  0
  185.9440  176.6020  136.4900 C   0  0  1  0  0  3  0  0  0  0  0  0
  187.9740  172.7980  135.2290 C   0  0  2  0  0  3  0  0  0  0  0  0
  184.1920  172.6050  135.0130 C   0  0  2  0  0  3  0  0  0  0  0  0
  184.5560  174.5750  136.5890 N   0  0  0  0  0  2  0  0  0  0  0  0
  184.0670  172.0290  137.4790 O   0  0  0  0  0  1  0  0  0  0  0  0
  187.7680  171.3450  135.6350 C   0  0  0  0  0  2  0  0  0  0  0  0
  185.3170  175.4550  135.6940 C   0  0  2  0  0  3  0  0  0  0  0  0
  188.6990  173.5130  136.3600 C   0  0  0  0  0  1  0  0  0  0  0  0
  182.3760  174.5090  135.2590 C   0  0  0  0  0  1  0  0  0  0  0  0
  186.2700  171.0670  135.5710 C   0  0  1  0  0  3  0  0  0  0  0  0
  183.3840  172.3850  136.3040 C   0  0  0  0  0  0  0  0  0  0  0  0
  186.3160  174.7150  134.9240 N   0  0  0  0  0  2  0  0  0  0  0  0
  185.6620  172.3910  135.2350 C   0  0  0  0  0  0  0  0  0  0  0  0
  186.5920  173.3210  135.0890 C   0  0  0  0  0  0  0  0  0  0  0  0
  183.6060  173.7980  135.7960 C   0  0  1  0  0  0  0  0  0  0  0  0
  182.1140  171.8430  136.1180 O   0  0  0  0  0  1  0  0  0  0  0  0
  185.9980  170.0300  134.4920 C   0  0  0  0  0  2  0  0  0  0  0  0
  184.9580  169.1150  134.9070 N   0  0  0  0  0  1  0  0  0  0  0  0
  191.7250  175.0250  137.7800 C   0  0  0  0  0  2  0  0  0  0  0  0
  193.1150  174.9540  137.1570 C   0  0  0  0  0  2  0  0  0  0  0  0
  193.6280  173.6570  137.2830 O   0  0  0  0  0  0  0  0  0  0  0  0
  197.2220  173.3260  135.2360 C   0  0  0  0  0  2  0  0  0  0  0  0
  194.2440  173.3980  136.0600 C   0  0  1  0  0  3  0  0  0  0  0  0
  196.6870  174.4480  136.0270 N   0  0  0  0  0  0  0  0  0  0  0  0
  196.2020  172.1960  135.0390 C   0  0  0  0  0  2  0  0  0  0  0  0
  195.0790  174.9010  135.4150 S   0  0  0  0  0  0  0  0  0  0  0  0
  195.1940  172.1950  136.1920 C   0  0  2  0  0  3  0  0  0  0  0  0
  194.4350  170.8780  136.2920 C   0  0  0  0  0  3  0  0  0  0  0  0
  194.3960  170.0860  134.9660 C   0  0  0  0  0  2  0  0  0  0  0  0
  194.2860  168.5800  135.1900 C   0  0  0  0  0  2  0  0  0  0  0  0
  194.0510  168.8050  137.6760 C   0  0  0  0  0  2  0  0  0  0  0  0
  193.4020  168.2860  136.3870 C   0  0  0  0  0  2  0  0  0  0  0  0
  194.9500  170.0300  137.4600 C   0  0  0  0  0  2  0  0  0  0  0  0
  197.5700  175.5710  135.7420 C   0  0  0  0  0  2  0  0  0  0  0  0
  198.3970  175.2570  134.6560 O   0  0  0  0  0  1  0  0  0  0  0  0
  1  7  1  0  0  0  0
  2  6  1  0  0  0  0
  3  1  2  0  0  0  0
  3  2  1  0  0  0  0
  4  1  1  0  0  0  0
  5  4  1  0  0  0  0
  6 10  1  0  0  0  0
  7  6  2  0  0  0  0
  8  5  1  6  0  0  0
  8  9  1  0  0  0  0
  8  4  1  0  0  0  0
  9 24  1  1  0  0  0
  9  3  1  0  0  0  0
 10 16  1  0  0  0  0
 10 21  1  1  0  0  0
 12 11  1  0  0  0  0
 13 15  2  0  0  0  0
 13 16  1  0  0  0  0
 14 19  1  0  0  0  0
 14 11  2  0  0  0  0
 15 14  1  0  0  0  0
 16 12  2  0  0  0  0
 18 17  1  0  0  0  0
 18 19  1  0  0  0  0
 20 18  2  0  0  0  0
 21 22  2  0  0  0  0
 23 21  1  0  0  0  0
 25 24  1  0  0  0  0
 26 25  1  0  0  0  0
 27 28  1  6  0  0  0
 27 26  1  0  0  0  0
 27 30  1  0  0  0  0
 30 29  1  6  0  0  0
 31 35  1  0  0  0  0
 31 37  1  1  0  0  0
 32 42  1  1  0  0  0
 32 44  1  0  0  0  0
 32 40  1  0  0  0  0
 36 30  1  1  0  0  0
 36 33  1  0  0  0  0
 39 46  1  6  0  0  0
 39 35  1  0  0  0  0
 40 34  1  0  0  0  0
 41 43  1  0  0  0  0
 41 36  1  0  0  0  0
 42 39  1  0  0  0  0
 43 31  1  0  0  0  0
 43 42  2  0  0  0  0
 44 38  1  6  0  0  0
 44 40  1  0  0  0  0
 44 33  1  0  0  0  0
 45 40  1  0  0  0  0
 46 47  1  0  0  0  0
 48  5  1  0  0  0  0
 49 50  1  0  0  0  0
 49 48  1  0  0  0  0
 51 53  1  0  0  0  0
 52 56  1  0  0  0  0
 52 50  1  1  0  0  0
 54 51  1  0  0  0  0
 54 56  1  0  0  0  0
 55 53  1  0  0  0  0
 55 52  1  0  0  0  0
 56 57  1  6  0  0  0
 57 62  1  0  0  0  0
 58 59  1  0  0  0  0
 58 57  1  0  0  0  0
 59 61  1  0  0  0  0
 61 60  1  0  0  0  0
 62 60  1  0  0  0  0
 63 53  1  0  0  0  0
 64 63  1  0  0  0  0
M  END
>  <MODEL>
3

>  <REMARK>
 VINA RESULT:      -7.9      2.327      8.807
  Name = 
  17 active torsions:
  status: ('A' for Active; 'I' for Inactive)
    1  A    between atoms: C_3  and  O_38
    2  A    between atoms: C_3  and  C_58
    3  A    between atoms: C_9  and  C_54
    4  A    between atoms: C_12  and  O_38
    5  A    between atoms: C_14  and  C_35
    6  A    between atoms: C_14  and  O_48
    7  A    between atoms: C_15  and  C_51
    8  A    between atoms: C_15  and  C_52
    9  A    between atoms: N_20  and  C_58
   10  A    between atoms: C_21  and  C_23
   11  A    between atoms: C_21  and  C_28
   12  A    between atoms: C_21  and  C_60
   13  A    between atoms: N_22  and  C_44
   14  A    between atoms: C_29  and  C_35
   15  A    between atoms: C_32  and  C_36
   16  A    between atoms: C_37  and  N_50
   17  A    between atoms: O_48  and  C_51
                            x       y       z     vdW  Elec       q    Type
                         _______ _______ _______ _____ _____    ______ ____

>  <TORSDO>
F 17

$$$$
=
 OpenBabel10232410423D

 64 72  0  0  1  0  0  0  0  0999 V2000
  191.5290  176.5080  135.3640 C   0  0  0  0  0  0  0  0  0  0  0  0
  193.1940  176.1150  137.1540 S   0  0  0  0  0  0  0  0  0  0  0  0
  191.7150  176.7750  136.7000 C   0  0  0  0  0  0  0  0  0  0  0  0
  190.1420  176.4620  135.3100 N   0  0  0  0  0  0  0  0  0  0  0  0
  188.9620  177.3050  135.5400 N   0  0  0  0  0  0  0  0  0  0  0  0
  193.5610  175.5010  135.6090 C   0  0  0  0  0  0  0  0  0  0  0  0
  192.4850  175.7140  134.7330 C   0  0  0  0  0  3  0  0  0  0  0  0
  189.2920  176.4120  136.4560 C   0  0  2  0  0  3  0  0  0  0  0  0
  190.3680  176.9130  137.4640 C   0  0  1  0  0  3  0  0  0  0  0  0
  194.8700  174.8540  135.2500 C   0  0  2  0  0  3  0  0  0  0  0  0
  195.5990  171.1070  135.3580 C   0  0  0  0  0  3  0  0  0  0  0  0
  195.3820  172.4050  134.8940 C   0  0  0  0  0  3  0  0  0  0  0  0
  194.7300  173.0970  137.1230 C   0  0  0  0  0  3  0  0  0  0  0  0
  195.4120  170.8010  136.7140 C   0  0  0  0  0  0  0  0  0  0  0  0
  194.9490  171.7960  137.5870 C   0  0  0  0  0  3  0  0  0  0  0  0
  194.9850  173.4240  135.7730 C   0  0  0  0  0  0  0  0  0  0  0  0
  197.4620  168.1580  138.6000 C   0  0  0  0  0  1  0  0  0  0  0  0
  197.1690  169.1900  137.5500 C   0  0  0  0  0  0  0  0  0  0  0  0
  195.8110  169.5330  137.2500 N   0  0  0  0  0  2  0  0  0  0  0  0
  198.1400  169.6870  136.8580 N   0  0  0  0  0  2  0  0  0  0  0  0
  196.0260  175.7300  135.6960 C   0  0  0  0  0  0  0  0  0  0  0  0
  196.9100  175.2700  136.4730 O   0  0  0  0  0  0  0  0  0  0  0  0
  196.1490  177.0820  135.2500 N   0  0  0  0  0  1  0  0  0  0  0  0
  190.2990  176.0820  138.7360 C   0  0  0  0  0  2  0  0  0  0  0  0
  190.0980  176.9850  139.9350 C   0  0  0  0  0  2  0  0  0  0  0  0
  190.5020  176.3180  141.1020 O   0  0  0  0  0  0  0  0  0  0  0  0
  190.7390  177.3180  142.0350 C   0  0  2  0  0  3  0  0  0  0  0  0
  192.2080  177.2420  142.4740 C   0  0  0  0  0  1  0  0  0  0  0  0
  189.9380  178.2600  144.3040 C   0  0  0  0  0  1  0  0  0  0  0  0
  189.7120  177.2490  143.1810 C   0  0  1  0  0  3  0  0  0  0  0  0
  186.1630  177.5490  145.9200 C   0  0  2  0  0  3  0  0  0  0  0  0
  185.2730  178.0810  142.2700 C   0  0  2  0  0  3  0  0  0  0  0  0
  187.7880  178.4950  142.2920 N   0  0  0  0  0  2  0  0  0  0  0  0
  185.9460  180.5190  142.4480 O   0  0  0  0  0  1  0  0  0  0  0  0
  185.0740  178.6030  146.0730 C   0  0  0  0  0  2  0  0  0  0  0  0
  188.2380  177.1830  142.7730 C   0  0  2  0  0  3  0  0  0  0  0  0
  187.4430  178.0880  146.5420 C   0  0  0  0  0  1  0  0  0  0  0  0
  186.7310  177.7290  140.0960 C   0  0  0  0  0  1  0  0  0  0  0  0
  184.5590  178.9240  144.6740 C   0  0  1  0  0  3  0  0  0  0  0  0
  185.5740  179.4450  141.6240 C   0  0  0  0  0  0  0  0  0  0  0  0
  187.3940  176.6830  143.8560 N   0  0  0  0  0  2  0  0  0  0  0  0
  185.4360  178.1270  143.7630 C   0  0  0  0  0  0  0  0  0  0  0  0
  186.3190  177.4190  144.4490 C   0  0  0  0  0  0  0  0  0  0  0  0
  186.5800  178.3170  141.4880 C   0  0  1  0  0  0  0  0  0  0  0  0
  184.8090  179.7430  140.4970 O   0  0  0  0  0  1  0  0  0  0  0  0
  183.1010  178.5020  144.5670 C   0  0  0  0  0  2  0  0  0  0  0  0
  182.4080  179.2930  143.5740 N   0  0  0  0  0  1  0  0  0  0  0  0
  187.8420  176.7640  134.7790 C   0  0  0  0  0  2  0  0  0  0  0  0
  186.9110  176.0170  135.7270 C   0  0  0  0  0  2  0  0  0  0  0  0
  185.5780  176.2720  135.3850 O   0  0  0  0  0  0  0  0  0  0  0  0
  185.4670  172.9620  137.8860 C   0  0  0  0  0  2  0  0  0  0  0  0
  184.8920  175.1110  135.7400 C   0  0  1  0  0  3  0  0  0  0  0  0
  186.5320  173.4230  136.9790 N   0  0  0  0  0  0  0  0  0  0  0  0
  184.1680  173.7660  137.7370 C   0  0  0  0  0  2  0  0  0  0  0  0
  185.8780  173.6160  135.3350 S   0  0  0  0  0  0  0  0  0  0  0  0
  184.4810  175.1750  137.2210 C   0  0  2  0  0  3  0  0  0  0  0  0
  183.3260  176.1420  137.4520 C   0  0  0  0  0  3  0  0  0  0  0  0
  182.1150  175.8890  136.5270 C   0  0  0  0  0  2  0  0  0  0  0  0
  180.7970  176.3240  137.1620 C   0  0  0  0  0  2  0  0  0  0  0  0
  181.9080  177.3030  139.1850 C   0  0  0  0  0  2  0  0  0  0  0  0
  180.9950  177.5830  137.9840 C   0  0  0  0  0  2  0  0  0  0  0  0
  182.9290  176.1850  138.9320 C   0  0  0  0  0  2  0  0  0  0  0  0
  187.4850  172.3230  136.9170 C   0  0  0  0  0  2  0  0  0  0  0  0
  188.6910  172.7740  136.3680 O   0  0  0  0  0  1  0  0  0  0  0  0
  1  3  2  0  0  0  0
  3  2  1  0  0  0  0
  3  9  1  0  0  0  0
  4  1  1  0  0  0  0
  4  5  1  0  0  0  0
  5  8  1  0  0  0  0
  6  2  1  0  0  0  0
  7  1  1  0  0  0  0
  7  6  2  0  0  0  0
  8  4  1  6  0  0  0
  8  9  1  0  0  0  0
  9 24  1  1  0  0  0
 10  6  1  0  0  0  0
 10 21  1  1  0  0  0
 10 16  1  0  0  0  0
 11 14  1  0  0  0  0
 12 11  2  0  0  0  0
 12 16  1  0  0  0  0
 13 15  1  0  0  0  0
 14 19  1  0  0  0  0
 14 15  2  0  0  0  0
 16 13  2  0  0  0  0
 18 17  1  0  0  0  0
 19 18  1  0  0  0  0
 20 18  2  0  0  0  0
 21 22  2  0  0  0  0
 23 21  1  0  0  0  0
 24 25  1  0  0  0  0
 25 26  1  0  0  0  0
 26 27  1  0  0  0  0
 27 28  1  1  0  0  0
 27 30  1  0  0  0  0
 30 29  1  1  0  0  0
 31 35  1  0  0  0  0
 31 37  1  1  0  0  0
 32 42  1  1  0  0  0
 33 36  1  0  0  0  0
 36 30  1  1  0  0  0
 36 41  1  0  0  0  0
 39 46  1  1  0  0  0
 39 35  1  0  0  0  0
 40 32  1  0  0  0  0
 40 34  1  0  0  0  0
 41 43  1  0  0  0  0
 42 43  2  0  0  0  0
 42 39  1  0  0  0  0
 43 31  1  0  0  0  0
 44 38  1  6  0  0  0
 44 40  1  0  0  0  0
 44 32  1  0  0  0  0
 44 33  1  0  0  0  0
 45 40  1  0  0  0  0
 47 46  1  0  0  0  0
 48  5  1  0  0  0  0
 48 49  1  0  0  0  0
 50 49  1  0  0  0  0
 52 50  1  1  0  0  0
 52 56  1  0  0  0  0
 53 51  1  0  0  0  0
 54 51  1  0  0  0  0
 55 52  1  0  0  0  0
 55 53  1  0  0  0  0
 56 57  1  6  0  0  0
 56 54  1  0  0  0  0
 57 62  1  0  0  0  0
 58 59  1  0  0  0  0
 58 57  1  0  0  0  0
 59 61  1  0  0  0  0
 61 60  1  0  0  0  0
 62 60  1  0  0  0  0
 63 53  1  0  0  0  0
 64 63  1  0  0  0  0
M  END
>  <MODEL>
4

>  <REMARK>
 VINA RESULT:      -7.6      2.379     10.817
  Name = 
  17 active torsions:
  status: ('A' for Active; 'I' for Inactive)
    1  A    between atoms: C_3  and  O_38
    2  A    between atoms: C_3  and  C_58
    3  A    between atoms: C_9  and  C_54
    4  A    between atoms: C_12  and  O_38
    5  A    between atoms: C_14  and  C_35
    6  A    between atoms: C_14  and  O_48
    7  A    between atoms: C_15  and  C_51
    8  A    between atoms: C_15  and  C_52
    9  A    between atoms: N_20  and  C_58
   10  A    between atoms: C_21  and  C_23
   11  A    between atoms: C_21  and  C_28
   12  A    between atoms: C_21  and  C_60
   13  A    between atoms: N_22  and  C_44
   14  A    between atoms: C_29  and  C_35
   15  A    between atoms: C_32  and  C_36
   16  A    between atoms: C_37  and  N_50
   17  A    between atoms: O_48  and  C_51
                            x       y       z     vdW  Elec       q    Type
                         _______ _______ _______ _____ _____    ______ ____

>  <TORSDO>
F 17

$$$$
=
 OpenBabel10232410423D

 64 72  0  0  1  0  0  0  0  0999 V2000
  190.6180  176.5860  140.8300 C   0  0  0  0  0  0  0  0  0  0  0  0
  189.2570  178.4820  141.6590 S   0  0  0  0  0  0  0  0  0  0  0  0
  190.1860  177.8250  140.4200 C   0  0  0  0  0  0  0  0  0  0  0  0
  190.7290  175.9430  139.6050 N   0  0  0  0  0  0  0  0  0  0  0  0
  191.4580  176.0280  138.3320 N   0  0  0  0  0  0  0  0  0  0  0  0
  189.4390  177.1480  142.7010 C   0  0  0  0  0  0  0  0  0  0  0  0
  190.1460  176.1210  142.0570 C   0  0  0  0  0  3  0  0  0  0  0  0
  190.2070  176.4500  138.3770 C   0  0  2  0  0  3  0  0  0  0  0  0
  190.0570  177.9190  138.8730 C   0  0  1  0  0  3  0  0  0  0  0  0
  188.9320  177.1100  144.1160 C   0  0  2  0  0  3  0  0  0  0  0  0
  185.5990  178.2040  145.6240 C   0  0  0  0  0  3  0  0  0  0  0  0
  186.9120  177.7520  145.4930 C   0  0  0  0  0  3  0  0  0  0  0  0
  186.6300  177.6190  143.0900 C   0  0  0  0  0  3  0  0  0  0  0  0
  184.8000  178.3960  144.4870 C   0  0  0  0  0  0  0  0  0  0  0  0
  185.3140  178.0730  143.2230 C   0  0  0  0  0  3  0  0  0  0  0  0
  187.4580  177.4920  144.2260 C   0  0  0  0  0  0  0  0  0  0  0  0
  181.0900  179.1670  143.8710 C   0  0  0  0  0  1  0  0  0  0  0  0
  182.5440  179.0100  143.5330 C   0  0  0  0  0  0  0  0  0  0  0  0
  183.5230  179.0390  144.5770 N   0  0  0  0  0  2  0  0  0  0  0  0
  182.9060  178.9510  142.2940 N   0  0  0  0  0  2  0  0  0  0  0  0
  189.8190  177.9550  145.0110 C   0  0  0  0  0  0  0  0  0  0  0  0
  189.9910  177.6360  146.2220 O   0  0  0  0  0  0  0  0  0  0  0  0
  190.4830  179.1180  144.5140 N   0  0  0  0  0  1  0  0  0  0  0  0
  188.7240  178.4800  138.4040 C   0  0  0  0  0  2  0  0  0  0  0  0
  188.4300  178.0100  136.9950 C   0  0  0  0  0  2  0  0  0  0  0  0
  187.0450  178.0310  136.7680 O   0  0  0  0  0  0  0  0  0  0  0  0
  186.6990  176.7200  136.4740 C   0  0  2  0  0  3  0  0  0  0  0  0
  187.8000  176.1050  135.5980 C   0  0  0  0  0  1  0  0  0  0  0  0
  185.2000  176.9210  134.3790 C   0  0  0  0  0  1  0  0  0  0  0  0
  185.2790  176.6510  135.8810 C   0  0  1  0  0  3  0  0  0  0  0  0
  182.5460  176.3560  139.4350 C   0  0  2  0  0  3  0  0  0  0  0  0
  181.9040  173.6650  136.8390 C   0  0  2  0  0  3  0  0  0  0  0  0
  183.1820  175.4240  135.5080 N   0  0  0  0  0  2  0  0  0  0  0  0
  180.4450  175.2660  135.5200 O   0  0  0  0  0  1  0  0  0  0  0  0
  181.0320  176.2410  139.5540 C   0  0  0  0  0  2  0  0  0  0  0  0
  184.4300  175.4410  136.2790 C   0  0  2  0  0  3  0  0  0  0  0  0
  182.8890  177.7920  139.0640 C   0  0  0  0  0  1  0  0  0  0  0  0
  183.2980  173.0050  134.6940 C   0  0  0  0  0  1  0  0  0  0  0  0
  180.5850  175.1530  138.5840 C   0  0  1  0  0  3  0  0  0  0  0  0
  181.1070  174.0290  135.5730 C   0  0  0  0  0  0  0  0  0  0  0  0
  184.1790  175.4020  137.7190 N   0  0  0  0  0  2  0  0  0  0  0  0
  181.8370  174.7570  137.8690 C   0  0  0  0  0  0  0  0  0  0  0  0
  182.8780  175.4410  138.3140 C   0  0  0  0  0  0  0  0  0  0  0  0
  182.6240  174.0730  135.5380 C   0  0  1  0  0  0  0  0  0  0  0  0
  180.4950  172.9520  134.9340 O   0  0  0  0  0  1  0  0  0  0  0  0
  179.9930  173.9920  139.3700 C   0  0  0  0  0  2  0  0  0  0  0  0
  180.1240  174.2150  140.7940 N   0  0  0  0  0  1  0  0  0  0  0  0
  191.4580  174.7130  137.7020 C   0  0  0  0  0  2  0  0  0  0  0  0
  192.8710  174.3870  137.2310 C   0  0  0  0  0  2  0  0  0  0  0  0
  192.8700  173.1810  136.5190 O   0  0  0  0  0  0  0  0  0  0  0  0
  196.4170  175.1350  135.6130 C   0  0  0  0  0  2  0  0  0  0  0  0
  193.9320  173.2970  135.6240 C   0  0  1  0  0  3  0  0  0  0  0  0
  195.0750  175.6860  135.8640 N   0  0  0  0  0  0  0  0  0  0  0  0
  196.4260  173.6020  135.5320 C   0  0  0  0  0  2  0  0  0  0  0  0
  193.8970  174.9230  134.7700 S   0  0  0  0  0  0  0  0  0  0  0  0
  195.2630  173.0290  136.3480 C   0  0  2  0  0  3  0  0  0  0  0  0
  195.4540  171.5500  136.6610 C   0  0  0  0  0  3  0  0  0  0  0  0
  195.2400  170.6280  135.4410 C   0  0  0  0  0  2  0  0  0  0  0  0
  196.0540  169.3390  135.5340 C   0  0  0  0  0  2  0  0  0  0  0  0
  196.8950  169.8490  137.8400 C   0  0  0  0  0  2  0  0  0  0  0  0
  196.1150  168.8550  136.9700 C   0  0  0  0  0  2  0  0  0  0  0  0
  196.8000  171.3000  137.3490 C   0  0  0  0  0  2  0  0  0  0  0  0
  195.1570  177.0870  135.4700 C   0  0  0  0  0  2  0  0  0  0  0  0
  196.4960  177.4960  135.4630 O   0  0  0  0  0  1  0  0  0  0  0  0
  1  7  1  0  0  0  0
  2  6  1  0  0  0  0
  3  1  2  0  0  0  0
  3  2  1  0  0  0  0
  4  1  1  0  0  0  0
  5  4  1  0  0  0  0
  6 10  1  0  0  0  0
  7  6  2  0  0  0  0
  8  5  1  6  0  0  0
  8  9  1  0  0  0  0
  8  4  1  0  0  0  0
  9 24  1  1  0  0  0
  9  3  1  0  0  0  0
 10 16  1  0  0  0  0
 10 21  1  1  0  0  0
 12 11  1  0  0  0  0
 13 15  2  0  0  0  0
 13 16  1  0  0  0  0
 14 19  1  0  0  0  0
 14 11  2  0  0  0  0
 15 14  1  0  0  0  0
 16 12  2  0  0  0  0
 18 17  1  0  0  0  0
 18 19  1  0  0  0  0
 20 18  2  0  0  0  0
 21 22  2  0  0  0  0
 23 21  1  0  0  0  0
 25 24  1  0  0  0  0
 26 25  1  0  0  0  0
 27 28  1  6  0  0  0
 27 26  1  0  0  0  0
 30 29  1  6  0  0  0
 30 27  1  0  0  0  0
 31 37  1  6  0  0  0
 31 35  1  0  0  0  0
 32 42  1  1  0  0  0
 33 44  1  0  0  0  0
 33 36  1  0  0  0  0
 34 40  1  0  0  0  0
 36 30  1  1  0  0  0
 36 41  1  0  0  0  0
 39 46  1  1  0  0  0
 39 35  1  0  0  0  0
 40 32  1  0  0  0  0
 41 43  1  0  0  0  0
 42 43  2  0  0  0  0
 42 39  1  0  0  0  0
 43 31  1  0  0  0  0
 44 38  1  6  0  0  0
 44 40  1  0  0  0  0
 44 32  1  0  0  0  0
 45 40  1  0  0  0  0
 46 47  1  0  0  0  0
 48  5  1  0  0  0  0
 49 48  1  0  0  0  0
 50 49  1  0  0  0  0
 51 53  1  0  0  0  0
 52 56  1  0  0  0  0
 52 50  1  1  0  0  0
 54 51  1  0  0  0  0
 54 56  1  0  0  0  0
 55 52  1  0  0  0  0
 55 53  1  0  0  0  0
 56 57  1  6  0  0  0
 57 62  1  0  0  0  0
 58 59  1  0  0  0  0
 58 57  1  0  0  0  0
 59 61  1  0  0  0  0
 61 60  1  0  0  0  0
 62 60  1  0  0  0  0
 63 53  1  0  0  0  0
 64 63  1  0  0  0  0
M  END
>  <MODEL>
5

>  <REMARK>
 VINA RESULT:      -7.4      2.502     10.199
  Name = 
  17 active torsions:
  status: ('A' for Active; 'I' for Inactive)
    1  A    between atoms: C_3  and  O_38
    2  A    between atoms: C_3  and  C_58
    3  A    between atoms: C_9  and  C_54
    4  A    between atoms: C_12  and  O_38
    5  A    between atoms: C_14  and  C_35
    6  A    between atoms: C_14  and  O_48
    7  A    between atoms: C_15  and  C_51
    8  A    between atoms: C_15  and  C_52
    9  A    between atoms: N_20  and  C_58
   10  A    between atoms: C_21  and  C_23
   11  A    between atoms: C_21  and  C_28
   12  A    between atoms: C_21  and  C_60
   13  A    between atoms: N_22  and  C_44
   14  A    between atoms: C_29  and  C_35
   15  A    between atoms: C_32  and  C_36
   16  A    between atoms: C_37  and  N_50
   17  A    between atoms: O_48  and  C_51
                            x       y       z     vdW  Elec       q    Type
                         _______ _______ _______ _____ _____    ______ ____

>  <TORSDO>
F 17

$$$$
=
 OpenBabel10232410423D

 64 72  0  0  1  0  0  0  0  0999 V2000
  187.7900  174.7320  135.9940 C   0  0  0  0  0  0  0  0  0  0  0  0
  186.4960  176.3060  137.4010 S   0  0  0  0  0  0  0  0  0  0  0  0
  187.9880  175.6310  137.0160 C   0  0  0  0  0  0  0  0  0  0  0  0
  189.0270  174.7940  135.3660 N   0  0  0  0  0  0  0  0  0  0  0  0
  190.4510  174.5400  135.6210 N   0  0  0  0  0  0  0  0  0  0  0  0
  185.6280  175.4170  136.2370 C   0  0  0  0  0  0  0  0  0  0  0  0
  186.5060  174.6490  135.4570 C   0  0  0  0  0  3  0  0  0  0  0  0
  190.0180  175.7880  135.6310 C   0  0  2  0  0  3  0  0  0  0  0  0
  189.4200  176.2350  136.9980 C   0  0  1  0  0  3  0  0  0  0  0  0
  184.1300  175.4430  136.1030 C   0  0  2  0  0  3  0  0  0  0  0  0
  182.8300  176.4220  139.5580 C   0  0  0  0  0  3  0  0  0  0  0  0
  183.3480  175.6820  138.4940 C   0  0  0  0  0  3  0  0  0  0  0  0
  182.9480  177.5450  136.9970 C   0  0  0  0  0  3  0  0  0  0  0  0
  182.3940  177.7400  139.3550 C   0  0  0  0  0  0  0  0  0  0  0  0
  182.4300  178.2860  138.0640 C   0  0  0  0  0  3  0  0  0  0  0  0
  183.4520  176.2440  137.2120 C   0  0  0  0  0  0  0  0  0  0  0  0
  180.2580  179.8000  141.7920 C   0  0  0  0  0  1  0  0  0  0  0  0
  180.8800  179.4200  140.4790 C   0  0  0  0  0  0  0  0  0  0  0  0
  182.0410  178.5830  140.4590 N   0  0  0  0  0  2  0  0  0  0  0  0
  180.4200  179.9330  139.3860 N   0  0  0  0  0  2  0  0  0  0  0  0
  183.5910  174.0290  135.9960 C   0  0  0  0  0  0  0  0  0  0  0  0
  183.0270  173.6410  134.9340 O   0  0  0  0  0  0  0  0  0  0  0  0
  183.7120  173.1040  137.0790 N   0  0  0  0  0  1  0  0  0  0  0  0
  189.4450  177.7530  137.0920 C   0  0  0  0  0  2  0  0  0  0  0  0
  189.5740  178.1810  138.5380 C   0  0  0  0  0  2  0  0  0  0  0  0
  188.3680  178.7550  138.9710 O   0  0  0  0  0  0  0  0  0  0  0  0
  188.2750  178.4470  140.3200 C   0  0  2  0  0  3  0  0  0  0  0  0
  188.6480  176.9700  140.5130 C   0  0  0  0  0  1  0  0  0  0  0  0
  185.7800  178.9150  139.8370 C   0  0  0  0  0  1  0  0  0  0  0  0
  186.8970  178.8500  140.8780 C   0  0  1  0  0  3  0  0  0  0  0  0
  189.5190  177.4360  144.2410 C   0  0  2  0  0  3  0  0  0  0  0  0
  185.8480  177.5980  145.1860 C   0  0  2  0  0  3  0  0  0  0  0  0
  185.9580  179.1080  143.1350 N   0  0  0  0  0  2  0  0  0  0  0  0
  186.0750  180.0700  145.6990 O   0  0  0  0  0  1  0  0  0  0  0  0
  189.6470  177.8780  145.6930 C   0  0  0  0  0  2  0  0  0  0  0  0
  186.4390  178.1320  142.1500 C   0  0  2  0  0  3  0  0  0  0  0  0
  190.1890  178.4830  143.3620 C   0  0  0  0  0  1  0  0  0  0  0  0
  183.7200  178.0010  143.6730 C   0  0  0  0  0  1  0  0  0  0  0  0
  188.2350  177.9650  146.2640 C   0  0  1  0  0  3  0  0  0  0  0  0
  185.2270  178.9650  145.5220 C   0  0  0  0  0  0  0  0  0  0  0  0
  187.4880  177.2760  142.7010 N   0  0  0  0  0  2  0  0  0  0  0  0
  187.3460  177.6760  145.0980 C   0  0  0  0  0  0  0  0  0  0  0  0
  188.0530  177.4280  144.0070 C   0  0  0  0  0  0  0  0  0  0  0  0
  185.1120  178.4210  144.1100 C   0  0  1  0  0  0  0  0  0  0  0  0
  184.0790  178.9110  146.3100 O   0  0  0  0  0  1  0  0  0  0  0  0
  188.0750  176.9290  147.3670 C   0  0  0  0  0  2  0  0  0  0  0  0
  187.3140  177.4680  148.4720 N   0  0  0  0  0  1  0  0  0  0  0  0
  191.1240  174.3160  134.3460 C   0  0  0  0  0  2  0  0  0  0  0  0
  192.6310  174.3940  134.5590 C   0  0  0  0  0  2  0  0  0  0  0  0
  193.1250  173.1380  134.9340 O   0  0  0  0  0  0  0  0  0  0  0  0
  194.7370  174.1660  138.6170 C   0  0  0  0  0  2  0  0  0  0  0  0
  194.2870  173.4140  135.6530 C   0  0  1  0  0  3  0  0  0  0  0  0
  193.7050  174.8460  137.8170 N   0  0  0  0  0  0  0  0  0  0  0  0
  195.3940  172.9960  137.8720 C   0  0  0  0  0  2  0  0  0  0  0  0
  194.3300  175.1720  136.1830 S   0  0  0  0  0  0  0  0  0  0  0  0
  194.4240  172.4300  136.8290 C   0  0  2  0  0  3  0  0  0  0  0  0
  194.8290  171.0370  136.3620 C   0  0  0  0  0  3  0  0  0  0  0  0
  195.8600  170.3520  137.2870 C   0  0  0  0  0  2  0  0  0  0  0  0
  195.7480  168.8300  137.2560 C   0  0  0  0  0  2  0  0  0  0  0  0
  194.0060  168.8330  135.4530 C   0  0  0  0  0  2  0  0  0  0  0  0
  195.4050  168.3530  135.8580 C   0  0  0  0  0  2  0  0  0  0  0  0
  193.5980  170.1590  136.1120 C   0  0  0  0  0  2  0  0  0  0  0  0
  193.5210  176.1440  138.4540 C   0  0  0  0  0  2  0  0  0  0  0  0
  193.7200  177.1630  137.5150 O   0  0  0  0  0  1  0  0  0  0  0  0
  1  3  2  0  0  0  0
  3  2  1  0  0  0  0
  4  5  1  0  0  0  0
  4  1  1  0  0  0  0
  5  8  1  0  0  0  0
  6  2  1  0  0  0  0
  7  1  1  0  0  0  0
  7  6  2  0  0  0  0
  8  4  1  6  0  0  0
  8  9  1  0  0  0  0
  9  3  1  0  0  0  0
  9 24  1  6  0  0  0
 10 21  1  1  0  0  0
 10  6  1  0  0  0  0
 10 16  1  0  0  0  0
 12 11  2  0  0  0  0
 13 16  2  0  0  0  0
 13 15  1  0  0  0  0
 14 11  1  0  0  0  0
 14 19  1  0  0  0  0
 15 14  2  0  0  0  0
 16 12  1  0  0  0  0
 18 17  1  0  0  0  0
 19 18  1  0  0  0  0
 20 18  2  0  0  0  0
 21 23  1  0  0  0  0
 22 21  2  0  0  0  0
 24 25  1  0  0  0  0
 25 26  1  0  0  0  0
 26 27  1  0  0  0  0
 27 28  1  6  0  0  0
 27 30  1  0  0  0  0
 30 29  1  6  0  0  0
 31 37  1  6  0  0  0
 31 35  1  0  0  0  0
 32 42  1  6  0  0  0
 32 40  1  0  0  0  0
 33 44  1  0  0  0  0
 35 39  1  0  0  0  0
 36 30  1  6  0  0  0
 36 41  1  0  0  0  0
 36 33  1  0  0  0  0
 39 46  1  1  0  0  0
 40 34  1  0  0  0  0
 40 45  1  0  0  0  0
 41 43  1  0  0  0  0
 42 39  1  0  0  0  0
 43 31  1  0  0  0  0
 43 42  2  0  0  0  0
 44 38  1  6  0  0  0
 44 32  1  0  0  0  0
 44 40  1  0  0  0  0
 46 47  1  0  0  0  0
 48 49  1  0  0  0  0
 48  5  1  0  0  0  0
 49 50  1  0  0  0  0
 52 50  1  1  0  0  0
 52 55  1  0  0  0  0
 52 56  1  0  0  0  0
 53 63  1  0  0  0  0
 53 51  1  0  0  0  0
 54 51  1  0  0  0  0
 55 53  1  0  0  0  0
 56 57  1  6  0  0  0
 56 54  1  0  0  0  0
 57 58  1  0  0  0  0
 59 58  1  0  0  0  0
 60 61  1  0  0  0  0
 60 62  1  0  0  0  0
 61 59  1  0  0  0  0
 62 57  1  0  0  0  0
 64 63  1  0  0  0  0
M  END
>  <MODEL>
6

>  <REMARK>
 VINA RESULT:      -7.0      2.518     10.638
  Name = 
  17 active torsions:
  status: ('A' for Active; 'I' for Inactive)
    1  A    between atoms: C_3  and  O_38
    2  A    between atoms: C_3  and  C_58
    3  A    between atoms: C_9  and  C_54
    4  A    between atoms: C_12  and  O_38
    5  A    between atoms: C_14  and  C_35
    6  A    between atoms: C_14  and  O_48
    7  A    between atoms: C_15  and  C_51
    8  A    between atoms: C_15  and  C_52
    9  A    between atoms: N_20  and  C_58
   10  A    between atoms: C_21  and  C_23
   11  A    between atoms: C_21  and  C_28
   12  A    between atoms: C_21  and  C_60
   13  A    between atoms: N_22  and  C_44
   14  A    between atoms: C_29  and  C_35
   15  A    between atoms: C_32  and  C_36
   16  A    between atoms: C_37  and  N_50
   17  A    between atoms: O_48  and  C_51
                            x       y       z     vdW  Elec       q    Type
                         _______ _______ _______ _____ _____    ______ ____

>  <TORSDO>
F 17

$$$$
=
 OpenBabel10232410423D

 64 72  0  0  1  0  0  0  0  0999 V2000
  187.8510  173.0350  135.7880 C   0  0  0  0  0  0  0  0  0  0  0  0
  186.3350  174.9850  135.9680 S   0  0  0  0  0  0  0  0  0  0  0  0
  187.8940  174.3690  136.1160 C   0  0  0  0  0  0  0  0  0  0  0  0
  189.1390  172.8570  135.3010 N   0  0  0  0  0  0  0  0  0  0  0  0
  190.5420  172.9420  135.7270 N   0  0  0  0  0  0  0  0  0  0  0  0
  185.6390  173.5080  135.4850 C   0  0  0  0  0  0  0  0  0  0  0  0
  186.6340  172.5290  135.3330 C   0  0  0  0  0  3  0  0  0  0  0  0
  190.0400  173.9210  134.9960 C   0  0  2  0  0  3  0  0  0  0  0  0
  189.2840  175.0010  135.8270 C   0  0  1  0  0  3  0  0  0  0  0  0
  184.1640  173.2980  135.2860 C   0  0  2  0  0  3  0  0  0  0  0  0
  182.8680  175.1650  138.3550 C   0  0  0  0  0  3  0  0  0  0  0  0
  183.5510  174.2620  137.5410 C   0  0  0  0  0  3  0  0  0  0  0  0
  182.3100  175.0510  135.6150 C   0  0  0  0  0  3  0  0  0  0  0  0
  181.9210  176.0400  137.8000 C   0  0  0  0  0  0  0  0  0  0  0  0
  181.6260  175.9560  136.4320 C   0  0  0  0  0  3  0  0  0  0  0  0
  183.3140  174.2190  136.1580 C   0  0  0  0  0  0  0  0  0  0  0  0
  180.7730  178.0840  140.8400 C   0  0  0  0  0  1  0  0  0  0  0  0
  180.8080  176.9260  139.8870 C   0  0  0  0  0  0  0  0  0  0  0  0
  181.3500  177.1020  138.5730 N   0  0  0  0  0  2  0  0  0  0  0  0
  180.2570  175.8070  140.2250 N   0  0  0  0  0  2  0  0  0  0  0  0
  183.8150  171.8340  135.4770 C   0  0  0  0  0  0  0  0  0  0  0  0
  183.6020  171.0940  134.4740 O   0  0  0  0  0  0  0  0  0  0  0  0
  183.7260  171.2550  136.7800 N   0  0  0  0  0  1  0  0  0  0  0  0
  189.2140  176.2960  135.0320 C   0  0  0  0  0  2  0  0  0  0  0  0
  189.1030  177.4760  135.9730 C   0  0  0  0  0  2  0  0  0  0  0  0
  188.1390  177.2070  136.9580 O   0  0  0  0  0  0  0  0  0  0  0  0
  188.4320  178.0690  138.0050 C   0  0  2  0  0  3  0  0  0  0  0  0
  189.3570  179.1790  137.4850 C   0  0  0  0  0  1  0  0  0  0  0  0
  190.3800  176.7270  139.0470 C   0  0  0  0  0  1  0  0  0  0  0  0
  188.9690  177.2880  139.2200 C   0  0  1  0  0  3  0  0  0  0  0  0
  185.1680  179.0100  140.8850 C   0  0  2  0  0  3  0  0  0  0  0  0
  187.8160  178.4170  143.5350 C   0  0  2  0  0  3  0  0  0  0  0  0
  188.6030  176.9260  141.6240 N   0  0  0  0  0  2  0  0  0  0  0  0
  187.1060  175.9900  143.7200 O   0  0  0  0  0  1  0  0  0  0  0  0
  184.2770  178.5910  142.0470 C   0  0  0  0  0  2  0  0  0  0  0  0
  188.7910  177.9500  140.5890 C   0  0  2  0  0  3  0  0  0  0  0  0
  184.9310  178.0490  139.7280 C   0  0  0  0  0  1  0  0  0  0  0  0
  190.3620  177.7610  143.2780 C   0  0  0  0  0  1  0  0  0  0  0  0
  185.1880  178.3380  143.2430 C   0  0  1  0  0  3  0  0  0  0  0  0
  188.0360  176.9860  144.0580 C   0  0  0  0  0  0  0  0  0  0  0  0
  187.7020  178.9250  140.5860 N   0  0  0  0  0  2  0  0  0  0  0  0
  186.5700  178.5170  142.7020 C   0  0  0  0  0  0  0  0  0  0  0  0
  186.5420  178.8440  141.4200 C   0  0  0  0  0  0  0  0  0  0  0  0
  188.9050  177.5090  142.9300 C   0  0  1  0  0  0  0  0  0  0  0  0
  188.6260  176.9050  145.3190 O   0  0  0  0  0  1  0  0  0  0  0  0
  184.8740  179.3500  144.3360 C   0  0  0  0  0  2  0  0  0  0  0  0
  184.2300  178.7090  145.4610 N   0  0  0  0  0  1  0  0  0  0  0  0
  191.3510  172.1050  134.8470 C   0  0  0  0  0  2  0  0  0  0  0  0
  192.7150  172.7580  134.6560 C   0  0  0  0  0  2  0  0  0  0  0  0
  193.7030  171.7730  134.5400 O   0  0  0  0  0  0  0  0  0  0  0  0
  195.3960  174.4950  137.1750 C   0  0  0  0  0  2  0  0  0  0  0  0
  194.8750  172.3930  134.9700 C   0  0  1  0  0  3  0  0  0  0  0  0
  194.3000  174.6760  136.2080 N   0  0  0  0  0  0  0  0  0  0  0  0
  196.0850  173.1290  137.0480 C   0  0  0  0  0  2  0  0  0  0  0  0
  194.8460  174.1890  134.5850 S   0  0  0  0  0  0  0  0  0  0  0  0
  195.1070  172.1040  136.4630 C   0  0  2  0  0  3  0  0  0  0  0  0
  195.5670  170.6710  136.7010 C   0  0  0  0  0  3  0  0  0  0  0  0
  197.0550  170.4350  136.3630 C   0  0  0  0  0  2  0  0  0  0  0  0
  197.6710  169.3120  137.1950 C   0  0  0  0  0  2  0  0  0  0  0  0
  195.4940  168.7050  138.2800 C   0  0  0  0  0  2  0  0  0  0  0  0
  196.6610  168.2040  137.4180 C   0  0  0  0  0  2  0  0  0  0  0  0
  195.2120  170.2050  138.1180 C   0  0  0  0  0  2  0  0  0  0  0  0
  194.0730  176.1140  136.1520 C   0  0  0  0  0  2  0  0  0  0  0  0
  193.5650  176.4630  134.8950 O   0  0  0  0  0  1  0  0  0  0  0  0
  1  3  2  0  0  0  0
  2  3  1  0  0  0  0
  4  5  1  0  0  0  0
  4  1  1  0  0  0  0
  6  2  1  0  0  0  0
  7  6  2  0  0  0  0
  7  1  1  0  0  0  0
  8  4  1  6  0  0  0
  8  5  1  0  0  0  0
  8  9  1  0  0  0  0
  9 24  1  6  0  0  0
  9  3  1  0  0  0  0
 10 21  1  1  0  0  0
 10  6  1  0  0  0  0
 10 16  1  0  0  0  0
 12 11  2  0  0  0  0
 13 16  2  0  0  0  0
 13 15  1  0  0  0  0
 14 11  1  0  0  0  0
 14 19  1  0  0  0  0
 15 14  2  0  0  0  0
 16 12  1  0  0  0  0
 18 20  2  0  0  0  0
 18 17  1  0  0  0  0
 19 18  1  0  0  0  0
 21 23  1  0  0  0  0
 22 21  2  0  0  0  0
 24 25  1  0  0  0  0
 25 26  1  0  0  0  0
 26 27  1  0  0  0  0
 27 28  1  6  0  0  0
 27 30  1  0  0  0  0
 30 29  1  6  0  0  0
 31 37  1  6  0  0  0
 31 43  1  0  0  0  0
 31 35  1  0  0  0  0
 32 42  1  6  0  0  0
 32 40  1  0  0  0  0
 33 44  1  0  0  0  0
 34 40  1  0  0  0  0
 35 39  1  0  0  0  0
 36 30  1  6  0  0  0
 36 33  1  0  0  0  0
 39 46  1  1  0  0  0
 40 45  1  0  0  0  0
 41 36  1  0  0  0  0
 41 43  1  0  0  0  0
 42 39  1  0  0  0  0
 43 42  2  0  0  0  0
 44 38  1  1  0  0  0
 44 32  1  0  0  0  0
 44 40  1  0  0  0  0
 46 47  1  0  0  0  0
 48  5  1  0  0  0  0
 49 48  1  0  0  0  0
 50 49  1  0  0  0  0
 52 50  1  1  0  0  0
 52 56  1  0  0  0  0
 53 51  1  0  0  0  0
 54 51  1  0  0  0  0
 55 52  1  0  0  0  0
 55 53  1  0  0  0  0
 56 57  1  6  0  0  0
 56 54  1  0  0  0  0
 57 62  1  0  0  0  0
 58 57  1  0  0  0  0
 58 59  1  0  0  0  0
 59 61  1  0  0  0  0
 61 60  1  0  0  0  0
 62 60  1  0  0  0  0
 63 53  1  0  0  0  0
 64 63  1  0  0  0  0
M  END
>  <MODEL>
7

>  <REMARK>
 VINA RESULT:      -6.8      2.573     10.860
  Name = 
  17 active torsions:
  status: ('A' for Active; 'I' for Inactive)
    1  A    between atoms: C_3  and  O_38
    2  A    between atoms: C_3  and  C_58
    3  A    between atoms: C_9  and  C_54
    4  A    between atoms: C_12  and  O_38
    5  A    between atoms: C_14  and  C_35
    6  A    between atoms: C_14  and  O_48
    7  A    between atoms: C_15  and  C_51
    8  A    between atoms: C_15  and  C_52
    9  A    between atoms: N_20  and  C_58
   10  A    between atoms: C_21  and  C_23
   11  A    between atoms: C_21  and  C_28
   12  A    between atoms: C_21  and  C_60
   13  A    between atoms: N_22  and  C_44
   14  A    between atoms: C_29  and  C_35
   15  A    between atoms: C_32  and  C_36
   16  A    between atoms: C_37  and  N_50
   17  A    between atoms: O_48  and  C_51
                            x       y       z     vdW  Elec       q    Type
                         _______ _______ _______ _____ _____    ______ ____

>  <TORSDO>
F 17

$$$$
=
 OpenBabel10232410423D

 64 72  0  0  1  0  0  0  0  0999 V2000
  191.6070  175.9180  138.5770 C   0  0  0  0  0  0  0  0  0  0  0  0
  190.8230  175.9970  136.2300 S   0  0  0  0  0  0  0  0  0  0  0  0
  190.4450  176.1010  137.8650 C   0  0  0  0  0  0  0  0  0  0  0  0
  191.3210  176.6620  139.7140 N   0  0  0  0  0  0  0  0  0  0  0  0
  190.3740  176.7170  140.8350 N   0  0  0  0  0  0  0  0  0  0  0  0
  192.4830  175.7150  136.4800 C   0  0  0  0  0  0  0  0  0  0  0  0
  192.7890  175.7980  137.8480 C   0  0  0  0  0  3  0  0  0  0  0  0
  190.2210  177.5640  139.8330 C   0  0  2  0  0  3  0  0  0  0  0  0
  189.4170  176.9790  138.6330 C   0  0  1  0  0  3  0  0  0  0  0  0
  193.4580  175.3940  135.3820 C   0  0  2  0  0  3  0  0  0  0  0  0
  195.5940  172.2610  134.9300 C   0  0  0  0  0  3  0  0  0  0  0  0
  195.1340  173.5760  134.8590 C   0  0  0  0  0  3  0  0  0  0  0  0
  193.0460  172.9070  135.8910 C   0  0  0  0  0  3  0  0  0  0  0  0
  194.7950  171.2630  135.5090 C   0  0  0  0  0  0  0  0  0  0  0  0
  193.5080  171.5890  135.9620 C   0  0  0  0  0  3  0  0  0  0  0  0
  193.8760  173.9260  135.3740 C   0  0  0  0  0  0  0  0  0  0  0  0
  196.1670  168.2340  137.4280 C   0  0  0  0  0  1  0  0  0  0  0  0
  196.1430  169.6360  136.8930 C   0  0  0  0  0  0  0  0  0  0  0  0
  195.3150  169.9540  135.7680 N   0  0  0  0  0  2  0  0  0  0  0  0
  196.9440  170.5210  137.3890 N   0  0  0  0  0  2  0  0  0  0  0  0
  194.6470  176.3350  135.4470 C   0  0  0  0  0  0  0  0  0  0  0  0
  195.6160  176.0840  136.2190 O   0  0  0  0  0  0  0  0  0  0  0  0
  194.7070  177.5130  134.6410 N   0  0  0  0  0  1  0  0  0  0  0  0
  188.8450  178.1170  137.8020 C   0  0  0  0  0  2  0  0  0  0  0  0
  187.5350  177.6920  137.1740 C   0  0  0  0  0  2  0  0  0  0  0  0
  187.7680  176.6790  136.2310 O   0  0  0  0  0  0  0  0  0  0  0  0
  186.5110  176.2610  135.8200 C   0  0  2  0  0  3  0  0  0  0  0  0
  186.6700  175.3800  134.5720 C   0  0  0  0  0  1  0  0  0  0  0  0
  185.7400  178.2390  134.3460 C   0  0  0  0  0  1  0  0  0  0  0  0
  185.5640  177.4650  135.6520 C   0  0  1  0  0  3  0  0  0  0  0  0
  183.4970  173.4800  135.8390 C   0  0  2  0  0  3  0  0  0  0  0  0
  181.5120  176.2620  137.4850 C   0  0  2  0  0  3  0  0  0  0  0  0
  183.8690  177.2300  137.4170 N   0  0  0  0  0  2  0  0  0  0  0  0
  182.8440  175.9660  139.6220 O   0  0  0  0  0  1  0  0  0  0  0  0
  182.8750  172.7030  136.9920 C   0  0  0  0  0  2  0  0  0  0  0  0
  184.0860  177.2190  135.9650 C   0  0  2  0  0  3  0  0  0  0  0  0
  185.0120  173.3720  135.9500 C   0  0  0  0  0  1  0  0  0  0  0  0
  181.9140  178.8730  137.4740 C   0  0  0  0  0  1  0  0  0  0  0  0
  181.9920  173.6760  137.7650 C   0  0  1  0  0  3  0  0  0  0  0  0
  181.9160  176.7290  138.8950 C   0  0  0  0  0  0  0  0  0  0  0  0
  183.5970  175.9850  135.3530 N   0  0  0  0  0  2  0  0  0  0  0  0
  182.2180  174.9940  137.0980 C   0  0  0  0  0  0  0  0  0  0  0  0
  183.0600  174.8770  136.0830 C   0  0  0  0  0  0  0  0  0  0  0  0
  182.4520  177.4690  137.6830 C   0  0  1  0  0  0  0  0  0  0  0  0
  180.9040  177.3580  139.6180 O   0  0  0  0  0  1  0  0  0  0  0  0
  180.5410  173.2300  137.6570 C   0  0  0  0  0  2  0  0  0  0  0  0
  180.1810  172.3770  138.7690 N   0  0  0  0  0  1  0  0  0  0  0  0
  190.9920  177.4440  141.9380 C   0  0  0  0  0  2  0  0  0  0  0  0
  189.9650  178.3940  142.5440 C   0  0  0  0  0  2  0  0  0  0  0  0
  190.2700  178.6290  143.8900 O   0  0  0  0  0  0  0  0  0  0  0  0
  190.1500  176.5820  147.4970 C   0  0  0  0  0  2  0  0  0  0  0  0
  189.8370  177.4850  144.5580 C   0  0  1  0  0  3  0  0  0  0  0  0
  191.3060  177.0880  146.7390 N   0  0  0  0  0  0  0  0  0  0  0  0
  188.8280  176.7180  146.7290 C   0  0  0  0  0  2  0  0  0  0  0  0
  191.2620  176.4500  145.0790 S   0  0  0  0  0  0  0  0  0  0  0  0
  188.9200  177.8760  145.7310 C   0  0  2  0  0  3  0  0  0  0  0  0
  187.5480  178.3340  145.2530 C   0  0  0  0  0  3  0  0  0  0  0  0
  187.1780  177.8150  143.8460 C   0  0  0  0  0  2  0  0  0  0  0  0
  185.6700  177.6640  143.6590 C   0  0  0  0  0  2  0  0  0  0  0  0
  185.1300  178.6600  145.8950 C   0  0  0  0  0  2  0  0  0  0  0  0
  184.9340  178.7770  144.3780 C   0  0  0  0  0  2  0  0  0  0  0  0
  186.4670  178.0170  146.2920 C   0  0  0  0  0  2  0  0  0  0  0  0
  192.4730  176.4940  147.3790 C   0  0  0  0  0  2  0  0  0  0  0  0
  192.6050  176.9970  148.6790 O   0  0  0  0  0  1  0  0  0  0  0  0
  1  4  1  0  0  0  0
  2  6  1  0  0  0  0
  2  3  1  0  0  0  0
  3  1  2  0  0  0  0
  3  9  1  0  0  0  0
  4  5  1  0  0  0  0
  5 48  1  0  0  0  0
  6  7  2  0  0  0  0
  7  1  1  0  0  0  0
  8  4  1  6  0  0  0
  8  5  1  0  0  0  0
  9 24  1  6  0  0  0
  9  8  1  0  0  0  0
 10 21  1  1  0  0  0
 10  6  1  0  0  0  0
 11 14  1  0  0  0  0
 12 11  2  0  0  0  0
 12 16  1  0  0  0  0
 13 15  1  0  0  0  0
 14 19  1  0  0  0  0
 14 15  2  0  0  0  0
 16 10  1  0  0  0  0
 16 13  2  0  0  0  0
 18 20  2  0  0  0  0
 18 17  1  0  0  0  0
 19 18  1  0  0  0  0
 21 22  2  0  0  0  0
 23 21  1  0  0  0  0
 25 24  1  0  0  0  0
 26 25  1  0  0  0  0
 27 28  1  6  0  0  0
 27 26  1  0  0  0  0
 30 29  1  6  0  0  0
 30 27  1  0  0  0  0
 31 37  1  1  0  0  0
 31 43  1  0  0  0  0
 31 35  1  0  0  0  0
 32 42  1  6  0  0  0
 32 44  1  0  0  0  0
 32 40  1  0  0  0  0
 33 44  1  0  0  0  0
 35 39  1  0  0  0  0
 36 30  1  1  0  0  0
 36 33  1  0  0  0  0
 39 46  1  6  0  0  0
 40 45  1  0  0  0  0
 40 34  1  0  0  0  0
 41 36  1  0  0  0  0
 41 43  1  0  0  0  0
 42 39  1  0  0  0  0
 43 42  2  0  0  0  0
 44 38  1  6  0  0  0
 44 40  1  0  0  0  0
 46 47  1  0  0  0  0
 48 49  1  0  0  0  0
 49 50  1  0  0  0  0
 52 50  1  1  0  0  0
 52 55  1  0  0  0  0
 52 56  1  0  0  0  0
 53 63  1  0  0  0  0
 53 51  1  0  0  0  0
 54 51  1  0  0  0  0
 55 53  1  0  0  0  0
 56 57  1  6  0  0  0
 56 54  1  0  0  0  0
 57 62  1  0  0  0  0
 58 57  1  0  0  0  0
 59 58  1  0  0  0  0
 59 61  1  0  0  0  0
 60 62  1  0  0  0  0
 61 60  1  0  0  0  0
 63 64  1  0  0  0  0
M  END
>  <MODEL>
8

>  <REMARK>
 VINA RESULT:      -6.7      2.600     11.559
  Name = 
  17 active torsions:
  status: ('A' for Active; 'I' for Inactive)
    1  A    between atoms: C_3  and  O_38
    2  A    between atoms: C_3  and  C_58
    3  A    between atoms: C_9  and  C_54
    4  A    between atoms: C_12  and  O_38
    5  A    between atoms: C_14  and  C_35
    6  A    between atoms: C_14  and  O_48
    7  A    between atoms: C_15  and  C_51
    8  A    between atoms: C_15  and  C_52
    9  A    between atoms: N_20  and  C_58
   10  A    between atoms: C_21  and  C_23
   11  A    between atoms: C_21  and  C_28
   12  A    between atoms: C_21  and  C_60
   13  A    between atoms: N_22  and  C_44
   14  A    between atoms: C_29  and  C_35
   15  A    between atoms: C_32  and  C_36
   16  A    between atoms: C_37  and  N_50
   17  A    between atoms: O_48  and  C_51
                            x       y       z     vdW  Elec       q    Type
                         _______ _______ _______ _____ _____    ______ ____

>  <TORSDO>
F 17

$$$$
=
 OpenBabel10232410423D

 64 72  0  0  1  0  0  0  0  0999 V2000
  191.5980  175.8190  138.8000 C   0  0  0  0  0  0  0  0  0  0  0  0
  191.1650  176.0100  136.3700 S   0  0  0  0  0  0  0  0  0  0  0  0
  190.5540  176.0550  137.9370 C   0  0  0  0  0  0  0  0  0  0  0  0
  191.1620  176.5220  139.9150 N   0  0  0  0  0  0  0  0  0  0  0  0
  190.0620  176.5510  140.8890 N   0  0  0  0  0  0  0  0  0  0  0  0
  192.7660  175.6830  136.8460 C   0  0  0  0  0  0  0  0  0  0  0  0
  192.8710  175.7030  138.2450 C   0  0  0  0  0  3  0  0  0  0  0  0
  190.0690  177.4420  139.9130 C   0  0  2  0  0  3  0  0  0  0  0  0
  189.4400  176.9230  138.5850 C   0  0  1  0  0  3  0  0  0  0  0  0
  193.8860  175.3860  135.8860 C   0  0  2  0  0  3  0  0  0  0  0  0
  194.9500  171.8340  134.9750 C   0  0  0  0  0  3  0  0  0  0  0  0
  194.3770  173.1050  134.9170 C   0  0  0  0  0  3  0  0  0  0  0  0
  194.9840  173.4890  137.2310 C   0  0  0  0  0  3  0  0  0  0  0  0
  195.5710  171.3920  136.1530 C   0  0  0  0  0  0  0  0  0  0  0  0
  195.5580  172.2150  137.2880 C   0  0  0  0  0  3  0  0  0  0  0  0
  194.4210  173.9630  136.0260 C   0  0  0  0  0  0  0  0  0  0  0  0
  198.4920  168.9690  136.7360 C   0  0  0  0  0  1  0  0  0  0  0  0
  197.7630  170.1370  136.1370 C   0  0  0  0  0  0  0  0  0  0  0  0
  196.3320  170.1780  136.1800 N   0  0  0  0  0  2  0  0  0  0  0  0
  198.4270  171.0440  135.5010 N   0  0  0  0  0  2  0  0  0  0  0  0
  194.9770  176.4320  136.0180 C   0  0  0  0  0  0  0  0  0  0  0  0
  196.1800  176.0800  136.1810 O   0  0  0  0  0  0  0  0  0  0  0  0
  194.6790  177.8280  135.9530 N   0  0  0  0  0  1  0  0  0  0  0  0
  189.0110  178.1060  137.7300 C   0  0  0  0  0  2  0  0  0  0  0  0
  187.6110  177.8820  137.2000 C   0  0  0  0  0  2  0  0  0  0  0  0
  187.5780  176.7040  136.4360 O   0  0  0  0  0  0  0  0  0  0  0  0
  186.3780  176.0870  136.7610 C   0  0  2  0  0  3  0  0  0  0  0  0
  186.5110  174.5810  136.4940 C   0  0  0  0  0  1  0  0  0  0  0  0
  184.3840  175.8600  135.1330 C   0  0  0  0  0  1  0  0  0  0  0  0
  185.2000  176.7750  136.0440 C   0  0  1  0  0  3  0  0  0  0  0  0
  181.2410  175.6190  137.8260 C   0  0  2  0  0  3  0  0  0  0  0  0
  182.7370  178.7210  139.4160 C   0  0  2  0  0  3  0  0  0  0  0  0
  184.7590  177.6410  138.3020 N   0  0  0  0  0  2  0  0  0  0  0  0
  184.1460  177.2730  140.9480 O   0  0  0  0  0  1  0  0  0  0  0  0
  180.7880  175.4120  139.2650 C   0  0  0  0  0  2  0  0  0  0  0  0
  184.2980  177.6590  136.9090 C   0  0  2  0  0  3  0  0  0  0  0  0
  182.0820  174.4190  137.4120 C   0  0  0  0  0  1  0  0  0  0  0  0
  184.8260  180.1660  138.6890 C   0  0  0  0  0  1  0  0  0  0  0  0
  181.2810  176.6110  140.0680 C   0  0  1  0  0  3  0  0  0  0  0  0
  183.8650  178.5560  140.4510 C   0  0  0  0  0  0  0  0  0  0  0  0
  182.8910  177.2750  136.7980 N   0  0  0  0  0  2  0  0  0  0  0  0
  182.0850  177.4070  139.0920 C   0  0  0  0  0  0  0  0  0  0  0  0
  182.0830  176.8390  137.8960 C   0  0  0  0  0  0  0  0  0  0  0  0
  184.2180  178.8080  138.9970 C   0  0  1  0  0  0  0  0  0  0  0  0
  184.0180  179.6270  141.3290 O   0  0  0  0  0  1  0  0  0  0  0  0
  180.0830  177.3950  140.5850 C   0  0  0  0  0  2  0  0  0  0  0  0
  180.2790  177.7840  141.9640 N   0  0  0  0  0  1  0  0  0  0  0  0
  190.5250  177.2200  142.1000 C   0  0  0  0  0  2  0  0  0  0  0  0
  189.5750  178.3680  142.4270 C   0  0  0  0  0  2  0  0  0  0  0  0
  189.6740  178.6950  143.7840 O   0  0  0  0  0  0  0  0  0  0  0  0
  189.9070  176.4730  147.2810 C   0  0  0  0  0  2  0  0  0  0  0  0
  189.2550  177.5480  144.4570 C   0  0  1  0  0  3  0  0  0  0  0  0
  190.9810  176.9420  146.3880 N   0  0  0  0  0  0  0  0  0  0  0  0
  188.5050  176.7350  146.7140 C   0  0  0  0  0  2  0  0  0  0  0  0
  190.6600  176.3960  144.7250 S   0  0  0  0  0  0  0  0  0  0  0  0
  188.5410  177.9350  145.7640 C   0  0  2  0  0  3  0  0  0  0  0  0
  187.1520  178.5070  145.5060 C   0  0  0  0  0  3  0  0  0  0  0  0
  186.5480  178.0750  144.1510 C   0  0  0  0  0  2  0  0  0  0  0  0
  185.0220  178.0370  144.1800 C   0  0  0  0  0  2  0  0  0  0  0  0
  184.8820  178.9690  146.5030 C   0  0  0  0  0  2  0  0  0  0  0  0
  184.4800  179.1660  145.0350 C   0  0  0  0  0  2  0  0  0  0  0  0
  186.2100  178.2200  146.6800 C   0  0  0  0  0  2  0  0  0  0  0  0
  192.1790  176.2390  146.8290 C   0  0  0  0  0  2  0  0  0  0  0  0
  192.3910  176.4800  148.1920 O   0  0  0  0  0  1  0  0  0  0  0  0
  1  4  1  0  0  0  0
  2  6  1  0  0  0  0
  2  3  1  0  0  0  0
  3  9  1  0  0  0  0
  3  1  2  0  0  0  0
  4  5  1  0  0  0  0
  5 48  1  0  0  0  0
  6  7  2  0  0  0  0
  7  1  1  0  0  0  0
  8  4  1  6  0  0  0
  8  5  1  0  0  0  0
  9 24  1  6  0  0  0
  9  8  1  0  0  0  0
 10 21  1  1  0  0  0
 10 16  1  0  0  0  0
 10  6  1  0  0  0  0
 11 14  1  0  0  0  0
 12 11  2  0  0  0  0
 12 16  1  0  0  0  0
 13 15  1  0  0  0  0
 14 19  1  0  0  0  0
 14 15  2  0  0  0  0
 16 13  2  0  0  0  0
 18 19  1  0  0  0  0
 18 17  1  0  0  0  0
 20 18  2  0  0  0  0
 21 22  2  0  0  0  0
 23 21  1  0  0  0  0
 25 24  1  0  0  0  0
 26 27  1  0  0  0  0
 26 25  1  0  0  0  0
 27 28  1  6  0  0  0
 30 29  1  1  0  0  0
 30 27  1  0  0  0  0
 31 37  1  1  0  0  0
 31 43  1  0  0  0  0
 31 35  1  0  0  0  0
 32 42  1  6  0  0  0
 32 40  1  0  0  0  0
 33 44  1  0  0  0  0
 35 39  1  0  0  0  0
 36 30  1  6  0  0  0
 36 33  1  0  0  0  0
 39 46  1  6  0  0  0
 40 34  1  0  0  0  0
 40 45  1  0  0  0  0
 41 36  1  0  0  0  0
 41 43  1  0  0  0  0
 42 39  1  0  0  0  0
 43 42  2  0  0  0  0
 44 38  1  6  0  0  0
 44 32  1  0  0  0  0
 44 40  1  0  0  0  0
 46 47  1  0  0  0  0
 48 49  1  0  0  0  0
 49 50  1  0  0  0  0
 52 50  1  1  0  0  0
 52 55  1  0  0  0  0
 52 56  1  0  0  0  0
 53 63  1  0  0  0  0
 53 51  1  0  0  0  0
 54 51  1  0  0  0  0
 55 53  1  0  0  0  0
 56 57  1  6  0  0  0
 56 54  1  0  0  0  0
 57 62  1  0  0  0  0
 58 59  1  0  0  0  0
 58 57  1  0  0  0  0
 59 61  1  0  0  0  0
 60 62  1  0  0  0  0
 61 60  1  0  0  0  0
 63 64  1  0  0  0  0
M  END
>  <MODEL>
9

>  <REMARK>
 VINA RESULT:      -6.6      2.369     11.932
  Name = 
  17 active torsions:
  status: ('A' for Active; 'I' for Inactive)
    1  A    between atoms: C_3  and  O_38
    2  A    between atoms: C_3  and  C_58
    3  A    between atoms: C_9  and  C_54
    4  A    between atoms: C_12  and  O_38
    5  A    between atoms: C_14  and  C_35
    6  A    between atoms: C_14  and  O_48
    7  A    between atoms: C_15  and  C_51
    8  A    between atoms: C_15  and  C_52
    9  A    between atoms: N_20  and  C_58
   10  A    between atoms: C_21  and  C_23
   11  A    between atoms: C_21  and  C_28
   12  A    between atoms: C_21  and  C_60
   13  A    between atoms: N_22  and  C_44
   14  A    between atoms: C_29  and  C_35
   15  A    between atoms: C_32  and  C_36
   16  A    between atoms: C_37  and  N_50
   17  A    between atoms: O_48  and  C_51
                            x       y       z     vdW  Elec       q    Type
                         _______ _______ _______ _____ _____    ______ ____

>  <TORSDO>
F 17

$$$$
