=
 OpenBabel10232409063D

 28 32  0  0  1  0  0  0  0  0999 V2000
  183.1340  179.6210  143.7200 C   0  0  0  0  0  2  0  0  0  0  0  0
  185.3580  177.8550  144.4120 C   0  0  1  0  0  3  0  0  0  0  0  0
  184.6750  178.7510  145.4150 C   0  0  0  0  0  0  0  0  0  0  0  0
  191.7010  176.2690  144.5150 C   0  0  0  0  0  3  0  0  0  0  0  0
  189.2600  177.5960  147.6410 C   0  0  0  0  0  0  0  0  0  0  0  0
  187.6710  177.1680  143.7520 O   0  0  0  0  0  0  0  0  0  0  0  0
  188.4950  178.0360  148.7590 N   0  0  0  0  0  1  0  0  0  0  0  0
  183.6580  178.5380  142.7710 C   0  0  2  0  0  3  0  0  0  0  0  0
  191.1800  176.1270  143.2250 C   0  0  0  0  0  3  0  0  0  0  0  0
  183.6330  179.4610  145.0900 N   0  0  0  0  0  0  0  0  0  0  0  0
  185.1460  178.7570  146.7630 N   0  0  0  0  0  0  0  0  0  0  0  0
  189.8380  176.4270  142.9720 C   0  0  0  0  0  3  0  0  0  0  0  0
  186.3280  178.3100  147.0610 C   0  0  0  0  0  3  0  0  0  0  0  0
  185.1520  178.3580  142.9910 C   0  0  0  0  0  2  0  0  0  0  0  0
  187.2580  177.7920  146.0270 C   0  0  0  0  0  0  0  0  0  0  0  0
  191.3810  176.8580  146.8410 C   0  0  0  0  0  3  0  0  0  0  0  0
  190.5720  177.2880  147.8410 N   0  0  0  0  0  0  0  0  0  0  0  0
  189.5250  177.0200  145.3050 C   0  0  0  0  0  0  0  0  0  0  0  0
  190.8780  176.7130  145.5540 C   0  0  0  0  0  0  0  0  0  0  0  0
  188.6890  177.4710  146.3480 C   0  0  0  0  0  0  0  0  0  0  0  0
  189.0110  176.8730  144.0070 C   0  0  0  0  0  0  0  0  0  0  0  0
  186.8090  177.6290  144.7570 C   0  0  0  0  0  0  0  0  0  0  0  0
  183.4030  178.9380  141.3290 C   0  0  0  0  0  2  0  0  0  0  0  0
  184.6680  179.1110  140.6300 N   0  0  0  0  0  2  0  0  0  0  0  0
  184.8330  178.7850  139.2500 C   0  0  0  0  0  0  0  0  0  0  0  0
  185.9550  178.9490  138.7040 O   0  0  0  0  0  0  0  0  0  0  0  0
  183.7080  178.2170  138.4490 C   0  0  0  0  0  2  0  0  0  0  0  0
  183.8170  176.8280  138.4070 O   0  0  0  0  0  1  0  0  0  0  0  0
  1 10  1  0  0  0  0
  2 14  1  6  0  0  0
  2 22  1  0  0  0  0
  2  3  1  0  0  0  0
  3 11  1  0  0  0  0
  4 19  1  0  0  0  0
  5 17  1  0  0  0  0
  5  7  1  0  0  0  0
  6 21  1  0  0  0  0
  6 22  1  0  0  0  0
  8 23  1  6  0  0  0
  8 14  1  0  0  0  0
  8  1  1  0  0  0  0
  9  4  2  0  0  0  0
 10  3  2  0  0  0  0
 11 13  2  0  0  0  0
 12  9  1  0  0  0  0
 12 21  2  0  0  0  0
 15 20  1  0  0  0  0
 15 13  1  0  0  0  0
 16 17  2  0  0  0  0
 18 19  2  0  0  0  0
 18 20  1  0  0  0  0
 19 16  1  0  0  0  0
 20  5  2  0  0  0  0
 21 18  1  0  0  0  0
 22 15  2  0  0  0  0
 24 23  1  0  0  0  0
 25 24  1  0  0  0  0
 26 25  2  0  0  0  0
 27 25  1  0  0  0  0
 28 27  1  0  0  0  0
M  END
>  <MODEL>
1

>  <REMARK>
 VINA RESULT:     -10.6      0.000      0.000
  Name = 
  3 active torsions:
  status: ('A' for Active; 'I' for Inactive)
    1  A    between atoms: C_8  and  C_22
    2  A    between atoms: N_10  and  C_22
    3  A    between atoms: C_11  and  C_24
                            x       y       z     vdW  Elec       q    Type
                         _______ _______ _______ _____ _____    ______ ____

>  <TORSDO>
F 3

$$$$
=
 OpenBabel10232409063D

 28 32  0  0  1  0  0  0  0  0999 V2000
  190.3860  176.9360  139.0150 C   0  0  0  0  0  2  0  0  0  0  0  0
  189.6230  178.0480  141.6080 C   0  0  1  0  0  3  0  0  0  0  0  0
  190.9240  177.3220  141.3740 C   0  0  0  0  0  0  0  0  0  0  0  0
  186.2300  177.9520  147.1970 C   0  0  0  0  0  3  0  0  0  0  0  0
  190.2910  177.1850  146.5600 C   0  0  0  0  0  0  0  0  0  0  0  0
  187.7830  178.1430  143.3010 O   0  0  0  0  0  0  0  0  0  0  0  0
  191.6840  176.9160  146.4280 N   0  0  0  0  0  1  0  0  0  0  0  0
  189.1940  177.8810  139.1910 C   0  0  2  0  0  3  0  0  0  0  0  0
  185.3950  178.2690  146.1210 C   0  0  0  0  0  3  0  0  0  0  0  0
  191.2690  176.9140  140.1870 N   0  0  0  0  0  0  0  0  0  0  0  0
  191.8190  177.1480  142.4720 N   0  0  0  0  0  0  0  0  0  0  0  0
  185.9130  178.3310  144.8240 C   0  0  0  0  0  3  0  0  0  0  0  0
  191.4070  177.2660  143.6980 C   0  0  0  0  0  3  0  0  0  0  0  0
  188.5810  177.6660  140.5660 C   0  0  0  0  0  2  0  0  0  0  0  0
  189.9910  177.5650  144.0260 C   0  0  0  0  0  0  0  0  0  0  0  0
  188.4280  177.3830  148.0340 C   0  0  0  0  0  3  0  0  0  0  0  0
  189.7430  177.1390  147.8060 N   0  0  0  0  0  0  0  0  0  0  0  0
  188.1150  177.7560  145.6690 C   0  0  0  0  0  0  0  0  0  0  0  0
  187.5860  177.6970  146.9740 C   0  0  0  0  0  0  0  0  0  0  0  0
  189.4810  177.4980  145.4370 C   0  0  0  0  0  0  0  0  0  0  0  0
  187.2680  178.0760  144.5960 C   0  0  0  0  0  0  0  0  0  0  0  0
  189.1330  177.8830  143.0250 C   0  0  0  0  0  0  0  0  0  0  0  0
  188.1490  177.6120  138.1240 C   0  0  0  0  0  2  0  0  0  0  0  0
  186.9120  178.3030  138.4520 N   0  0  0  0  0  2  0  0  0  0  0  0
  185.6400  177.8740  137.9650 C   0  0  0  0  0  0  0  0  0  0  0  0
  184.6070  178.5200  138.2790 O   0  0  0  0  0  0  0  0  0  0  0  0
  185.5160  176.6930  137.0610 C   0  0  0  0  0  2  0  0  0  0  0  0
  185.5210  177.1160  135.7330 O   0  0  0  0  0  1  0  0  0  0  0  0
  1  8  1  0  0  0  0
  1 10  1  0  0  0  0
  2 14  1  6  0  0  0
  2 22  1  0  0  0  0
  3  2  1  0  0  0  0
  3 11  1  0  0  0  0
  5 17  1  0  0  0  0
  6 21  1  0  0  0  0
  7  5  1  0  0  0  0
  8 23  1  6  0  0  0
  8 14  1  0  0  0  0
  9  4  2  0  0  0  0
 10  3  2  0  0  0  0
 11 13  2  0  0  0  0
 12  9  1  0  0  0  0
 13 15  1  0  0  0  0
 15 20  1  0  0  0  0
 17 16  2  0  0  0  0
 18 19  2  0  0  0  0
 19  4  1  0  0  0  0
 19 16  1  0  0  0  0
 20 18  1  0  0  0  0
 20  5  2  0  0  0  0
 21 12  2  0  0  0  0
 21 18  1  0  0  0  0
 22  6  1  0  0  0  0
 22 15  2  0  0  0  0
 23 24  1  0  0  0  0
 25 26  2  0  0  0  0
 25 24  1  0  0  0  0
 27 25  1  0  0  0  0
 28 27  1  0  0  0  0
M  END
>  <MODEL>
2

>  <REMARK>
 VINA RESULT:      -9.8      2.634      4.896
  Name = 
  3 active torsions:
  status: ('A' for Active; 'I' for Inactive)
    1  A    between atoms: C_8  and  C_22
    2  A    between atoms: N_10  and  C_22
    3  A    between atoms: C_11  and  C_24
                            x       y       z     vdW  Elec       q    Type
                         _______ _______ _______ _____ _____    ______ ____

>  <TORSDO>
F 3

$$$$
=
 OpenBabel10232409063D

 28 32  0  0  1  0  0  0  0  0999 V2000
  188.4820  178.3180  138.7340 C   0  0  0  0  0  2  0  0  0  0  0  0
  188.6180  177.1040  141.3880 C   0  0  1  0  0  3  0  0  0  0  0  0
  187.5120  178.0370  140.9660 C   0  0  0  0  0  0  0  0  0  0  0  0
  191.0270  176.6470  147.4500 C   0  0  0  0  0  3  0  0  0  0  0  0
  187.3090  178.0850  146.1880 C   0  0  0  0  0  0  0  0  0  0  0  0
  190.1170  176.7060  143.3520 O   0  0  0  0  0  0  0  0  0  0  0  0
  186.0210  178.5840  145.8410 N   0  0  0  0  0  1  0  0  0  0  0  0
  189.4550  177.1860  139.0770 C   0  0  2  0  0  3  0  0  0  0  0  0
  191.9610  176.1900  146.5150 C   0  0  0  0  0  3  0  0  0  0  0  0
  187.4370  178.4930  139.7490 N   0  0  0  0  0  0  0  0  0  0  0  0
  186.4920  178.3640  141.9100 N   0  0  0  0  0  0  0  0  0  0  0  0
  191.6580  176.2110  145.1500 C   0  0  0  0  0  3  0  0  0  0  0  0
  186.6740  178.1820  143.1830 C   0  0  0  0  0  3  0  0  0  0  0  0
  189.8640  177.3010  140.5360 C   0  0  0  0  0  2  0  0  0  0  0  0
  187.9480  177.6500  143.7270 C   0  0  0  0  0  0  0  0  0  0  0  0
  188.8490  177.5810  147.9370 C   0  0  0  0  0  3  0  0  0  0  0  0
  187.6470  178.0430  147.5060 N   0  0  0  0  0  0  0  0  0  0  0  0
  189.4750  177.1520  145.6450 C   0  0  0  0  0  0  0  0  0  0  0  0
  189.7870  177.1260  147.0190 C   0  0  0  0  0  0  0  0  0  0  0  0
  188.2260  177.6360  145.2030 C   0  0  0  0  0  0  0  0  0  0  0  0
  190.4190  176.6900  144.7150 C   0  0  0  0  0  0  0  0  0  0  0  0
  188.8920  177.1890  142.8690 C   0  0  0  0  0  0  0  0  0  0  0  0
  190.6890  177.2730  138.1970 C   0  0  0  0  0  2  0  0  0  0  0  0
  191.8740  176.9240  138.9670 N   0  0  0  0  0  2  0  0  0  0  0  0
  193.0860  176.4860  138.3530 C   0  0  0  0  0  0  0  0  0  0  0  0
  194.0740  176.1920  139.0750 O   0  0  0  0  0  0  0  0  0  0  0  0
  193.1940  176.3370  136.8720 C   0  0  0  0  0  2  0  0  0  0  0  0
  194.4550  176.7540  136.4500 O   0  0  0  0  0  1  0  0  0  0  0  0
  1  8  1  0  0  0  0
  1 10  1  0  0  0  0
  2 14  1  6  0  0  0
  2 22  1  0  0  0  0
  3  2  1  0  0  0  0
  3 11  1  0  0  0  0
  5 17  1  0  0  0  0
  6 21  1  0  0  0  0
  7  5  1  0  0  0  0
  8 23  1  6  0  0  0
  8 14  1  0  0  0  0
  9  4  2  0  0  0  0
 10  3  2  0  0  0  0
 11 13  2  0  0  0  0
 12  9  1  0  0  0  0
 13 15  1  0  0  0  0
 15 20  1  0  0  0  0
 17 16  2  0  0  0  0
 18 19  2  0  0  0  0
 19  4  1  0  0  0  0
 19 16  1  0  0  0  0
 20 18  1  0  0  0  0
 20  5  2  0  0  0  0
 21 12  2  0  0  0  0
 21 18  1  0  0  0  0
 22  6  1  0  0  0  0
 22 15  2  0  0  0  0
 23 24  1  0  0  0  0
 25 24  1  0  0  0  0
 25 26  2  0  0  0  0
 27 25  1  0  0  0  0
 28 27  1  0  0  0  0
M  END
>  <MODEL>
3

>  <REMARK>
 VINA RESULT:      -9.7      3.724      5.503
  Name = 
  3 active torsions:
  status: ('A' for Active; 'I' for Inactive)
    1  A    between atoms: C_8  and  C_22
    2  A    between atoms: N_10  and  C_22
    3  A    between atoms: C_11  and  C_24
                            x       y       z     vdW  Elec       q    Type
                         _______ _______ _______ _____ _____    ______ ____

>  <TORSDO>
F 3

$$$$
=
 OpenBabel10232409063D

 28 32  0  0  1  0  0  0  0  0999 V2000
  189.6760  178.0700  138.7460 C   0  0  0  0  0  2  0  0  0  0  0  0
  188.4800  177.2700  141.2900 C   0  0  1  0  0  3  0  0  0  0  0  0
  187.7820  178.1660  140.2970 C   0  0  0  0  0  0  0  0  0  0  0  0
  187.8410  177.6600  147.7860 C   0  0  0  0  0  3  0  0  0  0  0  0
  185.2550  179.0170  144.7930 C   0  0  0  0  0  0  0  0  0  0  0  0
  188.8850  177.1250  143.7540 O   0  0  0  0  0  0  0  0  0  0  0  0
  184.3190  179.5010  143.8350 N   0  0  0  0  0  1  0  0  0  0  0  0
  190.2710  176.9710  139.6310 C   0  0  2  0  0  3  0  0  0  0  0  0
  189.0450  177.0340  147.4470 C   0  0  0  0  0  3  0  0  0  0  0  0
  188.3090  178.4340  139.1380 N   0  0  0  0  0  0  0  0  0  0  0  0
  186.4850  178.6680  140.6190 N   0  0  0  0  0  0  0  0  0  0  0  0
  189.3920  176.8570  146.1050 C   0  0  0  0  0  3  0  0  0  0  0  0
  186.0550  178.6770  141.8450 C   0  0  0  0  0  3  0  0  0  0  0  0
  189.9880  177.2920  141.0900 C   0  0  0  0  0  2  0  0  0  0  0  0
  186.8870  178.1900  142.9740 C   0  0  0  0  0  0  0  0  0  0  0  0
  185.7830  178.7330  147.1000 C   0  0  0  0  0  3  0  0  0  0  0  0
  184.9580  179.1640  146.1130 N   0  0  0  0  0  0  0  0  0  0  0  0
  187.3270  177.9380  145.4230 C   0  0  0  0  0  0  0  0  0  0  0  0
  186.9830  178.1110  146.7780 C   0  0  0  0  0  0  0  0  0  0  0  0
  186.4680  178.3910  144.4010 C   0  0  0  0  0  0  0  0  0  0  0  0
  188.5380  177.3070  145.0940 C   0  0  0  0  0  0  0  0  0  0  0  0
  188.0640  177.5710  142.7080 C   0  0  0  0  0  0  0  0  0  0  0  0
  191.7710  176.8790  139.4150 C   0  0  0  0  0  2  0  0  0  0  0  0
  192.0740  176.9580  137.9940 N   0  0  0  0  0  2  0  0  0  0  0  0
  192.9500  176.0370  137.3440 C   0  0  0  0  0  0  0  0  0  0  0  0
  193.1790  176.1630  136.1130 O   0  0  0  0  0  0  0  0  0  0  0  0
  193.6300  174.9480  138.1040 C   0  0  0  0  0  2  0  0  0  0  0  0
  194.8510  175.4090  138.5940 O   0  0  0  0  0  1  0  0  0  0  0  0
  1 10  1  0  0  0  0
  1  8  1  0  0  0  0
  2 14  1  1  0  0  0
  2 22  1  0  0  0  0
  3 11  1  0  0  0  0
  3  2  1  0  0  0  0
  5 17  1  0  0  0  0
  6 21  1  0  0  0  0
  7  5  1  0  0  0  0
  8 23  1  1  0  0  0
  8 14  1  0  0  0  0
  9  4  1  0  0  0  0
 10  3  2  0  0  0  0
 11 13  2  0  0  0  0
 12  9  2  0  0  0  0
 13 15  1  0  0  0  0
 15 20  1  0  0  0  0
 17 16  2  0  0  0  0
 18 19  1  0  0  0  0
 19 16  1  0  0  0  0
 19  4  2  0  0  0  0
 20  5  2  0  0  0  0
 20 18  1  0  0  0  0
 21 18  2  0  0  0  0
 21 12  1  0  0  0  0
 22 15  2  0  0  0  0
 22  6  1  0  0  0  0
 24 23  1  0  0  0  0
 25 24  1  0  0  0  0
 25 27  1  0  0  0  0
 26 25  2  0  0  0  0
 27 28  1  0  0  0  0
M  END
>  <MODEL>
4

>  <REMARK>
 VINA RESULT:      -9.6      3.744      6.304
  Name = 
  3 active torsions:
  status: ('A' for Active; 'I' for Inactive)
    1  A    between atoms: C_8  and  C_22
    2  A    between atoms: N_10  and  C_22
    3  A    between atoms: C_11  and  C_24
                            x       y       z     vdW  Elec       q    Type
                         _______ _______ _______ _____ _____    ______ ____

>  <TORSDO>
F 3

$$$$
=
 OpenBabel10232409063D

 28 32  0  0  1  0  0  0  0  0999 V2000
  190.3410  176.5750  138.8370 C   0  0  0  0  0  2  0  0  0  0  0  0
  188.9820  177.9980  140.9970 C   0  0  1  0  0  3  0  0  0  0  0  0
  190.1860  177.1190  141.2200 C   0  0  0  0  0  0  0  0  0  0  0  0
  184.0770  178.7880  145.2490 C   0  0  0  0  0  3  0  0  0  0  0  0
  188.0040  177.5340  145.9510 C   0  0  0  0  0  0  0  0  0  0  0  0
  186.7460  178.4480  142.0260 O   0  0  0  0  0  0  0  0  0  0  0  0
  189.3240  177.1060  146.2750 N   0  0  0  0  0  1  0  0  0  0  0  0
  189.2850  177.6550  138.5800 C   0  0  2  0  0  3  0  0  0  0  0  0
  183.6550  179.0910  143.9500 C   0  0  0  0  0  3  0  0  0  0  0  0
  190.8170  176.5670  140.2250 N   0  0  0  0  0  0  0  0  0  0  0  0
  190.6770  176.9520  142.5510 N   0  0  0  0  0  0  0  0  0  0  0  0
  184.5440  178.9760  142.8780 C   0  0  0  0  0  3  0  0  0  0  0  0
  189.9340  177.2280  143.5790 C   0  0  0  0  0  3  0  0  0  0  0  0
  188.2640  177.6350  139.7060 C   0  0  0  0  0  2  0  0  0  0  0  0
  188.5360  177.7070  143.4330 C   0  0  0  0  0  0  0  0  0  0  0  0
  185.8250  178.0670  146.7590 C   0  0  0  0  0  3  0  0  0  0  0  0
  187.1040  177.6630  146.9650 N   0  0  0  0  0  0  0  0  0  0  0  0
  186.2930  178.2500  144.3970 C   0  0  0  0  0  0  0  0  0  0  0  0
  185.3920  178.3700  145.4740 C   0  0  0  0  0  0  0  0  0  0  0  0
  187.6200  177.8260  144.6170 C   0  0  0  0  0  0  0  0  0  0  0  0
  185.8600  178.5570  143.0980 C   0  0  0  0  0  0  0  0  0  0  0  0
  188.0700  178.0200  142.1990 C   0  0  0  0  0  0  0  0  0  0  0  0
  188.5870  177.4000  137.2570 C   0  0  0  0  0  2  0  0  0  0  0  0
  187.9450  176.0940  137.2770 N   0  0  0  0  0  2  0  0  0  0  0  0
  186.5620  175.9140  136.9700 C   0  0  0  0  0  0  0  0  0  0  0  0
  186.0640  174.7600  137.0130 O   0  0  0  0  0  0  0  0  0  0  0  0
  185.6860  177.0750  136.6340 C   0  0  0  0  0  2  0  0  0  0  0  0
  185.1050  177.5760  137.7980 O   0  0  0  0  0  1  0  0  0  0  0  0
  1 10  1  0  0  0  0
  2 14  1  6  0  0  0
  2  3  1  0  0  0  0
  2 22  1  0  0  0  0
  3 11  1  0  0  0  0
  4 19  1  0  0  0  0
  5  7  1  0  0  0  0
  5 17  1  0  0  0  0
  6 22  1  0  0  0  0
  6 21  1  0  0  0  0
  8 23  1  6  0  0  0
  8  1  1  0  0  0  0
  8 14  1  0  0  0  0
  9  4  2  0  0  0  0
 10  3  2  0  0  0  0
 11 13  2  0  0  0  0
 12 21  2  0  0  0  0
 12  9  1  0  0  0  0
 15 13  1  0  0  0  0
 15 20  1  0  0  0  0
 16 17  2  0  0  0  0
 18 20  1  0  0  0  0
 18 19  2  0  0  0  0
 19 16  1  0  0  0  0
 20  5  2  0  0  0  0
 21 18  1  0  0  0  0
 22 15  2  0  0  0  0
 23 24  1  0  0  0  0
 25 26  2  0  0  0  0
 25 24  1  0  0  0  0
 27 25  1  0  0  0  0
 27 28  1  0  0  0  0
M  END
>  <MODEL>
5

>  <REMARK>
 VINA RESULT:      -9.3      3.000      5.433
  Name = 
  3 active torsions:
  status: ('A' for Active; 'I' for Inactive)
    1  A    between atoms: C_8  and  C_22
    2  A    between atoms: N_10  and  C_22
    3  A    between atoms: C_11  and  C_24
                            x       y       z     vdW  Elec       q    Type
                         _______ _______ _______ _____ _____    ______ ____

>  <TORSDO>
F 3

$$$$
=
 OpenBabel10232409063D

 28 32  0  0  1  0  0  0  0  0999 V2000
  187.6940  178.5640  139.0930 C   0  0  0  0  0  2  0  0  0  0  0  0
  188.0820  177.3000  141.6990 C   0  0  1  0  0  3  0  0  0  0  0  0
  186.8910  178.1650  141.3730 C   0  0  0  0  0  0  0  0  0  0  0  0
  190.9020  176.8660  147.5830 C   0  0  0  0  0  3  0  0  0  0  0  0
  187.0230  178.0770  146.5970 C   0  0  0  0  0  0  0  0  0  0  0  0
  189.7270  176.9590  143.5530 O   0  0  0  0  0  0  0  0  0  0  0  0
  185.6840  178.4950  146.3450 N   0  0  0  0  0  1  0  0  0  0  0  0
  188.7610  177.4930  139.3420 C   0  0  2  0  0  3  0  0  0  0  0  0
  191.8020  176.4960  146.5780 C   0  0  0  0  0  3  0  0  0  0  0  0
  186.7080  178.6430  140.1760 N   0  0  0  0  0  0  0  0  0  0  0  0
  185.9150  178.4000  142.3880 N   0  0  0  0  0  0  0  0  0  0  0  0
  191.4100  176.5280  145.2370 C   0  0  0  0  0  3  0  0  0  0  0  0
  186.1900  178.2010  143.6410 C   0  0  0  0  0  3  0  0  0  0  0  0
  189.2540  177.6010  140.7760 C   0  0  0  0  0  2  0  0  0  0  0  0
  187.5290  177.7440  144.0890 C   0  0  0  0  0  0  0  0  0  0  0  0
  188.7020  177.6380  148.2310 C   0  0  0  0  0  3  0  0  0  0  0  0
  187.4470  178.0270  147.8890 N   0  0  0  0  0  0  0  0  0  0  0  0
  189.2060  177.3070  145.8930 C   0  0  0  0  0  0  0  0  0  0  0  0
  189.6070  177.2700  147.2440 C   0  0  0  0  0  0  0  0  0  0  0  0
  187.9020  177.7140  145.5440 C   0  0  0  0  0  0  0  0  0  0  0  0
  190.1170  176.9320  144.8930 C   0  0  0  0  0  0  0  0  0  0  0  0
  188.4440  177.3680  143.1610 C   0  0  0  0  0  0  0  0  0  0  0  0
  189.9270  177.6840  138.3900 C   0  0  0  0  0  2  0  0  0  0  0  0
  189.6220  177.0780  137.1030 N   0  0  0  0  0  2  0  0  0  0  0  0
  190.4380  176.0620  136.5200 C   0  0  0  0  0  0  0  0  0  0  0  0
  190.1250  175.5830  135.3990 O   0  0  0  0  0  0  0  0  0  0  0  0
  191.6770  175.5800  137.1980 C   0  0  0  0  0  2  0  0  0  0  0  0
  191.3720  174.4930  138.0150 O   0  0  0  0  0  1  0  0  0  0  0  0
  1  8  1  0  0  0  0
  1 10  1  0  0  0  0
  2 14  1  6  0  0  0
  2 22  1  0  0  0  0
  3  2  1  0  0  0  0
  3 11  1  0  0  0  0
  5 17  1  0  0  0  0
  6 21  1  0  0  0  0
  7  5  1  0  0  0  0
  8 23  1  6  0  0  0
  8 14  1  0  0  0  0
  9  4  2  0  0  0  0
 10  3  2  0  0  0  0
 11 13  2  0  0  0  0
 12  9  1  0  0  0  0
 13 15  1  0  0  0  0
 15 20  1  0  0  0  0
 17 16  2  0  0  0  0
 18 19  2  0  0  0  0
 19  4  1  0  0  0  0
 19 16  1  0  0  0  0
 20 18  1  0  0  0  0
 20  5  2  0  0  0  0
 21 12  2  0  0  0  0
 21 18  1  0  0  0  0
 22  6  1  0  0  0  0
 22 15  2  0  0  0  0
 24 23  1  0  0  0  0
 25 24  1  0  0  0  0
 25 27  1  0  0  0  0
 26 25  2  0  0  0  0
 27 28  1  0  0  0  0
M  END
>  <MODEL>
6

>  <REMARK>
 VINA RESULT:      -9.3      3.264      4.682
  Name = 
  3 active torsions:
  status: ('A' for Active; 'I' for Inactive)
    1  A    between atoms: C_8  and  C_22
    2  A    between atoms: N_10  and  C_22
    3  A    between atoms: C_11  and  C_24
                            x       y       z     vdW  Elec       q    Type
                         _______ _______ _______ _____ _____    ______ ____

>  <TORSDO>
F 3

$$$$
=
 OpenBabel10232409063D

 28 32  0  0  1  0  0  0  0  0999 V2000
  184.9800  178.3200  139.1410 C   0  0  0  0  0  2  0  0  0  0  0  0
  186.6330  178.8260  141.4980 C   0  0  1  0  0  3  0  0  0  0  0  0
  187.2010  178.3820  140.1740 C   0  0  0  0  0  0  0  0  0  0  0  0
  189.0550  177.2040  147.3510 C   0  0  0  0  0  3  0  0  0  0  0  0
  190.9590  177.2550  143.6280 C   0  0  0  0  0  0  0  0  0  0  0  0
  186.8840  178.3180  143.9350 O   0  0  0  0  0  0  0  0  0  0  0  0
  191.6800  177.2520  142.4000 N   0  0  0  0  0  1  0  0  0  0  0  0
  184.4390  179.0050  140.3990 C   0  0  2  0  0  3  0  0  0  0  0  0
  187.7060  177.5540  147.4580 C   0  0  0  0  0  3  0  0  0  0  0  0
  186.4460  178.2470  139.1220 N   0  0  0  0  0  0  0  0  0  0  0  0
  188.6100  178.1760  140.0660 N   0  0  0  0  0  0  0  0  0  0  0  0
  186.9830  177.9240  146.3200 C   0  0  0  0  0  3  0  0  0  0  0  0
  189.3460  178.0120  141.1230 C   0  0  0  0  0  3  0  0  0  0  0  0
  185.1610  178.4570  141.6200 C   0  0  0  0  0  2  0  0  0  0  0  0
  188.7690  178.0070  142.4910 C   0  0  0  0  0  0  0  0  0  0  0  0
  191.0240  176.8800  145.9810 C   0  0  0  0  0  3  0  0  0  0  0  0
  191.6230  176.9040  144.7640 N   0  0  0  0  0  0  0  0  0  0  0  0
  188.9610  177.5930  144.9500 C   0  0  0  0  0  0  0  0  0  0  0  0
  189.6830  177.2240  146.1020 C   0  0  0  0  0  0  0  0  0  0  0  0
  189.5870  177.6140  143.6870 C   0  0  0  0  0  0  0  0  0  0  0  0
  187.6060  177.9440  145.0690 C   0  0  0  0  0  0  0  0  0  0  0  0
  187.4650  178.3410  142.6590 C   0  0  0  0  0  0  0  0  0  0  0  0
  182.9500  178.7490  140.5350 C   0  0  0  0  0  2  0  0  0  0  0  0
  182.6050  178.5460  141.9340 N   0  0  0  0  0  2  0  0  0  0  0  0
  181.2970  178.7990  142.4480 C   0  0  0  0  0  0  0  0  0  0  0  0
  181.0650  178.6120  143.6700 O   0  0  0  0  0  0  0  0  0  0  0  0
  180.2080  179.3180  141.5690 C   0  0  0  0  0  2  0  0  0  0  0  0
  179.9950  180.6690  141.8350 O   0  0  0  0  0  1  0  0  0  0  0  0
  1  8  1  0  0  0  0
  2 14  1  1  0  0  0
  2 22  1  0  0  0  0
  3  2  1  0  0  0  0
  4  9  1  0  0  0  0
  5 20  2  0  0  0  0
  5 17  1  0  0  0  0
  6 21  1  0  0  0  0
  7  5  1  0  0  0  0
  8 23  1  1  0  0  0
  8 14  1  0  0  0  0
 10  1  1  0  0  0  0
 10  3  2  0  0  0  0
 11  3  1  0  0  0  0
 11 13  2  0  0  0  0
 12  9  2  0  0  0  0
 13 15  1  0  0  0  0
 15 22  2  0  0  0  0
 15 20  1  0  0  0  0
 16 19  1  0  0  0  0
 17 16  2  0  0  0  0
 18 21  2  0  0  0  0
 18 19  1  0  0  0  0
 19  4  2  0  0  0  0
 20 18  1  0  0  0  0
 21 12  1  0  0  0  0
 22  6  1  0  0  0  0
 23 24  1  0  0  0  0
 24 25  1  0  0  0  0
 25 26  2  0  0  0  0
 27 28  1  0  0  0  0
 27 25  1  0  0  0  0
M  END
>  <MODEL>
7

>  <REMARK>
 VINA RESULT:      -9.2      2.719      4.462
  Name = 
  3 active torsions:
  status: ('A' for Active; 'I' for Inactive)
    1  A    between atoms: C_8  and  C_22
    2  A    between atoms: N_10  and  C_22
    3  A    between atoms: C_11  and  C_24
                            x       y       z     vdW  Elec       q    Type
                         _______ _______ _______ _____ _____    ______ ____

>  <TORSDO>
F 3

$$$$
=
 OpenBabel10232409063D

 28 32  0  0  1  0  0  0  0  0999 V2000
  183.7980  179.3500  139.6240 C   0  0  0  0  0  2  0  0  0  0  0  0
  185.2190  177.9490  141.7590 C   0  0  1  0  0  3  0  0  0  0  0  0
  183.9610  178.7470  141.9930 C   0  0  0  0  0  0  0  0  0  0  0  0
  190.1200  177.3350  146.0440 C   0  0  0  0  0  3  0  0  0  0  0  0
  186.1180  178.3280  146.7360 C   0  0  0  0  0  0  0  0  0  0  0  0
  187.4680  177.6060  142.8010 O   0  0  0  0  0  0  0  0  0  0  0  0
  184.7710  178.6650  147.0550 N   0  0  0  0  0  1  0  0  0  0  0  0
  184.9200  178.3430  139.3500 C   0  0  2  0  0  3  0  0  0  0  0  0
  190.5730  177.0960  144.7430 C   0  0  0  0  0  3  0  0  0  0  0  0
  183.3080  179.2880  141.0060 N   0  0  0  0  0  0  0  0  0  0  0  0
  183.4480  178.8450  143.3220 N   0  0  0  0  0  0  0  0  0  0  0  0
  189.6890  177.1870  143.6630 C   0  0  0  0  0  3  0  0  0  0  0  0
  184.1970  178.5850  144.3500 C   0  0  0  0  0  3  0  0  0  0  0  0
  185.9270  178.3920  140.4870 C   0  0  0  0  0  2  0  0  0  0  0  0
  185.6220  178.1960  144.2080 C   0  0  0  0  0  0  0  0  0  0  0  0
  188.3170  177.9040  147.5540 C   0  0  0  0  0  3  0  0  0  0  0  0
  187.0130  178.2240  147.7560 N   0  0  0  0  0  0  0  0  0  0  0  0
  187.8850  177.7630  145.1820 C   0  0  0  0  0  0  0  0  0  0  0  0
  188.7800  177.6660  146.2660 C   0  0  0  0  0  0  0  0  0  0  0  0
  186.5320  178.0990  145.3980 C   0  0  0  0  0  0  0  0  0  0  0  0
  188.3490  177.5190  143.8800 C   0  0  0  0  0  0  0  0  0  0  0  0
  186.1180  177.9480  142.9700 C   0  0  0  0  0  0  0  0  0  0  0  0
  185.6150  178.6780  138.0430 C   0  0  0  0  0  2  0  0  0  0  0  0
  186.3610  177.5230  137.5660 N   0  0  0  0  0  2  0  0  0  0  0  0
  187.7090  177.6170  137.1050 C   0  0  0  0  0  0  0  0  0  0  0  0
  188.2970  176.5820  136.6980 O   0  0  0  0  0  0  0  0  0  0  0  0
  188.4230  178.9260  137.0640 C   0  0  0  0  0  2  0  0  0  0  0  0
  189.0220  179.1720  138.2990 O   0  0  0  0  0  1  0  0  0  0  0  0
  1 10  1  0  0  0  0
  2 14  1  6  0  0  0
  2  3  1  0  0  0  0
  2 22  1  0  0  0  0
  3 11  1  0  0  0  0
  4 19  1  0  0  0  0
  5  7  1  0  0  0  0
  5 17  1  0  0  0  0
  6 22  1  0  0  0  0
  6 21  1  0  0  0  0
  8 23  1  6  0  0  0
  8  1  1  0  0  0  0
  8 14  1  0  0  0  0
  9  4  2  0  0  0  0
 10  3  2  0  0  0  0
 11 13  2  0  0  0  0
 12 21  2  0  0  0  0
 12  9  1  0  0  0  0
 15 13  1  0  0  0  0
 15 20  1  0  0  0  0
 16 17  2  0  0  0  0
 18 20  1  0  0  0  0
 18 19  2  0  0  0  0
 19 16  1  0  0  0  0
 20  5  2  0  0  0  0
 21 18  1  0  0  0  0
 22 15  2  0  0  0  0
 24 23  1  0  0  0  0
 25 24  1  0  0  0  0
 26 25  2  0  0  0  0
 27 25  1  0  0  0  0
 27 28  1  0  0  0  0
M  END
>  <MODEL>
8

>  <REMARK>
 VINA RESULT:      -9.1      1.889      3.317
  Name = 
  3 active torsions:
  status: ('A' for Active; 'I' for Inactive)
    1  A    between atoms: C_8  and  C_22
    2  A    between atoms: N_10  and  C_22
    3  A    between atoms: C_11  and  C_24
                            x       y       z     vdW  Elec       q    Type
                         _______ _______ _______ _____ _____    ______ ____

>  <TORSDO>
F 3

$$$$
=
 OpenBabel10232409063D

 28 32  0  0  1  0  0  0  0  0999 V2000
  187.9030  177.2830  147.2680 C   0  0  0  0  0  2  0  0  0  0  0  0
  186.5550  178.6160  145.0440 C   0  0  1  0  0  3  0  0  0  0  0  0
  185.8530  178.2360  146.3230 C   0  0  0  0  0  0  0  0  0  0  0  0
  183.7840  178.6670  139.1210 C   0  0  0  0  0  3  0  0  0  0  0  0
  181.9770  178.9140  142.8840 C   0  0  0  0  0  0  0  0  0  0  0  0
  186.1700  178.5300  142.5730 O   0  0  0  0  0  0  0  0  0  0  0  0
  181.2860  179.0110  144.1260 N   0  0  0  0  0  1  0  0  0  0  0  0
  188.6620  177.8880  146.0830 C   0  0  2  0  0  3  0  0  0  0  0  0
  185.1720  178.5380  139.0120 C   0  0  0  0  0  3  0  0  0  0  0  0
  186.5030  177.7200  147.3260 N   0  0  0  0  0  0  0  0  0  0  0  0
  184.4600  178.5200  146.4510 N   0  0  0  0  0  0  0  0  0  0  0  0
  185.9660  178.4920  140.1630 C   0  0  0  0  0  3  0  0  0  0  0  0
  183.7240  178.7520  145.4070 C   0  0  0  0  0  3  0  0  0  0  0  0
  187.8080  177.7790  144.8310 C   0  0  0  0  0  2  0  0  0  0  0  0
  184.2790  178.7160  144.0300 C   0  0  0  0  0  0  0  0  0  0  0  0
  181.8110  178.8780  140.5060 C   0  0  0  0  0  3  0  0  0  0  0  0
  181.2450  178.9590  141.7370 N   0  0  0  0  0  0  0  0  0  0  0  0
  183.9820  178.7000  141.5470 C   0  0  0  0  0  0  0  0  0  0  0  0
  183.1890  178.7490  140.3830 C   0  0  0  0  0  0  0  0  0  0  0  0
  183.3880  178.7810  142.8230 C   0  0  0  0  0  0  0  0  0  0  0  0
  185.3750  178.5730  141.4270 C   0  0  0  0  0  0  0  0  0  0  0  0
  185.6190  178.5960  143.8610 C   0  0  0  0  0  0  0  0  0  0  0  0
  189.9720  177.1510  145.8700 C   0  0  0  0  0  2  0  0  0  0  0  0
  190.7940  177.8670  144.9070 N   0  0  0  0  0  2  0  0  0  0  0  0
  191.2510  177.2700  143.6930 C   0  0  0  0  0  0  0  0  0  0  0  0
  191.9670  177.9400  142.9050 O   0  0  0  0  0  0  0  0  0  0  0  0
  190.9260  175.8530  143.3570 C   0  0  0  0  0  2  0  0  0  0  0  0
  190.1930  175.8080  142.1720 O   0  0  0  0  0  1  0  0  0  0  0  0
  1 10  1  0  0  0  0
  2 14  1  6  0  0  0
  2  3  1  0  0  0  0
  3 11  1  0  0  0  0
  3 10  2  0  0  0  0
  4 19  1  0  0  0  0
  5  7  1  0  0  0  0
  6 22  1  0  0  0  0
  8 23  1  6  0  0  0
  8  1  1  0  0  0  0
  9  4  2  0  0  0  0
  9 12  1  0  0  0  0
 12 21  2  0  0  0  0
 13 11  2  0  0  0  0
 14  8  1  0  0  0  0
 15 13  1  0  0  0  0
 16 17  1  0  0  0  0
 17  5  2  0  0  0  0
 18 20  2  0  0  0  0
 19 16  2  0  0  0  0
 19 18  1  0  0  0  0
 20  5  1  0  0  0  0
 20 15  1  0  0  0  0
 21 18  1  0  0  0  0
 21  6  1  0  0  0  0
 22 15  2  0  0  0  0
 22  2  1  0  0  0  0
 24 23  1  0  0  0  0
 25 24  1  0  0  0  0
 26 25  2  0  0  0  0
 27 25  1  0  0  0  0
 28 27  1  0  0  0  0
M  END
>  <MODEL>
9

>  <REMARK>
 VINA RESULT:      -9.0      1.906      6.875
  Name = 
  3 active torsions:
  status: ('A' for Active; 'I' for Inactive)
    1  A    between atoms: C_8  and  C_22
    2  A    between atoms: N_10  and  C_22
    3  A    between atoms: C_11  and  C_24
                            x       y       z     vdW  Elec       q    Type
                         _______ _______ _______ _____ _____    ______ ____

>  <TORSDO>
F 3

$$$$
