=
 OpenBabel10232409183D

 49 52  0  0  1  0  0  0  0  0999 V2000
  190.8270  173.2300  135.4970 C   0  0  2  0  0  3  0  0  0  0  0  0
  189.7580  173.9590  134.6950 C   0  0  0  0  0  2  0  0  0  0  0  0
  189.6400  174.7080  136.9850 C   0  0  2  0  0  3  0  0  0  0  0  0
  191.0090  174.0420  136.7880 C   0  0  2  0  0  3  0  0  0  0  0  0
  189.0160  174.7310  135.6700 N   0  0  0  0  0  0  0  0  0  0  0  0
  185.2750  174.5250  135.8700 C   0  0  0  0  0  0  0  0  0  0  0  0
  187.0050  173.0210  136.7610 N   0  0  0  0  0  1  0  0  0  0  0  0
  187.2640  176.1700  134.7710 C   0  0  0  0  0  3  0  0  0  0  0  0
  184.9160  175.6920  135.1680 C   0  0  0  0  0  0  0  0  0  0  0  0
  187.6290  175.0210  135.4780 C   0  0  0  0  0  0  0  0  0  0  0  0
  185.9190  176.5040  134.6180 C   0  0  0  0  0  3  0  0  0  0  0  0
  186.6330  174.1930  136.0320 C   0  0  0  0  0  0  0  0  0  0  0  0
  184.2460  173.6760  136.4320 C   0  0  0  0  0  0  0  0  0  0  0  0
  183.4210  172.9950  136.8780 N   0  0  0  0  0  0  0  0  0  0  0  0
  183.5350  176.0410  135.0140 N   0  0  0  0  0  2  0  0  0  0  0  0
  183.0030  177.3780  135.2520 C   0  0  0  0  0  2  0  0  0  0  0  0
  181.3570  178.2320  136.7160 F   0  0  0  0  0  0  0  0  0  0  0  0
  183.4930  178.1980  137.4350 F   0  0  0  0  0  0  0  0  0  0  0  0
  182.5410  177.5220  136.6930 C   0  0  0  0  0  0  0  0  0  0  0  0
  182.3330  176.2760  137.2490 F   0  0  0  0  0  0  0  0  0  0  0  0
  189.8050  177.2400  136.6630 C   0  0  0  0  0  2  0  0  0  0  0  0
  188.1130  177.8380  138.2840 C   0  0  2  0  0  3  0  0  0  0  0  0
  188.4410  176.3620  138.4650 C   0  0  0  0  0  2  0  0  0  0  0  0
  189.1680  178.4180  137.3610 C   0  0  0  0  0  2  0  0  0  0  0  0
  189.6920  176.0940  137.6520 C   0  0  1  0  0  3  0  0  0  0  0  0
  188.4450  177.8910  140.5910 N   0  0  0  0  0  0  0  0  0  0  0  0
  188.1640  178.5150  139.5510 N   0  0  0  0  0  0  0  0  0  0  0  0
  188.5020  178.5680  141.8630 C   0  0  0  0  0  2  0  0  0  0  0  0
  189.3510  177.7990  144.0970 C   0  0  0  0  0  3  0  0  0  0  0  0
  190.7940  177.6270  142.1680 C   0  0  0  0  0  3  0  0  0  0  0  0
  189.5670  177.9790  142.7280 C   0  0  0  0  0  0  0  0  0  0  0  0
  190.3720  177.2660  144.8970 C   0  0  0  0  0  0  0  0  0  0  0  0
  191.7890  177.0970  142.9880 C   0  0  0  0  0  3  0  0  0  0  0  0
  191.5610  176.9300  144.3180 N   0  0  0  0  0  0  0  0  0  0  0  0
  190.1790  177.0750  146.3100 N   0  0  0  0  0  0  0  0  0  0  0  0
  188.8350  177.1250  146.8820 C   0  0  0  0  0  1  0  0  0  0  0  0
  191.8250  175.6240  147.3400 C   0  0  0  0  0  2  0  0  0  0  0  0
  191.3190  176.8390  147.1510 C   0  0  0  0  0  3  0  0  0  0  0  0
  192.1220  172.9990  134.6950 C   0  0  2  0  0  3  0  0  0  0  0  0
  193.0060  171.8990  135.2820 C   0  0  0  0  0  1  0  0  0  0  0  0
  192.8440  174.1890  134.4390 O   0  0  0  0  0  0  0  0  0  0  0  0
  194.2140  173.8900  134.3480 C   0  0  0  0  0  2  0  0  0  0  0  0
  194.9600  175.0190  134.6900 O   0  0  0  0  0  1  0  0  0  0  0  0
  192.0250  174.9990  136.6270 O   0  0  0  0  0  0  0  0  0  0  0  0
  193.6810  174.0020  137.8510 O   0  0  0  0  0  1  0  0  0  0  0  0
  192.7180  175.0150  137.8440 C   0  0  1  0  0  3  0  0  0  0  0  0
  193.3780  176.3400  138.0330 C   0  0  0  0  0  0  0  0  0  0  0  0
  193.4720  176.8880  139.3050 O   0  0  0  0  0  1  0  0  0  0  0  0
  193.8320  176.9730  137.0450 O   0  0  0  0  0  0  0  0  0  0  0  0
  1 39  1  6  0  0  0
  1  4  1  0  0  0  0
  2  1  1  0  0  0  0
  2  5  1  0  0  0  0
  3  5  1  6  0  0  0
  3 25  1  0  0  0  0
  4 44  1  6  0  0  0
  4  3  1  0  0  0  0
  6 12  1  0  0  0  0
  6 13  1  0  0  0  0
  8 10  1  0  0  0  0
  9  6  2  0  0  0  0
 10  5  1  0  0  0  0
 10 12  2  0  0  0  0
 11  8  2  0  0  0  0
 11  9  1  0  0  0  0
 12  7  1  0  0  0  0
 13 14  3  0  0  0  0
 15  9  1  0  0  0  0
 15 16  1  0  0  0  0
 16 19  1  0  0  0  0
 19 17  1  0  0  0  0
 19 20  1  0  0  0  0
 19 18  1  0  0  0  0
 21 24  1  0  0  0  0
 22 23  1  0  0  0  0
 22 27  1  1  0  0  0
 24 22  1  0  0  0  0
 25 21  1  6  0  0  0
 25 23  1  0  0  0  0
 26 28  1  0  0  0  0
 27 26  2  0  0  0  0
 28 31  1  0  0  0  0
 29 32  1  0  0  0  0
 30 31  1  0  0  0  0
 30 33  2  0  0  0  0
 31 29  2  0  0  0  0
 32 35  1  0  0  0  0
 33 34  1  0  0  0  0
 34 32  2  0  0  0  0
 35 36  1  0  0  0  0
 35 38  1  0  0  0  0
 38 37  2  0  0  0  0
 39 40  1  1  0  0  0
 41 39  1  0  0  0  0
 42 41  1  0  0  0  0
 42 43  1  0  0  0  0
 44 46  1  0  0  0  0
 46 45  1  6  0  0  0
 46 47  1  0  0  0  0
 47 48  1  0  0  0  0
 49 47  2  0  0  0  0
M  END
>  <MODEL>
1

>  <REMARK>
 VINA RESULT:      -6.1      0.000      0.000
  Name = 
  17 active torsions:
  status: ('A' for Active; 'I' for Inactive)
    1  A    between atoms: C_2  and  N_48
    2  A    between atoms: C_5  and  O_6
    3  A    between atoms: C_5  and  C_7
    4  A    between atoms: O_6  and  C_25
    5  A    between atoms: N_9  and  C_13
    6  A    between atoms: N_9  and  C_31
    7  A    between atoms: C_12  and  C_20
    8  A    between atoms: C_14  and  C_45
    9  A    between atoms: C_15  and  O_32
   10  A    between atoms: N_21  and  C_46
   11  A    between atoms: N_23  and  C_40
   12  A    between atoms: C_24  and  C_44
   13  A    between atoms: C_27  and  C_49
   14  A    between atoms: C_29  and  C_46
   15  A    between atoms: O_32  and  C_44
   16  A    between atoms: C_38  and  N_42
   17  A    between atoms: N_42  and  C_49
                            x       y       z     vdW  Elec       q    Type
                         _______ _______ _______ _____ _____    ______ ____

>  <TORSDO>
F 17

$$$$
=
 OpenBabel10232409183D

 49 52  0  0  1  0  0  0  0  0999 V2000
  182.7090  178.1210  137.2150 C   0  0  2  0  0  3  0  0  0  0  0  0
  183.6920  177.0200  136.8450 C   0  0  0  0  0  2  0  0  0  0  0  0
  184.6840  178.3830  138.5710 C   0  0  2  0  0  3  0  0  0  0  0  0
  183.1730  178.6590  138.5760 C   0  0  2  0  0  3  0  0  0  0  0  0
  184.8890  177.3100  137.6080 N   0  0  0  0  0  0  0  0  0  0  0  0
  187.8340  175.2740  136.4870 C   0  0  0  0  0  0  0  0  0  0  0  0
  185.6890  174.5730  137.4650 N   0  0  0  0  0  1  0  0  0  0  0  0
  187.0450  177.9600  136.6730 C   0  0  0  0  0  3  0  0  0  0  0  0
  188.6920  176.2940  136.0320 C   0  0  0  0  0  0  0  0  0  0  0  0
  186.1820  176.9530  137.1140 C   0  0  0  0  0  0  0  0  0  0  0  0
  188.2900  177.6340  136.1360 C   0  0  0  0  0  3  0  0  0  0  0  0
  186.5740  175.6040  137.0210 C   0  0  0  0  0  0  0  0  0  0  0  0
  188.2460  173.8900  136.3920 C   0  0  0  0  0  0  0  0  0  0  0  0
  188.5720  172.7800  136.3160 N   0  0  0  0  0  0  0  0  0  0  0  0
  189.9690  175.9620  135.4730 N   0  0  0  0  0  2  0  0  0  0  0  0
  191.2430  176.2690  136.1140 C   0  0  0  0  0  2  0  0  0  0  0  0
  190.7170  175.2680  138.1880 F   0  0  0  0  0  0  0  0  0  0  0  0
  192.8880  175.3990  137.6010 F   0  0  0  0  0  0  0  0  0  0  0  0
  191.6030  175.1990  137.1320 C   0  0  0  0  0  0  0  0  0  0  0  0
  191.5200  173.9490  136.5520 F   0  0  0  0  0  0  0  0  0  0  0  0
  186.7870  178.2640  140.0210 C   0  0  0  0  0  2  0  0  0  0  0  0
  185.8310  179.3010  141.9840 C   0  0  2  0  0  3  0  0  0  0  0  0
  184.6970  178.9730  141.0240 C   0  0  0  0  0  2  0  0  0  0  0  0
  187.0710  178.5990  141.4660 C   0  0  0  0  0  2  0  0  0  0  0  0
  185.2830  178.0730  139.9540 C   0  0  1  0  0  3  0  0  0  0  0  0
  186.3380  178.1060  143.9210 N   0  0  0  0  0  0  0  0  0  0  0  0
  185.5220  178.8120  143.3010 N   0  0  0  0  0  0  0  0  0  0  0  0
  186.0350  177.6180  145.2430 C   0  0  0  0  0  2  0  0  0  0  0  0
  188.5050  177.3620  145.6100 C   0  0  0  0  0  3  0  0  0  0  0  0
  187.1040  178.0250  147.4610 C   0  0  0  0  0  3  0  0  0  0  0  0
  187.2420  177.6770  146.1190 C   0  0  0  0  0  0  0  0  0  0  0  0
  189.6240  177.4010  146.4550 C   0  0  0  0  0  0  0  0  0  0  0  0
  188.2350  178.0580  148.2770 C   0  0  0  0  0  3  0  0  0  0  0  0
  189.4550  177.7480  147.7630 N   0  0  0  0  0  0  0  0  0  0  0  0
  190.9340  177.0760  145.9580 N   0  0  0  0  0  0  0  0  0  0  0  0
  191.8330  176.2360  146.7480 C   0  0  0  0  0  1  0  0  0  0  0  0
  191.2390  176.8800  143.5610 C   0  0  0  0  0  2  0  0  0  0  0  0
  191.3510  177.5870  144.6820 C   0  0  0  0  0  3  0  0  0  0  0  0
  181.2430  177.6500  137.1750 C   0  0  2  0  0  3  0  0  0  0  0  0
  181.0700  176.2700  136.5400 C   0  0  0  0  0  1  0  0  0  0  0  0
  180.3600  178.6100  136.6240 O   0  0  0  0  0  0  0  0  0  0  0  0
  181.0850  179.4890  135.8030 C   0  0  0  0  0  2  0  0  0  0  0  0
  180.7890  180.8070  136.1560 O   0  0  0  0  0  1  0  0  0  0  0  0
  182.5310  177.9710  139.6200 O   0  0  0  0  0  0  0  0  0  0  0  0
  181.5000  180.0100  139.5050 O   0  0  0  0  0  1  0  0  0  0  0  0
  181.8530  178.9540  140.3500 C   0  0  1  0  0  3  0  0  0  0  0  0
  180.6250  178.3710  140.9660 C   0  0  0  0  0  0  0  0  0  0  0  0
  180.0750  177.2090  140.4390 O   0  0  0  0  0  0  0  0  0  0  0  0
  180.0730  178.9340  141.9470 O   0  0  0  0  0  1  0  0  0  0  0  0
  1 39  1  1  0  0  0
  1  4  1  0  0  0  0
  2  1  1  0  0  0  0
  2  5  1  0  0  0  0
  3  5  1  6  0  0  0
  3  4  1  0  0  0  0
  3 25  1  0  0  0  0
  4 44  1  1  0  0  0
  6 12  1  0  0  0  0
  8 10  1  0  0  0  0
  9 11  1  0  0  0  0
  9  6  2  0  0  0  0
 10  5  1  0  0  0  0
 11  8  2  0  0  0  0
 12 10  2  0  0  0  0
 12  7  1  0  0  0  0
 13  6  1  0  0  0  0
 14 13  3  0  0  0  0
 15  9  1  0  0  0  0
 15 16  1  0  0  0  0
 16 19  1  0  0  0  0
 19 18  1  0  0  0  0
 19 17  1  0  0  0  0
 20 19  1  0  0  0  0
 21 24  1  0  0  0  0
 22 27  1  1  0  0  0
 23 22  1  0  0  0  0
 24 22  1  0  0  0  0
 25 21  1  6  0  0  0
 25 23  1  0  0  0  0
 26 28  1  0  0  0  0
 27 26  2  0  0  0  0
 28 31  1  0  0  0  0
 29 31  2  0  0  0  0
 29 32  1  0  0  0  0
 30 33  2  0  0  0  0
 31 30  1  0  0  0  0
 32 34  2  0  0  0  0
 34 33  1  0  0  0  0
 35 32  1  0  0  0  0
 35 36  1  0  0  0  0
 37 38  2  0  0  0  0
 38 35  1  0  0  0  0
 39 40  1  6  0  0  0
 41 39  1  0  0  0  0
 42 43  1  0  0  0  0
 42 41  1  0  0  0  0
 44 46  1  0  0  0  0
 46 45  1  6  0  0  0
 46 47  1  0  0  0  0
 47 49  1  0  0  0  0
 48 47  2  0  0  0  0
M  END
>  <MODEL>
2

>  <REMARK>
 VINA RESULT:      -6.0      5.285      8.020
  Name = 
  17 active torsions:
  status: ('A' for Active; 'I' for Inactive)
    1  A    between atoms: C_2  and  N_48
    2  A    between atoms: C_5  and  O_6
    3  A    between atoms: C_5  and  C_7
    4  A    between atoms: O_6  and  C_25
    5  A    between atoms: N_9  and  C_13
    6  A    between atoms: N_9  and  C_31
    7  A    between atoms: C_12  and  C_20
    8  A    between atoms: C_14  and  C_45
    9  A    between atoms: C_15  and  O_32
   10  A    between atoms: N_21  and  C_46
   11  A    between atoms: N_23  and  C_40
   12  A    between atoms: C_24  and  C_44
   13  A    between atoms: C_27  and  C_49
   14  A    between atoms: C_29  and  C_46
   15  A    between atoms: O_32  and  C_44
   16  A    between atoms: C_38  and  N_42
   17  A    between atoms: N_42  and  C_49
                            x       y       z     vdW  Elec       q    Type
                         _______ _______ _______ _____ _____    ______ ____

>  <TORSDO>
F 17

$$$$
=
 OpenBabel10232409183D

 49 52  0  0  1  0  0  0  0  0999 V2000
  191.1020  174.8330  136.0250 C   0  0  2  0  0  3  0  0  0  0  0  0
  189.9150  175.6350  135.5100 C   0  0  0  0  0  2  0  0  0  0  0  0
  189.9240  175.7460  137.9200 C   0  0  2  0  0  3  0  0  0  0  0  0
  191.3220  175.2940  137.4740 C   0  0  2  0  0  3  0  0  0  0  0  0
  189.1950  176.0490  136.6970 N   0  0  0  0  0  0  0  0  0  0  0  0
  185.5100  175.4040  136.9900 C   0  0  0  0  0  0  0  0  0  0  0  0
  187.4230  173.8860  137.2810 N   0  0  0  0  0  1  0  0  0  0  0  0
  187.2650  177.5050  136.3790 C   0  0  0  0  0  3  0  0  0  0  0  0
  185.0030  176.6870  136.7100 C   0  0  0  0  0  0  0  0  0  0  0  0
  187.7780  176.2380  136.6690 C   0  0  0  0  0  0  0  0  0  0  0  0
  185.8890  177.7290  136.4000 C   0  0  0  0  0  3  0  0  0  0  0  0
  186.9000  175.1810  136.9770 C   0  0  0  0  0  0  0  0  0  0  0  0
  184.6020  174.3210  137.3010 C   0  0  0  0  0  0  0  0  0  0  0  0
  183.8720  173.4540  137.5470 N   0  0  0  0  0  0  0  0  0  0  0  0
  183.5890  176.9220  136.7370 N   0  0  0  0  0  2  0  0  0  0  0  0
  182.9520  177.9620  137.5360 C   0  0  0  0  0  2  0  0  0  0  0  0
  182.9730  176.3750  139.2860 F   0  0  0  0  0  0  0  0  0  0  0  0
  182.3000  178.4700  139.7710 F   0  0  0  0  0  0  0  0  0  0  0  0
  183.1790  177.7140  139.0190 C   0  0  0  0  0  0  0  0  0  0  0  0
  184.4740  178.0500  139.3600 F   0  0  0  0  0  0  0  0  0  0  0  0
  188.7740  177.8840  138.7230 C   0  0  0  0  0  2  0  0  0  0  0  0
  188.9060  177.3990  141.0880 C   0  0  2  0  0  3  0  0  0  0  0  0
  189.7900  176.4030  140.3520 C   0  0  0  0  0  2  0  0  0  0  0  0
  188.5180  178.4730  140.0900 C   0  0  0  0  0  2  0  0  0  0  0  0
  189.9180  176.9080  138.9280 C   0  0  1  0  0  3  0  0  0  0  0  0
  190.7040  177.5000  142.5680 N   0  0  0  0  0  0  0  0  0  0  0  0
  189.6340  177.9990  142.1740 N   0  0  0  0  0  0  0  0  0  0  0  0
  191.4410  178.1010  143.6530 C   0  0  0  0  0  2  0  0  0  0  0  0
  189.7380  177.9810  145.4930 C   0  0  0  0  0  3  0  0  0  0  0  0
  191.7710  176.6940  145.6890 C   0  0  0  0  0  3  0  0  0  0  0  0
  190.9670  177.5770  144.9680 C   0  0  0  0  0  0  0  0  0  0  0  0
  189.3210  177.4960  146.7410 C   0  0  0  0  0  0  0  0  0  0  0  0
  191.3290  176.2260  146.9250 C   0  0  0  0  0  3  0  0  0  0  0  0
  190.1290  176.6320  147.4200 N   0  0  0  0  0  0  0  0  0  0  0  0
  188.0620  177.9010  147.3080 N   0  0  0  0  0  0  0  0  0  0  0  0
  187.8820  177.9260  148.7580 C   0  0  0  0  0  1  0  0  0  0  0  0
  186.2470  177.3810  145.7860 C   0  0  0  0  0  2  0  0  0  0  0  0
  186.9850  178.2770  146.4350 C   0  0  0  0  0  3  0  0  0  0  0  0
  192.3410  174.9500  135.1170 C   0  0  2  0  0  3  0  0  0  0  0  0
  193.4580  173.9760  135.4950 C   0  0  0  0  0  1  0  0  0  0  0  0
  192.8100  176.2780  134.9760 O   0  0  0  0  0  0  0  0  0  0  0  0
  194.0800  176.2580  134.3740 C   0  0  0  0  0  2  0  0  0  0  0  0
  194.7650  177.4310  134.6980 O   0  0  0  0  0  1  0  0  0  0  0  0
  192.2410  176.3570  137.5160 O   0  0  0  0  0  0  0  0  0  0  0  0
  194.4490  175.7910  137.7040 O   0  0  0  0  0  1  0  0  0  0  0  0
  193.2460  175.9440  138.3990 C   0  0  1  0  0  3  0  0  0  0  0  0
  193.4150  176.9570  139.4820 C   0  0  0  0  0  0  0  0  0  0  0  0
  194.5370  176.9110  140.2990 O   0  0  0  0  0  1  0  0  0  0  0  0
  192.5390  177.8400  139.6720 O   0  0  0  0  0  0  0  0  0  0  0  0
  1 39  1  6  0  0  0
  1  4  1  0  0  0  0
  2  1  1  0  0  0  0
  2  5  1  0  0  0  0
  3  5  1  6  0  0  0
  3 25  1  0  0  0  0
  4 44  1  6  0  0  0
  4  3  1  0  0  0  0
  6 13  1  0  0  0  0
  8 11  2  0  0  0  0
  8 10  1  0  0  0  0
  9 15  1  0  0  0  0
  9  6  2  0  0  0  0
 10  5  1  0  0  0  0
 10 12  2  0  0  0  0
 11  9  1  0  0  0  0
 12  6  1  0  0  0  0
 12  7  1  0  0  0  0
 13 14  3  0  0  0  0
 15 16  1  0  0  0  0
 16 19  1  0  0  0  0
 19 17  1  0  0  0  0
 19 20  1  0  0  0  0
 19 18  1  0  0  0  0
 21 24  1  0  0  0  0
 22 27  1  1  0  0  0
 23 22  1  0  0  0  0
 24 22  1  0  0  0  0
 25 21  1  6  0  0  0
 25 23  1  0  0  0  0
 26 28  1  0  0  0  0
 27 26  2  0  0  0  0
 28 31  1  0  0  0  0
 29 32  1  0  0  0  0
 30 33  2  0  0  0  0
 31 29  2  0  0  0  0
 31 30  1  0  0  0  0
 32 35  1  0  0  0  0
 32 34  2  0  0  0  0
 33 34  1  0  0  0  0
 35 36  1  0  0  0  0
 37 38  2  0  0  0  0
 38 35  1  0  0  0  0
 39 40  1  1  0  0  0
 41 39  1  0  0  0  0
 42 43  1  0  0  0  0
 42 41  1  0  0  0  0
 44 46  1  0  0  0  0
 46 45  1  6  0  0  0
 46 47  1  0  0  0  0
 47 49  2  0  0  0  0
 47 48  1  0  0  0  0
M  END
>  <MODEL>
3

>  <REMARK>
 VINA RESULT:      -5.8      1.730      2.538
  Name = 
  17 active torsions:
  status: ('A' for Active; 'I' for Inactive)
    1  A    between atoms: C_2  and  N_48
    2  A    between atoms: C_5  and  O_6
    3  A    between atoms: C_5  and  C_7
    4  A    between atoms: O_6  and  C_25
    5  A    between atoms: N_9  and  C_13
    6  A    between atoms: N_9  and  C_31
    7  A    between atoms: C_12  and  C_20
    8  A    between atoms: C_14  and  C_45
    9  A    between atoms: C_15  and  O_32
   10  A    between atoms: N_21  and  C_46
   11  A    between atoms: N_23  and  C_40
   12  A    between atoms: C_24  and  C_44
   13  A    between atoms: C_27  and  C_49
   14  A    between atoms: C_29  and  C_46
   15  A    between atoms: O_32  and  C_44
   16  A    between atoms: C_38  and  N_42
   17  A    between atoms: N_42  and  C_49
                            x       y       z     vdW  Elec       q    Type
                         _______ _______ _______ _____ _____    ______ ____

>  <TORSDO>
F 17

$$$$
=
 OpenBabel10232409183D

 49 52  0  0  1  0  0  0  0  0999 V2000
  187.9340  173.6300  135.0140 C   0  0  2  0  0  3  0  0  0  0  0  0
  189.2640  173.6380  135.7530 C   0  0  0  0  0  2  0  0  0  0  0  0
  188.6050  175.9220  135.3400 C   0  0  2  0  0  3  0  0  0  0  0  0
  187.3560  175.0440  135.1740 C   0  0  2  0  0  3  0  0  0  0  0  0
  189.6580  175.0310  135.8060 N   0  0  0  0  0  0  0  0  0  0  0  0
  193.1360  175.7730  137.0040 C   0  0  0  0  0  0  0  0  0  0  0  0
  191.1140  175.1530  138.2600 N   0  0  0  0  0  1  0  0  0  0  0  0
  191.6790  175.6870  134.6080 C   0  0  0  0  0  3  0  0  0  0  0  0
  193.7760  176.0420  135.7790 C   0  0  0  0  0  0  0  0  0  0  0  0
  191.0380  175.4060  135.8180 C   0  0  0  0  0  0  0  0  0  0  0  0
  193.0360  176.0010  134.5880 C   0  0  0  0  0  3  0  0  0  0  0  0
  191.7660  175.4480  137.0230 C   0  0  0  0  0  0  0  0  0  0  0  0
  193.8890  175.8220  138.2380 C   0  0  0  0  0  0  0  0  0  0  0  0
  194.4950  175.8650  139.2260 N   0  0  0  0  0  0  0  0  0  0  0  0
  195.1740  176.3580  135.7550 N   0  0  0  0  0  2  0  0  0  0  0  0
  196.1630  175.6170  134.9810 C   0  0  0  0  0  2  0  0  0  0  0  0
  197.6090  173.7520  135.0770 F   0  0  0  0  0  0  0  0  0  0  0  0
  195.4120  173.4000  135.4270 F   0  0  0  0  0  0  0  0  0  0  0  0
  196.4600  174.2770  135.6340 C   0  0  0  0  0  0  0  0  0  0  0  0
  196.6510  174.4460  136.9910 F   0  0  0  0  0  0  0  0  0  0  0  0
  187.3050  178.0790  135.7790 C   0  0  0  0  0  2  0  0  0  0  0  0
  187.0360  177.7620  138.1610 C   0  0  2  0  0  3  0  0  0  0  0  0
  188.0460  176.7400  137.6600 C   0  0  0  0  0  2  0  0  0  0  0  0
  186.8110  178.7540  137.0370 C   0  0  0  0  0  2  0  0  0  0  0  0
  188.4100  177.1500  136.2460 C   0  0  1  0  0  3  0  0  0  0  0  0
  187.3180  178.0400  140.4590 N   0  0  0  0  0  0  0  0  0  0  0  0
  187.5590  178.4530  139.3090 N   0  0  0  0  0  0  0  0  0  0  0  0
  187.8450  178.7270  141.6120 C   0  0  0  0  0  2  0  0  0  0  0  0
  189.0760  177.7810  143.5840 C   0  0  0  0  0  3  0  0  0  0  0  0
  189.9850  177.4670  141.3700 C   0  0  0  0  0  3  0  0  0  0  0  0
  188.9870  177.9690  142.2030 C   0  0  0  0  0  0  0  0  0  0  0  0
  190.1690  177.0860  144.1220 C   0  0  0  0  0  0  0  0  0  0  0  0
  191.0590  176.7780  141.9330 C   0  0  0  0  0  3  0  0  0  0  0  0
  191.1280  176.6050  143.2800 N   0  0  0  0  0  0  0  0  0  0  0  0
  190.2880  176.8820  145.5410 N   0  0  0  0  0  0  0  0  0  0  0  0
  191.5900  176.5830  146.1350 C   0  0  0  0  0  1  0  0  0  0  0  0
  188.8590  178.0370  147.1230 C   0  0  0  0  0  2  0  0  0  0  0  0
  189.1170  176.9730  146.3670 C   0  0  0  0  0  3  0  0  0  0  0  0
  186.9990  172.4970  135.4790 C   0  0  2  0  0  3  0  0  0  0  0  0
  187.7500  171.2450  135.9330 C   0  0  0  0  0  1  0  0  0  0  0  0
  185.9720  172.2000  134.5510 O   0  0  0  0  0  0  0  0  0  0  0  0
  185.4900  170.9020  134.7930 C   0  0  0  0  0  2  0  0  0  0  0  0
  184.2150  170.9780  135.3560 O   0  0  0  0  0  1  0  0  0  0  0  0
  186.5300  175.1110  136.3090 O   0  0  0  0  0  0  0  0  0  0  0  0
  185.2440  175.4270  134.4440 O   0  0  0  0  0  1  0  0  0  0  0  0
  185.2840  175.5390  135.8370 C   0  0  1  0  0  3  0  0  0  0  0  0
  184.2010  174.7070  136.4400 C   0  0  0  0  0  0  0  0  0  0  0  0
  182.8720  174.9990  136.1630 O   0  0  0  0  0  0  0  0  0  0  0  0
  184.4830  173.7560  137.2140 O   0  0  0  0  0  1  0  0  0  0  0  0
  1  4  1  0  0  0  0
  1 39  1  1  0  0  0
  1  2  1  0  0  0  0
  2  5  1  0  0  0  0
  3  5  1  1  0  0  0
  3 25  1  0  0  0  0
  4  3  1  0  0  0  0
  4 44  1  1  0  0  0
  5 10  1  0  0  0  0
  6 12  1  0  0  0  0
  6 13  1  0  0  0  0
  8 10  1  0  0  0  0
  9  6  2  0  0  0  0
 10 12  2  0  0  0  0
 11  8  2  0  0  0  0
 11  9  1  0  0  0  0
 12  7  1  0  0  0  0
 13 14  3  0  0  0  0
 15  9  1  0  0  0  0
 16 19  1  0  0  0  0
 16 15  1  0  0  0  0
 17 19  1  0  0  0  0
 18 19  1  0  0  0  0
 19 20  1  0  0  0  0
 21 24  1  0  0  0  0
 22 27  1  1  0  0  0
 23 22  1  0  0  0  0
 24 22  1  0  0  0  0
 25 21  1  6  0  0  0
 25 23  1  0  0  0  0
 26 28  1  0  0  0  0
 27 26  2  0  0  0  0
 28 31  1  0  0  0  0
 29 32  1  0  0  0  0
 30 33  2  0  0  0  0
 30 31  1  0  0  0  0
 31 29  2  0  0  0  0
 32 35  1  0  0  0  0
 33 34  1  0  0  0  0
 34 32  2  0  0  0  0
 35 36  1  0  0  0  0
 35 38  1  0  0  0  0
 38 37  2  0  0  0  0
 39 40  1  6  0  0  0
 41 42  1  0  0  0  0
 41 39  1  0  0  0  0
 42 43  1  0  0  0  0
 46 45  1  6  0  0  0
 46 44  1  0  0  0  0
 46 47  1  0  0  0  0
 47 49  1  0  0  0  0
 48 47  2  0  0  0  0
M  END
>  <MODEL>
4

>  <REMARK>
 VINA RESULT:      -5.7      4.771      7.286
  Name = 
  17 active torsions:
  status: ('A' for Active; 'I' for Inactive)
    1  A    between atoms: C_2  and  N_48
    2  A    between atoms: C_5  and  O_6
    3  A    between atoms: C_5  and  C_7
    4  A    between atoms: O_6  and  C_25
    5  A    between atoms: N_9  and  C_13
    6  A    between atoms: N_9  and  C_31
    7  A    between atoms: C_12  and  C_20
    8  A    between atoms: C_14  and  C_45
    9  A    between atoms: C_15  and  O_32
   10  A    between atoms: N_21  and  C_46
   11  A    between atoms: N_23  and  C_40
   12  A    between atoms: C_24  and  C_44
   13  A    between atoms: C_27  and  C_49
   14  A    between atoms: C_29  and  C_46
   15  A    between atoms: O_32  and  C_44
   16  A    between atoms: C_38  and  N_42
   17  A    between atoms: N_42  and  C_49
                            x       y       z     vdW  Elec       q    Type
                         _______ _______ _______ _____ _____    ______ ____

>  <TORSDO>
F 17

$$$$
=
 OpenBabel10232409183D

 49 52  0  0  1  0  0  0  0  0999 V2000
  187.4350  174.7380  135.1640 C   0  0  2  0  0  3  0  0  0  0  0  0
  188.6430  173.9440  135.6410 C   0  0  0  0  0  2  0  0  0  0  0  0
  189.1250  176.2930  135.8950 C   0  0  2  0  0  3  0  0  0  0  0  0
  187.6040  176.1480  135.7490 C   0  0  2  0  0  3  0  0  0  0  0  0
  189.6510  174.9370  135.9490 N   0  0  0  0  0  0  0  0  0  0  0  0
  193.2160  174.1070  136.7730 C   0  0  0  0  0  0  0  0  0  0  0  0
  191.3060  174.5790  138.2490 N   0  0  0  0  0  1  0  0  0  0  0  0
  191.5830  174.5020  134.5260 C   0  0  0  0  0  3  0  0  0  0  0  0
  193.7490  173.9550  135.4790 C   0  0  0  0  0  0  0  0  0  0  0  0
  191.0430  174.6420  135.8080 C   0  0  0  0  0  0  0  0  0  0  0  0
  192.9250  174.1610  134.3630 C   0  0  0  0  0  3  0  0  0  0  0  0
  191.8590  174.4440  136.9380 C   0  0  0  0  0  0  0  0  0  0  0  0
  194.0620  173.9060  137.9300 C   0  0  0  0  0  0  0  0  0  0  0  0
  194.7380  173.7470  138.8590 N   0  0  0  0  0  0  0  0  0  0  0  0
  195.1260  173.5970  135.3070 N   0  0  0  0  0  2  0  0  0  0  0  0
  196.0960  174.4160  134.5890 C   0  0  0  0  0  2  0  0  0  0  0  0
  197.9490  175.7990  135.0740 F   0  0  0  0  0  0  0  0  0  0  0  0
  196.7260  175.0300  136.8030 F   0  0  0  0  0  0  0  0  0  0  0  0
  196.6730  175.4870  135.5000 C   0  0  0  0  0  0  0  0  0  0  0  0
  195.8880  176.6220  135.4480 F   0  0  0  0  0  0  0  0  0  0  0  0
  189.0700  178.5910  137.0170 C   0  0  0  0  0  2  0  0  0  0  0  0
  188.7090  177.7920  139.2700 C   0  0  2  0  0  3  0  0  0  0  0  0
  189.0750  176.5990  138.3990 C   0  0  0  0  0  2  0  0  0  0  0  0
  188.9910  179.0410  138.4560 C   0  0  0  0  0  2  0  0  0  0  0  0
  189.5750  177.1620  137.0830 C   0  0  1  0  0  3  0  0  0  0  0  0
  189.2250  177.0880  141.4320 N   0  0  0  0  0  0  0  0  0  0  0  0
  189.5200  177.8050  140.4580 N   0  0  0  0  0  0  0  0  0  0  0  0
  190.0380  177.0930  142.6230 C   0  0  0  0  0  2  0  0  0  0  0  0
  187.8440  177.6310  143.7190 C   0  0  0  0  0  3  0  0  0  0  0  0
  189.7660  177.1610  145.1030 C   0  0  0  0  0  3  0  0  0  0  0  0
  189.1940  177.2920  143.8380 C   0  0  0  0  0  0  0  0  0  0  0  0
  187.0750  177.8350  144.8730 C   0  0  0  0  0  0  0  0  0  0  0  0
  188.9760  177.3680  146.2320 C   0  0  0  0  0  3  0  0  0  0  0  0
  187.6630  177.6980  146.0960 N   0  0  0  0  0  0  0  0  0  0  0  0
  185.6840  178.1910  144.7790 N   0  0  0  0  0  0  0  0  0  0  0  0
  184.9210  178.5050  145.9860 C   0  0  0  0  0  1  0  0  0  0  0  0
  184.1050  179.1140  143.1880 C   0  0  0  0  0  2  0  0  0  0  0  0
  185.0530  178.2310  143.4890 C   0  0  0  0  0  3  0  0  0  0  0  0
  186.0980  174.0550  135.5070 C   0  0  2  0  0  3  0  0  0  0  0  0
  186.2490  172.5740  135.8540 C   0  0  0  0  0  1  0  0  0  0  0  0
  185.0890  174.2810  134.5410 O   0  0  0  0  0  0  0  0  0  0  0  0
  183.8660  173.7820  135.0230 C   0  0  0  0  0  2  0  0  0  0  0  0
  182.8900  174.7770  134.9300 O   0  0  0  0  0  1  0  0  0  0  0  0
  186.9590  176.2430  136.9940 O   0  0  0  0  0  0  0  0  0  0  0  0
  185.5880  177.3880  135.5650 O   0  0  0  0  0  1  0  0  0  0  0  0
  186.0750  177.3220  136.8740 C   0  0  1  0  0  3  0  0  0  0  0  0
  184.9390  177.1540  137.8260 C   0  0  0  0  0  0  0  0  0  0  0  0
  184.3170  175.9180  137.9480 O   0  0  0  0  0  0  0  0  0  0  0  0
  184.5260  178.1290  138.5070 O   0  0  0  0  0  1  0  0  0  0  0  0
  1 39  1  1  0  0  0
  1  2  1  0  0  0  0
  1  4  1  0  0  0  0
  2  5  1  0  0  0  0
  3  5  1  1  0  0  0
  3 25  1  0  0  0  0
  4  3  1  0  0  0  0
  4 44  1  1  0  0  0
  6 12  1  0  0  0  0
  6 13  1  0  0  0  0
  8 10  1  0  0  0  0
  9  6  2  0  0  0  0
 10  5  1  0  0  0  0
 10 12  2  0  0  0  0
 11  8  2  0  0  0  0
 11  9  1  0  0  0  0
 12  7  1  0  0  0  0
 13 14  3  0  0  0  0
 15  9  1  0  0  0  0
 16 15  1  0  0  0  0
 16 19  1  0  0  0  0
 17 19  1  0  0  0  0
 19 18  1  0  0  0  0
 20 19  1  0  0  0  0
 21 24  1  0  0  0  0
 22 27  1  1  0  0  0
 23 22  1  0  0  0  0
 24 22  1  0  0  0  0
 25 21  1  6  0  0  0
 25 23  1  0  0  0  0
 26 28  1  0  0  0  0
 27 26  2  0  0  0  0
 28 31  1  0  0  0  0
 29 31  2  0  0  0  0
 29 32  1  0  0  0  0
 30 33  2  0  0  0  0
 31 30  1  0  0  0  0
 32 34  2  0  0  0  0
 34 33  1  0  0  0  0
 35 32  1  0  0  0  0
 35 36  1  0  0  0  0
 37 38  2  0  0  0  0
 38 35  1  0  0  0  0
 39 40  1  6  0  0  0
 41 42  1  0  0  0  0
 41 39  1  0  0  0  0
 43 42  1  0  0  0  0
 46 45  1  6  0  0  0
 46 44  1  0  0  0  0
 46 47  1  0  0  0  0
 47 48  2  0  0  0  0
 47 49  1  0  0  0  0
M  END
>  <MODEL>
5

>  <REMARK>
 VINA RESULT:      -5.7      4.867      7.571
  Name = 
  17 active torsions:
  status: ('A' for Active; 'I' for Inactive)
    1  A    between atoms: C_2  and  N_48
    2  A    between atoms: C_5  and  O_6
    3  A    between atoms: C_5  and  C_7
    4  A    between atoms: O_6  and  C_25
    5  A    between atoms: N_9  and  C_13
    6  A    between atoms: N_9  and  C_31
    7  A    between atoms: C_12  and  C_20
    8  A    between atoms: C_14  and  C_45
    9  A    between atoms: C_15  and  O_32
   10  A    between atoms: N_21  and  C_46
   11  A    between atoms: N_23  and  C_40
   12  A    between atoms: C_24  and  C_44
   13  A    between atoms: C_27  and  C_49
   14  A    between atoms: C_29  and  C_46
   15  A    between atoms: O_32  and  C_44
   16  A    between atoms: C_38  and  N_42
   17  A    between atoms: N_42  and  C_49
                            x       y       z     vdW  Elec       q    Type
                         _______ _______ _______ _____ _____    ______ ____

>  <TORSDO>
F 17

$$$$
=
 OpenBabel10232409183D

 49 52  0  0  1  0  0  0  0  0999 V2000
  183.1470  177.9270  136.8550 C   0  0  2  0  0  3  0  0  0  0  0  0
  184.2730  176.9350  136.6010 C   0  0  0  0  0  2  0  0  0  0  0  0
  184.9290  178.3910  138.4090 C   0  0  2  0  0  3  0  0  0  0  0  0
  183.4060  178.5080  138.2530 C   0  0  2  0  0  3  0  0  0  0  0  0
  185.3450  177.3480  137.4830 N   0  0  0  0  0  0  0  0  0  0  0  0
  188.5730  175.6310  136.6400 C   0  0  0  0  0  0  0  0  0  0  0  0
  186.4050  174.7000  137.3330 N   0  0  0  0  0  1  0  0  0  0  0  0
  187.5250  178.2270  136.8320 C   0  0  0  0  0  3  0  0  0  0  0  0
  189.3800  176.7430  136.3280 C   0  0  0  0  0  0  0  0  0  0  0  0
  186.7140  177.1290  137.1310 C   0  0  0  0  0  0  0  0  0  0  0  0
  188.8470  178.0360  136.4340 C   0  0  0  0  0  3  0  0  0  0  0  0
  187.2360  175.8250  137.0350 C   0  0  0  0  0  0  0  0  0  0  0  0
  189.1180  174.2950  136.5430 C   0  0  0  0  0  0  0  0  0  0  0  0
  189.5580  173.2250  136.4640 N   0  0  0  0  0  0  0  0  0  0  0  0
  190.7370  176.5500  135.9100 N   0  0  0  0  0  2  0  0  0  0  0  0
  191.8730  176.5170  136.8250 C   0  0  0  0  0  2  0  0  0  0  0  0
  192.9460  174.5400  137.5470 F   0  0  0  0  0  0  0  0  0  0  0  0
  194.0650  175.8910  136.1330 F   0  0  0  0  0  0  0  0  0  0  0  0
  192.8210  175.3860  136.4630 C   0  0  0  0  0  0  0  0  0  0  0  0
  192.3200  174.6750  135.3900 F   0  0  0  0  0  0  0  0  0  0  0  0
  186.9140  178.2350  140.0140 C   0  0  0  0  0  2  0  0  0  0  0  0
  185.9040  179.4770  141.8270 C   0  0  2  0  0  3  0  0  0  0  0  0
  184.8180  179.1580  140.8100 C   0  0  0  0  0  2  0  0  0  0  0  0
  187.1220  178.6550  141.4500 C   0  0  0  0  0  2  0  0  0  0  0  0
  185.4080  178.1430  139.8510 C   0  0  1  0  0  3  0  0  0  0  0  0
  186.1990  178.4140  143.8810 N   0  0  0  0  0  0  0  0  0  0  0  0
  185.4700  179.1080  143.1480 N   0  0  0  0  0  0  0  0  0  0  0  0
  185.7700  178.0460  145.2080 C   0  0  0  0  0  2  0  0  0  0  0  0
  188.1870  177.5160  145.6300 C   0  0  0  0  0  3  0  0  0  0  0  0
  186.7830  178.1580  147.4860 C   0  0  0  0  0  3  0  0  0  0  0  0
  186.9410  177.9110  146.1240 C   0  0  0  0  0  0  0  0  0  0  0  0
  189.2690  177.3720  146.5110 C   0  0  0  0  0  0  0  0  0  0  0  0
  187.8780  178.0100  148.3370 C   0  0  0  0  0  3  0  0  0  0  0  0
  189.0820  177.6240  147.8380 N   0  0  0  0  0  0  0  0  0  0  0  0
  190.5610  176.9610  146.0300 N   0  0  0  0  0  0  0  0  0  0  0  0
  191.5990  176.5450  146.9720 C   0  0  0  0  0  1  0  0  0  0  0  0
  191.6000  177.8760  144.0390 C   0  0  0  0  0  2  0  0  0  0  0  0
  190.8220  176.9650  144.6180 C   0  0  0  0  0  3  0  0  0  0  0  0
  181.7490  177.3060  136.6660 C   0  0  2  0  0  3  0  0  0  0  0  0
  180.6150  178.3210  136.8100 C   0  0  0  0  0  1  0  0  0  0  0  0
  181.5390  176.1490  137.4520 O   0  0  0  0  0  0  0  0  0  0  0  0
  180.7000  175.2620  136.7550 C   0  0  0  0  0  2  0  0  0  0  0  0
  180.0080  174.4630  137.6670 O   0  0  0  0  0  1  0  0  0  0  0  0
  182.7320  177.7560  139.2300 O   0  0  0  0  0  0  0  0  0  0  0  0
  181.7060  179.7970  139.3480 O   0  0  0  0  0  1  0  0  0  0  0  0
  182.1490  178.6960  140.0870 C   0  0  1  0  0  3  0  0  0  0  0  0
  181.0000  178.0790  140.8100 C   0  0  0  0  0  0  0  0  0  0  0  0
  180.3870  176.9460  140.2910 O   0  0  0  0  0  0  0  0  0  0  0  0
  180.5680  178.5880  141.8770 O   0  0  0  0  0  1  0  0  0  0  0  0
  1 39  1  1  0  0  0
  1  4  1  0  0  0  0
  2  1  1  0  0  0  0
  2  5  1  0  0  0  0
  3  5  1  6  0  0  0
  3 25  1  0  0  0  0
  4  3  1  0  0  0  0
  4 44  1  1  0  0  0
  6 12  1  0  0  0  0
  8 10  1  0  0  0  0
  9 11  1  0  0  0  0
  9  6  2  0  0  0  0
 10  5  1  0  0  0  0
 11  8  2  0  0  0  0
 12 10  2  0  0  0  0
 12  7  1  0  0  0  0
 13  6  1  0  0  0  0
 14 13  3  0  0  0  0
 15  9  1  0  0  0  0
 15 16  1  0  0  0  0
 18 19  1  0  0  0  0
 19 16  1  0  0  0  0
 19 17  1  0  0  0  0
 20 19  1  0  0  0  0
 21 24  1  0  0  0  0
 22 27  1  1  0  0  0
 23 22  1  0  0  0  0
 24 22  1  0  0  0  0
 25 21  1  6  0  0  0
 25 23  1  0  0  0  0
 26 28  1  0  0  0  0
 27 26  2  0  0  0  0
 28 31  1  0  0  0  0
 29 31  2  0  0  0  0
 29 32  1  0  0  0  0
 30 33  2  0  0  0  0
 31 30  1  0  0  0  0
 32 34  2  0  0  0  0
 34 33  1  0  0  0  0
 35 32  1  0  0  0  0
 35 36  1  0  0  0  0
 37 38  2  0  0  0  0
 38 35  1  0  0  0  0
 39 40  1  1  0  0  0
 39 41  1  0  0  0  0
 42 41  1  0  0  0  0
 42 43  1  0  0  0  0
 44 46  1  0  0  0  0
 46 45  1  6  0  0  0
 46 47  1  0  0  0  0
 47 49  1  0  0  0  0
 48 47  2  0  0  0  0
M  END
>  <MODEL>
6

>  <REMARK>
 VINA RESULT:      -5.4      5.252      8.076
  Name = 
  17 active torsions:
  status: ('A' for Active; 'I' for Inactive)
    1  A    between atoms: C_2  and  N_48
    2  A    between atoms: C_5  and  O_6
    3  A    between atoms: C_5  and  C_7
    4  A    between atoms: O_6  and  C_25
    5  A    between atoms: N_9  and  C_13
    6  A    between atoms: N_9  and  C_31
    7  A    between atoms: C_12  and  C_20
    8  A    between atoms: C_14  and  C_45
    9  A    between atoms: C_15  and  O_32
   10  A    between atoms: N_21  and  C_46
   11  A    between atoms: N_23  and  C_40
   12  A    between atoms: C_24  and  C_44
   13  A    between atoms: C_27  and  C_49
   14  A    between atoms: C_29  and  C_46
   15  A    between atoms: O_32  and  C_44
   16  A    between atoms: C_38  and  N_42
   17  A    between atoms: N_42  and  C_49
                            x       y       z     vdW  Elec       q    Type
                         _______ _______ _______ _____ _____    ______ ____

>  <TORSDO>
F 17

$$$$
=
 OpenBabel10232409183D

 49 52  0  0  1  0  0  0  0  0999 V2000
  184.2260  178.1650  142.6570 C   0  0  2  0  0  3  0  0  0  0  0  0
  185.0920  178.5790  143.8380 C   0  0  0  0  0  2  0  0  0  0  0  0
  186.5240  177.6780  142.1180 C   0  0  2  0  0  3  0  0  0  0  0  0
  185.1820  178.0310  141.4620 C   0  0  2  0  0  3  0  0  0  0  0  0
  186.4320  178.1510  143.4910 N   0  0  0  0  0  0  0  0  0  0  0  0
  188.0790  177.7150  146.8350 C   0  0  0  0  0  0  0  0  0  0  0  0
  186.0440  178.9450  146.2070 N   0  0  0  0  0  1  0  0  0  0  0  0
  188.4650  176.9780  144.1550 C   0  0  0  0  0  3  0  0  0  0  0  0
  189.1750  176.9050  146.4770 C   0  0  0  0  0  0  0  0  0  0  0  0
  187.3680  177.7700  144.5040 C   0  0  0  0  0  0  0  0  0  0  0  0
  189.3610  176.5480  145.1330 C   0  0  0  0  0  3  0  0  0  0  0  0
  187.1700  178.1410  145.8480 C   0  0  0  0  0  0  0  0  0  0  0  0
  187.8850  178.0960  148.2170 C   0  0  0  0  0  0  0  0  0  0  0  0
  187.7290  178.3970  149.3260 N   0  0  0  0  0  0  0  0  0  0  0  0
  190.0940  176.4560  147.4800 N   0  0  0  0  0  2  0  0  0  0  0  0
  191.5200  176.7570  147.4700 C   0  0  0  0  0  2  0  0  0  0  0  0
  192.4490  175.0590  146.1160 F   0  0  0  0  0  0  0  0  0  0  0  0
  191.7200  174.4890  148.1700 F   0  0  0  0  0  0  0  0  0  0  0  0
  192.3380  175.4770  147.4270 C   0  0  0  0  0  0  0  0  0  0  0  0
  193.6010  175.7060  147.9370 F   0  0  0  0  0  0  0  0  0  0  0  0
  188.7270  178.9660  142.2750 C   0  0  0  0  0  2  0  0  0  0  0  0
  190.0270  177.4650  140.8940 C   0  0  2  0  0  3  0  0  0  0  0  0
  188.5590  177.0920  140.7460 C   0  0  0  0  0  2  0  0  0  0  0  0
  190.0770  178.7980  141.6160 C   0  0  0  0  0  2  0  0  0  0  0  0
  187.7610  178.2160  141.3770 C   0  0  1  0  0  3  0  0  0  0  0  0
  190.6120  176.6590  138.7870 N   0  0  0  0  0  0  0  0  0  0  0  0
  190.6360  177.6020  139.5990 N   0  0  0  0  0  0  0  0  0  0  0  0
  191.2160  176.7940  137.4840 C   0  0  0  0  0  2  0  0  0  0  0  0
  193.1440  175.2390  137.8910 C   0  0  0  0  0  3  0  0  0  0  0  0
  191.6420  174.7930  136.0550 C   0  0  0  0  0  3  0  0  0  0  0  0
  192.0140  175.5790  137.1430 C   0  0  0  0  0  0  0  0  0  0  0  0
  193.8940  174.1060  137.5400 C   0  0  0  0  0  0  0  0  0  0  0  0
  192.4040  173.6720  135.7320 C   0  0  0  0  0  3  0  0  0  0  0  0
  193.5010  173.3560  136.4710 N   0  0  0  0  0  0  0  0  0  0  0  0
  195.0650  173.7360  138.2900 N   0  0  0  0  0  0  0  0  0  0  0  0
  195.6350  174.6600  139.2690 C   0  0  0  0  0  1  0  0  0  0  0  0
  196.7760  172.3020  137.3440 C   0  0  0  0  0  2  0  0  0  0  0  0
  195.6680  172.4520  138.0650 C   0  0  0  0  0  3  0  0  0  0  0  0
  183.0370  179.1160  142.4250 C   0  0  2  0  0  3  0  0  0  0  0  0
  182.3420  179.5380  143.7210 C   0  0  0  0  0  1  0  0  0  0  0  0
  182.1220  178.6450  141.4540 O   0  0  0  0  0  0  0  0  0  0  0  0
  180.8110  178.9280  141.8760 C   0  0  0  0  0  2  0  0  0  0  0  0
  180.0290  177.7770  141.7650 O   0  0  0  0  0  1  0  0  0  0  0  0
  185.2600  179.2450  140.7580 O   0  0  0  0  0  0  0  0  0  0  0  0
  184.1140  180.2780  139.0700 O   0  0  0  0  0  1  0  0  0  0  0  0
  184.5200  179.0440  139.5870 C   0  0  1  0  0  3  0  0  0  0  0  0
  185.3510  178.3240  138.5790 C   0  0  0  0  0  0  0  0  0  0  0  0
  186.6150  178.8030  138.2590 O   0  0  0  0  0  1  0  0  0  0  0  0
  184.9080  177.2970  138.0020 O   0  0  0  0  0  0  0  0  0  0  0  0
  1 39  1  6  0  0  0
  1  2  1  0  0  0  0
  3  5  1  1  0  0  0
  4 44  1  1  0  0  0
  4  3  1  0  0  0  0
  4  1  1  0  0  0  0
  5  2  1  0  0  0  0
  5 10  1  0  0  0  0
  6 13  1  0  0  0  0
  8 10  2  0  0  0  0
  8 11  1  0  0  0  0
  9  6  1  0  0  0  0
  9 15  1  0  0  0  0
 10 12  1  0  0  0  0
 11  9  2  0  0  0  0
 12  7  1  0  0  0  0
 12  6  2  0  0  0  0
 13 14  3  0  0  0  0
 16 15  1  0  0  0  0
 17 19  1  0  0  0  0
 19 16  1  0  0  0  0
 19 20  1  0  0  0  0
 19 18  1  0  0  0  0
 22 27  1  6  0  0  0
 22 24  1  0  0  0  0
 23 22  1  0  0  0  0
 24 21  1  0  0  0  0
 25 23  1  1  0  0  0
 25  3  1  0  0  0  0
 25 21  1  0  0  0  0
 26 27  2  0  0  0  0
 28 26  1  0  0  0  0
 30 31  1  0  0  0  0
 31 28  1  0  0  0  0
 31 29  2  0  0  0  0
 32 29  1  0  0  0  0
 32 35  1  0  0  0  0
 33 30  2  0  0  0  0
 33 34  1  0  0  0  0
 34 32  2  0  0  0  0
 35 36  1  0  0  0  0
 37 38  2  0  0  0  0
 38 35  1  0  0  0  0
 39 40  1  1  0  0  0
 41 42  1  0  0  0  0
 41 39  1  0  0  0  0
 43 42  1  0  0  0  0
 46 45  1  6  0  0  0
 46 44  1  0  0  0  0
 47 46  1  0  0  0  0
 48 47  1  0  0  0  0
 49 47  2  0  0  0  0
M  END
>  <MODEL>
7

>  <REMARK>
 VINA RESULT:      -5.2      5.643     10.653
  Name = 
  17 active torsions:
  status: ('A' for Active; 'I' for Inactive)
    1  A    between atoms: C_2  and  N_48
    2  A    between atoms: C_5  and  O_6
    3  A    between atoms: C_5  and  C_7
    4  A    between atoms: O_6  and  C_25
    5  A    between atoms: N_9  and  C_13
    6  A    between atoms: N_9  and  C_31
    7  A    between atoms: C_12  and  C_20
    8  A    between atoms: C_14  and  C_45
    9  A    between atoms: C_15  and  O_32
   10  A    between atoms: N_21  and  C_46
   11  A    between atoms: N_23  and  C_40
   12  A    between atoms: C_24  and  C_44
   13  A    between atoms: C_27  and  C_49
   14  A    between atoms: C_29  and  C_46
   15  A    between atoms: O_32  and  C_44
   16  A    between atoms: C_38  and  N_42
   17  A    between atoms: N_42  and  C_49
                            x       y       z     vdW  Elec       q    Type
                         _______ _______ _______ _____ _____    ______ ____

>  <TORSDO>
F 17

$$$$
=
 OpenBabel10232409183D

 49 52  0  0  1  0  0  0  0  0999 V2000
  187.7220  178.0500  138.1250 C   0  0  2  0  0  3  0  0  0  0  0  0
  188.6120  176.8360  137.8970 C   0  0  0  0  0  2  0  0  0  0  0  0
  189.3540  177.9630  139.8960 C   0  0  2  0  0  3  0  0  0  0  0  0
  187.9310  178.4540  139.5920 C   0  0  2  0  0  3  0  0  0  0  0  0
  189.6310  176.9170  138.9220 N   0  0  0  0  0  0  0  0  0  0  0  0
  192.4460  174.7550  137.7040 C   0  0  0  0  0  0  0  0  0  0  0  0
  190.0130  174.5000  137.4490 N   0  0  0  0  0  1  0  0  0  0  0  0
  192.0490  177.1060  139.1830 C   0  0  0  0  0  3  0  0  0  0  0  0
  193.5520  175.4810  138.1850 C   0  0  0  0  0  0  0  0  0  0  0  0
  190.9450  176.3990  138.6970 C   0  0  0  0  0  0  0  0  0  0  0  0
  193.3410  176.6510  138.9290 C   0  0  0  0  0  3  0  0  0  0  0  0
  191.1400  175.2200  137.9530 C   0  0  0  0  0  0  0  0  0  0  0  0
  192.6540  173.5410  136.9440 C   0  0  0  0  0  0  0  0  0  0  0  0
  192.8170  172.5670  136.3360 N   0  0  0  0  0  0  0  0  0  0  0  0
  194.8830  175.0200  137.9200 N   0  0  0  0  0  2  0  0  0  0  0  0
  195.8780  174.7650  138.9560 C   0  0  0  0  0  2  0  0  0  0  0  0
  197.3010  175.2290  137.1280 F   0  0  0  0  0  0  0  0  0  0  0  0
  197.5040  173.2270  138.1410 F   0  0  0  0  0  0  0  0  0  0  0  0
  197.2540  174.5710  138.3420 C   0  0  0  0  0  0  0  0  0  0  0  0
  198.2220  175.0930  139.1770 F   0  0  0  0  0  0  0  0  0  0  0  0
  189.3760  176.0200  141.5580 C   0  0  0  0  0  2  0  0  0  0  0  0
  191.4180  176.6450  142.6910 C   0  0  2  0  0  3  0  0  0  0  0  0
  190.9920  177.8100  141.8090 C   0  0  0  0  0  2  0  0  0  0  0  0
  190.2570  175.6710  142.7340 C   0  0  0  0  0  2  0  0  0  0  0  0
  189.5790  177.5090  141.3490 C   0  0  1  0  0  3  0  0  0  0  0  0
  191.2560  176.4980  145.0120 N   0  0  0  0  0  0  0  0  0  0  0  0
  191.6990  177.1100  144.0230 N   0  0  0  0  0  0  0  0  0  0  0  0
  191.5400  176.9570  146.3500 C   0  0  0  0  0  2  0  0  0  0  0  0
  189.0520  177.2940  146.3920 C   0  0  0  0  0  3  0  0  0  0  0  0
  190.3610  177.9550  148.3100 C   0  0  0  0  0  3  0  0  0  0  0  0
  190.2890  177.4030  147.0320 C   0  0  0  0  0  0  0  0  0  0  0  0
  187.8920  177.7400  147.0420 C   0  0  0  0  0  0  0  0  0  0  0  0
  189.1900  178.3870  148.9320 C   0  0  0  0  0  3  0  0  0  0  0  0
  187.9960  178.2730  148.2930 N   0  0  0  0  0  0  0  0  0  0  0  0
  186.6060  177.6450  146.4030 N   0  0  0  0  0  0  0  0  0  0  0  0
  186.1320  176.3590  145.8930 C   0  0  0  0  0  1  0  0  0  0  0  0
  184.4690  178.7860  146.3400 C   0  0  0  0  0  2  0  0  0  0  0  0
  185.7960  178.8230  146.2700 C   0  0  0  0  0  3  0  0  0  0  0  0
  186.2540  177.7970  137.7300 C   0  0  2  0  0  3  0  0  0  0  0  0
  186.1020  177.1870  136.3370 C   0  0  0  0  0  1  0  0  0  0  0  0
  185.4210  178.9260  137.9170 O   0  0  0  0  0  0  0  0  0  0  0  0
  184.0930  178.4980  138.0840 C   0  0  0  0  0  2  0  0  0  0  0  0
  183.3240  179.5530  138.5810 O   0  0  0  0  0  1  0  0  0  0  0  0
  186.9850  177.8200  140.4140 O   0  0  0  0  0  0  0  0  0  0  0  0
  185.5660  179.5610  140.8480 O   0  0  0  0  0  1  0  0  0  0  0  0
  186.6090  178.7830  141.3590 C   0  0  1  0  0  3  0  0  0  0  0  0
  186.1690  178.1130  142.6170 C   0  0  0  0  0  0  0  0  0  0  0  0
  187.0740  177.3540  143.3470 O   0  0  0  0  0  1  0  0  0  0  0  0
  184.9790  178.2160  143.0130 O   0  0  0  0  0  0  0  0  0  0  0  0
  1 39  1  1  0  0  0
  1  4  1  0  0  0  0
  2  1  1  0  0  0  0
  2  5  1  0  0  0  0
  3  5  1  6  0  0  0
  3 25  1  0  0  0  0
  4  3  1  0  0  0  0
  4 44  1  1  0  0  0
  6 12  2  0  0  0  0
  6  9  1  0  0  0  0
  7 12  1  0  0  0  0
  9 11  2  0  0  0  0
 10  5  1  0  0  0  0
 10  8  2  0  0  0  0
 11  8  1  0  0  0  0
 12 10  1  0  0  0  0
 13  6  1  0  0  0  0
 14 13  3  0  0  0  0
 15  9  1  0  0  0  0
 15 16  1  0  0  0  0
 17 19  1  0  0  0  0
 18 19  1  0  0  0  0
 19 16  1  0  0  0  0
 19 20  1  0  0  0  0
 21 24  1  0  0  0  0
 22 24  1  0  0  0  0
 22 27  1  1  0  0  0
 23 22  1  0  0  0  0
 25 21  1  6  0  0  0
 25 23  1  0  0  0  0
 26 28  1  0  0  0  0
 27 26  2  0  0  0  0
 28 31  1  0  0  0  0
 29 31  2  0  0  0  0
 29 32  1  0  0  0  0
 30 33  2  0  0  0  0
 31 30  1  0  0  0  0
 32 34  2  0  0  0  0
 34 33  1  0  0  0  0
 35 32  1  0  0  0  0
 36 35  1  0  0  0  0
 38 37  2  0  0  0  0
 38 35  1  0  0  0  0
 39 40  1  6  0  0  0
 39 41  1  0  0  0  0
 41 42  1  0  0  0  0
 42 43  1  0  0  0  0
 44 46  1  0  0  0  0
 46 45  1  6  0  0  0
 46 47  1  0  0  0  0
 47 49  2  0  0  0  0
 47 48  1  0  0  0  0
M  END
>  <MODEL>
8

>  <REMARK>
 VINA RESULT:      -5.2      5.272      8.338
  Name = 
  17 active torsions:
  status: ('A' for Active; 'I' for Inactive)
    1  A    between atoms: C_2  and  N_48
    2  A    between atoms: C_5  and  O_6
    3  A    between atoms: C_5  and  C_7
    4  A    between atoms: O_6  and  C_25
    5  A    between atoms: N_9  and  C_13
    6  A    between atoms: N_9  and  C_31
    7  A    between atoms: C_12  and  C_20
    8  A    between atoms: C_14  and  C_45
    9  A    between atoms: C_15  and  O_32
   10  A    between atoms: N_21  and  C_46
   11  A    between atoms: N_23  and  C_40
   12  A    between atoms: C_24  and  C_44
   13  A    between atoms: C_27  and  C_49
   14  A    between atoms: C_29  and  C_46
   15  A    between atoms: O_32  and  C_44
   16  A    between atoms: C_38  and  N_42
   17  A    between atoms: N_42  and  C_49
                            x       y       z     vdW  Elec       q    Type
                         _______ _______ _______ _____ _____    ______ ____

>  <TORSDO>
F 17

$$$$
=
 OpenBabel10232409183D

 49 52  0  0  1  0  0  0  0  0999 V2000
  189.7980  177.2180  138.2470 C   0  0  2  0  0  3  0  0  0  0  0  0
  189.8310  176.5390  139.6090 C   0  0  0  0  0  2  0  0  0  0  0  0
  188.0250  178.1380  139.5950 C   0  0  2  0  0  3  0  0  0  0  0  0
  188.4090  177.8640  138.1340 C   0  0  2  0  0  3  0  0  0  0  0  0
  188.8240  177.2210  140.3950 N   0  0  0  0  0  0  0  0  0  0  0  0
  190.2170  178.0600  143.7770 C   0  0  0  0  0  0  0  0  0  0  0  0
  191.2090  178.2980  141.5390 N   0  0  0  0  0  1  0  0  0  0  0  0
  187.8980  176.9670  142.6370 C   0  0  0  0  0  3  0  0  0  0  0  0
  189.1360  177.6850  144.5990 C   0  0  0  0  0  0  0  0  0  0  0  0
  188.9600  177.3500  141.8130 C   0  0  0  0  0  0  0  0  0  0  0  0
  187.9840  177.1340  144.0180 C   0  0  0  0  0  3  0  0  0  0  0  0
  190.1250  177.8990  142.3810 C   0  0  0  0  0  0  0  0  0  0  0  0
  191.4130  178.6190  144.3690 C   0  0  0  0  0  0  0  0  0  0  0  0
  192.3720  179.0700  144.8390 N   0  0  0  0  0  0  0  0  0  0  0  0
  189.2200  177.8610  146.0180 N   0  0  0  0  0  2  0  0  0  0  0  0
  188.4690  177.0640  146.9830 C   0  0  0  0  0  2  0  0  0  0  0  0
  189.0970  178.6590  148.6090 F   0  0  0  0  0  0  0  0  0  0  0  0
  187.5490  177.1250  149.1790 F   0  0  0  0  0  0  0  0  0  0  0  0
  188.0210  177.9230  148.1540 C   0  0  0  0  0  0  0  0  0  0  0  0
  187.0200  178.7850  147.7510 F   0  0  0  0  0  0  0  0  0  0  0  0
  186.0920  178.7980  141.1340 C   0  0  0  0  0  2  0  0  0  0  0  0
  184.5060  179.3140  139.3830 C   0  0  2  0  0  3  0  0  0  0  0  0
  185.6940  178.6040  138.7510 C   0  0  0  0  0  2  0  0  0  0  0  0
  184.6490  179.1680  140.8860 C   0  0  0  0  0  2  0  0  0  0  0  0
  186.5180  178.0390  139.8910 C   0  0  1  0  0  3  0  0  0  0  0  0
  183.0040  177.5330  139.3000 N   0  0  0  0  0  0  0  0  0  0  0  0
  183.2770  178.6990  138.9590 N   0  0  0  0  0  0  0  0  0  0  0  0
  181.7710  176.9140  138.8810 C   0  0  0  0  0  2  0  0  0  0  0  0
  182.9200  174.9570  137.8090 C   0  0  0  0  0  3  0  0  0  0  0  0
  181.3130  176.2230  136.5270 C   0  0  0  0  0  3  0  0  0  0  0  0
  182.0020  176.0060  137.7190 C   0  0  0  0  0  0  0  0  0  0  0  0
  183.1400  174.1290  136.6990 C   0  0  0  0  0  0  0  0  0  0  0  0
  181.5510  175.3820  135.4410 C   0  0  0  0  0  3  0  0  0  0  0  0
  182.4490  174.3660  135.5470 N   0  0  0  0  0  0  0  0  0  0  0  0
  184.0840  173.0450  136.7620 N   0  0  0  0  0  0  0  0  0  0  0  0
  183.6230  171.6820  137.0210 C   0  0  0  0  0  1  0  0  0  0  0  0
  186.4220  172.7870  137.3490 C   0  0  0  0  0  2  0  0  0  0  0  0
  185.4820  173.3150  136.5710 C   0  0  0  0  0  3  0  0  0  0  0  0
  190.1570  176.2610  137.0940 C   0  0  2  0  0  3  0  0  0  0  0  0
  190.0900  174.7860  137.4920 C   0  0  0  0  0  1  0  0  0  0  0  0
  191.3740  176.5900  136.4500 O   0  0  0  0  0  0  0  0  0  0  0  0
  192.4400  175.9880  137.1400 C   0  0  0  0  0  2  0  0  0  0  0  0
  193.5760  175.9840  136.3280 O   0  0  0  0  0  1  0  0  0  0  0  0
  187.5040  176.9800  137.5240 O   0  0  0  0  0  0  0  0  0  0  0  0
  188.1180  178.2160  135.7000 O   0  0  0  0  0  1  0  0  0  0  0  0
  187.0400  177.6490  136.3860 C   0  0  1  0  0  3  0  0  0  0  0  0
  186.3220  176.6930  135.4930 C   0  0  0  0  0  0  0  0  0  0  0  0
  187.0470  175.8270  134.6850 O   0  0  0  0  0  0  0  0  0  0  0  0
  185.0640  176.6780  135.4530 O   0  0  0  0  0  1  0  0  0  0  0  0
  1 39  1  6  0  0  0
  1  2  1  0  0  0  0
  2  5  1  0  0  0  0
  3 25  1  0  0  0  0
  3  5  1  1  0  0  0
  4 44  1  1  0  0  0
  4  1  1  0  0  0  0
  4  3  1  0  0  0  0
  5 10  1  0  0  0  0
  6 13  1  0  0  0  0
  6  9  1  0  0  0  0
  7 12  1  0  0  0  0
  8 11  1  0  0  0  0
  9 15  1  0  0  0  0
 10 12  1  0  0  0  0
 10  8  2  0  0  0  0
 11  9  2  0  0  0  0
 12  6  2  0  0  0  0
 13 14  3  0  0  0  0
 15 16  1  0  0  0  0
 16 19  1  0  0  0  0
 19 17  1  0  0  0  0
 19 18  1  0  0  0  0
 20 19  1  0  0  0  0
 22 27  1  6  0  0  0
 22 24  1  0  0  0  0
 23 22  1  0  0  0  0
 24 21  1  0  0  0  0
 25 23  1  6  0  0  0
 25 21  1  0  0  0  0
 27 26  2  0  0  0  0
 28 26  1  0  0  0  0
 30 31  2  0  0  0  0
 31 29  1  0  0  0  0
 31 28  1  0  0  0  0
 32 35  1  0  0  0  0
 32 29  2  0  0  0  0
 33 34  2  0  0  0  0
 33 30  1  0  0  0  0
 34 32  1  0  0  0  0
 35 36  1  0  0  0  0
 38 35  1  0  0  0  0
 38 37  2  0  0  0  0
 39 40  1  1  0  0  0
 41 39  1  0  0  0  0
 41 42  1  0  0  0  0
 43 42  1  0  0  0  0
 46 45  1  6  0  0  0
 46 44  1  0  0  0  0
 47 46  1  0  0  0  0
 48 47  2  0  0  0  0
 49 47  1  0  0  0  0
M  END
>  <MODEL>
9

>  <REMARK>
 VINA RESULT:      -5.2      3.910      8.984
  Name = 
  17 active torsions:
  status: ('A' for Active; 'I' for Inactive)
    1  A    between atoms: C_2  and  N_48
    2  A    between atoms: C_5  and  O_6
    3  A    between atoms: C_5  and  C_7
    4  A    between atoms: O_6  and  C_25
    5  A    between atoms: N_9  and  C_13
    6  A    between atoms: N_9  and  C_31
    7  A    between atoms: C_12  and  C_20
    8  A    between atoms: C_14  and  C_45
    9  A    between atoms: C_15  and  O_32
   10  A    between atoms: N_21  and  C_46
   11  A    between atoms: N_23  and  C_40
   12  A    between atoms: C_24  and  C_44
   13  A    between atoms: C_27  and  C_49
   14  A    between atoms: C_29  and  C_46
   15  A    between atoms: O_32  and  C_44
   16  A    between atoms: C_38  and  N_42
   17  A    between atoms: N_42  and  C_49
                            x       y       z     vdW  Elec       q    Type
                         _______ _______ _______ _____ _____    ______ ____

>  <TORSDO>
F 17

$$$$
