=
 OpenBabel10232408313D

 45 50  0  0  1  0  0  0  0  0999 V2000
  184.0070  178.0170  140.0700 O   0  0  0  0  0  0  0  0  0  0  0  0
  185.2800  178.4460  140.5210 C   0  0  1  0  0  3  0  0  0  0  0  0
  184.7590  178.7950  139.1740 C   0  0  1  0  0  0  0  0  0  0  0  0
  186.5220  176.6690  135.8780 C   0  0  0  0  0  0  0  0  0  0  0  0
  184.6880  177.0070  137.4330 C   0  0  0  0  0  3  0  0  0  0  0  0
  187.1970  177.7520  136.4560 C   0  0  0  0  0  3  0  0  0  0  0  0
  185.2550  176.3110  136.3650 C   0  0  0  0  0  3  0  0  0  0  0  0
  185.3770  178.0710  138.0200 C   0  0  0  0  0  0  0  0  0  0  0  0
  186.6330  178.4440  137.5270 C   0  0  0  0  0  3  0  0  0  0  0  0
  188.6600  176.0140  134.6910 C   0  0  0  0  0  2  0  0  0  0  0  0
  190.6130  174.7430  135.2580 O   0  0  0  0  0  1  0  0  0  0  0  0
  187.1250  175.9800  134.6880 C   0  0  1  0  0  3  0  0  0  0  0  0
  187.5790  173.4710  134.4520 C   0  0  0  0  0  2  0  0  0  0  0  0
  186.5270  174.5790  134.4940 C   0  0  0  0  0  2  0  0  0  0  0  0
  189.2810  174.9530  135.6160 C   0  0  2  0  0  3  0  0  0  0  0  0
  188.5270  173.6190  135.6390 C   0  0  0  0  0  2  0  0  0  0  0  0
  182.5590  181.7180  138.7980 O   0  0  0  0  0  0  0  0  0  0  0  0
  184.2620  180.1590  139.0120 N   0  0  0  0  0  2  0  0  0  0  0  0
  182.9160  180.5180  138.6870 C   0  0  0  0  0  0  0  0  0  0  0  0
  181.9410  179.5080  138.1780 C   0  0  0  0  0  2  0  0  0  0  0  0
  180.8120  179.2720  139.1780 C   0  0  0  0  0  2  0  0  0  0  0  0
  180.1950  177.8890  139.0270 C   0  0  0  0  0  2  0  0  0  0  0  0
  181.1250  176.9150  138.3180 C   0  0  0  0  0  2  0  0  0  0  0  0
  180.3070  175.2510  139.9830 C   0  0  0  0  0  1  0  0  0  0  0  0
  181.5260  175.7710  139.2460 C   0  0  0  0  0  2  0  0  0  0  0  0
  185.1200  179.4900  141.4480 O   0  0  0  0  0  0  0  0  0  0  0  0
  184.2590  178.9960  142.4360 C   0  0  1  0  0  3  0  0  0  0  0  0
  182.9530  180.0910  144.1310 O   0  0  0  0  0  1  0  0  0  0  0  0
  185.7190  178.8180  145.6960 C   0  0  1  0  0  3  0  0  0  0  0  0
  184.9610  178.7960  144.3850 C   0  0  2  0  0  0  0  0  0  0  0  0
  184.9710  177.8680  143.2080 C   0  0  0  0  0  2  0  0  0  0  0  0
  184.2650  179.9230  143.6750 C   0  0  1  0  0  3  0  0  0  0  0  0
  184.3140  178.2050  145.6190 C   0  0  0  0  0  2  0  0  0  0  0  0
  187.4300  177.6880  144.2910 C   0  0  0  0  0  2  0  0  0  0  0  0
  188.9960  177.0750  146.6780 C   0  0  2  0  0  3  0  0  0  0  0  0
  189.6820  177.2530  145.3370 C   0  0  0  0  0  0  0  0  0  0  0  0
  186.8010  177.7460  145.7010 C   0  0  1  0  0  3  0  0  0  0  0  0
  188.9300  177.5310  144.2600 C   0  0  0  0  0  3  0  0  0  0  0  0
  187.8300  178.0450  146.7920 C   0  0  0  0  0  2  0  0  0  0  0  0
  189.8640  177.2850  147.7540 O   0  0  0  0  0  0  0  0  0  0  0  0
  189.2310  178.2600  148.5350 C   0  0  0  0  0  1  0  0  0  0  0  0
  191.1540  177.1050  145.1650 C   0  0  0  0  0  0  0  0  0  0  0  0
  191.8070  176.3130  145.8980 O   0  0  0  0  0  0  0  0  0  0  0  0
  192.0270  179.1260  144.2640 O   0  0  0  0  0  0  0  0  0  0  0  0
  191.8730  177.8800  144.1430 C   0  0  0  0  0  3  0  0  0  0  0  0
  1  2  1  0  0  0  0
  2 26  1  1  0  0  0
  3 18  1  6  0  0  0
  3  1  1  0  0  0  0
  3  2  1  0  0  0  0
  4  7  2  0  0  0  0
  4  6  1  0  0  0  0
  5  8  2  0  0  0  0
  6  9  2  0  0  0  0
  7  5  1  0  0  0  0
  8  3  1  0  0  0  0
  9  8  1  0  0  0  0
 10 15  1  0  0  0  0
 12 10  1  0  0  0  0
 12  4  1  1  0  0  0
 13 14  1  0  0  0  0
 13 16  1  0  0  0  0
 14 12  1  0  0  0  0
 15 11  1  6  0  0  0
 15 16  1  0  0  0  0
 19 17  2  0  0  0  0
 19 18  1  0  0  0  0
 20 19  1  0  0  0  0
 20 21  1  0  0  0  0
 22 21  1  0  0  0  0
 23 22  1  0  0  0  0
 23 25  1  0  0  0  0
 25 24  1  0  0  0  0
 27 26  1  6  0  0  0
 27 31  1  0  0  0  0
 27 32  1  0  0  0  0
 29 33  1  1  0  0  0
 29 37  1  0  0  0  0
 30 31  1  6  0  0  0
 30 33  1  0  0  0  0
 30 29  1  0  0  0  0
 32 28  1  1  0  0  0
 32 30  1  0  0  0  0
 35 39  1  0  0  0  0
 35 40  1  1  0  0  0
 36 35  1  0  0  0  0
 37 34  1  6  0  0  0
 37 39  1  0  0  0  0
 38 34  1  0  0  0  0
 38 36  2  0  0  0  0
 40 41  1  0  0  0  0
 42 36  1  0  0  0  0
 42 43  2  0  0  0  0
 45 44  2  0  0  0  0
 45 42  1  0  0  0  0
M  END
>  <MODEL>
1

>  <REMARK>
 VINA RESULT:      -8.0      0.000      0.000
  Name = 
  14 active torsions:
  status: ('A' for Active; 'I' for Inactive)
    1  A    between atoms: C_2  and  O_32
    2  A    between atoms: C_3  and  C_34
    3  A    between atoms: C_3  and  C_41
    4  A    between atoms: O_4  and  C_24
    5  A    between atoms: C_7  and  C_18
    6  A    between atoms: C_10  and  C_30
    7  A    between atoms: C_13  and  C_29
    8  A    between atoms: C_13  and  C_33
    9  A    between atoms: C_15  and  C_22
   10  A    between atoms: C_15  and  C_40
   11  A    between atoms: C_22  and  C_41
   12  A    between atoms: N_27  and  C_43
   13  A    between atoms: C_31  and  O_32
   14  A    between atoms: C_37  and  C_43
                            x       y       z     vdW  Elec       q    Type
                         _______ _______ _______ _____ _____    ______ ____

>  <TORSDO>
F 14

$$$$
=
 OpenBabel10232408313D

 45 50  0  0  1  0  0  0  0  0999 V2000
  184.8690  179.8090  138.9430 O   0  0  0  0  0  0  0  0  0  0  0  0
  184.2460  179.1550  140.0340 C   0  0  1  0  0  3  0  0  0  0  0  0
  185.1510  178.4420  139.0960 C   0  0  1  0  0  0  0  0  0  0  0  0
  183.2850  175.7290  136.3300 C   0  0  0  0  0  0  0  0  0  0  0  0
  183.7510  176.4340  138.6070 C   0  0  0  0  0  3  0  0  0  0  0  0
  184.0140  176.8250  135.8540 C   0  0  0  0  0  3  0  0  0  0  0  0
  183.1450  175.5480  137.7150 C   0  0  0  0  0  3  0  0  0  0  0  0
  184.4960  177.5120  138.1240 C   0  0  0  0  0  0  0  0  0  0  0  0
  184.6250  177.7070  136.7440 C   0  0  0  0  0  3  0  0  0  0  0  0
  183.5380  173.8290  134.6760 C   0  0  0  0  0  2  0  0  0  0  0  0
  184.3410  171.5720  134.7700 O   0  0  0  0  0  1  0  0  0  0  0  0
  182.5880  174.8300  135.3510 C   0  0  1  0  0  3  0  0  0  0  0  0
  181.3390  172.6630  135.8990 C   0  0  0  0  0  2  0  0  0  0  0  0
  181.3390  174.1900  135.9740 C   0  0  0  0  0  2  0  0  0  0  0  0
  183.8550  172.6130  135.5630 C   0  0  2  0  0  3  0  0  0  0  0  0
  182.6730  172.1230  136.4060 C   0  0  0  0  0  2  0  0  0  0  0  0
  188.8100  178.2870  139.4430 O   0  0  0  0  0  0  0  0  0  0  0  0
  186.4990  178.1670  139.5900 N   0  0  0  0  0  2  0  0  0  0  0  0
  187.7070  178.3380  138.8420 C   0  0  0  0  0  0  0  0  0  0  0  0
  187.6860  178.5310  137.3610 C   0  0  0  0  0  2  0  0  0  0  0  0
  188.9880  178.0550  136.7210 C   0  0  0  0  0  2  0  0  0  0  0  0
  188.9400  176.5770  136.3610 C   0  0  0  0  0  2  0  0  0  0  0  0
  187.6280  176.1860  135.6960 C   0  0  0  0  0  2  0  0  0  0  0  0
  186.6560  174.4090  137.1480 C   0  0  0  0  0  1  0  0  0  0  0  0
  187.3690  174.6890  135.8400 C   0  0  0  0  0  2  0  0  0  0  0  0
  184.8890  179.5230  141.2280 O   0  0  0  0  0  0  0  0  0  0  0  0
  184.0920  179.0180  142.2640 C   0  0  1  0  0  3  0  0  0  0  0  0
  182.9060  180.0930  144.0570 O   0  0  0  0  0  1  0  0  0  0  0  0
  185.7620  178.7850  145.4170 C   0  0  1  0  0  3  0  0  0  0  0  0
  184.9200  178.7850  144.1590 C   0  0  2  0  0  0  0  0  0  0  0  0
  184.8480  177.8760  142.9710 C   0  0  0  0  0  2  0  0  0  0  0  0
  184.1840  179.9260  143.5130 C   0  0  1  0  0  3  0  0  0  0  0  0
  184.3520  178.1790  145.4240 C   0  0  0  0  0  2  0  0  0  0  0  0
  187.3700  177.6680  143.8860 C   0  0  0  0  0  2  0  0  0  0  0  0
  189.0890  177.0160  146.1540 C   0  0  2  0  0  3  0  0  0  0  0  0
  189.6840  177.2090  144.7730 C   0  0  0  0  0  0  0  0  0  0  0  0
  186.8370  177.7090  145.3350 C   0  0  1  0  0  3  0  0  0  0  0  0
  188.8630  177.5040  143.7530 C   0  0  0  0  0  3  0  0  0  0  0  0
  187.9380  177.9890  146.3590 C   0  0  0  0  0  2  0  0  0  0  0  0
  190.0290  177.2070  147.1720 O   0  0  0  0  0  0  0  0  0  0  0  0
  189.3400  177.9220  148.1610 C   0  0  0  0  0  1  0  0  0  0  0  0
  191.1410  177.0570  144.5000 C   0  0  0  0  0  0  0  0  0  0  0  0
  191.7090  175.9420  144.6590 O   0  0  0  0  0  0  0  0  0  0  0  0
  191.4830  179.3750  144.0890 O   0  0  0  0  0  0  0  0  0  0  0  0
  191.9440  178.2020  144.0460 C   0  0  0  0  0  3  0  0  0  0  0  0
  1  3  1  0  0  0  0
  1  2  1  0  0  0  0
  2 26  1  1  0  0  0
  3 18  1  1  0  0  0
  3  2  1  0  0  0  0
  4  7  1  0  0  0  0
  6  4  2  0  0  0  0
  6  9  1  0  0  0  0
  7  5  2  0  0  0  0
  8  5  1  0  0  0  0
  8  3  1  0  0  0  0
  9  8  2  0  0  0  0
 10 12  1  0  0  0  0
 10 15  1  0  0  0  0
 12 14  1  0  0  0  0
 12  4  1  1  0  0  0
 13 14  1  0  0  0  0
 13 16  1  0  0  0  0
 15 11  1  6  0  0  0
 15 16  1  0  0  0  0
 19 17  2  0  0  0  0
 19 18  1  0  0  0  0
 20 19  1  0  0  0  0
 21 20  1  0  0  0  0
 22 21  1  0  0  0  0
 23 25  1  0  0  0  0
 23 22  1  0  0  0  0
 25 24  1  0  0  0  0
 27 26  1  6  0  0  0
 27 31  1  0  0  0  0
 27 32  1  0  0  0  0
 29 33  1  1  0  0  0
 30 31  1  6  0  0  0
 30 29  1  0  0  0  0
 30 33  1  0  0  0  0
 32 28  1  1  0  0  0
 32 30  1  0  0  0  0
 35 39  1  0  0  0  0
 35 40  1  1  0  0  0
 36 35  1  0  0  0  0
 37 34  1  6  0  0  0
 37 29  1  0  0  0  0
 37 39  1  0  0  0  0
 38 34  1  0  0  0  0
 38 36  2  0  0  0  0
 40 41  1  0  0  0  0
 42 43  2  0  0  0  0
 42 36  1  0  0  0  0
 45 44  2  0  0  0  0
 45 42  1  0  0  0  0
M  END
>  <MODEL>
2

>  <REMARK>
 VINA RESULT:      -8.0      2.182      4.015
  Name = 
  14 active torsions:
  status: ('A' for Active; 'I' for Inactive)
    1  A    between atoms: C_2  and  O_32
    2  A    between atoms: C_3  and  C_34
    3  A    between atoms: C_3  and  C_41
    4  A    between atoms: O_4  and  C_24
    5  A    between atoms: C_7  and  C_18
    6  A    between atoms: C_10  and  C_30
    7  A    between atoms: C_13  and  C_29
    8  A    between atoms: C_13  and  C_33
    9  A    between atoms: C_15  and  C_22
   10  A    between atoms: C_15  and  C_40
   11  A    between atoms: C_22  and  C_41
   12  A    between atoms: N_27  and  C_43
   13  A    between atoms: C_31  and  O_32
   14  A    between atoms: C_37  and  C_43
                            x       y       z     vdW  Elec       q    Type
                         _______ _______ _______ _____ _____    ______ ____

>  <TORSDO>
F 14

$$$$
=
 OpenBabel10232408313D

 45 50  0  0  1  0  0  0  0  0999 V2000
  190.2570  175.7190  139.2100 O   0  0  0  0  0  0  0  0  0  0  0  0
  191.1740  176.5480  139.9040 C   0  0  1  0  0  3  0  0  0  0  0  0
  191.0900  176.5290  138.4210 C   0  0  1  0  0  0  0  0  0  0  0  0
  194.2960  174.5760  136.3230 C   0  0  0  0  0  0  0  0  0  0  0  0
  193.2010  176.6030  137.0900 C   0  0  0  0  0  3  0  0  0  0  0  0
  193.3090  173.8150  136.9620 C   0  0  0  0  0  3  0  0  0  0  0  0
  194.2430  175.9760  136.4050 C   0  0  0  0  0  3  0  0  0  0  0  0
  192.2070  175.8380  137.7050 C   0  0  0  0  0  0  0  0  0  0  0  0
  192.2640  174.4410  137.6410 C   0  0  0  0  0  3  0  0  0  0  0  0
  196.7230  174.7220  135.6180 C   0  0  0  0  0  2  0  0  0  0  0  0
  198.8110  175.0980  136.7360 O   0  0  0  0  0  1  0  0  0  0  0  0
  195.4410  173.8760  135.6500 C   0  0  1  0  0  3  0  0  0  0  0  0
  197.0480  172.2040  136.7360 C   0  0  0  0  0  2  0  0  0  0  0  0
  195.6350  172.4610  136.2130 C   0  0  0  0  0  2  0  0  0  0  0  0
  197.4910  174.6960  136.9500 C   0  0  2  0  0  3  0  0  0  0  0  0
  197.4650  173.3410  137.6660 C   0  0  0  0  0  2  0  0  0  0  0  0
  188.6580  178.6050  136.6030 O   0  0  0  0  0  0  0  0  0  0  0  0
  190.4030  177.6610  137.8030 N   0  0  0  0  0  2  0  0  0  0  0  0
  189.3070  177.5680  136.8880 C   0  0  0  0  0  0  0  0  0  0  0  0
  188.9470  176.2750  136.2330 C   0  0  0  0  0  2  0  0  0  0  0  0
  187.6170  175.7370  136.7580 C   0  0  0  0  0  2  0  0  0  0  0  0
  187.6340  174.2230  136.9080 C   0  0  0  0  0  2  0  0  0  0  0  0
  189.0060  173.6280  136.6260 C   0  0  0  0  0  2  0  0  0  0  0  0
  190.4620  172.8360  134.7650 C   0  0  0  0  0  1  0  0  0  0  0  0
  189.0330  172.9460  135.2610 C   0  0  0  0  0  2  0  0  0  0  0  0
  190.4860  177.6350  140.4690 O   0  0  0  0  0  0  0  0  0  0  0  0
  190.7540  177.5860  141.8430 C   0  0  1  0  0  3  0  0  0  0  0  0
  191.1500  175.7520  143.3450 O   0  0  0  0  0  1  0  0  0  0  0  0
  187.9200  176.7630  143.8620 C   0  0  1  0  0  3  0  0  0  0  0  0
  189.2060  177.1540  143.1640 C   0  0  2  0  0  0  0  0  0  0  0  0
  189.7130  178.4420  142.5920 C   0  0  0  0  0  2  0  0  0  0  0  0
  190.2030  176.2790  142.4590 C   0  0  1  0  0  3  0  0  0  0  0  0
  189.1660  177.1360  144.6770 C   0  0  0  0  0  2  0  0  0  0  0  0
  186.2330  177.8880  142.4240 C   0  0  0  0  0  2  0  0  0  0  0  0
  184.8230  178.8290  144.8020 C   0  0  2  0  0  3  0  0  0  0  0  0
  184.0670  178.5830  143.5100 C   0  0  0  0  0  0  0  0  0  0  0  0
  186.9190  177.9090  143.8090 C   0  0  1  0  0  3  0  0  0  0  0  0
  184.7490  178.1550  142.4360 C   0  0  0  0  0  3  0  0  0  0  0  0
  185.9210  177.7870  144.9610 C   0  0  0  0  0  2  0  0  0  0  0  0
  183.9910  178.7820  145.9240 O   0  0  0  0  0  0  0  0  0  0  0  0
  184.8210  178.3430  146.9640 C   0  0  0  0  0  1  0  0  0  0  0  0
  182.6030  178.8260  143.3810 C   0  0  0  0  0  0  0  0  0  0  0  0
  181.8960  179.0290  144.4050 O   0  0  0  0  0  0  0  0  0  0  0  0
  181.1450  179.7390  141.7390 O   0  0  0  0  0  0  0  0  0  0  0  0
  181.9550  178.8290  142.0610 C   0  0  0  0  0  3  0  0  0  0  0  0
  1  2  1  0  0  0  0
  2 26  1  1  0  0  0
  3 18  1  6  0  0  0
  3  1  1  0  0  0  0
  3  2  1  0  0  0  0
  4  7  2  0  0  0  0
  4  6  1  0  0  0  0
  5  8  2  0  0  0  0
  6  9  2  0  0  0  0
  7  5  1  0  0  0  0
  8  3  1  0  0  0  0
  9  8  1  0  0  0  0
 10 12  1  0  0  0  0
 10 15  1  0  0  0  0
 12 14  1  0  0  0  0
 12  4  1  1  0  0  0
 13 16  1  0  0  0  0
 14 13  1  0  0  0  0
 15 11  1  6  0  0  0
 15 16  1  0  0  0  0
 17 19  2  0  0  0  0
 19 18  1  0  0  0  0
 20 21  1  0  0  0  0
 20 19  1  0  0  0  0
 21 22  1  0  0  0  0
 23 22  1  0  0  0  0
 24 25  1  0  0  0  0
 25 23  1  0  0  0  0
 27 26  1  6  0  0  0
 27 32  1  0  0  0  0
 27 31  1  0  0  0  0
 29 33  1  1  0  0  0
 30 31  1  6  0  0  0
 30 29  1  0  0  0  0
 30 33  1  0  0  0  0
 32 30  1  0  0  0  0
 32 28  1  1  0  0  0
 34 38  1  0  0  0  0
 35 39  1  0  0  0  0
 35 40  1  1  0  0  0
 36 35  1  0  0  0  0
 37 34  1  6  0  0  0
 37 29  1  0  0  0  0
 37 39  1  0  0  0  0
 38 36  2  0  0  0  0
 40 41  1  0  0  0  0
 42 36  1  0  0  0  0
 42 43  2  0  0  0  0
 44 45  2  0  0  0  0
 45 42  1  0  0  0  0
M  END
>  <MODEL>
3

>  <REMARK>
 VINA RESULT:      -8.0      4.109      7.556
  Name = 
  14 active torsions:
  status: ('A' for Active; 'I' for Inactive)
    1  A    between atoms: C_2  and  O_32
    2  A    between atoms: C_3  and  C_34
    3  A    between atoms: C_3  and  C_41
    4  A    between atoms: O_4  and  C_24
    5  A    between atoms: C_7  and  C_18
    6  A    between atoms: C_10  and  C_30
    7  A    between atoms: C_13  and  C_29
    8  A    between atoms: C_13  and  C_33
    9  A    between atoms: C_15  and  C_22
   10  A    between atoms: C_15  and  C_40
   11  A    between atoms: C_22  and  C_41
   12  A    between atoms: N_27  and  C_43
   13  A    between atoms: C_31  and  O_32
   14  A    between atoms: C_37  and  C_43
                            x       y       z     vdW  Elec       q    Type
                         _______ _______ _______ _____ _____    ______ ____

>  <TORSDO>
F 14

$$$$
=
 OpenBabel10232408313D

 45 50  0  0  1  0  0  0  0  0999 V2000
  190.1190  175.7620  139.3930 O   0  0  0  0  0  0  0  0  0  0  0  0
  191.1630  176.4730  140.0340 C   0  0  1  0  0  3  0  0  0  0  0  0
  191.0160  176.4450  138.5550 C   0  0  1  0  0  0  0  0  0  0  0  0
  193.8400  173.9860  136.4400 C   0  0  0  0  0  0  0  0  0  0  0  0
  191.6060  174.3600  137.3170 C   0  0  0  0  0  3  0  0  0  0  0  0
  194.2250  175.2460  136.9160 C   0  0  0  0  0  3  0  0  0  0  0  0
  192.5180  173.5560  136.6310 C   0  0  0  0  0  3  0  0  0  0  0  0
  192.0040  175.6050  137.8090 C   0  0  0  0  0  0  0  0  0  0  0  0
  193.3160  176.0470  137.6060 C   0  0  0  0  0  3  0  0  0  0  0  0
  196.2780  173.4230  136.0600 C   0  0  0  0  0  2  0  0  0  0  0  0
  198.0720  172.5800  137.4110 O   0  0  0  0  0  1  0  0  0  0  0  0
  194.8200  173.1710  135.6480 C   0  0  1  0  0  3  0  0  0  0  0  0
  195.5230  170.7550  136.1260 C   0  0  0  0  0  2  0  0  0  0  0  0
  194.4210  171.6880  135.6260 C   0  0  0  0  0  2  0  0  0  0  0  0
  196.6800  172.6640  137.3360 C   0  0  2  0  0  3  0  0  0  0  0  0
  196.0630  171.2670  137.4590 C   0  0  0  0  0  2  0  0  0  0  0  0
  188.7960  178.7980  136.8060 O   0  0  0  0  0  0  0  0  0  0  0  0
  190.4570  177.6490  137.9440 N   0  0  0  0  0  2  0  0  0  0  0  0
  189.3130  177.6880  137.0850 C   0  0  0  0  0  0  0  0  0  0  0  0
  188.7500  176.4440  136.4800 C   0  0  0  0  0  2  0  0  0  0  0  0
  187.3580  176.1400  137.0290 C   0  0  0  0  0  2  0  0  0  0  0  0
  186.2960  177.0510  136.4300 C   0  0  0  0  0  2  0  0  0  0  0  0
  185.1610  177.3350  137.4030 C   0  0  0  0  0  2  0  0  0  0  0  0
  184.4140  179.1550  138.9330 C   0  0  0  0  0  1  0  0  0  0  0  0
  185.6000  178.3270  138.4760 C   0  0  0  0  0  2  0  0  0  0  0  0
  190.6460  177.6490  140.6040 O   0  0  0  0  0  0  0  0  0  0  0  0
  190.8780  177.5400  141.9810 C   0  0  1  0  0  3  0  0  0  0  0  0
  191.1730  175.6390  143.4220 O   0  0  0  0  0  1  0  0  0  0  0  0
  187.9670  176.7420  143.8980 C   0  0  1  0  0  3  0  0  0  0  0  0
  189.2830  177.1130  143.2470 C   0  0  2  0  0  0  0  0  0  0  0  0
  189.8470  178.4030  142.7360 C   0  0  0  0  0  2  0  0  0  0  0  0
  190.2680  176.2300  142.5340 C   0  0  1  0  0  3  0  0  0  0  0  0
  189.2040  177.0400  144.7570 C   0  0  0  0  0  2  0  0  0  0  0  0
  186.4030  178.0140  142.4460 C   0  0  0  0  0  2  0  0  0  0  0  0
  184.8860  178.8490  144.7970 C   0  0  2  0  0  3  0  0  0  0  0  0
  184.2000  178.7130  143.4510 C   0  0  0  0  0  0  0  0  0  0  0  0
  187.0060  177.9230  143.8640 C   0  0  1  0  0  3  0  0  0  0  0  0
  184.9290  178.3310  142.3910 C   0  0  0  0  0  3  0  0  0  0  0  0
  185.9400  177.7620  144.9480 C   0  0  0  0  0  2  0  0  0  0  0  0
  183.9890  178.7600  145.8650 O   0  0  0  0  0  0  0  0  0  0  0  0
  184.7720  178.3570  146.9540 C   0  0  0  0  0  1  0  0  0  0  0  0
  182.7530  179.0140  143.2560 C   0  0  0  0  0  0  0  0  0  0  0  0
  182.1140  179.6680  144.1240 O   0  0  0  0  0  0  0  0  0  0  0  0
  181.2360  179.3060  141.4470 O   0  0  0  0  0  0  0  0  0  0  0  0
  182.0460  178.5520  142.0530 C   0  0  0  0  0  3  0  0  0  0  0  0
  1  2  1  0  0  0  0
  2 26  1  1  0  0  0
  3 18  1  6  0  0  0
  3  1  1  0  0  0  0
  3  2  1  0  0  0  0
  4  7  2  0  0  0  0
  4  6  1  0  0  0  0
  5  8  2  0  0  0  0
  6  9  2  0  0  0  0
  7  5  1  0  0  0  0
  8  3  1  0  0  0  0
  9  8  1  0  0  0  0
 10 15  1  0  0  0  0
 12 10  1  0  0  0  0
 12  4  1  1  0  0  0
 13 16  1  0  0  0  0
 14 12  1  0  0  0  0
 14 13  1  0  0  0  0
 15 11  1  6  0  0  0
 15 16  1  0  0  0  0
 17 19  2  0  0  0  0
 19 18  1  0  0  0  0
 20 21  1  0  0  0  0
 20 19  1  0  0  0  0
 22 21  1  0  0  0  0
 22 23  1  0  0  0  0
 23 25  1  0  0  0  0
 25 24  1  0  0  0  0
 27 26  1  6  0  0  0
 27 32  1  0  0  0  0
 27 31  1  0  0  0  0
 29 33  1  1  0  0  0
 30 31  1  6  0  0  0
 30 29  1  0  0  0  0
 30 33  1  0  0  0  0
 32 30  1  0  0  0  0
 32 28  1  1  0  0  0
 35 39  1  0  0  0  0
 35 40  1  1  0  0  0
 36 35  1  0  0  0  0
 37 34  1  6  0  0  0
 37 29  1  0  0  0  0
 37 39  1  0  0  0  0
 38 34  1  0  0  0  0
 38 36  2  0  0  0  0
 40 41  1  0  0  0  0
 42 36  1  0  0  0  0
 42 43  2  0  0  0  0
 44 45  2  0  0  0  0
 45 42  1  0  0  0  0
M  END
>  <MODEL>
4

>  <REMARK>
 VINA RESULT:      -7.9      3.900      6.977
  Name = 
  14 active torsions:
  status: ('A' for Active; 'I' for Inactive)
    1  A    between atoms: C_2  and  O_32
    2  A    between atoms: C_3  and  C_34
    3  A    between atoms: C_3  and  C_41
    4  A    between atoms: O_4  and  C_24
    5  A    between atoms: C_7  and  C_18
    6  A    between atoms: C_10  and  C_30
    7  A    between atoms: C_13  and  C_29
    8  A    between atoms: C_13  and  C_33
    9  A    between atoms: C_15  and  C_22
   10  A    between atoms: C_15  and  C_40
   11  A    between atoms: C_22  and  C_41
   12  A    between atoms: N_27  and  C_43
   13  A    between atoms: C_31  and  O_32
   14  A    between atoms: C_37  and  C_43
                            x       y       z     vdW  Elec       q    Type
                         _______ _______ _______ _____ _____    ______ ____

>  <TORSDO>
F 14

$$$$
=
 OpenBabel10232408313D

 45 50  0  0  1  0  0  0  0  0999 V2000
  188.7480  179.0240  139.5500 O   0  0  0  0  0  0  0  0  0  0  0  0
  188.7970  177.6830  140.0060 C   0  0  1  0  0  3  0  0  0  0  0  0
  188.4170  178.0310  138.6130 C   0  0  1  0  0  0  0  0  0  0  0  0
  184.2370  177.6370  137.6800 C   0  0  0  0  0  0  0  0  0  0  0  0
  186.0280  178.6690  138.9550 C   0  0  0  0  0  3  0  0  0  0  0  0
  185.1870  176.8810  136.9810 C   0  0  0  0  0  3  0  0  0  0  0  0
  184.6700  178.5450  138.6590 C   0  0  0  0  0  3  0  0  0  0  0  0
  186.9670  177.8950  138.2700 C   0  0  0  0  0  0  0  0  0  0  0  0
  186.5430  177.0000  137.2800 C   0  0  0  0  0  3  0  0  0  0  0  0
  182.3480  176.0880  137.0180 C   0  0  0  0  0  2  0  0  0  0  0  0
  181.2740  174.1800  137.9970 O   0  0  0  0  0  1  0  0  0  0  0  0
  182.7900  177.5320  137.2960 C   0  0  1  0  0  3  0  0  0  0  0  0
  180.7970  177.4110  138.9000 C   0  0  0  0  0  2  0  0  0  0  0  0
  181.8950  178.2840  138.2920 C   0  0  0  0  0  2  0  0  0  0  0  0
  182.0620  175.2910  138.3030 C   0  0  2  0  0  3  0  0  0  0  0  0
  181.4050  176.1100  139.4190 C   0  0  0  0  0  2  0  0  0  0  0  0
  190.4770  176.5420  135.9540 O   0  0  0  0  0  0  0  0  0  0  0  0
  189.4420  177.8120  137.5950 N   0  0  0  0  0  2  0  0  0  0  0  0
  189.7350  176.5600  136.9690 C   0  0  0  0  0  0  0  0  0  0  0  0
  189.2150  175.2720  137.5200 C   0  0  0  0  0  2  0  0  0  0  0  0
  188.6980  174.3610  136.4090 C   0  0  0  0  0  2  0  0  0  0  0  0
  187.6960  173.3400  136.9290 C   0  0  0  0  0  2  0  0  0  0  0  0
  186.6590  172.9620  135.8810 C   0  0  0  0  0  2  0  0  0  0  0  0
  185.0240  173.1930  137.7470 C   0  0  0  0  0  1  0  0  0  0  0  0
  185.4140  172.3690  136.5350 C   0  0  0  0  0  2  0  0  0  0  0  0
  190.1370  177.2750  140.1130 O   0  0  0  0  0  0  0  0  0  0  0  0
  190.4520  177.3470  141.4760 C   0  0  1  0  0  3  0  0  0  0  0  0
  190.8660  175.6510  143.1280 O   0  0  0  0  0  1  0  0  0  0  0  0
  187.6750  176.7730  143.6540 C   0  0  1  0  0  3  0  0  0  0  0  0
  188.9420  177.0710  142.8810 C   0  0  2  0  0  0  0  0  0  0  0  0
  189.4520  178.2890  142.1760 C   0  0  0  0  0  2  0  0  0  0  0  0
  189.8990  176.1130  142.2280 C   0  0  1  0  0  3  0  0  0  0  0  0
  188.9540  177.1920  144.3900 C   0  0  0  0  0  2  0  0  0  0  0  0
  185.9120  177.7590  142.2060 C   0  0  0  0  0  2  0  0  0  0  0  0
  184.6880  179.0180  144.5390 C   0  0  2  0  0  3  0  0  0  0  0  0
  183.8400  178.6370  143.3400 C   0  0  0  0  0  0  0  0  0  0  0  0
  186.6920  177.9290  143.5280 C   0  0  1  0  0  3  0  0  0  0  0  0
  184.4370  178.0640  142.2830 C   0  0  0  0  0  3  0  0  0  0  0  0
  185.7750  177.9750  144.7500 C   0  0  0  0  0  2  0  0  0  0  0  0
  183.9350  179.1290  145.7110 O   0  0  0  0  0  0  0  0  0  0  0  0
  184.6740  178.4310  146.6750 C   0  0  0  0  0  1  0  0  0  0  0  0
  182.3740  178.9010  143.2800 C   0  0  0  0  0  0  0  0  0  0  0  0
  181.6690  178.8260  144.3230 O   0  0  0  0  0  0  0  0  0  0  0  0
  180.4690  179.3180  141.9190 O   0  0  0  0  0  0  0  0  0  0  0  0
  181.7250  179.2480  142.0080 C   0  0  0  0  0  3  0  0  0  0  0  0
  1  2  1  0  0  0  0
  2 26  1  6  0  0  0
  3 18  1  6  0  0  0
  3  1  1  0  0  0  0
  3  2  1  0  0  0  0
  4  7  1  0  0  0  0
  6  9  1  0  0  0  0
  6  4  2  0  0  0  0
  7  5  2  0  0  0  0
  8  3  1  0  0  0  0
  8  5  1  0  0  0  0
  9  8  2  0  0  0  0
 10 12  1  0  0  0  0
 10 15  1  0  0  0  0
 12  4  1  1  0  0  0
 12 14  1  0  0  0  0
 13 16  1  0  0  0  0
 14 13  1  0  0  0  0
 15 11  1  6  0  0  0
 15 16  1  0  0  0  0
 17 19  2  0  0  0  0
 19 20  1  0  0  0  0
 19 18  1  0  0  0  0
 21 22  1  0  0  0  0
 21 20  1  0  0  0  0
 23 25  1  0  0  0  0
 23 22  1  0  0  0  0
 25 24  1  0  0  0  0
 27 26  1  6  0  0  0
 27 31  1  0  0  0  0
 27 32  1  0  0  0  0
 29 33  1  1  0  0  0
 30 31  1  6  0  0  0
 30 29  1  0  0  0  0
 30 33  1  0  0  0  0
 32 30  1  0  0  0  0
 32 28  1  1  0  0  0
 34 38  1  0  0  0  0
 35 39  1  0  0  0  0
 35 40  1  1  0  0  0
 36 35  1  0  0  0  0
 37 34  1  6  0  0  0
 37 29  1  0  0  0  0
 37 39  1  0  0  0  0
 38 36  2  0  0  0  0
 40 41  1  0  0  0  0
 42 36  1  0  0  0  0
 42 43  2  0  0  0  0
 44 45  2  0  0  0  0
 45 42  1  0  0  0  0
M  END
>  <MODEL>
5

>  <REMARK>
 VINA RESULT:      -7.8      2.361      6.643
  Name = 
  14 active torsions:
  status: ('A' for Active; 'I' for Inactive)
    1  A    between atoms: C_2  and  O_32
    2  A    between atoms: C_3  and  C_34
    3  A    between atoms: C_3  and  C_41
    4  A    between atoms: O_4  and  C_24
    5  A    between atoms: C_7  and  C_18
    6  A    between atoms: C_10  and  C_30
    7  A    between atoms: C_13  and  C_29
    8  A    between atoms: C_13  and  C_33
    9  A    between atoms: C_15  and  C_22
   10  A    between atoms: C_15  and  C_40
   11  A    between atoms: C_22  and  C_41
   12  A    between atoms: N_27  and  C_43
   13  A    between atoms: C_31  and  O_32
   14  A    between atoms: C_37  and  C_43
                            x       y       z     vdW  Elec       q    Type
                         _______ _______ _______ _____ _____    ______ ____

>  <TORSDO>
F 14

$$$$
=
 OpenBabel10232408313D

 45 50  0  0  1  0  0  0  0  0999 V2000
  186.0080  177.1850  144.7040 O   0  0  0  0  0  0  0  0  0  0  0  0
  186.8210  177.9100  143.7980 C   0  0  1  0  0  3  0  0  0  0  0  0
  185.5250  178.4390  144.2940 C   0  0  1  0  0  0  0  0  0  0  0  0
  182.2350  178.3900  141.5250 C   0  0  0  0  0  0  0  0  0  0  0  0
  183.1160  178.8050  143.7500 C   0  0  0  0  0  3  0  0  0  0  0  0
  183.5200  178.0380  141.0950 C   0  0  0  0  0  3  0  0  0  0  0  0
  182.0440  178.7890  142.8570 C   0  0  0  0  0  3  0  0  0  0  0  0
  184.3910  178.4300  143.3190 C   0  0  0  0  0  0  0  0  0  0  0  0
  184.5910  178.0480  141.9870 C   0  0  0  0  0  3  0  0  0  0  0  0
  180.6330  179.8540  140.2240 C   0  0  0  0  0  2  0  0  0  0  0  0
  180.8470  181.6680  138.6690 O   0  0  0  0  0  1  0  0  0  0  0  0
  181.1120  178.4280  140.5290 C   0  0  1  0  0  3  0  0  0  0  0  0
  181.3410  178.3880  137.9790 C   0  0  0  0  0  2  0  0  0  0  0  0
  181.4470  177.5960  139.2820 C   0  0  0  0  0  2  0  0  0  0  0  0
  181.5410  180.5920  139.2250 C   0  0  2  0  0  3  0  0  0  0  0  0
  182.1070  179.7020  138.1140 C   0  0  0  0  0  2  0  0  0  0  0  0
  186.1240  180.2100  147.4610 O   0  0  0  0  0  0  0  0  0  0  0  0
  185.6060  179.4710  145.3260 N   0  0  0  0  0  2  0  0  0  0  0  0
  185.8530  179.2360  146.7160 C   0  0  0  0  0  0  0  0  0  0  0  0
  185.7530  177.8670  147.3050 C   0  0  0  0  0  2  0  0  0  0  0  0
  187.1350  177.2620  147.5420 C   0  0  0  0  0  2  0  0  0  0  0  0
  187.9280  178.0400  148.5830 C   0  0  0  0  0  2  0  0  0  0  0  0
  189.4220  178.0380  148.2930 C   0  0  0  0  0  2  0  0  0  0  0  0
  191.2560  176.5660  147.4710 C   0  0  0  0  0  1  0  0  0  0  0  0
  189.7870  176.9140  147.3280 C   0  0  0  0  0  2  0  0  0  0  0  0
  187.9220  178.4480  144.4860 O   0  0  0  0  0  0  0  0  0  0  0  0
  189.0030  177.6050  144.1970 C   0  0  1  0  0  3  0  0  0  0  0  0
  191.3520  178.0330  143.9210 O   0  0  0  0  0  1  0  0  0  0  0  0
  190.0450  177.6780  140.7770 C   0  0  1  0  0  3  0  0  0  0  0  0
  189.7140  177.5020  142.2440 C   0  0  2  0  0  0  0  0  0  0  0  0
  188.6530  176.7360  142.9730 C   0  0  0  0  0  2  0  0  0  0  0  0
  190.0940  178.3700  143.4110 C   0  0  1  0  0  3  0  0  0  0  0  0
  190.7760  176.6230  141.6180 C   0  0  0  0  0  2  0  0  0  0  0  0
  187.7710  178.0390  139.8420 C   0  0  0  0  0  2  0  0  0  0  0  0
  188.3960  176.2570  137.6150 C   0  0  2  0  0  3  0  0  0  0  0  0
  187.3900  177.3780  137.4390 C   0  0  0  0  0  0  0  0  0  0  0  0
  188.9600  177.0550  139.9100 C   0  0  1  0  0  3  0  0  0  0  0  0
  187.1240  178.1760  138.4860 C   0  0  0  0  0  3  0  0  0  0  0  0
  189.5220  176.7150  138.5290 C   0  0  0  0  0  2  0  0  0  0  0  0
  188.9440  175.8370  136.3990 O   0  0  0  0  0  0  0  0  0  0  0  0
  190.1850  176.4830  136.3280 C   0  0  0  0  0  1  0  0  0  0  0  0
  186.6660  177.6110  136.1580 C   0  0  0  0  0  0  0  0  0  0  0  0
  187.1250  178.4160  135.3020 O   0  0  0  0  0  0  0  0  0  0  0  0
  184.3210  177.2880  136.3940 O   0  0  0  0  0  0  0  0  0  0  0  0
  185.4050  176.9130  135.8700 C   0  0  0  0  0  3  0  0  0  0  0  0
  2  3  1  0  0  0  0
  2 26  1  1  0  0  0
  2  1  1  0  0  0  0
  3  1  1  0  0  0  0
  3 18  1  1  0  0  0
  4  7  1  0  0  0  0
  6  4  2  0  0  0  0
  6  9  1  0  0  0  0
  7  5  2  0  0  0  0
  8  5  1  0  0  0  0
  8  3  1  0  0  0  0
  9  8  2  0  0  0  0
 10 12  1  0  0  0  0
 12  4  1  1  0  0  0
 13 16  1  0  0  0  0
 13 14  1  0  0  0  0
 14 12  1  0  0  0  0
 15 11  1  6  0  0  0
 15 10  1  0  0  0  0
 16 15  1  0  0  0  0
 18 19  1  0  0  0  0
 19 20  1  0  0  0  0
 19 17  2  0  0  0  0
 20 21  1  0  0  0  0
 21 22  1  0  0  0  0
 23 22  1  0  0  0  0
 25 24  1  0  0  0  0
 25 23  1  0  0  0  0
 27 26  1  6  0  0  0
 29 33  1  1  0  0  0
 29 30  1  0  0  0  0
 30 33  1  1  0  0  0
 30 31  1  0  0  0  0
 30 32  1  0  0  0  0
 31 27  1  0  0  0  0
 32 28  1  1  0  0  0
 32 27  1  0  0  0  0
 34 37  1  0  0  0  0
 35 40  1  6  0  0  0
 35 39  1  0  0  0  0
 36 35  1  0  0  0  0
 36 38  2  0  0  0  0
 37 39  1  6  0  0  0
 37 29  1  0  0  0  0
 38 34  1  0  0  0  0
 41 40  1  0  0  0  0
 42 36  1  0  0  0  0
 43 42  2  0  0  0  0
 45 42  1  0  0  0  0
 45 44  2  0  0  0  0
M  END
>  <MODEL>
6

>  <REMARK>
 VINA RESULT:      -7.6      2.424      8.713
  Name = 
  14 active torsions:
  status: ('A' for Active; 'I' for Inactive)
    1  A    between atoms: C_2  and  O_32
    2  A    between atoms: C_3  and  C_34
    3  A    between atoms: C_3  and  C_41
    4  A    between atoms: O_4  and  C_24
    5  A    between atoms: C_7  and  C_18
    6  A    between atoms: C_10  and  C_30
    7  A    between atoms: C_13  and  C_29
    8  A    between atoms: C_13  and  C_33
    9  A    between atoms: C_15  and  C_22
   10  A    between atoms: C_15  and  C_40
   11  A    between atoms: C_22  and  C_41
   12  A    between atoms: N_27  and  C_43
   13  A    between atoms: C_31  and  O_32
   14  A    between atoms: C_37  and  C_43
                            x       y       z     vdW  Elec       q    Type
                         _______ _______ _______ _____ _____    ______ ____

>  <TORSDO>
F 14

$$$$
=
 OpenBabel10232408313D

 45 50  0  0  1  0  0  0  0  0999 V2000
  183.0620  177.7040  140.3840 O   0  0  0  0  0  0  0  0  0  0  0  0
  184.4180  177.9820  140.6870 C   0  0  1  0  0  3  0  0  0  0  0  0
  183.8310  178.2690  139.3530 C   0  0  1  0  0  0  0  0  0  0  0  0
  184.9920  175.5920  136.1950 C   0  0  0  0  0  0  0  0  0  0  0  0
  183.6130  176.1060  138.1260 C   0  0  0  0  0  3  0  0  0  0  0  0
  185.5940  176.8520  136.3030 C   0  0  0  0  0  3  0  0  0  0  0  0
  183.9870  175.2310  137.1050 C   0  0  0  0  0  3  0  0  0  0  0  0
  184.2340  177.3520  138.2420 C   0  0  0  0  0  0  0  0  0  0  0  0
  185.2250  177.7240  137.3270 C   0  0  0  0  0  3  0  0  0  0  0  0
  186.7000  173.9700  135.2660 C   0  0  0  0  0  2  0  0  0  0  0  0
  187.6690  171.9010  135.9940 O   0  0  0  0  0  1  0  0  0  0  0  0
  185.3650  174.6980  135.0480 C   0  0  1  0  0  3  0  0  0  0  0  0
  184.5720  172.2920  134.6770 C   0  0  0  0  0  2  0  0  0  0  0  0
  184.2010  173.7740  134.6610 C   0  0  0  0  0  2  0  0  0  0  0  0
  186.5690  172.7400  136.1800 C   0  0  2  0  0  3  0  0  0  0  0  0
  185.2690  171.9510  135.9910 C   0  0  0  0  0  2  0  0  0  0  0  0
  182.0580  181.3780  138.5030 O   0  0  0  0  0  0  0  0  0  0  0  0
  183.5160  179.6700  139.0800 N   0  0  0  0  0  2  0  0  0  0  0  0
  182.3080  180.1470  138.4790 C   0  0  0  0  0  0  0  0  0  0  0  0
  181.3630  179.2200  137.7880 C   0  0  0  0  0  2  0  0  0  0  0  0
  181.4540  179.3610  136.2710 C   0  0  0  0  0  2  0  0  0  0  0  0
  181.7640  178.0350  135.5910 C   0  0  0  0  0  2  0  0  0  0  0  0
  180.6650  177.0040  135.8070 C   0  0  0  0  0  2  0  0  0  0  0  0
  180.6100  174.5200  135.9900 C   0  0  0  0  0  1  0  0  0  0  0  0
  181.0070  175.6900  135.1110 C   0  0  0  0  0  2  0  0  0  0  0  0
  184.4900  179.1240  141.5020 O   0  0  0  0  0  0  0  0  0  0  0  0
  183.8080  178.7980  142.6810 C   0  0  1  0  0  3  0  0  0  0  0  0
  182.8450  180.1540  144.4160 O   0  0  0  0  0  1  0  0  0  0  0  0
  185.8170  178.9700  145.6330 C   0  0  1  0  0  3  0  0  0  0  0  0
  184.8390  178.8150  144.4880 C   0  0  2  0  0  0  0  0  0  0  0  0
  184.6220  177.7460  143.4610 C   0  0  0  0  0  2  0  0  0  0  0  0
  184.0520  179.8720  143.7660 C   0  0  1  0  0  3  0  0  0  0  0  0
  184.4080  178.4140  145.8820 C   0  0  0  0  0  2  0  0  0  0  0  0
  187.5660  177.9110  144.2200 C   0  0  0  0  0  2  0  0  0  0  0  0
  188.9740  177.0180  146.6160 C   0  0  2  0  0  3  0  0  0  0  0  0
  189.7390  177.2930  145.3360 C   0  0  0  0  0  0  0  0  0  0  0  0
  186.8610  177.8620  145.5930 C   0  0  1  0  0  3  0  0  0  0  0  0
  189.0590  177.6990  144.2530 C   0  0  0  0  0  3  0  0  0  0  0  0
  187.8360  178.0170  146.7600 C   0  0  0  0  0  2  0  0  0  0  0  0
  189.7870  177.0920  147.7510 O   0  0  0  0  0  0  0  0  0  0  0  0
  189.1620  178.0390  148.5740 C   0  0  0  0  0  1  0  0  0  0  0  0
  191.2140  177.1060  145.2280 C   0  0  0  0  0  0  0  0  0  0  0  0
  191.9820  178.1030  145.1640 O   0  0  0  0  0  0  0  0  0  0  0  0
  191.9820  175.1600  144.0960 O   0  0  0  0  0  0  0  0  0  0  0  0
  191.7980  175.7570  145.1910 C   0  0  0  0  0  3  0  0  0  0  0  0
  1  2  1  0  0  0  0
  2 26  1  1  0  0  0
  3 18  1  6  0  0  0
  3  1  1  0  0  0  0
  3  2  1  0  0  0  0
  4  6  2  0  0  0  0
  4  7  1  0  0  0  0
  5  8  1  0  0  0  0
  6  9  1  0  0  0  0
  7  5  2  0  0  0  0
  8  3  1  0  0  0  0
  9  8  2  0  0  0  0
 10 15  1  0  0  0  0
 12 10  1  0  0  0  0
 12  4  1  1  0  0  0
 13 16  1  0  0  0  0
 14 13  1  0  0  0  0
 14 12  1  0  0  0  0
 15 11  1  6  0  0  0
 16 15  1  0  0  0  0
 19 17  2  0  0  0  0
 19 18  1  0  0  0  0
 20 19  1  0  0  0  0
 21 20  1  0  0  0  0
 22 23  1  0  0  0  0
 22 21  1  0  0  0  0
 25 23  1  0  0  0  0
 25 24  1  0  0  0  0
 27 26  1  6  0  0  0
 27 31  1  0  0  0  0
 27 32  1  0  0  0  0
 29 33  1  1  0  0  0
 30 31  1  6  0  0  0
 30 29  1  0  0  0  0
 30 33  1  0  0  0  0
 32 28  1  1  0  0  0
 32 30  1  0  0  0  0
 34 38  1  0  0  0  0
 35 39  1  0  0  0  0
 35 40  1  1  0  0  0
 36 35  1  0  0  0  0
 37 34  1  6  0  0  0
 37 29  1  0  0  0  0
 37 39  1  0  0  0  0
 38 36  2  0  0  0  0
 40 41  1  0  0  0  0
 42 36  1  0  0  0  0
 43 42  2  0  0  0  0
 44 45  2  0  0  0  0
 45 42  1  0  0  0  0
M  END
>  <MODEL>
7

>  <REMARK>
 VINA RESULT:      -7.4      1.610      2.035
  Name = 
  14 active torsions:
  status: ('A' for Active; 'I' for Inactive)
    1  A    between atoms: C_2  and  O_32
    2  A    between atoms: C_3  and  C_34
    3  A    between atoms: C_3  and  C_41
    4  A    between atoms: O_4  and  C_24
    5  A    between atoms: C_7  and  C_18
    6  A    between atoms: C_10  and  C_30
    7  A    between atoms: C_13  and  C_29
    8  A    between atoms: C_13  and  C_33
    9  A    between atoms: C_15  and  C_22
   10  A    between atoms: C_15  and  C_40
   11  A    between atoms: C_22  and  C_41
   12  A    between atoms: N_27  and  C_43
   13  A    between atoms: C_31  and  O_32
   14  A    between atoms: C_37  and  C_43
                            x       y       z     vdW  Elec       q    Type
                         _______ _______ _______ _____ _____    ______ ____

>  <TORSDO>
F 14

$$$$
=
 OpenBabel10232408313D

 45 50  0  0  1  0  0  0  0  0999 V2000
  190.3880  177.6520  139.2790 O   0  0  0  0  0  0  0  0  0  0  0  0
  189.8660  177.0990  140.4750 C   0  0  1  0  0  3  0  0  0  0  0  0
  189.3760  176.6880  139.1340 C   0  0  1  0  0  0  0  0  0  0  0  0
  185.5090  178.1530  137.9560 C   0  0  0  0  0  0  0  0  0  0  0  0
  187.4500  176.7520  137.5480 C   0  0  0  0  0  3  0  0  0  0  0  0
  186.0810  178.5740  139.1630 C   0  0  0  0  0  3  0  0  0  0  0  0
  186.1960  177.2250  137.1580 C   0  0  0  0  0  3  0  0  0  0  0  0
  188.0250  177.1950  138.7410 C   0  0  0  0  0  0  0  0  0  0  0  0
  187.3360  178.1070  139.5500 C   0  0  0  0  0  3  0  0  0  0  0  0
  183.3380  177.5910  136.7810 C   0  0  0  0  0  2  0  0  0  0  0  0
  181.6960  175.8520  136.9560 O   0  0  0  0  0  1  0  0  0  0  0  0
  184.1310  178.6250  137.5930 C   0  0  1  0  0  3  0  0  0  0  0  0
  182.0390  178.4830  139.0630 C   0  0  0  0  0  2  0  0  0  0  0  0
  183.3860  179.1640  138.8230 C   0  0  0  0  0  2  0  0  0  0  0  0
  182.7260  176.4840  137.6560 C   0  0  2  0  0  3  0  0  0  0  0  0
  182.2160  176.9670  139.0170 C   0  0  0  0  0  2  0  0  0  0  0  0
  191.2790  174.0710  137.3860 O   0  0  0  0  0  0  0  0  0  0  0  0
  189.8540  175.3960  138.6450 N   0  0  0  0  0  2  0  0  0  0  0  0
  190.7720  175.2060  137.5650 C   0  0  0  0  0  0  0  0  0  0  0  0
  191.1060  176.3150  136.6220 C   0  0  0  0  0  2  0  0  0  0  0  0
  192.4520  176.0790  135.9420 C   0  0  0  0  0  2  0  0  0  0  0  0
  193.6200  176.3190  136.8880 C   0  0  0  0  0  2  0  0  0  0  0  0
  194.6320  175.1820  136.8590 C   0  0  0  0  0  2  0  0  0  0  0  0
  196.0300  173.8830  138.4600 C   0  0  0  0  0  1  0  0  0  0  0  0
  194.6430  174.4300  138.1860 C   0  0  0  0  0  2  0  0  0  0  0  0
  190.7930  176.1900  141.0130 O   0  0  0  0  0  0  0  0  0  0  0  0
  191.2430  176.7630  142.2090 C   0  0  1  0  0  3  0  0  0  0  0  0
  191.9190  175.8010  144.3050 O   0  0  0  0  0  1  0  0  0  0  0  0
  188.7420  176.9930  144.7550 C   0  0  1  0  0  3  0  0  0  0  0  0
  189.9050  177.0030  143.7840 C   0  0  2  0  0  0  0  0  0  0  0  0
  190.2700  177.8830  142.6290 C   0  0  0  0  0  2  0  0  0  0  0  0
  190.8400  175.8860  143.4180 C   0  0  1  0  0  3  0  0  0  0  0  0
  190.0660  177.6720  145.1330 C   0  0  0  0  0  2  0  0  0  0  0  0
  186.9840  177.4740  143.0660 C   0  0  0  0  0  2  0  0  0  0  0  0
  185.5700  179.1430  145.0000 C   0  0  2  0  0  3  0  0  0  0  0  0
  184.8060  178.4290  143.9020 C   0  0  0  0  0  0  0  0  0  0  0  0
  187.6890  178.0090  144.3320 C   0  0  1  0  0  3  0  0  0  0  0  0
  185.4890  177.6730  143.0280 C   0  0  0  0  0  3  0  0  0  0  0  0
  186.7160  178.2660  145.4820 C   0  0  0  0  0  2  0  0  0  0  0  0
  184.7590  179.4660  146.0920 O   0  0  0  0  0  0  0  0  0  0  0  0
  185.0570  178.4940  147.0560 C   0  0  0  0  0  1  0  0  0  0  0  0
  183.3300  178.5560  143.7410 C   0  0  0  0  0  0  0  0  0  0  0  0
  182.5660  178.4320  144.7360 O   0  0  0  0  0  0  0  0  0  0  0  0
  181.4990  179.0120  142.2930 O   0  0  0  0  0  0  0  0  0  0  0  0
  182.7390  178.8230  142.4210 C   0  0  0  0  0  3  0  0  0  0  0  0
  1  2  1  0  0  0  0
  2 26  1  6  0  0  0
  3 18  1  6  0  0  0
  3  1  1  0  0  0  0
  3  2  1  0  0  0  0
  4  6  1  0  0  0  0
  5  8  2  0  0  0  0
  6  9  2  0  0  0  0
  7  5  1  0  0  0  0
  7  4  2  0  0  0  0
  8  3  1  0  0  0  0
  8  9  1  0  0  0  0
 10 12  1  0  0  0  0
 10 15  1  0  0  0  0
 12  4  1  1  0  0  0
 12 14  1  0  0  0  0
 14 13  1  0  0  0  0
 15 11  1  6  0  0  0
 15 16  1  0  0  0  0
 16 13  1  0  0  0  0
 17 19  2  0  0  0  0
 19 18  1  0  0  0  0
 20 19  1  0  0  0  0
 21 20  1  0  0  0  0
 21 22  1  0  0  0  0
 23 22  1  0  0  0  0
 23 25  1  0  0  0  0
 25 24  1  0  0  0  0
 27 26  1  6  0  0  0
 27 31  1  0  0  0  0
 27 32  1  0  0  0  0
 29 33  1  1  0  0  0
 30 31  1  6  0  0  0
 30 29  1  0  0  0  0
 30 33  1  0  0  0  0
 32 30  1  0  0  0  0
 32 28  1  1  0  0  0
 35 39  1  0  0  0  0
 35 40  1  1  0  0  0
 36 35  1  0  0  0  0
 37 34  1  6  0  0  0
 37 29  1  0  0  0  0
 37 39  1  0  0  0  0
 38 34  1  0  0  0  0
 38 36  2  0  0  0  0
 40 41  1  0  0  0  0
 42 36  1  0  0  0  0
 42 43  2  0  0  0  0
 44 45  2  0  0  0  0
 45 42  1  0  0  0  0
M  END
>  <MODEL>
8

>  <REMARK>
 VINA RESULT:      -7.4      2.970      7.725
  Name = 
  14 active torsions:
  status: ('A' for Active; 'I' for Inactive)
    1  A    between atoms: C_2  and  O_32
    2  A    between atoms: C_3  and  C_34
    3  A    between atoms: C_3  and  C_41
    4  A    between atoms: O_4  and  C_24
    5  A    between atoms: C_7  and  C_18
    6  A    between atoms: C_10  and  C_30
    7  A    between atoms: C_13  and  C_29
    8  A    between atoms: C_13  and  C_33
    9  A    between atoms: C_15  and  C_22
   10  A    between atoms: C_15  and  C_40
   11  A    between atoms: C_22  and  C_41
   12  A    between atoms: N_27  and  C_43
   13  A    between atoms: C_31  and  O_32
   14  A    between atoms: C_37  and  C_43
                            x       y       z     vdW  Elec       q    Type
                         _______ _______ _______ _____ _____    ______ ____

>  <TORSDO>
F 14

$$$$
=
 OpenBabel10232408313D

 45 50  0  0  1  0  0  0  0  0999 V2000
  183.1880  175.8800  138.1010 O   0  0  0  0  0  0  0  0  0  0  0  0
  183.1140  177.0720  138.8640 C   0  0  1  0  0  3  0  0  0  0  0  0
  183.6420  177.0530  137.4750 C   0  0  1  0  0  0  0  0  0  0  0  0
  187.9080  177.4300  137.0850 C   0  0  0  0  0  0  0  0  0  0  0  0
  185.8810  176.1050  136.9110 C   0  0  0  0  0  3  0  0  0  0  0  0
  187.1390  178.5320  137.4830 C   0  0  0  0  0  3  0  0  0  0  0  0
  187.2660  176.2190  136.7850 C   0  0  0  0  0  3  0  0  0  0  0  0
  185.1240  177.2000  137.3310 C   0  0  0  0  0  0  0  0  0  0  0  0
  185.7560  178.4160  137.6150 C   0  0  0  0  0  3  0  0  0  0  0  0
  190.1080  178.0560  138.1700 C   0  0  0  0  0  2  0  0  0  0  0  0
  191.3730  177.2740  140.0520 O   0  0  0  0  0  1  0  0  0  0  0  0
  189.3870  177.6000  136.8930 C   0  0  1  0  0  3  0  0  0  0  0  0
  191.1580  175.7550  137.0310 C   0  0  0  0  0  2  0  0  0  0  0  0
  190.0070  176.3610  136.2290 C   0  0  0  0  0  2  0  0  0  0  0  0
  190.3700  176.9030  139.1550 C   0  0  2  0  0  3  0  0  0  0  0  0
  190.7310  175.5730  138.4850 C   0  0  0  0  0  2  0  0  0  0  0  0
  181.4510  177.3060  134.5320 O   0  0  0  0  0  0  0  0  0  0  0  0
  182.7430  177.5590  136.4400 N   0  0  0  0  0  2  0  0  0  0  0  0
  182.4020  176.8740  135.2310 C   0  0  0  0  0  0  0  0  0  0  0  0
  183.1780  175.6880  134.7620 C   0  0  0  0  0  2  0  0  0  0  0  0
  182.4330  174.3870  135.0490 C   0  0  0  0  0  2  0  0  0  0  0  0
  183.1620  173.1750  134.4870 C   0  0  0  0  0  2  0  0  0  0  0  0
  184.3860  172.8030  135.3110 C   0  0  0  0  0  2  0  0  0  0  0  0
  185.0230  172.7970  137.7200 C   0  0  0  0  0  1  0  0  0  0  0  0
  183.9830  172.3500  136.7110 C   0  0  0  0  0  2  0  0  0  0  0  0
  181.7780  177.5050  138.9270 O   0  0  0  0  0  0  0  0  0  0  0  0
  181.5110  177.7270  140.2840 C   0  0  1  0  0  3  0  0  0  0  0  0
  180.9110  179.7080  141.5060 O   0  0  0  0  0  1  0  0  0  0  0  0
  184.2380  179.1600  142.0990 C   0  0  1  0  0  3  0  0  0  0  0  0
  183.0030  178.5260  141.4940 C   0  0  2  0  0  0  0  0  0  0  0  0
  182.6470  177.1170  141.1290 C   0  0  0  0  0  2  0  0  0  0  0  0
  181.9090  179.1660  140.6880 C   0  0  1  0  0  3  0  0  0  0  0  0
  183.0460  178.7740  142.9860 C   0  0  0  0  0  2  0  0  0  0  0  0
  186.4420  178.5130  141.1520 C   0  0  0  0  0  2  0  0  0  0  0  0
  187.1520  177.2150  143.6700 C   0  0  2  0  0  3  0  0  0  0  0  0
  188.2320  177.7910  142.7740 C   0  0  0  0  0  0  0  0  0  0  0  0
  185.3650  178.1410  142.1950 C   0  0  1  0  0  3  0  0  0  0  0  0
  187.8690  178.3770  141.6220 C   0  0  0  0  0  3  0  0  0  0  0  0
  185.9160  178.1020  143.6200 C   0  0  0  0  0  2  0  0  0  0  0  0
  187.5690  177.0940  144.9980 O   0  0  0  0  0  0  0  0  0  0  0  0
  186.6850  177.9060  145.7220 C   0  0  0  0  0  1  0  0  0  0  0  0
  189.6810  177.7080  143.1110 C   0  0  0  0  0  0  0  0  0  0  0  0
  190.3860  178.7520  143.1610 O   0  0  0  0  0  0  0  0  0  0  0  0
  190.1780  175.4400  142.5950 O   0  0  0  0  0  0  0  0  0  0  0  0
  190.3140  176.4100  143.3890 C   0  0  0  0  0  3  0  0  0  0  0  0
  1  2  1  0  0  0  0
  2 26  1  6  0  0  0
  3 18  1  6  0  0  0
  3  1  1  0  0  0  0
  3  2  1  0  0  0  0
  4  6  1  0  0  0  0
  5  8  2  0  0  0  0
  6  9  2  0  0  0  0
  7  5  1  0  0  0  0
  7  4  2  0  0  0  0
  8  3  1  0  0  0  0
  8  9  1  0  0  0  0
 10 15  1  0  0  0  0
 12  4  1  1  0  0  0
 12 10  1  0  0  0  0
 13 16  1  0  0  0  0
 14 12  1  0  0  0  0
 14 13  1  0  0  0  0
 15 11  1  1  0  0  0
 16 15  1  0  0  0  0
 17 19  2  0  0  0  0
 19 18  1  0  0  0  0
 20 21  1  0  0  0  0
 20 19  1  0  0  0  0
 22 21  1  0  0  0  0
 22 23  1  0  0  0  0
 23 25  1  0  0  0  0
 25 24  1  0  0  0  0
 27 26  1  6  0  0  0
 27 32  1  0  0  0  0
 27 31  1  0  0  0  0
 29 37  1  0  0  0  0
 29 33  1  1  0  0  0
 30 31  1  6  0  0  0
 30 29  1  0  0  0  0
 30 33  1  0  0  0  0
 32 30  1  0  0  0  0
 32 28  1  1  0  0  0
 34 38  1  0  0  0  0
 35 40  1  1  0  0  0
 36 42  1  0  0  0  0
 36 35  1  0  0  0  0
 37 34  1  6  0  0  0
 37 39  1  0  0  0  0
 38 36  2  0  0  0  0
 39 35  1  0  0  0  0
 40 41  1  0  0  0  0
 42 43  2  0  0  0  0
 42 45  1  0  0  0  0
 44 45  2  0  0  0  0
M  END
>  <MODEL>
9

>  <REMARK>
 VINA RESULT:      -7.3      2.661      4.023
  Name = 
  14 active torsions:
  status: ('A' for Active; 'I' for Inactive)
    1  A    between atoms: C_2  and  O_32
    2  A    between atoms: C_3  and  C_34
    3  A    between atoms: C_3  and  C_41
    4  A    between atoms: O_4  and  C_24
    5  A    between atoms: C_7  and  C_18
    6  A    between atoms: C_10  and  C_30
    7  A    between atoms: C_13  and  C_29
    8  A    between atoms: C_13  and  C_33
    9  A    between atoms: C_15  and  C_22
   10  A    between atoms: C_15  and  C_40
   11  A    between atoms: C_22  and  C_41
   12  A    between atoms: N_27  and  C_43
   13  A    between atoms: C_31  and  O_32
   14  A    between atoms: C_37  and  C_43
                            x       y       z     vdW  Elec       q    Type
                         _______ _______ _______ _____ _____    ______ ____

>  <TORSDO>
F 14

$$$$
