=
 OpenBabel10232409543D

 34 37  0  0  1  0  0  0  0  0999 V2000
  187.4370  177.9630  143.1570 C   0  0  0  0  0  0  0  0  0  0  0  0
  186.0350  179.2560  141.7240 N   0  0  0  0  0  0  0  0  0  0  0  0
  186.3750  177.8660  144.0710 C   0  0  0  0  0  0  0  0  0  0  0  0
  184.1380  178.3220  144.4890 O   0  0  0  0  0  0  0  0  0  0  0  0
  185.1410  178.4490  143.7380 C   0  0  0  0  0  0  0  0  0  0  0  0
  185.0180  179.1360  142.5750 N   0  0  0  0  0  2  0  0  0  0  0  0
  187.2470  178.6900  141.9670 C   0  0  0  0  0  0  0  0  0  0  0  0
  191.3960  176.5360  142.8140 N   0  0  0  0  0  0  0  0  0  0  0  0
  191.1020  177.9470  142.6730 C   0  0  0  0  0  2  0  0  0  0  0  0
  189.0310  176.0930  142.5950 C   0  0  0  0  0  2  0  0  0  0  0  0
  190.4550  175.6570  142.7710 C   0  0  0  0  0  3  0  0  0  0  0  0
  189.9040  178.3410  143.5470 C   0  0  0  0  0  2  0  0  0  0  0  0
  188.7540  177.3130  143.4850 C   0  0  1  0  0  3  0  0  0  0  0  0
  186.5510  177.1170  145.2850 N   0  0  0  0  0  2  0  0  0  0  0  0
  188.7530  177.0430  146.3320 C   0  0  0  0  0  3  0  0  0  0  0  0
  187.4220  177.4660  146.3680 C   0  0  0  0  0  0  0  0  0  0  0  0
  189.6440  177.3990  147.3540 C   0  0  0  0  0  0  0  0  0  0  0  0
  187.8650  178.6370  148.4490 C   0  0  0  0  0  3  0  0  0  0  0  0
  186.9840  178.2780  147.4260 C   0  0  0  0  0  3  0  0  0  0  0  0
  189.1910  178.1970  148.4140 C   0  0  0  0  0  3  0  0  0  0  0  0
  191.5310  176.2950  146.1790 O   0  0  0  0  0  0  0  0  0  0  0  0
  191.0410  176.9380  147.3100 C   0  0  0  0  0  0  0  0  0  0  0  0
  191.8060  177.1220  148.2940 O   0  0  0  0  0  1  0  0  0  0  0  0
  188.3240  178.8270  141.0260 N   0  0  0  0  0  2  0  0  0  0  0  0
  187.3000  178.0590  138.8990 C   0  0  0  0  0  3  0  0  0  0  0  0
  189.6860  177.8740  139.2450 C   0  0  0  0  0  3  0  0  0  0  0  0
  189.8270  177.3090  137.9740 C   0  0  0  0  0  3  0  0  0  0  0  0
  187.4380  177.4950  137.6280 C   0  0  0  0  0  3  0  0  0  0  0  0
  188.7030  177.1170  137.1640 C   0  0  0  0  0  0  0  0  0  0  0  0
  188.4240  178.2520  139.7170 C   0  0  0  0  0  0  0  0  0  0  0  0
  188.8580  176.5110  135.8090 C   0  0  0  0  0  2  0  0  0  0  0  0
  189.7070  175.2450  135.8530 C   0  0  0  0  0  2  0  0  0  0  0  0
  189.0160  174.1400  136.6360 C   0  0  0  0  0  2  0  0  0  0  0  0
  189.9580  173.3920  137.3440 O   0  0  0  0  0  1  0  0  0  0  0  0
  1  3  2  0  0  0  0
  2  7  2  0  0  0  0
  2  6  1  0  0  0  0
  3 14  1  0  0  0  0
  5  3  1  0  0  0  0
  5  4  2  0  0  0  0
  6  5  1  0  0  0  0
  7  1  1  0  0  0  0
  9  8  1  0  0  0  0
  9 12  1  0  0  0  0
 10 11  1  0  0  0  0
 10 13  1  0  0  0  0
 11  8  2  0  0  0  0
 13  1  1  6  0  0  0
 13 12  1  0  0  0  0
 14 16  1  0  0  0  0
 15 16  2  0  0  0  0
 15 17  1  0  0  0  0
 16 19  1  0  0  0  0
 17 20  2  0  0  0  0
 19 18  2  0  0  0  0
 20 18  1  0  0  0  0
 21 22  2  0  0  0  0
 22 17  1  0  0  0  0
 22 23  1  0  0  0  0
 24  7  1  0  0  0  0
 25 30  1  0  0  0  0
 26 30  2  0  0  0  0
 27 26  1  0  0  0  0
 28 25  2  0  0  0  0
 29 28  1  0  0  0  0
 29 27  2  0  0  0  0
 30 24  1  0  0  0  0
 31 32  1  0  0  0  0
 31 29  1  0  0  0  0
 32 33  1  0  0  0  0
 33 34  1  0  0  0  0
M  END
>  <MODEL>
1

>  <REMARK>
 VINA RESULT:      -8.8      0.000      0.000
  Name = 
  9 active torsions:
  status: ('A' for Active; 'I' for Inactive)
    1  A    between atoms: C_2  and  C_33
    2  A    between atoms: C_7  and  N_25
    3  A    between atoms: C_8  and  N_25
    4  A    between atoms: C_11  and  C_27
    5  A    between atoms: C_12  and  C_26
    6  A    between atoms: C_12  and  C_34
    7  A    between atoms: C_23  and  C_34
    8  A    between atoms: C_29  and  N_32
    9  A    between atoms: C_31  and  N_32
                            x       y       z     vdW  Elec       q    Type
                         _______ _______ _______ _____ _____    ______ ____

>  <TORSDO>
F 9

$$$$
=
 OpenBabel10232409543D

 34 37  0  0  1  0  0  0  0  0999 V2000
  187.7020  177.8400  142.3830 C   0  0  0  0  0  0  0  0  0  0  0  0
  186.7570  178.9350  140.4850 N   0  0  0  0  0  0  0  0  0  0  0  0
  186.4180  177.7510  142.9430 C   0  0  0  0  0  0  0  0  0  0  0  0
  184.1450  178.1060  142.6330 O   0  0  0  0  0  0  0  0  0  0  0  0
  185.3240  178.2340  142.2060 C   0  0  0  0  0  0  0  0  0  0  0  0
  185.5350  178.8210  141.0020 N   0  0  0  0  0  2  0  0  0  0  0  0
  187.8570  178.4610  141.1290 C   0  0  0  0  0  0  0  0  0  0  0  0
  191.6080  176.5520  143.3390 N   0  0  0  0  0  0  0  0  0  0  0  0
  191.3580  177.9180  142.9300 C   0  0  0  0  0  2  0  0  0  0  0  0
  189.3980  175.9820  142.5420 C   0  0  0  0  0  2  0  0  0  0  0  0
  190.7200  175.6350  143.1610 C   0  0  0  0  0  3  0  0  0  0  0  0
  189.9620  178.3710  143.3790 C   0  0  0  0  0  2  0  0  0  0  0  0
  188.8800  177.2950  143.1460 C   0  0  1  0  0  3  0  0  0  0  0  0
  186.2430  177.1090  144.2180 N   0  0  0  0  0  2  0  0  0  0  0  0
  187.7140  177.4440  146.1360 C   0  0  0  0  0  3  0  0  0  0  0  0
  186.4970  177.7020  145.4970 C   0  0  0  0  0  0  0  0  0  0  0  0
  188.0130  178.0380  147.3700 C   0  0  0  0  0  0  0  0  0  0  0  0
  185.8710  179.1800  147.3190 C   0  0  0  0  0  3  0  0  0  0  0  0
  185.5810  178.5850  146.0890 C   0  0  0  0  0  3  0  0  0  0  0  0
  187.0830  178.9060  147.9590 C   0  0  0  0  0  3  0  0  0  0  0  0
  190.1300  176.7550  147.5460 O   0  0  0  0  0  0  0  0  0  0  0  0
  189.2930  177.7500  148.0360 C   0  0  0  0  0  0  0  0  0  0  0  0
  189.6430  178.4030  149.0560 O   0  0  0  0  0  1  0  0  0  0  0  0
  189.1630  178.5880  140.5430 N   0  0  0  0  0  2  0  0  0  0  0  0
  190.6400  176.8950  139.4860 C   0  0  0  0  0  3  0  0  0  0  0  0
  189.1970  178.2800  138.1270 C   0  0  0  0  0  3  0  0  0  0  0  0
  189.6720  177.6450  136.9760 C   0  0  0  0  0  3  0  0  0  0  0  0
  191.1160  176.2600  138.3360 C   0  0  0  0  0  3  0  0  0  0  0  0
  190.6340  176.6350  137.0780 C   0  0  0  0  0  0  0  0  0  0  0  0
  189.6760  177.9110  139.3880 C   0  0  0  0  0  0  0  0  0  0  0  0
  191.1400  175.9630  135.8460 C   0  0  0  0  0  2  0  0  0  0  0  0
  192.3900  175.1370  136.1280 C   0  0  0  0  0  2  0  0  0  0  0  0
  193.6410  175.8260  135.6060 C   0  0  0  0  0  2  0  0  0  0  0  0
  194.1540  176.6900  136.5740 O   0  0  0  0  0  1  0  0  0  0  0  0
  1  3  2  0  0  0  0
  2  6  1  0  0  0  0
  2  7  2  0  0  0  0
  3 14  1  0  0  0  0
  5  4  2  0  0  0  0
  5  3  1  0  0  0  0
  6  5  1  0  0  0  0
  7  1  1  0  0  0  0
  9  8  1  0  0  0  0
  9 12  1  0  0  0  0
 10 13  1  0  0  0  0
 10 11  1  0  0  0  0
 11  8  2  0  0  0  0
 13  1  1  6  0  0  0
 13 12  1  0  0  0  0
 14 16  1  0  0  0  0
 15 17  1  0  0  0  0
 16 19  1  0  0  0  0
 16 15  2  0  0  0  0
 17 20  2  0  0  0  0
 17 22  1  0  0  0  0
 18 20  1  0  0  0  0
 19 18  2  0  0  0  0
 21 22  2  0  0  0  0
 22 23  1  0  0  0  0
 24  7  1  0  0  0  0
 26 30  2  0  0  0  0
 27 29  2  0  0  0  0
 27 26  1  0  0  0  0
 28 25  2  0  0  0  0
 29 28  1  0  0  0  0
 30 25  1  0  0  0  0
 30 24  1  0  0  0  0
 31 32  1  0  0  0  0
 31 29  1  0  0  0  0
 33 32  1  0  0  0  0
 33 34  1  0  0  0  0
M  END
>  <MODEL>
2

>  <REMARK>
 VINA RESULT:      -8.8      1.711      2.150
  Name = 
  9 active torsions:
  status: ('A' for Active; 'I' for Inactive)
    1  A    between atoms: C_2  and  C_33
    2  A    between atoms: C_7  and  N_25
    3  A    between atoms: C_8  and  N_25
    4  A    between atoms: C_11  and  C_27
    5  A    between atoms: C_12  and  C_26
    6  A    between atoms: C_12  and  C_34
    7  A    between atoms: C_23  and  C_34
    8  A    between atoms: C_29  and  N_32
    9  A    between atoms: C_31  and  N_32
                            x       y       z     vdW  Elec       q    Type
                         _______ _______ _______ _____ _____    ______ ____

>  <TORSDO>
F 9

$$$$
=
 OpenBabel10232409543D

 34 37  0  0  1  0  0  0  0  0999 V2000
  186.2090  178.1650  142.2140 C   0  0  0  0  0  0  0  0  0  0  0  0
  187.4870  178.7990  140.3020 N   0  0  0  0  0  0  0  0  0  0  0  0
  187.3050  177.4170  142.6710 C   0  0  0  0  0  0  0  0  0  0  0  0
  189.5270  176.8400  142.3300 O   0  0  0  0  0  0  0  0  0  0  0  0
  188.4930  177.4310  141.9210 C   0  0  0  0  0  0  0  0  0  0  0  0
  188.5380  178.1170  140.7520 N   0  0  0  0  0  2  0  0  0  0  0  0
  186.3170  178.8550  140.9920 C   0  0  0  0  0  0  0  0  0  0  0  0
  182.3660  179.2150  143.6150 N   0  0  0  0  0  0  0  0  0  0  0  0
  182.5570  178.7400  142.2600 C   0  0  0  0  0  2  0  0  0  0  0  0
  184.7590  179.5160  143.7710 C   0  0  0  0  0  2  0  0  0  0  0  0
  183.3690  179.5900  144.3310 C   0  0  0  0  0  3  0  0  0  0  0  0
  183.7180  177.7400  142.1950 C   0  0  0  0  0  2  0  0  0  0  0  0
  184.9410  178.1870  143.0250 C   0  0  1  0  0  3  0  0  0  0  0  0
  187.2130  176.7160  143.9230 N   0  0  0  0  0  2  0  0  0  0  0  0
  189.1480  176.8280  145.4040 C   0  0  0  0  0  3  0  0  0  0  0  0
  187.8050  177.1280  145.1600 C   0  0  0  0  0  0  0  0  0  0  0  0
  189.7720  177.2490  146.5870 C   0  0  0  0  0  0  0  0  0  0  0  0
  187.6990  178.3050  147.2810 C   0  0  0  0  0  3  0  0  0  0  0  0
  187.0850  177.8820  146.1000 C   0  0  0  0  0  3  0  0  0  0  0  0
  189.0370  177.9880  147.5260 C   0  0  0  0  0  3  0  0  0  0  0  0
  191.9870  176.4550  145.8010 O   0  0  0  0  0  0  0  0  0  0  0  0
  191.1830  176.9180  146.8360 C   0  0  0  0  0  0  0  0  0  0  0  0
  191.6780  177.0520  147.9870 O   0  0  0  0  0  1  0  0  0  0  0  0
  185.2010  179.6080  140.4880 N   0  0  0  0  0  2  0  0  0  0  0  0
  183.1620  180.0020  139.1270 C   0  0  0  0  0  3  0  0  0  0  0  0
  184.6040  178.1190  138.6560 C   0  0  0  0  0  3  0  0  0  0  0  0
  183.7620  177.7360  137.6080 C   0  0  0  0  0  3  0  0  0  0  0  0
  182.3190  179.6210  138.0800 C   0  0  0  0  0  3  0  0  0  0  0  0
  182.6170  178.4850  137.3190 C   0  0  0  0  0  0  0  0  0  0  0  0
  184.3110  179.2520  139.4220 C   0  0  0  0  0  0  0  0  0  0  0  0
  181.7190  178.0710  136.2000 C   0  0  0  0  0  2  0  0  0  0  0  0
  180.6200  179.0970  135.9530 C   0  0  0  0  0  2  0  0  0  0  0  0
  180.8430  179.8480  134.6490 C   0  0  0  0  0  2  0  0  0  0  0  0
  180.6110  181.2110  134.8340 O   0  0  0  0  0  1  0  0  0  0  0  0
  1  3  2  0  0  0  0
  2  6  1  0  0  0  0
  2  7  2  0  0  0  0
  3 14  1  0  0  0  0
  5  4  2  0  0  0  0
  5  3  1  0  0  0  0
  6  5  1  0  0  0  0
  7  1  1  0  0  0  0
  8 11  2  0  0  0  0
  9  8  1  0  0  0  0
 10 11  1  0  0  0  0
 12  9  1  0  0  0  0
 12 13  1  0  0  0  0
 13  1  1  6  0  0  0
 13 10  1  0  0  0  0
 14 16  1  0  0  0  0
 15 17  1  0  0  0  0
 16 15  2  0  0  0  0
 16 19  1  0  0  0  0
 17 22  1  0  0  0  0
 17 20  2  0  0  0  0
 18 20  1  0  0  0  0
 19 18  2  0  0  0  0
 21 22  2  0  0  0  0
 22 23  1  0  0  0  0
 24  7  1  0  0  0  0
 25 30  1  0  0  0  0
 26 30  2  0  0  0  0
 27 26  1  0  0  0  0
 28 25  2  0  0  0  0
 29 27  2  0  0  0  0
 29 28  1  0  0  0  0
 30 24  1  0  0  0  0
 31 29  1  0  0  0  0
 32 31  1  0  0  0  0
 33 34  1  0  0  0  0
 33 32  1  0  0  0  0
M  END
>  <MODEL>
3

>  <REMARK>
 VINA RESULT:      -8.1      3.557      5.427
  Name = 
  9 active torsions:
  status: ('A' for Active; 'I' for Inactive)
    1  A    between atoms: C_2  and  C_33
    2  A    between atoms: C_7  and  N_25
    3  A    between atoms: C_8  and  N_25
    4  A    between atoms: C_11  and  C_27
    5  A    between atoms: C_12  and  C_26
    6  A    between atoms: C_12  and  C_34
    7  A    between atoms: C_23  and  C_34
    8  A    between atoms: C_29  and  N_32
    9  A    between atoms: C_31  and  N_32
                            x       y       z     vdW  Elec       q    Type
                         _______ _______ _______ _____ _____    ______ ____

>  <TORSDO>
F 9

$$$$
=
 OpenBabel10232409543D

 34 37  0  0  1  0  0  0  0  0999 V2000
  184.6190  178.2540  138.9470 C   0  0  0  0  0  0  0  0  0  0  0  0
  186.6840  178.7610  140.0290 N   0  0  0  0  0  0  0  0  0  0  0  0
  185.3290  177.9820  137.7670 C   0  0  0  0  0  0  0  0  0  0  0  0
  187.4160  177.7620  136.7750 O   0  0  0  0  0  0  0  0  0  0  0  0
  186.7310  178.0720  137.7860 C   0  0  0  0  0  0  0  0  0  0  0  0
  187.3610  178.4700  138.9190 N   0  0  0  0  0  2  0  0  0  0  0  0
  185.3300  178.6640  140.0900 C   0  0  0  0  0  0  0  0  0  0  0  0
  180.5990  178.2800  140.2410 N   0  0  0  0  0  0  0  0  0  0  0  0
  181.3990  179.4870  140.2810 C   0  0  0  0  0  2  0  0  0  0  0  0
  182.6370  177.0250  139.9050 C   0  0  0  0  0  2  0  0  0  0  0  0
  181.1510  177.1270  140.0780 C   0  0  0  0  0  3  0  0  0  0  0  0
  182.4270  179.4940  139.1420 C   0  0  0  0  0  2  0  0  0  0  0  0
  183.1190  178.1280  138.9510 C   0  0  1  0  0  3  0  0  0  0  0  0
  184.6180  177.5510  136.5940 N   0  0  0  0  0  2  0  0  0  0  0  0
  184.5220  175.1400  136.9540 C   0  0  0  0  0  3  0  0  0  0  0  0
  183.9380  176.3000  136.4380 C   0  0  0  0  0  0  0  0  0  0  0  0
  183.8680  173.9040  136.8540 C   0  0  0  0  0  0  0  0  0  0  0  0
  182.0120  174.9990  135.7350 C   0  0  0  0  0  3  0  0  0  0  0  0
  182.6700  176.2270  135.8390 C   0  0  0  0  0  3  0  0  0  0  0  0
  182.6090  173.8410  136.2390 C   0  0  0  0  0  3  0  0  0  0  0  0
  184.0110  171.4340  137.0450 O   0  0  0  0  0  0  0  0  0  0  0  0
  184.4980  172.6890  137.3930 C   0  0  0  0  0  0  0  0  0  0  0  0
  185.4850  172.7730  138.1730 O   0  0  0  0  0  1  0  0  0  0  0  0
  184.6260  178.9730  141.3050 N   0  0  0  0  0  2  0  0  0  0  0  0
  186.1420  177.8980  142.9510 C   0  0  0  0  0  3  0  0  0  0  0  0
  184.3480  179.3380  143.6970 C   0  0  0  0  0  3  0  0  0  0  0  0
  184.7280  179.1240  145.0250 C   0  0  0  0  0  3  0  0  0  0  0  0
  186.5240  177.6840  144.2780 C   0  0  0  0  0  3  0  0  0  0  0  0
  185.8160  178.2950  145.3180 C   0  0  0  0  0  0  0  0  0  0  0  0
  185.0500  178.7280  142.6520 C   0  0  0  0  0  0  0  0  0  0  0  0
  186.2160  178.0680  146.7380 C   0  0  0  0  0  2  0  0  0  0  0  0
  187.6970  177.7270  146.8570 C   0  0  0  0  0  2  0  0  0  0  0  0
  188.1110  177.5450  148.3080 C   0  0  0  0  0  2  0  0  0  0  0  0
  189.2150  178.3470  148.5970 O   0  0  0  0  0  1  0  0  0  0  0  0
  1  7  1  0  0  0  0
  2  7  2  0  0  0  0
  3  5  1  0  0  0  0
  3  1  2  0  0  0  0
  4  5  2  0  0  0  0
  5  6  1  0  0  0  0
  6  2  1  0  0  0  0
  7 24  1  0  0  0  0
  8  9  1  0  0  0  0
 10 11  1  0  0  0  0
 11  8  2  0  0  0  0
 12  9  1  0  0  0  0
 13  1  1  1  0  0  0
 13 12  1  0  0  0  0
 13 10  1  0  0  0  0
 14  3  1  0  0  0  0
 16 14  1  0  0  0  0
 16 15  2  0  0  0  0
 17 15  1  0  0  0  0
 17 22  1  0  0  0  0
 18 19  2  0  0  0  0
 18 20  1  0  0  0  0
 19 16  1  0  0  0  0
 20 17  2  0  0  0  0
 21 22  2  0  0  0  0
 22 23  1  0  0  0  0
 24 30  1  0  0  0  0
 25 28  1  0  0  0  0
 26 27  2  0  0  0  0
 27 29  1  0  0  0  0
 28 29  2  0  0  0  0
 29 31  1  0  0  0  0
 30 25  2  0  0  0  0
 30 26  1  0  0  0  0
 31 32  1  0  0  0  0
 32 33  1  0  0  0  0
 33 34  1  0  0  0  0
M  END
>  <MODEL>
4

>  <REMARK>
 VINA RESULT:      -7.9      3.838      9.532
  Name = 
  9 active torsions:
  status: ('A' for Active; 'I' for Inactive)
    1  A    between atoms: C_2  and  C_33
    2  A    between atoms: C_7  and  N_25
    3  A    between atoms: C_8  and  N_25
    4  A    between atoms: C_11  and  C_27
    5  A    between atoms: C_12  and  C_26
    6  A    between atoms: C_12  and  C_34
    7  A    between atoms: C_23  and  C_34
    8  A    between atoms: C_29  and  N_32
    9  A    between atoms: C_31  and  N_32
                            x       y       z     vdW  Elec       q    Type
                         _______ _______ _______ _____ _____    ______ ____

>  <TORSDO>
F 9

$$$$
=
 OpenBabel10232409543D

 34 37  0  0  1  0  0  0  0  0999 V2000
  185.7080  178.6720  141.6940 C   0  0  0  0  0  0  0  0  0  0  0  0
  187.8470  177.6140  141.7170 N   0  0  0  0  0  0  0  0  0  0  0  0
  185.8590  178.8980  140.3170 C   0  0  0  0  0  0  0  0  0  0  0  0
  187.1570  178.5260  138.4290 O   0  0  0  0  0  0  0  0  0  0  0  0
  187.0130  178.4170  139.6760 C   0  0  0  0  0  0  0  0  0  0  0  0
  187.9750  177.7980  140.4040 N   0  0  0  0  0  2  0  0  0  0  0  0
  186.7420  178.0250  142.3960 C   0  0  0  0  0  0  0  0  0  0  0  0
  182.5370  178.9960  144.4640 N   0  0  0  0  0  0  0  0  0  0  0  0
  183.9130  179.1360  144.8930 C   0  0  0  0  0  2  0  0  0  0  0  0
  183.3540  178.0870  142.3790 C   0  0  0  0  0  2  0  0  0  0  0  0
  182.2520  178.5030  143.3080 C   0  0  0  0  0  3  0  0  0  0  0  0
  184.7680  179.7500  143.7770 C   0  0  0  0  0  2  0  0  0  0  0  0
  184.4610  179.1510  142.3880 C   0  0  1  0  0  3  0  0  0  0  0  0
  184.8060  179.5470  139.5850 N   0  0  0  0  0  2  0  0  0  0  0  0
  183.7160  177.5100  138.8000 C   0  0  0  0  0  3  0  0  0  0  0  0
  183.6870  178.8970  138.9710 C   0  0  0  0  0  0  0  0  0  0  0  0
  182.6230  176.8360  138.2390 C   0  0  0  0  0  0  0  0  0  0  0  0
  181.4450  178.9490  138.0400 C   0  0  0  0  0  3  0  0  0  0  0  0
  182.5390  179.6140  138.6000 C   0  0  0  0  0  3  0  0  0  0  0  0
  181.4880  177.5650  137.8570 C   0  0  0  0  0  3  0  0  0  0  0  0
  181.5310  174.6080  138.2590 O   0  0  0  0  0  1  0  0  0  0  0  0
  182.6710  175.3770  138.0560 C   0  0  0  0  0  0  0  0  0  0  0  0
  183.7430  174.8100  137.7130 O   0  0  0  0  0  0  0  0  0  0  0  0
  186.6250  177.8030  143.8110 N   0  0  0  0  0  2  0  0  0  0  0  0
  188.9430  177.1060  144.3670 C   0  0  0  0  0  3  0  0  0  0  0  0
  187.4400  177.8590  146.1060 C   0  0  0  0  0  3  0  0  0  0  0  0
  188.4420  177.6590  147.0590 C   0  0  0  0  0  3  0  0  0  0  0  0
  189.9460  176.9050  145.3190 C   0  0  0  0  0  3  0  0  0  0  0  0
  189.6970  177.1800  146.6680 C   0  0  0  0  0  0  0  0  0  0  0  0
  187.6810  177.5840  144.7560 C   0  0  0  0  0  0  0  0  0  0  0  0
  190.7630  176.9660  147.6900 C   0  0  0  0  0  2  0  0  0  0  0  0
  191.7620  175.9030  147.2460 C   0  0  0  0  0  2  0  0  0  0  0  0
  192.8920  175.7480  148.2520 C   0  0  0  0  0  2  0  0  0  0  0  0
  193.0280  176.9130  149.0070 O   0  0  0  0  0  1  0  0  0  0  0  0
  1  7  1  0  0  0  0
  2  7  2  0  0  0  0
  3  1  2  0  0  0  0
  4  5  2  0  0  0  0
  5  3  1  0  0  0  0
  5  6  1  0  0  0  0
  6  2  1  0  0  0  0
  7 24  1  0  0  0  0
  8  9  1  0  0  0  0
 10 13  1  0  0  0  0
 10 11  1  0  0  0  0
 11  8  2  0  0  0  0
 12  9  1  0  0  0  0
 13  1  1  1  0  0  0
 13 12  1  0  0  0  0
 14  3  1  0  0  0  0
 15 16  1  0  0  0  0
 16 14  1  0  0  0  0
 17 15  2  0  0  0  0
 18 19  1  0  0  0  0
 19 16  2  0  0  0  0
 20 18  2  0  0  0  0
 20 17  1  0  0  0  0
 22 17  1  0  0  0  0
 22 21  1  0  0  0  0
 23 22  2  0  0  0  0
 24 30  1  0  0  0  0
 25 30  2  0  0  0  0
 25 28  1  0  0  0  0
 26 27  2  0  0  0  0
 28 29  2  0  0  0  0
 29 27  1  0  0  0  0
 29 31  1  0  0  0  0
 30 26  1  0  0  0  0
 32 31  1  0  0  0  0
 32 33  1  0  0  0  0
 33 34  1  0  0  0  0
M  END
>  <MODEL>
5

>  <REMARK>
 VINA RESULT:      -7.9      3.341      8.789
  Name = 
  9 active torsions:
  status: ('A' for Active; 'I' for Inactive)
    1  A    between atoms: C_2  and  C_33
    2  A    between atoms: C_7  and  N_25
    3  A    between atoms: C_8  and  N_25
    4  A    between atoms: C_11  and  C_27
    5  A    between atoms: C_12  and  C_26
    6  A    between atoms: C_12  and  C_34
    7  A    between atoms: C_23  and  C_34
    8  A    between atoms: C_29  and  N_32
    9  A    between atoms: C_31  and  N_32
                            x       y       z     vdW  Elec       q    Type
                         _______ _______ _______ _____ _____    ______ ____

>  <TORSDO>
F 9

$$$$
=
 OpenBabel10232409543D

 34 37  0  0  1  0  0  0  0  0999 V2000
  188.8570  177.4750  140.0350 C   0  0  0  0  0  0  0  0  0  0  0  0
  188.6320  176.5660  137.8400 N   0  0  0  0  0  0  0  0  0  0  0  0
  187.7280  178.2740  139.7960 C   0  0  0  0  0  0  0  0  0  0  0  0
  185.9950  178.7840  138.3390 O   0  0  0  0  0  0  0  0  0  0  0  0
  187.0570  178.1460  138.5690 C   0  0  0  0  0  0  0  0  0  0  0  0
  187.5410  177.3000  137.6260 N   0  0  0  0  0  2  0  0  0  0  0  0
  189.3120  176.6160  139.0170 C   0  0  0  0  0  0  0  0  0  0  0  0
  191.4800  176.6770  143.2470 N   0  0  0  0  0  0  0  0  0  0  0  0
  191.9940  176.9790  141.9280 C   0  0  0  0  0  2  0  0  0  0  0  0
  189.3030  176.3510  142.2470 C   0  0  0  0  0  2  0  0  0  0  0  0
  190.2390  176.3730  143.4190 C   0  0  0  0  0  3  0  0  0  0  0  0
  191.0560  177.9420  141.1880 C   0  0  0  0  0  2  0  0  0  0  0  0
  189.5660  177.5760  141.3590 C   0  0  1  0  0  3  0  0  0  0  0  0
  187.2450  179.1470  140.8310 N   0  0  0  0  0  2  0  0  0  0  0  0
  186.4360  178.6930  143.0880 C   0  0  0  0  0  3  0  0  0  0  0  0
  186.1640  178.8670  141.7280 C   0  0  0  0  0  0  0  0  0  0  0  0
  185.3990  178.4570  144.0010 C   0  0  0  0  0  0  0  0  0  0  0  0
  183.7940  178.5950  142.1840 C   0  0  0  0  0  3  0  0  0  0  0  0
  184.8340  178.8310  141.2810 C   0  0  0  0  0  3  0  0  0  0  0  0
  184.0760  178.4070  143.5390 C   0  0  0  0  0  3  0  0  0  0  0  0
  185.1970  179.1500  146.3750 O   0  0  0  0  0  1  0  0  0  0  0  0
  185.7010  178.2660  145.4280 C   0  0  0  0  0  0  0  0  0  0  0  0
  186.4170  177.3010  145.8060 O   0  0  0  0  0  0  0  0  0  0  0  0
  190.4800  175.8050  139.2250 N   0  0  0  0  0  2  0  0  0  0  0  0
  192.5970  176.5590  138.1680 C   0  0  0  0  0  3  0  0  0  0  0  0
  191.6360  174.4160  137.5920 C   0  0  0  0  0  3  0  0  0  0  0  0
  192.6910  174.1800  136.7070 C   0  0  0  0  0  3  0  0  0  0  0  0
  193.6520  176.3260  137.2830 C   0  0  0  0  0  3  0  0  0  0  0  0
  193.7010  175.1360  136.5490 C   0  0  0  0  0  0  0  0  0  0  0  0
  191.5800  175.6040  138.3280 C   0  0  0  0  0  0  0  0  0  0  0  0
  194.8240  174.8810  135.6000 C   0  0  0  0  0  2  0  0  0  0  0  0
  196.0490  174.3240  136.3160 C   0  0  0  0  0  2  0  0  0  0  0  0
  197.3370  174.8770  135.7260 C   0  0  0  0  0  2  0  0  0  0  0  0
  197.5810  176.1580  136.2210 O   0  0  0  0  0  1  0  0  0  0  0  0
  2  7  2  0  0  0  0
  3  1  2  0  0  0  0
  3 14  1  0  0  0  0
  4  5  2  0  0  0  0
  5  3  1  0  0  0  0
  6  2  1  0  0  0  0
  6  5  1  0  0  0  0
  7 24  1  0  0  0  0
  7  1  1  0  0  0  0
  8 11  2  0  0  0  0
  9  8  1  0  0  0  0
 10 11  1  0  0  0  0
 12 13  1  0  0  0  0
 12  9  1  0  0  0  0
 13  1  1  6  0  0  0
 13 10  1  0  0  0  0
 14 16  1  0  0  0  0
 15 17  1  0  0  0  0
 16 15  2  0  0  0  0
 17 22  1  0  0  0  0
 18 20  1  0  0  0  0
 19 16  1  0  0  0  0
 19 18  2  0  0  0  0
 20 17  2  0  0  0  0
 22 23  2  0  0  0  0
 22 21  1  0  0  0  0
 25 30  1  0  0  0  0
 26 30  2  0  0  0  0
 27 26  1  0  0  0  0
 28 25  2  0  0  0  0
 29 27  2  0  0  0  0
 29 28  1  0  0  0  0
 30 24  1  0  0  0  0
 31 32  1  0  0  0  0
 31 29  1  0  0  0  0
 33 34  1  0  0  0  0
 33 32  1  0  0  0  0
M  END
>  <MODEL>
6

>  <REMARK>
 VINA RESULT:      -7.6      3.382      5.305
  Name = 
  9 active torsions:
  status: ('A' for Active; 'I' for Inactive)
    1  A    between atoms: C_2  and  C_33
    2  A    between atoms: C_7  and  N_25
    3  A    between atoms: C_8  and  N_25
    4  A    between atoms: C_11  and  C_27
    5  A    between atoms: C_12  and  C_26
    6  A    between atoms: C_12  and  C_34
    7  A    between atoms: C_23  and  C_34
    8  A    between atoms: C_29  and  N_32
    9  A    between atoms: C_31  and  N_32
                            x       y       z     vdW  Elec       q    Type
                         _______ _______ _______ _____ _____    ______ ____

>  <TORSDO>
F 9

$$$$
=
 OpenBabel10232409543D

 34 37  0  0  1  0  0  0  0  0999 V2000
  188.8520  177.5530  139.8150 C   0  0  0  0  0  0  0  0  0  0  0  0
  190.5370  176.1630  140.7750 N   0  0  0  0  0  0  0  0  0  0  0  0
  188.5470  178.0320  141.0990 C   0  0  0  0  0  0  0  0  0  0  0  0
  189.1200  178.0320  143.3480 O   0  0  0  0  0  0  0  0  0  0  0  0
  189.3050  177.5730  142.1890 C   0  0  0  0  0  0  0  0  0  0  0  0
  190.2710  176.6420  141.9890 N   0  0  0  0  0  2  0  0  0  0  0  0
  189.8650  176.5860  139.6710 C   0  0  0  0  0  0  0  0  0  0  0  0
  187.4330  178.0660  135.8710 N   0  0  0  0  0  0  0  0  0  0  0  0
  187.3160  176.7870  136.5400 C   0  0  0  0  0  2  0  0  0  0  0  0
  188.9760  178.7510  137.6000 C   0  0  0  0  0  2  0  0  0  0  0  0
  188.2030  178.9880  136.3370 C   0  0  0  0  0  3  0  0  0  0  0  0
  187.1350  176.9810  138.0520 C   0  0  0  0  0  2  0  0  0  0  0  0
  188.0720  178.0620  138.6330 C   0  0  1  0  0  3  0  0  0  0  0  0
  187.5220  179.0270  141.2600 N   0  0  0  0  0  2  0  0  0  0  0  0
  185.9840  178.8640  143.1460 C   0  0  0  0  0  3  0  0  0  0  0  0
  186.2030  178.7980  141.7670 C   0  0  0  0  0  0  0  0  0  0  0  0
  184.6990  178.6840  143.6760 C   0  0  0  0  0  0  0  0  0  0  0  0
  183.8320  178.3950  141.4270 C   0  0  0  0  0  3  0  0  0  0  0  0
  185.1160  178.5760  140.9060 C   0  0  0  0  0  3  0  0  0  0  0  0
  183.6240  178.4470  142.8070 C   0  0  0  0  0  3  0  0  0  0  0  0
  185.4900  178.3490  146.0040 O   0  0  0  0  0  1  0  0  0  0  0  0
  184.4840  178.7460  145.1300 C   0  0  0  0  0  0  0  0  0  0  0  0
  183.3890  179.1590  145.5980 O   0  0  0  0  0  0  0  0  0  0  0  0
  190.1810  176.0600  138.3720 N   0  0  0  0  0  2  0  0  0  0  0  0
  191.5810  174.2840  137.3460 C   0  0  0  0  0  3  0  0  0  0  0  0
  192.5700  176.3830  138.0260 C   0  0  0  0  0  3  0  0  0  0  0  0
  193.8200  175.9360  137.5870 C   0  0  0  0  0  3  0  0  0  0  0  0
  192.8290  173.8350  136.9070 C   0  0  0  0  0  3  0  0  0  0  0  0
  193.9530  174.6610  137.0290 C   0  0  0  0  0  0  0  0  0  0  0  0
  191.4440  175.5630  137.9090 C   0  0  0  0  0  0  0  0  0  0  0  0
  195.2900  174.1870  136.5650 C   0  0  0  0  0  2  0  0  0  0  0  0
  196.3220  174.2340  137.6850 C   0  0  0  0  0  2  0  0  0  0  0  0
  197.6860  174.6630  137.1670 C   0  0  0  0  0  2  0  0  0  0  0  0
  197.6040  175.9300  136.5890 O   0  0  0  0  0  1  0  0  0  0  0  0
  1  3  2  0  0  0  0
  2  6  1  0  0  0  0
  3 14  1  0  0  0  0
  3  5  1  0  0  0  0
  5  4  2  0  0  0  0
  6  5  1  0  0  0  0
  7  1  1  0  0  0  0
  7  2  2  0  0  0  0
  8 11  2  0  0  0  0
  8  9  1  0  0  0  0
  9 12  1  0  0  0  0
 10 13  1  0  0  0  0
 11 10  1  0  0  0  0
 12 13  1  0  0  0  0
 13  1  1  1  0  0  0
 14 16  1  0  0  0  0
 15 17  1  0  0  0  0
 16 15  2  0  0  0  0
 17 22  1  0  0  0  0
 18 20  1  0  0  0  0
 19 18  2  0  0  0  0
 19 16  1  0  0  0  0
 20 17  2  0  0  0  0
 22 23  2  0  0  0  0
 22 21  1  0  0  0  0
 24  7  1  0  0  0  0
 25 30  1  0  0  0  0
 27 26  1  0  0  0  0
 28 29  1  0  0  0  0
 28 25  2  0  0  0  0
 29 27  2  0  0  0  0
 30 26  2  0  0  0  0
 30 24  1  0  0  0  0
 31 29  1  0  0  0  0
 31 32  1  0  0  0  0
 33 32  1  0  0  0  0
 34 33  1  0  0  0  0
M  END
>  <MODEL>
7

>  <REMARK>
 VINA RESULT:      -7.6      3.424      6.180
  Name = 
  9 active torsions:
  status: ('A' for Active; 'I' for Inactive)
    1  A    between atoms: C_2  and  C_33
    2  A    between atoms: C_7  and  N_25
    3  A    between atoms: C_8  and  N_25
    4  A    between atoms: C_11  and  C_27
    5  A    between atoms: C_12  and  C_26
    6  A    between atoms: C_12  and  C_34
    7  A    between atoms: C_23  and  C_34
    8  A    between atoms: C_29  and  N_32
    9  A    between atoms: C_31  and  N_32
                            x       y       z     vdW  Elec       q    Type
                         _______ _______ _______ _____ _____    ______ ____

>  <TORSDO>
F 9

$$$$
=
 OpenBabel10232409543D

 34 37  0  0  1  0  0  0  0  0999 V2000
  187.6140  178.0500  139.1120 C   0  0  0  0  0  0  0  0  0  0  0  0
  186.5560  178.7680  141.1250 N   0  0  0  0  0  0  0  0  0  0  0  0
  186.3860  178.1840  138.4440 C   0  0  0  0  0  0  0  0  0  0  0  0
  184.1750  178.8730  138.5880 O   0  0  0  0  0  0  0  0  0  0  0  0
  185.2760  178.6620  139.1610 C   0  0  0  0  0  0  0  0  0  0  0  0
  185.3990  178.9280  140.4850 N   0  0  0  0  0  2  0  0  0  0  0  0
  187.6770  178.3410  140.4870 C   0  0  0  0  0  0  0  0  0  0  0  0
  190.0530  176.5100  136.0270 N   0  0  0  0  0  0  0  0  0  0  0  0
  189.2920  177.7260  135.8330 C   0  0  0  0  0  2  0  0  0  0  0  0
  188.7270  176.0790  138.0010 C   0  0  0  0  0  2  0  0  0  0  0  0
  189.8030  175.7250  137.0190 C   0  0  0  0  0  3  0  0  0  0  0  0
  189.1490  178.4930  137.1540 C   0  0  0  0  0  2  0  0  0  0  0  0
  188.8200  177.5720  138.3480 C   0  0  1  0  0  3  0  0  0  0  0  0
  186.3090  177.9010  137.0370 N   0  0  0  0  0  2  0  0  0  0  0  0
  185.4310  175.6240  137.0440 C   0  0  0  0  0  3  0  0  0  0  0  0
  185.5120  176.8770  136.4300 C   0  0  0  0  0  0  0  0  0  0  0  0
  184.6300  174.6110  136.5010 C   0  0  0  0  0  0  0  0  0  0  0  0
  183.9590  176.1220  134.7220 C   0  0  0  0  0  3  0  0  0  0  0  0
  184.7600  177.1270  135.2710 C   0  0  0  0  0  3  0  0  0  0  0  0
  183.8960  174.8680  135.3330 C   0  0  0  0  0  3  0  0  0  0  0  0
  185.4270  172.9810  138.1930 O   0  0  0  0  0  1  0  0  0  0  0  0
  184.5610  173.2940  137.1520 C   0  0  0  0  0  0  0  0  0  0  0  0
  183.7180  172.4370  136.7740 O   0  0  0  0  0  0  0  0  0  0  0  0
  188.9150  178.1880  141.2010 N   0  0  0  0  0  2  0  0  0  0  0  0
  188.2230  177.1240  143.3350 C   0  0  0  0  0  3  0  0  0  0  0  0
  190.1810  178.5400  143.2520 C   0  0  0  0  0  3  0  0  0  0  0  0
  190.3940  178.3260  144.6160 C   0  0  0  0  0  3  0  0  0  0  0  0
  188.4330  176.9100  144.6990 C   0  0  0  0  0  3  0  0  0  0  0  0
  189.5190  177.5130  145.3440 C   0  0  0  0  0  0  0  0  0  0  0  0
  189.0970  177.9420  142.6010 C   0  0  0  0  0  0  0  0  0  0  0  0
  189.7490  177.2900  146.8020 C   0  0  0  0  0  2  0  0  0  0  0  0
  188.4520  176.9550  147.5300 C   0  0  0  0  0  2  0  0  0  0  0  0
  187.8430  178.1890  148.1770 C   0  0  0  0  0  2  0  0  0  0  0  0
  186.7090  178.5920  147.4710 O   0  0  0  0  0  1  0  0  0  0  0  0
  1  7  1  0  0  0  0
  3  1  2  0  0  0  0
  3  5  1  0  0  0  0
  4  5  2  0  0  0  0
  5  6  1  0  0  0  0
  6  2  1  0  0  0  0
  7  2  2  0  0  0  0
  7 24  1  0  0  0  0
  8 11  2  0  0  0  0
  9  8  1  0  0  0  0
  9 12  1  0  0  0  0
 10 13  1  0  0  0  0
 11 10  1  0  0  0  0
 12 13  1  0  0  0  0
 13  1  1  6  0  0  0
 14  3  1  0  0  0  0
 16 14  1  0  0  0  0
 16 15  2  0  0  0  0
 17 15  1  0  0  0  0
 17 22  1  0  0  0  0
 18 19  2  0  0  0  0
 18 20  1  0  0  0  0
 19 16  1  0  0  0  0
 20 17  2  0  0  0  0
 22 21  1  0  0  0  0
 23 22  2  0  0  0  0
 24 30  1  0  0  0  0
 25 28  1  0  0  0  0
 26 27  2  0  0  0  0
 27 29  1  0  0  0  0
 28 29  2  0  0  0  0
 29 31  1  0  0  0  0
 30 26  1  0  0  0  0
 30 25  2  0  0  0  0
 31 32  1  0  0  0  0
 32 33  1  0  0  0  0
 34 33  1  0  0  0  0
M  END
>  <MODEL>
8

>  <REMARK>
 VINA RESULT:      -7.6      3.000      8.721
  Name = 
  9 active torsions:
  status: ('A' for Active; 'I' for Inactive)
    1  A    between atoms: C_2  and  C_33
    2  A    between atoms: C_7  and  N_25
    3  A    between atoms: C_8  and  N_25
    4  A    between atoms: C_11  and  C_27
    5  A    between atoms: C_12  and  C_26
    6  A    between atoms: C_12  and  C_34
    7  A    between atoms: C_23  and  C_34
    8  A    between atoms: C_29  and  N_32
    9  A    between atoms: C_31  and  N_32
                            x       y       z     vdW  Elec       q    Type
                         _______ _______ _______ _____ _____    ______ ____

>  <TORSDO>
F 9

$$$$
=
 OpenBabel10232409543D

 34 37  0  0  1  0  0  0  0  0999 V2000
  185.9610  178.6990  141.8560 C   0  0  0  0  0  0  0  0  0  0  0  0
  188.0670  177.5830  141.9570 N   0  0  0  0  0  0  0  0  0  0  0  0
  186.1830  178.9480  140.4930 C   0  0  0  0  0  0  0  0  0  0  0  0
  187.5580  178.5790  138.6600 O   0  0  0  0  0  0  0  0  0  0  0  0
  187.3530  178.4490  139.8960 C   0  0  0  0  0  0  0  0  0  0  0  0
  188.2620  177.7900  140.6560 N   0  0  0  0  0  2  0  0  0  0  0  0
  186.9430  178.0100  142.5920 C   0  0  0  0  0  0  0  0  0  0  0  0
  182.7150  179.1040  144.5280 N   0  0  0  0  0  0  0  0  0  0  0  0
  184.0790  179.2590  144.9900 C   0  0  0  0  0  2  0  0  0  0  0  0
  183.5880  178.1340  142.4930 C   0  0  0  0  0  2  0  0  0  0  0  0
  182.4620  178.5770  143.3790 C   0  0  0  0  0  3  0  0  0  0  0  0
  184.9650  179.8390  143.8790 C   0  0  0  0  0  2  0  0  0  0  0  0
  184.6950  179.1980  142.5010 C   0  0  1  0  0  3  0  0  0  0  0  0
  185.1830  179.6410  139.7260 N   0  0  0  0  0  2  0  0  0  0  0  0
  182.9150  179.8540  138.8510 C   0  0  0  0  0  3  0  0  0  0  0  0
  184.0220  179.0480  139.1310 C   0  0  0  0  0  0  0  0  0  0  0  0
  181.7780  179.3170  138.2330 C   0  0  0  0  0  0  0  0  0  0  0  0
  182.8700  177.1500  138.1490 C   0  0  0  0  0  3  0  0  0  0  0  0
  184.0000  177.6930  138.7640 C   0  0  0  0  0  3  0  0  0  0  0  0
  181.7610  177.9580  137.8860 C   0  0  0  0  0  3  0  0  0  0  0  0
  180.1940  180.3760  136.6440 O   0  0  0  0  0  0  0  0  0  0  0  0
  180.6160  180.1740  137.9530 C   0  0  0  0  0  0  0  0  0  0  0  0
  179.9910  180.7330  138.8940 O   0  0  0  0  0  1  0  0  0  0  0  0
  186.7540  177.7640  143.9950 N   0  0  0  0  0  2  0  0  0  0  0  0
  187.5260  177.9180  146.3500 C   0  0  0  0  0  3  0  0  0  0  0  0
  189.0170  177.1170  144.6230 C   0  0  0  0  0  3  0  0  0  0  0  0
  190.0260  176.9460  145.5730 C   0  0  0  0  0  3  0  0  0  0  0  0
  188.5340  177.7480  147.3020 C   0  0  0  0  0  3  0  0  0  0  0  0
  189.7890  177.2630  146.9150 C   0  0  0  0  0  0  0  0  0  0  0  0
  187.7610  177.6030  145.0020 C   0  0  0  0  0  0  0  0  0  0  0  0
  190.8710  177.0820  147.9250 C   0  0  0  0  0  2  0  0  0  0  0  0
  191.9340  176.1030  147.4410 C   0  0  0  0  0  2  0  0  0  0  0  0
  192.7510  175.5500  148.5980 C   0  0  0  0  0  2  0  0  0  0  0  0
  193.7190  176.4760  148.9890 O   0  0  0  0  0  1  0  0  0  0  0  0
  1  7  1  0  0  0  0
  2  7  2  0  0  0  0
  3  1  2  0  0  0  0
  4  5  2  0  0  0  0
  5  3  1  0  0  0  0
  5  6  1  0  0  0  0
  6  2  1  0  0  0  0
  7 24  1  0  0  0  0
  8  9  1  0  0  0  0
 10 13  1  0  0  0  0
 10 11  1  0  0  0  0
 11  8  2  0  0  0  0
 12  9  1  0  0  0  0
 13  1  1  1  0  0  0
 13 12  1  0  0  0  0
 14  3  1  0  0  0  0
 15 16  1  0  0  0  0
 16 14  1  0  0  0  0
 17 15  2  0  0  0  0
 18 19  1  0  0  0  0
 19 16  2  0  0  0  0
 20 18  2  0  0  0  0
 20 17  1  0  0  0  0
 21 22  2  0  0  0  0
 22 17  1  0  0  0  0
 22 23  1  0  0  0  0
 24 30  1  0  0  0  0
 25 28  1  0  0  0  0
 26 30  1  0  0  0  0
 26 27  2  0  0  0  0
 27 29  1  0  0  0  0
 29 28  2  0  0  0  0
 29 31  1  0  0  0  0
 30 25  2  0  0  0  0
 32 31  1  0  0  0  0
 32 33  1  0  0  0  0
 33 34  1  0  0  0  0
M  END
>  <MODEL>
9

>  <REMARK>
 VINA RESULT:      -7.5      3.500      9.088
  Name = 
  9 active torsions:
  status: ('A' for Active; 'I' for Inactive)
    1  A    between atoms: C_2  and  C_33
    2  A    between atoms: C_7  and  N_25
    3  A    between atoms: C_8  and  N_25
    4  A    between atoms: C_11  and  C_27
    5  A    between atoms: C_12  and  C_26
    6  A    between atoms: C_12  and  C_34
    7  A    between atoms: C_23  and  C_34
    8  A    between atoms: C_29  and  N_32
    9  A    between atoms: C_31  and  N_32
                            x       y       z     vdW  Elec       q    Type
                         _______ _______ _______ _____ _____    ______ ____

>  <TORSDO>
F 9

$$$$
