=
 OpenBabel10232408133D

 32 35  0  0  1  0  0  0  0  0999 V2000
  187.8320  176.9990  144.0870 N   0  0  0  0  0  0  0  0  0  0  0  0
  189.3330  177.9140  148.2580 C   0  0  0  0  0  3  0  0  0  0  0  0
  190.1880  176.3680  144.1190 C   0  0  0  0  0  0  0  0  0  0  0  0
  191.2650  176.3090  144.7690 O   0  0  0  0  0  0  0  0  0  0  0  0
  187.0730  178.2460  147.3720 C   0  0  0  0  0  3  0  0  0  0  0  0
  186.9270  177.5310  144.9430 C   0  0  0  0  0  0  0  0  0  0  0  0
  189.7720  177.4110  147.0190 C   0  0  0  0  0  3  0  0  0  0  0  0
  187.5430  177.7480  146.1590 C   0  0  0  0  0  0  0  0  0  0  0  0
  187.9940  178.3280  148.4340 C   0  0  0  0  0  3  0  0  0  0  0  0
  188.8380  177.3430  145.9850 C   0  0  0  0  0  0  0  0  0  0  0  0
  188.9950  176.8930  144.7230 N   0  0  0  0  0  0  0  0  0  0  0  0
  185.4850  177.7560  144.6160 C   0  0  1  0  0  3  0  0  0  0  0  0
  185.1020  179.1940  144.9060 C   0  0  0  0  0  2  0  0  0  0  0  0
  185.3670  178.7590  143.4820 C   0  0  2  0  0  3  0  0  0  0  0  0
  184.0460  178.5410  142.7690 C   0  0  0  0  0  2  0  0  0  0  0  0
  184.2570  178.4420  141.2670 C   0  0  0  0  0  2  0  0  0  0  0  0
  182.9300  178.4750  140.5160 C   0  0  2  0  0  3  0  0  0  0  0  0
  182.9850  179.4030  139.3030 C   0  0  0  0  0  2  0  0  0  0  0  0
  184.2820  180.0560  139.2030 N   0  0  0  0  0  1  0  0  0  0  0  0
  181.8670  178.8870  141.4190 N   0  0  0  0  0  2  0  0  0  0  0  0
  180.7860  179.4060  140.6000 C   0  0  0  0  0  1  0  0  0  0  0  0
  190.1590  175.8530  142.7170 C   0  0  0  0  0  2  0  0  0  0  0  0
  191.2450  177.6850  141.6510 O   0  0  0  0  0  0  0  0  0  0  0  0
  189.0490  177.2950  140.9720 N   0  0  0  0  0  2  0  0  0  0  0  0
  190.2020  176.9870  141.7520 C   0  0  0  0  0  0  0  0  0  0  0  0
  189.0530  178.3680  140.0700 N   0  0  0  0  0  2  0  0  0  0  0  0
  188.9200  178.1670  136.3530 C   0  0  0  0  0  3  0  0  0  0  0  0
  188.5340  178.2340  138.7460 C   0  0  0  0  0  0  0  0  0  0  0  0
  189.4100  178.2950  137.6570 C   0  0  0  0  0  3  0  0  0  0  0  0
  187.5520  177.9750  136.1350 C   0  0  0  0  0  3  0  0  0  0  0  0
  187.1630  178.0420  138.5240 C   0  0  0  0  0  3  0  0  0  0  0  0
  186.6730  177.9130  137.2210 C   0  0  0  0  0  3  0  0  0  0  0  0
  1 11  1  0  0  0  0
  1  6  2  0  0  0  0
  2  9  1  0  0  0  0
  3 11  1  0  0  0  0
  3  4  2  0  0  0  0
  5  9  2  0  0  0  0
  6  8  1  0  0  0  0
  7  2  2  0  0  0  0
  8  5  1  0  0  0  0
 10  8  2  0  0  0  0
 10  7  1  0  0  0  0
 11 10  1  0  0  0  0
 12 13  1  0  0  0  0
 12  6  1  1  0  0  0
 14 15  1  6  0  0  0
 14 12  1  0  0  0  0
 14 13  1  0  0  0  0
 16 15  1  0  0  0  0
 17 18  1  6  0  0  0
 17 16  1  0  0  0  0
 17 20  1  0  0  0  0
 19 18  1  0  0  0  0
 21 20  1  0  0  0  0
 22  3  1  0  0  0  0
 23 25  2  0  0  0  0
 24 25  1  0  0  0  0
 25 22  1  0  0  0  0
 26 24  1  0  0  0  0
 27 29  1  0  0  0  0
 28 26  1  0  0  0  0
 29 28  2  0  0  0  0
 30 27  2  0  0  0  0
 30 32  1  0  0  0  0
 31 28  1  0  0  0  0
 32 31  2  0  0  0  0
M  END
>  <MODEL>
1

>  <REMARK>
 VINA RESULT:      -8.8      0.000      0.000
  Name = 
  10 active torsions:
  status: ('A' for Active; 'I' for Inactive)
    1  A    between atoms: C_1  and  C_5
    2  A    between atoms: N_3  and  C_14
    3  A    between atoms: N_3  and  N_27
    4  A    between atoms: C_5  and  N_16
    5  A    between atoms: C_5  and  C_25
    6  A    between atoms: C_6  and  C_9
    7  A    between atoms: C_6  and  C_30
    8  A    between atoms: C_8  and  C_17
    9  A    between atoms: C_21  and  C_25
   10  A    between atoms: C_21  and  C_28
                            x       y       z     vdW  Elec       q    Type
                         _______ _______ _______ _____ _____    ______ ____

>  <TORSDO>
F 10

$$$$
=
 OpenBabel10232408133D

 32 35  0  0  1  0  0  0  0  0999 V2000
  186.6500  177.4340  144.3450 N   0  0  0  0  0  0  0  0  0  0  0  0
  188.8220  177.9830  148.2780 C   0  0  0  0  0  3  0  0  0  0  0  0
  185.0470  178.4540  145.8730 C   0  0  0  0  0  0  0  0  0  0  0  0
  184.8060  178.8790  147.0340 O   0  0  0  0  0  0  0  0  0  0  0  0
  189.7020  177.0260  146.2010 C   0  0  0  0  0  3  0  0  0  0  0  0
  187.9360  177.0070  144.3810 C   0  0  0  0  0  0  0  0  0  0  0  0
  187.5660  178.1950  147.6780 C   0  0  0  0  0  3  0  0  0  0  0  0
  188.4450  177.2460  145.6400 C   0  0  0  0  0  0  0  0  0  0  0  0
  189.8820  177.4040  147.5450 C   0  0  0  0  0  3  0  0  0  0  0  0
  187.4170  177.8090  146.3450 C   0  0  0  0  0  0  0  0  0  0  0  0
  186.3370  177.9140  145.5440 N   0  0  0  0  0  0  0  0  0  0  0  0
  188.6740  176.4500  143.2060 C   0  0  1  0  0  3  0  0  0  0  0  0
  188.2890  177.1980  141.9450 C   0  0  0  0  0  2  0  0  0  0  0  0
  189.5990  177.5090  142.6320 C   0  0  2  0  0  3  0  0  0  0  0  0
  190.7310  176.8240  141.8910 C   0  0  0  0  0  2  0  0  0  0  0  0
  190.9900  177.5070  140.5570 C   0  0  0  0  0  2  0  0  0  0  0  0
  190.9250  176.5140  139.4020 C   0  0  2  0  0  3  0  0  0  0  0  0
  192.1950  176.5430  138.5540 C   0  0  0  0  0  2  0  0  0  0  0  0
  193.3160  177.0830  139.3090 N   0  0  0  0  0  1  0  0  0  0  0  0
  189.7600  176.8000  138.5770 N   0  0  0  0  0  2  0  0  0  0  0  0
  189.5580  178.2380  138.6060 C   0  0  0  0  0  1  0  0  0  0  0  0
  183.9820  178.5500  144.8310 C   0  0  0  0  0  2  0  0  0  0  0  0
  185.0070  180.4210  143.7730 O   0  0  0  0  0  0  0  0  0  0  0  0
  184.3690  178.6920  142.3440 N   0  0  0  0  0  0  0  0  0  0  0  0
  184.4940  179.2790  143.6370 C   0  0  0  0  0  0  0  0  0  0  0  0
  184.8230  179.3630  141.2000 N   0  0  0  0  0  0  0  0  0  0  0  0
  185.7750  177.8860  137.9160 C   0  0  0  0  0  3  0  0  0  0  0  0
  184.7080  178.7840  139.9000 C   0  0  0  0  0  0  0  0  0  0  0  0
  185.8680  178.4520  139.1920 C   0  0  0  0  0  3  0  0  0  0  0  0
  184.5220  177.6480  137.3450 C   0  0  0  0  0  3  0  0  0  0  0  0
  183.4520  178.5450  139.3240 C   0  0  0  0  0  3  0  0  0  0  0  0
  183.3590  177.9780  138.0490 C   0  0  0  0  0  3  0  0  0  0  0  0
  1  6  2  0  0  0  0
  1 11  1  0  0  0  0
  3  4  2  0  0  0  0
  5  9  1  0  0  0  0
  6  8  1  0  0  0  0
  7  2  1  0  0  0  0
  8  5  2  0  0  0  0
  8 10  1  0  0  0  0
  9  2  2  0  0  0  0
 10  7  2  0  0  0  0
 11  3  1  0  0  0  0
 11 10  1  0  0  0  0
 12  6  1  1  0  0  0
 13 14  1  0  0  0  0
 13 12  1  0  0  0  0
 14 15  1  6  0  0  0
 14 12  1  0  0  0  0
 16 15  1  0  0  0  0
 17 18  1  6  0  0  0
 17 16  1  0  0  0  0
 18 19  1  0  0  0  0
 20 21  1  0  0  0  0
 20 17  1  0  0  0  0
 22  3  1  0  0  0  0
 24 25  1  0  0  0  0
 25 23  2  0  0  0  0
 25 22  1  0  0  0  0
 26 24  2  0  0  0  0
 27 29  1  0  0  0  0
 28 26  1  0  0  0  0
 29 28  2  0  0  0  0
 30 27  2  0  0  0  0
 30 32  1  0  0  0  0
 31 28  1  0  0  0  0
 32 31  2  0  0  0  0
M  END
>  <MODEL>
2

>  <REMARK>
 VINA RESULT:      -8.3      2.507      5.463
  Name = 
  10 active torsions:
  status: ('A' for Active; 'I' for Inactive)
    1  A    between atoms: C_1  and  C_5
    2  A    between atoms: N_3  and  C_14
    3  A    between atoms: N_3  and  N_27
    4  A    between atoms: C_5  and  N_16
    5  A    between atoms: C_5  and  C_25
    6  A    between atoms: C_6  and  C_9
    7  A    between atoms: C_6  and  C_30
    8  A    between atoms: C_8  and  C_17
    9  A    between atoms: C_21  and  C_25
   10  A    between atoms: C_21  and  C_28
                            x       y       z     vdW  Elec       q    Type
                         _______ _______ _______ _____ _____    ______ ____

>  <TORSDO>
F 10

$$$$
=
 OpenBabel10232408133D

 32 35  0  0  1  0  0  0  0  0999 V2000
  186.7920  178.4150  139.2870 N   0  0  0  0  0  0  0  0  0  0  0  0
  186.8950  175.6360  135.7160 C   0  0  0  0  0  3  0  0  0  0  0  0
  184.5500  178.4520  138.3290 C   0  0  0  0  0  0  0  0  0  0  0  0
  183.7750  178.0530  137.4190 O   0  0  0  0  0  0  0  0  0  0  0  0
  188.7300  176.1780  137.2470 C   0  0  0  0  0  3  0  0  0  0  0  0
  187.9830  177.8230  139.0270 C   0  0  0  0  0  0  0  0  0  0  0  0
  186.0230  176.4880  136.4190 C   0  0  0  0  0  3  0  0  0  0  0  0
  187.8410  177.0160  137.9170 C   0  0  0  0  0  0  0  0  0  0  0  0
  188.2380  175.4810  136.1270 C   0  0  0  0  0  3  0  0  0  0  0  0
  186.5390  177.1670  137.5240 C   0  0  0  0  0  0  0  0  0  0  0  0
  185.9190  178.0190  138.3650 N   0  0  0  0  0  0  0  0  0  0  0  0
  189.2060  177.9750  139.8740 C   0  0  1  0  0  3  0  0  0  0  0  0
  188.8370  178.5680  141.2200 C   0  0  0  0  0  2  0  0  0  0  0  0
  189.0970  177.0830  141.0980 C   0  0  2  0  0  3  0  0  0  0  0  0
  190.4920  176.7730  141.6060 C   0  0  0  0  0  2  0  0  0  0  0  0
  190.4400  176.2590  143.0360 C   0  0  0  0  0  2  0  0  0  0  0  0
  191.4660  176.9630  143.9170 C   0  0  2  0  0  3  0  0  0  0  0  0
  190.9750  177.1110  145.3560 C   0  0  0  0  0  2  0  0  0  0  0  0
  191.9390  176.5600  146.2960 N   0  0  0  0  0  1  0  0  0  0  0  0
  191.7820  178.2670  143.3540 N   0  0  0  0  0  2  0  0  0  0  0  0
  191.0220  179.2520  144.1030 C   0  0  0  0  0  1  0  0  0  0  0  0
  184.0170  179.3580  139.3900 C   0  0  0  0  0  2  0  0  0  0  0  0
  183.1610  177.5100  140.6250 O   0  0  0  0  0  0  0  0  0  0  0  0
  184.2770  179.1230  141.8860 N   0  0  0  0  0  2  0  0  0  0  0  0
  183.7960  178.5970  140.6510 C   0  0  0  0  0  0  0  0  0  0  0  0
  184.0670  178.4400  143.0930 N   0  0  0  0  0  2  0  0  0  0  0  0
  187.3420  177.5060  144.6000 C   0  0  0  0  0  3  0  0  0  0  0  0
  185.1100  178.2830  144.0540 C   0  0  0  0  0  0  0  0  0  0  0  0
  186.3080  177.6700  143.6710 C   0  0  0  0  0  3  0  0  0  0  0  0
  187.1800  177.9560  145.9140 C   0  0  0  0  0  3  0  0  0  0  0  0
  184.9510  178.7320  145.3730 C   0  0  0  0  0  3  0  0  0  0  0  0
  185.9840  178.5690  146.3010 C   0  0  0  0  0  3  0  0  0  0  0  0
  2  9  2  0  0  0  0
  2  7  1  0  0  0  0
  3 11  1  0  0  0  0
  3 22  1  0  0  0  0
  4  3  2  0  0  0  0
  5  8  2  0  0  0  0
  6  1  2  0  0  0  0
  7 10  2  0  0  0  0
  8  6  1  0  0  0  0
  9  5  1  0  0  0  0
 10  8  1  0  0  0  0
 10 11  1  0  0  0  0
 11  1  1  0  0  0  0
 12  6  1  6  0  0  0
 12 14  1  0  0  0  0
 12 13  1  0  0  0  0
 14 13  1  0  0  0  0
 14 15  1  1  0  0  0
 15 16  1  0  0  0  0
 17 16  1  6  0  0  0
 17 18  1  0  0  0  0
 18 19  1  0  0  0  0
 20 17  1  0  0  0  0
 20 21  1  0  0  0  0
 22 25  1  0  0  0  0
 23 25  2  0  0  0  0
 24 26  1  0  0  0  0
 25 24  1  0  0  0  0
 26 28  1  0  0  0  0
 27 30  1  0  0  0  0
 28 31  2  0  0  0  0
 29 28  1  0  0  0  0
 29 27  2  0  0  0  0
 30 32  2  0  0  0  0
 31 32  1  0  0  0  0
M  END
>  <MODEL>
3

>  <REMARK>
 VINA RESULT:      -8.3      2.897      8.552
  Name = 
  10 active torsions:
  status: ('A' for Active; 'I' for Inactive)
    1  A    between atoms: C_1  and  C_5
    2  A    between atoms: N_3  and  C_14
    3  A    between atoms: N_3  and  N_27
    4  A    between atoms: C_5  and  N_16
    5  A    between atoms: C_5  and  C_25
    6  A    between atoms: C_6  and  C_9
    7  A    between atoms: C_6  and  C_30
    8  A    between atoms: C_8  and  C_17
    9  A    between atoms: C_21  and  C_25
   10  A    between atoms: C_21  and  C_28
                            x       y       z     vdW  Elec       q    Type
                         _______ _______ _______ _____ _____    ______ ____

>  <TORSDO>
F 10

$$$$
=
 OpenBabel10232408133D

 32 35  0  0  1  0  0  0  0  0999 V2000
  188.8260  178.2830  145.3000 N   0  0  0  0  0  0  0  0  0  0  0  0
  191.8170  175.4910  147.2360 C   0  0  0  0  0  3  0  0  0  0  0  0
  188.2260  178.1700  147.6610 C   0  0  0  0  0  0  0  0  0  0  0  0
  188.4610  177.6770  148.7970 O   0  0  0  0  0  0  0  0  0  0  0  0
  191.6980  176.1620  144.8820 C   0  0  0  0  0  3  0  0  0  0  0  0
  189.7580  177.7440  144.4780 C   0  0  0  0  0  0  0  0  0  0  0  0
  190.6910  176.2780  147.5440 C   0  0  0  0  0  3  0  0  0  0  0  0
  190.5830  176.9260  145.2210 C   0  0  0  0  0  0  0  0  0  0  0  0
  192.3180  175.4350  145.9160 C   0  0  0  0  0  3  0  0  0  0  0  0
  190.0970  176.9860  146.4980 C   0  0  0  0  0  0  0  0  0  0  0  0
  189.0310  177.8130  146.5270 N   0  0  0  0  0  0  0  0  0  0  0  0
  189.8920  178.0710  143.0250 C   0  0  1  0  0  3  0  0  0  0  0  0
  189.7960  176.8070  142.1940 C   0  0  0  0  0  2  0  0  0  0  0  0
  188.6030  177.7290  142.3000 C   0  0  2  0  0  3  0  0  0  0  0  0
  188.5060  178.5730  141.0440 C   0  0  0  0  0  2  0  0  0  0  0  0
  188.3270  177.6910  139.8180 C   0  0  0  0  0  2  0  0  0  0  0  0
  189.4150  177.9520  138.7820 C   0  0  2  0  0  3  0  0  0  0  0  0
  188.9790  178.9880  137.7470 C   0  0  0  0  0  2  0  0  0  0  0  0
  187.5960  178.7760  137.3460 N   0  0  0  0  0  1  0  0  0  0  0  0
  189.7770  176.7040  138.1270 N   0  0  0  0  0  2  0  0  0  0  0  0
  191.1910  176.4850  138.3750 C   0  0  0  0  0  1  0  0  0  0  0  0
  187.1150  179.1580  147.5160 C   0  0  0  0  0  2  0  0  0  0  0  0
  185.8970  177.2760  146.7120 O   0  0  0  0  0  0  0  0  0  0  0  0
  184.9300  179.3530  146.2750 N   0  0  0  0  0  2  0  0  0  0  0  0
  185.9530  178.5290  146.8280 C   0  0  0  0  0  0  0  0  0  0  0  0
  183.8340  178.7910  145.6040 N   0  0  0  0  0  2  0  0  0  0  0  0
  182.5000  178.7880  142.1270 C   0  0  0  0  0  3  0  0  0  0  0  0
  183.7900  178.7160  144.1790 C   0  0  0  0  0  0  0  0  0  0  0  0
  182.5630  178.8600  143.5230 C   0  0  0  0  0  3  0  0  0  0  0  0
  183.6640  178.5720  141.3840 C   0  0  0  0  0  3  0  0  0  0  0  0
  184.9560  178.5000  143.4310 C   0  0  0  0  0  3  0  0  0  0  0  0
  184.8930  178.4280  142.0360 C   0  0  0  0  0  3  0  0  0  0  0  0
  1 11  1  0  0  0  0
  2  7  1  0  0  0  0
  3  4  2  0  0  0  0
  5  8  2  0  0  0  0
  5  9  1  0  0  0  0
  6  8  1  0  0  0  0
  6  1  2  0  0  0  0
  8 10  1  0  0  0  0
  9  2  2  0  0  0  0
 10 11  1  0  0  0  0
 10  7  2  0  0  0  0
 11  3  1  0  0  0  0
 12  6  1  1  0  0  0
 13 14  1  0  0  0  0
 13 12  1  0  0  0  0
 14 15  1  6  0  0  0
 14 12  1  0  0  0  0
 16 15  1  0  0  0  0
 17 18  1  6  0  0  0
 17 16  1  0  0  0  0
 19 18  1  0  0  0  0
 20 21  1  0  0  0  0
 20 17  1  0  0  0  0
 22  3  1  0  0  0  0
 23 25  2  0  0  0  0
 24 25  1  0  0  0  0
 25 22  1  0  0  0  0
 26 24  1  0  0  0  0
 27 29  1  0  0  0  0
 28 26  1  0  0  0  0
 29 28  2  0  0  0  0
 30 32  1  0  0  0  0
 30 27  2  0  0  0  0
 31 28  1  0  0  0  0
 32 31  2  0  0  0  0
M  END
>  <MODEL>
4

>  <REMARK>
 VINA RESULT:      -8.2      2.478      5.933
  Name = 
  10 active torsions:
  status: ('A' for Active; 'I' for Inactive)
    1  A    between atoms: C_1  and  C_5
    2  A    between atoms: N_3  and  C_14
    3  A    between atoms: N_3  and  N_27
    4  A    between atoms: C_5  and  N_16
    5  A    between atoms: C_5  and  C_25
    6  A    between atoms: C_6  and  C_9
    7  A    between atoms: C_6  and  C_30
    8  A    between atoms: C_8  and  C_17
    9  A    between atoms: C_21  and  C_25
   10  A    between atoms: C_21  and  C_28
                            x       y       z     vdW  Elec       q    Type
                         _______ _______ _______ _____ _____    ______ ____

>  <TORSDO>
F 10

$$$$
=
 OpenBabel10232408133D

 32 35  0  0  1  0  0  0  0  0999 V2000
  187.6140  177.8190  143.5440 N   0  0  0  0  0  0  0  0  0  0  0  0
  191.4510  176.8570  145.7460 C   0  0  0  0  0  3  0  0  0  0  0  0
  189.3860  177.8330  141.8680 C   0  0  0  0  0  0  0  0  0  0  0  0
  190.6140  177.7140  141.6170 O   0  0  0  0  0  0  0  0  0  0  0  0
  189.1920  177.0420  146.6800 C   0  0  0  0  0  3  0  0  0  0  0  0
  187.5020  177.6230  144.8800 C   0  0  0  0  0  0  0  0  0  0  0  0
  190.9700  177.1590  144.4580 C   0  0  0  0  0  3  0  0  0  0  0  0
  188.7520  177.3430  145.3920 C   0  0  0  0  0  0  0  0  0  0  0  0
  190.5680  176.7980  146.8480 C   0  0  0  0  0  3  0  0  0  0  0  0
  189.6020  177.3980  144.3210 C   0  0  0  0  0  0  0  0  0  0  0  0
  188.8950  177.6890  143.2100 N   0  0  0  0  0  0  0  0  0  0  0  0
  186.2080  177.6330  145.6300 C   0  0  1  0  0  3  0  0  0  0  0  0
  186.2290  178.7150  146.6920 C   0  0  0  0  0  2  0  0  0  0  0  0
  185.4890  178.9500  145.3940 C   0  0  2  0  0  3  0  0  0  0  0  0
  184.0030  178.7460  145.6180 C   0  0  0  0  0  2  0  0  0  0  0  0
  183.1950  179.5020  144.5760 C   0  0  0  0  0  2  0  0  0  0  0  0
  182.4180  178.5480  143.6750 C   0  0  2  0  0  3  0  0  0  0  0  0
  182.8270  178.6880  142.2100 C   0  0  0  0  0  2  0  0  0  0  0  0
  184.2350  178.3690  142.0270 N   0  0  0  0  0  1  0  0  0  0  0  0
  180.9900  178.7860  143.8260 N   0  0  0  0  0  2  0  0  0  0  0  0
  180.5600  179.5570  142.6730 C   0  0  0  0  0  1  0  0  0  0  0  0
  188.4390  178.0960  140.7430 C   0  0  0  0  0  2  0  0  0  0  0  0
  189.4690  178.7530  138.6990 O   0  0  0  0  0  0  0  0  0  0  0  0
  189.2680  176.4520  139.0210 N   0  0  0  0  0  2  0  0  0  0  0  0
  189.0960  177.8040  139.4390 C   0  0  0  0  0  0  0  0  0  0  0  0
  189.8650  176.1470  137.7900 N   0  0  0  0  0  2  0  0  0  0  0  0
  192.7180  173.8560  137.0900 C   0  0  0  0  0  3  0  0  0  0  0  0
  191.1980  175.6420  137.7100 C   0  0  0  0  0  0  0  0  0  0  0  0
  191.4180  174.3680  137.1750 C   0  0  0  0  0  3  0  0  0  0  0  0
  193.8010  174.6180  137.5400 C   0  0  0  0  0  3  0  0  0  0  0  0
  192.2860  176.4030  138.1610 C   0  0  0  0  0  3  0  0  0  0  0  0
  193.5850  175.8920  138.0760 C   0  0  0  0  0  3  0  0  0  0  0  0
  1  6  2  0  0  0  0
  2  9  1  0  0  0  0
  3 11  1  0  0  0  0
  4  3  2  0  0  0  0
  5  9  2  0  0  0  0
  6  8  1  0  0  0  0
  7  2  2  0  0  0  0
  8  5  1  0  0  0  0
 10  7  1  0  0  0  0
 10  8  2  0  0  0  0
 11  1  1  0  0  0  0
 11 10  1  0  0  0  0
 12  6  1  6  0  0  0
 12 13  1  0  0  0  0
 14 15  1  1  0  0  0
 14 12  1  0  0  0  0
 14 13  1  0  0  0  0
 16 15  1  0  0  0  0
 17 18  1  6  0  0  0
 17 20  1  0  0  0  0
 17 16  1  0  0  0  0
 19 18  1  0  0  0  0
 21 20  1  0  0  0  0
 22  3  1  0  0  0  0
 23 25  2  0  0  0  0
 24 25  1  0  0  0  0
 25 22  1  0  0  0  0
 26 24  1  0  0  0  0
 27 29  2  0  0  0  0
 27 30  1  0  0  0  0
 28 26  1  0  0  0  0
 28 31  2  0  0  0  0
 29 28  1  0  0  0  0
 30 32  2  0  0  0  0
 32 31  1  0  0  0  0
M  END
>  <MODEL>
5

>  <REMARK>
 VINA RESULT:      -8.1      2.552      3.490
  Name = 
  10 active torsions:
  status: ('A' for Active; 'I' for Inactive)
    1  A    between atoms: C_1  and  C_5
    2  A    between atoms: N_3  and  C_14
    3  A    between atoms: N_3  and  N_27
    4  A    between atoms: C_5  and  N_16
    5  A    between atoms: C_5  and  C_25
    6  A    between atoms: C_6  and  C_9
    7  A    between atoms: C_6  and  C_30
    8  A    between atoms: C_8  and  C_17
    9  A    between atoms: C_21  and  C_25
   10  A    between atoms: C_21  and  C_28
                            x       y       z     vdW  Elec       q    Type
                         _______ _______ _______ _____ _____    ______ ____

>  <TORSDO>
F 10

$$$$
=
 OpenBabel10232408133D

 32 35  0  0  1  0  0  0  0  0999 V2000
  187.6960  178.3960  139.7910 N   0  0  0  0  0  0  0  0  0  0  0  0
  189.2330  175.4180  136.7480 C   0  0  0  0  0  3  0  0  0  0  0  0
  186.0070  178.2790  138.0360 C   0  0  0  0  0  0  0  0  0  0  0  0
  185.6550  177.7940  136.9280 O   0  0  0  0  0  0  0  0  0  0  0  0
  190.3140  176.1280  138.8290 C   0  0  0  0  0  3  0  0  0  0  0  0
  188.9030  177.8410  140.0560 C   0  0  0  0  0  0  0  0  0  0  0  0
  188.1410  176.2720  136.9950 C   0  0  0  0  0  3  0  0  0  0  0  0
  189.2200  176.9650  139.0390 C   0  0  0  0  0  0  0  0  0  0  0  0
  190.3110  175.3460  137.6590 C   0  0  0  0  0  3  0  0  0  0  0  0
  188.1730  177.0360  138.1620 C   0  0  0  0  0  0  0  0  0  0  0  0
  187.2590  177.9090  138.6330 N   0  0  0  0  0  0  0  0  0  0  0  0
  189.6950  178.0970  141.2990 C   0  0  1  0  0  3  0  0  0  0  0  0
  188.7840  178.5880  142.4070 C   0  0  0  0  0  2  0  0  0  0  0  0
  189.2470  177.1480  142.3970 C   0  0  2  0  0  3  0  0  0  0  0  0
  190.3790  176.9780  143.3920 C   0  0  0  0  0  2  0  0  0  0  0  0
  190.3120  178.0480  144.4700 C   0  0  0  0  0  2  0  0  0  0  0  0
  190.5340  177.4540  145.8570 C   0  0  2  0  0  3  0  0  0  0  0  0
  191.6030  176.3620  145.8440 C   0  0  0  0  0  2  0  0  0  0  0  0
  192.2580  176.2570  147.1390 N   0  0  0  0  0  1  0  0  0  0  0  0
  189.2790  176.9260  146.3690 N   0  0  0  0  0  2  0  0  0  0  0  0
  188.9670  177.6640  147.5810 C   0  0  0  0  0  1  0  0  0  0  0  0
  185.0860  179.2220  138.7390 C   0  0  0  0  0  2  0  0  0  0  0  0
  183.7400  177.4780  139.6460 O   0  0  0  0  0  0  0  0  0  0  0  0
  184.4710  179.0760  141.1800 N   0  0  0  0  0  2  0  0  0  0  0  0
  184.4010  178.5280  139.8660 C   0  0  0  0  0  0  0  0  0  0  0  0
  183.8200  178.4570  142.2560 N   0  0  0  0  0  2  0  0  0  0  0  0
  184.1680  178.8040  145.9480 C   0  0  0  0  0  3  0  0  0  0  0  0
  184.3950  178.4320  143.5630 C   0  0  0  0  0  0  0  0  0  0  0  0
  183.6210  178.8210  144.6610 C   0  0  0  0  0  3  0  0  0  0  0  0
  185.4910  178.3970  146.1410 C   0  0  0  0  0  3  0  0  0  0  0  0
  185.7230  178.0250  143.7590 C   0  0  0  0  0  3  0  0  0  0  0  0
  186.2700  178.0080  145.0460 C   0  0  0  0  0  3  0  0  0  0  0  0
  1  6  2  0  0  0  0
  2  7  2  0  0  0  0
  2  9  1  0  0  0  0
  3 11  1  0  0  0  0
  3 22  1  0  0  0  0
  4  3  2  0  0  0  0
  5  8  1  0  0  0  0
  7 10  1  0  0  0  0
  8  6  1  0  0  0  0
  9  5  2  0  0  0  0
 10 11  1  0  0  0  0
 10  8  2  0  0  0  0
 11  1  1  0  0  0  0
 12  6  1  6  0  0  0
 12 14  1  0  0  0  0
 12 13  1  0  0  0  0
 14 13  1  0  0  0  0
 14 15  1  1  0  0  0
 15 16  1  0  0  0  0
 17 16  1  6  0  0  0
 17 20  1  0  0  0  0
 18 17  1  0  0  0  0
 18 19  1  0  0  0  0
 20 21  1  0  0  0  0
 22 25  1  0  0  0  0
 23 25  2  0  0  0  0
 24 26  1  0  0  0  0
 25 24  1  0  0  0  0
 26 28  1  0  0  0  0
 27 30  1  0  0  0  0
 28 31  2  0  0  0  0
 28 29  1  0  0  0  0
 29 27  2  0  0  0  0
 31 32  1  0  0  0  0
 32 30  2  0  0  0  0
M  END
>  <MODEL>
6

>  <REMARK>
 VINA RESULT:      -7.9      2.653      8.249
  Name = 
  10 active torsions:
  status: ('A' for Active; 'I' for Inactive)
    1  A    between atoms: C_1  and  C_5
    2  A    between atoms: N_3  and  C_14
    3  A    between atoms: N_3  and  N_27
    4  A    between atoms: C_5  and  N_16
    5  A    between atoms: C_5  and  C_25
    6  A    between atoms: C_6  and  C_9
    7  A    between atoms: C_6  and  C_30
    8  A    between atoms: C_8  and  C_17
    9  A    between atoms: C_21  and  C_25
   10  A    between atoms: C_21  and  C_28
                            x       y       z     vdW  Elec       q    Type
                         _______ _______ _______ _____ _____    ______ ____

>  <TORSDO>
F 10

$$$$
=
 OpenBabel10232408133D

 32 35  0  0  1  0  0  0  0  0999 V2000
  186.5750  178.7270  143.4700 N   0  0  0  0  0  0  0  0  0  0  0  0
  182.2810  178.7880  142.0380 C   0  0  0  0  0  3  0  0  0  0  0  0
  186.6660  178.6360  141.0350 C   0  0  0  0  0  0  0  0  0  0  0  0
  186.0320  178.5870  139.9470 O   0  0  0  0  0  0  0  0  0  0  0  0
  183.0910  178.8530  144.3500 C   0  0  0  0  0  3  0  0  0  0  0  0
  185.6250  178.7740  144.4350 C   0  0  0  0  0  0  0  0  0  0  0  0
  183.6000  178.7270  141.5510 C   0  0  0  0  0  3  0  0  0  0  0  0
  184.3840  178.7860  143.8330 C   0  0  0  0  0  0  0  0  0  0  0  0
  182.0290  178.8520  143.4270 C   0  0  0  0  0  3  0  0  0  0  0  0
  184.6330  178.7280  142.4890 C   0  0  0  0  0  0  0  0  0  0  0  0
  185.9660  178.6910  142.2880 N   0  0  0  0  0  0  0  0  0  0  0  0
  185.9120  178.8780  145.8990 C   0  0  1  0  0  3  0  0  0  0  0  0
  185.2040  177.7680  146.6510 C   0  0  0  0  0  2  0  0  0  0  0  0
  186.6840  177.6540  146.3590 C   0  0  2  0  0  3  0  0  0  0  0  0
  187.4710  178.0090  147.6060 C   0  0  0  0  0  2  0  0  0  0  0  0
  188.9140  178.3340  147.2550 C   0  0  0  0  0  2  0  0  0  0  0  0
  189.5660  177.1970  146.4760 C   0  0  2  0  0  3  0  0  0  0  0  0
  190.6360  176.4830  147.3000 C   0  0  0  0  0  2  0  0  0  0  0  0
  191.9700  176.7910  146.8050 N   0  0  0  0  0  1  0  0  0  0  0  0
  190.1400  177.7150  145.2430 N   0  0  0  0  0  2  0  0  0  0  0  0
  189.5450  176.9690  144.1480 C   0  0  0  0  0  1  0  0  0  0  0  0
  188.1590  178.6670  141.0020 C   0  0  0  0  0  2  0  0  0  0  0  0
  188.9040  179.1660  138.7960 O   0  0  0  0  0  0  0  0  0  0  0  0
  188.8040  176.8980  139.3270 N   0  0  0  0  0  2  0  0  0  0  0  0
  188.6520  178.2770  139.6520 C   0  0  0  0  0  0  0  0  0  0  0  0
  189.2460  176.5000  138.0570 N   0  0  0  0  0  2  0  0  0  0  0  0
  192.9490  176.0980  138.1250 C   0  0  0  0  0  3  0  0  0  0  0  0
  190.5430  175.9360  137.8610 C   0  0  0  0  0  0  0  0  0  0  0  0
  191.6700  176.6340  138.3100 C   0  0  0  0  0  3  0  0  0  0  0  0
  193.1040  174.8610  137.4920 C   0  0  0  0  0  3  0  0  0  0  0  0
  190.7030  174.6950  137.2260 C   0  0  0  0  0  3  0  0  0  0  0  0
  191.9810  174.1590  137.0420 C   0  0  0  0  0  3  0  0  0  0  0  0
  1  6  2  0  0  0  0
  2  9  1  0  0  0  0
  3 11  1  0  0  0  0
  4  3  2  0  0  0  0
  7  2  2  0  0  0  0
  7 10  1  0  0  0  0
  8  5  1  0  0  0  0
  8  6  1  0  0  0  0
  9  5  2  0  0  0  0
 10  8  2  0  0  0  0
 11 10  1  0  0  0  0
 11  1  1  0  0  0  0
 12  6  1  6  0  0  0
 12 14  1  0  0  0  0
 12 13  1  0  0  0  0
 14 13  1  0  0  0  0
 14 15  1  1  0  0  0
 16 15  1  0  0  0  0
 17 16  1  1  0  0  0
 17 18  1  0  0  0  0
 19 18  1  0  0  0  0
 20 17  1  0  0  0  0
 21 20  1  0  0  0  0
 22  3  1  0  0  0  0
 23 25  2  0  0  0  0
 24 25  1  0  0  0  0
 25 22  1  0  0  0  0
 26 24  1  0  0  0  0
 27 29  1  0  0  0  0
 28 26  1  0  0  0  0
 28 29  2  0  0  0  0
 30 27  2  0  0  0  0
 31 28  1  0  0  0  0
 32 31  2  0  0  0  0
 32 30  1  0  0  0  0
M  END
>  <MODEL>
7

>  <REMARK>
 VINA RESULT:      -7.9      2.630      6.217
  Name = 
  10 active torsions:
  status: ('A' for Active; 'I' for Inactive)
    1  A    between atoms: C_1  and  C_5
    2  A    between atoms: N_3  and  C_14
    3  A    between atoms: N_3  and  N_27
    4  A    between atoms: C_5  and  N_16
    5  A    between atoms: C_5  and  C_25
    6  A    between atoms: C_6  and  C_9
    7  A    between atoms: C_6  and  C_30
    8  A    between atoms: C_8  and  C_17
    9  A    between atoms: C_21  and  C_25
   10  A    between atoms: C_21  and  C_28
                            x       y       z     vdW  Elec       q    Type
                         _______ _______ _______ _____ _____    ______ ____

>  <TORSDO>
F 10

$$$$
=
 OpenBabel10232408133D

 32 35  0  0  1  0  0  0  0  0999 V2000
  185.7130  177.5370  142.0460 N   0  0  0  0  0  0  0  0  0  0  0  0
  184.1530  179.1630  145.9720 C   0  0  0  0  0  3  0  0  0  0  0  0
  183.4380  178.3000  141.6130 C   0  0  0  0  0  0  0  0  0  0  0  0
  182.3780  178.8010  142.0730 O   0  0  0  0  0  0  0  0  0  0  0  0
  186.3590  178.1980  145.5210 C   0  0  0  0  0  3  0  0  0  0  0  0
  186.5630  177.4700  143.1000 C   0  0  0  0  0  0  0  0  0  0  0  0
  183.7610  178.9560  144.6360 C   0  0  0  0  0  3  0  0  0  0  0  0
  185.9370  178.0030  144.2070 C   0  0  0  0  0  0  0  0  0  0  0  0
  185.4420  178.7880  146.4110 C   0  0  0  0  0  3  0  0  0  0  0  0
  184.6900  178.3670  143.7770 C   0  0  0  0  0  0  0  0  0  0  0  0
  184.5720  178.0770  142.4650 N   0  0  0  0  0  0  0  0  0  0  0  0
  187.9710  176.9720  143.0190 C   0  0  1  0  0  3  0  0  0  0  0  0
  188.8240  177.9430  142.2270 C   0  0  0  0  0  2  0  0  0  0  0  0
  188.8990  177.9360  143.7370 C   0  0  2  0  0  3  0  0  0  0  0  0
  190.1420  177.1870  144.1750 C   0  0  0  0  0  2  0  0  0  0  0  0
  190.6930  177.7710  145.4670 C   0  0  0  0  0  2  0  0  0  0  0  0
  190.4830  176.8200  146.6410 C   0  0  2  0  0  3  0  0  0  0  0  0
  189.1650  177.0910  147.3640 C   0  0  0  0  0  2  0  0  0  0  0  0
  189.3510  178.0390  148.4520 N   0  0  0  0  0  1  0  0  0  0  0  0
  191.6000  176.9320  147.5660 N   0  0  0  0  0  2  0  0  0  0  0  0
  192.3600  175.6970  147.4720 C   0  0  0  0  0  1  0  0  0  0  0  0
  183.5120  177.9710  140.1580 C   0  0  0  0  0  2  0  0  0  0  0  0
  184.8570  179.9130  139.8570 O   0  0  0  0  0  0  0  0  0  0  0  0
  185.4030  178.1000  138.4960 N   0  0  0  0  0  2  0  0  0  0  0  0
  184.6260  178.7230  139.5160 C   0  0  0  0  0  0  0  0  0  0  0  0
  186.4450  178.7890  137.8600 N   0  0  0  0  0  2  0  0  0  0  0  0
  189.8280  177.4230  138.6090 C   0  0  0  0  0  3  0  0  0  0  0  0
  187.7290  178.1930  137.6710 C   0  0  0  0  0  0  0  0  0  0  0  0
  188.5670  178.0040  138.7750 C   0  0  0  0  0  3  0  0  0  0  0  0
  190.2550  177.0290  137.3370 C   0  0  0  0  0  3  0  0  0  0  0  0
  188.1600  177.7970  136.3960 C   0  0  0  0  0  3  0  0  0  0  0  0
  189.4210  177.2160  136.2300 C   0  0  0  0  0  3  0  0  0  0  0  0
  1 11  1  0  0  0  0
  1  6  2  0  0  0  0
  2  9  1  0  0  0  0
  3  4  2  0  0  0  0
  3 11  1  0  0  0  0
  5  9  2  0  0  0  0
  6  8  1  0  0  0  0
  7  2  2  0  0  0  0
  8  5  1  0  0  0  0
 10  8  2  0  0  0  0
 10  7  1  0  0  0  0
 11 10  1  0  0  0  0
 12  6  1  1  0  0  0
 12 14  1  0  0  0  0
 13 12  1  0  0  0  0
 13 14  1  0  0  0  0
 14 15  1  6  0  0  0
 15 16  1  0  0  0  0
 17 16  1  6  0  0  0
 17 18  1  0  0  0  0
 17 20  1  0  0  0  0
 18 19  1  0  0  0  0
 21 20  1  0  0  0  0
 22  3  1  0  0  0  0
 24 25  1  0  0  0  0
 25 23  2  0  0  0  0
 25 22  1  0  0  0  0
 26 24  1  0  0  0  0
 27 29  1  0  0  0  0
 28 26  1  0  0  0  0
 28 29  2  0  0  0  0
 30 27  2  0  0  0  0
 31 28  1  0  0  0  0
 32 31  2  0  0  0  0
 32 30  1  0  0  0  0
M  END
>  <MODEL>
8

>  <REMARK>
 VINA RESULT:      -7.7      2.753      6.414
  Name = 
  10 active torsions:
  status: ('A' for Active; 'I' for Inactive)
    1  A    between atoms: C_1  and  C_5
    2  A    between atoms: N_3  and  C_14
    3  A    between atoms: N_3  and  N_27
    4  A    between atoms: C_5  and  N_16
    5  A    between atoms: C_5  and  C_25
    6  A    between atoms: C_6  and  C_9
    7  A    between atoms: C_6  and  C_30
    8  A    between atoms: C_8  and  C_17
    9  A    between atoms: C_21  and  C_25
   10  A    between atoms: C_21  and  C_28
                            x       y       z     vdW  Elec       q    Type
                         _______ _______ _______ _____ _____    ______ ____

>  <TORSDO>
F 10

$$$$
=
 OpenBabel10232408133D

 32 35  0  0  1  0  0  0  0  0999 V2000
  191.1270  176.1690  139.4320 N   0  0  0  0  0  0  0  0  0  0  0  0
  188.0900  178.4640  136.9820 C   0  0  0  0  0  3  0  0  0  0  0  0
  189.7790  177.4310  141.0240 C   0  0  0  0  0  0  0  0  0  0  0  0
  188.8450  178.2550  141.2090 O   0  0  0  0  0  0  0  0  0  0  0  0
  189.8320  176.9440  136.1690 C   0  0  0  0  0  3  0  0  0  0  0  0
  191.1980  176.0050  138.0880 C   0  0  0  0  0  0  0  0  0  0  0  0
  188.4970  178.2580  138.3140 C   0  0  0  0  0  3  0  0  0  0  0  0
  190.2110  176.7670  137.4980 C   0  0  0  0  0  0  0  0  0  0  0  0
  188.7510  177.8110  135.9180 C   0  0  0  0  0  3  0  0  0  0  0  0
  189.5720  177.3950  138.5320 C   0  0  0  0  0  0  0  0  0  0  0  0
  190.1410  177.0210  139.6960 N   0  0  0  0  0  0  0  0  0  0  0  0
  192.1480  175.0790  137.3990 C   0  0  1  0  0  3  0  0  0  0  0  0
  192.8230  175.7890  136.2410 C   0  0  0  0  0  2  0  0  0  0  0  0
  193.5680  175.5980  137.5440 C   0  0  2  0  0  3  0  0  0  0  0  0
  194.5330  174.4370  137.4050 C   0  0  0  0  0  2  0  0  0  0  0  0
  195.3960  174.6020  136.1640 C   0  0  0  0  0  2  0  0  0  0  0  0
  196.8770  174.6700  136.5230 C   0  0  2  0  0  3  0  0  0  0  0  0
  197.1150  174.4150  138.0100 C   0  0  0  0  0  2  0  0  0  0  0  0
  198.0780  175.3600  138.5550 N   0  0  0  0  0  1  0  0  0  0  0  0
  197.4130  175.9670  136.1400 N   0  0  0  0  0  2  0  0  0  0  0  0
  196.6790  176.4040  134.9650 C   0  0  0  0  0  1  0  0  0  0  0  0
  190.4860  176.8590  142.2090 C   0  0  0  0  0  2  0  0  0  0  0  0
  190.4290  178.5150  143.9190 O   0  0  0  0  0  0  0  0  0  0  0  0
  188.8970  176.7750  144.1640 N   0  0  0  0  0  2  0  0  0  0  0  0
  189.9430  177.4460  143.4650 C   0  0  0  0  0  0  0  0  0  0  0  0
  188.3790  177.2920  145.3590 N   0  0  0  0  0  2  0  0  0  0  0  0
  184.9840  178.4250  144.3270 C   0  0  0  0  0  3  0  0  0  0  0  0
  187.0460  177.7980  145.4390 C   0  0  0  0  0  0  0  0  0  0  0  0
  186.2910  177.9300  144.2690 C   0  0  0  0  0  3  0  0  0  0  0  0
  184.4280  178.7890  145.5570 C   0  0  0  0  0  3  0  0  0  0  0  0
  186.4860  178.1640  146.6710 C   0  0  0  0  0  3  0  0  0  0  0  0
  185.1790  178.6590  146.7300 C   0  0  0  0  0  3  0  0  0  0  0  0
  1 11  1  0  0  0  0
  2  7  1  0  0  0  0
  3  4  2  0  0  0  0
  3 22  1  0  0  0  0
  5  8  2  0  0  0  0
  6  1  2  0  0  0  0
  7 10  2  0  0  0  0
  8  6  1  0  0  0  0
  8 10  1  0  0  0  0
  9  5  1  0  0  0  0
  9  2  2  0  0  0  0
 10 11  1  0  0  0  0
 11  3  1  0  0  0  0
 12 14  1  0  0  0  0
 12  6  1  1  0  0  0
 13 12  1  0  0  0  0
 13 14  1  0  0  0  0
 14 15  1  6  0  0  0
 16 15  1  0  0  0  0
 17 16  1  1  0  0  0
 17 18  1  0  0  0  0
 18 19  1  0  0  0  0
 20 17  1  0  0  0  0
 21 20  1  0  0  0  0
 22 25  1  0  0  0  0
 24 26  1  0  0  0  0
 25 23  2  0  0  0  0
 25 24  1  0  0  0  0
 26 28  1  0  0  0  0
 27 30  1  0  0  0  0
 28 31  2  0  0  0  0
 29 27  2  0  0  0  0
 29 28  1  0  0  0  0
 30 32  2  0  0  0  0
 31 32  1  0  0  0  0
M  END
>  <MODEL>
9

>  <REMARK>
 VINA RESULT:      -7.7      4.301     10.012
  Name = 
  10 active torsions:
  status: ('A' for Active; 'I' for Inactive)
    1  A    between atoms: C_1  and  C_5
    2  A    between atoms: N_3  and  C_14
    3  A    between atoms: N_3  and  N_27
    4  A    between atoms: C_5  and  N_16
    5  A    between atoms: C_5  and  C_25
    6  A    between atoms: C_6  and  C_9
    7  A    between atoms: C_6  and  C_30
    8  A    between atoms: C_8  and  C_17
    9  A    between atoms: C_21  and  C_25
   10  A    between atoms: C_21  and  C_28
                            x       y       z     vdW  Elec       q    Type
                         _______ _______ _______ _____ _____    ______ ____

>  <TORSDO>
F 10

$$$$
