=
 OpenBabel10232409363D

 33 36  0  0  1  0  0  0  0  0999 V2000
  190.5100  175.9420  139.9480 C   0  0  0  0  0  3  0  0  0  0  0  0
  189.7910  177.4850  138.2140 C   0  0  0  0  0  0  0  0  0  0  0  0
  188.0930  176.0940  136.2140 C   0  0  2  0  0  3  0  0  0  0  0  0
  189.3610  176.8580  135.7950 C   0  0  1  0  0  3  0  0  0  0  0  0
  189.8650  176.1670  142.3170 C   0  0  0  0  0  1  0  0  0  0  0  0
  193.2260  177.0670  137.9910 C   0  0  0  0  0  1  0  0  0  0  0  0
  189.8090  176.6660  140.9120 C   0  0  0  0  0  0  0  0  0  0  0  0
  189.0940  178.2100  139.1890 C   0  0  0  0  0  3  0  0  0  0  0  0
  192.5580  175.8820  137.3650 C   0  0  0  0  0  0  0  0  0  0  0  0
  194.6550  174.0450  135.0770 C   0  0  0  0  0  0  0  0  0  0  0  0
  192.6080  173.9600  135.8810 C   0  0  0  0  0  0  0  0  0  0  0  0
  189.4000  177.3220  134.3460 C   0  0  0  0  0  1  0  0  0  0  0  0
  189.2040  174.1140  137.3190 C   0  0  0  0  0  2  0  0  0  0  0  0
  190.6480  174.4390  137.0650 C   0  0  0  0  0  0  0  0  0  0  0  0
  194.5250  175.1160  135.9510 C   0  0  0  0  0  0  0  0  0  0  0  0
  193.2530  175.0870  136.4670 C   0  0  0  0  0  0  0  0  0  0  0  0
  193.4650  173.3070  135.0170 C   0  0  0  0  0  3  0  0  0  0  0  0
  188.9070  179.0540  136.6270 F   0  0  0  0  0  0  0  0  0  0  0  0
  189.7520  177.9640  136.7770 C   0  0  1  0  0  3  0  0  0  0  0  0
  191.2510  175.5440  137.6540 N   0  0  0  0  0  0  0  0  0  0  0  0
  195.5120  176.0490  136.2450 O   0  0  0  0  0  1  0  0  0  0  0  0
  191.3290  173.6550  136.1760 N   0  0  0  0  0  0  0  0  0  0  0  0
  188.3160  174.5820  136.1680 C   0  0  0  0  0  2  0  0  0  0  0  0
  189.0880  177.8230  140.5350 C   0  0  0  0  0  0  0  0  0  0  0  0
  190.5130  176.3360  138.6060 C   0  0  0  0  0  0  0  0  0  0  0  0
  186.8080  176.5490  135.5170 C   0  0  2  0  0  3  0  0  0  0  0  0
  185.9600  177.3780  136.4620 C   0  0  0  0  0  1  0  0  0  0  0  0
  186.0690  175.4550  135.0610 O   0  0  0  0  0  1  0  0  0  0  0  0
  186.9570  178.8700  141.2790 O   0  0  0  0  0  0  0  0  0  0  0  0
  188.3160  178.6570  141.4890 C   0  0  0  0  0  0  0  0  0  0  0  0
  188.8630  179.1850  142.4920 O   0  0  0  0  0  1  0  0  0  0  0  0
  195.8210  173.7610  134.3660 O   0  0  0  0  0  0  0  0  0  0  0  0
  196.8950  173.0330  134.9410 C   0  0  0  0  0  1  0  0  0  0  0  0
  1  7  1  0  0  0  0
  2 25  1  0  0  0  0
  2  8  2  0  0  0  0
  3 26  1  6  0  0  0
  4 12  1  6  0  0  0
  4  3  1  0  0  0  0
  4 19  1  0  0  0  0
  7  5  1  0  0  0  0
  8 24  1  0  0  0  0
  9 20  1  0  0  0  0
  9  6  1  0  0  0  0
 10 15  2  0  0  0  0
 11 22  1  0  0  0  0
 11 16  1  0  0  0  0
 14 13  1  0  0  0  0
 14 20  1  0  0  0  0
 15 21  1  0  0  0  0
 15 16  1  0  0  0  0
 16  9  2  0  0  0  0
 17 10  1  0  0  0  0
 17 11  2  0  0  0  0
 19 18  1  1  0  0  0
 19  2  1  0  0  0  0
 20 25  1  0  0  0  0
 22 14  2  0  0  0  0
 23  3  1  0  0  0  0
 23 13  1  0  0  0  0
 24  7  2  0  0  0  0
 24 30  1  0  0  0  0
 25  1  2  0  0  0  0
 26 27  1  1  0  0  0
 28 26  1  0  0  0  0
 29 30  2  0  0  0  0
 30 31  1  0  0  0  0
 32 33  1  0  0  0  0
 32 10  1  0  0  0  0
M  END
>  <MODEL>
1

>  <REMARK>
 VINA RESULT:      -5.0      0.000      0.000
  Name = 
  3 active torsions:
  status: ('A' for Active; 'I' for Inactive)
    1  A    between atoms: C_3  and  C_6
    2  A    between atoms: O_5  and  C_16
    3  A    between atoms: C_14  and  C_31
                            x       y       z     vdW  Elec       q    Type
                         _______ _______ _______ _____ _____    ______ ____

>  <TORSDO>
F 3

$$$$
=
 OpenBabel10232409363D

 33 36  0  0  1  0  0  0  0  0999 V2000
  191.8240  177.5130  139.8180 C   0  0  0  0  0  3  0  0  0  0  0  0
  190.5100  175.8620  138.6120 C   0  0  0  0  0  0  0  0  0  0  0  0
  188.6920  177.1860  136.6730 C   0  0  2  0  0  3  0  0  0  0  0  0
  188.1540  176.2270  137.7470 C   0  0  1  0  0  3  0  0  0  0  0  0
  194.2790  177.6690  139.6630 C   0  0  0  0  0  1  0  0  0  0  0  0
  189.5680  175.8270  141.9490 C   0  0  0  0  0  1  0  0  0  0  0  0
  193.0020  177.0070  139.2690 C   0  0  0  0  0  0  0  0  0  0  0  0
  191.6980  175.3570  138.0680 C   0  0  0  0  0  3  0  0  0  0  0  0
  188.9140  176.9960  141.2790 C   0  0  0  0  0  0  0  0  0  0  0  0
  186.0170  178.2600  143.0160 C   0  0  0  0  0  0  0  0  0  0  0  0
  187.1790  178.6940  141.1990 C   0  0  0  0  0  0  0  0  0  0  0  0
  186.8100  175.5810  137.4400 C   0  0  0  0  0  1  0  0  0  0  0  0
  189.2560  179.1400  138.1700 C   0  0  0  0  0  2  0  0  0  0  0  0
  188.7780  178.6110  139.4930 C   0  0  0  0  0  0  0  0  0  0  0  0
  187.0480  177.3320  142.9710 C   0  0  0  0  0  0  0  0  0  0  0  0
  187.7900  177.5810  141.8430 C   0  0  0  0  0  0  0  0  0  0  0  0
  186.0790  179.1240  141.9140 C   0  0  0  0  0  3  0  0  0  0  0  0
  189.3740  174.2250  137.2730 F   0  0  0  0  0  0  0  0  0  0  0  0
  189.1950  175.2140  138.2300 C   0  0  1  0  0  3  0  0  0  0  0  0
  189.3970  177.5240  140.0980 N   0  0  0  0  0  0  0  0  0  0  0  0
  187.2810  176.3300  143.9060 O   0  0  0  0  0  1  0  0  0  0  0  0
  187.6680  179.1880  140.0430 N   0  0  0  0  0  0  0  0  0  0  0  0
  188.3800  178.6420  137.0210 C   0  0  0  0  0  2  0  0  0  0  0  0
  192.9480  175.9080  138.3790 C   0  0  0  0  0  0  0  0  0  0  0  0
  190.5800  176.9550  139.5050 C   0  0  0  0  0  0  0  0  0  0  0  0
  188.3320  176.8070  135.2330 C   0  0  2  0  0  3  0  0  0  0  0  0
  189.5870  176.5130  134.4350 C   0  0  0  0  0  1  0  0  0  0  0  0
  187.6080  177.8260  134.6100 O   0  0  0  0  0  1  0  0  0  0  0  0
  194.7390  175.9210  136.6530 O   0  0  0  0  0  0  0  0  0  0  0  0
  194.1450  175.3020  137.7490 C   0  0  0  0  0  0  0  0  0  0  0  0
  194.6440  174.2290  138.1810 O   0  0  0  0  0  1  0  0  0  0  0  0
  185.0590  178.3070  144.0290 O   0  0  0  0  0  0  0  0  0  0  0  0
  185.3110  178.9420  145.2730 C   0  0  0  0  0  1  0  0  0  0  0  0
  2 25  2  0  0  0  0
  3 26  1  6  0  0  0
  3 23  1  0  0  0  0
  3  4  1  0  0  0  0
  4 12  1  6  0  0  0
  4 19  1  0  0  0  0
  7  5  1  0  0  0  0
  7  1  2  0  0  0  0
  8 24  2  0  0  0  0
  8  2  1  0  0  0  0
  9 16  2  0  0  0  0
  9  6  1  0  0  0  0
 10 32  1  0  0  0  0
 11 16  1  0  0  0  0
 11 17  2  0  0  0  0
 13 14  1  0  0  0  0
 14 22  2  0  0  0  0
 14 20  1  0  0  0  0
 15 10  2  0  0  0  0
 15 21  1  0  0  0  0
 16 15  1  0  0  0  0
 17 10  1  0  0  0  0
 19 18  1  6  0  0  0
 19  2  1  0  0  0  0
 20  9  1  0  0  0  0
 22 11  1  0  0  0  0
 23 13  1  0  0  0  0
 24  7  1  0  0  0  0
 25  1  1  0  0  0  0
 25 20  1  0  0  0  0
 26 27  1  6  0  0  0
 28 26  1  0  0  0  0
 29 30  2  0  0  0  0
 30 31  1  0  0  0  0
 30 24  1  0  0  0  0
 32 33  1  0  0  0  0
M  END
>  <MODEL>
2

>  <REMARK>
 VINA RESULT:      -4.8      2.488      7.359
  Name = 
  3 active torsions:
  status: ('A' for Active; 'I' for Inactive)
    1  A    between atoms: C_3  and  C_6
    2  A    between atoms: O_5  and  C_16
    3  A    between atoms: C_14  and  C_31
                            x       y       z     vdW  Elec       q    Type
                         _______ _______ _______ _____ _____    ______ ____

>  <TORSDO>
F 3

$$$$
=
 OpenBabel10232409363D

 33 36  0  0  1  0  0  0  0  0999 V2000
  188.4580  176.7980  135.4500 C   0  0  0  0  0  3  0  0  0  0  0  0
  188.0610  174.7890  136.7610 C   0  0  0  0  0  0  0  0  0  0  0  0
  185.9580  173.1160  135.5000 C   0  0  2  0  0  3  0  0  0  0  0  0
  185.8330  173.5960  136.9550 C   0  0  1  0  0  3  0  0  0  0  0  0
  190.6060  177.2940  134.3460 C   0  0  0  0  0  1  0  0  0  0  0  0
  187.0480  177.5490  138.5990 C   0  0  0  0  0  1  0  0  0  0  0  0
  189.7680  176.3920  135.1890 C   0  0  0  0  0  0  0  0  0  0  0  0
  189.3790  174.3920  136.4970 C   0  0  0  0  0  3  0  0  0  0  0  0
  185.9890  177.2310  137.5900 C   0  0  0  0  0  0  0  0  0  0  0  0
  182.7410  178.5800  138.3870 C   0  0  0  0  0  0  0  0  0  0  0  0
  183.6950  177.3850  136.8060 C   0  0  0  0  0  0  0  0  0  0  0  0
  184.9220  172.7630  137.8470 C   0  0  0  0  0  1  0  0  0  0  0  0
  185.5330  175.3220  134.3460 C   0  0  0  0  0  2  0  0  0  0  0  0
  185.2610  176.1990  135.5350 C   0  0  0  0  0  0  0  0  0  0  0  0
  184.0740  178.4360  138.7470 C   0  0  0  0  0  0  0  0  0  0  0  0
  184.6930  177.6910  137.7740 C   0  0  0  0  0  0  0  0  0  0  0  0
  182.4800  177.9290  137.1740 C   0  0  0  0  0  3  0  0  0  0  0  0
  187.8260  172.7100  137.9370 F   0  0  0  0  0  0  0  0  0  0  0  0
  187.1820  173.8950  137.6110 C   0  0  1  0  0  3  0  0  0  0  0  0
  186.2570  176.4820  136.4620 N   0  0  0  0  0  0  0  0  0  0  0  0
  184.6680  178.9550  139.8910 O   0  0  0  0  0  1  0  0  0  0  0  0
  183.9830  176.6480  135.7140 N   0  0  0  0  0  0  0  0  0  0  0  0
  185.0250  173.8990  134.5750 C   0  0  0  0  0  2  0  0  0  0  0  0
  190.2450  175.1710  135.7190 C   0  0  0  0  0  0  0  0  0  0  0  0
  187.6010  176.0150  136.2300 C   0  0  0  0  0  0  0  0  0  0  0  0
  185.8770  171.5980  135.3120 C   0  0  2  0  0  3  0  0  0  0  0  0
  187.0990  171.0930  134.5710 C   0  0  0  0  0  1  0  0  0  0  0  0
  184.7230  171.2370  134.6160 O   0  0  0  0  0  1  0  0  0  0  0  0
  191.8100  173.4620  134.8160 O   0  0  0  0  0  0  0  0  0  0  0  0
  191.6200  174.6600  135.4970 C   0  0  0  0  0  0  0  0  0  0  0  0
  192.6290  175.2870  135.9130 O   0  0  0  0  0  1  0  0  0  0  0  0
  181.8040  179.2820  139.1470 O   0  0  0  0  0  0  0  0  0  0  0  0
  180.4630  179.4540  138.7160 C   0  0  0  0  0  1  0  0  0  0  0  0
  1 25  1  0  0  0  0
  2 19  1  0  0  0  0
  3 26  1  1  0  0  0
  3  4  1  0  0  0  0
  4 19  1  0  0  0  0
  4 12  1  1  0  0  0
  5  7  1  0  0  0  0
  7  1  2  0  0  0  0
  7 24  1  0  0  0  0
  8  2  1  0  0  0  0
  9 16  2  0  0  0  0
  9  6  1  0  0  0  0
 10 15  2  0  0  0  0
 10 32  1  0  0  0  0
 11 17  2  0  0  0  0
 11 16  1  0  0  0  0
 13 23  1  0  0  0  0
 13 14  1  0  0  0  0
 14 22  2  0  0  0  0
 14 20  1  0  0  0  0
 15 21  1  0  0  0  0
 16 15  1  0  0  0  0
 17 10  1  0  0  0  0
 19 18  1  6  0  0  0
 20  9  1  0  0  0  0
 22 11  1  0  0  0  0
 23  3  1  0  0  0  0
 24  8  2  0  0  0  0
 25 20  1  0  0  0  0
 25  2  2  0  0  0  0
 26 27  1  6  0  0  0
 28 26  1  0  0  0  0
 29 30  2  0  0  0  0
 30 24  1  0  0  0  0
 30 31  1  0  0  0  0
 33 32  1  0  0  0  0
M  END
>  <MODEL>
3

>  <REMARK>
 VINA RESULT:      -3.8      3.485      8.284
  Name = 
  3 active torsions:
  status: ('A' for Active; 'I' for Inactive)
    1  A    between atoms: C_3  and  C_6
    2  A    between atoms: O_5  and  C_16
    3  A    between atoms: C_14  and  C_31
                            x       y       z     vdW  Elec       q    Type
                         _______ _______ _______ _____ _____    ______ ____

>  <TORSDO>
F 3

$$$$
=
 OpenBabel10232409363D

 33 36  0  0  1  0  0  0  0  0999 V2000
  190.6860  176.0970  135.6530 C   0  0  0  0  0  3  0  0  0  0  0  0
  189.6760  174.0500  136.4890 C   0  0  0  0  0  0  0  0  0  0  0  0
  187.1350  173.4800  135.0620 C   0  0  2  0  0  3  0  0  0  0  0  0
  187.1830  173.5970  136.5940 C   0  0  1  0  0  3  0  0  0  0  0  0
  192.8700  176.1620  134.5110 C   0  0  0  0  0  1  0  0  0  0  0  0
  189.6190  176.4390  139.0020 C   0  0  0  0  0  1  0  0  0  0  0  0
  191.7940  175.3850  135.1910 C   0  0  0  0  0  0  0  0  0  0  0  0
  190.7930  173.3440  136.0260 C   0  0  0  0  0  3  0  0  0  0  0  0
  188.5050  176.7260  138.0430 C   0  0  0  0  0  0  0  0  0  0  0  0
  185.8700  178.7710  139.4140 C   0  0  0  0  0  0  0  0  0  0  0  0
  186.3760  177.7730  137.5200 C   0  0  0  0  0  0  0  0  0  0  0  0
  186.0610  172.8920  137.3430 C   0  0  0  0  0  1  0  0  0  0  0  0
  187.4330  175.9230  134.4960 C   0  0  0  0  0  2  0  0  0  0  0  0
  187.4670  176.5160  135.8760 C   0  0  0  0  0  0  0  0  0  0  0  0
  187.0890  178.1370  139.6120 C   0  0  0  0  0  0  0  0  0  0  0  0
  187.4280  177.5040  138.4420 C   0  0  0  0  0  0  0  0  0  0  0  0
  185.4040  178.5560  138.1100 C   0  0  0  0  0  3  0  0  0  0  0  0
  188.7940  171.9220  137.1630 F   0  0  0  0  0  0  0  0  0  0  0  0
  188.5630  173.2900  137.1810 C   0  0  1  0  0  3  0  0  0  0  0  0
  188.5090  176.2370  136.7520 N   0  0  0  0  0  0  0  0  0  0  0  0
  187.8280  178.1450  140.7890 O   0  0  0  0  0  1  0  0  0  0  0  0
  186.4030  177.2790  136.2660 N   0  0  0  0  0  0  0  0  0  0  0  0
  186.4960  174.7180  134.4300 C   0  0  0  0  0  2  0  0  0  0  0  0
  191.8570  173.9840  135.3780 C   0  0  0  0  0  0  0  0  0  0  0  0
  189.6290  175.4500  136.3020 C   0  0  0  0  0  0  0  0  0  0  0  0
  186.5700  172.1580  134.5330 C   0  0  2  0  0  3  0  0  0  0  0  0
  185.0830  172.0700  134.8170 C   0  0  0  0  0  1  0  0  0  0  0  0
  187.2230  171.0660  135.1070 O   0  0  0  0  0  1  0  0  0  0  0  0
  194.2990  173.5760  135.1340 O   0  0  0  0  0  1  0  0  0  0  0  0
  192.9930  173.1450  134.9230 C   0  0  0  0  0  0  0  0  0  0  0  0
  192.8050  172.0420  134.3460 O   0  0  0  0  0  0  0  0  0  0  0  0
  185.2150  179.5170  140.3950 O   0  0  0  0  0  0  0  0  0  0  0  0
  184.0940  179.0090  141.1030 C   0  0  0  0  0  1  0  0  0  0  0  0
  1 25  1  0  0  0  0
  2 19  1  0  0  0  0
  3 26  1  1  0  0  0
  3  4  1  0  0  0  0
  4 19  1  0  0  0  0
  4 12  1  1  0  0  0
  5  7  1  0  0  0  0
  7 24  1  0  0  0  0
  7  1  2  0  0  0  0
  8  2  1  0  0  0  0
  9 16  2  0  0  0  0
  9  6  1  0  0  0  0
 10 15  2  0  0  0  0
 10 32  1  0  0  0  0
 11 17  2  0  0  0  0
 11 16  1  0  0  0  0
 13 14  1  0  0  0  0
 14 22  2  0  0  0  0
 14 20  1  0  0  0  0
 15 21  1  0  0  0  0
 16 15  1  0  0  0  0
 17 10  1  0  0  0  0
 19 18  1  6  0  0  0
 20  9  1  0  0  0  0
 22 11  1  0  0  0  0
 23 13  1  0  0  0  0
 23  3  1  0  0  0  0
 24  8  2  0  0  0  0
 25  2  2  0  0  0  0
 25 20  1  0  0  0  0
 26 27  1  1  0  0  0
 26 28  1  0  0  0  0
 30 29  1  0  0  0  0
 30 24  1  0  0  0  0
 31 30  2  0  0  0  0
 32 33  1  0  0  0  0
M  END
>  <MODEL>
4

>  <REMARK>
 VINA RESULT:      -3.5      2.733      7.407
  Name = 
  3 active torsions:
  status: ('A' for Active; 'I' for Inactive)
    1  A    between atoms: C_3  and  C_6
    2  A    between atoms: O_5  and  C_16
    3  A    between atoms: C_14  and  C_31
                            x       y       z     vdW  Elec       q    Type
                         _______ _______ _______ _____ _____    ______ ____

>  <TORSDO>
F 3

$$$$
=
 OpenBabel10232409363D

 33 36  0  0  1  0  0  0  0  0999 V2000
  183.7320  177.6210  139.9330 C   0  0  0  0  0  3  0  0  0  0  0  0
  182.5800  178.1190  137.8510 C   0  0  0  0  0  0  0  0  0  0  0  0
  181.4750  175.6390  136.6490 C   0  0  2  0  0  3  0  0  0  0  0  0
  182.4290  176.5540  135.8630 C   0  0  1  0  0  3  0  0  0  0  0  0
  183.0000  178.4790  142.1260 C   0  0  0  0  0  1  0  0  0  0  0  0
  185.9660  178.7470  137.4410 C   0  0  0  0  0  1  0  0  0  0  0  0
  182.8120  178.3890  140.6490 C   0  0  0  0  0  0  0  0  0  0  0  0
  181.6640  178.8910  138.5770 C   0  0  0  0  0  3  0  0  0  0  0  0
  185.7370  177.2700  137.3410 C   0  0  0  0  0  0  0  0  0  0  0  0
  188.3670  175.4830  135.6400 C   0  0  0  0  0  0  0  0  0  0  0  0
  186.4460  175.0600  136.6260 C   0  0  0  0  0  0  0  0  0  0  0  0
  182.3440  176.4460  134.3460 C   0  0  0  0  0  1  0  0  0  0  0  0
  183.1520  174.6520  138.2580 C   0  0  0  0  0  2  0  0  0  0  0  0
  184.4140  175.2980  137.7600 C   0  0  0  0  0  0  0  0  0  0  0  0
  187.8750  176.7000  136.0920 C   0  0  0  0  0  0  0  0  0  0  0  0
  186.6730  176.4630  136.7120 C   0  0  0  0  0  0  0  0  0  0  0  0
  187.4880  174.4410  135.9630 C   0  0  0  0  0  3  0  0  0  0  0  0
  181.2630  178.6410  135.9140 F   0  0  0  0  0  0  0  0  0  0  0  0
  182.4160  178.0040  136.3500 C   0  0  1  0  0  3  0  0  0  0  0  0
  184.6080  176.6700  137.8610 N   0  0  0  0  0  0  0  0  0  0  0  0
  188.4940  177.9340  135.9390 O   0  0  0  0  0  1  0  0  0  0  0  0
  185.3330  174.4990  137.1380 N   0  0  0  0  0  0  0  0  0  0  0  0
  182.1830  174.3660  137.1130 C   0  0  0  0  0  2  0  0  0  0  0  0
  181.7580  179.0400  139.9660 C   0  0  0  0  0  0  0  0  0  0  0  0
  183.6320  177.4800  138.5450 C   0  0  0  0  0  0  0  0  0  0  0  0
  180.1260  175.3810  135.9720 C   0  0  2  0  0  3  0  0  0  0  0  0
  179.9870  173.9150  135.6150 C   0  0  0  0  0  1  0  0  0  0  0  0
  179.9820  176.1600  134.8220 O   0  0  0  0  0  1  0  0  0  0  0  0
  179.9880  179.3470  141.6870 O   0  0  0  0  0  1  0  0  0  0  0  0
  180.7360  179.8770  140.6400 C   0  0  0  0  0  0  0  0  0  0  0  0
  180.5240  181.0670  140.2870 O   0  0  0  0  0  0  0  0  0  0  0  0
  189.5770  175.3400  134.9580 O   0  0  0  0  0  0  0  0  0  0  0  0
  190.7160  174.7470  135.5620 C   0  0  0  0  0  1  0  0  0  0  0  0
  1  7  1  0  0  0  0
  2 25  1  0  0  0  0
  2  8  2  0  0  0  0
  3 26  1  6  0  0  0
  3 23  1  0  0  0  0
  4 12  1  6  0  0  0
  4 19  1  0  0  0  0
  4  3  1  0  0  0  0
  7  5  1  0  0  0  0
  8 24  1  0  0  0  0
  9  6  1  0  0  0  0
  9 20  1  0  0  0  0
 10 17  1  0  0  0  0
 10 15  2  0  0  0  0
 11 16  1  0  0  0  0
 11 22  1  0  0  0  0
 14 20  1  0  0  0  0
 14 13  1  0  0  0  0
 15 16  1  0  0  0  0
 16  9  2  0  0  0  0
 17 11  2  0  0  0  0
 19 18  1  1  0  0  0
 19  2  1  0  0  0  0
 20 25  1  0  0  0  0
 21 15  1  0  0  0  0
 22 14  2  0  0  0  0
 23 13  1  0  0  0  0
 24 30  1  0  0  0  0
 24  7  2  0  0  0  0
 25  1  2  0  0  0  0
 26 27  1  6  0  0  0
 28 26  1  0  0  0  0
 30 29  1  0  0  0  0
 31 30  2  0  0  0  0
 32 33  1  0  0  0  0
 32 10  1  0  0  0  0
M  END
>  <MODEL>
5

>  <REMARK>
 VINA RESULT:      -2.9      4.688      6.947
  Name = 
  3 active torsions:
  status: ('A' for Active; 'I' for Inactive)
    1  A    between atoms: C_3  and  C_6
    2  A    between atoms: O_5  and  C_16
    3  A    between atoms: C_14  and  C_31
                            x       y       z     vdW  Elec       q    Type
                         _______ _______ _______ _____ _____    ______ ____

>  <TORSDO>
F 3

$$$$
=
 OpenBabel10232409363D

 33 36  0  0  1  0  0  0  0  0999 V2000
  192.1640  176.7560  137.1740 C   0  0  0  0  0  3  0  0  0  0  0  0
  190.8620  174.7030  137.1700 C   0  0  0  0  0  0  0  0  0  0  0  0
  188.5150  174.9560  135.3690 C   0  0  2  0  0  3  0  0  0  0  0  0
  188.3500  174.5740  136.8490 C   0  0  1  0  0  3  0  0  0  0  0  0
  194.4870  176.8900  136.3610 C   0  0  0  0  0  1  0  0  0  0  0  0
  190.6550  176.1590  140.3110 C   0  0  0  0  0  1  0  0  0  0  0  0
  193.2580  176.0870  136.6240 C   0  0  0  0  0  0  0  0  0  0  0  0
  191.9670  174.0380  136.6230 C   0  0  0  0  0  3  0  0  0  0  0  0
  189.7230  176.8800  139.3860 C   0  0  0  0  0  0  0  0  0  0  0  0
  187.1120  178.7160  141.0640 C   0  0  0  0  0  0  0  0  0  0  0  0
  187.7960  178.3110  139.0120 C   0  0  0  0  0  0  0  0  0  0  0  0
  187.0720  173.8240  137.1970 C   0  0  0  0  0  1  0  0  0  0  0  0
  189.1100  177.3900  135.6800 C   0  0  0  0  0  2  0  0  0  0  0  0
  188.9970  177.5060  137.1730 C   0  0  0  0  0  0  0  0  0  0  0  0
  188.2260  177.8960  141.1710 C   0  0  0  0  0  0  0  0  0  0  0  0
  188.6740  177.6270  139.9010 C   0  0  0  0  0  0  0  0  0  0  0  0
  186.8230  178.9890  139.7200 C   0  0  0  0  0  3  0  0  0  0  0  0
  189.7030  172.6080  137.0020 F   0  0  0  0  0  0  0  0  0  0  0  0
  189.5960  173.9180  137.4470 C   0  0  1  0  0  3  0  0  0  0  0  0
  189.8710  176.8280  138.0150 N   0  0  0  0  0  0  0  0  0  0  0  0
  188.7840  177.4330  142.3570 O   0  0  0  0  0  1  0  0  0  0  0  0
  187.9600  178.2400  137.6760 N   0  0  0  0  0  0  0  0  0  0  0  0
  188.0890  176.4030  135.1180 C   0  0  0  0  0  2  0  0  0  0  0  0
  193.1670  174.7040  136.3430 C   0  0  0  0  0  0  0  0  0  0  0  0
  190.9690  176.0840  137.4530 C   0  0  0  0  0  0  0  0  0  0  0  0
  187.9160  173.9570  134.3750 C   0  0  2  0  0  3  0  0  0  0  0  0
  186.4050  174.0830  134.3460 C   0  0  0  0  0  1  0  0  0  0  0  0
  188.2710  172.6470  134.7010 O   0  0  0  0  0  1  0  0  0  0  0  0
  194.9690  173.0030  136.5580 O   0  0  0  0  0  1  0  0  0  0  0  0
  194.2760  173.9090  135.7620 C   0  0  0  0  0  0  0  0  0  0  0  0
  194.6130  174.0340  134.5550 O   0  0  0  0  0  0  0  0  0  0  0  0
  186.3900  179.1920  142.1600 O   0  0  0  0  0  0  0  0  0  0  0  0
  185.3350  178.4470  142.7470 C   0  0  0  0  0  1  0  0  0  0  0  0
  1 25  1  0  0  0  0
  2 19  1  0  0  0  0
  2 25  2  0  0  0  0
  3 26  1  6  0  0  0
  3  4  1  0  0  0  0
  4 12  1  6  0  0  0
  4 19  1  0  0  0  0
  5  7  1  0  0  0  0
  7  1  2  0  0  0  0
  8  2  1  0  0  0  0
  9 16  2  0  0  0  0
  9  6  1  0  0  0  0
 10 15  2  0  0  0  0
 10 32  1  0  0  0  0
 11 17  2  0  0  0  0
 11 16  1  0  0  0  0
 13 14  1  0  0  0  0
 14 22  2  0  0  0  0
 14 20  1  0  0  0  0
 15 21  1  0  0  0  0
 16 15  1  0  0  0  0
 17 10  1  0  0  0  0
 19 18  1  6  0  0  0
 20  9  1  0  0  0  0
 22 11  1  0  0  0  0
 23  3  1  0  0  0  0
 23 13  1  0  0  0  0
 24  8  2  0  0  0  0
 24  7  1  0  0  0  0
 25 20  1  0  0  0  0
 26 27  1  1  0  0  0
 26 28  1  0  0  0  0
 30 24  1  0  0  0  0
 30 29  1  0  0  0  0
 31 30  2  0  0  0  0
 32 33  1  0  0  0  0
M  END
>  <MODEL>
6

>  <REMARK>
 VINA RESULT:      -2.8      2.048      6.994
  Name = 
  3 active torsions:
  status: ('A' for Active; 'I' for Inactive)
    1  A    between atoms: C_3  and  C_6
    2  A    between atoms: O_5  and  C_16
    3  A    between atoms: C_14  and  C_31
                            x       y       z     vdW  Elec       q    Type
                         _______ _______ _______ _____ _____    ______ ____

>  <TORSDO>
F 3

$$$$
=
 OpenBabel10232409363D

 33 36  0  0  1  0  0  0  0  0999 V2000
  195.7450  174.4880  135.8230 C   0  0  0  0  0  3  0  0  0  0  0  0
  195.7790  172.7560  137.5270 C   0  0  0  0  0  0  0  0  0  0  0  0
  195.6980  170.0620  136.2830 C   0  0  2  0  0  3  0  0  0  0  0  0
  194.6530  170.4940  137.3250 C   0  0  1  0  0  3  0  0  0  0  0  0
  197.6020  176.0690  135.4570 C   0  0  0  0  0  1  0  0  0  0  0  0
  192.8020  174.5160  137.7740 C   0  0  0  0  0  1  0  0  0  0  0  0
  197.0150  174.9200  136.2070 C   0  0  0  0  0  0  0  0  0  0  0  0
  197.0520  173.1990  137.9100 C   0  0  0  0  0  3  0  0  0  0  0  0
  192.6930  173.5470  136.6380 C   0  0  0  0  0  0  0  0  0  0  0  0
  189.3030  172.7630  135.6900 C   0  0  0  0  0  0  0  0  0  0  0  0
  191.3540  172.2420  135.0870 C   0  0  0  0  0  0  0  0  0  0  0  0
  193.9570  169.3610  138.0670 C   0  0  0  0  0  1  0  0  0  0  0  0
  194.8970  171.4770  134.3500 C   0  0  0  0  0  2  0  0  0  0  0  0
  193.6870  172.1170  134.9700 C   0  0  0  0  0  0  0  0  0  0  0  0
  190.1550  173.4700  136.5270 C   0  0  0  0  0  0  0  0  0  0  0  0
  191.4450  173.1610  136.1720 C   0  0  0  0  0  0  0  0  0  0  0  0
  190.0320  171.9860  134.7800 C   0  0  0  0  0  3  0  0  0  0  0  0
  196.0320  171.0520  139.1990 F   0  0  0  0  0  0  0  0  0  0  0  0
  195.1560  171.5900  138.2670 C   0  0  1  0  0  3  0  0  0  0  0  0
  193.8080  173.0130  136.0250 N   0  0  0  0  0  0  0  0  0  0  0  0
  189.7650  174.3350  137.5420 O   0  0  0  0  0  1  0  0  0  0  0  0
  192.4590  171.7310  134.5090 N   0  0  0  0  0  0  0  0  0  0  0  0
  195.1050  170.0570  134.8730 C   0  0  0  0  0  2  0  0  0  0  0  0
  197.6860  174.2720  137.2700 C   0  0  0  0  0  0  0  0  0  0  0  0
  195.1180  173.4180  136.4690 C   0  0  0  0  0  0  0  0  0  0  0  0
  196.4660  168.7840  136.6320 C   0  0  2  0  0  3  0  0  0  0  0  0
  197.8220  169.1270  137.2170 C   0  0  0  0  0  1  0  0  0  0  0  0
  196.6320  167.9730  135.5070 O   0  0  0  0  0  1  0  0  0  0  0  0
  199.1810  175.2400  139.0060 O   0  0  0  0  0  1  0  0  0  0  0  0
  199.0350  174.6610  137.7490 C   0  0  0  0  0  0  0  0  0  0  0  0
  200.0610  174.4810  137.0430 O   0  0  0  0  0  0  0  0  0  0  0  0
  187.9110  172.8320  135.7630 O   0  0  0  0  0  0  0  0  0  0  0  0
  187.1750  172.1470  136.7640 C   0  0  0  0  0  1  0  0  0  0  0  0
  1  7  2  0  0  0  0
  1 25  1  0  0  0  0
  2  8  1  0  0  0  0
  2 19  1  0  0  0  0
  3 26  1  1  0  0  0
  3  4  1  0  0  0  0
  4 12  1  1  0  0  0
  4 19  1  0  0  0  0
  5  7  1  0  0  0  0
  7 24  1  0  0  0  0
  9  6  1  0  0  0  0
 10 32  1  0  0  0  0
 10 15  2  0  0  0  0
 11 16  1  0  0  0  0
 13 23  1  0  0  0  0
 13 14  1  0  0  0  0
 14 20  1  0  0  0  0
 15 21  1  0  0  0  0
 16 15  1  0  0  0  0
 16  9  2  0  0  0  0
 17 11  2  0  0  0  0
 17 10  1  0  0  0  0
 19 18  1  1  0  0  0
 20 25  1  0  0  0  0
 20  9  1  0  0  0  0
 22 14  2  0  0  0  0
 22 11  1  0  0  0  0
 23  3  1  0  0  0  0
 24 30  1  0  0  0  0
 24  8  2  0  0  0  0
 25  2  2  0  0  0  0
 26 27  1  6  0  0  0
 28 26  1  0  0  0  0
 30 29  1  0  0  0  0
 31 30  2  0  0  0  0
 32 33  1  0  0  0  0
M  END
>  <MODEL>
7

>  <REMARK>
 VINA RESULT:      -2.5      4.417      8.600
  Name = 
  3 active torsions:
  status: ('A' for Active; 'I' for Inactive)
    1  A    between atoms: C_3  and  C_6
    2  A    between atoms: O_5  and  C_16
    3  A    between atoms: C_14  and  C_31
                            x       y       z     vdW  Elec       q    Type
                         _______ _______ _______ _____ _____    ______ ____

>  <TORSDO>
F 3

$$$$
=
 OpenBabel10232409363D

 33 36  0  0  1  0  0  0  0  0999 V2000
  187.9970  178.8020  141.4320 C   0  0  0  0  0  3  0  0  0  0  0  0
  188.3130  176.7270  142.6570 C   0  0  0  0  0  0  0  0  0  0  0  0
  190.6200  176.9480  144.5140 C   0  0  2  0  0  3  0  0  0  0  0  0
  190.5480  175.8340  143.4560 C   0  0  1  0  0  3  0  0  0  0  0  0
  185.9810  180.2050  141.6390 C   0  0  0  0  0  1  0  0  0  0  0  0
  188.9840  176.1640  139.3020 C   0  0  0  0  0  1  0  0  0  0  0  0
  186.7470  178.9840  142.0230 C   0  0  0  0  0  0  0  0  0  0  0  0
  187.0540  176.9150  143.2430 C   0  0  0  0  0  3  0  0  0  0  0  0
  190.1700  176.8360  139.9220 C   0  0  0  0  0  0  0  0  0  0  0  0
  193.2410  176.3990  138.0820 C   0  0  0  0  0  0  0  0  0  0  0  0
  192.5340  177.3960  139.9110 C   0  0  0  0  0  0  0  0  0  0  0  0
  191.3770  174.5920  143.7510 C   0  0  0  0  0  1  0  0  0  0  0  0
  191.0920  178.8920  142.9720 C   0  0  0  0  0  2  0  0  0  0  0  0
  191.1820  178.1740  141.6550 C   0  0  0  0  0  0  0  0  0  0  0  0
  191.8810  176.1370  138.1780 C   0  0  0  0  0  0  0  0  0  0  0  0
  191.4140  176.7490  139.3140 C   0  0  0  0  0  0  0  0  0  0  0  0
  193.6720  177.1860  139.1580 C   0  0  0  0  0  3  0  0  0  0  0  0
  188.4880  174.7570  144.0180 F   0  0  0  0  0  0  0  0  0  0  0  0
  189.1180  175.4980  143.0280 C   0  0  1  0  0  3  0  0  0  0  0  0
  190.0710  177.5540  141.0960 N   0  0  0  0  0  0  0  0  0  0  0  0
  191.1320  175.3860  137.2790 O   0  0  0  0  0  1  0  0  0  0  0  0
  192.4110  178.0870  141.0620 N   0  0  0  0  0  0  0  0  0  0  0  0
  191.6250  178.0290  144.1140 C   0  0  0  0  0  2  0  0  0  0  0  0
  186.2580  178.0280  142.9440 C   0  0  0  0  0  0  0  0  0  0  0  0
  188.7850  177.6860  141.7340 C   0  0  0  0  0  0  0  0  0  0  0  0
  190.7830  176.4580  145.9550 C   0  0  2  0  0  3  0  0  0  0  0  0
  189.6190  176.9250  146.8070 C   0  0  0  0  0  1  0  0  0  0  0  0
  191.9810  176.9130  146.5090 O   0  0  0  0  0  1  0  0  0  0  0  0
  184.8860  178.3460  144.9940 O   0  0  0  0  0  1  0  0  0  0  0  0
  184.9420  178.1350  143.6200 C   0  0  0  0  0  0  0  0  0  0  0  0
  183.8640  178.0390  142.9780 O   0  0  0  0  0  0  0  0  0  0  0  0
  194.0500  175.9310  137.0450 O   0  0  0  0  0  0  0  0  0  0  0  0
  194.6970  174.6690  137.1070 C   0  0  0  0  0  1  0  0  0  0  0  0
  1 25  2  0  0  0  0
  1  7  1  0  0  0  0
  2 19  1  0  0  0  0
  2  8  2  0  0  0  0
  3 26  1  1  0  0  0
  4 12  1  1  0  0  0
  4  3  1  0  0  0  0
  5  7  1  0  0  0  0
  6  9  1  0  0  0  0
  7 24  2  0  0  0  0
  9 20  1  0  0  0  0
 10 15  2  0  0  0  0
 10 17  1  0  0  0  0
 11 22  1  0  0  0  0
 13 23  1  0  0  0  0
 14 13  1  0  0  0  0
 15 16  1  0  0  0  0
 16 11  1  0  0  0  0
 16  9  2  0  0  0  0
 17 11  2  0  0  0  0
 19  4  1  0  0  0  0
 19 18  1  1  0  0  0
 20 14  1  0  0  0  0
 20 25  1  0  0  0  0
 21 15  1  0  0  0  0
 22 14  2  0  0  0  0
 23  3  1  0  0  0  0
 24  8  1  0  0  0  0
 24 30  1  0  0  0  0
 25  2  1  0  0  0  0
 26 28  1  0  0  0  0
 26 27  1  1  0  0  0
 30 29  1  0  0  0  0
 31 30  2  0  0  0  0
 32 33  1  0  0  0  0
 32 10  1  0  0  0  0
M  END
>  <MODEL>
8

>  <REMARK>
 VINA RESULT:      -2.3      3.419      6.503
  Name = 
  3 active torsions:
  status: ('A' for Active; 'I' for Inactive)
    1  A    between atoms: C_3  and  C_6
    2  A    between atoms: O_5  and  C_16
    3  A    between atoms: C_14  and  C_31
                            x       y       z     vdW  Elec       q    Type
                         _______ _______ _______ _____ _____    ______ ____

>  <TORSDO>
F 3

$$$$
