=
 OpenBabel10232410133D

 66 72  0  0  1  0  0  0  0  0999 V2000
  194.9480  173.8660  137.4300 C   0  0  0  0  0  0  0  0  0  0  0  0
  192.4620  177.0740  139.9050 C   0  0  0  0  0  2  0  0  0  0  0  0
  194.4110  175.0870  137.6090 N   0  0  0  0  0  0  0  0  0  0  0  0
  191.0530  176.5880  139.9960 N   0  0  0  0  0  0  0  0  0  0  0  0
  194.0100  173.1090  136.7340 C   0  0  0  0  0  0  0  0  0  0  0  0
  193.2160  175.0870  137.0280 C   0  0  0  0  0  0  0  0  0  0  0  0
  190.4610  175.7920  138.9760 N   0  0  0  0  0  2  0  0  0  0  0  0
  196.2070  173.3780  138.0670 C   0  0  0  0  0  1  0  0  0  0  0  0
  192.9070  173.8850  136.4850 N   0  0  0  0  0  0  0  0  0  0  0  0
  193.1590  176.5550  138.6780 C   0  0  0  0  0  0  0  0  0  0  0  0
  192.4140  176.0750  137.6050 C   0  0  0  0  0  0  0  0  0  0  0  0
  191.5730  173.3940  136.1290 C   0  0  0  0  0  1  0  0  0  0  0  0
  194.4090  175.9630  138.6290 C   0  0  0  0  0  0  0  0  0  0  0  0
  190.9390  176.2760  137.6880 C   0  0  1  0  0  3  0  0  0  0  0  0
  193.1810  170.9300  137.1200 F   0  0  0  0  0  0  0  0  0  0  0  0
  193.9500  171.4340  135.0640 F   0  0  0  0  0  0  0  0  0  0  0  0
  194.1400  171.6390  136.4180 C   0  0  0  0  0  0  0  0  0  0  0  0
  195.3890  171.1520  136.7590 F   0  0  0  0  0  0  0  0  0  0  0  0
  195.2830  175.8680  139.7520 N   0  0  0  0  0  2  0  0  0  0  0  0
  195.4310  176.9160  140.5930 O   0  0  0  0  0  1  0  0  0  0  0  0
  190.3070  176.7900  141.2110 C   0  0  0  0  0  0  0  0  0  0  0  0
  189.0080  176.4820  141.2370 C   0  0  0  0  0  2  0  0  0  0  0  0
  191.3480  178.5010  142.4910 O   0  0  0  0  0  0  0  0  0  0  0  0
  190.9570  177.3120  142.4430 C   0  0  0  0  0  0  0  0  0  0  0  0
  191.2910  176.2570  143.8580 S   0  0  0  0  0  0  0  0  0  0  0  0
  190.9770  177.6020  145.0520 C   0  0  0  0  0  2  0  0  0  0  0  0
  186.8360  176.7900  143.6260 O   0  0  0  0  0  1  0  0  0  0  0  0
  186.9330  178.3250  145.5410 C   0  0  1  0  0  3  0  0  0  0  0  0
  187.7170  178.5190  146.7690 N   0  0  0  0  0  2  0  0  0  0  0  0
  187.6900  177.4920  144.4840 C   0  0  1  0  0  3  0  0  0  0  0  0
  189.7530  177.3550  145.9530 C   0  0  2  0  0  0  0  0  0  0  0  0
  185.5990  177.6990  145.9180 C   0  0  0  0  0  1  0  0  0  0  0  0
  188.7160  176.5610  145.1290 C   0  0  0  0  0  2  0  0  0  0  0  0
  189.1480  178.6900  146.4560 C   0  0  0  0  0  2  0  0  0  0  0  0
  190.1410  176.5350  147.1720 C   0  0  0  0  0  0  0  0  0  0  0  0
  189.2260  176.0440  147.8930 O   0  0  0  0  0  0  0  0  0  0  0  0
  192.2800  175.1090  147.3020 C   0  0  0  0  0  1  0  0  0  0  0  0
  192.1330  177.2820  148.2510 O   0  0  0  0  0  0  0  0  0  0  0  0
  191.5460  176.3680  147.6080 C   0  0  0  0  0  0  0  0  0  0  0  0
  190.0810  175.8800  136.4900 C   0  0  2  0  0  3  0  0  0  0  0  0
  189.3430  176.9830  135.9300 O   0  0  0  0  0  0  0  0  0  0  0  0
  188.9480  178.1320  136.6330 C   0  0  0  0  0  0  0  0  0  0  0  0
  189.7720  179.0620  136.8700 O   0  0  0  0  0  0  0  0  0  0  0  0
  185.1940  179.2780  141.0280 C   0  0  2  0  0  3  0  0  0  0  0  0
  187.5120  178.3320  137.0190 C   0  0  1  0  0  3  0  0  0  0  0  0
  185.1810  177.4340  136.9320 C   0  0  0  0  0  3  0  0  0  0  0  0
  183.4550  180.2140  138.8670 O   0  0  0  0  0  1  0  0  0  0  0  0
  183.1490  178.9770  139.4680 C   0  0  2  0  0  0  0  0  0  0  0  0
  183.7120  178.9320  140.8900 C   0  0  0  0  0  2  0  0  0  0  0  0
  186.5820  177.2830  136.3890 C   0  0  0  0  0  2  0  0  0  0  0  0
  187.3380  178.3220  138.5210 C   0  0  0  0  0  3  0  0  0  0  0  0
  183.6540  177.9080  138.6600 O   0  0  0  0  0  0  0  0  0  0  0  0
  186.1370  178.1250  139.0620 C   0  0  0  0  0  0  0  0  0  0  0  0
  186.0220  178.0850  140.5440 C   0  0  0  0  0  2  0  0  0  0  0  0
  184.9730  177.8150  138.1990 C   0  0  0  0  0  0  0  0  0  0  0  0
  181.6270  178.8130  139.5870 C   0  0  2  0  0  3  0  0  0  0  0  0
  181.0890  179.1870  140.9500 C   0  0  0  0  0  2  0  0  0  0  0  0
  180.1510  178.2240  141.3740 O   0  0  0  0  0  0  0  0  0  0  0  0
  181.1510  177.4050  139.3760 C   0  0  0  0  0  2  0  0  0  0  0  0
  179.9850  177.2990  140.3210 C   0  0  0  0  0  2  0  0  0  0  0  0
  184.2270  179.3550  143.2320 C   0  0  0  0  0  1  0  0  0  0  0  0
  185.4500  179.5480  142.4440 N   0  0  0  0  0  2  0  0  0  0  0  0
  189.2660  174.7520  136.7250 O   0  0  0  0  0  0  0  0  0  0  0  0
  187.1810  173.9510  136.3470 C   0  0  0  0  0  1  0  0  0  0  0  0
  188.2470  174.7940  135.8270 N   0  0  0  0  0  0  0  0  0  0  0  0
  188.7350  174.1450  134.6210 C   0  0  0  0  0  1  0  0  0  0  0  0
  1  3  1  0  0  0  0
  1  8  1  0  0  0  0
  2  4  1  0  0  0  0
  3 13  1  0  0  0  0
  4 21  1  0  0  0  0
  5  1  2  0  0  0  0
  6 11  2  0  0  0  0
  6  3  1  0  0  0  0
  7  4  1  0  0  0  0
  9  5  1  0  0  0  0
  9  6  1  0  0  0  0
 10  2  1  0  0  0  0
 11 14  1  0  0  0  0
 11 10  1  0  0  0  0
 12  9  1  0  0  0  0
 13 10  2  0  0  0  0
 13 19  1  0  0  0  0
 14 40  1  6  0  0  0
 14  7  1  0  0  0  0
 16 17  1  0  0  0  0
 17  5  1  0  0  0  0
 17 18  1  0  0  0  0
 17 15  1  0  0  0  0
 19 20  1  0  0  0  0
 21 22  2  0  0  0  0
 21 24  1  0  0  0  0
 24 23  2  0  0  0  0
 24 25  1  0  0  0  0
 25 26  1  0  0  0  0
 28 32  1  1  0  0  0
 28 29  1  0  0  0  0
 30 27  1  1  0  0  0
 30 33  1  0  0  0  0
 30 28  1  0  0  0  0
 31 26  1  6  0  0  0
 31 34  1  0  0  0  0
 31 35  1  0  0  0  0
 33 31  1  0  0  0  0
 34 29  1  0  0  0  0
 35 39  1  0  0  0  0
 35 36  2  0  0  0  0
 37 39  1  0  0  0  0
 39 38  2  0  0  0  0
 40 41  1  1  0  0  0
 40 63  1  0  0  0  0
 41 42  1  0  0  0  0
 42 43  2  0  0  0  0
 44 62  1  1  0  0  0
 45 42  1  1  0  0  0
 45 51  1  0  0  0  0
 46 55  2  0  0  0  0
 48 47  1  6  0  0  0
 48 56  1  0  0  0  0
 48 49  1  0  0  0  0
 49 44  1  0  0  0  0
 50 46  1  0  0  0  0
 50 45  1  0  0  0  0
 51 53  2  0  0  0  0
 52 48  1  0  0  0  0
 53 54  1  0  0  0  0
 54 44  1  0  0  0  0
 55 52  1  0  0  0  0
 55 53  1  0  0  0  0
 56 59  1  1  0  0  0
 56 57  1  0  0  0  0
 57 58  1  0  0  0  0
 59 60  1  0  0  0  0
 60 58  1  0  0  0  0
 62 61  1  0  0  0  0
 65 64  1  0  0  0  0
 65 63  1  0  0  0  0
 66 65  1  0  0  0  0
M  END
>  <MODEL>
1

>  <REMARK>
 VINA RESULT:      -6.1      0.000      0.000
  Name = 
  17 active torsions:
  status: ('A' for Active; 'I' for Inactive)
    1  A    between atoms: C_1  and  N_46
    2  A    between atoms: C_5  and  N_22
    3  A    between atoms: C_5  and  C_66
    4  A    between atoms: C_6  and  O_35
    5  A    between atoms: C_6  and  C_62
    6  A    between atoms: C_6  and  O_65
    7  A    between atoms: C_7  and  C_27
    8  A    between atoms: N_9  and  C_61
    9  A    between atoms: C_10  and  C_43
   10  A    between atoms: C_10  and  C_47
   11  A    between atoms: C_11  and  C_43
   12  A    between atoms: C_11  and  S_58
   13  A    between atoms: C_13  and  C_25
   14  A    between atoms: C_24  and  C_32
   15  A    between atoms: C_25  and  O_35
   16  A    between atoms: N_41  and  O_65
   17  A    between atoms: S_58  and  C_66
                            x       y       z     vdW  Elec       q    Type
                         _______ _______ _______ _____ _____    ______ ____

>  <TORSDO>
F 17

$$$$
=
 OpenBabel10232410133D

 66 72  0  0  1  0  0  0  0  0999 V2000
  189.0430  178.1160  140.8110 C   0  0  0  0  0  0  0  0  0  0  0  0
  186.4180  176.8000  137.0720 C   0  0  0  0  0  2  0  0  0  0  0  0
  188.6780  178.1890  139.5160 N   0  0  0  0  0  0  0  0  0  0  0  0
  186.7520  175.3790  136.7580 N   0  0  0  0  0  0  0  0  0  0  0  0
  190.0880  177.2000  140.8850 C   0  0  0  0  0  0  0  0  0  0  0  0
  189.4780  177.3820  138.8290 C   0  0  0  0  0  0  0  0  0  0  0  0
  188.0410  174.8310  137.0100 N   0  0  0  0  0  2  0  0  0  0  0  0
  188.2990  178.7310  141.9500 C   0  0  0  0  0  1  0  0  0  0  0  0
  190.3600  176.7290  139.6260 N   0  0  0  0  0  0  0  0  0  0  0  0
  187.5620  177.5130  137.7390 C   0  0  0  0  0  0  0  0  0  0  0  0
  188.8530  177.0040  137.6390 C   0  0  0  0  0  0  0  0  0  0  0  0
  191.1010  175.5070  139.3060 C   0  0  0  0  0  1  0  0  0  0  0  0
  187.4940  178.2840  138.8860 C   0  0  0  0  0  0  0  0  0  0  0  0
  189.0340  175.8520  136.7080 C   0  0  1  0  0  3  0  0  0  0  0  0
  190.2740  175.4420  142.4530 F   0  0  0  0  0  0  0  0  0  0  0  0
  192.1040  176.6770  142.0080 F   0  0  0  0  0  0  0  0  0  0  0  0
  190.7300  176.7160  142.1610 C   0  0  0  0  0  0  0  0  0  0  0  0
  190.4360  177.5470  143.2280 F   0  0  0  0  0  0  0  0  0  0  0  0
  186.2740  178.6140  139.5460 N   0  0  0  0  0  2  0  0  0  0  0  0
  185.1330  178.7670  138.8360 O   0  0  0  0  0  1  0  0  0  0  0  0
  185.7100  174.4800  136.3310 C   0  0  0  0  0  0  0  0  0  0  0  0
  185.7490  173.2040  136.7210 C   0  0  0  0  0  2  0  0  0  0  0  0
  184.8010  175.4210  134.3460 O   0  0  0  0  0  0  0  0  0  0  0  0
  184.5800  174.9490  135.4850 C   0  0  0  0  0  0  0  0  0  0  0  0
  182.8850  174.9480  136.0820 S   0  0  0  0  0  0  0  0  0  0  0  0
  182.9330  176.7260  136.4950 C   0  0  0  0  0  2  0  0  0  0  0  0
  182.8200  177.6360  140.8540 O   0  0  0  0  0  1  0  0  0  0  0  0
  180.8410  176.4230  140.0520 C   0  0  1  0  0  3  0  0  0  0  0  0
  179.9840  176.3620  138.8600 N   0  0  0  0  0  2  0  0  0  0  0  0
  182.2350  177.0130  139.7470 C   0  0  1  0  0  3  0  0  0  0  0  0
  181.6970  177.2120  137.2750 C   0  0  2  0  0  0  0  0  0  0  0  0
  180.1100  177.2070  141.1300 C   0  0  0  0  0  1  0  0  0  0  0  0
  182.2000  177.9470  138.5380 C   0  0  0  0  0  2  0  0  0  0  0  0
  180.7750  176.0280  137.6610 C   0  0  0  0  0  2  0  0  0  0  0  0
  180.8800  178.1810  136.4380 C   0  0  0  0  0  0  0  0  0  0  0  0
  180.4370  177.7960  135.3190 O   0  0  0  0  0  0  0  0  0  0  0  0
  180.4470  180.6350  135.7920 C   0  0  0  0  0  1  0  0  0  0  0  0
  180.6690  179.9270  138.0490 O   0  0  0  0  0  0  0  0  0  0  0  0
  180.6630  179.5920  136.8330 C   0  0  0  0  0  0  0  0  0  0  0  0
  190.4460  175.3280  136.4640 C   0  0  2  0  0  3  0  0  0  0  0  0
  191.4190  176.3750  136.2880 O   0  0  0  0  0  0  0  0  0  0  0  0
  192.7640  176.3050  136.6840 C   0  0  0  0  0  0  0  0  0  0  0  0
  193.2050  177.0430  137.6120 O   0  0  0  0  0  0  0  0  0  0  0  0
  195.3780  171.0810  137.4550 C   0  0  2  0  0  3  0  0  0  0  0  0
  193.6800  175.2760  136.0910 C   0  0  1  0  0  3  0  0  0  0  0  0
  195.8880  174.8180  135.0150 C   0  0  0  0  0  3  0  0  0  0  0  0
  195.4890  171.0680  134.5290 O   0  0  0  0  0  1  0  0  0  0  0  0
  196.6850  171.3160  135.2320 C   0  0  2  0  0  0  0  0  0  0  0  0
  196.6070  170.7020  136.6310 C   0  0  0  0  0  2  0  0  0  0  0  0
  194.9310  175.9000  135.4540 C   0  0  0  0  0  2  0  0  0  0  0  0
  194.0970  174.2500  137.1210 C   0  0  0  0  0  3  0  0  0  0  0  0
  196.9350  172.7250  135.2810 O   0  0  0  0  0  0  0  0  0  0  0  0
  195.1620  173.4780  136.9130 C   0  0  0  0  0  0  0  0  0  0  0  0
  195.5570  172.5100  137.9720 C   0  0  0  0  0  2  0  0  0  0  0  0
  196.0090  173.6820  135.7150 C   0  0  0  0  0  0  0  0  0  0  0  0
  197.8640  170.6420  134.5150 C   0  0  2  0  0  3  0  0  0  0  0  0
  198.3700  169.4060  135.2250 C   0  0  0  0  0  2  0  0  0  0  0  0
  199.7780  169.4140  135.2540 O   0  0  0  0  0  0  0  0  0  0  0  0
  199.0770  171.5180  134.3910 C   0  0  0  0  0  2  0  0  0  0  0  0
  200.2130  170.5400  134.5220 C   0  0  0  0  0  2  0  0  0  0  0  0
  195.9630  168.8760  138.2260 C   0  0  0  0  0  1  0  0  0  0  0  0
  195.2870  170.1330  138.5680 N   0  0  0  0  0  2  0  0  0  0  0  0
  190.5200  174.3490  135.4510 O   0  0  0  0  0  0  0  0  0  0  0  0
  191.6590  172.4300  135.8380 C   0  0  0  0  0  1  0  0  0  0  0  0
  190.4040  173.1350  136.0500 N   0  0  0  0  0  0  0  0  0  0  0  0
  189.3890  172.4050  135.3090 C   0  0  0  0  0  1  0  0  0  0  0  0
  1  5  2  0  0  0  0
  1  8  1  0  0  0  0
  2 10  1  0  0  0  0
  3  1  1  0  0  0  0
  4  7  1  0  0  0  0
  4  2  1  0  0  0  0
  5 17  1  0  0  0  0
  6  3  1  0  0  0  0
  6  9  1  0  0  0  0
  9  5  1  0  0  0  0
 10 13  2  0  0  0  0
 11 10  1  0  0  0  0
 11  6  2  0  0  0  0
 12  9  1  0  0  0  0
 13  3  1  0  0  0  0
 13 19  1  0  0  0  0
 14 40  1  1  0  0  0
 14  7  1  0  0  0  0
 14 11  1  0  0  0  0
 16 17  1  0  0  0  0
 17 15  1  0  0  0  0
 17 18  1  0  0  0  0
 20 19  1  0  0  0  0
 21 22  2  0  0  0  0
 21  4  1  0  0  0  0
 23 24  2  0  0  0  0
 24 25  1  0  0  0  0
 24 21  1  0  0  0  0
 25 26  1  0  0  0  0
 28 32  1  1  0  0  0
 29 28  1  0  0  0  0
 30 28  1  0  0  0  0
 30 27  1  1  0  0  0
 31 26  1  6  0  0  0
 31 34  1  0  0  0  0
 31 33  1  0  0  0  0
 33 30  1  0  0  0  0
 34 29  1  0  0  0  0
 35 39  1  0  0  0  0
 35 31  1  0  0  0  0
 36 35  2  0  0  0  0
 37 39  1  0  0  0  0
 39 38  2  0  0  0  0
 40 63  1  6  0  0  0
 41 40  1  0  0  0  0
 41 42  1  0  0  0  0
 42 43  2  0  0  0  0
 44 54  1  0  0  0  0
 44 62  1  1  0  0  0
 45 42  1  1  0  0  0
 45 51  1  0  0  0  0
 46 50  1  0  0  0  0
 46 55  2  0  0  0  0
 48 47  1  6  0  0  0
 48 52  1  0  0  0  0
 48 49  1  0  0  0  0
 49 44  1  0  0  0  0
 50 45  1  0  0  0  0
 52 55  1  0  0  0  0
 53 51  2  0  0  0  0
 53 54  1  0  0  0  0
 55 53  1  0  0  0  0
 56 59  1  1  0  0  0
 56 57  1  0  0  0  0
 56 48  1  0  0  0  0
 57 58  1  0  0  0  0
 59 60  1  0  0  0  0
 60 58  1  0  0  0  0
 61 62  1  0  0  0  0
 63 65  1  0  0  0  0
 64 65  1  0  0  0  0
 66 65  1  0  0  0  0
M  END
>  <MODEL>
2

>  <REMARK>
 VINA RESULT:      -5.1      4.015     11.082
  Name = 
  17 active torsions:
  status: ('A' for Active; 'I' for Inactive)
    1  A    between atoms: C_1  and  N_46
    2  A    between atoms: C_5  and  N_22
    3  A    between atoms: C_5  and  C_66
    4  A    between atoms: C_6  and  O_35
    5  A    between atoms: C_6  and  C_62
    6  A    between atoms: C_6  and  O_65
    7  A    between atoms: C_7  and  C_27
    8  A    between atoms: N_9  and  C_61
    9  A    between atoms: C_10  and  C_43
   10  A    between atoms: C_10  and  C_47
   11  A    between atoms: C_11  and  C_43
   12  A    between atoms: C_11  and  S_58
   13  A    between atoms: C_13  and  C_25
   14  A    between atoms: C_24  and  C_32
   15  A    between atoms: C_25  and  O_35
   16  A    between atoms: N_41  and  O_65
   17  A    between atoms: S_58  and  C_66
                            x       y       z     vdW  Elec       q    Type
                         _______ _______ _______ _____ _____    ______ ____

>  <TORSDO>
F 17

$$$$
=
 OpenBabel10232410133D

 66 72  0  0  1  0  0  0  0  0999 V2000
  187.1640  178.2600  141.7010 C   0  0  0  0  0  0  0  0  0  0  0  0
  186.6250  177.3360  137.0690 C   0  0  0  0  0  2  0  0  0  0  0  0
  187.3890  178.5030  140.3960 N   0  0  0  0  0  0  0  0  0  0  0  0
  187.2540  176.0100  136.7920 N   0  0  0  0  0  0  0  0  0  0  0  0
  188.1890  177.4270  142.1400 C   0  0  0  0  0  0  0  0  0  0  0  0
  188.5100  177.8750  140.0600 C   0  0  0  0  0  0  0  0  0  0  0  0
  188.3690  175.5320  137.5360 N   0  0  0  0  0  2  0  0  0  0  0  0
  185.9240  178.6320  142.4440 C   0  0  0  0  0  1  0  0  0  0  0  0
  189.0410  177.1790  141.0940 N   0  0  0  0  0  0  0  0  0  0  0  0
  187.2570  178.0240  138.2480 C   0  0  0  0  0  0  0  0  0  0  0  0
  188.5210  177.6380  138.6840 C   0  0  0  0  0  0  0  0  0  0  0  0
  190.0080  176.0810  141.0160 C   0  0  0  0  0  1  0  0  0  0  0  0
  186.5930  178.6010  139.3160 C   0  0  0  0  0  0  0  0  0  0  0  0
  189.2430  176.6610  137.8190 C   0  0  1  0  0  3  0  0  0  0  0  0
  187.8280  175.4950  143.4520 F   0  0  0  0  0  0  0  0  0  0  0  0
  189.5880  176.8110  143.9460 F   0  0  0  0  0  0  0  0  0  0  0  0
  188.2760  176.8040  143.5110 C   0  0  0  0  0  0  0  0  0  0  0  0
  187.5090  177.4930  144.4350 F   0  0  0  0  0  0  0  0  0  0  0  0
  185.1750  178.7300  139.3900 N   0  0  0  0  0  2  0  0  0  0  0  0
  184.6060  179.9510  139.5030 O   0  0  0  0  0  1  0  0  0  0  0  0
  186.6340  175.1100  135.8540 C   0  0  0  0  0  0  0  0  0  0  0  0
  187.4010  174.4390  134.9910 C   0  0  0  0  0  2  0  0  0  0  0  0
  184.4480  175.4830  135.0010 O   0  0  0  0  0  0  0  0  0  0  0  0
  185.1630  174.8930  135.8430 C   0  0  0  0  0  0  0  0  0  0  0  0
  184.3460  173.8680  137.0720 S   0  0  0  0  0  0  0  0  0  0  0  0
  182.7030  174.1090  136.3150 C   0  0  0  0  0  2  0  0  0  0  0  0
  183.9880  169.8880  135.7060 O   0  0  0  0  0  1  0  0  0  0  0  0
  181.8200  170.4130  134.6790 C   0  0  1  0  0  3  0  0  0  0  0  0
  180.6310  171.2320  134.9530 N   0  0  0  0  0  2  0  0  0  0  0  0
  183.0670  170.9070  135.4440 C   0  0  1  0  0  3  0  0  0  0  0  0
  181.7900  172.8730  136.4150 C   0  0  2  0  0  0  0  0  0  0  0  0
  181.4880  168.9630  134.9990 C   0  0  0  0  0  1  0  0  0  0  0  0
  182.6850  171.6520  136.7220 C   0  0  0  0  0  2  0  0  0  0  0  0
  180.9970  172.6530  135.1010 C   0  0  0  0  0  2  0  0  0  0  0  0
  180.7830  173.0370  137.5410 C   0  0  0  0  0  0  0  0  0  0  0  0
  180.3060  172.0030  138.0890 O   0  0  0  0  0  0  0  0  0  0  0  0
  180.0500  174.6560  139.4030 C   0  0  0  0  0  1  0  0  0  0  0  0
  179.9840  175.2410  137.1010 O   0  0  0  0  0  0  0  0  0  0  0  0
  180.2620  174.3590  137.9590 C   0  0  0  0  0  0  0  0  0  0  0  0
  190.6790  176.2910  138.1800 C   0  0  2  0  0  3  0  0  0  0  0  0
  190.9490  174.8820  138.0650 O   0  0  0  0  0  0  0  0  0  0  0  0
  191.3280  174.2240  136.8840 C   0  0  0  0  0  0  0  0  0  0  0  0
  190.7160  174.4380  135.7970 O   0  0  0  0  0  0  0  0  0  0  0  0
  197.1990  173.9730  137.3090 C   0  0  2  0  0  3  0  0  0  0  0  0
  192.5380  173.3370  136.8600 C   0  0  1  0  0  3  0  0  0  0  0  0
  193.7990  171.5580  135.6400 C   0  0  0  0  0  3  0  0  0  0  0  0
  196.7030  171.1890  138.0670 O   0  0  0  0  0  1  0  0  0  0  0  0
  197.2110  171.4380  136.7760 C   0  0  2  0  0  0  0  0  0  0  0  0
  197.9640  172.7700  136.7590 C   0  0  0  0  0  2  0  0  0  0  0  0
  192.4950  172.3160  135.7130 C   0  0  0  0  0  2  0  0  0  0  0  0
  193.8120  174.1450  136.7680 C   0  0  0  0  0  3  0  0  0  0  0  0
  196.1430  171.4170  135.8230 O   0  0  0  0  0  0  0  0  0  0  0  0
  194.9500  173.5720  136.3800 C   0  0  0  0  0  0  0  0  0  0  0  0
  196.1700  174.4160  136.2660 C   0  0  0  0  0  2  0  0  0  0  0  0
  194.9590  172.1580  135.9380 C   0  0  0  0  0  0  0  0  0  0  0  0
  198.2220  170.3490  136.3910 C   0  0  2  0  0  3  0  0  0  0  0  0
  197.5740  169.0320  136.0270 C   0  0  0  0  0  2  0  0  0  0  0  0
  198.2780  167.9710  136.6310 O   0  0  0  0  0  0  0  0  0  0  0  0
  199.1810  169.9970  137.4910 C   0  0  0  0  0  2  0  0  0  0  0  0
  199.3980  168.5230  137.2880 C   0  0  0  0  0  2  0  0  0  0  0  0
  198.9680  174.7310  138.7570 C   0  0  0  0  0  1  0  0  0  0  0  0
  198.1760  175.0350  137.5590 N   0  0  0  0  0  2  0  0  0  0  0  0
  191.1070  176.8220  139.4150 O   0  0  0  0  0  0  0  0  0  0  0  0
  193.0220  176.8020  138.2040 C   0  0  0  0  0  1  0  0  0  0  0  0
  192.2350  177.5430  139.1780 N   0  0  0  0  0  0  0  0  0  0  0  0
  192.9950  177.5350  140.4170 C   0  0  0  0  0  1  0  0  0  0  0  0
  1  5  2  0  0  0  0
  1  8  1  0  0  0  0
  2 10  1  0  0  0  0
  3  1  1  0  0  0  0
  4  2  1  0  0  0  0
  4  7  1  0  0  0  0
  5 17  1  0  0  0  0
  6  3  1  0  0  0  0
  6  9  1  0  0  0  0
  7 14  1  0  0  0  0
  9  5  1  0  0  0  0
 10 11  1  0  0  0  0
 10 13  2  0  0  0  0
 11  6  2  0  0  0  0
 12  9  1  0  0  0  0
 13 19  1  0  0  0  0
 13  3  1  0  0  0  0
 14 40  1  1  0  0  0
 14 11  1  0  0  0  0
 15 17  1  0  0  0  0
 17 16  1  0  0  0  0
 17 18  1  0  0  0  0
 19 20  1  0  0  0  0
 21  4  1  0  0  0  0
 22 21  2  0  0  0  0
 23 24  2  0  0  0  0
 24 21  1  0  0  0  0
 24 25  1  0  0  0  0
 26 25  1  0  0  0  0
 28 29  1  0  0  0  0
 28 32  1  1  0  0  0
 28 30  1  0  0  0  0
 29 34  1  0  0  0  0
 30 27  1  1  0  0  0
 30 33  1  0  0  0  0
 31 26  1  6  0  0  0
 31 33  1  0  0  0  0
 31 35  1  0  0  0  0
 34 31  1  0  0  0  0
 35 39  1  0  0  0  0
 35 36  2  0  0  0  0
 38 39  2  0  0  0  0
 39 37  1  0  0  0  0
 40 41  1  1  0  0  0
 40 63  1  0  0  0  0
 42 41  1  0  0  0  0
 43 42  2  0  0  0  0
 44 62  1  6  0  0  0
 45 42  1  6  0  0  0
 46 50  1  0  0  0  0
 46 55  2  0  0  0  0
 48 47  1  1  0  0  0
 49 48  1  0  0  0  0
 49 44  1  0  0  0  0
 50 45  1  0  0  0  0
 51 45  1  0  0  0  0
 52 55  1  0  0  0  0
 52 48  1  0  0  0  0
 53 51  2  0  0  0  0
 54 53  1  0  0  0  0
 54 44  1  0  0  0  0
 55 53  1  0  0  0  0
 56 57  1  1  0  0  0
 56 48  1  0  0  0  0
 56 59  1  0  0  0  0
 57 58  1  0  0  0  0
 58 60  1  0  0  0  0
 60 59  1  0  0  0  0
 62 61  1  0  0  0  0
 64 65  1  0  0  0  0
 65 63  1  0  0  0  0
 65 66  1  0  0  0  0
M  END
>  <MODEL>
3

>  <REMARK>
 VINA RESULT:      -4.8      4.500     11.759
  Name = 
  17 active torsions:
  status: ('A' for Active; 'I' for Inactive)
    1  A    between atoms: C_1  and  N_46
    2  A    between atoms: C_5  and  N_22
    3  A    between atoms: C_5  and  C_66
    4  A    between atoms: C_6  and  O_35
    5  A    between atoms: C_6  and  C_62
    6  A    between atoms: C_6  and  O_65
    7  A    between atoms: C_7  and  C_27
    8  A    between atoms: N_9  and  C_61
    9  A    between atoms: C_10  and  C_43
   10  A    between atoms: C_10  and  C_47
   11  A    between atoms: C_11  and  C_43
   12  A    between atoms: C_11  and  S_58
   13  A    between atoms: C_13  and  C_25
   14  A    between atoms: C_24  and  C_32
   15  A    between atoms: C_25  and  O_35
   16  A    between atoms: N_41  and  O_65
   17  A    between atoms: S_58  and  C_66
                            x       y       z     vdW  Elec       q    Type
                         _______ _______ _______ _____ _____    ______ ____

>  <TORSDO>
F 17

$$$$
=
 OpenBabel10232410133D

 66 72  0  0  1  0  0  0  0  0999 V2000
  189.1070  178.0560  141.0700 C   0  0  0  0  0  0  0  0  0  0  0  0
  185.9720  176.9360  137.6770 C   0  0  0  0  0  2  0  0  0  0  0  0
  188.5690  178.1900  139.8430 N   0  0  0  0  0  0  0  0  0  0  0  0
  186.2350  175.5270  137.2590 N   0  0  0  0  0  0  0  0  0  0  0  0
  190.1370  177.1260  140.9600 C   0  0  0  0  0  0  0  0  0  0  0  0
  189.2540  177.4050  139.0190 C   0  0  0  0  0  0  0  0  0  0  0  0
  187.5370  174.9540  137.3080 N   0  0  0  0  0  2  0  0  0  0  0  0
  188.5380  178.6270  142.3260 C   0  0  0  0  0  1  0  0  0  0  0  0
  190.2250  176.7090  139.6570 N   0  0  0  0  0  0  0  0  0  0  0  0
  187.2080  177.6060  138.2100 C   0  0  0  0  0  0  0  0  0  0  0  0
  188.4650  177.0880  137.9110 C   0  0  0  0  0  0  0  0  0  0  0  0
  190.8950  175.4940  139.1870 C   0  0  0  0  0  1  0  0  0  0  0  0
  187.3110  178.3250  139.3870 C   0  0  0  0  0  0  0  0  0  0  0  0
  188.4970  175.9770  136.9160 C   0  0  1  0  0  3  0  0  0  0  0  0
  190.9760  177.5120  143.1360 F   0  0  0  0  0  0  0  0  0  0  0  0
  190.3530  175.4190  142.5850 F   0  0  0  0  0  0  0  0  0  0  0  0
  190.9400  176.5780  142.1140 C   0  0  0  0  0  0  0  0  0  0  0  0
  192.2390  176.2840  141.7380 F   0  0  0  0  0  0  0  0  0  0  0  0
  186.1990  178.6390  140.2220 N   0  0  0  0  0  2  0  0  0  0  0  0
  186.1140  179.8480  140.8210 O   0  0  0  0  0  1  0  0  0  0  0  0
  185.1300  174.6590  136.9420 C   0  0  0  0  0  0  0  0  0  0  0  0
  185.1000  173.4270  137.4550 C   0  0  0  0  0  2  0  0  0  0  0  0
  184.2220  175.4130  134.8790 O   0  0  0  0  0  0  0  0  0  0  0  0
  184.0090  175.1160  136.0770 C   0  0  0  0  0  0  0  0  0  0  0  0
  182.3480  175.3480  136.7210 S   0  0  0  0  0  0  0  0  0  0  0  0
  182.8990  176.5780  137.9530 C   0  0  0  0  0  2  0  0  0  0  0  0
  180.3590  178.5360  134.8620 O   0  0  0  0  0  1  0  0  0  0  0  0
  181.2850  180.1030  136.5100 C   0  0  1  0  0  3  0  0  0  0  0  0
  181.6020  180.1470  137.9450 N   0  0  0  0  0  2  0  0  0  0  0  0
  181.2080  178.6600  135.9670 C   0  0  1  0  0  3  0  0  0  0  0  0
  181.8700  177.6920  138.2160 C   0  0  2  0  0  0  0  0  0  0  0  0
  179.9930  180.8720  136.2810 C   0  0  0  0  0  1  0  0  0  0  0  0
  180.8410  177.6630  137.0640 C   0  0  0  0  0  2  0  0  0  0  0  0
  182.5550  179.0800  138.3030 C   0  0  0  0  0  2  0  0  0  0  0  0
  181.1420  177.4530  139.5290 C   0  0  0  0  0  0  0  0  0  0  0  0
  179.9820  176.9530  139.5000 O   0  0  0  0  0  0  0  0  0  0  0  0
  183.1280  177.6160  141.1590 C   0  0  0  0  0  1  0  0  0  0  0  0
  180.9630  178.4380  141.6940 O   0  0  0  0  0  0  0  0  0  0  0  0
  181.6960  177.8710  140.8360 C   0  0  0  0  0  0  0  0  0  0  0  0
  189.8530  175.4490  136.4570 C   0  0  2  0  0  3  0  0  0  0  0  0
  190.8550  176.4770  136.3450 O   0  0  0  0  0  0  0  0  0  0  0  0
  191.6790  176.6850  135.2280 C   0  0  0  0  0  0  0  0  0  0  0  0
  191.3720  177.5390  134.3460 O   0  0  0  0  0  0  0  0  0  0  0  0
  195.2150  172.5530  137.4970 C   0  0  2  0  0  3  0  0  0  0  0  0
  192.9980  175.9790  135.1120 C   0  0  1  0  0  3  0  0  0  0  0  0
  195.4770  176.2080  134.8990 C   0  0  0  0  0  3  0  0  0  0  0  0
  196.3590  172.5110  134.8020 O   0  0  0  0  0  1  0  0  0  0  0  0
  197.1040  173.1350  135.8230 C   0  0  2  0  0  0  0  0  0  0  0  0
  196.7100  172.5580  137.1850 C   0  0  0  0  0  2  0  0  0  0  0  0
  194.1620  176.9480  134.8510 C   0  0  0  0  0  2  0  0  0  0  0  0
  193.2940  175.1580  136.3460 C   0  0  0  0  0  3  0  0  0  0  0  0
  196.9080  174.5520  135.7680 O   0  0  0  0  0  0  0  0  0  0  0  0
  194.5350  174.7510  136.6070 C   0  0  0  0  0  0  0  0  0  0  0  0
  194.7850  173.9780  137.8530 C   0  0  0  0  0  2  0  0  0  0  0  0
  195.6580  175.1830  135.7410 C   0  0  0  0  0  0  0  0  0  0  0  0
  198.6000  172.8470  135.6320 C   0  0  2  0  0  3  0  0  0  0  0  0
  198.9020  172.0630  134.3750 C   0  0  0  0  0  2  0  0  0  0  0  0
  199.8360  171.0460  134.6590 O   0  0  0  0  0  0  0  0  0  0  0  0
  199.2020  172.0240  136.7340 C   0  0  0  0  0  2  0  0  0  0  0  0
  200.2220  171.1880  136.0090 C   0  0  0  0  0  2  0  0  0  0  0  0
  195.1140  170.2510  138.1960 C   0  0  0  0  0  1  0  0  0  0  0  0
  195.0080  171.6490  138.6300 N   0  0  0  0  0  2  0  0  0  0  0  0
  189.7850  174.6370  135.3050 O   0  0  0  0  0  0  0  0  0  0  0  0
  191.1300  172.9520  134.6090 C   0  0  0  0  0  1  0  0  0  0  0  0
  190.2220  173.3990  135.6550 N   0  0  0  0  0  0  0  0  0  0  0  0
  189.0640  172.5220  135.6000 C   0  0  0  0  0  1  0  0  0  0  0  0
  1  8  1  0  0  0  0
  2 10  1  0  0  0  0
  3  1  1  0  0  0  0
  4  7  1  0  0  0  0
  4  2  1  0  0  0  0
  5  1  2  0  0  0  0
  5 17  1  0  0  0  0
  6  9  1  0  0  0  0
  6  3  1  0  0  0  0
  9  5  1  0  0  0  0
 10 13  2  0  0  0  0
 11 10  1  0  0  0  0
 11  6  2  0  0  0  0
 12  9  1  0  0  0  0
 13  3  1  0  0  0  0
 13 19  1  0  0  0  0
 14 40  1  1  0  0  0
 14  7  1  0  0  0  0
 14 11  1  0  0  0  0
 17 16  1  0  0  0  0
 17 15  1  0  0  0  0
 18 17  1  0  0  0  0
 19 20  1  0  0  0  0
 21  4  1  0  0  0  0
 21 22  2  0  0  0  0
 23 24  2  0  0  0  0
 24 25  1  0  0  0  0
 24 21  1  0  0  0  0
 25 26  1  0  0  0  0
 28 32  1  1  0  0  0
 28 29  1  0  0  0  0
 29 34  1  0  0  0  0
 30 27  1  6  0  0  0
 30 28  1  0  0  0  0
 30 33  1  0  0  0  0
 31 26  1  6  0  0  0
 31 34  1  0  0  0  0
 31 35  1  0  0  0  0
 33 31  1  0  0  0  0
 35 39  1  0  0  0  0
 36 35  2  0  0  0  0
 39 37  1  0  0  0  0
 39 38  2  0  0  0  0
 40 63  1  6  0  0  0
 41 40  1  0  0  0  0
 42 41  1  0  0  0  0
 43 42  2  0  0  0  0
 44 54  1  0  0  0  0
 44 62  1  1  0  0  0
 45 42  1  1  0  0  0
 45 51  1  0  0  0  0
 46 55  2  0  0  0  0
 48 47  1  6  0  0  0
 48 49  1  0  0  0  0
 49 44  1  0  0  0  0
 50 46  1  0  0  0  0
 50 45  1  0  0  0  0
 51 53  2  0  0  0  0
 52 48  1  0  0  0  0
 53 54  1  0  0  0  0
 55 52  1  0  0  0  0
 55 53  1  0  0  0  0
 56 57  1  6  0  0  0
 56 48  1  0  0  0  0
 56 59  1  0  0  0  0
 57 58  1  0  0  0  0
 58 60  1  0  0  0  0
 60 59  1  0  0  0  0
 61 62  1  0  0  0  0
 63 65  1  0  0  0  0
 64 65  1  0  0  0  0
 66 65  1  0  0  0  0
M  END
>  <MODEL>
4

>  <REMARK>
 VINA RESULT:      -4.5      3.845     10.610
  Name = 
  17 active torsions:
  status: ('A' for Active; 'I' for Inactive)
    1  A    between atoms: C_1  and  N_46
    2  A    between atoms: C_5  and  N_22
    3  A    between atoms: C_5  and  C_66
    4  A    between atoms: C_6  and  O_35
    5  A    between atoms: C_6  and  C_62
    6  A    between atoms: C_6  and  O_65
    7  A    between atoms: C_7  and  C_27
    8  A    between atoms: N_9  and  C_61
    9  A    between atoms: C_10  and  C_43
   10  A    between atoms: C_10  and  C_47
   11  A    between atoms: C_11  and  C_43
   12  A    between atoms: C_11  and  S_58
   13  A    between atoms: C_13  and  C_25
   14  A    between atoms: C_24  and  C_32
   15  A    between atoms: C_25  and  O_35
   16  A    between atoms: N_41  and  O_65
   17  A    between atoms: S_58  and  C_66
                            x       y       z     vdW  Elec       q    Type
                         _______ _______ _______ _____ _____    ______ ____

>  <TORSDO>
F 17

$$$$
=
 OpenBabel10232410133D

 66 72  0  0  1  0  0  0  0  0999 V2000
  192.4840  175.0660  136.5230 C   0  0  0  0  0  0  0  0  0  0  0  0
  192.3580  177.2380  140.7500 C   0  0  0  0  0  2  0  0  0  0  0  0
  192.4060  176.1570  137.3090 N   0  0  0  0  0  0  0  0  0  0  0  0
  191.1040  176.8160  141.4430 N   0  0  0  0  0  0  0  0  0  0  0  0
  191.1770  174.6630  136.2620 C   0  0  0  0  0  0  0  0  0  0  0  0
  191.1190  176.4250  137.4950 C   0  0  0  0  0  0  0  0  0  0  0  0
  189.9200  176.4810  140.7270 N   0  0  0  0  0  2  0  0  0  0  0  0
  193.7380  174.3220  136.2060 C   0  0  0  0  0  1  0  0  0  0  0  0
  190.3110  175.5240  136.8860 N   0  0  0  0  0  0  0  0  0  0  0  0
  192.2220  177.1790  139.2540 C   0  0  0  0  0  0  0  0  0  0  0  0
  190.9580  177.1640  138.6690 C   0  0  0  0  0  0  0  0  0  0  0  0
  188.9010  175.2600  137.1820 C   0  0  0  0  0  1  0  0  0  0  0  0
  193.1090  176.5930  138.3690 C   0  0  0  0  0  0  0  0  0  0  0  0
  189.8070  177.3850  139.5910 C   0  0  1  0  0  3  0  0  0  0  0  0
  189.8310  173.7190  134.5650 F   0  0  0  0  0  0  0  0  0  0  0  0
  191.8950  172.8770  134.8850 F   0  0  0  0  0  0  0  0  0  0  0  0
  190.7860  173.4100  135.5170 C   0  0  0  0  0  0  0  0  0  0  0  0
  190.2690  172.4500  136.3680 F   0  0  0  0  0  0  0  0  0  0  0  0
  194.3700  176.0500  138.7570 N   0  0  0  0  0  2  0  0  0  0  0  0
  194.8260  176.2180  140.0180 O   0  0  0  0  0  1  0  0  0  0  0  0
  191.1170  176.5870  142.8650 C   0  0  0  0  0  0  0  0  0  0  0  0
  191.3540  175.3570  143.3250 C   0  0  0  0  0  2  0  0  0  0  0  0
  191.0550  178.8850  143.4690 O   0  0  0  0  0  0  0  0  0  0  0  0
  190.8990  177.6970  143.8310 C   0  0  0  0  0  0  0  0  0  0  0  0
  190.4990  177.3880  145.5560 S   0  0  0  0  0  0  0  0  0  0  0  0
  189.1930  178.6630  145.5770 C   0  0  0  0  0  2  0  0  0  0  0  0
  185.1970  177.7260  143.8480 O   0  0  0  0  0  1  0  0  0  0  0  0
  185.0890  179.0770  145.8960 C   0  0  1  0  0  3  0  0  0  0  0  0
  185.7930  179.2050  147.1790 N   0  0  0  0  0  2  0  0  0  0  0  0
  185.9550  178.3970  144.8140 C   0  0  1  0  0  3  0  0  0  0  0  0
  187.9450  178.2550  146.3810 C   0  0  2  0  0  0  0  0  0  0  0  0
  183.7840  178.3350  146.1370 C   0  0  0  0  0  1  0  0  0  0  0  0
  187.0080  177.4770  145.4300 C   0  0  0  0  0  2  0  0  0  0  0  0
  187.2230  179.4960  146.9660 C   0  0  0  0  0  2  0  0  0  0  0  0
  188.3250  177.3500  147.5410 C   0  0  0  0  0  0  0  0  0  0  0  0
  188.2640  176.0980  147.3830 O   0  0  0  0  0  0  0  0  0  0  0  0
  190.0880  178.1640  149.2300 C   0  0  0  0  0  1  0  0  0  0  0  0
  187.7710  178.0720  149.7460 O   0  0  0  0  0  0  0  0  0  0  0  0
  188.6690  177.8740  148.8820 C   0  0  0  0  0  0  0  0  0  0  0  0
  188.4080  177.4990  138.9930 C   0  0  2  0  0  3  0  0  0  0  0  0
  188.2450  178.6490  138.1420 O   0  0  0  0  0  0  0  0  0  0  0  0
  187.8950  178.6070  136.7830 C   0  0  0  0  0  0  0  0  0  0  0  0
  188.7220  178.9510  135.8900 O   0  0  0  0  0  0  0  0  0  0  0  0
  182.2120  177.9120  138.1760 C   0  0  2  0  0  3  0  0  0  0  0  0
  186.5710  178.0460  136.3540 C   0  0  1  0  0  3  0  0  0  0  0  0
  185.3200  176.0500  135.5200 C   0  0  0  0  0  3  0  0  0  0  0  0
  181.8700  177.6320  135.2820 O   0  0  0  0  0  1  0  0  0  0  0  0
  181.7880  176.4660  136.0700 C   0  0  2  0  0  0  0  0  0  0  0  0
  181.3760  176.8280  137.4980 C   0  0  0  0  0  2  0  0  0  0  0  0
  186.6910  176.6230  135.7890 C   0  0  0  0  0  2  0  0  0  0  0  0
  185.5740  178.0540  137.4910 C   0  0  0  0  0  3  0  0  0  0  0  0
  183.0390  175.7700  136.0360 O   0  0  0  0  0  0  0  0  0  0  0  0
  184.4830  177.2930  137.4400 C   0  0  0  0  0  0  0  0  0  0  0  0
  183.5510  177.3040  138.5990 C   0  0  0  0  0  2  0  0  0  0  0  0
  184.2820  176.3540  136.3110 C   0  0  0  0  0  0  0  0  0  0  0  0
  180.7020  175.5330  135.5150 C   0  0  2  0  0  3  0  0  0  0  0  0
  180.1070  174.6180  136.5620 C   0  0  0  0  0  2  0  0  0  0  0  0
  179.9870  173.3130  136.0440 O   0  0  0  0  0  0  0  0  0  0  0  0
  181.1940  174.6000  134.4470 C   0  0  0  0  0  2  0  0  0  0  0  0
  180.3860  173.3550  134.6910 C   0  0  0  0  0  2  0  0  0  0  0  0
  181.0140  177.2390  140.1540 C   0  0  0  0  0  1  0  0  0  0  0  0
  181.4600  178.3780  139.3440 N   0  0  0  0  0  2  0  0  0  0  0  0
  187.3730  177.3850  139.9460 O   0  0  0  0  0  0  0  0  0  0  0  0
  187.7170  177.7880  142.1490 C   0  0  0  0  0  1  0  0  0  0  0  0
  187.5310  178.3960  140.8400 N   0  0  0  0  0  0  0  0  0  0  0  0
  186.2620  179.1040  140.8890 C   0  0  0  0  0  1  0  0  0  0  0  0
  1  3  1  0  0  0  0
  2  4  1  0  0  0  0
  3  6  1  0  0  0  0
  3 13  1  0  0  0  0
  4 21  1  0  0  0  0
  5  1  2  0  0  0  0
  5  9  1  0  0  0  0
  6 11  2  0  0  0  0
  7  4  1  0  0  0  0
  8  1  1  0  0  0  0
  9 12  1  0  0  0  0
  9  6  1  0  0  0  0
 10  2  1  0  0  0  0
 11 10  1  0  0  0  0
 11 14  1  0  0  0  0
 13 19  1  0  0  0  0
 13 10  2  0  0  0  0
 14 40  1  6  0  0  0
 14  7  1  0  0  0  0
 15 17  1  0  0  0  0
 16 17  1  0  0  0  0
 17  5  1  0  0  0  0
 17 18  1  0  0  0  0
 19 20  1  0  0  0  0
 21 22  2  0  0  0  0
 21 24  1  0  0  0  0
 23 24  2  0  0  0  0
 24 25  1  0  0  0  0
 25 26  1  0  0  0  0
 28 32  1  1  0  0  0
 28 29  1  0  0  0  0
 30 27  1  6  0  0  0
 30 33  1  0  0  0  0
 30 28  1  0  0  0  0
 31 26  1  6  0  0  0
 31 34  1  0  0  0  0
 31 35  1  0  0  0  0
 33 31  1  0  0  0  0
 34 29  1  0  0  0  0
 35 39  1  0  0  0  0
 36 35  2  0  0  0  0
 39 37  1  0  0  0  0
 39 38  2  0  0  0  0
 40 41  1  1  0  0  0
 40 63  1  0  0  0  0
 42 41  1  0  0  0  0
 43 42  2  0  0  0  0
 44 54  1  0  0  0  0
 44 62  1  1  0  0  0
 45 42  1  1  0  0  0
 45 51  1  0  0  0  0
 46 50  1  0  0  0  0
 46 55  2  0  0  0  0
 48 47  1  6  0  0  0
 48 49  1  0  0  0  0
 49 44  1  0  0  0  0
 50 45  1  0  0  0  0
 52 48  1  0  0  0  0
 52 55  1  0  0  0  0
 53 51  2  0  0  0  0
 53 54  1  0  0  0  0
 55 53  1  0  0  0  0
 56 59  1  6  0  0  0
 56 48  1  0  0  0  0
 56 57  1  0  0  0  0
 58 57  1  0  0  0  0
 59 60  1  0  0  0  0
 60 58  1  0  0  0  0
 62 61  1  0  0  0  0
 63 65  1  0  0  0  0
 65 66  1  0  0  0  0
 65 64  1  0  0  0  0
M  END
>  <MODEL>
5

>  <REMARK>
 VINA RESULT:      -4.2      2.464      3.610
  Name = 
  17 active torsions:
  status: ('A' for Active; 'I' for Inactive)
    1  A    between atoms: C_1  and  N_46
    2  A    between atoms: C_5  and  N_22
    3  A    between atoms: C_5  and  C_66
    4  A    between atoms: C_6  and  O_35
    5  A    between atoms: C_6  and  C_62
    6  A    between atoms: C_6  and  O_65
    7  A    between atoms: C_7  and  C_27
    8  A    between atoms: N_9  and  C_61
    9  A    between atoms: C_10  and  C_43
   10  A    between atoms: C_10  and  C_47
   11  A    between atoms: C_11  and  C_43
   12  A    between atoms: C_11  and  S_58
   13  A    between atoms: C_13  and  C_25
   14  A    between atoms: C_24  and  C_32
   15  A    between atoms: C_25  and  O_35
   16  A    between atoms: N_41  and  O_65
   17  A    between atoms: S_58  and  C_66
                            x       y       z     vdW  Elec       q    Type
                         _______ _______ _______ _____ _____    ______ ____

>  <TORSDO>
F 17

$$$$
=
 OpenBabel10232410133D

 66 72  0  0  1  0  0  0  0  0999 V2000
  187.1170  178.2190  141.8100 C   0  0  0  0  0  0  0  0  0  0  0  0
  187.1920  177.4310  137.1220 C   0  0  0  0  0  2  0  0  0  0  0  0
  187.4940  178.5120  140.5510 N   0  0  0  0  0  0  0  0  0  0  0  0
  187.8980  176.1360  136.8890 N   0  0  0  0  0  0  0  0  0  0  0  0
  188.1090  177.4060  142.3500 C   0  0  0  0  0  0  0  0  0  0  0  0
  188.6700  177.9320  140.3410 C   0  0  0  0  0  0  0  0  0  0  0  0
  188.9270  175.6690  137.7530 N   0  0  0  0  0  2  0  0  0  0  0  0
  185.7820  178.5270  142.4020 C   0  0  0  0  0  1  0  0  0  0  0  0
  189.0920  177.2180  141.4130 N   0  0  0  0  0  0  0  0  0  0  0  0
  187.6470  178.1000  138.3900 C   0  0  0  0  0  0  0  0  0  0  0  0
  188.8600  177.7400  138.9700 C   0  0  0  0  0  0  0  0  0  0  0  0
  190.1000  176.1560  141.4250 C   0  0  0  0  0  1  0  0  0  0  0  0
  186.8360  178.6200  139.3830 C   0  0  0  0  0  0  0  0  0  0  0  0
  189.7190  176.8150  138.1750 C   0  0  1  0  0  3  0  0  0  0  0  0
  189.2680  176.8740  144.3400 F   0  0  0  0  0  0  0  0  0  0  0  0
  187.0680  177.3400  144.4740 F   0  0  0  0  0  0  0  0  0  0  0  0
  188.0460  176.7400  143.7030 C   0  0  0  0  0  0  0  0  0  0  0  0
  187.7490  175.3930  143.5960 F   0  0  0  0  0  0  0  0  0  0  0  0
  185.4160  178.7010  139.2820 N   0  0  0  0  0  2  0  0  0  0  0  0
  184.7860  179.8840  139.4570 O   0  0  0  0  0  1  0  0  0  0  0  0
  187.4320  175.2480  135.8540 C   0  0  0  0  0  0  0  0  0  0  0  0
  188.3220  174.6610  135.0500 C   0  0  0  0  0  2  0  0  0  0  0  0
  185.5260  174.7120  134.5400 O   0  0  0  0  0  0  0  0  0  0  0  0
  185.9850  174.9510  135.6800 C   0  0  0  0  0  0  0  0  0  0  0  0
  184.8320  175.0130  137.0580 S   0  0  0  0  0  0  0  0  0  0  0  0
  183.3980  175.2970  135.9640 C   0  0  0  0  0  2  0  0  0  0  0  0
  183.6450  170.8490  135.9790 O   0  0  0  0  0  1  0  0  0  0  0  0
  181.6410  171.7180  134.8570 C   0  0  1  0  0  3  0  0  0  0  0  0
  180.6840  172.8250  134.9950 N   0  0  0  0  0  2  0  0  0  0  0  0
  182.9840  172.0090  135.5620 C   0  0  1  0  0  3  0  0  0  0  0  0
  182.2230  174.3360  136.2250 C   0  0  2  0  0  0  0  0  0  0  0  0
  180.9850  170.4480  135.3740 C   0  0  0  0  0  1  0  0  0  0  0  0
  182.8130  172.9960  136.7160 C   0  0  0  0  0  2  0  0  0  0  0  0
  181.3750  174.1260  134.9440 C   0  0  0  0  0  2  0  0  0  0  0  0
  181.3050  174.8910  137.3020 C   0  0  0  0  0  0  0  0  0  0  0  0
  180.8320  174.1000  138.1660 O   0  0  0  0  0  0  0  0  0  0  0  0
  181.3800  177.2340  138.3660 C   0  0  0  0  0  1  0  0  0  0  0  0
  180.0380  176.7330  136.4700 O   0  0  0  0  0  0  0  0  0  0  0  0
  180.8620  176.3030  137.3230 C   0  0  0  0  0  0  0  0  0  0  0  0
  191.1110  176.4800  138.7020 C   0  0  2  0  0  3  0  0  0  0  0  0
  191.5890  175.1930  138.2680 O   0  0  0  0  0  0  0  0  0  0  0  0
  192.1650  174.9240  137.0160 C   0  0  0  0  0  0  0  0  0  0  0  0
  191.7010  175.4490  135.9630 O   0  0  0  0  0  0  0  0  0  0  0  0
  194.4700  169.7560  135.3760 C   0  0  2  0  0  3  0  0  0  0  0  0
  193.4130  174.0980  136.9140 C   0  0  1  0  0  3  0  0  0  0  0  0
  195.4270  173.2030  138.0920 C   0  0  0  0  0  3  0  0  0  0  0  0
  196.9550  171.2920  135.1820 O   0  0  0  0  0  1  0  0  0  0  0  0
  196.8060  170.4180  136.2780 C   0  0  2  0  0  0  0  0  0  0  0  0
  195.8210  169.3010  135.9260 C   0  0  0  0  0  2  0  0  0  0  0  0
  194.2710  174.1690  138.1870 C   0  0  0  0  0  2  0  0  0  0  0  0
  193.0940  172.6530  136.6020 C   0  0  0  0  0  3  0  0  0  0  0  0
  196.3860  171.1560  137.4310 O   0  0  0  0  0  0  0  0  0  0  0  0
  193.9970  171.6980  136.8190 C   0  0  0  0  0  0  0  0  0  0  0  0
  193.6240  170.2870  136.5350 C   0  0  0  0  0  2  0  0  0  0  0  0
  195.2910  172.0290  137.4620 C   0  0  0  0  0  0  0  0  0  0  0  0
  198.1480  169.7450  136.5990 C   0  0  2  0  0  3  0  0  0  0  0  0
  197.9980  168.3480  137.1590 C   0  0  0  0  0  2  0  0  0  0  0  0
  198.8680  168.1760  138.2540 O   0  0  0  0  0  0  0  0  0  0  0  0
  198.9570  170.4720  137.6330 C   0  0  0  0  0  2  0  0  0  0  0  0
  199.6380  169.3540  138.3740 C   0  0  0  0  0  2  0  0  0  0  0  0
  192.7370  168.0990  135.6000 C   0  0  0  0  0  1  0  0  0  0  0  0
  193.8350  168.5890  134.7590 N   0  0  0  0  0  2  0  0  0  0  0  0
  191.2490  176.6630  140.0950 O   0  0  0  0  0  0  0  0  0  0  0  0
  193.4660  177.0800  139.8840 C   0  0  0  0  0  1  0  0  0  0  0  0
  192.1810  177.6320  140.2870 N   0  0  0  0  0  0  0  0  0  0  0  0
  192.2560  177.8520  141.7220 C   0  0  0  0  0  1  0  0  0  0  0  0
  1  5  2  0  0  0  0
  1  8  1  0  0  0  0
  2 10  1  0  0  0  0
  3  1  1  0  0  0  0
  4  2  1  0  0  0  0
  4  7  1  0  0  0  0
  5 17  1  0  0  0  0
  6  3  1  0  0  0  0
  6  9  1  0  0  0  0
  7 14  1  0  0  0  0
  9 12  1  0  0  0  0
  9  5  1  0  0  0  0
 10 11  1  0  0  0  0
 10 13  2  0  0  0  0
 11  6  2  0  0  0  0
 13  3  1  0  0  0  0
 14 40  1  1  0  0  0
 14 11  1  0  0  0  0
 17 15  1  0  0  0  0
 17 16  1  0  0  0  0
 18 17  1  0  0  0  0
 19 13  1  0  0  0  0
 19 20  1  0  0  0  0
 21  4  1  0  0  0  0
 22 21  2  0  0  0  0
 23 24  2  0  0  0  0
 24 21  1  0  0  0  0
 24 25  1  0  0  0  0
 26 25  1  0  0  0  0
 28 29  1  0  0  0  0
 28 32  1  1  0  0  0
 28 30  1  0  0  0  0
 30 27  1  1  0  0  0
 30 33  1  0  0  0  0
 31 26  1  6  0  0  0
 31 33  1  0  0  0  0
 31 35  1  0  0  0  0
 34 29  1  0  0  0  0
 34 31  1  0  0  0  0
 35 39  1  0  0  0  0
 35 36  2  0  0  0  0
 38 39  2  0  0  0  0
 39 37  1  0  0  0  0
 40 41  1  1  0  0  0
 40 63  1  0  0  0  0
 42 41  1  0  0  0  0
 43 42  2  0  0  0  0
 44 62  1  1  0  0  0
 44 49  1  0  0  0  0
 44 54  1  0  0  0  0
 45 42  1  1  0  0  0
 45 50  1  0  0  0  0
 46 50  1  0  0  0  0
 48 47  1  6  0  0  0
 48 56  1  0  0  0  0
 48 52  1  0  0  0  0
 49 48  1  0  0  0  0
 51 53  2  0  0  0  0
 51 45  1  0  0  0  0
 52 55  1  0  0  0  0
 53 55  1  0  0  0  0
 54 53  1  0  0  0  0
 55 46  2  0  0  0  0
 56 57  1  1  0  0  0
 56 59  1  0  0  0  0
 57 58  1  0  0  0  0
 58 60  1  0  0  0  0
 59 60  1  0  0  0  0
 62 61  1  0  0  0  0
 63 65  1  0  0  0  0
 64 65  1  0  0  0  0
 65 66  1  0  0  0  0
M  END
>  <MODEL>
6

>  <REMARK>
 VINA RESULT:      -3.9      4.357     11.736
  Name = 
  17 active torsions:
  status: ('A' for Active; 'I' for Inactive)
    1  A    between atoms: C_1  and  N_46
    2  A    between atoms: C_5  and  N_22
    3  A    between atoms: C_5  and  C_66
    4  A    between atoms: C_6  and  O_35
    5  A    between atoms: C_6  and  C_62
    6  A    between atoms: C_6  and  O_65
    7  A    between atoms: C_7  and  C_27
    8  A    between atoms: N_9  and  C_61
    9  A    between atoms: C_10  and  C_43
   10  A    between atoms: C_10  and  C_47
   11  A    between atoms: C_11  and  C_43
   12  A    between atoms: C_11  and  S_58
   13  A    between atoms: C_13  and  C_25
   14  A    between atoms: C_24  and  C_32
   15  A    between atoms: C_25  and  O_35
   16  A    between atoms: N_41  and  O_65
   17  A    between atoms: S_58  and  C_66
                            x       y       z     vdW  Elec       q    Type
                         _______ _______ _______ _____ _____    ______ ____

>  <TORSDO>
F 17

$$$$
=
 OpenBabel10232410133D

 66 72  0  0  1  0  0  0  0  0999 V2000
  191.5130  173.7330  136.2370 C   0  0  0  0  0  0  0  0  0  0  0  0
  186.8040  174.3550  136.0510 C   0  0  0  0  0  2  0  0  0  0  0  0
  190.2750  173.6810  136.7640 N   0  0  0  0  0  0  0  0  0  0  0  0
  186.5420  175.8200  135.9240 N   0  0  0  0  0  0  0  0  0  0  0  0
  192.0480  174.9710  136.5840 C   0  0  0  0  0  0  0  0  0  0  0  0
  190.0740  174.8160  137.4240 C   0  0  0  0  0  0  0  0  0  0  0  0
  187.4140  176.7960  136.4820 N   0  0  0  0  0  2  0  0  0  0  0  0
  192.0820  172.7420  135.2770 C   0  0  0  0  0  1  0  0  0  0  0  0
  191.1300  175.6600  137.3330 N   0  0  0  0  0  0  0  0  0  0  0  0
  188.1060  174.0750  136.7500 C   0  0  0  0  0  0  0  0  0  0  0  0
  188.7030  175.0600  137.5310 C   0  0  0  0  0  0  0  0  0  0  0  0
  191.1290  177.1050  137.5760 C   0  0  0  0  0  1  0  0  0  0  0  0
  189.0960  173.2060  136.3270 C   0  0  0  0  0  0  0  0  0  0  0  0
  187.8970  176.2940  137.7610 C   0  0  1  0  0  3  0  0  0  0  0  0
  194.1560  174.4650  135.6420 F   0  0  0  0  0  0  0  0  0  0  0  0
  193.1700  176.4100  135.0770 F   0  0  0  0  0  0  0  0  0  0  0  0
  193.3740  175.5090  136.1060 C   0  0  0  0  0  0  0  0  0  0  0  0
  194.0580  176.1570  137.1190 F   0  0  0  0  0  0  0  0  0  0  0  0
  188.9620  172.3440  135.1990 N   0  0  0  0  0  2  0  0  0  0  0  0
  187.7650  172.1980  134.5890 O   0  0  0  0  0  1  0  0  0  0  0  0
  185.4650  176.2800  135.0850 C   0  0  0  0  0  0  0  0  0  0  0  0
  185.6350  177.3840  134.3530 C   0  0  0  0  0  2  0  0  0  0  0  0
  184.1780  174.3000  134.8230 O   0  0  0  0  0  0  0  0  0  0  0  0
  184.1780  175.5390  134.9980 C   0  0  0  0  0  0  0  0  0  0  0  0
  182.5930  176.3840  135.0460 S   0  0  0  0  0  0  0  0  0  0  0  0
  181.6960  174.8680  135.5250 C   0  0  0  0  0  2  0  0  0  0  0  0
  180.0240  178.1980  137.9660 O   0  0  0  0  0  1  0  0  0  0  0  0
  181.7830  176.9250  139.1130 C   0  0  1  0  0  3  0  0  0  0  0  0
  182.2610  175.5400  139.2190 N   0  0  0  0  0  2  0  0  0  0  0  0
  180.9620  177.1690  137.8290 C   0  0  1  0  0  3  0  0  0  0  0  0
  181.3630  174.7960  137.0270 C   0  0  2  0  0  0  0  0  0  0  0  0
  180.9950  177.2580  140.3700 C   0  0  0  0  0  1  0  0  0  0  0  0
  180.3070  175.8840  137.3260 C   0  0  0  0  0  2  0  0  0  0  0  0
  182.6300  175.0090  137.8940 C   0  0  0  0  0  2  0  0  0  0  0  0
  180.7810  173.4380  137.3830 C   0  0  0  0  0  0  0  0  0  0  0  0
  180.0090  173.3490  138.3800 O   0  0  0  0  0  0  0  0  0  0  0  0
  180.1190  171.3940  135.9660 C   0  0  0  0  0  1  0  0  0  0  0  0
  182.3550  171.7990  136.6610 O   0  0  0  0  0  0  0  0  0  0  0  0
  181.1580  172.1960  136.6710 C   0  0  0  0  0  0  0  0  0  0  0  0
  188.4470  177.3570  138.7060 C   0  0  2  0  0  3  0  0  0  0  0  0
  189.0410  176.8070  139.8970 O   0  0  0  0  0  0  0  0  0  0  0  0
  190.2980  177.1610  140.4120 C   0  0  0  0  0  0  0  0  0  0  0  0
  191.1300  177.8030  139.7070 O   0  0  0  0  0  0  0  0  0  0  0  0
  188.4850  177.5050  146.0080 C   0  0  2  0  0  3  0  0  0  0  0  0
  190.6380  176.8850  141.8470 C   0  0  1  0  0  3  0  0  0  0  0  0
  192.3120  177.1480  143.6840 C   0  0  0  0  0  3  0  0  0  0  0  0
  190.4020  175.3320  146.4240 O   0  0  0  0  0  1  0  0  0  0  0  0
  190.7550  176.6170  146.8830 C   0  0  2  0  0  0  0  0  0  0  0  0
  189.4940  177.4400  147.1540 C   0  0  0  0  0  2  0  0  0  0  0  0
  192.0740  177.3020  142.2010 C   0  0  0  0  0  2  0  0  0  0  0  0
  189.6700  177.5690  142.7850 C   0  0  0  0  0  3  0  0  0  0  0  0
  191.6130  177.2530  145.9300 O   0  0  0  0  0  0  0  0  0  0  0  0
  189.9850  177.7530  144.0660 C   0  0  0  0  0  0  0  0  0  0  0  0
  189.0170  178.4660  144.9420 C   0  0  0  0  0  2  0  0  0  0  0  0
  191.3290  177.3790  144.5640 C   0  0  0  0  0  0  0  0  0  0  0  0
  191.5110  176.5090  148.2150 C   0  0  2  0  0  3  0  0  0  0  0  0
  191.9360  177.8490  148.7730 C   0  0  0  0  0  2  0  0  0  0  0  0
  193.2620  177.7720  149.2410 O   0  0  0  0  0  0  0  0  0  0  0  0
  192.7880  175.7250  148.1250 C   0  0  0  0  0  2  0  0  0  0  0  0
  193.6860  176.4330  149.1010 C   0  0  0  0  0  2  0  0  0  0  0  0
  186.1030  177.6430  145.6830 C   0  0  0  0  0  1  0  0  0  0  0  0
  187.2220  177.9940  146.5650 N   0  0  0  0  0  2  0  0  0  0  0  0
  187.5300  178.3910  138.9910 O   0  0  0  0  0  0  0  0  0  0  0  0
  185.3320  177.8420  139.0070 C   0  0  0  0  0  1  0  0  0  0  0  0
  186.5600  177.8660  139.7860 N   0  0  0  0  0  0  0  0  0  0  0  0
  186.3490  178.8210  140.8620 C   0  0  0  0  0  1  0  0  0  0  0  0
  1  5  2  0  0  0  0
  1  3  1  0  0  0  0
  2 10  1  0  0  0  0
  3  6  1  0  0  0  0
  4  2  1  0  0  0  0
  4  7  1  0  0  0  0
  5  9  1  0  0  0  0
  6 11  2  0  0  0  0
  7 14  1  0  0  0  0
  8  1  1  0  0  0  0
  9  6  1  0  0  0  0
  9 12  1  0  0  0  0
 10 11  1  0  0  0  0
 11 14  1  0  0  0  0
 13 10  2  0  0  0  0
 13  3  1  0  0  0  0
 14 40  1  6  0  0  0
 15 17  1  0  0  0  0
 16 17  1  0  0  0  0
 17  5  1  0  0  0  0
 17 18  1  0  0  0  0
 19 13  1  0  0  0  0
 20 19  1  0  0  0  0
 21  4  1  0  0  0  0
 22 21  2  0  0  0  0
 23 24  2  0  0  0  0
 24 25  1  0  0  0  0
 24 21  1  0  0  0  0
 25 26  1  0  0  0  0
 28 29  1  0  0  0  0
 28 32  1  1  0  0  0
 30 27  1  1  0  0  0
 30 28  1  0  0  0  0
 31 26  1  6  0  0  0
 31 33  1  0  0  0  0
 31 35  1  0  0  0  0
 31 34  1  0  0  0  0
 33 30  1  0  0  0  0
 34 29  1  0  0  0  0
 35 36  2  0  0  0  0
 37 39  1  0  0  0  0
 38 39  2  0  0  0  0
 39 35  1  0  0  0  0
 40 63  1  1  0  0  0
 40 41  1  0  0  0  0
 41 42  1  0  0  0  0
 43 42  2  0  0  0  0
 44 62  1  1  0  0  0
 44 49  1  0  0  0  0
 45 42  1  6  0  0  0
 45 50  1  0  0  0  0
 45 51  1  0  0  0  0
 46 55  2  0  0  0  0
 48 47  1  6  0  0  0
 48 49  1  0  0  0  0
 48 56  1  0  0  0  0
 50 46  1  0  0  0  0
 51 53  2  0  0  0  0
 52 48  1  0  0  0  0
 53 55  1  0  0  0  0
 53 54  1  0  0  0  0
 54 44  1  0  0  0  0
 55 52  1  0  0  0  0
 56 59  1  6  0  0  0
 56 57  1  0  0  0  0
 57 58  1  0  0  0  0
 59 60  1  0  0  0  0
 60 58  1  0  0  0  0
 61 62  1  0  0  0  0
 63 65  1  0  0  0  0
 64 65  1  0  0  0  0
 65 66  1  0  0  0  0
M  END
>  <MODEL>
7

>  <REMARK>
 VINA RESULT:      -3.2      3.233      9.045
  Name = 
  17 active torsions:
  status: ('A' for Active; 'I' for Inactive)
    1  A    between atoms: C_1  and  N_46
    2  A    between atoms: C_5  and  N_22
    3  A    between atoms: C_5  and  C_66
    4  A    between atoms: C_6  and  O_35
    5  A    between atoms: C_6  and  C_62
    6  A    between atoms: C_6  and  O_65
    7  A    between atoms: C_7  and  C_27
    8  A    between atoms: N_9  and  C_61
    9  A    between atoms: C_10  and  C_43
   10  A    between atoms: C_10  and  C_47
   11  A    between atoms: C_11  and  C_43
   12  A    between atoms: C_11  and  S_58
   13  A    between atoms: C_13  and  C_25
   14  A    between atoms: C_24  and  C_32
   15  A    between atoms: C_25  and  O_35
   16  A    between atoms: N_41  and  O_65
   17  A    between atoms: S_58  and  C_66
                            x       y       z     vdW  Elec       q    Type
                         _______ _______ _______ _____ _____    ______ ____

>  <TORSDO>
F 17

$$$$
=
 OpenBabel10232410133D

 66 72  0  0  1  0  0  0  0  0999 V2000
  191.4820  174.0810  136.0480 C   0  0  0  0  0  0  0  0  0  0  0  0
  186.8220  175.0180  135.9520 C   0  0  0  0  0  2  0  0  0  0  0  0
  190.2420  174.0520  136.5730 N   0  0  0  0  0  0  0  0  0  0  0  0
  186.6540  176.5020  135.9820 N   0  0  0  0  0  0  0  0  0  0  0  0
  192.0940  175.2380  136.5210 C   0  0  0  0  0  0  0  0  0  0  0  0
  190.1120  175.1210  137.3510 C   0  0  0  0  0  0  0  0  0  0  0  0
  187.5860  177.3550  136.6360 N   0  0  0  0  0  2  0  0  0  0  0  0
  191.9880  173.1630  134.9860 C   0  0  0  0  0  1  0  0  0  0  0  0
  191.2210  175.9010  137.3440 N   0  0  0  0  0  0  0  0  0  0  0  0
  188.1020  174.5830  136.6110 C   0  0  0  0  0  0  0  0  0  0  0  0
  188.7600  175.4390  137.4890 C   0  0  0  0  0  0  0  0  0  0  0  0
  191.3110  177.3090  137.7380 C   0  0  0  0  0  1  0  0  0  0  0  0
  189.0350  173.7020  136.0930 C   0  0  0  0  0  0  0  0  0  0  0  0
  188.0330  176.6910  137.8520 C   0  0  1  0  0  3  0  0  0  0  0  0
  193.8980  176.6880  137.0000 F   0  0  0  0  0  0  0  0  0  0  0  0
  194.3510  174.6870  136.0690 F   0  0  0  0  0  0  0  0  0  0  0  0
  193.4530  175.7380  136.0960 C   0  0  0  0  0  0  0  0  0  0  0  0
  193.4160  176.3100  134.8370 F   0  0  0  0  0  0  0  0  0  0  0  0
  188.8490  172.9750  134.8810 N   0  0  0  0  0  2  0  0  0  0  0  0
  188.0070  171.9190  134.8410 O   0  0  0  0  0  1  0  0  0  0  0  0
  185.6110  177.1160  135.2020 C   0  0  0  0  0  0  0  0  0  0  0  0
  185.9250  178.0910  134.3460 C   0  0  0  0  0  2  0  0  0  0  0  0
  183.6910  175.9560  134.4160 O   0  0  0  0  0  0  0  0  0  0  0  0
  184.1960  176.6700  135.3120 C   0  0  0  0  0  0  0  0  0  0  0  0
  183.1360  177.2030  136.6620 S   0  0  0  0  0  0  0  0  0  0  0  0
  181.7900  176.0710  136.1740 C   0  0  0  0  0  2  0  0  0  0  0  0
  184.5540  172.5820  136.3460 O   0  0  0  0  0  1  0  0  0  0  0  0
  182.1810  171.9630  136.4680 C   0  0  1  0  0  3  0  0  0  0  0  0
  180.9280  172.4750  137.0390 N   0  0  0  0  0  2  0  0  0  0  0  0
  183.2440  173.0690  136.2890 C   0  0  1  0  0  3  0  0  0  0  0  0
  181.6380  174.8540  137.1060 C   0  0  2  0  0  0  0  0  0  0  0  0
  182.6790  170.8250  137.3460 C   0  0  0  0  0  1  0  0  0  0  0  0
  183.0340  174.2160  137.2760 C   0  0  0  0  0  2  0  0  0  0  0  0
  180.6320  173.8260  136.5270 C   0  0  0  0  0  2  0  0  0  0  0  0
  181.1270  175.2840  138.4710 C   0  0  0  0  0  0  0  0  0  0  0  0
  179.9820  174.8980  138.8420 O   0  0  0  0  0  0  0  0  0  0  0  0
  181.1580  177.3290  140.0330 C   0  0  0  0  0  1  0  0  0  0  0  0
  183.1170  176.0910  139.5080 O   0  0  0  0  0  0  0  0  0  0  0  0
  181.8720  176.2180  139.3450 C   0  0  0  0  0  0  0  0  0  0  0  0
  188.6480  177.6110  138.9020 C   0  0  2  0  0  3  0  0  0  0  0  0
  189.1310  176.9070  140.0620 O   0  0  0  0  0  0  0  0  0  0  0  0
  190.4420  176.9690  140.5590 C   0  0  0  0  0  0  0  0  0  0  0  0
  191.4050  177.3030  139.8090 O   0  0  0  0  0  0  0  0  0  0  0  0
  188.3590  177.5050  146.0450 C   0  0  2  0  0  3  0  0  0  0  0  0
  190.7150  176.7500  142.0180 C   0  0  1  0  0  3  0  0  0  0  0  0
  192.2970  177.0970  143.9220 C   0  0  0  0  0  3  0  0  0  0  0  0
  190.2710  175.3670  146.6340 O   0  0  0  0  0  1  0  0  0  0  0  0
  190.5910  176.6710  147.0610 C   0  0  2  0  0  0  0  0  0  0  0  0
  189.3120  177.4920  147.2390 C   0  0  0  0  0  2  0  0  0  0  0  0
  192.1300  177.1930  142.4240 C   0  0  0  0  0  2  0  0  0  0  0  0
  189.6980  177.4590  142.8820 C   0  0  0  0  0  3  0  0  0  0  0  0
  191.4890  177.2790  146.1260 O   0  0  0  0  0  0  0  0  0  0  0  0
  189.9490  177.6940  144.1690 C   0  0  0  0  0  0  0  0  0  0  0  0
  188.9350  178.4300  144.9700 C   0  0  0  0  0  2  0  0  0  0  0  0
  191.2710  177.3520  144.7450 C   0  0  0  0  0  0  0  0  0  0  0  0
  191.2820  176.6200  148.4310 C   0  0  2  0  0  3  0  0  0  0  0  0
  191.7440  177.9750  148.9190 C   0  0  0  0  0  2  0  0  0  0  0  0
  193.0450  177.8730  149.4530 O   0  0  0  0  0  0  0  0  0  0  0  0
  192.5250  175.7780  148.4500 C   0  0  0  0  0  2  0  0  0  0  0  0
  193.4120  176.5100  149.4200 C   0  0  0  0  0  2  0  0  0  0  0  0
  185.9680  177.3080  145.8410 C   0  0  0  0  0  1  0  0  0  0  0  0
  187.0670  178.0020  146.5220 N   0  0  0  0  0  2  0  0  0  0  0  0
  187.8310  178.7100  139.2420 O   0  0  0  0  0  0  0  0  0  0  0  0
  185.5930  178.7070  139.5930 C   0  0  0  0  0  1  0  0  0  0  0  0
  186.8800  178.2590  140.1010 N   0  0  0  0  0  0  0  0  0  0  0  0
  187.0960  178.9580  141.3570 C   0  0  0  0  0  1  0  0  0  0  0  0
  1  5  2  0  0  0  0
  1  3  1  0  0  0  0
  2  4  1  0  0  0  0
  2 10  1  0  0  0  0
  3  6  1  0  0  0  0
  4  7  1  0  0  0  0
  5  9  1  0  0  0  0
  6 11  2  0  0  0  0
  7 14  1  0  0  0  0
  8  1  1  0  0  0  0
  9  6  1  0  0  0  0
  9 12  1  0  0  0  0
 10 11  1  0  0  0  0
 11 14  1  0  0  0  0
 13  3  1  0  0  0  0
 13 10  2  0  0  0  0
 14 40  1  6  0  0  0
 16 17  1  0  0  0  0
 17  5  1  0  0  0  0
 17 15  1  0  0  0  0
 18 17  1  0  0  0  0
 19 13  1  0  0  0  0
 20 19  1  0  0  0  0
 21 24  1  0  0  0  0
 21  4  1  0  0  0  0
 22 21  2  0  0  0  0
 23 24  2  0  0  0  0
 24 25  1  0  0  0  0
 26 25  1  0  0  0  0
 28 29  1  0  0  0  0
 28 32  1  1  0  0  0
 30 27  1  1  0  0  0
 30 28  1  0  0  0  0
 30 33  1  0  0  0  0
 31 26  1  6  0  0  0
 31 33  1  0  0  0  0
 31 35  1  0  0  0  0
 34 29  1  0  0  0  0
 34 31  1  0  0  0  0
 35 36  2  0  0  0  0
 35 39  1  0  0  0  0
 39 38  2  0  0  0  0
 39 37  1  0  0  0  0
 40 63  1  1  0  0  0
 40 41  1  0  0  0  0
 41 42  1  0  0  0  0
 43 42  2  0  0  0  0
 44 62  1  1  0  0  0
 44 49  1  0  0  0  0
 45 42  1  6  0  0  0
 45 50  1  0  0  0  0
 45 51  1  0  0  0  0
 46 55  2  0  0  0  0
 48 47  1  6  0  0  0
 48 49  1  0  0  0  0
 48 56  1  0  0  0  0
 50 46  1  0  0  0  0
 51 53  2  0  0  0  0
 52 48  1  0  0  0  0
 53 55  1  0  0  0  0
 53 54  1  0  0  0  0
 54 44  1  0  0  0  0
 55 52  1  0  0  0  0
 56 59  1  6  0  0  0
 56 57  1  0  0  0  0
 57 58  1  0  0  0  0
 59 60  1  0  0  0  0
 60 58  1  0  0  0  0
 61 62  1  0  0  0  0
 63 65  1  0  0  0  0
 64 65  1  0  0  0  0
 65 66  1  0  0  0  0
M  END
>  <MODEL>
8

>  <REMARK>
 VINA RESULT:      -3.1      3.065      8.970
  Name = 
  17 active torsions:
  status: ('A' for Active; 'I' for Inactive)
    1  A    between atoms: C_1  and  N_46
    2  A    between atoms: C_5  and  N_22
    3  A    between atoms: C_5  and  C_66
    4  A    between atoms: C_6  and  O_35
    5  A    between atoms: C_6  and  C_62
    6  A    between atoms: C_6  and  O_65
    7  A    between atoms: C_7  and  C_27
    8  A    between atoms: N_9  and  C_61
    9  A    between atoms: C_10  and  C_43
   10  A    between atoms: C_10  and  C_47
   11  A    between atoms: C_11  and  C_43
   12  A    between atoms: C_11  and  S_58
   13  A    between atoms: C_13  and  C_25
   14  A    between atoms: C_24  and  C_32
   15  A    between atoms: C_25  and  O_35
   16  A    between atoms: N_41  and  O_65
   17  A    between atoms: S_58  and  C_66
                            x       y       z     vdW  Elec       q    Type
                         _______ _______ _______ _____ _____    ______ ____

>  <TORSDO>
F 17

$$$$
