=
 OpenBabel10222421433D

 31 34  0  0  0  0  0  0  0  0999 V2000
  186.3330  178.7970  142.7240 C   0  0  0  0  0  3  0  0  0  0  0  0
  180.3080  179.8870  142.1510 O   0  0  0  0  0  0  0  0  0  0  0  0
  182.8550  178.8580  144.3070 C   0  0  0  0  0  0  0  0  0  0  0  0
  186.0320  178.7670  141.3620 C   0  0  0  0  0  0  0  0  0  0  0  0
  181.4230  178.7540  143.8860 C   0  0  0  0  0  2  0  0  0  0  0  0
  183.9670  178.8080  143.3050 C   0  0  0  0  0  0  0  0  0  0  0  0
  185.3320  178.8190  143.6930 C   0  0  0  0  0  0  0  0  0  0  0  0
  182.2210  178.7120  141.4410 C   0  0  0  0  0  2  0  0  0  0  0  0
  184.6880  178.7640  140.9570 C   0  0  0  0  0  0  0  0  0  0  0  0
  181.2590  179.1960  142.4740 C   0  0  0  0  0  0  0  0  0  0  0  0
  183.0910  178.9690  145.5390 O   0  0  0  0  0  0  0  0  0  0  0  0
  183.6530  178.7810  141.9190 C   0  0  0  0  0  0  0  0  0  0  0  0
  184.3620  178.7050  139.4930 C   0  0  0  0  0  2  0  0  0  0  0  0
  184.3450  179.9950  138.9630 O   0  0  0  0  0  1  0  0  0  0  0  0
  187.0720  178.7500  140.3660 N   0  0  0  0  0  2  0  0  0  0  0  0
  189.1860  178.1820  139.2950 C   0  0  0  0  0  3  0  0  0  0  0  0
  190.4230  177.5310  139.2820 C   0  0  0  0  0  3  0  0  0  0  0  0
  190.8200  176.7620  140.3800 C   0  0  0  0  0  3  0  0  0  0  0  0
  188.7420  177.2940  141.4990 C   0  0  0  0  0  3  0  0  0  0  0  0
  189.9790  176.6440  141.4890 C   0  0  0  0  0  0  0  0  0  0  0  0
  190.3590  175.8980  142.5530 F   0  0  0  0  0  0  0  0  0  0  0  0
  188.3380  178.0720  140.4020 C   0  0  0  0  0  0  0  0  0  0  0  0
  185.7780  178.8150  145.1200 C   0  0  0  0  0  2  0  0  0  0  0  0
  186.0090  177.3910  145.5900 C   0  0  0  0  0  2  0  0  0  0  0  0
  187.3560  177.2880  146.2070 C   0  0  0  0  0  3  0  0  0  0  0  0
  188.4250  177.1270  145.4400 C   0  0  0  0  0  3  0  0  0  0  0  0
  190.0430  176.8770  147.3600 C   0  0  0  0  0  3  0  0  0  0  0  0
  191.4280  176.8290  147.3880 C   0  0  0  0  0  3  0  0  0  0  0  0
  191.9030  176.9410  146.1300 N   0  0  0  0  0  0  0  0  0  0  0  0
  190.8810  177.0560  145.3380 O   0  0  0  0  0  0  0  0  0  0  0  0
  189.7650  177.0230  146.0190 C   0  0  0  0  0  0  0  0  0  0  0  0
  1  7  1  0  0  0  0
  2 10  2  0  0  0  0
  3 11  2  0  0  0  0
  4  1  2  0  0  0  0
  5  3  1  0  0  0  0
  6  7  2  0  0  0  0
  6  3  1  0  0  0  0
  7 23  1  0  0  0  0
  8 12  1  0  0  0  0
  8 10  1  0  0  0  0
  9  4  1  0  0  0  0
  9 12  2  0  0  0  0
 10  5  1  0  0  0  0
 12  6  1  0  0  0  0
 13  9  1  0  0  0  0
 14 13  1  0  0  0  0
 15 22  1  0  0  0  0
 15  4  1  0  0  0  0
 16 22  1  0  0  0  0
 17 16  2  0  0  0  0
 17 18  1  0  0  0  0
 18 20  2  0  0  0  0
 20 19  1  0  0  0  0
 20 21  1  0  0  0  0
 22 19  2  0  0  0  0
 23 24  1  0  0  0  0
 24 25  1  0  0  0  0
 26 31  1  0  0  0  0
 26 25  2  0  0  0  0
 27 28  1  0  0  0  0
 29 28  2  0  0  0  0
 30 31  1  0  0  0  0
 30 29  1  0  0  0  0
 31 27  2  0  0  0  0
M  END
>  <MODEL>
1

>  <REMARK>
 VINA RESULT:      -9.7      0.000      0.000
  Name = 
  7 active torsions:
  status: ('A' for Active; 'I' for Inactive)
    1  A    between atoms: N_4  and  C_8
    2  A    between atoms: N_4  and  C_30
    3  A    between atoms: C_12  and  C_20
    4  A    between atoms: C_12  and  C_28
    5  A    between atoms: C_14  and  C_28
    6  A    between atoms: C_16  and  C_22
    7  A    between atoms: C_19  and  C_24
                            x       y       z     vdW  Elec       q    Type
                         _______ _______ _______ _____ _____    ______ ____

>  <TORSDO>
F 7

$$$$
=
 OpenBabel10222421433D

 31 34  0  0  0  0  0  0  0  0999 V2000
  187.5610  177.8660  143.5020 C   0  0  0  0  0  3  0  0  0  0  0  0
  192.3300  175.8080  146.7930 O   0  0  0  0  0  0  0  0  0  0  0  0
  189.0640  177.0370  146.9170 C   0  0  0  0  0  0  0  0  0  0  0  0
  188.6990  177.9820  142.7040 C   0  0  0  0  0  0  0  0  0  0  0  0
  190.4110  176.9330  147.5590 C   0  0  0  0  0  2  0  0  0  0  0  0
  188.9180  177.3840  145.4670 C   0  0  0  0  0  0  0  0  0  0  0  0
  187.6490  177.5700  144.8610 C   0  0  0  0  0  0  0  0  0  0  0  0
  191.4650  177.3650  145.2530 C   0  0  0  0  0  2  0  0  0  0  0  0
  189.9640  177.7930  143.2820 C   0  0  0  0  0  0  0  0  0  0  0  0
  191.4530  176.6170  146.5440 C   0  0  0  0  0  0  0  0  0  0  0  0
  188.0560  176.8430  147.6470 O   0  0  0  0  0  0  0  0  0  0  0  0
  190.0820  177.4970  144.6590 C   0  0  0  0  0  0  0  0  0  0  0  0
  191.1900  177.9440  142.4310 C   0  0  0  0  0  2  0  0  0  0  0  0
  191.4760  176.7350  141.7970 O   0  0  0  0  0  1  0  0  0  0  0  0
  188.5990  178.2830  141.2990 N   0  0  0  0  0  2  0  0  0  0  0  0
  186.2380  178.8420  141.0740 C   0  0  0  0  0  3  0  0  0  0  0  0
  185.0640  178.9470  140.3210 C   0  0  0  0  0  3  0  0  0  0  0  0
  185.0670  178.5900  138.9690 C   0  0  0  0  0  3  0  0  0  0  0  0
  187.4140  178.0230  139.1270 C   0  0  0  0  0  3  0  0  0  0  0  0
  186.2420  178.1280  138.3720 C   0  0  0  0  0  0  0  0  0  0  0  0
  186.2480  177.7800  137.0640 F   0  0  0  0  0  0  0  0  0  0  0  0
  187.4210  178.3840  140.4840 C   0  0  0  0  0  0  0  0  0  0  0  0
  186.3610  177.5050  145.6190 C   0  0  0  0  0  2  0  0  0  0  0  0
  185.7270  178.8810  145.6890 C   0  0  0  0  0  2  0  0  0  0  0  0
  184.2990  178.7870  145.2950 C   0  0  0  0  0  3  0  0  0  0  0  0
  183.9540  178.9060  144.0200 C   0  0  0  0  0  3  0  0  0  0  0  0
  182.1050  178.9050  142.3030 C   0  0  0  0  0  3  0  0  0  0  0  0
  180.7320  178.7630  142.4380 C   0  0  0  0  0  3  0  0  0  0  0  0
  180.4270  178.6020  143.7420 N   0  0  0  0  0  0  0  0  0  0  0  0
  181.5400  178.6390  144.4100 O   0  0  0  0  0  0  0  0  0  0  0  0
  182.5540  178.8160  143.6020 C   0  0  0  0  0  0  0  0  0  0  0  0
  1  7  1  0  0  0  0
  3  5  1  0  0  0  0
  3 11  2  0  0  0  0
  4  9  1  0  0  0  0
  4  1  2  0  0  0  0
  6  3  1  0  0  0  0
  7  6  2  0  0  0  0
  7 23  1  0  0  0  0
  8 10  1  0  0  0  0
  9 12  2  0  0  0  0
 10  2  2  0  0  0  0
 10  5  1  0  0  0  0
 12  8  1  0  0  0  0
 12  6  1  0  0  0  0
 13  9  1  0  0  0  0
 14 13  1  0  0  0  0
 15  4  1  0  0  0  0
 17 16  2  0  0  0  0
 18 17  1  0  0  0  0
 19 22  2  0  0  0  0
 20 18  2  0  0  0  0
 20 19  1  0  0  0  0
 21 20  1  0  0  0  0
 22 16  1  0  0  0  0
 22 15  1  0  0  0  0
 23 24  1  0  0  0  0
 25 24  1  0  0  0  0
 26 25  2  0  0  0  0
 27 28  1  0  0  0  0
 27 31  2  0  0  0  0
 28 29  2  0  0  0  0
 29 30  1  0  0  0  0
 31 26  1  0  0  0  0
 31 30  1  0  0  0  0
M  END
>  <MODEL>
2

>  <REMARK>
 VINA RESULT:      -9.6      2.470      7.171
  Name = 
  7 active torsions:
  status: ('A' for Active; 'I' for Inactive)
    1  A    between atoms: N_4  and  C_8
    2  A    between atoms: N_4  and  C_30
    3  A    between atoms: C_12  and  C_20
    4  A    between atoms: C_12  and  C_28
    5  A    between atoms: C_14  and  C_28
    6  A    between atoms: C_16  and  C_22
    7  A    between atoms: C_19  and  C_24
                            x       y       z     vdW  Elec       q    Type
                         _______ _______ _______ _____ _____    ______ ____

>  <TORSDO>
F 7

$$$$
=
 OpenBabel10222421433D

 31 34  0  0  0  0  0  0  0  0999 V2000
  187.4660  177.8220  143.8950 C   0  0  0  0  0  3  0  0  0  0  0  0
  181.3470  178.4160  143.9880 O   0  0  0  0  0  0  0  0  0  0  0  0
  184.2390  178.7210  142.0550 C   0  0  0  0  0  0  0  0  0  0  0  0
  187.0780  177.9260  145.2310 C   0  0  0  0  0  0  0  0  0  0  0  0
  182.8610  179.2100  142.3710 C   0  0  0  0  0  2  0  0  0  0  0  0
  185.2400  178.4610  143.1380 C   0  0  0  0  0  0  0  0  0  0  0  0
  186.5770  178.0790  142.8540 C   0  0  0  0  0  0  0  0  0  0  0  0
  183.4440  179.0200  144.8690 C   0  0  0  0  0  2  0  0  0  0  0  0
  185.7580  178.2940  145.5340 C   0  0  0  0  0  0  0  0  0  0  0  0
  182.4720  178.8230  143.7550 C   0  0  0  0  0  0  0  0  0  0  0  0
  184.5320  178.5570  140.8420 O   0  0  0  0  0  0  0  0  0  0  0  0
  184.8360  178.5650  144.4980 C   0  0  0  0  0  0  0  0  0  0  0  0
  185.3460  178.4320  146.9700 C   0  0  0  0  0  2  0  0  0  0  0  0
  185.6930  179.6980  147.4400 O   0  0  0  0  0  1  0  0  0  0  0  0
  188.0020  177.6540  146.3020 N   0  0  0  0  0  2  0  0  0  0  0  0
  190.0120  176.8340  147.4090 C   0  0  0  0  0  3  0  0  0  0  0  0
  191.3280  176.3630  147.3800 C   0  0  0  0  0  3  0  0  0  0  0  0
  191.9920  176.2200  146.1580 C   0  0  0  0  0  3  0  0  0  0  0  0
  190.0250  177.0210  144.9990 C   0  0  0  0  0  3  0  0  0  0  0  0
  191.3400  176.5490  144.9680 C   0  0  0  0  0  0  0  0  0  0  0  0
  191.9810  176.4140  143.7830 F   0  0  0  0  0  0  0  0  0  0  0  0
  189.3490  177.1640  146.2220 C   0  0  0  0  0  0  0  0  0  0  0  0
  187.1190  177.9690  141.4650 C   0  0  0  0  0  2  0  0  0  0  0  0
  188.6140  178.2250  141.4670 C   0  0  0  0  0  2  0  0  0  0  0  0
  189.2940  177.1830  140.6550 C   0  0  0  0  0  3  0  0  0  0  0  0
  190.2710  177.5230  139.8260 C   0  0  0  0  0  3  0  0  0  0  0  0
  192.2360  176.6420  138.5100 C   0  0  0  0  0  3  0  0  0  0  0  0
  192.4170  175.4480  137.8280 C   0  0  0  0  0  3  0  0  0  0  0  0
  191.3040  174.6950  137.9440 N   0  0  0  0  0  0  0  0  0  0  0  0
  190.4540  175.3650  138.6600 O   0  0  0  0  0  0  0  0  0  0  0  0
  190.9600  176.5180  139.0150 C   0  0  0  0  0  0  0  0  0  0  0  0
  1  4  1  0  0  0  0
  3  5  1  0  0  0  0
  3  6  1  0  0  0  0
  4  9  2  0  0  0  0
  4 15  1  0  0  0  0
  5 10  1  0  0  0  0
  6 12  2  0  0  0  0
  7  6  1  0  0  0  0
  7  1  2  0  0  0  0
  9 13  1  0  0  0  0
 10  2  2  0  0  0  0
 10  8  1  0  0  0  0
 11  3  2  0  0  0  0
 12  8  1  0  0  0  0
 12  9  1  0  0  0  0
 13 14  1  0  0  0  0
 17 16  1  0  0  0  0
 18 17  2  0  0  0  0
 19 22  1  0  0  0  0
 20 19  2  0  0  0  0
 20 18  1  0  0  0  0
 21 20  1  0  0  0  0
 22 15  1  0  0  0  0
 22 16  2  0  0  0  0
 23 24  1  0  0  0  0
 23  7  1  0  0  0  0
 25 24  1  0  0  0  0
 26 25  2  0  0  0  0
 27 31  2  0  0  0  0
 28 29  2  0  0  0  0
 28 27  1  0  0  0  0
 29 30  1  0  0  0  0
 30 31  1  0  0  0  0
 31 26  1  0  0  0  0
M  END
>  <MODEL>
3

>  <REMARK>
 VINA RESULT:      -9.6      2.355      5.623
  Name = 
  7 active torsions:
  status: ('A' for Active; 'I' for Inactive)
    1  A    between atoms: N_4  and  C_8
    2  A    between atoms: N_4  and  C_30
    3  A    between atoms: C_12  and  C_20
    4  A    between atoms: C_12  and  C_28
    5  A    between atoms: C_14  and  C_28
    6  A    between atoms: C_16  and  C_22
    7  A    between atoms: C_19  and  C_24
                            x       y       z     vdW  Elec       q    Type
                         _______ _______ _______ _____ _____    ______ ____

>  <TORSDO>
F 7

$$$$
=
 OpenBabel10222421433D

 31 34  0  0  0  0  0  0  0  0999 V2000
  186.9900  177.5000  143.3820 C   0  0  0  0  0  3  0  0  0  0  0  0
  189.6920  178.4100  148.8290 O   0  0  0  0  0  0  0  0  0  0  0  0
  189.9380  176.8360  145.7220 C   0  0  0  0  0  0  0  0  0  0  0  0
  186.0020  177.9240  144.2710 C   0  0  0  0  0  0  0  0  0  0  0  0
  190.2270  176.8090  147.1900 C   0  0  0  0  0  2  0  0  0  0  0  0
  188.5780  177.1890  145.2030 C   0  0  0  0  0  0  0  0  0  0  0  0
  188.2620  177.1370  143.8210 C   0  0  0  0  0  0  0  0  0  0  0  0
  187.8320  177.6500  147.6040 C   0  0  0  0  0  2  0  0  0  0  0  0
  186.2980  177.9910  145.6420 C   0  0  0  0  0  0  0  0  0  0  0  0
  189.2880  177.7000  147.9250 C   0  0  0  0  0  0  0  0  0  0  0  0
  190.8760  176.5290  144.9400 O   0  0  0  0  0  0  0  0  0  0  0  0
  187.5770  177.6240  146.1150 C   0  0  0  0  0  0  0  0  0  0  0  0
  185.2280  178.4210  146.6020 C   0  0  0  0  0  2  0  0  0  0  0  0
  185.4880  179.7170  147.0470 O   0  0  0  0  0  1  0  0  0  0  0  0
  184.6920  178.3020  143.8090 N   0  0  0  0  0  2  0  0  0  0  0  0
  185.1930  178.9000  141.5000 C   0  0  0  0  0  3  0  0  0  0  0  0
  184.8040  179.1440  140.1790 C   0  0  0  0  0  3  0  0  0  0  0  0
  183.4600  179.0240  139.8140 C   0  0  0  0  0  3  0  0  0  0  0  0
  182.8990  178.4180  142.0880 C   0  0  0  0  0  3  0  0  0  0  0  0
  182.5070  178.6610  140.7680 C   0  0  0  0  0  0  0  0  0  0  0  0
  181.2050  178.5450  140.4180 F   0  0  0  0  0  0  0  0  0  0  0  0
  184.2470  178.5330  142.4630 C   0  0  0  0  0  0  0  0  0  0  0  0
  189.2240  176.6670  142.7780 C   0  0  0  0  0  2  0  0  0  0  0  0
  189.5570  177.8010  141.8270 C   0  0  0  0  0  2  0  0  0  0  0  0
  189.0880  177.4530  140.4610 C   0  0  0  0  0  3  0  0  0  0  0  0
  188.4190  178.3450  139.7430 C   0  0  0  0  0  3  0  0  0  0  0  0
  187.9750  176.7830  137.8110 C   0  0  0  0  0  3  0  0  0  0  0  0
  187.4270  177.0120  136.5590 C   0  0  0  0  0  3  0  0  0  0  0  0
  187.1050  178.3180  136.4450 N   0  0  0  0  0  0  0  0  0  0  0  0
  187.4300  178.8970  137.5610 O   0  0  0  0  0  0  0  0  0  0  0  0
  187.9460  178.0310  138.3950 C   0  0  0  0  0  0  0  0  0  0  0  0
  1  7  2  0  0  0  0
  1  4  1  0  0  0  0
  3  5  1  0  0  0  0
  4  9  2  0  0  0  0
  5 10  1  0  0  0  0
  6  3  1  0  0  0  0
  6 12  2  0  0  0  0
  7  6  1  0  0  0  0
  8 10  1  0  0  0  0
  9 12  1  0  0  0  0
  9 13  1  0  0  0  0
 10  2  2  0  0  0  0
 11  3  2  0  0  0  0
 12  8  1  0  0  0  0
 13 14  1  0  0  0  0
 15  4  1  0  0  0  0
 16 22  1  0  0  0  0
 17 16  2  0  0  0  0
 18 17  1  0  0  0  0
 18 20  2  0  0  0  0
 19 22  2  0  0  0  0
 20 19  1  0  0  0  0
 21 20  1  0  0  0  0
 22 15  1  0  0  0  0
 23  7  1  0  0  0  0
 24 23  1  0  0  0  0
 25 24  1  0  0  0  0
 26 25  2  0  0  0  0
 27 31  2  0  0  0  0
 28 27  1  0  0  0  0
 29 28  2  0  0  0  0
 29 30  1  0  0  0  0
 30 31  1  0  0  0  0
 31 26  1  0  0  0  0
M  END
>  <MODEL>
4

>  <REMARK>
 VINA RESULT:      -9.5      3.003      7.398
  Name = 
  7 active torsions:
  status: ('A' for Active; 'I' for Inactive)
    1  A    between atoms: N_4  and  C_8
    2  A    between atoms: N_4  and  C_30
    3  A    between atoms: C_12  and  C_20
    4  A    between atoms: C_12  and  C_28
    5  A    between atoms: C_14  and  C_28
    6  A    between atoms: C_16  and  C_22
    7  A    between atoms: C_19  and  C_24
                            x       y       z     vdW  Elec       q    Type
                         _______ _______ _______ _____ _____    ______ ____

>  <TORSDO>
F 7

$$$$
=
 OpenBabel10222421433D

 31 34  0  0  0  0  0  0  0  0999 V2000
  187.8210  177.8310  143.8940 C   0  0  0  0  0  3  0  0  0  0  0  0
  192.1280  176.9470  148.1930 O   0  0  0  0  0  0  0  0  0  0  0  0
  191.2630  176.4690  144.8430 C   0  0  0  0  0  0  0  0  0  0  0  0
  187.1960  177.9350  145.1370 C   0  0  0  0  0  0  0  0  0  0  0  0
  191.9820  175.9700  146.0570 C   0  0  0  0  0  2  0  0  0  0  0  0
  189.8500  176.9600  144.9220 C   0  0  0  0  0  0  0  0  0  0  0  0
  189.1250  177.3560  143.7690 C   0  0  0  0  0  0  0  0  0  0  0  0
  189.9190  176.6100  147.4530 C   0  0  0  0  0  2  0  0  0  0  0  0
  187.9000  177.5560  146.2910 C   0  0  0  0  0  0  0  0  0  0  0  0
  191.4010  176.5660  147.2920 C   0  0  0  0  0  0  0  0  0  0  0  0
  191.8850  176.4410  143.7480 O   0  0  0  0  0  0  0  0  0  0  0  0
  189.2210  177.0670  146.1930 C   0  0  0  0  0  0  0  0  0  0  0  0
  187.2200  177.6420  147.6260 C   0  0  0  0  0  2  0  0  0  0  0  0
  187.5040  178.8720  148.2210 O   0  0  0  0  0  1  0  0  0  0  0  0
  185.8500  178.4320  145.2590 N   0  0  0  0  0  2  0  0  0  0  0  0
  183.5390  178.8790  144.6300 C   0  0  0  0  0  3  0  0  0  0  0  0
  182.5240  178.9980  143.6750 C   0  0  0  0  0  3  0  0  0  0  0  0
  182.8080  178.7880  142.3230 C   0  0  0  0  0  3  0  0  0  0  0  0
  185.1190  178.3400  142.8820 C   0  0  0  0  0  3  0  0  0  0  0  0
  184.1070  178.4590  141.9270 C   0  0  0  0  0  0  0  0  0  0  0  0
  184.3850  178.2530  140.6170 F   0  0  0  0  0  0  0  0  0  0  0  0
  184.8430  178.5530  144.2420 C   0  0  0  0  0  0  0  0  0  0  0  0
  189.6740  177.2580  142.3820 C   0  0  0  0  0  2  0  0  0  0  0  0
  188.7280  177.9220  141.3990 C   0  0  0  0  0  2  0  0  0  0  0  0
  188.9400  177.3470  140.0460 C   0  0  0  0  0  3  0  0  0  0  0  0
  190.1170  176.8300  139.7230 C   0  0  0  0  0  3  0  0  0  0  0  0
  190.1160  176.8930  137.2000 C   0  0  0  0  0  3  0  0  0  0  0  0
  190.4960  175.9450  136.2620 C   0  0  0  0  0  3  0  0  0  0  0  0
  190.9240  174.8350  136.8990 N   0  0  0  0  0  0  0  0  0  0  0  0
  190.8260  175.0560  138.1740 O   0  0  0  0  0  0  0  0  0  0  0  0
  190.3540  176.2560  138.3980 C   0  0  0  0  0  0  0  0  0  0  0  0
  1  4  1  0  0  0  0
  3  6  1  0  0  0  0
  3  5  1  0  0  0  0
  4 15  1  0  0  0  0
  4  9  2  0  0  0  0
  5 10  1  0  0  0  0
  6 12  2  0  0  0  0
  7  1  2  0  0  0  0
  7  6  1  0  0  0  0
  9 13  1  0  0  0  0
 10  8  1  0  0  0  0
 10  2  2  0  0  0  0
 11  3  2  0  0  0  0
 12  9  1  0  0  0  0
 12  8  1  0  0  0  0
 13 14  1  0  0  0  0
 17 16  2  0  0  0  0
 18 17  1  0  0  0  0
 19 22  2  0  0  0  0
 20 18  2  0  0  0  0
 20 19  1  0  0  0  0
 21 20  1  0  0  0  0
 22 16  1  0  0  0  0
 22 15  1  0  0  0  0
 23  7  1  0  0  0  0
 24 23  1  0  0  0  0
 25 24  1  0  0  0  0
 26 25  2  0  0  0  0
 27 31  2  0  0  0  0
 28 29  2  0  0  0  0
 28 27  1  0  0  0  0
 29 30  1  0  0  0  0
 30 31  1  0  0  0  0
 31 26  1  0  0  0  0
M  END
>  <MODEL>
5

>  <REMARK>
 VINA RESULT:      -9.3      3.260      7.985
  Name = 
  7 active torsions:
  status: ('A' for Active; 'I' for Inactive)
    1  A    between atoms: N_4  and  C_8
    2  A    between atoms: N_4  and  C_30
    3  A    between atoms: C_12  and  C_20
    4  A    between atoms: C_12  and  C_28
    5  A    between atoms: C_14  and  C_28
    6  A    between atoms: C_16  and  C_22
    7  A    between atoms: C_19  and  C_24
                            x       y       z     vdW  Elec       q    Type
                         _______ _______ _______ _____ _____    ______ ____

>  <TORSDO>
F 7

$$$$
=
 OpenBabel10222421433D

 31 34  0  0  0  0  0  0  0  0999 V2000
  187.0190  177.5240  143.3030 C   0  0  0  0  0  3  0  0  0  0  0  0
  189.6690  178.4130  148.7800 O   0  0  0  0  0  0  0  0  0  0  0  0
  189.9570  176.8730  145.6590 C   0  0  0  0  0  0  0  0  0  0  0  0
  186.0190  177.9280  144.1890 C   0  0  0  0  0  0  0  0  0  0  0  0
  190.2350  176.8360  147.1280 C   0  0  0  0  0  2  0  0  0  0  0  0
  188.5970  177.2150  145.1330 C   0  0  0  0  0  0  0  0  0  0  0  0
  188.2910  177.1730  143.7480 C   0  0  0  0  0  0  0  0  0  0  0  0
  187.8270  177.6430  147.5330 C   0  0  0  0  0  2  0  0  0  0  0  0
  186.3030  177.9850  145.5620 C   0  0  0  0  0  0  0  0  0  0  0  0
  189.2800  177.7080  147.8650 C   0  0  0  0  0  0  0  0  0  0  0  0
  190.9040  176.5860  144.8810 O   0  0  0  0  0  0  0  0  0  0  0  0
  187.5840  177.6290  146.0420 C   0  0  0  0  0  0  0  0  0  0  0  0
  185.2210  178.3920  146.5190 C   0  0  0  0  0  2  0  0  0  0  0  0
  185.4700  179.6820  146.9890 O   0  0  0  0  0  1  0  0  0  0  0  0
  184.7080  178.2940  143.7200 N   0  0  0  0  0  2  0  0  0  0  0  0
  185.2250  178.8950  141.4160 C   0  0  0  0  0  3  0  0  0  0  0  0
  184.8430  179.1490  140.0950 C   0  0  0  0  0  3  0  0  0  0  0  0
  183.5000  179.0460  139.7240 C   0  0  0  0  0  3  0  0  0  0  0  0
  182.9220  178.4380  141.9940 C   0  0  0  0  0  3  0  0  0  0  0  0
  182.5390  178.6910  140.6730 C   0  0  0  0  0  0  0  0  0  0  0  0
  181.2360  178.5920  140.3170 F   0  0  0  0  0  0  0  0  0  0  0  0
  184.2700  178.5350  142.3740 C   0  0  0  0  0  0  0  0  0  0  0  0
  189.2670  176.7250  142.7080 C   0  0  0  0  0  2  0  0  0  0  0  0
  189.2650  177.6940  141.5400 C   0  0  0  0  0  2  0  0  0  0  0  0
  190.0280  177.1050  140.4100 C   0  0  0  0  0  3  0  0  0  0  0  0
  191.3100  177.4010  140.2500 C   0  0  0  0  0  3  0  0  0  0  0  0
  191.5670  176.1100  138.0960 C   0  0  0  0  0  3  0  0  0  0  0  0
  192.6890  175.8090  137.3400 C   0  0  0  0  0  3  0  0  0  0  0  0
  193.7800  176.3360  137.9330 N   0  0  0  0  0  0  0  0  0  0  0  0
  193.3830  176.9420  139.0100 O   0  0  0  0  0  0  0  0  0  0  0  0
  192.0870  176.8350  139.1460 C   0  0  0  0  0  0  0  0  0  0  0  0
  1  7  2  0  0  0  0
  1  4  1  0  0  0  0
  3  5  1  0  0  0  0
  4  9  2  0  0  0  0
  5 10  1  0  0  0  0
  6  3  1  0  0  0  0
  6 12  2  0  0  0  0
  7  6  1  0  0  0  0
  8 10  1  0  0  0  0
  9 12  1  0  0  0  0
  9 13  1  0  0  0  0
 10  2  2  0  0  0  0
 11  3  2  0  0  0  0
 12  8  1  0  0  0  0
 13 14  1  0  0  0  0
 15  4  1  0  0  0  0
 16 22  1  0  0  0  0
 17 16  2  0  0  0  0
 18 17  1  0  0  0  0
 18 20  2  0  0  0  0
 19 22  2  0  0  0  0
 20 19  1  0  0  0  0
 21 20  1  0  0  0  0
 22 15  1  0  0  0  0
 23  7  1  0  0  0  0
 24 23  1  0  0  0  0
 25 24  1  0  0  0  0
 26 25  2  0  0  0  0
 27 31  2  0  0  0  0
 28 29  2  0  0  0  0
 28 27  1  0  0  0  0
 29 30  1  0  0  0  0
 30 31  1  0  0  0  0
 31 26  1  0  0  0  0
M  END
>  <MODEL>
6

>  <REMARK>
 VINA RESULT:      -9.2      3.278      7.115
  Name = 
  7 active torsions:
  status: ('A' for Active; 'I' for Inactive)
    1  A    between atoms: N_4  and  C_8
    2  A    between atoms: N_4  and  C_30
    3  A    between atoms: C_12  and  C_20
    4  A    between atoms: C_12  and  C_28
    5  A    between atoms: C_14  and  C_28
    6  A    between atoms: C_16  and  C_22
    7  A    between atoms: C_19  and  C_24
                            x       y       z     vdW  Elec       q    Type
                         _______ _______ _______ _____ _____    ______ ____

>  <TORSDO>
F 7

$$$$
=
 OpenBabel10222421433D

 31 34  0  0  0  0  0  0  0  0999 V2000
  187.1210  177.3140  143.2760 C   0  0  0  0  0  3  0  0  0  0  0  0
  188.2320  177.6380  149.3150 O   0  0  0  0  0  0  0  0  0  0  0  0
  186.0870  178.5870  146.7280 C   0  0  0  0  0  0  0  0  0  0  0  0
  188.4700  177.0160  143.4680 C   0  0  0  0  0  0  0  0  0  0  0  0
  186.7200  178.9150  148.0440 C   0  0  0  0  0  2  0  0  0  0  0  0
  186.8980  178.0630  145.5840 C   0  0  0  0  0  0  0  0  0  0  0  0
  186.3320  177.8270  144.3040 C   0  0  0  0  0  0  0  0  0  0  0  0
  188.9490  178.0380  147.1090 C   0  0  0  0  0  2  0  0  0  0  0  0
  189.0470  177.2340  144.7290 C   0  0  0  0  0  0  0  0  0  0  0  0
  187.9720  178.1340  148.2320 C   0  0  0  0  0  0  0  0  0  0  0  0
  184.8490  178.7880  146.6130 O   0  0  0  0  0  0  0  0  0  0  0  0
  188.2720  177.7580  145.7880 C   0  0  0  0  0  0  0  0  0  0  0  0
  190.5050  176.9400  144.9300 C   0  0  0  0  0  2  0  0  0  0  0  0
  191.2660  178.0380  144.5290 O   0  0  0  0  0  1  0  0  0  0  0  0
  189.2770  176.4810  142.4020 N   0  0  0  0  0  2  0  0  0  0  0  0
  188.5210  177.8980  140.5690 C   0  0  0  0  0  3  0  0  0  0  0  0
  188.6550  178.4130  139.2760 C   0  0  0  0  0  3  0  0  0  0  0  0
  189.7320  178.0230  138.4760 C   0  0  0  0  0  3  0  0  0  0  0  0
  190.5380  176.6020  140.2610 C   0  0  0  0  0  3  0  0  0  0  0  0
  190.6740  177.1170  138.9690 C   0  0  0  0  0  0  0  0  0  0  0  0
  191.7180  176.7350  138.1950 F   0  0  0  0  0  0  0  0  0  0  0  0
  189.4610  176.9920  141.0730 C   0  0  0  0  0  0  0  0  0  0  0  0
  184.9090  178.1380  143.9680 C   0  0  0  0  0  2  0  0  0  0  0  0
  184.8470  179.2830  142.9740 C   0  0  0  0  0  2  0  0  0  0  0  0
  184.3150  178.7850  141.6800 C   0  0  0  0  0  3  0  0  0  0  0  0
  184.9880  179.0040  140.5590 C   0  0  0  0  0  3  0  0  0  0  0  0
  183.1750  178.5670  138.8600 C   0  0  0  0  0  3  0  0  0  0  0  0
  183.2260  178.0040  137.5940 C   0  0  0  0  0  3  0  0  0  0  0  0
  184.5000  177.6640  137.3080 N   0  0  0  0  0  0  0  0  0  0  0  0
  185.2280  177.9890  138.3330 O   0  0  0  0  0  0  0  0  0  0  0  0
  184.4890  178.5240  139.2700 C   0  0  0  0  0  0  0  0  0  0  0  0
  1  4  2  0  0  0  0
  1  7  1  0  0  0  0
  3  5  1  0  0  0  0
  4  9  1  0  0  0  0
  5 10  1  0  0  0  0
  6 12  1  0  0  0  0
  6  3  1  0  0  0  0
  7  6  2  0  0  0  0
  8 10  1  0  0  0  0
  9 13  1  0  0  0  0
  9 12  2  0  0  0  0
 10  2  2  0  0  0  0
 11  3  2  0  0  0  0
 12  8  1  0  0  0  0
 14 13  1  0  0  0  0
 15  4  1  0  0  0  0
 16 22  1  0  0  0  0
 17 16  2  0  0  0  0
 18 20  2  0  0  0  0
 18 17  1  0  0  0  0
 19 22  2  0  0  0  0
 20 19  1  0  0  0  0
 21 20  1  0  0  0  0
 22 15  1  0  0  0  0
 23  7  1  0  0  0  0
 24 23  1  0  0  0  0
 25 24  1  0  0  0  0
 26 25  2  0  0  0  0
 27 31  2  0  0  0  0
 28 27  1  0  0  0  0
 29 28  2  0  0  0  0
 29 30  1  0  0  0  0
 30 31  1  0  0  0  0
 31 26  1  0  0  0  0
M  END
>  <MODEL>
7

>  <REMARK>
 VINA RESULT:      -9.1      2.322      6.545
  Name = 
  7 active torsions:
  status: ('A' for Active; 'I' for Inactive)
    1  A    between atoms: N_4  and  C_8
    2  A    between atoms: N_4  and  C_30
    3  A    between atoms: C_12  and  C_20
    4  A    between atoms: C_12  and  C_28
    5  A    between atoms: C_14  and  C_28
    6  A    between atoms: C_16  and  C_22
    7  A    between atoms: C_19  and  C_24
                            x       y       z     vdW  Elec       q    Type
                         _______ _______ _______ _____ _____    ______ ____

>  <TORSDO>
F 7

$$$$
=
 OpenBabel10222421433D

 31 34  0  0  0  0  0  0  0  0999 V2000
  187.8990  178.0370  142.0800 C   0  0  0  0  0  3  0  0  0  0  0  0
  187.9280  176.8510  136.0470 O   0  0  0  0  0  0  0  0  0  0  0  0
  189.8840  177.5800  138.8460 C   0  0  0  0  0  0  0  0  0  0  0  0
  186.6140  178.2920  141.5990 C   0  0  0  0  0  0  0  0  0  0  0  0
  189.6770  177.7040  137.3700 C   0  0  0  0  0  2  0  0  0  0  0  0
  188.7710  177.8420  139.8140 C   0  0  0  0  0  0  0  0  0  0  0  0
  188.9700  177.8120  141.2180 C   0  0  0  0  0  0  0  0  0  0  0  0
  187.1950  178.1970  137.8330 C   0  0  0  0  0  2  0  0  0  0  0  0
  186.3940  178.3170  140.2130 C   0  0  0  0  0  0  0  0  0  0  0  0
  188.2420  177.5080  137.0240 C   0  0  0  0  0  0  0  0  0  0  0  0
  191.0360  177.2650  139.2460 O   0  0  0  0  0  0  0  0  0  0  0  0
  187.4640  178.0970  139.3160 C   0  0  0  0  0  0  0  0  0  0  0  0
  185.0190  178.6170  139.6940 C   0  0  0  0  0  2  0  0  0  0  0  0
  184.8610  179.9950  139.5480 O   0  0  0  0  0  1  0  0  0  0  0  0
  185.5110  178.5180  142.4960 N   0  0  0  0  0  2  0  0  0  0  0  0
  184.3610  178.8930  144.6120 C   0  0  0  0  0  3  0  0  0  0  0  0
  184.2930  178.8150  146.0070 C   0  0  0  0  0  3  0  0  0  0  0  0
  185.3490  178.2510  146.7270 C   0  0  0  0  0  3  0  0  0  0  0  0
  186.5390  177.8460  144.6590 C   0  0  0  0  0  3  0  0  0  0  0  0
  186.4730  177.7660  146.0530 C   0  0  0  0  0  0  0  0  0  0  0  0
  187.4990  177.2200  146.7490 F   0  0  0  0  0  0  0  0  0  0  0  0
  185.4810  178.4070  143.9280 C   0  0  0  0  0  0  0  0  0  0  0  0
  190.3050  177.5850  141.8510 C   0  0  0  0  0  2  0  0  0  0  0  0
  190.5110  178.5560  142.9980 C   0  0  0  0  0  2  0  0  0  0  0  0
  191.2780  177.8870  144.0800 C   0  0  0  0  0  3  0  0  0  0  0  0
  190.6670  177.5300  145.2010 C   0  0  0  0  0  3  0  0  0  0  0  0
  192.0250  175.6460  146.1890 C   0  0  0  0  0  3  0  0  0  0  0  0
  192.5550  175.4690  147.4580 C   0  0  0  0  0  3  0  0  0  0  0  0
  192.2430  176.5350  148.2230 N   0  0  0  0  0  0  0  0  0  0  0  0
  191.5500  177.3520  147.4890 O   0  0  0  0  0  0  0  0  0  0  0  0
  191.3970  176.8680  146.2830 C   0  0  0  0  0  0  0  0  0  0  0  0
  2 10  2  0  0  0  0
  3 11  2  0  0  0  0
  3  6  1  0  0  0  0
  4  1  1  0  0  0  0
  4 15  1  0  0  0  0
  5  3  1  0  0  0  0
  6  7  1  0  0  0  0
  7 23  1  0  0  0  0
  7  1  2  0  0  0  0
  8 12  1  0  0  0  0
  9  4  2  0  0  0  0
 10  5  1  0  0  0  0
 10  8  1  0  0  0  0
 12  6  2  0  0  0  0
 12  9  1  0  0  0  0
 13  9  1  0  0  0  0
 14 13  1  0  0  0  0
 15 22  1  0  0  0  0
 16 17  1  0  0  0  0
 17 18  2  0  0  0  0
 19 20  2  0  0  0  0
 20 18  1  0  0  0  0
 20 21  1  0  0  0  0
 22 16  2  0  0  0  0
 22 19  1  0  0  0  0
 23 24  1  0  0  0  0
 24 25  1  0  0  0  0
 25 26  2  0  0  0  0
 26 31  1  0  0  0  0
 27 31  2  0  0  0  0
 27 28  1  0  0  0  0
 28 29  2  0  0  0  0
 30 29  1  0  0  0  0
 31 30  1  0  0  0  0
M  END
>  <MODEL>
8

>  <REMARK>
 VINA RESULT:      -8.9      2.428      5.770
  Name = 
  7 active torsions:
  status: ('A' for Active; 'I' for Inactive)
    1  A    between atoms: N_4  and  C_8
    2  A    between atoms: N_4  and  C_30
    3  A    between atoms: C_12  and  C_20
    4  A    between atoms: C_12  and  C_28
    5  A    between atoms: C_14  and  C_28
    6  A    between atoms: C_16  and  C_22
    7  A    between atoms: C_19  and  C_24
                            x       y       z     vdW  Elec       q    Type
                         _______ _______ _______ _____ _____    ______ ____

>  <TORSDO>
F 7

$$$$
=
 OpenBabel10222421433D

 31 34  0  0  0  0  0  0  0  0999 V2000
  185.3710  179.2090  142.8210 C   0  0  0  0  0  3  0  0  0  0  0  0
  180.1920  179.0870  139.5090 O   0  0  0  0  0  0  0  0  0  0  0  0
  181.5660  178.8700  142.7120 C   0  0  0  0  0  0  0  0  0  0  0  0
  185.7270  178.9240  141.5020 C   0  0  0  0  0  0  0  0  0  0  0  0
  180.5000  178.4460  141.7520 C   0  0  0  0  0  2  0  0  0  0  0  0
  183.0110  178.8750  142.3180 C   0  0  0  0  0  0  0  0  0  0  0  0
  184.0420  179.1920  143.2390 C   0  0  0  0  0  0  0  0  0  0  0  0
  182.3210  178.1890  139.9550 C   0  0  0  0  0  2  0  0  0  0  0  0
  184.7200  178.6170  140.5730 C   0  0  0  0  0  0  0  0  0  0  0  0
  180.9540  178.6370  140.3470 C   0  0  0  0  0  0  0  0  0  0  0  0
  181.2040  179.2030  143.8710 O   0  0  0  0  0  0  0  0  0  0  0  0
  183.3650  178.5870  140.9710 C   0  0  0  0  0  0  0  0  0  0  0  0
  185.1030  178.2830  139.1610 C   0  0  0  0  0  2  0  0  0  0  0  0
  185.2220  179.4570  138.4160 O   0  0  0  0  0  1  0  0  0  0  0  0
  187.1020  178.9490  141.0760 N   0  0  0  0  0  2  0  0  0  0  0  0
  188.1220  177.3900  142.6460 C   0  0  0  0  0  3  0  0  0  0  0  0
  189.1370  176.5010  143.0150 C   0  0  0  0  0  3  0  0  0  0  0  0
  190.2020  176.2570  142.1430 C   0  0  0  0  0  3  0  0  0  0  0  0
  189.2370  177.7900  140.5390 C   0  0  0  0  0  3  0  0  0  0  0  0
  190.2520  176.9010  140.9050 C   0  0  0  0  0  0  0  0  0  0  0  0
  191.2830  176.6680  140.0590 F   0  0  0  0  0  0  0  0  0  0  0  0
  188.1610  178.0370  141.4070 C   0  0  0  0  0  0  0  0  0  0  0  0
  183.7900  179.4810  144.6840 C   0  0  0  0  0  2  0  0  0  0  0  0
  183.9940  178.2250  145.5100 C   0  0  0  0  0  2  0  0  0  0  0  0
  185.2340  178.3610  146.3160 C   0  0  0  0  0  3  0  0  0  0  0  0
  186.2930  177.6160  146.0340 C   0  0  0  0  0  3  0  0  0  0  0  0
  187.6450  178.3490  148.0350 C   0  0  0  0  0  3  0  0  0  0  0  0
  188.9880  178.1880  148.3390 C   0  0  0  0  0  3  0  0  0  0  0  0
  189.5940  177.5140  147.3390 N   0  0  0  0  0  0  0  0  0  0  0  0
  188.6920  177.2560  146.4420 O   0  0  0  0  0  0  0  0  0  0  0  0
  187.5290  177.7290  146.8100 C   0  0  0  0  0  0  0  0  0  0  0  0
  1  7  1  0  0  0  0
  2 10  2  0  0  0  0
  3 11  2  0  0  0  0
  4  1  2  0  0  0  0
  5  3  1  0  0  0  0
  6  3  1  0  0  0  0
  6  7  2  0  0  0  0
  7 23  1  0  0  0  0
  8 10  1  0  0  0  0
  8 12  1  0  0  0  0
  9 12  2  0  0  0  0
  9  4  1  0  0  0  0
 10  5  1  0  0  0  0
 12  6  1  0  0  0  0
 13  9  1  0  0  0  0
 14 13  1  0  0  0  0
 15 22  1  0  0  0  0
 15  4  1  0  0  0  0
 16 17  1  0  0  0  0
 18 17  2  0  0  0  0
 19 20  2  0  0  0  0
 19 22  1  0  0  0  0
 20 18  1  0  0  0  0
 21 20  1  0  0  0  0
 22 16  2  0  0  0  0
 23 24  1  0  0  0  0
 24 25  1  0  0  0  0
 26 25  2  0  0  0  0
 26 31  1  0  0  0  0
 27 28  1  0  0  0  0
 29 28  2  0  0  0  0
 30 31  1  0  0  0  0
 30 29  1  0  0  0  0
 31 27  2  0  0  0  0
M  END
>  <MODEL>
9

>  <REMARK>
 VINA RESULT:      -8.9      1.544      2.131
  Name = 
  7 active torsions:
  status: ('A' for Active; 'I' for Inactive)
    1  A    between atoms: N_4  and  C_8
    2  A    between atoms: N_4  and  C_30
    3  A    between atoms: C_12  and  C_20
    4  A    between atoms: C_12  and  C_28
    5  A    between atoms: C_14  and  C_28
    6  A    between atoms: C_16  and  C_22
    7  A    between atoms: C_19  and  C_24
                            x       y       z     vdW  Elec       q    Type
                         _______ _______ _______ _____ _____    ______ ____

>  <TORSDO>
F 7

$$$$
