=
 OpenBabel10232411113D

 36 40  0  0  1  0  0  0  0  0999 V2000
  187.8430  177.6310  137.1130 C   0  0  1  0  0  3  0  0  0  0  0  0
  190.7150  173.9210  136.8750 C   0  0  0  0  0  3  0  0  0  0  0  0
  192.0000  176.2770  138.4300 N   0  0  0  0  0  0  0  0  0  0  0  0
  196.5100  174.7370  135.5220 C   0  0  0  0  0  1  0  0  0  0  0  0
  185.2830  177.6160  137.3940 C   0  0  0  0  0  2  0  0  0  0  0  0
  188.7600  177.8710  138.3010 C   0  0  0  0  0  2  0  0  0  0  0  0
  191.8970  174.5290  136.7320 C   0  0  0  0  0  0  0  0  0  0  0  0
  190.0760  177.4870  137.9420 O   0  0  0  0  0  0  0  0  0  0  0  0
  195.2980  173.9520  135.6740 N   0  0  0  0  0  2  0  0  0  0  0  0
  192.1650  175.9770  137.0120 C   0  0  2  0  0  3  0  0  0  0  0  0
  188.7960  175.4090  136.2970 C   0  0  0  0  0  2  0  0  0  0  0  0
  193.0170  173.8010  136.2590 N   0  0  0  0  0  0  0  0  0  0  0  0
  187.5910  176.1170  136.9010 C   0  0  2  0  0  3  0  0  0  0  0  0
  194.0720  174.5260  136.1280 C   0  0  0  0  0  0  0  0  0  0  0  0
  186.5540  178.4660  137.2830 C   0  0  0  0  0  2  0  0  0  0  0  0
  186.3720  175.8780  136.0560 C   0  0  0  0  0  3  0  0  0  0  0  0
  185.2640  176.5890  136.3000 C   0  0  0  0  0  0  0  0  0  0  0  0
  193.9060  176.2660  136.5400 S   0  0  0  0  0  0  0  0  0  0  0  0
  189.4720  174.5820  137.3780 C   0  0  0  0  0  2  0  0  0  0  0  0
  191.0030  176.9890  138.8600 C   0  0  0  0  0  0  0  0  0  0  0  0
  190.1230  176.4600  141.0940 C   0  0  0  0  0  3  0  0  0  0  0  0
  190.8430  177.2500  140.3010 C   0  0  0  0  0  3  0  0  0  0  0  0
  189.7420  177.2350  145.2790 C   0  0  0  0  0  0  0  0  0  0  0  0
  188.7240  176.6100  143.1730 C   0  0  0  0  0  3  0  0  0  0  0  0
  190.9850  177.3360  144.6470 C   0  0  0  0  0  3  0  0  0  0  0  0
  191.0980  177.0760  143.2780 C   0  0  0  0  0  3  0  0  0  0  0  0
  189.9710  176.7120  142.5330 C   0  0  0  0  0  0  0  0  0  0  0  0
  189.6190  177.5220  146.7330 C   0  0  0  0  0  1  0  0  0  0  0  0
  188.6110  176.8700  144.5410 C   0  0  0  0  0  3  0  0  0  0  0  0
  184.0290  176.3840  135.4860 C   0  0  0  0  0  2  0  0  0  0  0  0
  182.1400  174.8650  135.2300 C   0  0  0  0  0  2  0  0  0  0  0  0
  183.2980  174.0740  135.6710 N   0  0  0  0  0  0  0  0  0  0  0  0
  183.0780  175.4320  136.1900 C   0  0  1  0  0  3  0  0  0  0  0  0
  182.8220  173.1600  136.6960 C   0  0  0  0  0  2  0  0  0  0  0  0
  183.9090  172.1590  137.0460 C   0  0  0  0  0  2  0  0  0  0  0  0
  185.0560  172.8520  137.7650 C   0  0  0  0  0  1  0  0  0  0  0  0
  1 15  1  1  0  0  0
  1  6  1  0  0  0  0
  2 19  1  0  0  0  0
  3 20  2  0  0  0  0
  4  9  1  0  0  0  0
  7  2  2  0  0  0  0
  7 10  1  0  0  0  0
  8  6  1  0  0  0  0
  8 20  1  0  0  0  0
  9 14  1  0  0  0  0
 10 18  1  1  0  0  0
 10  3  1  0  0  0  0
 11 13  1  0  0  0  0
 11 19  1  0  0  0  0
 12  7  1  0  0  0  0
 13 16  1  6  0  0  0
 13  1  1  0  0  0  0
 14 12  2  0  0  0  0
 14 18  1  0  0  0  0
 15  5  1  0  0  0  0
 16 17  2  0  0  0  0
 17  5  1  0  0  0  0
 20 22  1  0  0  0  0
 21 27  1  0  0  0  0
 22 21  2  0  0  0  0
 23 28  1  0  0  0  0
 24 29  1  0  0  0  0
 25 23  1  0  0  0  0
 26 25  2  0  0  0  0
 27 24  2  0  0  0  0
 27 26  1  0  0  0  0
 29 23  2  0  0  0  0
 30 17  1  0  0  0  0
 31 32  1  0  0  0  0
 31 33  1  0  0  0  0
 32 33  1  0  0  0  0
 32 34  1  0  0  0  0
 33 30  1  6  0  0  0
 34 35  1  0  0  0  0
 35 36  1  0  0  0  0
M  END
>  <MODEL>
1

>  <REMARK>
 VINA RESULT:      -7.6      0.000      0.000
  Name = 
  6 active torsions:
  status: ('A' for Active; 'I' for Inactive)
    1  A    between atoms: C_1  and  C_11
    2  A    between atoms: C_11  and  N_23
    3  A    between atoms: C_16  and  C_22
    4  A    between atoms: C_21  and  C_35
    5  A    between atoms: C_26  and  C_32
    6  A    between atoms: C_30  and  C_32
                            x       y       z     vdW  Elec       q    Type
                         _______ _______ _______ _____ _____    ______ ____

>  <TORSDO>
F 6

$$$$
=
 OpenBabel10232411113D

 36 40  0  0  1  0  0  0  0  0999 V2000
  187.0210  178.6630  142.2970 C   0  0  1  0  0  3  0  0  0  0  0  0
  182.5020  178.2770  141.0700 C   0  0  0  0  0  3  0  0  0  0  0  0
  184.2950  179.0210  138.6510 N   0  0  0  0  0  0  0  0  0  0  0  0
  180.0290  182.4370  137.5120 C   0  0  0  0  0  1  0  0  0  0  0  0
  188.3090  177.2290  144.0040 C   0  0  0  0  0  2  0  0  0  0  0  0
  187.1260  178.3890  140.8060 C   0  0  0  0  0  2  0  0  0  0  0  0
  182.4030  179.2610  140.1700 C   0  0  0  0  0  0  0  0  0  0  0  0
  186.0760  179.0740  140.1440 O   0  0  0  0  0  0  0  0  0  0  0  0
  179.9980  181.3390  138.4620 N   0  0  0  0  0  2  0  0  0  0  0  0
  183.5580  179.9460  139.5050 C   0  0  2  0  0  3  0  0  0  0  0  0
  184.4860  178.5400  142.5630 C   0  0  0  0  0  2  0  0  0  0  0  0
  181.1280  179.7530  139.7960 N   0  0  0  0  0  0  0  0  0  0  0  0
  185.8230  177.9040  142.9200 C   0  0  2  0  0  3  0  0  0  0  0  0
  181.1900  180.7290  138.9590 C   0  0  0  0  0  0  0  0  0  0  0  0
  188.3770  178.3590  142.9710 C   0  0  0  0  0  2  0  0  0  0  0  0
  185.9610  177.7920  144.4120 C   0  0  0  0  0  3  0  0  0  0  0  0
  187.1500  177.4580  144.9290 C   0  0  0  0  0  0  0  0  0  0  0  0
  182.8330  181.2640  138.4700 S   0  0  0  0  0  0  0  0  0  0  0  0
  183.7890  177.6700  141.5300 C   0  0  0  0  0  2  0  0  0  0  0  0
  185.4860  178.6090  138.9660 C   0  0  0  0  0  0  0  0  0  0  0  0
  187.4370  177.8620  137.6710 C   0  0  0  0  0  3  0  0  0  0  0  0
  186.1950  177.6510  138.1010 C   0  0  0  0  0  3  0  0  0  0  0  0
  189.4640  175.0210  135.2060 C   0  0  0  0  0  0  0  0  0  0  0  0
  188.9420  177.3250  135.7350 C   0  0  0  0  0  3  0  0  0  0  0  0
  188.6790  174.5960  136.2830 C   0  0  0  0  0  3  0  0  0  0  0  0
  188.0250  175.5360  137.0850 C   0  0  0  0  0  3  0  0  0  0  0  0
  188.1510  176.9030  136.8170 C   0  0  0  0  0  0  0  0  0  0  0  0
  190.1530  174.0220  134.3460 C   0  0  0  0  0  1  0  0  0  0  0  0
  189.5960  176.3860  134.9330 C   0  0  0  0  0  3  0  0  0  0  0  0
  187.3330  177.3350  146.4060 C   0  0  0  0  0  2  0  0  0  0  0  0
  188.7790  177.9320  148.2750 C   0  0  0  0  0  2  0  0  0  0  0  0
  189.4140  176.8220  147.5510 N   0  0  0  0  0  0  0  0  0  0  0  0
  188.6900  177.8740  146.8220 C   0  0  1  0  0  3  0  0  0  0  0  0
  190.8280  177.1420  147.4390 C   0  0  0  0  0  2  0  0  0  0  0  0
  191.6100  175.9070  147.0280 C   0  0  0  0  0  2  0  0  0  0  0  0
  192.6250  175.5410  148.0980 C   0  0  0  0  0  1  0  0  0  0  0  0
  1  6  1  6  0  0  0
  1 13  1  0  0  0  0
  1 15  1  0  0  0  0
  2 19  1  0  0  0  0
  3 20  2  0  0  0  0
  3 10  1  0  0  0  0
  4  9  1  0  0  0  0
  5 17  1  0  0  0  0
  7  2  2  0  0  0  0
  8  6  1  0  0  0  0
  9 14  1  0  0  0  0
 10 18  1  6  0  0  0
 10  7  1  0  0  0  0
 12  7  1  0  0  0  0
 13 11  1  1  0  0  0
 13 16  1  0  0  0  0
 14 12  2  0  0  0  0
 15  5  1  0  0  0  0
 16 17  2  0  0  0  0
 17 30  1  0  0  0  0
 18 14  1  0  0  0  0
 19 11  1  0  0  0  0
 20  8  1  0  0  0  0
 21 22  2  0  0  0  0
 22 20  1  0  0  0  0
 23 25  1  0  0  0  0
 24 27  2  0  0  0  0
 25 26  2  0  0  0  0
 27 26  1  0  0  0  0
 27 21  1  0  0  0  0
 28 23  1  0  0  0  0
 29 23  2  0  0  0  0
 29 24  1  0  0  0  0
 32 31  1  0  0  0  0
 33 30  1  1  0  0  0
 33 32  1  0  0  0  0
 33 31  1  0  0  0  0
 34 32  1  0  0  0  0
 35 34  1  0  0  0  0
 35 36  1  0  0  0  0
M  END
>  <MODEL>
2

>  <REMARK>
 VINA RESULT:      -7.5      4.859     10.474
  Name = 
  6 active torsions:
  status: ('A' for Active; 'I' for Inactive)
    1  A    between atoms: C_1  and  C_11
    2  A    between atoms: C_11  and  N_23
    3  A    between atoms: C_16  and  C_22
    4  A    between atoms: C_21  and  C_35
    5  A    between atoms: C_26  and  C_32
    6  A    between atoms: C_30  and  C_32
                            x       y       z     vdW  Elec       q    Type
                         _______ _______ _______ _____ _____    ______ ____

>  <TORSDO>
F 6

$$$$
=
 OpenBabel10232411113D

 36 40  0  0  1  0  0  0  0  0999 V2000
  184.9600  178.1000  142.8750 C   0  0  1  0  0  3  0  0  0  0  0  0
  188.4080  178.1920  139.6850 C   0  0  0  0  0  3  0  0  0  0  0  0
  185.6100  178.4120  138.3650 N   0  0  0  0  0  0  0  0  0  0  0  0
  187.9110  174.9030  134.6840 C   0  0  0  0  0  1  0  0  0  0  0  0
  184.9680  179.1590  145.2220 C   0  0  0  0  0  2  0  0  0  0  0  0
  184.2830  178.7950  141.7050 C   0  0  0  0  0  2  0  0  0  0  0  0
  187.8470  177.4970  138.6910 C   0  0  0  0  0  0  0  0  0  0  0  0
  184.7200  178.1870  140.5010 O   0  0  0  0  0  0  0  0  0  0  0  0
  188.6360  175.6730  135.6790 N   0  0  0  0  0  2  0  0  0  0  0  0
  186.3850  177.1920  138.5650 C   0  0  2  0  0  3  0  0  0  0  0  0
  187.2910  177.7950  141.8820 C   0  0  0  0  0  2  0  0  0  0  0  0
  188.6540  176.9600  137.6570 N   0  0  0  0  0  0  0  0  0  0  0  0
  186.4590  178.4820  142.9570 C   0  0  2  0  0  3  0  0  0  0  0  0
  187.9840  176.2770  136.7970 C   0  0  0  0  0  0  0  0  0  0  0  0
  184.1660  178.3860  144.1690 C   0  0  0  0  0  2  0  0  0  0  0  0
  187.0250  178.1880  144.3170 C   0  0  0  0  0  3  0  0  0  0  0  0
  186.3140  178.5230  145.4010 C   0  0  0  0  0  0  0  0  0  0  0  0
  186.2180  176.1320  137.0870 S   0  0  0  0  0  0  0  0  0  0  0  0
  187.6570  178.8160  140.8180 C   0  0  0  0  0  2  0  0  0  0  0  0
  184.8290  178.8780  139.2920 C   0  0  0  0  0  0  0  0  0  0  0  0
  182.8380  180.1430  138.6030 C   0  0  0  0  0  3  0  0  0  0  0  0
  184.0820  180.1280  139.0760 C   0  0  0  0  0  3  0  0  0  0  0  0
  180.7100  183.7940  137.9660 C   0  0  0  0  0  0  0  0  0  0  0  0
  180.6820  181.4020  138.3380 C   0  0  0  0  0  3  0  0  0  0  0  0
  182.1080  183.7860  138.0250 C   0  0  0  0  0  3  0  0  0  0  0  0
  182.7920  182.5860  138.2380 C   0  0  0  0  0  3  0  0  0  0  0  0
  182.0850  181.3880  138.3950 C   0  0  0  0  0  0  0  0  0  0  0  0
  179.9820  185.0690  137.7300 C   0  0  0  0  0  1  0  0  0  0  0  0
  179.9970  182.6020  138.1250 C   0  0  0  0  0  3  0  0  0  0  0  0
  186.8380  178.2500  146.7720 C   0  0  0  0  0  2  0  0  0  0  0  0
  188.8910  178.0300  148.0700 C   0  0  0  0  0  2  0  0  0  0  0  0
  188.5960  176.7220  147.4670 N   0  0  0  0  0  0  0  0  0  0  0  0
  188.3290  177.9640  146.7270 C   0  0  1  0  0  3  0  0  0  0  0  0
  189.8520  176.1990  146.9540 C   0  0  0  0  0  2  0  0  0  0  0  0
  191.0190  176.8850  147.6410 C   0  0  0  0  0  2  0  0  0  0  0  0
  192.2540  175.9990  147.6020 C   0  0  0  0  0  1  0  0  0  0  0  0
  1  6  1  6  0  0  0
  1 13  1  0  0  0  0
  1 15  1  0  0  0  0
  2 19  1  0  0  0  0
  3 10  1  0  0  0  0
  3 20  2  0  0  0  0
  4  9  1  0  0  0  0
  5 17  1  0  0  0  0
  7  2  2  0  0  0  0
  8  6  1  0  0  0  0
  9 14  1  0  0  0  0
 10 18  1  6  0  0  0
 10  7  1  0  0  0  0
 12  7  1  0  0  0  0
 13 11  1  6  0  0  0
 13 16  1  0  0  0  0
 14 18  1  0  0  0  0
 14 12  2  0  0  0  0
 15  5  1  0  0  0  0
 16 17  2  0  0  0  0
 17 30  1  0  0  0  0
 19 11  1  0  0  0  0
 20  8  1  0  0  0  0
 21 22  2  0  0  0  0
 22 20  1  0  0  0  0
 23 25  2  0  0  0  0
 23 29  1  0  0  0  0
 24 27  1  0  0  0  0
 25 26  1  0  0  0  0
 26 27  2  0  0  0  0
 27 21  1  0  0  0  0
 28 23  1  0  0  0  0
 29 24  2  0  0  0  0
 32 31  1  0  0  0  0
 33 30  1  1  0  0  0
 33 32  1  0  0  0  0
 33 31  1  0  0  0  0
 34 32  1  0  0  0  0
 34 35  1  0  0  0  0
 36 35  1  0  0  0  0
M  END
>  <MODEL>
3

>  <REMARK>
 VINA RESULT:      -7.0      4.629      9.596
  Name = 
  6 active torsions:
  status: ('A' for Active; 'I' for Inactive)
    1  A    between atoms: C_1  and  C_11
    2  A    between atoms: C_11  and  N_23
    3  A    between atoms: C_16  and  C_22
    4  A    between atoms: C_21  and  C_35
    5  A    between atoms: C_26  and  C_32
    6  A    between atoms: C_30  and  C_32
                            x       y       z     vdW  Elec       q    Type
                         _______ _______ _______ _____ _____    ______ ____

>  <TORSDO>
F 6

$$$$
=
 OpenBabel10232411113D

 36 40  0  0  1  0  0  0  0  0999 V2000
  189.3860  178.3360  139.8740 C   0  0  1  0  0  3  0  0  0  0  0  0
  190.6110  175.4210  143.3490 C   0  0  0  0  0  3  0  0  0  0  0  0
  188.6240  177.5970  144.3160 N   0  0  0  0  0  0  0  0  0  0  0  0
  192.0270  177.6610  148.7400 C   0  0  0  0  0  1  0  0  0  0  0  0
  188.9890  177.7450  137.4000 C   0  0  0  0  0  2  0  0  0  0  0  0
  188.2220  178.4950  140.8380 C   0  0  0  0  0  2  0  0  0  0  0  0
  190.6690  176.2710  144.3800 C   0  0  0  0  0  0  0  0  0  0  0  0
  188.7240  178.4710  142.1640 O   0  0  0  0  0  0  0  0  0  0  0  0
  191.9990  176.6330  147.7140 N   0  0  0  0  0  2  0  0  0  0  0  0
  190.0790  177.6490  144.4000 C   0  0  2  0  0  3  0  0  0  0  0  0
  190.7370  176.5800  141.1420 C   0  0  0  0  0  2  0  0  0  0  0  0
  191.3520  175.9030  145.5660 N   0  0  0  0  0  0  0  0  0  0  0  0
  189.9270  176.8840  139.8890 C   0  0  2  0  0  3  0  0  0  0  0  0
  191.3650  176.8370  146.4510 C   0  0  0  0  0  0  0  0  0  0  0  0
  188.9650  178.8370  138.4760 C   0  0  0  0  0  2  0  0  0  0  0  0
  190.7420  176.5920  138.6610 C   0  0  0  0  0  3  0  0  0  0  0  0
  190.2870  176.9950  137.4690 C   0  0  0  0  0  0  0  0  0  0  0  0
  190.5580  178.3770  146.0050 S   0  0  0  0  0  0  0  0  0  0  0  0
  189.9080  175.6940  142.0580 C   0  0  0  0  0  2  0  0  0  0  0  0
  187.9920  177.9840  143.2490 C   0  0  0  0  0  0  0  0  0  0  0  0
  185.7320  178.9360  143.4120 C   0  0  0  0  0  3  0  0  0  0  0  0
  186.5240  177.8910  143.1790 C   0  0  0  0  0  3  0  0  0  0  0  0
  181.4670  178.7200  143.2510 C   0  0  0  0  0  0  0  0  0  0  0  0
  183.5960  178.7810  142.1010 C   0  0  0  0  0  3  0  0  0  0  0  0
  182.1300  178.7870  144.4810 C   0  0  0  0  0  3  0  0  0  0  0  0
  183.5260  178.8520  144.5200 C   0  0  0  0  0  3  0  0  0  0  0  0
  184.2670  178.8500  143.3330 C   0  0  0  0  0  0  0  0  0  0  0  0
  179.9820  178.6600  143.2080 C   0  0  0  0  0  1  0  0  0  0  0  0
  182.2010  178.7160  142.0610 C   0  0  0  0  0  3  0  0  0  0  0  0
  191.0640  176.7250  136.2230 C   0  0  0  0  0  2  0  0  0  0  0  0
  192.4990  174.9570  135.3520 C   0  0  0  0  0  2  0  0  0  0  0  0
  193.3390  176.1360  135.6070 N   0  0  0  0  0  0  0  0  0  0  0  0
  192.2310  175.7970  136.5120 C   0  0  1  0  0  3  0  0  0  0  0  0
  194.5540  175.6580  136.2500 C   0  0  0  0  0  2  0  0  0  0  0  0
  195.7630  176.0170  135.4050 C   0  0  0  0  0  2  0  0  0  0  0  0
  195.6230  177.4240  134.8460 C   0  0  0  0  0  1  0  0  0  0  0  0
  1 15  1  6  0  0  0
  1 13  1  0  0  0  0
  1  6  1  0  0  0  0
  2  7  2  0  0  0  0
  5 17  1  0  0  0  0
  5 15  1  0  0  0  0
  6  8  1  0  0  0  0
  7 10  1  0  0  0  0
  7 12  1  0  0  0  0
  8 20  1  0  0  0  0
  9  4  1  0  0  0  0
 10  3  1  1  0  0  0
 10 18  1  0  0  0  0
 11 19  1  0  0  0  0
 12 14  2  0  0  0  0
 13 16  1  6  0  0  0
 13 11  1  0  0  0  0
 14  9  1  0  0  0  0
 17 16  2  0  0  0  0
 18 14  1  0  0  0  0
 19  2  1  0  0  0  0
 20  3  2  0  0  0  0
 22 20  1  0  0  0  0
 22 21  2  0  0  0  0
 23 25  1  0  0  0  0
 24 27  2  0  0  0  0
 25 26  2  0  0  0  0
 27 21  1  0  0  0  0
 27 26  1  0  0  0  0
 28 23  1  0  0  0  0
 29 24  1  0  0  0  0
 29 23  2  0  0  0  0
 30 17  1  0  0  0  0
 31 32  1  0  0  0  0
 31 33  1  0  0  0  0
 32 34  1  0  0  0  0
 32 33  1  0  0  0  0
 33 30  1  6  0  0  0
 35 34  1  0  0  0  0
 36 35  1  0  0  0  0
M  END
>  <MODEL>
4

>  <REMARK>
 VINA RESULT:      -6.4      4.299      8.170
  Name = 
  6 active torsions:
  status: ('A' for Active; 'I' for Inactive)
    1  A    between atoms: C_1  and  C_11
    2  A    between atoms: C_11  and  N_23
    3  A    between atoms: C_16  and  C_22
    4  A    between atoms: C_21  and  C_35
    5  A    between atoms: C_26  and  C_32
    6  A    between atoms: C_30  and  C_32
                            x       y       z     vdW  Elec       q    Type
                         _______ _______ _______ _____ _____    ______ ____

>  <TORSDO>
F 6

$$$$
=
 OpenBabel10232411113D

 36 40  0  0  1  0  0  0  0  0999 V2000
  188.0500  175.6550  136.8640 C   0  0  1  0  0  3  0  0  0  0  0  0
  188.6810  178.7840  140.3120 C   0  0  0  0  0  3  0  0  0  0  0  0
  191.0230  176.7570  140.1510 N   0  0  0  0  0  0  0  0  0  0  0  0
  190.5380  176.9160  145.7100 C   0  0  0  0  0  1  0  0  0  0  0  0
  187.0160  176.0690  134.5420 C   0  0  0  0  0  2  0  0  0  0  0  0
  189.5580  175.6100  137.0530 C   0  0  0  0  0  2  0  0  0  0  0  0
  189.2440  178.0140  141.2480 C   0  0  0  0  0  0  0  0  0  0  0  0
  189.8450  175.7190  138.4370 O   0  0  0  0  0  0  0  0  0  0  0  0
  189.9400  177.8620  144.7850 N   0  0  0  0  0  2  0  0  0  0  0  0
  189.8480  176.6630  141.0100 C   0  0  2  0  0  3  0  0  0  0  0  0
  187.4720  177.4560  138.5770 C   0  0  0  0  0  2  0  0  0  0  0  0
  189.2800  178.4480  142.5960 N   0  0  0  0  0  0  0  0  0  0  0  0
  187.5020  177.0850  137.1010 C   0  0  2  0  0  3  0  0  0  0  0  0
  189.8090  177.5840  143.3910 C   0  0  0  0  0  0  0  0  0  0  0  0
  187.6890  175.0640  135.4840 C   0  0  0  0  0  2  0  0  0  0  0  0
  186.1380  177.2550  136.4960 C   0  0  0  0  0  3  0  0  0  0  0  0
  185.9090  176.7780  135.2660 C   0  0  0  0  0  0  0  0  0  0  0  0
  190.3570  176.0430  142.6510 S   0  0  0  0  0  0  0  0  0  0  0  0
  188.5990  178.4370  138.8590 C   0  0  0  0  0  2  0  0  0  0  0  0
  191.0090  176.3120  138.9310 C   0  0  0  0  0  0  0  0  0  0  0  0
  192.9660  175.4100  137.7480 C   0  0  0  0  0  3  0  0  0  0  0  0
  192.2000  176.4480  138.0750 C   0  0  0  0  0  3  0  0  0  0  0  0
  196.4230  175.7150  135.2550 C   0  0  0  0  0  0  0  0  0  0  0  0
  194.2280  176.5220  135.8850 C   0  0  0  0  0  3  0  0  0  0  0  0
  196.3490  174.7380  136.2520 C   0  0  0  0  0  3  0  0  0  0  0  0
  195.2150  174.6510  137.0650 C   0  0  0  0  0  3  0  0  0  0  0  0
  194.1490  175.5400  136.8860 C   0  0  0  0  0  0  0  0  0  0  0  0
  197.6250  175.8030  134.3840 C   0  0  0  0  0  1  0  0  0  0  0  0
  195.3620  176.6080  135.0720 C   0  0  0  0  0  3  0  0  0  0  0  0
  184.5680  176.9250  134.6260 C   0  0  0  0  0  2  0  0  0  0  0  0
  182.1900  176.8480  135.1560 C   0  0  0  0  0  2  0  0  0  0  0  0
  182.8860  175.9290  136.0690 N   0  0  0  0  0  0  0  0  0  0  0  0
  183.5050  177.2030  135.6740 C   0  0  1  0  0  3  0  0  0  0  0  0
  182.3210  176.1390  137.3920 C   0  0  0  0  0  2  0  0  0  0  0  0
  183.0620  175.2940  138.4130 C   0  0  0  0  0  2  0  0  0  0  0  0
  184.0630  174.3810  137.7220 C   0  0  0  0  0  1  0  0  0  0  0  0
  1 15  1  6  0  0  0
  1  6  1  0  0  0  0
  1 13  1  0  0  0  0
  2  7  2  0  0  0  0
  5 17  1  0  0  0  0
  5 15  1  0  0  0  0
  6  8  1  0  0  0  0
  7 12  1  0  0  0  0
  8 20  1  0  0  0  0
  9  4  1  0  0  0  0
 10  3  1  6  0  0  0
 10  7  1  0  0  0  0
 10 18  1  0  0  0  0
 11 19  1  0  0  0  0
 12 14  2  0  0  0  0
 13 16  1  1  0  0  0
 13 11  1  0  0  0  0
 14  9  1  0  0  0  0
 17 16  2  0  0  0  0
 18 14  1  0  0  0  0
 19  2  1  0  0  0  0
 20  3  2  0  0  0  0
 21 22  2  0  0  0  0
 22 20  1  0  0  0  0
 23 25  1  0  0  0  0
 24 27  2  0  0  0  0
 25 26  2  0  0  0  0
 27 26  1  0  0  0  0
 27 21  1  0  0  0  0
 28 23  1  0  0  0  0
 29 23  2  0  0  0  0
 29 24  1  0  0  0  0
 30 17  1  0  0  0  0
 31 33  1  0  0  0  0
 31 32  1  0  0  0  0
 32 34  1  0  0  0  0
 33 30  1  6  0  0  0
 33 32  1  0  0  0  0
 34 35  1  0  0  0  0
 36 35  1  0  0  0  0
M  END
>  <MODEL>
5

>  <REMARK>
 VINA RESULT:      -6.4      2.351      6.520
  Name = 
  6 active torsions:
  status: ('A' for Active; 'I' for Inactive)
    1  A    between atoms: C_1  and  C_11
    2  A    between atoms: C_11  and  N_23
    3  A    between atoms: C_16  and  C_22
    4  A    between atoms: C_21  and  C_35
    5  A    between atoms: C_26  and  C_32
    6  A    between atoms: C_30  and  C_32
                            x       y       z     vdW  Elec       q    Type
                         _______ _______ _______ _____ _____    ______ ____

>  <TORSDO>
F 6

$$$$
=
 OpenBabel10232411113D

 36 40  0  0  1  0  0  0  0  0999 V2000
  188.4240  178.3070  139.9510 C   0  0  1  0  0  3  0  0  0  0  0  0
  183.9290  178.3360  141.3200 C   0  0  0  0  0  3  0  0  0  0  0  0
  184.1940  178.2170  138.2320 N   0  0  0  0  0  0  0  0  0  0  0  0
  179.9910  181.8810  138.4910 C   0  0  0  0  0  1  0  0  0  0  0  0
  190.4050  177.1300  141.1010 C   0  0  0  0  0  2  0  0  0  0  0  0
  187.7300  177.6810  138.7520 C   0  0  0  0  0  2  0  0  0  0  0  0
  183.3810  179.0880  140.3590 C   0  0  0  0  0  0  0  0  0  0  0  0
  186.4940  178.3440  138.5460 O   0  0  0  0  0  0  0  0  0  0  0  0
  180.4540  181.0520  139.5900 N   0  0  0  0  0  2  0  0  0  0  0  0
  184.0220  179.4160  139.0440 C   0  0  2  0  0  3  0  0  0  0  0  0
  186.4030  178.6350  141.4750 C   0  0  0  0  0  2  0  0  0  0  0  0
  182.1030  179.6670  140.5550 N   0  0  0  0  0  0  0  0  0  0  0  0
  187.7240  177.9040  141.2730 C   0  0  2  0  0  3  0  0  0  0  0  0
  181.7240  180.4010  139.5680 C   0  0  0  0  0  0  0  0  0  0  0  0
  189.9300  177.9660  139.9070 C   0  0  0  0  0  2  0  0  0  0  0  0
  188.6230  178.1220  142.4570 C   0  0  0  0  0  3  0  0  0  0  0  0
  189.9040  177.7410  142.3770 C   0  0  0  0  0  0  0  0  0  0  0  0
  182.8710  180.5520  138.1940 S   0  0  0  0  0  0  0  0  0  0  0  0
  185.2620  177.6640  141.2190 C   0  0  0  0  0  2  0  0  0  0  0  0
  185.3700  177.7140  138.0070 C   0  0  0  0  0  0  0  0  0  0  0  0
  184.9240  175.3410  137.5470 C   0  0  0  0  0  3  0  0  0  0  0  0
  185.5130  176.4850  137.2080 C   0  0  0  0  0  3  0  0  0  0  0  0
  185.2400  171.7530  135.2490 C   0  0  0  0  0  0  0  0  0  0  0  0
  185.8320  174.0770  135.5780 C   0  0  0  0  0  3  0  0  0  0  0  0
  184.4670  171.7860  136.4140 C   0  0  0  0  0  3  0  0  0  0  0  0
  184.3750  172.9640  137.1600 C   0  0  0  0  0  3  0  0  0  0  0  0
  185.0550  174.1160  136.7470 C   0  0  0  0  0  0  0  0  0  0  0  0
  185.3310  170.5020  134.4500 C   0  0  0  0  0  1  0  0  0  0  0  0
  185.9240  172.8990  134.8320 C   0  0  0  0  0  3  0  0  0  0  0  0
  190.8330  177.9380  143.5290 C   0  0  0  0  0  2  0  0  0  0  0  0
  191.6070  176.9030  145.5970 C   0  0  0  0  0  2  0  0  0  0  0  0
  190.4330  177.7280  145.9170 N   0  0  0  0  0  0  0  0  0  0  0  0
  190.4970  176.9750  144.6550 C   0  0  1  0  0  3  0  0  0  0  0  0
  189.6010  176.9480  146.8190 C   0  0  0  0  0  2  0  0  0  0  0  0
  189.4670  177.6640  148.1520 C   0  0  0  0  0  2  0  0  0  0  0  0
  188.0210  178.0610  148.3980 C   0  0  0  0  0  1  0  0  0  0  0  0
  1  6  1  6  0  0  0
  1 13  1  0  0  0  0
  3 10  1  0  0  0  0
  4  9  1  0  0  0  0
  5 17  1  0  0  0  0
  7 12  1  0  0  0  0
  7  2  2  0  0  0  0
  8  6  1  0  0  0  0
 10 18  1  6  0  0  0
 10  7  1  0  0  0  0
 13 11  1  1  0  0  0
 13 16  1  0  0  0  0
 14  9  1  0  0  0  0
 14 12  2  0  0  0  0
 15  1  1  0  0  0  0
 15  5  1  0  0  0  0
 17 16  2  0  0  0  0
 17 30  1  0  0  0  0
 18 14  1  0  0  0  0
 19  2  1  0  0  0  0
 19 11  1  0  0  0  0
 20  3  2  0  0  0  0
 20  8  1  0  0  0  0
 22 21  2  0  0  0  0
 22 20  1  0  0  0  0
 23 25  1  0  0  0  0
 24 27  2  0  0  0  0
 25 26  2  0  0  0  0
 27 26  1  0  0  0  0
 27 21  1  0  0  0  0
 28 23  1  0  0  0  0
 29 23  2  0  0  0  0
 29 24  1  0  0  0  0
 31 32  1  0  0  0  0
 32 34  1  0  0  0  0
 33 30  1  6  0  0  0
 33 31  1  0  0  0  0
 33 32  1  0  0  0  0
 34 35  1  0  0  0  0
 35 36  1  0  0  0  0
M  END
>  <MODEL>
6

>  <REMARK>
 VINA RESULT:      -6.2      4.571     10.352
  Name = 
  6 active torsions:
  status: ('A' for Active; 'I' for Inactive)
    1  A    between atoms: C_1  and  C_11
    2  A    between atoms: C_11  and  N_23
    3  A    between atoms: C_16  and  C_22
    4  A    between atoms: C_21  and  C_35
    5  A    between atoms: C_26  and  C_32
    6  A    between atoms: C_30  and  C_32
                            x       y       z     vdW  Elec       q    Type
                         _______ _______ _______ _____ _____    ______ ____

>  <TORSDO>
F 6

$$$$
=
 OpenBabel10232411113D

 36 40  0  0  1  0  0  0  0  0999 V2000
  189.3740  178.2860  140.1470 C   0  0  1  0  0  3  0  0  0  0  0  0
  190.6870  175.3580  143.5790 C   0  0  0  0  0  3  0  0  0  0  0  0
  188.7330  177.5370  144.6060 N   0  0  0  0  0  0  0  0  0  0  0  0
  192.2590  177.5790  148.9330 C   0  0  0  0  0  1  0  0  0  0  0  0
  188.9060  177.7030  137.6830 C   0  0  0  0  0  2  0  0  0  0  0  0
  188.2380  178.4460  141.1430 C   0  0  0  0  0  2  0  0  0  0  0  0
  190.7760  176.2050  144.6090 C   0  0  0  0  0  0  0  0  0  0  0  0
  188.7770  178.4170  142.4540 O   0  0  0  0  0  0  0  0  0  0  0  0
  192.1990  176.5550  147.9060 N   0  0  0  0  0  2  0  0  0  0  0  0
  190.1910  177.5840  144.6500 C   0  0  2  0  0  3  0  0  0  0  0  0
  190.7540  176.5230  141.3720 C   0  0  0  0  0  2  0  0  0  0  0  0
  191.4900  175.8320  145.7750 N   0  0  0  0  0  0  0  0  0  0  0  0
  189.9110  176.8330  140.1420 C   0  0  2  0  0  3  0  0  0  0  0  0
  191.5310  176.7630  146.6620 C   0  0  0  0  0  0  0  0  0  0  0  0
  188.9160  178.7920  138.7620 C   0  0  0  0  0  2  0  0  0  0  0  0
  190.6910  176.5410  138.8920 C   0  0  0  0  0  3  0  0  0  0  0  0
  190.2030  176.9490  137.7140 C   0  0  0  0  0  0  0  0  0  0  0  0
  190.7160  178.3070  146.2430 S   0  0  0  0  0  0  0  0  0  0  0  0
  189.9490  175.6370  142.3080 C   0  0  0  0  0  2  0  0  0  0  0  0
  188.0740  177.9290  143.5580 C   0  0  0  0  0  0  0  0  0  0  0  0
  185.8270  178.9160  143.4110 C   0  0  0  0  0  3  0  0  0  0  0  0
  186.6040  177.8410  143.5290 C   0  0  0  0  0  3  0  0  0  0  0  0
  181.5670  178.6350  143.2280 C   0  0  0  0  0  0  0  0  0  0  0  0
  183.5860  178.8870  144.5410 C   0  0  0  0  0  3  0  0  0  0  0  0
  182.3350  178.5820  142.0600 C   0  0  0  0  0  3  0  0  0  0  0  0
  183.7270  178.6800  142.1320 C   0  0  0  0  0  3  0  0  0  0  0  0
  184.3610  178.8320  143.3710 C   0  0  0  0  0  0  0  0  0  0  0  0
  180.0860  178.5220  143.1530 C   0  0  0  0  0  1  0  0  0  0  0  0
  182.1930  178.7890  144.4690 C   0  0  0  0  0  3  0  0  0  0  0  0
  190.9440  176.6800  136.4460 C   0  0  0  0  0  2  0  0  0  0  0  0
  190.6100  175.4850  134.3470 C   0  0  0  0  0  2  0  0  0  0  0  0
  189.6770  174.9290  135.3370 N   0  0  0  0  0  0  0  0  0  0  0  0
  189.9760  176.3680  135.3180 C   0  0  1  0  0  3  0  0  0  0  0  0
  188.3960  174.7670  134.6670 C   0  0  0  0  0  2  0  0  0  0  0  0
  187.4560  173.9480  135.5340 C   0  0  0  0  0  2  0  0  0  0  0  0
  188.2350  173.2090  136.6110 C   0  0  0  0  0  1  0  0  0  0  0  0
  1 15  1  6  0  0  0
  1  6  1  0  0  0  0
  2  7  2  0  0  0  0
  5 17  1  0  0  0  0
  5 15  1  0  0  0  0
  6  8  1  0  0  0  0
  7 10  1  0  0  0  0
  7 12  1  0  0  0  0
  8 20  1  0  0  0  0
  9  4  1  0  0  0  0
 10  3  1  1  0  0  0
 10 18  1  0  0  0  0
 11 19  1  0  0  0  0
 12 14  2  0  0  0  0
 13 16  1  6  0  0  0
 13  1  1  0  0  0  0
 13 11  1  0  0  0  0
 14  9  1  0  0  0  0
 17 16  2  0  0  0  0
 18 14  1  0  0  0  0
 19  2  1  0  0  0  0
 20  3  2  0  0  0  0
 21 22  2  0  0  0  0
 22 20  1  0  0  0  0
 23 29  1  0  0  0  0
 25 26  1  0  0  0  0
 25 23  2  0  0  0  0
 26 27  2  0  0  0  0
 27 21  1  0  0  0  0
 27 24  1  0  0  0  0
 28 23  1  0  0  0  0
 29 24  2  0  0  0  0
 30 17  1  0  0  0  0
 31 33  1  0  0  0  0
 31 32  1  0  0  0  0
 33 32  1  0  0  0  0
 33 30  1  1  0  0  0
 34 32  1  0  0  0  0
 34 35  1  0  0  0  0
 35 36  1  0  0  0  0
M  END
>  <MODEL>
7

>  <REMARK>
 VINA RESULT:      -5.9      4.374      7.310
  Name = 
  6 active torsions:
  status: ('A' for Active; 'I' for Inactive)
    1  A    between atoms: C_1  and  C_11
    2  A    between atoms: C_11  and  N_23
    3  A    between atoms: C_16  and  C_22
    4  A    between atoms: C_21  and  C_35
    5  A    between atoms: C_26  and  C_32
    6  A    between atoms: C_30  and  C_32
                            x       y       z     vdW  Elec       q    Type
                         _______ _______ _______ _____ _____    ______ ____

>  <TORSDO>
F 6

$$$$
=
 OpenBabel10232411113D

 36 40  0  0  1  0  0  0  0  0999 V2000
  189.7340  176.2300  141.6960 C   0  0  1  0  0  3  0  0  0  0  0  0
  193.4110  177.2640  138.9600 C   0  0  0  0  0  3  0  0  0  0  0  0
  191.2290  175.6910  137.4150 N   0  0  0  0  0  0  0  0  0  0  0  0
  195.6850  173.0520  135.3310 C   0  0  0  0  0  1  0  0  0  0  0  0
  188.6950  177.6920  143.5440 C   0  0  0  0  0  2  0  0  0  0  0  0
  189.1170  176.1650  140.3090 C   0  0  0  0  0  2  0  0  0  0  0  0
  193.4860  176.1570  138.2140 C   0  0  0  0  0  0  0  0  0  0  0  0
  190.0580  175.5860  139.4210 O   0  0  0  0  0  0  0  0  0  0  0  0
  195.7160  174.3040  136.0660 N   0  0  0  0  0  2  0  0  0  0  0  0
  192.4020  175.1310  138.0760 C   0  0  2  0  0  3  0  0  0  0  0  0
  192.1090  176.9170  141.0620 C   0  0  0  0  0  2  0  0  0  0  0  0
  194.6700  175.8680  137.4920 N   0  0  0  0  0  0  0  0  0  0  0  0
  190.8250  177.3280  141.7700 C   0  0  2  0  0  3  0  0  0  0  0  0
  194.6140  174.7490  136.8580 C   0  0  0  0  0  0  0  0  0  0  0  0
  188.6140  176.3840  142.7480 C   0  0  0  0  0  2  0  0  0  0  0  0
  191.1190  177.7130  143.1920 C   0  0  0  0  0  3  0  0  0  0  0  0
  190.0970  177.8980  144.0380 C   0  0  0  0  0  0  0  0  0  0  0  0
  193.0980  173.8030  137.0320 S   0  0  0  0  0  0  0  0  0  0  0  0
  192.2110  177.6790  139.7500 C   0  0  0  0  0  2  0  0  0  0  0  0
  190.1250  175.9090  138.0630 C   0  0  0  0  0  0  0  0  0  0  0  0
  187.9710  175.7680  136.8880 C   0  0  0  0  0  3  0  0  0  0  0  0
  188.9660  176.5050  137.3780 C   0  0  0  0  0  3  0  0  0  0  0  0
  184.5510  177.4940  134.9930 C   0  0  0  0  0  0  0  0  0  0  0  0
  186.9270  177.0270  134.9820 C   0  0  0  0  0  3  0  0  0  0  0  0
  184.4270  176.8290  136.2170 C   0  0  0  0  0  3  0  0  0  0  0  0
  185.5520  176.2650  136.8250 C   0  0  0  0  0  3  0  0  0  0  0  0
  186.8070  176.3600  136.2130 C   0  0  0  0  0  0  0  0  0  0  0  0
  183.3570  178.1020  134.3500 C   0  0  0  0  0  1  0  0  0  0  0  0
  185.8020  177.5910  134.3750 C   0  0  0  0  0  3  0  0  0  0  0  0
  190.3420  178.2820  145.4590 C   0  0  0  0  0  2  0  0  0  0  0  0
  189.7950  177.7630  147.7780 C   0  0  0  0  0  2  0  0  0  0  0  0
  188.6220  178.4090  147.1710 N   0  0  0  0  0  0  0  0  0  0  0  0
  189.4510  177.4790  146.3900 C   0  0  1  0  0  3  0  0  0  0  0  0
  187.4540  177.6570  147.6010 C   0  0  0  0  0  2  0  0  0  0  0  0
  186.1910  178.4470  147.3090 C   0  0  0  0  0  2  0  0  0  0  0  0
  185.8490  178.3760  145.8290 C   0  0  0  0  0  1  0  0  0  0  0  0
  1  6  1  6  0  0  0
  1 13  1  0  0  0  0
  1 15  1  0  0  0  0
  2 19  1  0  0  0  0
  3 20  2  0  0  0  0
  3 10  1  0  0  0  0
  4  9  1  0  0  0  0
  5 17  1  0  0  0  0
  7  2  2  0  0  0  0
  8  6  1  0  0  0  0
  9 14  1  0  0  0  0
 10 18  1  6  0  0  0
 10  7  1  0  0  0  0
 12  7  1  0  0  0  0
 13 11  1  1  0  0  0
 13 16  1  0  0  0  0
 14 18  1  0  0  0  0
 14 12  2  0  0  0  0
 15  5  1  0  0  0  0
 16 17  2  0  0  0  0
 17 30  1  0  0  0  0
 19 11  1  0  0  0  0
 20  8  1  0  0  0  0
 21 22  2  0  0  0  0
 22 20  1  0  0  0  0
 23 25  1  0  0  0  0
 24 27  2  0  0  0  0
 25 26  2  0  0  0  0
 27 26  1  0  0  0  0
 27 21  1  0  0  0  0
 28 23  1  0  0  0  0
 29 24  1  0  0  0  0
 29 23  2  0  0  0  0
 32 34  1  0  0  0  0
 32 31  1  0  0  0  0
 33 30  1  6  0  0  0
 33 32  1  0  0  0  0
 33 31  1  0  0  0  0
 35 34  1  0  0  0  0
 36 35  1  0  0  0  0
M  END
>  <MODEL>
8

>  <REMARK>
 VINA RESULT:      -5.0      2.351      8.034
  Name = 
  6 active torsions:
  status: ('A' for Active; 'I' for Inactive)
    1  A    between atoms: C_1  and  C_11
    2  A    between atoms: C_11  and  N_23
    3  A    between atoms: C_16  and  C_22
    4  A    between atoms: C_21  and  C_35
    5  A    between atoms: C_26  and  C_32
    6  A    between atoms: C_30  and  C_32
                            x       y       z     vdW  Elec       q    Type
                         _______ _______ _______ _____ _____    ______ ____

>  <TORSDO>
F 6

$$$$
=
 OpenBabel10232411113D

 36 40  0  0  1  0  0  0  0  0999 V2000
  191.9200  174.9960  137.2510 C   0  0  1  0  0  3  0  0  0  0  0  0
  188.8220  177.9820  135.3630 C   0  0  0  0  0  3  0  0  0  0  0  0
  187.8180  176.8330  138.0630 N   0  0  0  0  0  0  0  0  0  0  0  0
  182.9910  176.5430  135.2750 C   0  0  0  0  0  1  0  0  0  0  0  0
  194.4880  175.1700  137.2110 C   0  0  0  0  0  2  0  0  0  0  0  0
  191.1240  175.4320  138.4710 C   0  0  0  0  0  2  0  0  0  0  0  0
  187.6700  177.3890  135.6940 C   0  0  0  0  0  0  0  0  0  0  0  0
  189.7610  175.5570  138.1030 O   0  0  0  0  0  0  0  0  0  0  0  0
  184.1620  177.2910  134.8550 N   0  0  0  0  0  2  0  0  0  0  0  0
  187.5140  176.3190  136.7320 C   0  0  2  0  0  3  0  0  0  0  0  0
  190.7690  176.4240  135.4760 C   0  0  0  0  0  2  0  0  0  0  0  0
  186.4720  177.7420  135.0240 N   0  0  0  0  0  0  0  0  0  0  0  0
  192.0620  176.1580  136.2350 C   0  0  2  0  0  3  0  0  0  0  0  0
  185.4550  177.0570  135.4140 C   0  0  0  0  0  0  0  0  0  0  0  0
  193.2650  174.3900  137.7070 C   0  0  0  0  0  2  0  0  0  0  0  0
  193.1870  175.9070  135.2720 C   0  0  0  0  0  3  0  0  0  0  0  0
  194.3520  175.4450  135.7420 C   0  0  0  0  0  0  0  0  0  0  0  0
  185.7590  175.8160  136.6750 S   0  0  0  0  0  0  0  0  0  0  0  0
  190.1410  177.7010  136.0090 C   0  0  0  0  0  2  0  0  0  0  0  0
  188.8890  176.4690  138.7010 C   0  0  0  0  0  0  0  0  0  0  0  0
  188.9820  176.3430  141.1550 C   0  0  0  0  0  3  0  0  0  0  0  0
  189.1880  177.0270  140.0310 C   0  0  0  0  0  3  0  0  0  0  0  0
  189.8230  177.8910  145.0470 C   0  0  0  0  0  0  0  0  0  0  0  0
  190.5220  177.5050  142.7610 C   0  0  0  0  0  3  0  0  0  0  0  0
  188.5940  177.2830  144.7740 C   0  0  0  0  0  3  0  0  0  0  0  0
  188.3290  176.7850  143.4950 C   0  0  0  0  0  3  0  0  0  0  0  0
  189.2890  176.8910  142.4830 C   0  0  0  0  0  0  0  0  0  0  0  0
  190.1100  178.4140  146.4100 C   0  0  0  0  0  1  0  0  0  0  0  0
  190.7870  178.0040  144.0400 C   0  0  0  0  0  3  0  0  0  0  0  0
  195.4970  175.1820  134.8200 C   0  0  0  0  0  2  0  0  0  0  0  0
  197.4030  173.7270  134.3780 C   0  0  0  0  0  2  0  0  0  0  0  0
  197.6610  174.4380  135.6380 N   0  0  0  0  0  0  0  0  0  0  0  0
  196.3030  173.9870  135.2980 C   0  0  1  0  0  3  0  0  0  0  0  0
  198.1970  173.4620  136.5730 C   0  0  0  0  0  2  0  0  0  0  0  0
  198.9420  174.1680  137.6920 C   0  0  0  0  0  2  0  0  0  0  0  0
  197.9680  174.6650  138.7480 C   0  0  0  0  0  1  0  0  0  0  0  0
  1 15  1  1  0  0  0
  1  6  1  0  0  0  0
  2  7  2  0  0  0  0
  2 19  1  0  0  0  0
  3 20  2  0  0  0  0
  5 15  1  0  0  0  0
  8  6  1  0  0  0  0
  8 20  1  0  0  0  0
  9  4  1  0  0  0  0
  9 14  1  0  0  0  0
 10  7  1  6  0  0  0
 10  3  1  0  0  0  0
 11 19  1  0  0  0  0
 11 13  1  0  0  0  0
 12 14  2  0  0  0  0
 12  7  1  0  0  0  0
 13 16  1  6  0  0  0
 13  1  1  0  0  0  0
 14 18  1  0  0  0  0
 16 17  2  0  0  0  0
 17  5  1  0  0  0  0
 18 10  1  0  0  0  0
 20 22  1  0  0  0  0
 21 27  1  0  0  0  0
 22 21  2  0  0  0  0
 23 28  1  0  0  0  0
 24 29  1  0  0  0  0
 25 23  1  0  0  0  0
 26 25  2  0  0  0  0
 27 24  2  0  0  0  0
 27 26  1  0  0  0  0
 29 23  2  0  0  0  0
 30 17  1  0  0  0  0
 31 33  1  0  0  0  0
 31 32  1  0  0  0  0
 32 34  1  0  0  0  0
 33 30  1  6  0  0  0
 33 32  1  0  0  0  0
 34 35  1  0  0  0  0
 35 36  1  0  0  0  0
M  END
>  <MODEL>
9

>  <REMARK>
 VINA RESULT:      -4.8      2.535      8.174
  Name = 
  6 active torsions:
  status: ('A' for Active; 'I' for Inactive)
    1  A    between atoms: C_1  and  C_11
    2  A    between atoms: C_11  and  N_23
    3  A    between atoms: C_16  and  C_22
    4  A    between atoms: C_21  and  C_35
    5  A    between atoms: C_26  and  C_32
    6  A    between atoms: C_30  and  C_32
                            x       y       z     vdW  Elec       q    Type
                         _______ _______ _______ _____ _____    ______ ____

>  <TORSDO>
F 6

$$$$
