=
 OpenBabel10232412383D

 37 39  0  0  1  0  0  0  0  0999 V2000
  187.1690  178.5170  140.4420 C   0  0  0  0  0  0  0  0  0  0  0  0
  186.8540  178.4810  141.7650 N   0  0  0  0  0  0  0  0  0  0  0  0
  186.1410  178.6850  139.4780 C   0  0  0  0  0  0  0  0  0  0  0  0
  185.5770  178.5920  142.2210 C   0  0  0  0  0  0  0  0  0  0  0  0
  184.5390  178.7630  141.3020 C   0  0  0  0  0  3  0  0  0  0  0  0
  184.8200  178.8180  139.9380 C   0  0  0  0  0  0  0  0  0  0  0  0
  183.8010  178.8550  145.5600 C   0  0  0  0  0  3  0  0  0  0  0  0
  185.3030  178.5340  143.6720 C   0  0  0  0  0  0  0  0  0  0  0  0
  187.0170  177.6160  146.7810 F   0  0  0  0  0  0  0  0  0  0  0  0
  184.0500  178.9120  144.1860 C   0  0  0  0  0  3  0  0  0  0  0  0
  186.2980  178.0970  144.5610 C   0  0  0  0  0  3  0  0  0  0  0  0
  184.8000  178.4170  146.4340 C   0  0  0  0  0  3  0  0  0  0  0  0
  186.0480  178.0390  145.9350 C   0  0  0  0  0  0  0  0  0  0  0  0
  186.6540  177.6180  137.2610 C   0  0  0  0  0  1  0  0  0  0  0  0
  186.3600  178.7340  138.0890 O   0  0  0  0  0  0  0  0  0  0  0  0
  188.6140  178.4470  140.0800 C   0  0  0  0  0  2  0  0  0  0  0  0
  189.0930  177.0820  140.2430 N   0  0  0  0  0  2  0  0  0  0  0  0
  191.7430  177.4250  140.3720 S   0  0  0  0  0  0  0  0  0  0  0  0
  190.3310  176.7520  140.8800 C   0  0  0  0  0  0  0  0  0  0  0  0
  190.3060  175.8540  141.9940 N   0  0  0  0  0  2  0  0  0  0  0  0
  189.6140  176.1280  143.2470 C   0  0  2  0  0  3  0  0  0  0  0  0
  188.2570  175.8390  143.1020 O   0  0  0  0  0  1  0  0  0  0  0  0
  189.7770  177.5920  143.6210 C   0  0  0  0  0  2  0  0  0  0  0  0
  190.3690  177.7330  144.9840 C   0  0  0  0  0  3  0  0  0  0  0  0
  190.0840  176.8820  145.9180 N   0  0  0  0  0  0  0  0  0  0  0  0
  192.5090  175.5490  146.8550 O   0  0  0  0  0  1  0  0  0  0  0  0
  191.7050  176.3200  147.6870 C   0  0  0  0  0  3  0  0  0  0  0  0
  190.5960  176.9330  147.2590 C   0  0  0  0  0  3  0  0  0  0  0  0
  183.6840  178.9780  138.9750 C   0  0  0  0  0  2  0  0  0  0  0  0
  182.9590  174.0370  137.4700 Cl  0  0  0  0  0  0  0  0  0  0  0  0
  181.6060  177.7790  139.6900 C   0  0  0  0  0  3  0  0  0  0  0  0
  180.1550  174.0680  139.1010 Cl  0  0  0  0  0  0  0  0  0  0  0  0
  182.4120  175.4660  138.3310 C   0  0  0  0  0  0  0  0  0  0  0  0
  181.1970  175.4780  139.0390 C   0  0  0  0  0  0  0  0  0  0  0  0
  183.2140  176.6100  138.3080 C   0  0  0  0  0  3  0  0  0  0  0  0
  182.8120  177.7680  138.9830 C   0  0  0  0  0  0  0  0  0  0  0  0
  180.8020  176.6370  139.7160 C   0  0  0  0  0  3  0  0  0  0  0  0
  1  2  1  0  0  0  0
  2  4  2  0  0  0  0
  3  6  1  0  0  0  0
  3  1  2  0  0  0  0
  4  8  1  0  0  0  0
  5  4  1  0  0  0  0
  6  5  2  0  0  0  0
  7 12  1  0  0  0  0
  8 10  1  0  0  0  0
  8 11  2  0  0  0  0
 10  7  2  0  0  0  0
 11 13  1  0  0  0  0
 13 12  2  0  0  0  0
 13  9  1  0  0  0  0
 14 15  1  0  0  0  0
 15  3  1  0  0  0  0
 16 17  1  0  0  0  0
 16  1  1  0  0  0  0
 17 19  1  0  0  0  0
 18 19  2  0  0  0  0
 19 20  1  0  0  0  0
 20 21  1  0  0  0  0
 21 22  1  6  0  0  0
 21 23  1  0  0  0  0
 23 24  1  0  0  0  0
 24 25  2  0  0  0  0
 25 28  1  0  0  0  0
 26 27  1  0  0  0  0
 28 27  2  0  0  0  0
 29 36  1  0  0  0  0
 29  6  1  0  0  0  0
 30 33  1  0  0  0  0
 31 37  1  0  0  0  0
 33 34  1  0  0  0  0
 34 32  1  0  0  0  0
 34 37  2  0  0  0  0
 35 33  2  0  0  0  0
 35 36  1  0  0  0  0
 36 31  2  0  0  0  0
M  END
>  <MODEL>
1

>  <REMARK>
 VINA RESULT:      -8.2      0.000      0.000
  Name = 
  12 active torsions:
  status: ('A' for Active; 'I' for Inactive)
    1  A    between atoms: C_4  and  N_36
    2  A    between atoms: C_8  and  C_12
    3  A    between atoms: C_12  and  N_25
    4  A    between atoms: C_13  and  C_24
    5  A    between atoms: C_16  and  C_33
    6  A    between atoms: C_17  and  N_27
    7  A    between atoms: C_17  and  C_33
    8  A    between atoms: C_18  and  O_31
    9  A    between atoms: C_22  and  C_30
   10  A    between atoms: N_25  and  C_26
   11  A    between atoms: C_26  and  N_27
   12  A    between atoms: C_30  and  C_34
                            x       y       z     vdW  Elec       q    Type
                         _______ _______ _______ _____ _____    ______ ____

>  <TORSDO>
F 12

$$$$
=
 OpenBabel10232412383D

 37 39  0  0  1  0  0  0  0  0999 V2000
  188.2710  178.0860  140.4190 C   0  0  0  0  0  0  0  0  0  0  0  0
  187.0200  178.3790  140.8680 N   0  0  0  0  0  0  0  0  0  0  0  0
  189.1650  177.3620  141.2500 C   0  0  0  0  0  0  0  0  0  0  0  0
  186.5760  178.0140  142.1010 C   0  0  0  0  0  0  0  0  0  0  0  0
  187.4260  177.2960  142.9460 C   0  0  0  0  0  3  0  0  0  0  0  0
  188.7110  176.9640  142.5190 C   0  0  0  0  0  0  0  0  0  0  0  0
  183.6420  179.0630  144.2610 C   0  0  0  0  0  3  0  0  0  0  0  0
  185.2080  178.3740  142.5300 C   0  0  0  0  0  0  0  0  0  0  0  0
  181.8500  178.7040  141.0950 F   0  0  0  0  0  0  0  0  0  0  0  0
  184.9390  178.7240  143.8650 C   0  0  0  0  0  3  0  0  0  0  0  0
  184.1540  178.3720  141.6030 C   0  0  0  0  0  3  0  0  0  0  0  0
  182.6020  179.0570  143.3280 C   0  0  0  0  0  3  0  0  0  0  0  0
  182.8580  178.7110  142.0000 C   0  0  0  0  0  0  0  0  0  0  0  0
  191.6550  177.7000  141.2750 C   0  0  0  0  0  1  0  0  0  0  0  0
  190.4760  177.0100  140.8830 O   0  0  0  0  0  0  0  0  0  0  0  0
  188.6090  178.4890  139.0250 C   0  0  0  0  0  2  0  0  0  0  0  0
  188.2970  177.4000  138.1110 N   0  0  0  0  0  2  0  0  0  0  0  0
  188.8480  175.9510  135.9300 S   0  0  0  0  0  0  0  0  0  0  0  0
  189.2790  176.7340  137.3120 C   0  0  0  0  0  0  0  0  0  0  0  0
  190.6490  176.7990  137.7210 N   0  0  0  0  0  2  0  0  0  0  0  0
  191.6580  175.8150  137.3510 C   0  0  2  0  0  3  0  0  0  0  0  0
  191.4810  174.6580  138.1100 O   0  0  0  0  0  1  0  0  0  0  0  0
  193.0470  176.3750  137.6080 C   0  0  0  0  0  2  0  0  0  0  0  0
  194.0710  175.2890  137.6000 C   0  0  0  0  0  3  0  0  0  0  0  0
  194.8570  175.1160  138.6150 N   0  0  0  0  0  0  0  0  0  0  0  0
  197.6080  175.4010  137.6740 O   0  0  0  0  0  1  0  0  0  0  0  0
  197.1340  174.2390  138.2710 C   0  0  0  0  0  3  0  0  0  0  0  0
  195.8750  174.1070  138.7030 C   0  0  0  0  0  3  0  0  0  0  0  0
  189.6080  176.2160  143.4560 C   0  0  0  0  0  2  0  0  0  0  0  0
  186.5580  178.3020  147.1380 Cl  0  0  0  0  0  0  0  0  0  0  0  0
  190.5880  176.7340  145.7010 C   0  0  0  0  0  3  0  0  0  0  0  0
  189.1260  178.2820  149.1200 Cl  0  0  0  0  0  0  0  0  0  0  0  0
  188.1230  177.7070  146.6090 C   0  0  0  0  0  0  0  0  0  0  0  0
  189.2350  177.6970  147.4690 C   0  0  0  0  0  0  0  0  0  0  0  0
  188.2520  177.2290  145.3020 C   0  0  0  0  0  3  0  0  0  0  0  0
  189.4830  176.7470  144.8440 C   0  0  0  0  0  0  0  0  0  0  0  0
  190.4630  177.2090  147.0090 C   0  0  0  0  0  3  0  0  0  0  0  0
  1  2  2  0  0  0  0
  1  3  1  0  0  0  0
  2  4  1  0  0  0  0
  3  6  2  0  0  0  0
  4  8  1  0  0  0  0
  4  5  2  0  0  0  0
  6  5  1  0  0  0  0
  6 29  1  0  0  0  0
  8 10  2  0  0  0  0
  9 13  1  0  0  0  0
 10  7  1  0  0  0  0
 11 13  2  0  0  0  0
 11  8  1  0  0  0  0
 12  7  2  0  0  0  0
 13 12  1  0  0  0  0
 15  3  1  0  0  0  0
 15 14  1  0  0  0  0
 16  1  1  0  0  0  0
 17 16  1  0  0  0  0
 18 19  2  0  0  0  0
 19 20  1  0  0  0  0
 19 17  1  0  0  0  0
 21 23  1  0  0  0  0
 21 20  1  0  0  0  0
 21 22  1  1  0  0  0
 24 23  1  0  0  0  0
 24 25  2  0  0  0  0
 25 28  1  0  0  0  0
 26 27  1  0  0  0  0
 27 28  2  0  0  0  0
 29 36  1  0  0  0  0
 31 37  1  0  0  0  0
 33 30  1  0  0  0  0
 33 34  1  0  0  0  0
 34 32  1  0  0  0  0
 35 33  2  0  0  0  0
 36 35  1  0  0  0  0
 36 31  2  0  0  0  0
 37 34  2  0  0  0  0
M  END
>  <MODEL>
2

>  <REMARK>
 VINA RESULT:      -7.8      4.703      7.324
  Name = 
  12 active torsions:
  status: ('A' for Active; 'I' for Inactive)
    1  A    between atoms: C_4  and  N_36
    2  A    between atoms: C_8  and  C_12
    3  A    between atoms: C_12  and  N_25
    4  A    between atoms: C_13  and  C_24
    5  A    between atoms: C_16  and  C_33
    6  A    between atoms: C_17  and  N_27
    7  A    between atoms: C_17  and  C_33
    8  A    between atoms: C_18  and  O_31
    9  A    between atoms: C_22  and  C_30
   10  A    between atoms: N_25  and  C_26
   11  A    between atoms: C_26  and  N_27
   12  A    between atoms: C_30  and  C_34
                            x       y       z     vdW  Elec       q    Type
                         _______ _______ _______ _____ _____    ______ ____

>  <TORSDO>
F 12

$$$$
=
 OpenBabel10232412383D

 37 39  0  0  1  0  0  0  0  0999 V2000
  188.2060  178.2870  140.4310 C   0  0  0  0  0  0  0  0  0  0  0  0
  186.9510  178.5080  140.9050 N   0  0  0  0  0  0  0  0  0  0  0  0
  189.1450  177.5800  141.2260 C   0  0  0  0  0  0  0  0  0  0  0  0
  186.5420  178.0850  142.1330 C   0  0  0  0  0  0  0  0  0  0  0  0
  187.4370  177.3800  142.9420 C   0  0  0  0  0  3  0  0  0  0  0  0
  188.7300  177.1210  142.4870 C   0  0  0  0  0  0  0  0  0  0  0  0
  182.7970  178.6740  142.1260 C   0  0  0  0  0  3  0  0  0  0  0  0
  185.1660  178.3680  142.5920 C   0  0  0  0  0  0  0  0  0  0  0  0
  183.3800  179.0990  145.7100 F   0  0  0  0  0  0  0  0  0  0  0  0
  184.0950  178.4050  141.6820 C   0  0  0  0  0  3  0  0  0  0  0  0
  184.9110  178.6040  143.9520 C   0  0  0  0  0  3  0  0  0  0  0  0
  182.5560  178.9070  143.4820 C   0  0  0  0  0  3  0  0  0  0  0  0
  183.6130  178.8730  144.3950 C   0  0  0  0  0  0  0  0  0  0  0  0
  190.8390  176.5120  139.7080 C   0  0  0  0  0  1  0  0  0  0  0  0
  190.4660  177.3000  140.8290 O   0  0  0  0  0  0  0  0  0  0  0  0
  188.5050  178.7490  139.0450 C   0  0  0  0  0  2  0  0  0  0  0  0
  187.4360  178.3320  138.1490 N   0  0  0  0  0  2  0  0  0  0  0  0
  188.9170  177.1440  136.2650 S   0  0  0  0  0  0  0  0  0  0  0  0
  187.5700  177.2700  137.2020 C   0  0  0  0  0  0  0  0  0  0  0  0
  186.5260  176.2950  137.1160 N   0  0  0  0  0  2  0  0  0  0  0  0
  185.4770  176.3090  136.1050 C   0  0  2  0  0  3  0  0  0  0  0  0
  185.5120  177.5210  135.4150 O   0  0  0  0  0  1  0  0  0  0  0  0
  184.1180  176.1470  136.7640 C   0  0  0  0  0  2  0  0  0  0  0  0
  183.4330  177.4660  136.9090 C   0  0  0  0  0  3  0  0  0  0  0  0
  183.0400  177.8800  138.0720 N   0  0  0  0  0  0  0  0  0  0  0  0
  184.3230  180.3370  138.9980 O   0  0  0  0  0  1  0  0  0  0  0  0
  182.9590  180.2500  138.7420 C   0  0  0  0  0  3  0  0  0  0  0  0
  182.3710  179.1270  138.3170 C   0  0  0  0  0  3  0  0  0  0  0  0
  189.6740  176.3860  143.3870 C   0  0  0  0  0  2  0  0  0  0  0  0
  186.6170  178.3410  147.1340 Cl  0  0  0  0  0  0  0  0  0  0  0  0
  190.6490  176.8210  145.6520 C   0  0  0  0  0  3  0  0  0  0  0  0
  189.1810  178.2480  149.1210 Cl  0  0  0  0  0  0  0  0  0  0  0  0
  188.1820  177.7640  146.5880 C   0  0  0  0  0  0  0  0  0  0  0  0
  189.2930  177.7220  147.4500 C   0  0  0  0  0  0  0  0  0  0  0  0
  188.3140  177.3340  145.2650 C   0  0  0  0  0  3  0  0  0  0  0  0
  189.5460  176.8670  144.7930 C   0  0  0  0  0  0  0  0  0  0  0  0
  190.5210  177.2500  146.9750 C   0  0  0  0  0  3  0  0  0  0  0  0
  1  2  2  0  0  0  0
  1  3  1  0  0  0  0
  2  4  1  0  0  0  0
  3  6  2  0  0  0  0
  4  8  1  0  0  0  0
  4  5  2  0  0  0  0
  6  5  1  0  0  0  0
  6 29  1  0  0  0  0
  7 12  1  0  0  0  0
  8 11  2  0  0  0  0
 10  7  2  0  0  0  0
 10  8  1  0  0  0  0
 11 13  1  0  0  0  0
 12 13  2  0  0  0  0
 13  9  1  0  0  0  0
 14 15  1  0  0  0  0
 15  3  1  0  0  0  0
 16  1  1  0  0  0  0
 17 16  1  0  0  0  0
 18 19  2  0  0  0  0
 19 17  1  0  0  0  0
 20 19  1  0  0  0  0
 21 22  1  1  0  0  0
 21 23  1  0  0  0  0
 21 20  1  0  0  0  0
 23 24  1  0  0  0  0
 24 25  2  0  0  0  0
 25 28  1  0  0  0  0
 27 26  1  0  0  0  0
 28 27  2  0  0  0  0
 29 36  1  0  0  0  0
 31 37  1  0  0  0  0
 33 30  1  0  0  0  0
 33 34  1  0  0  0  0
 34 32  1  0  0  0  0
 35 33  2  0  0  0  0
 36 35  1  0  0  0  0
 36 31  2  0  0  0  0
 37 34  2  0  0  0  0
M  END
>  <MODEL>
3

>  <REMARK>
 VINA RESULT:      -7.7      3.663      7.777
  Name = 
  12 active torsions:
  status: ('A' for Active; 'I' for Inactive)
    1  A    between atoms: C_4  and  N_36
    2  A    between atoms: C_8  and  C_12
    3  A    between atoms: C_12  and  N_25
    4  A    between atoms: C_13  and  C_24
    5  A    between atoms: C_16  and  C_33
    6  A    between atoms: C_17  and  N_27
    7  A    between atoms: C_17  and  C_33
    8  A    between atoms: C_18  and  O_31
    9  A    between atoms: C_22  and  C_30
   10  A    between atoms: N_25  and  C_26
   11  A    between atoms: C_26  and  N_27
   12  A    between atoms: C_30  and  C_34
                            x       y       z     vdW  Elec       q    Type
                         _______ _______ _______ _____ _____    ______ ____

>  <TORSDO>
F 12

$$$$
=
 OpenBabel10232412383D

 37 39  0  0  1  0  0  0  0  0999 V2000
  187.1280  178.4260  140.2440 C   0  0  0  0  0  0  0  0  0  0  0  0
  187.9320  178.1530  141.3070 N   0  0  0  0  0  0  0  0  0  0  0  0
  187.6600  178.3810  138.9290 C   0  0  0  0  0  0  0  0  0  0  0  0
  189.2490  177.8380  141.1720 C   0  0  0  0  0  0  0  0  0  0  0  0
  189.8070  177.7780  139.8930 C   0  0  0  0  0  3  0  0  0  0  0  0
  189.0140  178.0390  138.7760 C   0  0  0  0  0  0  0  0  0  0  0  0
  191.1080  178.2990  144.4450 C   0  0  0  0  0  3  0  0  0  0  0  0
  190.0690  177.5620  142.3710 C   0  0  0  0  0  0  0  0  0  0  0  0
  191.8810  174.7670  143.9040 F   0  0  0  0  0  0  0  0  0  0  0  0
  190.3310  178.5700  143.3150 C   0  0  0  0  0  3  0  0  0  0  0  0
  190.5990  176.2790  142.5820 C   0  0  0  0  0  3  0  0  0  0  0  0
  191.6290  177.0180  144.6430 C   0  0  0  0  0  3  0  0  0  0  0  0
  191.3750  176.0090  143.7120 C   0  0  0  0  0  0  0  0  0  0  0  0
  186.0950  177.7120  137.0810 C   0  0  0  0  0  1  0  0  0  0  0  0
  186.9160  178.6470  137.7650 O   0  0  0  0  0  0  0  0  0  0  0  0
  185.6890  178.6950  140.5260 C   0  0  0  0  0  2  0  0  0  0  0  0
  185.5690  179.4900  141.7400 N   0  0  0  0  0  2  0  0  0  0  0  0
  183.0980  178.6290  142.2970 S   0  0  0  0  0  0  0  0  0  0  0  0
  184.5470  179.2840  142.7190 C   0  0  0  0  0  0  0  0  0  0  0  0
  184.8280  179.6250  144.0810 N   0  0  0  0  0  2  0  0  0  0  0  0
  185.0690  178.6460  145.1330 C   0  0  2  0  0  3  0  0  0  0  0  0
  185.3770  179.3070  146.3220 O   0  0  0  0  0  1  0  0  0  0  0  0
  186.2290  177.7440  144.7460 C   0  0  0  0  0  2  0  0  0  0  0  0
  187.4320  178.0320  145.5820 C   0  0  0  0  0  3  0  0  0  0  0  0
  187.9590  177.1070  146.3200 N   0  0  0  0  0  0  0  0  0  0  0  0
  187.9590  178.4010  148.9390 O   0  0  0  0  0  1  0  0  0  0  0  0
  189.1080  177.8770  148.3590 C   0  0  0  0  0  3  0  0  0  0  0  0
  189.1100  177.2830  147.1610 C   0  0  0  0  0  3  0  0  0  0  0  0
  189.6460  177.9920  137.4190 C   0  0  0  0  0  2  0  0  0  0  0  0
  188.6980  172.9060  136.7520 Cl  0  0  0  0  0  0  0  0  0  0  0  0
  191.5500  176.4570  136.8850 C   0  0  0  0  0  3  0  0  0  0  0  0
  191.8670  172.5030  136.1830 Cl  0  0  0  0  0  0  0  0  0  0  0  0
  189.8190  174.2560  136.8010 C   0  0  0  0  0  0  0  0  0  0  0  0
  191.1920  174.0810  136.5530 C   0  0  0  0  0  0  0  0  0  0  0  0
  189.3230  175.5300  137.0890 C   0  0  0  0  0  3  0  0  0  0  0  0
  190.1850  176.6300  137.1360 C   0  0  0  0  0  0  0  0  0  0  0  0
  192.0510  175.1850  136.5960 C   0  0  0  0  0  3  0  0  0  0  0  0
  1 16  1  0  0  0  0
  1  2  1  0  0  0  0
  3  1  2  0  0  0  0
  4  2  2  0  0  0  0
  4  8  1  0  0  0  0
  5  4  1  0  0  0  0
  6  3  1  0  0  0  0
  6  5  2  0  0  0  0
  7 12  1  0  0  0  0
  8 11  2  0  0  0  0
  8 10  1  0  0  0  0
 10  7  2  0  0  0  0
 11 13  1  0  0  0  0
 13  9  1  0  0  0  0
 13 12  2  0  0  0  0
 14 15  1  0  0  0  0
 15  3  1  0  0  0  0
 16 17  1  0  0  0  0
 17 19  1  0  0  0  0
 18 19  2  0  0  0  0
 19 20  1  0  0  0  0
 20 21  1  0  0  0  0
 21 22  1  1  0  0  0
 23 21  1  0  0  0  0
 23 24  1  0  0  0  0
 24 25  2  0  0  0  0
 25 28  1  0  0  0  0
 27 26  1  0  0  0  0
 28 27  2  0  0  0  0
 29  6  1  0  0  0  0
 30 33  1  0  0  0  0
 31 36  1  0  0  0  0
 32 34  1  0  0  0  0
 33 35  1  0  0  0  0
 34 37  1  0  0  0  0
 34 33  2  0  0  0  0
 35 36  2  0  0  0  0
 36 29  1  0  0  0  0
 37 31  2  0  0  0  0
M  END
>  <MODEL>
4

>  <REMARK>
 VINA RESULT:      -7.7      3.614      6.185
  Name = 
  12 active torsions:
  status: ('A' for Active; 'I' for Inactive)
    1  A    between atoms: C_4  and  N_36
    2  A    between atoms: C_8  and  C_12
    3  A    between atoms: C_12  and  N_25
    4  A    between atoms: C_13  and  C_24
    5  A    between atoms: C_16  and  C_33
    6  A    between atoms: C_17  and  N_27
    7  A    between atoms: C_17  and  C_33
    8  A    between atoms: C_18  and  O_31
    9  A    between atoms: C_22  and  C_30
   10  A    between atoms: N_25  and  C_26
   11  A    between atoms: C_26  and  N_27
   12  A    between atoms: C_30  and  C_34
                            x       y       z     vdW  Elec       q    Type
                         _______ _______ _______ _____ _____    ______ ____

>  <TORSDO>
F 12

$$$$
=
 OpenBabel10232412383D

 37 39  0  0  1  0  0  0  0  0999 V2000
  188.2980  178.3740  140.2480 C   0  0  0  0  0  0  0  0  0  0  0  0
  187.0140  178.5790  140.6490 N   0  0  0  0  0  0  0  0  0  0  0  0
  189.2000  177.6860  141.1000 C   0  0  0  0  0  0  0  0  0  0  0  0
  186.5430  178.1570  141.8530 C   0  0  0  0  0  0  0  0  0  0  0  0
  187.4000  177.4710  142.7170 C   0  0  0  0  0  3  0  0  0  0  0  0
  188.7200  177.2290  142.3390 C   0  0  0  0  0  0  0  0  0  0  0  0
  182.7970  178.7010  141.6280 C   0  0  0  0  0  3  0  0  0  0  0  0
  185.1380  178.4220  142.2310 C   0  0  0  0  0  0  0  0  0  0  0  0
  183.1640  179.1220  145.2400 F   0  0  0  0  0  0  0  0  0  0  0  0
  184.1220  178.4490  141.2600 C   0  0  0  0  0  3  0  0  0  0  0  0
  184.8010  178.6510  143.5750 C   0  0  0  0  0  3  0  0  0  0  0  0
  182.4750  178.9260  142.9680 C   0  0  0  0  0  3  0  0  0  0  0  0
  183.4760  178.9030  143.9410 C   0  0  0  0  0  0  0  0  0  0  0  0
  190.9930  176.5630  139.7430 C   0  0  0  0  0  1  0  0  0  0  0  0
  190.5450  177.4230  140.7810 O   0  0  0  0  0  0  0  0  0  0  0  0
  188.6680  178.8320  138.8780 C   0  0  0  0  0  2  0  0  0  0  0  0
  187.5670  178.5730  137.9610 N   0  0  0  0  0  2  0  0  0  0  0  0
  185.8110  176.8800  136.8650 S   0  0  0  0  0  0  0  0  0  0  0  0
  187.3220  177.2970  137.3640 C   0  0  0  0  0  0  0  0  0  0  0  0
  188.4280  176.4100  137.1720 N   0  0  0  0  0  2  0  0  0  0  0  0
  189.3590  176.4950  136.0550 C   0  0  2  0  0  3  0  0  0  0  0  0
  188.8510  177.3660  135.0910 O   0  0  0  0  0  1  0  0  0  0  0  0
  189.5530  175.1210  135.4350 C   0  0  0  0  0  2  0  0  0  0  0  0
  190.5970  174.3460  136.1670 C   0  0  0  0  0  3  0  0  0  0  0  0
  191.7030  174.9130  136.5330 N   0  0  0  0  0  0  0  0  0  0  0  0
  193.9970  176.2440  137.7590 O   0  0  0  0  0  1  0  0  0  0  0  0
  193.8190  174.8660  137.7950 C   0  0  0  0  0  3  0  0  0  0  0  0
  192.7700  174.2550  137.2360 C   0  0  0  0  0  3  0  0  0  0  0  0
  189.6220  176.5130  143.2960 C   0  0  0  0  0  2  0  0  0  0  0  0
  186.1670  178.1820  146.8290 Cl  0  0  0  0  0  0  0  0  0  0  0  0
  190.3870  176.9420  145.6410 C   0  0  0  0  0  3  0  0  0  0  0  0
  188.5670  178.1830  149.0130 Cl  0  0  0  0  0  0  0  0  0  0  0  0
  187.8020  177.7130  146.3980 C   0  0  0  0  0  0  0  0  0  0  0  0
  188.8420  177.7120  147.3450 C   0  0  0  0  0  0  0  0  0  0  0  0
  188.0640  177.3280  145.0800 C   0  0  0  0  0  3  0  0  0  0  0  0
  189.3550  176.9460  144.6980 C   0  0  0  0  0  0  0  0  0  0  0  0
  190.1300  177.3250  146.9600 C   0  0  0  0  0  3  0  0  0  0  0  0
  1  2  2  0  0  0  0
  1  3  1  0  0  0  0
  2  4  1  0  0  0  0
  3  6  2  0  0  0  0
  4  8  1  0  0  0  0
  4  5  2  0  0  0  0
  6  5  1  0  0  0  0
  6 29  1  0  0  0  0
  7 12  1  0  0  0  0
  8 11  2  0  0  0  0
 10  7  2  0  0  0  0
 10  8  1  0  0  0  0
 11 13  1  0  0  0  0
 12 13  2  0  0  0  0
 13  9  1  0  0  0  0
 14 15  1  0  0  0  0
 15  3  1  0  0  0  0
 16  1  1  0  0  0  0
 17 16  1  0  0  0  0
 18 19  2  0  0  0  0
 19 17  1  0  0  0  0
 20 19  1  0  0  0  0
 21 22  1  6  0  0  0
 21 20  1  0  0  0  0
 23 21  1  0  0  0  0
 23 24  1  0  0  0  0
 24 25  2  0  0  0  0
 25 28  1  0  0  0  0
 26 27  1  0  0  0  0
 28 27  2  0  0  0  0
 29 36  1  0  0  0  0
 31 37  1  0  0  0  0
 33 30  1  0  0  0  0
 33 34  1  0  0  0  0
 34 32  1  0  0  0  0
 35 33  2  0  0  0  0
 36 35  1  0  0  0  0
 36 31  2  0  0  0  0
 37 34  2  0  0  0  0
M  END
>  <MODEL>
5

>  <REMARK>
 VINA RESULT:      -7.6      4.173      7.282
  Name = 
  12 active torsions:
  status: ('A' for Active; 'I' for Inactive)
    1  A    between atoms: C_4  and  N_36
    2  A    between atoms: C_8  and  C_12
    3  A    between atoms: C_12  and  N_25
    4  A    between atoms: C_13  and  C_24
    5  A    between atoms: C_16  and  C_33
    6  A    between atoms: C_17  and  N_27
    7  A    between atoms: C_17  and  C_33
    8  A    between atoms: C_18  and  O_31
    9  A    between atoms: C_22  and  C_30
   10  A    between atoms: N_25  and  C_26
   11  A    between atoms: C_26  and  N_27
   12  A    between atoms: C_30  and  C_34
                            x       y       z     vdW  Elec       q    Type
                         _______ _______ _______ _____ _____    ______ ____

>  <TORSDO>
F 12

$$$$
=
 OpenBabel10232412383D

 37 39  0  0  1  0  0  0  0  0999 V2000
  186.3500  178.6690  140.9710 C   0  0  0  0  0  0  0  0  0  0  0  0
  187.3590  178.4010  141.8430 N   0  0  0  0  0  0  0  0  0  0  0  0
  186.5680  178.5250  139.5770 C   0  0  0  0  0  0  0  0  0  0  0  0
  188.5960  178.0020  141.4380 C   0  0  0  0  0  0  0  0  0  0  0  0
  188.8460  177.8430  140.0730 C   0  0  0  0  0  3  0  0  0  0  0  0
  187.8350  178.0960  139.1470 C   0  0  0  0  0  0  0  0  0  0  0  0
  191.1780  178.5160  144.1660 C   0  0  0  0  0  3  0  0  0  0  0  0
  189.6510  177.7370  142.4380 C   0  0  0  0  0  0  0  0  0  0  0  0
  191.6030  174.9120  143.7260 F   0  0  0  0  0  0  0  0  0  0  0  0
  190.1800  178.7770  143.2230 C   0  0  0  0  0  3  0  0  0  0  0  0
  190.1410  176.4340  142.6180 C   0  0  0  0  0  3  0  0  0  0  0  0
  191.6570  177.2150  144.3360 C   0  0  0  0  0  3  0  0  0  0  0  0
  191.1390  176.1740  143.5620 C   0  0  0  0  0  0  0  0  0  0  0  0
  184.5940  177.8610  138.1710 C   0  0  0  0  0  1  0  0  0  0  0  0
  185.5930  178.7770  138.5940 O   0  0  0  0  0  0  0  0  0  0  0  0
  185.0260  179.0380  141.5500 C   0  0  0  0  0  2  0  0  0  0  0  0
  184.7580  178.2140  142.7200 N   0  0  0  0  0  2  0  0  0  0  0  0
  182.5880  178.7940  144.1740 S   0  0  0  0  0  0  0  0  0  0  0  0
  184.2150  178.7290  143.9390 C   0  0  0  0  0  0  0  0  0  0  0  0
  185.1210  179.1490  144.9650 N   0  0  0  0  0  2  0  0  0  0  0  0
  185.3530  178.4110  146.2000 C   0  0  2  0  0  3  0  0  0  0  0  0
  185.5920  179.3090  147.2410 O   0  0  0  0  0  1  0  0  0  0  0  0
  186.5560  177.4970  146.0400 C   0  0  0  0  0  2  0  0  0  0  0  0
  187.6350  177.8590  147.0060 C   0  0  0  0  0  3  0  0  0  0  0  0
  188.8310  177.3810  146.8670 N   0  0  0  0  0  0  0  0  0  0  0  0
  191.2640  175.7790  147.0950 O   0  0  0  0  0  1  0  0  0  0  0  0
  191.0470  176.9280  147.8460 C   0  0  0  0  0  3  0  0  0  0  0  0
  189.9350  177.6640  147.7420 C   0  0  0  0  0  3  0  0  0  0  0  0
  188.1400  177.9420  137.6890 C   0  0  0  0  0  2  0  0  0  0  0  0
  191.0970  173.7070  136.9600 Cl  0  0  0  0  0  0  0  0  0  0  0  0
  187.0470  175.7930  137.0120 C   0  0  0  0  0  3  0  0  0  0  0  0
  188.3870  172.0730  136.2460 Cl  0  0  0  0  0  0  0  0  0  0  0  0
  189.5240  174.4860  136.9690 C   0  0  0  0  0  0  0  0  0  0  0  0
  188.3500  173.7780  136.6610 C   0  0  0  0  0  0  0  0  0  0  0  0
  189.4500  175.8440  137.2970 C   0  0  0  0  0  3  0  0  0  0  0  0
  188.2150  176.5000  137.3150 C   0  0  0  0  0  0  0  0  0  0  0  0
  187.1160  174.4370  136.6850 C   0  0  0  0  0  3  0  0  0  0  0  0
  1 16  1  0  0  0  0
  1  2  1  0  0  0  0
  3  1  2  0  0  0  0
  4  2  2  0  0  0  0
  4  8  1  0  0  0  0
  5  4  1  0  0  0  0
  6  3  1  0  0  0  0
  6  5  2  0  0  0  0
  7 12  1  0  0  0  0
  8 11  2  0  0  0  0
  8 10  1  0  0  0  0
 10  7  2  0  0  0  0
 11 13  1  0  0  0  0
 13  9  1  0  0  0  0
 13 12  2  0  0  0  0
 14 15  1  0  0  0  0
 15  3  1  0  0  0  0
 16 17  1  0  0  0  0
 17 19  1  0  0  0  0
 19 18  2  0  0  0  0
 19 20  1  0  0  0  0
 20 21  1  0  0  0  0
 21 22  1  1  0  0  0
 23 21  1  0  0  0  0
 23 24  1  0  0  0  0
 25 24  2  0  0  0  0
 25 28  1  0  0  0  0
 26 27  1  0  0  0  0
 28 27  2  0  0  0  0
 29  6  1  0  0  0  0
 30 33  1  0  0  0  0
 31 36  1  0  0  0  0
 32 34  1  0  0  0  0
 33 35  1  0  0  0  0
 34 37  1  0  0  0  0
 34 33  2  0  0  0  0
 35 36  2  0  0  0  0
 36 29  1  0  0  0  0
 37 31  2  0  0  0  0
M  END
>  <MODEL>
6

>  <REMARK>
 VINA RESULT:      -7.5      3.280      5.463
  Name = 
  12 active torsions:
  status: ('A' for Active; 'I' for Inactive)
    1  A    between atoms: C_4  and  N_36
    2  A    between atoms: C_8  and  C_12
    3  A    between atoms: C_12  and  N_25
    4  A    between atoms: C_13  and  C_24
    5  A    between atoms: C_16  and  C_33
    6  A    between atoms: C_17  and  N_27
    7  A    between atoms: C_17  and  C_33
    8  A    between atoms: C_18  and  O_31
    9  A    between atoms: C_22  and  C_30
   10  A    between atoms: N_25  and  C_26
   11  A    between atoms: C_26  and  N_27
   12  A    between atoms: C_30  and  C_34
                            x       y       z     vdW  Elec       q    Type
                         _______ _______ _______ _____ _____    ______ ____

>  <TORSDO>
F 12

$$$$
=
 OpenBabel10232412383D

 37 39  0  0  1  0  0  0  0  0999 V2000
  185.6270  178.7760  140.2980 C   0  0  0  0  0  0  0  0  0  0  0  0
  186.9620  178.5360  140.3980 N   0  0  0  0  0  0  0  0  0  0  0  0
  184.8160  178.7370  141.4610 C   0  0  0  0  0  0  0  0  0  0  0  0
  187.5720  178.2460  141.5790 C   0  0  0  0  0  0  0  0  0  0  0  0
  186.8070  178.2040  142.7470 C   0  0  0  0  0  3  0  0  0  0  0  0
  185.4370  178.4560  142.6900 C   0  0  0  0  0  0  0  0  0  0  0  0
  191.0840  177.2900  140.5170 C   0  0  0  0  0  3  0  0  0  0  0  0
  189.0270  177.9860  141.6160 C   0  0  0  0  0  0  0  0  0  0  0  0
  191.8120  178.1460  143.9950 F   0  0  0  0  0  0  0  0  0  0  0  0
  189.7080  177.5340  140.4720 C   0  0  0  0  0  3  0  0  0  0  0  0
  189.7500  178.1890  142.8010 C   0  0  0  0  0  3  0  0  0  0  0  0
  191.7920  177.4970  141.7030 C   0  0  0  0  0  3  0  0  0  0  0  0
  191.1250  177.9460  142.8450 C   0  0  0  0  0  0  0  0  0  0  0  0
  182.4440  178.0850  140.9480 C   0  0  0  0  0  1  0  0  0  0  0  0
  183.4280  178.9680  141.4670 O   0  0  0  0  0  0  0  0  0  0  0  0
  185.0960  179.1430  138.9540 C   0  0  0  0  0  2  0  0  0  0  0  0
  186.0580  178.7650  137.9280 N   0  0  0  0  0  2  0  0  0  0  0  0
  184.4610  176.8060  137.0510 S   0  0  0  0  0  0  0  0  0  0  0  0
  185.8420  177.7000  136.9980 C   0  0  0  0  0  0  0  0  0  0  0  0
  186.8340  177.4570  135.9960 N   0  0  0  0  0  2  0  0  0  0  0  0
  187.9460  176.5290  136.1580 C   0  0  2  0  0  3  0  0  0  0  0  0
  187.5700  175.4960  137.0160 O   0  0  0  0  0  1  0  0  0  0  0  0
  189.1460  177.2550  136.7440 C   0  0  0  0  0  2  0  0  0  0  0  0
  190.4020  176.4800  136.5180 C   0  0  0  0  0  3  0  0  0  0  0  0
  190.9440  175.8070  137.4830 N   0  0  0  0  0  0  0  0  0  0  0  0
  193.6450  176.8120  137.9620 O   0  0  0  0  0  1  0  0  0  0  0  0
  193.3870  175.4980  137.5890 C   0  0  0  0  0  3  0  0  0  0  0  0
  192.1510  175.0360  137.3700 C   0  0  0  0  0  3  0  0  0  0  0  0
  184.6390  178.3790  143.9550 C   0  0  0  0  0  2  0  0  0  0  0  0
  189.2360  176.9130  145.9360 Cl  0  0  0  0  0  0  0  0  0  0  0  0
  185.1300  178.8400  146.3660 C   0  0  0  0  0  3  0  0  0  0  0  0
  188.2830  178.1550  148.7780 Cl  0  0  0  0  0  0  0  0  0  0  0  0
  187.6580  177.6580  146.1310 C   0  0  0  0  0  0  0  0  0  0  0  0
  187.2460  178.1970  147.3620 C   0  0  0  0  0  0  0  0  0  0  0  0
  186.8020  177.7140  145.0260 C   0  0  0  0  0  3  0  0  0  0  0  0
  185.5380  178.3000  145.1420 C   0  0  0  0  0  0  0  0  0  0  0  0
  185.9820  178.7870  147.4720 C   0  0  0  0  0  3  0  0  0  0  0  0
  1  2  2  0  0  0  0
  1  3  1  0  0  0  0
  2  4  1  0  0  0  0
  3 15  1  0  0  0  0
  3  6  2  0  0  0  0
  4  8  1  0  0  0  0
  4  5  2  0  0  0  0
  6  5  1  0  0  0  0
  6 29  1  0  0  0  0
  7 12  1  0  0  0  0
  8 11  2  0  0  0  0
 10  7  2  0  0  0  0
 10  8  1  0  0  0  0
 11 13  1  0  0  0  0
 12 13  2  0  0  0  0
 13  9  1  0  0  0  0
 14 15  1  0  0  0  0
 16  1  1  0  0  0  0
 17 16  1  0  0  0  0
 19 18  2  0  0  0  0
 19 17  1  0  0  0  0
 20 21  1  0  0  0  0
 20 19  1  0  0  0  0
 21 23  1  0  0  0  0
 21 22  1  1  0  0  0
 24 23  1  0  0  0  0
 24 25  2  0  0  0  0
 27 26  1  0  0  0  0
 28 25  1  0  0  0  0
 28 27  2  0  0  0  0
 29 36  1  0  0  0  0
 30 33  1  0  0  0  0
 31 37  1  0  0  0  0
 33 34  1  0  0  0  0
 34 37  2  0  0  0  0
 34 32  1  0  0  0  0
 35 36  1  0  0  0  0
 35 33  2  0  0  0  0
 36 31  2  0  0  0  0
M  END
>  <MODEL>
7

>  <REMARK>
 VINA RESULT:      -7.4      4.224      7.211
  Name = 
  12 active torsions:
  status: ('A' for Active; 'I' for Inactive)
    1  A    between atoms: C_4  and  N_36
    2  A    between atoms: C_8  and  C_12
    3  A    between atoms: C_12  and  N_25
    4  A    between atoms: C_13  and  C_24
    5  A    between atoms: C_16  and  C_33
    6  A    between atoms: C_17  and  N_27
    7  A    between atoms: C_17  and  C_33
    8  A    between atoms: C_18  and  O_31
    9  A    between atoms: C_22  and  C_30
   10  A    between atoms: N_25  and  C_26
   11  A    between atoms: C_26  and  N_27
   12  A    between atoms: C_30  and  C_34
                            x       y       z     vdW  Elec       q    Type
                         _______ _______ _______ _____ _____    ______ ____

>  <TORSDO>
F 12

$$$$
=
 OpenBabel10232412383D

 37 39  0  0  1  0  0  0  0  0999 V2000
  187.1080  178.3930  139.6550 C   0  0  0  0  0  0  0  0  0  0  0  0
  186.4820  178.5510  140.8520 N   0  0  0  0  0  0  0  0  0  0  0  0
  186.3390  178.2880  138.4670 C   0  0  0  0  0  0  0  0  0  0  0  0
  185.1280  178.6070  140.9730 C   0  0  0  0  0  0  0  0  0  0  0  0
  184.3370  178.5130  139.8250 C   0  0  0  0  0  3  0  0  0  0  0  0
  184.9400  178.3630  138.5770 C   0  0  0  0  0  0  0  0  0  0  0  0
  182.5410  178.9720  143.7210 C   0  0  0  0  0  3  0  0  0  0  0  0
  184.5120  178.7700  142.3070 C   0  0  0  0  0  0  0  0  0  0  0  0
  185.5380  179.1410  145.8080 F   0  0  0  0  0  0  0  0  0  0  0  0
  183.1140  178.8170  142.4560 C   0  0  0  0  0  3  0  0  0  0  0  0
  185.3200  178.8810  143.4490 C   0  0  0  0  0  3  0  0  0  0  0  0
  183.3570  179.0800  144.8500 C   0  0  0  0  0  3  0  0  0  0  0  0
  184.7460  179.0350  144.7140 C   0  0  0  0  0  0  0  0  0  0  0  0
  187.3220  176.8900  136.6250 C   0  0  0  0  0  1  0  0  0  0  0  0
  186.8870  178.1220  137.1820 O   0  0  0  0  0  0  0  0  0  0  0  0
  188.5990  178.4100  139.6540 C   0  0  0  0  0  2  0  0  0  0  0  0
  189.1010  177.3080  140.4620 N   0  0  0  0  0  2  0  0  0  0  0  0
  191.6290  177.3570  141.3330 S   0  0  0  0  0  0  0  0  0  0  0  0
  190.0040  177.4800  141.5570 C   0  0  0  0  0  0  0  0  0  0  0  0
  189.4640  177.8020  142.8430 N   0  0  0  0  0  2  0  0  0  0  0  0
  189.0080  176.8100  143.8080 C   0  0  2  0  0  3  0  0  0  0  0  0
  188.1660  175.8960  143.1740 O   0  0  0  0  0  1  0  0  0  0  0  0
  188.2490  177.4910  144.9340 C   0  0  0  0  0  2  0  0  0  0  0  0
  188.9510  177.3100  146.2390 C   0  0  0  0  0  3  0  0  0  0  0  0
  190.2190  177.0450  146.2740 N   0  0  0  0  0  0  0  0  0  0  0  0
  192.4170  175.1460  146.5880 O   0  0  0  0  0  1  0  0  0  0  0  0
  191.9890  175.9770  147.6160 C   0  0  0  0  0  3  0  0  0  0  0  0
  190.9840  176.8480  147.4740 C   0  0  0  0  0  3  0  0  0  0  0  0
  184.0660  178.2400  137.3680 C   0  0  0  0  0  2  0  0  0  0  0  0
  183.9490  173.0250  137.3580 Cl  0  0  0  0  0  0  0  0  0  0  0  0
  181.8640  177.0700  137.5860 C   0  0  0  0  0  3  0  0  0  0  0  0
  180.7290  173.2070  137.7080 Cl  0  0  0  0  0  0  0  0  0  0  0  0
  183.1200  174.5700  137.4450 C   0  0  0  0  0  0  0  0  0  0  0  0
  181.7240  174.6480  137.5980 C   0  0  0  0  0  0  0  0  0  0  0  0
  183.8760  175.7430  137.3640 C   0  0  0  0  0  3  0  0  0  0  0  0
  183.2510  176.9920  137.4300 C   0  0  0  0  0  0  0  0  0  0  0  0
  181.1040  175.9000  137.6690 C   0  0  0  0  0  3  0  0  0  0  0  0
  1  2  1  0  0  0  0
  2  4  2  0  0  0  0
  3  6  1  0  0  0  0
  3  1  2  0  0  0  0
  4  8  1  0  0  0  0
  5  4  1  0  0  0  0
  6  5  2  0  0  0  0
  7 12  1  0  0  0  0
  8 10  1  0  0  0  0
  8 11  2  0  0  0  0
 10  7  2  0  0  0  0
 11 13  1  0  0  0  0
 13 12  2  0  0  0  0
 13  9  1  0  0  0  0
 14 15  1  0  0  0  0
 15  3  1  0  0  0  0
 16  1  1  0  0  0  0
 16 17  1  0  0  0  0
 17 19  1  0  0  0  0
 18 19  2  0  0  0  0
 19 20  1  0  0  0  0
 20 21  1  0  0  0  0
 21 22  1  6  0  0  0
 21 23  1  0  0  0  0
 23 24  1  0  0  0  0
 24 25  2  0  0  0  0
 25 28  1  0  0  0  0
 26 27  1  0  0  0  0
 28 27  2  0  0  0  0
 29 36  1  0  0  0  0
 29  6  1  0  0  0  0
 30 33  1  0  0  0  0
 31 37  1  0  0  0  0
 33 34  1  0  0  0  0
 34 37  2  0  0  0  0
 34 32  1  0  0  0  0
 35 36  1  0  0  0  0
 35 33  2  0  0  0  0
 36 31  2  0  0  0  0
M  END
>  <MODEL>
8

>  <REMARK>
 VINA RESULT:      -7.4      1.311      1.530
  Name = 
  12 active torsions:
  status: ('A' for Active; 'I' for Inactive)
    1  A    between atoms: C_4  and  N_36
    2  A    between atoms: C_8  and  C_12
    3  A    between atoms: C_12  and  N_25
    4  A    between atoms: C_13  and  C_24
    5  A    between atoms: C_16  and  C_33
    6  A    between atoms: C_17  and  N_27
    7  A    between atoms: C_17  and  C_33
    8  A    between atoms: C_18  and  O_31
    9  A    between atoms: C_22  and  C_30
   10  A    between atoms: N_25  and  C_26
   11  A    between atoms: C_26  and  N_27
   12  A    between atoms: C_30  and  C_34
                            x       y       z     vdW  Elec       q    Type
                         _______ _______ _______ _____ _____    ______ ____

>  <TORSDO>
F 12

$$$$
=
 OpenBabel10232412383D

 37 39  0  0  1  0  0  0  0  0999 V2000
  185.6510  178.5270  142.2360 C   0  0  0  0  0  0  0  0  0  0  0  0
  186.9030  178.3350  141.7390 N   0  0  0  0  0  0  0  0  0  0  0  0
  185.3740  178.2010  143.5890 C   0  0  0  0  0  0  0  0  0  0  0  0
  187.9220  177.8290  142.4850 C   0  0  0  0  0  0  0  0  0  0  0  0
  187.6890  177.5020  143.8230 C   0  0  0  0  0  3  0  0  0  0  0  0
  186.4230  177.6950  144.3750 C   0  0  0  0  0  0  0  0  0  0  0  0
  191.6670  177.3810  142.0980 C   0  0  0  0  0  3  0  0  0  0  0  0
  189.2560  177.6360  141.8790 C   0  0  0  0  0  0  0  0  0  0  0  0
  190.7600  177.2300  138.5600 F   0  0  0  0  0  0  0  0  0  0  0  0
  190.4090  177.5640  142.6800 C   0  0  0  0  0  3  0  0  0  0  0  0
  189.3890  177.5210  140.4860 C   0  0  0  0  0  3  0  0  0  0  0  0
  191.7850  177.2680  140.7110 C   0  0  0  0  0  3  0  0  0  0  0  0
  190.6460  177.3390  139.9050 C   0  0  0  0  0  0  0  0  0  0  0  0
  183.4100  179.5870  144.3240 C   0  0  0  0  0  1  0  0  0  0  0  0
  184.1160  178.3600  144.1990 O   0  0  0  0  0  0  0  0  0  0  0  0
  184.6430  179.1470  141.3300 C   0  0  0  0  0  2  0  0  0  0  0  0
  185.1890  179.2450  139.9840 N   0  0  0  0  0  2  0  0  0  0  0  0
  183.0530  178.5980  138.5090 S   0  0  0  0  0  0  0  0  0  0  0  0
  184.6580  178.5320  138.8640 C   0  0  0  0  0  0  0  0  0  0  0  0
  185.5620  177.7930  138.0350 N   0  0  0  0  0  2  0  0  0  0  0  0
  186.9890  178.0670  137.9370 C   0  0  2  0  0  3  0  0  0  0  0  0
  187.1950  179.1730  137.1130 O   0  0  0  0  0  1  0  0  0  0  0  0
  187.7100  176.8640  137.3510 C   0  0  0  0  0  2  0  0  0  0  0  0
  186.7380  175.8640  136.8210 C   0  0  0  0  0  3  0  0  0  0  0  0
  187.1320  174.6770  136.4820 N   0  0  0  0  0  0  0  0  0  0  0  0
  185.2530  173.0780  138.0480 O   0  0  0  0  0  1  0  0  0  0  0  0
  185.4200  172.9150  136.6770 C   0  0  0  0  0  3  0  0  0  0  0  0
  186.2780  173.6470  135.9590 C   0  0  0  0  0  3  0  0  0  0  0  0
  186.1960  177.3120  145.8040 C   0  0  0  0  0  2  0  0  0  0  0  0
  191.3580  176.6270  146.1210 Cl  0  0  0  0  0  0  0  0  0  0  0  0
  187.4070  178.0980  147.8500 C   0  0  0  0  0  3  0  0  0  0  0  0
  191.2590  178.0640  149.0280 Cl  0  0  0  0  0  0  0  0  0  0  0  0
  189.8490  177.2000  146.8120 C   0  0  0  0  0  0  0  0  0  0  0  0
  189.8070  177.8240  148.0710 C   0  0  0  0  0  0  0  0  0  0  0  0
  188.6690  177.0300  146.0820 C   0  0  0  0  0  3  0  0  0  0  0  0
  187.4480  177.4730  146.5990 C   0  0  0  0  0  0  0  0  0  0  0  0
  188.5840  178.2710  148.5830 C   0  0  0  0  0  3  0  0  0  0  0  0
  1  3  1  0  0  0  0
  2  1  2  0  0  0  0
  2  4  1  0  0  0  0
  3 15  1  0  0  0  0
  3  6  2  0  0  0  0
  4  5  2  0  0  0  0
  5  6  1  0  0  0  0
  6 29  1  0  0  0  0
  7 10  1  0  0  0  0
  8  4  1  0  0  0  0
  8 10  2  0  0  0  0
  9 13  1  0  0  0  0
 11  8  1  0  0  0  0
 12  7  2  0  0  0  0
 13 11  2  0  0  0  0
 13 12  1  0  0  0  0
 15 14  1  0  0  0  0
 16  1  1  0  0  0  0
 17 16  1  0  0  0  0
 18 19  2  0  0  0  0
 19 17  1  0  0  0  0
 20 19  1  0  0  0  0
 21 22  1  6  0  0  0
 21 20  1  0  0  0  0
 23 21  1  0  0  0  0
 24 23  1  0  0  0  0
 25 24  2  0  0  0  0
 27 26  1  0  0  0  0
 28 25  1  0  0  0  0
 28 27  2  0  0  0  0
 29 36  1  0  0  0  0
 30 33  1  0  0  0  0
 31 37  1  0  0  0  0
 33 34  1  0  0  0  0
 34 37  2  0  0  0  0
 34 32  1  0  0  0  0
 35 36  1  0  0  0  0
 35 33  2  0  0  0  0
 36 31  2  0  0  0  0
M  END
>  <MODEL>
9

>  <REMARK>
 VINA RESULT:      -7.4      4.578      8.540
  Name = 
  12 active torsions:
  status: ('A' for Active; 'I' for Inactive)
    1  A    between atoms: C_4  and  N_36
    2  A    between atoms: C_8  and  C_12
    3  A    between atoms: C_12  and  N_25
    4  A    between atoms: C_13  and  C_24
    5  A    between atoms: C_16  and  C_33
    6  A    between atoms: C_17  and  N_27
    7  A    between atoms: C_17  and  C_33
    8  A    between atoms: C_18  and  O_31
    9  A    between atoms: C_22  and  C_30
   10  A    between atoms: N_25  and  C_26
   11  A    between atoms: C_26  and  N_27
   12  A    between atoms: C_30  and  C_34
                            x       y       z     vdW  Elec       q    Type
                         _______ _______ _______ _____ _____    ______ ____

>  <TORSDO>
F 12

$$$$
