=
 OpenBabel10232411113D

 36 41  0  0  1  0  0  0  0  0999 V2000
  189.5350  176.4480  143.2340 C   0  0  0  0  0  1  0  0  0  0  0  0
  189.7380  177.6380  142.3100 C   0  0  2  0  0  0  0  0  0  0  0  0
  185.4300  178.8520  139.1290 O   0  0  0  0  0  0  0  0  0  0  0  0
  188.4700  178.0010  141.6220 C   0  0  0  0  0  0  0  0  0  0  0  0
  187.2780  178.4580  142.1730 C   0  0  0  0  0  3  0  0  0  0  0  0
  190.6030  177.2900  141.1190 C   0  0  0  0  0  0  0  0  0  0  0  0
  186.2060  178.7350  141.3070 C   0  0  0  0  0  0  0  0  0  0  0  0
  188.6020  177.8450  140.2690 C   0  0  0  0  0  0  0  0  0  0  0  0
  187.5820  178.1320  139.4020 N   0  0  0  0  0  0  0  0  0  0  0  0
  190.2580  178.7290  143.0100 O   0  0  0  0  0  1  0  0  0  0  0  0
  189.9540  177.3980  139.9590 C   0  0  0  0  0  3  0  0  0  0  0  0
  186.3840  178.5800  139.9100 C   0  0  0  0  0  0  0  0  0  0  0  0
  188.3380  176.0490  135.3230 C   0  0  2  0  0  3  0  0  0  0  0  0
  189.3680  178.0160  136.2250 N   0  0  0  0  0  2  0  0  0  0  0  0
  187.6370  174.1550  134.3460 C   0  0  0  0  0  3  0  0  0  0  0  0
  187.7120  177.9500  137.9470 C   0  0  1  0  0  3  0  0  0  0  0  0
  188.8450  178.7620  137.3610 C   0  0  0  0  0  2  0  0  0  0  0  0
  188.7830  174.9990  134.6550 C   0  0  0  0  0  3  0  0  0  0  0  0
  188.0130  176.5180  137.5780 C   0  0  2  0  0  3  0  0  0  0  0  0
  186.5550  174.6680  134.9180 C   0  0  0  0  0  2  0  0  0  0  0  0
  189.0610  176.6090  136.4690 C   0  0  1  0  0  3  0  0  0  0  0  0
  186.9030  175.9540  135.5910 C   0  0  1  0  0  3  0  0  0  0  0  0
  186.8000  175.8720  137.0450 N   0  0  0  0  0  2  0  0  0  0  0  0
  185.0420  179.7020  143.2800 C   0  0  0  0  0  2  0  0  0  0  0  0
  184.8980  179.2480  141.8450 C   0  0  2  0  0  3  0  0  0  0  0  0
  183.7940  179.3760  143.9520 N   0  0  0  0  0  0  0  0  0  0  0  0
  183.8100  178.1940  141.8670 C   0  0  0  0  0  2  0  0  0  0  0  0
  183.3230  178.1620  143.3020 C   0  0  0  0  0  2  0  0  0  0  0  0
  184.1190  179.0360  145.3260 C   0  0  0  0  0  2  0  0  0  0  0  0
  185.5190  178.4470  145.3770 C   0  0  0  0  0  2  0  0  0  0  0  0
  186.1320  178.6850  146.7130 C   0  0  0  0  0  0  0  0  0  0  0  0
  185.6490  179.5610  147.4770 O   0  0  0  0  0  1  0  0  0  0  0  0
  187.2360  177.9430  147.1180 O   0  0  0  0  0  0  0  0  0  0  0  0
  191.9490  176.9150  141.1690 O   0  0  0  0  0  0  0  0  0  0  0  0
  192.9400  177.4720  140.3160 C   0  0  0  0  0  2  0  0  0  0  0  0
  193.1000  176.6130  139.0770 C   0  0  0  0  0  1  0  0  0  0  0  0
  2 10  1  0  0  0  0
  2  1  1  1  0  0  0
  3 12  2  0  0  0  0
  4  5  1  0  0  0  0
  4  2  1  0  0  0  0
  6 34  1  0  0  0  0
  6  2  1  0  0  0  0
  7  5  2  0  0  0  0
  8  4  2  0  0  0  0
  9 12  1  0  0  0  0
  9  8  1  0  0  0  0
 11  8  1  0  0  0  0
 11  6  2  0  0  0  0
 12  7  1  0  0  0  0
 13 18  1  1  0  0  0
 13 22  1  0  0  0  0
 13 21  1  0  0  0  0
 14 17  1  0  0  0  0
 15 18  2  0  0  0  0
 15 20  1  0  0  0  0
 16 17  1  1  0  0  0
 16  9  1  0  0  0  0
 19 23  1  6  0  0  0
 19 16  1  0  0  0  0
 21 14  1  6  0  0  0
 21 19  1  0  0  0  0
 22 20  1  6  0  0  0
 22 23  1  0  0  0  0
 24 26  1  0  0  0  0
 25  7  1  1  0  0  0
 25 27  1  0  0  0  0
 25 24  1  0  0  0  0
 26 29  1  0  0  0  0
 27 28  1  0  0  0  0
 28 26  1  0  0  0  0
 29 30  1  0  0  0  0
 30 31  1  0  0  0  0
 31 33  2  0  0  0  0
 31 32  1  0  0  0  0
 35 34  1  0  0  0  0
 36 35  1  0  0  0  0
M  END
>  <MODEL>
1

>  <REMARK>
 VINA RESULT:      -7.8      0.000      0.000
  Name = 
  7 active torsions:
  status: ('A' for Active; 'I' for Inactive)
    1  A    between atoms: C_2  and  C_23
    2  A    between atoms: C_7  and  C_15
    3  A    between atoms: C_7  and  C_19
    4  A    between atoms: N_8  and  C_15
    5  A    between atoms: O_14  and  C_16
    6  A    between atoms: O_14  and  C_21
    7  A    between atoms: C_17  and  N_27
                            x       y       z     vdW  Elec       q    Type
                         _______ _______ _______ _____ _____    ______ ____

>  <TORSDO>
F 7

$$$$
=
 OpenBabel10232411113D

 36 41  0  0  1  0  0  0  0  0999 V2000
  184.2860  177.7080  140.1240 C   0  0  0  0  0  1  0  0  0  0  0  0
  185.1260  178.5810  141.0410 C   0  0  2  0  0  0  0  0  0  0  0  0
  190.3700  177.0250  141.5340 O   0  0  0  0  0  0  0  0  0  0  0  0
  186.5620  178.1940  140.9750 C   0  0  0  0  0  0  0  0  0  0  0  0
  187.4330  178.2550  139.8920 C   0  0  0  0  0  3  0  0  0  0  0  0
  184.8410  178.3080  142.5020 C   0  0  0  0  0  0  0  0  0  0  0  0
  188.7580  177.8260  140.0780 C   0  0  0  0  0  0  0  0  0  0  0  0
  186.9910  177.7470  142.1950 C   0  0  0  0  0  0  0  0  0  0  0  0
  188.2840  177.3480  142.4090 N   0  0  0  0  0  0  0  0  0  0  0  0
  184.9570  179.9320  140.7360 O   0  0  0  0  0  1  0  0  0  0  0  0
  185.8980  177.8250  143.1550 C   0  0  0  0  0  3  0  0  0  0  0  0
  189.1730  177.3880  141.3600 C   0  0  0  0  0  0  0  0  0  0  0  0
  189.6410  177.3690  146.8480 C   0  0  2  0  0  3  0  0  0  0  0  0
  190.7700  176.4780  144.9300 N   0  0  0  0  0  2  0  0  0  0  0  0
  188.8570  178.2630  148.7510 C   0  0  0  0  0  3  0  0  0  0  0  0
  188.7460  176.8500  143.7140 C   0  0  1  0  0  3  0  0  0  0  0  0
  190.1280  176.2410  143.6440 C   0  0  0  0  0  2  0  0  0  0  0  0
  190.0280  178.0560  147.9080 C   0  0  0  0  0  3  0  0  0  0  0  0
  188.8440  177.9510  144.7410 C   0  0  2  0  0  3  0  0  0  0  0  0
  187.7880  177.7840  148.1280 C   0  0  0  0  0  2  0  0  0  0  0  0
  190.1400  177.6650  145.5010 C   0  0  1  0  0  3  0  0  0  0  0  0
  188.1960  177.1430  146.8440 C   0  0  1  0  0  3  0  0  0  0  0  0
  187.7080  177.8680  145.6760 N   0  0  0  0  0  2  0  0  0  0  0  0
  189.1470  178.5550  137.7320 C   0  0  0  0  0  2  0  0  0  0  0  0
  189.7490  177.8850  138.9470 C   0  0  2  0  0  3  0  0  0  0  0  0
  189.7000  177.8850  136.5660 N   0  0  0  0  0  0  0  0  0  0  0  0
  190.1890  176.5160  138.4710 C   0  0  0  0  0  2  0  0  0  0  0  0
  189.8990  176.5050  136.9840 C   0  0  0  0  0  2  0  0  0  0  0  0
  188.6700  177.8850  135.5410 C   0  0  0  0  0  2  0  0  0  0  0  0
  187.3600  178.3580  136.1470 C   0  0  0  0  0  2  0  0  0  0  0  0
  186.3330  177.2840  136.0640 C   0  0  0  0  0  0  0  0  0  0  0  0
  185.6490  177.1510  135.0150 O   0  0  0  0  0  0  0  0  0  0  0  0
  186.1280  176.4270  137.1400 O   0  0  0  0  0  1  0  0  0  0  0  0
  183.6260  178.5440  143.1530 O   0  0  0  0  0  0  0  0  0  0  0  0
  183.4670  179.5310  144.1630 C   0  0  0  0  0  2  0  0  0  0  0  0
  183.7560  178.9300  145.5250 C   0  0  0  0  0  1  0  0  0  0  0  0
  2  1  1  6  0  0  0
  2  6  1  0  0  0  0
  4  2  1  0  0  0  0
  4  8  2  0  0  0  0
  5  7  2  0  0  0  0
  5  4  1  0  0  0  0
  6 34  1  0  0  0  0
  6 11  2  0  0  0  0
  7 12  1  0  0  0  0
  8  9  1  0  0  0  0
  8 11  1  0  0  0  0
 10  2  1  0  0  0  0
 12  3  2  0  0  0  0
 12  9  1  0  0  0  0
 13 18  1  1  0  0  0
 16  9  1  6  0  0  0
 16 19  1  0  0  0  0
 17 16  1  0  0  0  0
 17 14  1  0  0  0  0
 18 15  2  0  0  0  0
 19 21  1  0  0  0  0
 19 23  1  1  0  0  0
 20 15  1  0  0  0  0
 21 14  1  6  0  0  0
 21 13  1  0  0  0  0
 22 13  1  0  0  0  0
 22 20  1  1  0  0  0
 23 22  1  0  0  0  0
 24 25  1  0  0  0  0
 25  7  1  1  0  0  0
 26 28  1  0  0  0  0
 26 24  1  0  0  0  0
 27 25  1  0  0  0  0
 28 27  1  0  0  0  0
 29 30  1  0  0  0  0
 29 26  1  0  0  0  0
 31 30  1  0  0  0  0
 31 33  1  0  0  0  0
 32 31  2  0  0  0  0
 34 35  1  0  0  0  0
 35 36  1  0  0  0  0
M  END
>  <MODEL>
2

>  <REMARK>
 VINA RESULT:      -7.6      2.517      8.667
  Name = 
  7 active torsions:
  status: ('A' for Active; 'I' for Inactive)
    1  A    between atoms: C_2  and  C_23
    2  A    between atoms: C_7  and  C_15
    3  A    between atoms: C_7  and  C_19
    4  A    between atoms: N_8  and  C_15
    5  A    between atoms: O_14  and  C_16
    6  A    between atoms: O_14  and  C_21
    7  A    between atoms: C_17  and  N_27
                            x       y       z     vdW  Elec       q    Type
                         _______ _______ _______ _____ _____    ______ ____

>  <TORSDO>
F 7

$$$$
=
 OpenBabel10232411113D

 36 41  0  0  1  0  0  0  0  0999 V2000
  191.7040  177.1210  143.2080 C   0  0  0  0  0  1  0  0  0  0  0  0
  190.3470  176.4670  143.0060 C   0  0  2  0  0  0  0  0  0  0  0  0
  187.4020  178.5030  138.8420 O   0  0  0  0  0  0  0  0  0  0  0  0
  189.7010  176.9560  141.7580 C   0  0  0  0  0  0  0  0  0  0  0  0
  190.1220  176.8060  140.4410 C   0  0  0  0  0  3  0  0  0  0  0  0
  189.3370  176.9300  144.0330 C   0  0  0  0  0  0  0  0  0  0  0  0
  189.3320  177.3650  139.4210 C   0  0  0  0  0  0  0  0  0  0  0  0
  188.5370  177.6140  142.0510 C   0  0  0  0  0  0  0  0  0  0  0  0
  187.7370  178.1440  141.0740 N   0  0  0  0  0  0  0  0  0  0  0  0
  190.4610  175.0760  143.0000 O   0  0  0  0  0  1  0  0  0  0  0  0
  188.3130  177.5910  143.4910 C   0  0  0  0  0  3  0  0  0  0  0  0
  188.1240  178.0220  139.7600 C   0  0  0  0  0  0  0  0  0  0  0  0
  183.4920  178.9920  142.7480 C   0  0  2  0  0  3  0  0  0  0  0  0
  184.3000  179.2190  140.5030 N   0  0  0  0  0  2  0  0  0  0  0  0
  182.4710  178.7060  144.7260 C   0  0  0  0  0  3  0  0  0  0  0  0
  186.4940  178.8680  141.3840 C   0  0  1  0  0  3  0  0  0  0  0  0
  185.7110  179.2320  140.1430 C   0  0  0  0  0  2  0  0  0  0  0  0
  182.3740  178.5300  143.2830 C   0  0  0  0  0  3  0  0  0  0  0  0
  185.5510  178.0440  142.2260 C   0  0  2  0  0  3  0  0  0  0  0  0
  183.6760  179.1740  145.0240 C   0  0  0  0  0  2  0  0  0  0  0  0
  184.1650  178.3100  141.6380 C   0  0  1  0  0  3  0  0  0  0  0  0
  184.4460  179.4200  143.7690 C   0  0  1  0  0  3  0  0  0  0  0  0
  185.5820  178.5160  143.6220 N   0  0  0  0  0  2  0  0  0  0  0  0
  188.7090  176.4060  137.2130 C   0  0  0  0  0  2  0  0  0  0  0  0
  189.7300  177.2190  137.9770 C   0  0  2  0  0  3  0  0  0  0  0  0
  189.4440  175.6270  136.2280 N   0  0  0  0  0  0  0  0  0  0  0  0
  191.0420  176.4860  137.7930 C   0  0  0  0  0  2  0  0  0  0  0  0
  190.7240  175.3380  136.8570 C   0  0  0  0  0  2  0  0  0  0  0  0
  188.7430  174.3650  136.0660 C   0  0  0  0  0  2  0  0  0  0  0  0
  187.4380  174.4150  136.8420 C   0  0  0  0  0  2  0  0  0  0  0  0
  187.0030  173.0400  137.2110 C   0  0  0  0  0  0  0  0  0  0  0  0
  187.7570  172.0590  136.9760 O   0  0  0  0  0  0  0  0  0  0  0  0
  185.7660  172.8350  137.8140 O   0  0  0  0  0  1  0  0  0  0  0  0
  189.4060  176.6960  145.4100 O   0  0  0  0  0  0  0  0  0  0  0  0
  189.3900  177.7400  146.3740 C   0  0  0  0  0  2  0  0  0  0  0  0
  188.3150  177.4710  147.4100 C   0  0  0  0  0  1  0  0  0  0  0  0
  2  1  1  1  0  0  0
  2  6  1  0  0  0  0
  3 12  2  0  0  0  0
  4  8  2  0  0  0  0
  4  2  1  0  0  0  0
  5  4  1  0  0  0  0
  6 34  1  0  0  0  0
  7 12  1  0  0  0  0
  7  5  2  0  0  0  0
  8 11  1  0  0  0  0
  9 16  1  0  0  0  0
  9  8  1  0  0  0  0
 10  2  1  0  0  0  0
 11  6  2  0  0  0  0
 12  9  1  0  0  0  0
 13 18  1  1  0  0  0
 13 22  1  0  0  0  0
 15 20  1  0  0  0  0
 16 17  1  6  0  0  0
 16 19  1  0  0  0  0
 17 14  1  0  0  0  0
 18 15  2  0  0  0  0
 19 23  1  1  0  0  0
 21 14  1  6  0  0  0
 21 19  1  0  0  0  0
 21 13  1  0  0  0  0
 22 20  1  1  0  0  0
 23 22  1  0  0  0  0
 24 25  1  0  0  0  0
 25  7  1  1  0  0  0
 26 28  1  0  0  0  0
 26 24  1  0  0  0  0
 27 25  1  0  0  0  0
 28 27  1  0  0  0  0
 29 26  1  0  0  0  0
 29 30  1  0  0  0  0
 30 31  1  0  0  0  0
 31 33  1  0  0  0  0
 32 31  2  0  0  0  0
 34 35  1  0  0  0  0
 35 36  1  0  0  0  0
M  END
>  <MODEL>
3

>  <REMARK>
 VINA RESULT:      -7.3      2.413      7.588
  Name = 
  7 active torsions:
  status: ('A' for Active; 'I' for Inactive)
    1  A    between atoms: C_2  and  C_23
    2  A    between atoms: C_7  and  C_15
    3  A    between atoms: C_7  and  C_19
    4  A    between atoms: N_8  and  C_15
    5  A    between atoms: O_14  and  C_16
    6  A    between atoms: O_14  and  C_21
    7  A    between atoms: C_17  and  N_27
                            x       y       z     vdW  Elec       q    Type
                         _______ _______ _______ _____ _____    ______ ____

>  <TORSDO>
F 7

$$$$
=
 OpenBabel10232411113D

 36 41  0  0  1  0  0  0  0  0999 V2000
  191.9480  177.5310  142.1350 C   0  0  0  0  0  1  0  0  0  0  0  0
  190.6120  176.8460  142.3750 C   0  0  2  0  0  0  0  0  0  0  0  0
  186.7600  177.9260  138.6140 O   0  0  0  0  0  0  0  0  0  0  0  0
  189.6950  177.0510  141.2220 C   0  0  0  0  0  0  0  0  0  0  0  0
  189.8350  176.6200  139.9080 C   0  0  0  0  0  3  0  0  0  0  0  0
  189.8200  177.5190  143.4740 C   0  0  0  0  0  0  0  0  0  0  0  0
  188.8220  176.9430  138.9880 C   0  0  0  0  0  0  0  0  0  0  0  0
  188.5880  177.7550  141.6140 C   0  0  0  0  0  0  0  0  0  0  0  0
  187.5750  178.0600  140.7440 N   0  0  0  0  0  0  0  0  0  0  0  0
  190.7890  175.4870  142.6390 O   0  0  0  0  0  1  0  0  0  0  0  0
  188.6740  178.0450  143.0400 C   0  0  0  0  0  3  0  0  0  0  0  0
  187.6810  177.6560  139.4340 C   0  0  0  0  0  0  0  0  0  0  0  0
  183.4950  179.0560  142.7210 C   0  0  2  0  0  3  0  0  0  0  0  0
  184.1650  179.3130  140.4340 N   0  0  0  0  0  2  0  0  0  0  0  0
  182.5940  178.7590  144.7540 C   0  0  0  0  0  3  0  0  0  0  0  0
  186.3920  178.8320  141.1560 C   0  0  1  0  0  3  0  0  0  0  0  0
  185.5480  179.2700  139.9810 C   0  0  0  0  0  2  0  0  0  0  0  0
  182.3940  178.6310  143.3160 C   0  0  0  0  0  3  0  0  0  0  0  0
  185.4670  178.0280  142.0370 C   0  0  2  0  0  3  0  0  0  0  0  0
  183.8370  179.1610  144.9830 C   0  0  0  0  0  2  0  0  0  0  0  0
  184.0600  178.3770  141.5500 C   0  0  1  0  0  3  0  0  0  0  0  0
  184.5350  179.4080  143.6870 C   0  0  1  0  0  3  0  0  0  0  0  0
  185.6120  178.4560  143.4390 N   0  0  0  0  0  2  0  0  0  0  0  0
  189.9160  175.3680  137.4050 C   0  0  0  0  0  2  0  0  0  0  0  0
  188.9120  176.4880  137.5570 C   0  0  2  0  0  3  0  0  0  0  0  0
  190.5560  175.5490  136.1120 N   0  0  0  0  0  0  0  0  0  0  0  0
  189.3840  177.5770  136.6160 C   0  0  0  0  0  2  0  0  0  0  0  0
  190.5860  176.9890  135.9050 C   0  0  0  0  0  2  0  0  0  0  0  0
  191.9310  175.0990  136.2440 C   0  0  0  0  0  2  0  0  0  0  0  0
  192.2650  174.9400  137.7170 C   0  0  0  0  0  2  0  0  0  0  0  0
  193.4900  175.7150  138.0560 C   0  0  0  0  0  0  0  0  0  0  0  0
  193.3860  176.8890  138.4990 O   0  0  0  0  0  1  0  0  0  0  0  0
  194.7480  175.1470  137.8860 O   0  0  0  0  0  0  0  0  0  0  0  0
  190.1900  177.5890  144.8210 O   0  0  0  0  0  0  0  0  0  0  0  0
  189.2470  177.6880  145.8790 C   0  0  0  0  0  2  0  0  0  0  0  0
  189.7450  176.9260  147.0910 C   0  0  0  0  0  1  0  0  0  0  0  0
  2  1  1  6  0  0  0
  2 10  1  0  0  0  0
  2  6  1  0  0  0  0
  3 12  2  0  0  0  0
  4  8  2  0  0  0  0
  4  2  1  0  0  0  0
  5  4  1  0  0  0  0
  6 34  1  0  0  0  0
  7 12  1  0  0  0  0
  7  5  2  0  0  0  0
  8 11  1  0  0  0  0
  9 16  1  0  0  0  0
  9  8  1  0  0  0  0
 11  6  2  0  0  0  0
 12  9  1  0  0  0  0
 13 18  1  1  0  0  0
 13 22  1  0  0  0  0
 15 20  1  0  0  0  0
 16 17  1  6  0  0  0
 16 19  1  0  0  0  0
 17 14  1  0  0  0  0
 18 15  2  0  0  0  0
 19 23  1  1  0  0  0
 21 14  1  6  0  0  0
 21 19  1  0  0  0  0
 21 13  1  0  0  0  0
 22 20  1  1  0  0  0
 23 22  1  0  0  0  0
 24 25  1  0  0  0  0
 25  7  1  1  0  0  0
 26 29  1  0  0  0  0
 26 24  1  0  0  0  0
 27 25  1  0  0  0  0
 28 26  1  0  0  0  0
 28 27  1  0  0  0  0
 29 30  1  0  0  0  0
 30 31  1  0  0  0  0
 31 32  1  0  0  0  0
 33 31  2  0  0  0  0
 34 35  1  0  0  0  0
 35 36  1  0  0  0  0
M  END
>  <MODEL>
4

>  <REMARK>
 VINA RESULT:      -7.1      2.228      7.690
  Name = 
  7 active torsions:
  status: ('A' for Active; 'I' for Inactive)
    1  A    between atoms: C_2  and  C_23
    2  A    between atoms: C_7  and  C_15
    3  A    between atoms: C_7  and  C_19
    4  A    between atoms: N_8  and  C_15
    5  A    between atoms: O_14  and  C_16
    6  A    between atoms: O_14  and  C_21
    7  A    between atoms: C_17  and  N_27
                            x       y       z     vdW  Elec       q    Type
                         _______ _______ _______ _____ _____    ______ ____

>  <TORSDO>
F 7

$$$$
=
 OpenBabel10232411113D

 36 41  0  0  1  0  0  0  0  0999 V2000
  189.9480  178.3240  143.6360 C   0  0  0  0  0  1  0  0  0  0  0  0
  188.7370  177.4620  143.3210 C   0  0  2  0  0  0  0  0  0  0  0  0
  186.1690  178.7180  138.6320 O   0  0  0  0  0  0  0  0  0  0  0  0
  188.2160  177.7530  141.9580 C   0  0  0  0  0  0  0  0  0  0  0  0
  188.8390  177.5710  140.7280 C   0  0  0  0  0  3  0  0  0  0  0  0
  187.5360  177.8430  144.1570 C   0  0  0  0  0  0  0  0  0  0  0  0
  188.1350  177.9280  139.5650 C   0  0  0  0  0  0  0  0  0  0  0  0
  186.9430  178.2500  142.0320 C   0  0  0  0  0  0  0  0  0  0  0  0
  186.2260  178.5810  140.9130 N   0  0  0  0  0  0  0  0  0  0  0  0
  189.0420  176.1060  143.4610 O   0  0  0  0  0  1  0  0  0  0  0  0
  186.5190  178.3000  143.4250 C   0  0  0  0  0  3  0  0  0  0  0  0
  186.8110  178.4200  139.6780 C   0  0  0  0  0  0  0  0  0  0  0  0
  181.6390  178.7780  141.5920 C   0  0  2  0  0  3  0  0  0  0  0  0
  182.9010  179.3750  139.6440 N   0  0  0  0  0  2  0  0  0  0  0  0
  180.2400  178.1380  143.2260 C   0  0  0  0  0  3  0  0  0  0  0  0
  184.8630  179.1310  140.9870 C   0  0  1  0  0  3  0  0  0  0  0  0
  184.3440  179.5740  139.6380 C   0  0  0  0  0  2  0  0  0  0  0  0
  180.4970  178.1420  141.7920 C   0  0  0  0  0  3  0  0  0  0  0  0
  183.8660  178.1150  141.4870 C   0  0  2  0  0  3  0  0  0  0  0  0
  181.2760  178.6800  143.8520 C   0  0  0  0  0  2  0  0  0  0  0  0
  182.6280  178.3170  140.6130 C   0  0  1  0  0  3  0  0  0  0  0  0
  182.2740  179.1620  142.8520 C   0  0  1  0  0  3  0  0  0  0  0  0
  183.5180  178.4010  142.8900 N   0  0  0  0  0  2  0  0  0  0  0  0
  188.0060  176.6850  137.4140 C   0  0  0  0  0  2  0  0  0  0  0  0
  188.7520  177.7360  138.2060 C   0  0  2  0  0  3  0  0  0  0  0  0
  188.9960  175.9760  136.6190 N   0  0  0  0  0  0  0  0  0  0  0  0
  190.1840  177.2480  138.2670 C   0  0  0  0  0  2  0  0  0  0  0  0
  190.2060  175.9850  137.4300 C   0  0  0  0  0  2  0  0  0  0  0  0
  188.5550  174.5960  136.5110 C   0  0  0  0  0  2  0  0  0  0  0  0
  187.1050  174.4990  136.9510 C   0  0  0  0  0  2  0  0  0  0  0  0
  186.7760  173.1020  137.3450 C   0  0  0  0  0  0  0  0  0  0  0  0
  185.7330  172.8680  138.0120 O   0  0  0  0  0  1  0  0  0  0  0  0
  187.6160  172.0550  136.9810 O   0  0  0  0  0  0  0  0  0  0  0  0
  187.4380  177.7250  145.5470 O   0  0  0  0  0  0  0  0  0  0  0  0
  186.2010  177.5520  146.2250 C   0  0  0  0  0  2  0  0  0  0  0  0
  185.8730  178.7960  147.0280 C   0  0  0  0  0  1  0  0  0  0  0  0
  2 10  1  0  0  0  0
  2  1  1  1  0  0  0
  2  6  1  0  0  0  0
  3 12  2  0  0  0  0
  4  8  2  0  0  0  0
  4  2  1  0  0  0  0
  5  4  1  0  0  0  0
  6 34  1  0  0  0  0
  7 12  1  0  0  0  0
  7  5  2  0  0  0  0
  8 11  1  0  0  0  0
  9 16  1  0  0  0  0
  9  8  1  0  0  0  0
 11  6  2  0  0  0  0
 12  9  1  0  0  0  0
 13 18  1  1  0  0  0
 13 22  1  0  0  0  0
 15 20  1  0  0  0  0
 16 17  1  6  0  0  0
 16 19  1  0  0  0  0
 17 14  1  0  0  0  0
 18 15  2  0  0  0  0
 19 23  1  1  0  0  0
 21 14  1  6  0  0  0
 21 19  1  0  0  0  0
 21 13  1  0  0  0  0
 22 23  1  0  0  0  0
 22 20  1  1  0  0  0
 24 25  1  0  0  0  0
 25 27  1  0  0  0  0
 25  7  1  1  0  0  0
 26 24  1  0  0  0  0
 26 28  1  0  0  0  0
 28 27  1  0  0  0  0
 29 26  1  0  0  0  0
 29 30  1  0  0  0  0
 30 31  1  0  0  0  0
 31 32  1  0  0  0  0
 33 31  2  0  0  0  0
 34 35  1  0  0  0  0
 35 36  1  0  0  0  0
M  END
>  <MODEL>
5

>  <REMARK>
 VINA RESULT:      -7.0      2.431      7.571
  Name = 
  7 active torsions:
  status: ('A' for Active; 'I' for Inactive)
    1  A    between atoms: C_2  and  C_23
    2  A    between atoms: C_7  and  C_15
    3  A    between atoms: C_7  and  C_19
    4  A    between atoms: N_8  and  C_15
    5  A    between atoms: O_14  and  C_16
    6  A    between atoms: O_14  and  C_21
    7  A    between atoms: C_17  and  N_27
                            x       y       z     vdW  Elec       q    Type
                         _______ _______ _______ _____ _____    ______ ____

>  <TORSDO>
F 7

$$$$
=
 OpenBabel10232411113D

 36 41  0  0  1  0  0  0  0  0999 V2000
  188.4970  176.5330  143.6650 C   0  0  0  0  0  1  0  0  0  0  0  0
  189.2580  177.5310  142.8090 C   0  0  2  0  0  0  0  0  0  0  0  0
  187.5270  177.9060  137.6110 O   0  0  0  0  0  0  0  0  0  0  0  0
  188.6120  177.6950  141.4790 C   0  0  0  0  0  0  0  0  0  0  0  0
  187.3480  178.1920  141.1770 C   0  0  0  0  0  3  0  0  0  0  0  0
  190.6110  177.0020  142.3880 C   0  0  0  0  0  0  0  0  0  0  0  0
  186.9580  178.2460  139.8280 C   0  0  0  0  0  0  0  0  0  0  0  0
  189.4600  177.2870  140.4850 C   0  0  0  0  0  0  0  0  0  0  0  0
  189.1130  177.3540  139.1610 N   0  0  0  0  0  0  0  0  0  0  0  0
  189.3760  178.7590  143.4620 O   0  0  0  0  0  1  0  0  0  0  0  0
  190.7230  176.8530  141.0680 C   0  0  0  0  0  3  0  0  0  0  0  0
  187.8680  177.8350  138.8240 C   0  0  0  0  0  0  0  0  0  0  0  0
  191.4390  174.4910  136.3440 C   0  0  2  0  0  3  0  0  0  0  0  0
  192.2850  176.2360  137.7520 N   0  0  0  0  0  2  0  0  0  0  0  0
  190.9050  172.7140  135.0820 C   0  0  0  0  0  3  0  0  0  0  0  0
  190.0140  176.9020  138.0900 C   0  0  1  0  0  3  0  0  0  0  0  0
  191.4560  177.2740  138.3500 C   0  0  0  0  0  2  0  0  0  0  0  0
  191.8370  173.2630  136.0580 C   0  0  0  0  0  3  0  0  0  0  0  0
  190.0080  175.4010  137.9370 C   0  0  2  0  0  3  0  0  0  0  0  0
  189.9230  173.5840  134.8860 C   0  0  0  0  0  2  0  0  0  0  0  0
  191.4720  175.0240  137.7100 C   0  0  1  0  0  3  0  0  0  0  0  0
  190.1850  174.8260  135.6710 C   0  0  1  0  0  3  0  0  0  0  0  0
  189.2220  175.0200  136.7510 N   0  0  0  0  0  2  0  0  0  0  0  0
  184.8110  179.1820  140.6650 C   0  0  0  0  0  2  0  0  0  0  0  0
  185.6090  178.7910  139.4420 C   0  0  2  0  0  3  0  0  0  0  0  0
  183.4180  178.8820  140.3730 N   0  0  0  0  0  0  0  0  0  0  0  0
  184.7480  177.7820  138.7100 C   0  0  0  0  0  2  0  0  0  0  0  0
  183.4600  177.7140  139.5050 C   0  0  0  0  0  2  0  0  0  0  0  0
  182.7940  178.4750  141.6200 C   0  0  0  0  0  2  0  0  0  0  0  0
  183.7630  178.7120  142.7650 C   0  0  0  0  0  2  0  0  0  0  0  0
  183.0230  178.8520  144.0490 C   0  0  0  0  0  0  0  0  0  0  0  0
  181.7750  178.6870  144.0750 O   0  0  0  0  0  0  0  0  0  0  0  0
  183.7050  179.1640  145.2200 O   0  0  0  0  0  1  0  0  0  0  0  0
  191.6750  176.7070  143.2470 O   0  0  0  0  0  0  0  0  0  0  0  0
  191.5680  175.7900  144.3270 C   0  0  0  0  0  2  0  0  0  0  0  0
  191.5980  176.5370  145.6470 C   0  0  0  0  0  1  0  0  0  0  0  0
  2 10  1  0  0  0  0
  2  1  1  1  0  0  0
  3 12  2  0  0  0  0
  4  2  1  0  0  0  0
  5  4  1  0  0  0  0
  6  2  1  0  0  0  0
  6 34  1  0  0  0  0
  7  5  2  0  0  0  0
  8 11  1  0  0  0  0
  8  4  2  0  0  0  0
  9  8  1  0  0  0  0
 11  6  2  0  0  0  0
 12  9  1  0  0  0  0
 12  7  1  0  0  0  0
 13 18  1  1  0  0  0
 13 21  1  0  0  0  0
 14 17  1  0  0  0  0
 15 18  2  0  0  0  0
 16 17  1  1  0  0  0
 16  9  1  0  0  0  0
 19 23  1  6  0  0  0
 19 16  1  0  0  0  0
 20 15  1  0  0  0  0
 21 14  1  6  0  0  0
 21 19  1  0  0  0  0
 22 20  1  6  0  0  0
 22 13  1  0  0  0  0
 22 23  1  0  0  0  0
 25  7  1  1  0  0  0
 25 24  1  0  0  0  0
 26 24  1  0  0  0  0
 26 29  1  0  0  0  0
 27 25  1  0  0  0  0
 27 28  1  0  0  0  0
 28 26  1  0  0  0  0
 29 30  1  0  0  0  0
 30 31  1  0  0  0  0
 31 32  2  0  0  0  0
 31 33  1  0  0  0  0
 34 35  1  0  0  0  0
 35 36  1  0  0  0  0
M  END
>  <MODEL>
6

>  <REMARK>
 VINA RESULT:      -6.9      2.260      3.139
  Name = 
  7 active torsions:
  status: ('A' for Active; 'I' for Inactive)
    1  A    between atoms: C_2  and  C_23
    2  A    between atoms: C_7  and  C_15
    3  A    between atoms: C_7  and  C_19
    4  A    between atoms: N_8  and  C_15
    5  A    between atoms: O_14  and  C_16
    6  A    between atoms: O_14  and  C_21
    7  A    between atoms: C_17  and  N_27
                            x       y       z     vdW  Elec       q    Type
                         _______ _______ _______ _____ _____    ______ ____

>  <TORSDO>
F 7

$$$$
=
 OpenBabel10232411113D

 36 41  0  0  1  0  0  0  0  0999 V2000
  189.0980  175.2210  137.4740 C   0  0  0  0  0  1  0  0  0  0  0  0
  189.1000  176.7260  137.6850 C   0  0  2  0  0  0  0  0  0  0  0  0
  188.7420  178.3200  142.9280 O   0  0  0  0  0  0  0  0  0  0  0  0
  189.1800  177.0610  139.1330 C   0  0  0  0  0  0  0  0  0  0  0  0
  190.2040  176.7950  140.0350 C   0  0  0  0  0  3  0  0  0  0  0  0
  187.7670  177.3500  137.3370 C   0  0  0  0  0  0  0  0  0  0  0  0
  190.0450  177.2140  141.3670 C   0  0  0  0  0  0  0  0  0  0  0  0
  188.0540  177.7310  139.5280 C   0  0  0  0  0  0  0  0  0  0  0  0
  187.8860  178.1720  140.8140 N   0  0  0  0  0  0  0  0  0  0  0  0
  190.1410  177.3280  136.9740 O   0  0  0  0  0  1  0  0  0  0  0  0
  187.1670  177.9120  138.3870 C   0  0  0  0  0  3  0  0  0  0  0  0
  188.8760  177.9220  141.7370 C   0  0  0  0  0  0  0  0  0  0  0  0
  183.8210  178.9600  142.9110 C   0  0  2  0  0  3  0  0  0  0  0  0
  184.3940  179.1980  140.5960 N   0  0  0  0  0  2  0  0  0  0  0  0
  183.0100  178.6620  144.9820 C   0  0  0  0  0  3  0  0  0  0  0  0
  186.6710  178.8780  141.2490 C   0  0  1  0  0  3  0  0  0  0  0  0
  185.7610  179.2310  140.0940 C   0  0  0  0  0  2  0  0  0  0  0  0
  182.7700  178.4830  143.5560 C   0  0  0  0  0  3  0  0  0  0  0  0
  185.8300  178.0420  142.1820 C   0  0  2  0  0  3  0  0  0  0  0  0
  184.2330  179.1470  145.1560 C   0  0  0  0  0  2  0  0  0  0  0  0
  184.3880  178.2870  141.7370 C   0  0  1  0  0  3  0  0  0  0  0  0
  184.8680  179.4030  143.8300 C   0  0  1  0  0  3  0  0  0  0  0  0
  185.9950  178.5150  143.5670 N   0  0  0  0  0  2  0  0  0  0  0  0
  190.6070  176.1540  143.5460 C   0  0  0  0  0  2  0  0  0  0  0  0
  191.1280  176.9680  142.3820 C   0  0  2  0  0  3  0  0  0  0  0  0
  191.2880  176.6380  144.7360 N   0  0  0  0  0  0  0  0  0  0  0  0
  191.6660  178.2430  142.9980 C   0  0  0  0  0  2  0  0  0  0  0  0
  191.5080  178.0560  144.4930 C   0  0  0  0  0  2  0  0  0  0  0  0
  190.3530  176.5260  145.8430 C   0  0  0  0  0  2  0  0  0  0  0  0
  189.6500  177.8580  146.0390 C   0  0  0  0  0  2  0  0  0  0  0  0
  188.5100  177.7060  146.9850 C   0  0  0  0  0  0  0  0  0  0  0  0
  187.3520  177.4860  146.5410 O   0  0  0  0  0  0  0  0  0  0  0  0
  188.7200  177.8080  148.3560 O   0  0  0  0  0  1  0  0  0  0  0  0
  187.1890  177.3840  136.0630 O   0  0  0  0  0  0  0  0  0  0  0  0
  185.9890  176.6960  135.7380 C   0  0  0  0  0  2  0  0  0  0  0  0
  186.2500  175.6900  134.6340 C   0  0  0  0  0  1  0  0  0  0  0  0
  2  1  1  6  0  0  0
  2  4  1  0  0  0  0
  4  8  2  0  0  0  0
  4  5  1  0  0  0  0
  5  7  2  0  0  0  0
  6  2  1  0  0  0  0
  6 11  2  0  0  0  0
  7 12  1  0  0  0  0
  8  9  1  0  0  0  0
  9 16  1  0  0  0  0
  9 12  1  0  0  0  0
 10  2  1  0  0  0  0
 11  8  1  0  0  0  0
 12  3  2  0  0  0  0
 13 18  1  1  0  0  0
 13 22  1  0  0  0  0
 15 20  1  0  0  0  0
 16 17  1  6  0  0  0
 16 19  1  0  0  0  0
 17 14  1  0  0  0  0
 18 15  2  0  0  0  0
 19 23  1  1  0  0  0
 21 14  1  6  0  0  0
 21 19  1  0  0  0  0
 21 13  1  0  0  0  0
 22 20  1  1  0  0  0
 23 22  1  0  0  0  0
 24 26  1  0  0  0  0
 25  7  1  6  0  0  0
 25 27  1  0  0  0  0
 25 24  1  0  0  0  0
 26 29  1  0  0  0  0
 27 28  1  0  0  0  0
 28 26  1  0  0  0  0
 29 30  1  0  0  0  0
 30 31  1  0  0  0  0
 31 33  1  0  0  0  0
 32 31  2  0  0  0  0
 34  6  1  0  0  0  0
 35 34  1  0  0  0  0
 36 35  1  0  0  0  0
M  END
>  <MODEL>
7

>  <REMARK>
 VINA RESULT:      -6.8      2.133      6.559
  Name = 
  7 active torsions:
  status: ('A' for Active; 'I' for Inactive)
    1  A    between atoms: C_2  and  C_23
    2  A    between atoms: C_7  and  C_15
    3  A    between atoms: C_7  and  C_19
    4  A    between atoms: N_8  and  C_15
    5  A    between atoms: O_14  and  C_16
    6  A    between atoms: O_14  and  C_21
    7  A    between atoms: C_17  and  N_27
                            x       y       z     vdW  Elec       q    Type
                         _______ _______ _______ _____ _____    ______ ____

>  <TORSDO>
F 7

$$$$
=
 OpenBabel10232411113D

 36 41  0  0  1  0  0  0  0  0999 V2000
  188.6260  176.5430  142.4690 C   0  0  0  0  0  1  0  0  0  0  0  0
  189.4650  177.4960  141.6350 C   0  0  2  0  0  0  0  0  0  0  0  0
  189.2480  176.6210  136.2180 O   0  0  0  0  0  0  0  0  0  0  0  0
  189.2070  177.3000  140.1820 C   0  0  0  0  0  0  0  0  0  0  0  0
  188.0290  177.4960  139.4710 C   0  0  0  0  0  3  0  0  0  0  0  0
  190.9380  177.1570  141.6960 C   0  0  0  0  0  0  0  0  0  0  0  0
  188.0330  177.2390  138.0890 C   0  0  0  0  0  0  0  0  0  0  0  0
  190.3470  176.8860  139.5490 C   0  0  0  0  0  0  0  0  0  0  0  0
  190.3850  176.6530  138.1990 N   0  0  0  0  0  0  0  0  0  0  0  0
  189.2350  178.8210  142.0100 O   0  0  0  0  0  1  0  0  0  0  0  0
  191.4380  176.8000  140.5120 C   0  0  0  0  0  3  0  0  0  0  0  0
  189.2360  176.8300  137.4630 C   0  0  0  0  0  0  0  0  0  0  0  0
  193.7310  173.7980  136.7160 C   0  0  2  0  0  3  0  0  0  0  0  0
  193.9330  175.8530  137.9330 N   0  0  0  0  0  2  0  0  0  0  0  0
  193.7860  171.7850  135.7260 C   0  0  0  0  0  3  0  0  0  0  0  0
  191.6030  176.1900  137.5160 C   0  0  1  0  0  3  0  0  0  0  0  0
  192.8570  176.8250  138.0750 C   0  0  0  0  0  2  0  0  0  0  0  0
  194.3270  172.6210  136.7900 C   0  0  0  0  0  3  0  0  0  0  0  0
  191.8070  174.7020  137.6610 C   0  0  2  0  0  3  0  0  0  0  0  0
  192.8150  172.4460  135.1100 C   0  0  0  0  0  2  0  0  0  0  0  0
  193.3060  174.5340  137.9120 C   0  0  1  0  0  3  0  0  0  0  0  0
  192.6980  173.8200  135.6810 C   0  0  1  0  0  3  0  0  0  0  0  0
  191.4480  174.0210  136.4050 N   0  0  0  0  0  2  0  0  0  0  0  0
  185.8040  178.3370  137.9900 C   0  0  0  0  0  2  0  0  0  0  0  0
  186.7920  177.4510  137.2660 C   0  0  2  0  0  3  0  0  0  0  0  0
  184.4760  177.8530  137.6500 N   0  0  0  0  0  0  0  0  0  0  0  0
  186.0410  176.1660  136.9820 C   0  0  0  0  0  2  0  0  0  0  0  0
  184.6320  176.4160  137.4790 C   0  0  0  0  0  2  0  0  0  0  0  0
  183.6290  178.0640  138.8110 C   0  0  0  0  0  2  0  0  0  0  0  0
  184.1140  179.2880  139.5680 C   0  0  0  0  0  2  0  0  0  0  0  0
  184.5110  178.9170  140.9540 C   0  0  0  0  0  0  0  0  0  0  0  0
  183.8680  178.0290  141.5730 O   0  0  0  0  0  1  0  0  0  0  0  0
  185.5890  179.5470  141.5650 O   0  0  0  0  0  0  0  0  0  0  0  0
  191.7430  177.2190  142.8380 O   0  0  0  0  0  0  0  0  0  0  0  0
  191.6800  176.2580  143.8830 C   0  0  0  0  0  2  0  0  0  0  0  0
  191.3080  176.9350  145.1880 C   0  0  0  0  0  1  0  0  0  0  0  0
  2  6  1  0  0  0  0
  2 10  1  0  0  0  0
  2  1  1  1  0  0  0
  3 12  2  0  0  0  0
  4  2  1  0  0  0  0
  5  4  1  0  0  0  0
  6 34  1  0  0  0  0
  7  5  2  0  0  0  0
  8  4  2  0  0  0  0
  8 11  1  0  0  0  0
  9  8  1  0  0  0  0
 11  6  2  0  0  0  0
 12  7  1  0  0  0  0
 12  9  1  0  0  0  0
 13 18  1  1  0  0  0
 13 21  1  0  0  0  0
 14 17  1  0  0  0  0
 15 18  2  0  0  0  0
 16 19  1  0  0  0  0
 16 17  1  1  0  0  0
 16  9  1  0  0  0  0
 19 23  1  6  0  0  0
 19 21  1  0  0  0  0
 20 15  1  0  0  0  0
 21 14  1  6  0  0  0
 22 20  1  1  0  0  0
 22 23  1  0  0  0  0
 22 13  1  0  0  0  0
 25 24  1  0  0  0  0
 25  7  1  1  0  0  0
 26 24  1  0  0  0  0
 26 29  1  0  0  0  0
 27 25  1  0  0  0  0
 27 28  1  0  0  0  0
 28 26  1  0  0  0  0
 29 30  1  0  0  0  0
 30 31  1  0  0  0  0
 31 33  2  0  0  0  0
 31 32  1  0  0  0  0
 34 35  1  0  0  0  0
 35 36  1  0  0  0  0
M  END
>  <MODEL>
8

>  <REMARK>
 VINA RESULT:      -6.8      2.893      4.887
  Name = 
  7 active torsions:
  status: ('A' for Active; 'I' for Inactive)
    1  A    between atoms: C_2  and  C_23
    2  A    between atoms: C_7  and  C_15
    3  A    between atoms: C_7  and  C_19
    4  A    between atoms: N_8  and  C_15
    5  A    between atoms: O_14  and  C_16
    6  A    between atoms: O_14  and  C_21
    7  A    between atoms: C_17  and  N_27
                            x       y       z     vdW  Elec       q    Type
                         _______ _______ _______ _____ _____    ______ ____

>  <TORSDO>
F 7

$$$$
=
 OpenBabel10232411113D

 36 41  0  0  1  0  0  0  0  0999 V2000
  189.2410  173.1490  136.1600 C   0  0  0  0  0  1  0  0  0  0  0  0
  189.3140  174.6610  136.0240 C   0  0  2  0  0  0  0  0  0  0  0  0
  193.0020  177.0930  139.2860 O   0  0  0  0  0  0  0  0  0  0  0  0
  190.4530  175.2110  136.8070 C   0  0  0  0  0  0  0  0  0  0  0  0
  191.8160  174.9920  136.6380 C   0  0  0  0  0  3  0  0  0  0  0  0
  188.1550  175.3480  136.7120 C   0  0  0  0  0  0  0  0  0  0  0  0
  192.7080  175.6310  137.5160 C   0  0  0  0  0  0  0  0  0  0  0  0
  189.9940  176.0430  137.7930 C   0  0  0  0  0  0  0  0  0  0  0  0
  190.8440  176.6960  138.6450 N   0  0  0  0  0  0  0  0  0  0  0  0
  189.4000  175.0370  134.6830 O   0  0  0  0  0  1  0  0  0  0  0  0
  188.5410  176.1260  137.7240 C   0  0  0  0  0  3  0  0  0  0  0  0
  192.1990  176.5000  138.5120 C   0  0  0  0  0  0  0  0  0  0  0  0
  189.0000  178.0240  142.6920 C   0  0  2  0  0  3  0  0  0  0  0  0
  188.3420  178.6240  140.4670 N   0  0  0  0  0  2  0  0  0  0  0  0
  189.3250  177.4850  144.8460 C   0  0  0  0  0  3  0  0  0  0  0  0
  190.3560  177.5780  139.7180 C   0  0  1  0  0  3  0  0  0  0  0  0
  189.1690  178.4100  139.2880 C   0  0  0  0  0  2  0  0  0  0  0  0
  188.3420  177.7050  143.7940 C   0  0  0  0  0  3  0  0  0  0  0  0
  189.8870  176.8020  140.9230 C   0  0  2  0  0  3  0  0  0  0  0  0
  190.5420  177.5800  144.3270 C   0  0  0  0  0  2  0  0  0  0  0  0
  188.6100  177.5110  141.3750 C   0  0  1  0  0  3  0  0  0  0  0  0
  190.4480  177.9550  142.8850 C   0  0  1  0  0  3  0  0  0  0  0  0
  190.8920  176.8860  141.9970 N   0  0  0  0  0  2  0  0  0  0  0  0
  194.5220  174.6610  136.1170 C   0  0  0  0  0  2  0  0  0  0  0  0
  194.1940  175.4440  137.3680 C   0  0  2  0  0  3  0  0  0  0  0  0
  195.6790  173.8370  136.4280 N   0  0  0  0  0  0  0  0  0  0  0  0
  194.8100  174.6560  138.5050 C   0  0  0  0  0  2  0  0  0  0  0  0
  195.5370  173.5060  137.8380 C   0  0  0  0  0  2  0  0  0  0  0  0
  195.5430  172.6010  135.6760 C   0  0  0  0  0  2  0  0  0  0  0  0
  195.1520  171.4800  136.6230 C   0  0  0  0  0  2  0  0  0  0  0  0
  193.8470  170.8900  136.2160 C   0  0  0  0  0  0  0  0  0  0  0  0
  192.9300  171.6360  135.7820 O   0  0  0  0  0  0  0  0  0  0  0  0
  193.6380  169.5190  136.3150 O   0  0  0  0  0  1  0  0  0  0  0  0
  186.8090  175.2360  136.3510 O   0  0  0  0  0  0  0  0  0  0  0  0
  185.7990  174.8010  137.2520 C   0  0  0  0  0  2  0  0  0  0  0  0
  185.8060  173.2870  137.3450 C   0  0  0  0  0  1  0  0  0  0  0  0
  2  1  1  1  0  0  0
  2  6  1  0  0  0  0
  2  4  1  0  0  0  0
  4  8  2  0  0  0  0
  5  4  1  0  0  0  0
  5  7  2  0  0  0  0
  6 11  2  0  0  0  0
  7 12  1  0  0  0  0
  8  9  1  0  0  0  0
 10  2  1  0  0  0  0
 11  8  1  0  0  0  0
 12  9  1  0  0  0  0
 12  3  2  0  0  0  0
 13 22  1  0  0  0  0
 13 18  1  1  0  0  0
 16  9  1  6  0  0  0
 16 19  1  0  0  0  0
 17 16  1  0  0  0  0
 17 14  1  0  0  0  0
 18 15  2  0  0  0  0
 19 21  1  0  0  0  0
 19 23  1  1  0  0  0
 20 15  1  0  0  0  0
 21 14  1  6  0  0  0
 21 13  1  0  0  0  0
 22 20  1  1  0  0  0
 23 22  1  0  0  0  0
 24 26  1  0  0  0  0
 24 25  1  0  0  0  0
 25  7  1  1  0  0  0
 25 27  1  0  0  0  0
 26 28  1  0  0  0  0
 28 27  1  0  0  0  0
 29 26  1  0  0  0  0
 29 30  1  0  0  0  0
 31 33  1  0  0  0  0
 31 30  1  0  0  0  0
 32 31  2  0  0  0  0
 34  6  1  0  0  0  0
 34 35  1  0  0  0  0
 35 36  1  0  0  0  0
M  END
>  <MODEL>
9

>  <REMARK>
 VINA RESULT:      -6.8      3.834      9.627
  Name = 
  7 active torsions:
  status: ('A' for Active; 'I' for Inactive)
    1  A    between atoms: C_2  and  C_23
    2  A    between atoms: C_7  and  C_15
    3  A    between atoms: C_7  and  C_19
    4  A    between atoms: N_8  and  C_15
    5  A    between atoms: O_14  and  C_16
    6  A    between atoms: O_14  and  C_21
    7  A    between atoms: C_17  and  N_27
                            x       y       z     vdW  Elec       q    Type
                         _______ _______ _______ _____ _____    ______ ____

>  <TORSDO>
F 7

$$$$
