=
 OpenBabel10232412293D

 29 30  0  0  1  0  0  0  0  0999 V2000
  192.6080  176.5480  138.2580 N   0  0  0  0  0  0  0  0  0  0  0  0
  188.7050  177.3380  141.7960 C   0  0  2  0  0  3  0  0  0  0  0  0
  189.0710  177.0810  140.3260 C   0  0  2  0  0  3  0  0  0  0  0  0
  190.4230  176.3400  140.1890 C   0  0  2  0  0  3  0  0  0  0  0  0
  191.5610  175.5970  138.0560 C   0  0  0  0  0  0  0  0  0  0  0  0
  191.6540  177.1970  140.3850 C   0  0  0  0  0  0  0  0  0  0  0  0
  191.0350  177.6890  142.7550 C   0  0  1  0  0  3  0  0  0  0  0  0
  192.6640  177.2930  139.3180 C   0  0  0  0  0  3  0  0  0  0  0  0
  189.6600  178.3060  142.5050 C   0  0  0  0  0  2  0  0  0  0  0  0
  191.5800  174.8460  137.0460 O   0  0  0  0  0  0  0  0  0  0  0  0
  190.4740  175.5200  138.9800 N   0  0  0  0  0  2  0  0  0  0  0  0
  191.9100  177.8030  141.5450 C   0  0  0  0  0  3  0  0  0  0  0  0
  189.9880  178.7040  138.7870 F   0  0  0  0  0  0  0  0  0  0  0  0
  188.8240  178.3320  139.4390 C   0  0  0  0  0  0  0  0  0  0  0  0
  188.4480  179.3800  140.2650 F   0  0  0  0  0  0  0  0  0  0  0  0
  187.7040  178.1350  138.4060 C   0  0  0  0  0  0  0  0  0  0  0  0
  187.6880  176.8300  137.9480 F   0  0  0  0  0  0  0  0  0  0  0  0
  186.4810  178.4120  138.9920 F   0  0  0  0  0  0  0  0  0  0  0  0
  187.8680  178.9970  137.3400 F   0  0  0  0  0  0  0  0  0  0  0  0
  191.4330  177.6470  145.2140 C   0  0  0  0  0  1  0  0  0  0  0  0
  191.7100  178.3890  143.9210 C   0  0  0  0  0  2  0  0  0  0  0  0
  188.5760  176.0840  142.5270 N   0  0  0  0  0  2  0  0  0  0  0  0
  187.9830  176.3910  143.8160 C   0  0  0  0  0  2  0  0  0  0  0  0
  186.8630  177.3940  143.6300 C   0  0  0  0  0  2  0  0  0  0  0  0
  186.3960  177.9310  144.9850 C   0  0  0  0  0  2  0  0  0  0  0  0
  184.5230  178.7810  146.0100 O   0  0  0  0  0  1  0  0  0  0  0  0
  185.2800  178.8810  144.8900 N   0  0  0  0  0  0  0  0  0  0  0  0
  183.0390  179.0950  143.9610 C   0  0  0  0  0  1  0  0  0  0  0  0
  184.4330  178.5340  143.7550 C   0  0  0  0  0  2  0  0  0  0  0  0
  1  8  2  0  0  0  0
  2  9  1  0  0  0  0
  2 22  1  1  0  0  0
  3 14  1  6  0  0  0
  3  2  1  0  0  0  0
  4 11  1  6  0  0  0
  4  3  1  0  0  0  0
  4  6  1  0  0  0  0
  5  1  1  0  0  0  0
  5 11  1  0  0  0  0
  6 12  2  0  0  0  0
  7 21  1  1  0  0  0
  8  6  1  0  0  0  0
  9  7  1  0  0  0  0
 10  5  2  0  0  0  0
 12  7  1  0  0  0  0
 13 14  1  0  0  0  0
 14 15  1  0  0  0  0
 16 18  1  0  0  0  0
 16 14  1  0  0  0  0
 17 16  1  0  0  0  0
 19 16  1  0  0  0  0
 21 20  1  0  0  0  0
 22 23  1  0  0  0  0
 24 23  1  0  0  0  0
 24 25  1  0  0  0  0
 27 25  1  0  0  0  0
 27 26  1  0  0  0  0
 29 28  1  0  0  0  0
 29 27  1  0  0  0  0
M  END
>  <MODEL>
1

>  <REMARK>
 VINA RESULT:      -6.5      0.000      0.000
  Name = 
  9 active torsions:
  status: ('A' for Active; 'I' for Inactive)
    1  A    between atoms: C_4  and  N_29
    2  A    between atoms: C_5  and  C_8
    3  A    between atoms: C_5  and  C_16
    4  A    between atoms: C_7  and  C_17
    5  A    between atoms: C_10  and  N_11
    6  A    between atoms: C_10  and  C_21
    7  A    between atoms: N_11  and  C_27
    8  A    between atoms: C_21  and  C_24
    9  A    between atoms: C_24  and  N_29
                            x       y       z     vdW  Elec       q    Type
                         _______ _______ _______ _____ _____    ______ ____

>  <TORSDO>
F 9

$$$$
=
 OpenBabel10232412293D

 29 30  0  0  1  0  0  0  0  0999 V2000
  188.0860  174.3510  134.9890 N   0  0  0  0  0  0  0  0  0  0  0  0
  190.2910  177.1450  138.9530 C   0  0  2  0  0  3  0  0  0  0  0  0
  189.0680  176.9550  138.0430 C   0  0  2  0  0  3  0  0  0  0  0  0
  188.9440  175.4980  137.5380 C   0  0  2  0  0  3  0  0  0  0  0  0
  187.1430  174.5330  136.0470 C   0  0  0  0  0  0  0  0  0  0  0  0
  189.8840  175.1190  136.4150 C   0  0  0  0  0  0  0  0  0  0  0  0
  191.8900  175.4970  137.8570 C   0  0  1  0  0  3  0  0  0  0  0  0
  189.3470  174.6190  135.1390 C   0  0  0  0  0  3  0  0  0  0  0  0
  191.6290  176.9560  138.2270 C   0  0  0  0  0  2  0  0  0  0  0  0
  185.9410  174.1990  135.8820 O   0  0  0  0  0  0  0  0  0  0  0  0
  187.5540  175.1270  137.2800 N   0  0  0  0  0  2  0  0  0  0  0  0
  191.2080  175.1320  136.5740 C   0  0  0  0  0  3  0  0  0  0  0  0
  189.6090  177.8000  135.8430 F   0  0  0  0  0  0  0  0  0  0  0  0
  188.9290  178.1070  137.0100 C   0  0  0  0  0  0  0  0  0  0  0  0
  189.5080  179.2450  137.5510 F   0  0  0  0  0  0  0  0  0  0  0  0
  187.4700  178.4500  136.6720 C   0  0  0  0  0  0  0  0  0  0  0  0
  187.0530  177.7530  135.5520 F   0  0  0  0  0  0  0  0  0  0  0  0
  186.6550  178.1050  137.7360 F   0  0  0  0  0  0  0  0  0  0  0  0
  187.3270  179.8060  136.4510 F   0  0  0  0  0  0  0  0  0  0  0  0
  193.6500  173.8260  137.2960 C   0  0  0  0  0  1  0  0  0  0  0  0
  193.3820  175.2610  137.7080 C   0  0  0  0  0  2  0  0  0  0  0  0
  190.1990  176.2950  140.1330 N   0  0  0  0  0  2  0  0  0  0  0  0
  190.7020  177.0600  141.2610 C   0  0  0  0  0  2  0  0  0  0  0  0
  190.2950  176.3800  142.5520 C   0  0  0  0  0  2  0  0  0  0  0  0
  191.4300  176.4540  143.5750 C   0  0  0  0  0  2  0  0  0  0  0  0
  191.8650  177.2080  145.7020 O   0  0  0  0  0  1  0  0  0  0  0  0
  191.2970  177.5670  144.5240 N   0  0  0  0  0  0  0  0  0  0  0  0
  189.5580  177.5230  146.2270 C   0  0  0  0  0  1  0  0  0  0  0  0
  189.8870  177.8320  144.7800 C   0  0  0  0  0  2  0  0  0  0  0  0
  1  8  2  0  0  0  0
  1  5  1  0  0  0  0
  2 22  1  1  0  0  0
  3 14  1  6  0  0  0
  3  2  1  0  0  0  0
  4  6  1  6  0  0  0
  4  3  1  0  0  0  0
  5 11  1  0  0  0  0
  6 12  2  0  0  0  0
  7 21  1  6  0  0  0
  7  9  1  0  0  0  0
  8  6  1  0  0  0  0
  9  2  1  0  0  0  0
 10  5  2  0  0  0  0
 11  4  1  0  0  0  0
 12  7  1  0  0  0  0
 13 14  1  0  0  0  0
 14 15  1  0  0  0  0
 16 14  1  0  0  0  0
 16 18  1  0  0  0  0
 17 16  1  0  0  0  0
 19 16  1  0  0  0  0
 20 21  1  0  0  0  0
 22 23  1  0  0  0  0
 23 24  1  0  0  0  0
 24 25  1  0  0  0  0
 25 27  1  0  0  0  0
 27 29  1  0  0  0  0
 27 26  1  0  0  0  0
 29 28  1  0  0  0  0
M  END
>  <MODEL>
2

>  <REMARK>
 VINA RESULT:      -5.9      3.267      4.876
  Name = 
  9 active torsions:
  status: ('A' for Active; 'I' for Inactive)
    1  A    between atoms: C_4  and  N_29
    2  A    between atoms: C_5  and  C_8
    3  A    between atoms: C_5  and  C_16
    4  A    between atoms: C_7  and  C_17
    5  A    between atoms: C_10  and  N_11
    6  A    between atoms: C_10  and  C_21
    7  A    between atoms: N_11  and  C_27
    8  A    between atoms: C_21  and  C_24
    9  A    between atoms: C_24  and  N_29
                            x       y       z     vdW  Elec       q    Type
                         _______ _______ _______ _____ _____    ______ ____

>  <TORSDO>
F 9

$$$$
=
 OpenBabel10232412293D

 29 30  0  0  1  0  0  0  0  0999 V2000
  179.9820  180.1210  138.7580 N   0  0  0  0  0  0  0  0  0  0  0  0
  184.6180  178.3440  140.6900 C   0  0  2  0  0  3  0  0  0  0  0  0
  183.7510  178.5710  139.4420 C   0  0  2  0  0  3  0  0  0  0  0  0
  182.7400  179.7260  139.6440 C   0  0  2  0  0  3  0  0  0  0  0  0
  181.0660  180.6160  137.9700 C   0  0  0  0  0  0  0  0  0  0  0  0
  181.5220  179.3820  140.4730 C   0  0  0  0  0  0  0  0  0  0  0  0
  182.9220  178.9320  142.4930 C   0  0  1  0  0  3  0  0  0  0  0  0
  180.1730  179.5480  139.9070 C   0  0  0  0  0  3  0  0  0  0  0  0
  183.8230  177.8480  141.9050 C   0  0  0  0  0  2  0  0  0  0  0  0
  180.8340  181.2240  136.8930 O   0  0  0  0  0  0  0  0  0  0  0  0
  182.4150  180.3910  138.3840 N   0  0  0  0  0  2  0  0  0  0  0  0
  181.6230  179.0190  141.7520 C   0  0  0  0  0  3  0  0  0  0  0  0
  181.9510  177.3910  138.3430 F   0  0  0  0  0  0  0  0  0  0  0  0
  183.2330  177.2350  138.8430 C   0  0  0  0  0  0  0  0  0  0  0  0
  183.1780  176.2970  139.8630 F   0  0  0  0  0  0  0  0  0  0  0  0
  184.1420  176.6670  137.7430 C   0  0  0  0  0  0  0  0  0  0  0  0
  185.4050  177.2290  137.8160 F   0  0  0  0  0  0  0  0  0  0  0  0
  184.2590  175.2970  137.9010 F   0  0  0  0  0  0  0  0  0  0  0  0
  183.6030  176.9060  136.4950 F   0  0  0  0  0  0  0  0  0  0  0  0
  183.8870  178.8420  144.7890 C   0  0  0  0  0  1  0  0  0  0  0  0
  182.6380  178.6310  143.9540 C   0  0  0  0  0  2  0  0  0  0  0  0
  185.3940  179.5350  141.0090 N   0  0  0  0  0  2  0  0  0  0  0  0
  186.5920  179.0990  141.7050 C   0  0  0  0  0  2  0  0  0  0  0  0
  187.4520  178.2800  140.7640 C   0  0  0  0  0  2  0  0  0  0  0  0
  188.5290  177.5240  141.5450 C   0  0  0  0  0  2  0  0  0  0  0  0
  189.9580  178.3830  143.1260 O   0  0  0  0  0  1  0  0  0  0  0  0
  188.6790  177.9790  142.9340 N   0  0  0  0  0  0  0  0  0  0  0  0
  187.3820  177.2720  144.8690 C   0  0  0  0  0  1  0  0  0  0  0  0
  188.4260  176.8700  143.8460 C   0  0  0  0  0  2  0  0  0  0  0  0
  1  8  2  0  0  0  0
  2 22  1  1  0  0  0
  2  9  1  0  0  0  0
  3 14  1  1  0  0  0
  3  4  1  0  0  0  0
  3  2  1  0  0  0  0
  4 11  1  6  0  0  0
  4  6  1  0  0  0  0
  5 11  1  0  0  0  0
  5  1  1  0  0  0  0
  6 12  2  0  0  0  0
  7 21  1  1  0  0  0
  8  6  1  0  0  0  0
  9  7  1  0  0  0  0
 10  5  2  0  0  0  0
 12  7  1  0  0  0  0
 13 14  1  0  0  0  0
 14 15  1  0  0  0  0
 16 17  1  0  0  0  0
 16 18  1  0  0  0  0
 16 14  1  0  0  0  0
 19 16  1  0  0  0  0
 21 20  1  0  0  0  0
 22 23  1  0  0  0  0
 24 25  1  0  0  0  0
 24 23  1  0  0  0  0
 25 27  1  0  0  0  0
 27 26  1  0  0  0  0
 27 29  1  0  0  0  0
 29 28  1  0  0  0  0
M  END
>  <MODEL>
3

>  <REMARK>
 VINA RESULT:      -5.8      4.330      7.542
  Name = 
  9 active torsions:
  status: ('A' for Active; 'I' for Inactive)
    1  A    between atoms: C_4  and  N_29
    2  A    between atoms: C_5  and  C_8
    3  A    between atoms: C_5  and  C_16
    4  A    between atoms: C_7  and  C_17
    5  A    between atoms: C_10  and  N_11
    6  A    between atoms: C_10  and  C_21
    7  A    between atoms: N_11  and  C_27
    8  A    between atoms: C_21  and  C_24
    9  A    between atoms: C_24  and  N_29
                            x       y       z     vdW  Elec       q    Type
                         _______ _______ _______ _____ _____    ______ ____

>  <TORSDO>
F 9

$$$$
=
 OpenBabel10232412293D

 29 30  0  0  1  0  0  0  0  0999 V2000
  189.5520  172.2070  134.9860 N   0  0  0  0  0  0  0  0  0  0  0  0
  190.6150  176.4110  138.0810 C   0  0  2  0  0  3  0  0  0  0  0  0
  189.5670  175.6760  137.2300 C   0  0  2  0  0  3  0  0  0  0  0  0
  189.8560  174.1590  137.1420 C   0  0  2  0  0  3  0  0  0  0  0  0
  188.4980  172.4010  135.9320 C   0  0  0  0  0  0  0  0  0  0  0  0
  190.9610  173.7650  136.1860 C   0  0  0  0  0  0  0  0  0  0  0  0
  192.6670  175.0200  137.5140 C   0  0  1  0  0  3  0  0  0  0  0  0
  190.6870  172.8280  135.0850 C   0  0  0  0  0  3  0  0  0  0  0  0
  192.0190  176.4010  137.4640 C   0  0  0  0  0  2  0  0  0  0  0  0
  187.4380  171.7300  135.8390 O   0  0  0  0  0  0  0  0  0  0  0  0
  188.6320  173.3800  136.9640 N   0  0  0  0  0  2  0  0  0  0  0  0
  192.2200  174.1680  136.3650 C   0  0  0  0  0  3  0  0  0  0  0  0
  188.5410  175.6310  135.0420 F   0  0  0  0  0  0  0  0  0  0  0  0
  189.2420  176.4420  135.9180 C   0  0  0  0  0  0  0  0  0  0  0  0
  190.4410  176.7850  135.3110 F   0  0  0  0  0  0  0  0  0  0  0  0
  188.4550  177.7410  136.1490 C   0  0  0  0  0  0  0  0  0  0  0  0
  189.3160  178.7930  136.4070 F   0  0  0  0  0  0  0  0  0  0  0  0
  187.7180  178.0420  135.0170 F   0  0  0  0  0  0  0  0  0  0  0  0
  187.5750  177.5960  137.2020 F   0  0  0  0  0  0  0  0  0  0  0  0
  194.8320  174.0430  138.2660 C   0  0  0  0  0  1  0  0  0  0  0  0
  194.1780  175.1560  137.4680 C   0  0  0  0  0  2  0  0  0  0  0  0
  190.6260  175.9030  139.4460 N   0  0  0  0  0  2  0  0  0  0  0  0
  190.5520  177.0470  140.3370 C   0  0  0  0  0  2  0  0  0  0  0  0
  189.1490  177.6170  140.3090 C   0  0  0  0  0  2  0  0  0  0  0  0
  188.6270  177.8240  141.7320 C   0  0  0  0  0  2  0  0  0  0  0  0
  188.6500  176.0400  143.1800 O   0  0  0  0  0  1  0  0  0  0  0  0
  189.3900  177.0920  142.7520 N   0  0  0  0  0  0  0  0  0  0  0  0
  190.9870  178.6210  143.7720 C   0  0  0  0  0  1  0  0  0  0  0  0
  189.6310  177.9560  143.9020 C   0  0  0  0  0  2  0  0  0  0  0  0
  1  8  2  0  0  0  0
  1  5  1  0  0  0  0
  2 22  1  1  0  0  0
  3 14  1  6  0  0  0
  3  2  1  0  0  0  0
  4  6  1  6  0  0  0
  4  3  1  0  0  0  0
  5 11  1  0  0  0  0
  6 12  2  0  0  0  0
  7 21  1  6  0  0  0
  8  6  1  0  0  0  0
  9  7  1  0  0  0  0
  9  2  1  0  0  0  0
 10  5  2  0  0  0  0
 11  4  1  0  0  0  0
 12  7  1  0  0  0  0
 13 14  1  0  0  0  0
 14 16  1  0  0  0  0
 15 14  1  0  0  0  0
 16 17  1  0  0  0  0
 16 19  1  0  0  0  0
 18 16  1  0  0  0  0
 21 20  1  0  0  0  0
 22 23  1  0  0  0  0
 24 23  1  0  0  0  0
 24 25  1  0  0  0  0
 25 27  1  0  0  0  0
 27 26  1  0  0  0  0
 27 29  1  0  0  0  0
 28 29  1  0  0  0  0
M  END
>  <MODEL>
4

>  <REMARK>
 VINA RESULT:      -5.7      2.926      5.208
  Name = 
  9 active torsions:
  status: ('A' for Active; 'I' for Inactive)
    1  A    between atoms: C_4  and  N_29
    2  A    between atoms: C_5  and  C_8
    3  A    between atoms: C_5  and  C_16
    4  A    between atoms: C_7  and  C_17
    5  A    between atoms: C_10  and  N_11
    6  A    between atoms: C_10  and  C_21
    7  A    between atoms: N_11  and  C_27
    8  A    between atoms: C_21  and  C_24
    9  A    between atoms: C_24  and  N_29
                            x       y       z     vdW  Elec       q    Type
                         _______ _______ _______ _____ _____    ______ ____

>  <TORSDO>
F 9

$$$$
=
 OpenBabel10232412293D

 29 30  0  0  1  0  0  0  0  0999 V2000
  189.1090  173.9440  135.6960 N   0  0  0  0  0  0  0  0  0  0  0  0
  188.1610  178.1160  138.8710 C   0  0  2  0  0  3  0  0  0  0  0  0
  187.7030  177.3020  137.6510 C   0  0  2  0  0  3  0  0  0  0  0  0
  188.1780  175.8310  137.7260 C   0  0  2  0  0  3  0  0  0  0  0  0
  187.7280  173.9810  136.0610 C   0  0  0  0  0  0  0  0  0  0  0  0
  189.6330  175.6020  137.3790 C   0  0  0  0  0  0  0  0  0  0  0  0
  190.3980  176.9870  139.3130 C   0  0  1  0  0  3  0  0  0  0  0  0
  189.9960  174.6850  136.2870 C   0  0  0  0  0  3  0  0  0  0  0  0
  189.6830  178.2880  138.9550 C   0  0  0  0  0  2  0  0  0  0  0  0
  186.9110  173.1980  135.5100 O   0  0  0  0  0  0  0  0  0  0  0  0
  187.2670  174.9270  137.0270 N   0  0  0  0  0  2  0  0  0  0  0  0
  190.6190  176.1370  138.1000 C   0  0  0  0  0  3  0  0  0  0  0  0
  189.2020  177.8860  135.8470 F   0  0  0  0  0  0  0  0  0  0  0  0
  187.9150  178.0780  136.3220 C   0  0  0  0  0  0  0  0  0  0  0  0
  187.7570  179.4300  136.5820 F   0  0  0  0  0  0  0  0  0  0  0  0
  186.9080  177.6980  135.2270 C   0  0  0  0  0  0  0  0  0  0  0  0
  186.6740  178.7730  134.3860 F   0  0  0  0  0  0  0  0  0  0  0  0
  187.4140  176.6520  134.4750 F   0  0  0  0  0  0  0  0  0  0  0  0
  185.7150  177.2810  135.7850 F   0  0  0  0  0  0  0  0  0  0  0  0
  191.6070  177.3390  141.4630 C   0  0  0  0  0  1  0  0  0  0  0  0
  191.7400  177.2940  139.9520 C   0  0  0  0  0  2  0  0  0  0  0  0
  187.6180  177.5580  140.1030 N   0  0  0  0  0  2  0  0  0  0  0  0
  188.0230  178.4300  141.1910 C   0  0  0  0  0  2  0  0  0  0  0  0
  187.3110  178.0130  142.4620 C   0  0  0  0  0  2  0  0  0  0  0  0
  188.2350  177.1650  143.3380 C   0  0  0  0  0  2  0  0  0  0  0  0
  186.7060  177.8300  144.9200 O   0  0  0  0  0  1  0  0  0  0  0  0
  187.9090  177.2250  144.7690 N   0  0  0  0  0  0  0  0  0  0  0  0
  190.2930  177.6570  145.0090 C   0  0  0  0  0  1  0  0  0  0  0  0
  188.8990  178.0370  145.4670 C   0  0  0  0  0  2  0  0  0  0  0  0
  1  5  1  0  0  0  0
  1  8  2  0  0  0  0
  2  9  1  0  0  0  0
  2 22  1  1  0  0  0
  3 14  1  6  0  0  0
  3  4  1  0  0  0  0
  3  2  1  0  0  0  0
  4 11  1  6  0  0  0
  5 11  1  0  0  0  0
  6  4  1  0  0  0  0
  6 12  2  0  0  0  0
  7 21  1  6  0  0  0
  8  6  1  0  0  0  0
  9  7  1  0  0  0  0
 10  5  2  0  0  0  0
 12  7  1  0  0  0  0
 13 14  1  0  0  0  0
 14 15  1  0  0  0  0
 16 19  1  0  0  0  0
 16 14  1  0  0  0  0
 17 16  1  0  0  0  0
 18 16  1  0  0  0  0
 21 20  1  0  0  0  0
 22 23  1  0  0  0  0
 23 24  1  0  0  0  0
 24 25  1  0  0  0  0
 25 27  1  0  0  0  0
 27 26  1  0  0  0  0
 27 29  1  0  0  0  0
 28 29  1  0  0  0  0
M  END
>  <MODEL>
5

>  <REMARK>
 VINA RESULT:      -5.5      2.580      3.944
  Name = 
  9 active torsions:
  status: ('A' for Active; 'I' for Inactive)
    1  A    between atoms: C_4  and  N_29
    2  A    between atoms: C_5  and  C_8
    3  A    between atoms: C_5  and  C_16
    4  A    between atoms: C_7  and  C_17
    5  A    between atoms: C_10  and  N_11
    6  A    between atoms: C_10  and  C_21
    7  A    between atoms: N_11  and  C_27
    8  A    between atoms: C_21  and  C_24
    9  A    between atoms: C_24  and  N_29
                            x       y       z     vdW  Elec       q    Type
                         _______ _______ _______ _____ _____    ______ ____

>  <TORSDO>
F 9

$$$$
=
 OpenBabel10232412293D

 29 30  0  0  1  0  0  0  0  0999 V2000
  189.4010  177.0780  147.8430 N   0  0  0  0  0  0  0  0  0  0  0  0
  188.7190  177.8340  142.6140 C   0  0  2  0  0  3  0  0  0  0  0  0
  189.7210  177.7050  143.7720 C   0  0  2  0  0  3  0  0  0  0  0  0
  189.1500  176.8640  144.9380 C   0  0  2  0  0  3  0  0  0  0  0  0
  190.3040  176.2530  147.1050 C   0  0  0  0  0  0  0  0  0  0  0  0
  188.1580  177.5790  145.8280 C   0  0  0  0  0  0  0  0  0  0  0  0
  186.5470  177.8680  143.9390 C   0  0  1  0  0  3  0  0  0  0  0  0
  188.4130  177.6970  147.2730 C   0  0  0  0  0  3  0  0  0  0  0  0
  187.4590  178.6300  142.9810 C   0  0  0  0  0  2  0  0  0  0  0  0
  191.2090  175.6170  147.7050 O   0  0  0  0  0  0  0  0  0  0  0  0
  190.2050  176.1770  145.6810 N   0  0  0  0  0  2  0  0  0  0  0  0
  186.9940  178.0320  145.3600 C   0  0  0  0  0  3  0  0  0  0  0  0
  189.9580  179.5390  145.3280 F   0  0  0  0  0  0  0  0  0  0  0  0
  190.4010  179.0610  144.1060 C   0  0  0  0  0  0  0  0  0  0  0  0
  190.0330  179.9790  143.1340 F   0  0  0  0  0  0  0  0  0  0  0  0
  191.9350  178.9890  144.1130 C   0  0  0  0  0  0  0  0  0  0  0  0
  192.3720  178.0140  144.9930 F   0  0  0  0  0  0  0  0  0  0  0  0
  192.3900  178.6740  142.8450 F   0  0  0  0  0  0  0  0  0  0  0  0
  192.4780  180.2080  144.4680 F   0  0  0  0  0  0  0  0  0  0  0  0
  184.5970  178.8260  145.1580 C   0  0  0  0  0  1  0  0  0  0  0  0
  185.1220  178.3740  143.8090 C   0  0  0  0  0  2  0  0  0  0  0  0
  188.3840  176.5260  142.0670 N   0  0  0  0  0  2  0  0  0  0  0  0
  189.3460  176.2330  141.0200 C   0  0  0  0  0  2  0  0  0  0  0  0
  189.5510  177.4660  140.1640 C   0  0  0  0  0  2  0  0  0  0  0  0
  188.6050  177.4440  138.9620 C   0  0  0  0  0  2  0  0  0  0  0  0
  186.8990  178.7420  138.1330 O   0  0  0  0  0  1  0  0  0  0  0  0
  188.2020  178.7810  138.5040 N   0  0  0  0  0  0  0  0  0  0  0  0
  189.1970  177.9430  136.4460 C   0  0  0  0  0  1  0  0  0  0  0  0
  188.9820  179.1550  137.3300 C   0  0  0  0  0  2  0  0  0  0  0  0
  2 22  1  1  0  0  0
  2  9  1  0  0  0  0
  2  3  1  0  0  0  0
  3 14  1  1  0  0  0
  3  4  1  0  0  0  0
  4 11  1  1  0  0  0
  4  6  1  0  0  0  0
  5 10  2  0  0  0  0
  5  1  1  0  0  0  0
  6  8  1  0  0  0  0
  7 21  1  1  0  0  0
  7 12  1  0  0  0  0
  8  1  2  0  0  0  0
  9  7  1  0  0  0  0
 11  5  1  0  0  0  0
 12  6  2  0  0  0  0
 14 16  1  0  0  0  0
 14 13  1  0  0  0  0
 15 14  1  0  0  0  0
 16 19  1  0  0  0  0
 16 17  1  0  0  0  0
 18 16  1  0  0  0  0
 21 20  1  0  0  0  0
 23 22  1  0  0  0  0
 24 23  1  0  0  0  0
 25 24  1  0  0  0  0
 26 27  1  0  0  0  0
 27 25  1  0  0  0  0
 28 29  1  0  0  0  0
 29 27  1  0  0  0  0
M  END
>  <MODEL>
6

>  <REMARK>
 VINA RESULT:      -5.2      3.525      6.791
  Name = 
  9 active torsions:
  status: ('A' for Active; 'I' for Inactive)
    1  A    between atoms: C_4  and  N_29
    2  A    between atoms: C_5  and  C_8
    3  A    between atoms: C_5  and  C_16
    4  A    between atoms: C_7  and  C_17
    5  A    between atoms: C_10  and  N_11
    6  A    between atoms: C_10  and  C_21
    7  A    between atoms: N_11  and  C_27
    8  A    between atoms: C_21  and  C_24
    9  A    between atoms: C_24  and  N_29
                            x       y       z     vdW  Elec       q    Type
                         _______ _______ _______ _____ _____    ______ ____

>  <TORSDO>
F 9

$$$$
=
 OpenBabel10232412293D

 29 30  0  0  1  0  0  0  0  0999 V2000
  180.1450  178.0980  141.9230 N   0  0  0  0  0  0  0  0  0  0  0  0
  183.1690  177.7300  137.5520 C   0  0  2  0  0  3  0  0  0  0  0  0
  182.5630  178.6550  138.6190 C   0  0  2  0  0  3  0  0  0  0  0  0
  182.2900  177.9070  139.9450 C   0  0  2  0  0  3  0  0  0  0  0  0
  181.3410  178.8640  142.0850 C   0  0  0  0  0  0  0  0  0  0  0  0
  181.0580  177.0300  139.9520 C   0  0  0  0  0  0  0  0  0  0  0  0
  181.9940  175.5580  138.1630 C   0  0  1  0  0  3  0  0  0  0  0  0
  179.9960  177.2550  140.9470 C   0  0  0  0  0  3  0  0  0  0  0  0
  182.2150  176.6210  137.0900 C   0  0  0  0  0  2  0  0  0  0  0  0
  181.4720  179.6200  143.0820 O   0  0  0  0  0  0  0  0  0  0  0  0
  182.3740  178.7980  141.1010 N   0  0  0  0  0  2  0  0  0  0  0  0
  180.9380  175.9810  139.1370 C   0  0  0  0  0  3  0  0  0  0  0  0
  180.1910  179.0620  138.3840 F   0  0  0  0  0  0  0  0  0  0  0  0
  181.4380  179.5550  138.0360 C   0  0  0  0  0  0  0  0  0  0  0  0
  181.5340  179.5240  136.6530 F   0  0  0  0  0  0  0  0  0  0  0  0
  181.5440  181.0230  138.4720 C   0  0  0  0  0  0  0  0  0  0  0  0
  181.1400  181.8650  137.4510 F   0  0  0  0  0  0  0  0  0  0  0  0
  180.7300  181.2400  139.5700 F   0  0  0  0  0  0  0  0  0  0  0  0
  182.8400  181.3310  138.8380 F   0  0  0  0  0  0  0  0  0  0  0  0
  180.2590  174.4240  136.7800 C   0  0  0  0  0  1  0  0  0  0  0  0
  181.5740  174.2510  137.5160 C   0  0  0  0  0  2  0  0  0  0  0  0
  184.4440  177.1850  138.0000 N   0  0  0  0  0  2  0  0  0  0  0  0
  185.4640  178.1830  137.7270 C   0  0  0  0  0  2  0  0  0  0  0  0
  186.4880  177.6080  136.7700 C   0  0  0  0  0  2  0  0  0  0  0  0
  187.8620  177.5360  137.4390 C   0  0  0  0  0  2  0  0  0  0  0  0
  188.9640  179.5530  137.4090 O   0  0  0  0  0  1  0  0  0  0  0  0
  188.2130  178.7440  138.1970 N   0  0  0  0  0  0  0  0  0  0  0  0
  189.7550  177.0810  139.0830 C   0  0  0  0  0  1  0  0  0  0  0  0
  189.0250  178.3820  139.3530 C   0  0  0  0  0  2  0  0  0  0  0  0
  1  5  1  0  0  0  0
  2 22  1  1  0  0  0
  2  3  1  0  0  0  0
  3 14  1  6  0  0  0
  3  4  1  0  0  0  0
  4  6  1  6  0  0  0
  4 11  1  0  0  0  0
  5 10  2  0  0  0  0
  6  8  1  0  0  0  0
  7 21  1  6  0  0  0
  7 12  1  0  0  0  0
  8  1  2  0  0  0  0
  9  2  1  0  0  0  0
  9  7  1  0  0  0  0
 11  5  1  0  0  0  0
 12  6  2  0  0  0  0
 14 13  1  0  0  0  0
 14 16  1  0  0  0  0
 15 14  1  0  0  0  0
 16 19  1  0  0  0  0
 16 18  1  0  0  0  0
 17 16  1  0  0  0  0
 20 21  1  0  0  0  0
 23 22  1  0  0  0  0
 24 25  1  0  0  0  0
 24 23  1  0  0  0  0
 25 27  1  0  0  0  0
 26 27  1  0  0  0  0
 27 29  1  0  0  0  0
 28 29  1  0  0  0  0
M  END
>  <MODEL>
7

>  <REMARK>
 VINA RESULT:      -5.2      5.189      9.349
  Name = 
  9 active torsions:
  status: ('A' for Active; 'I' for Inactive)
    1  A    between atoms: C_4  and  N_29
    2  A    between atoms: C_5  and  C_8
    3  A    between atoms: C_5  and  C_16
    4  A    between atoms: C_7  and  C_17
    5  A    between atoms: C_10  and  N_11
    6  A    between atoms: C_10  and  C_21
    7  A    between atoms: N_11  and  C_27
    8  A    between atoms: C_21  and  C_24
    9  A    between atoms: C_24  and  N_29
                            x       y       z     vdW  Elec       q    Type
                         _______ _______ _______ _____ _____    ______ ____

>  <TORSDO>
F 9

$$$$
=
 OpenBabel10232412293D

 29 30  0  0  1  0  0  0  0  0999 V2000
  187.1220  173.5520  135.1170 N   0  0  0  0  0  0  0  0  0  0  0  0
  190.2800  176.6790  138.0540 C   0  0  2  0  0  3  0  0  0  0  0  0
  188.8640  176.4350  137.5090 C   0  0  2  0  0  3  0  0  0  0  0  0
  188.6070  174.9370  137.2200 C   0  0  2  0  0  3  0  0  0  0  0  0
  186.4800  173.8800  136.3500 C   0  0  0  0  0  0  0  0  0  0  0  0
  189.2280  174.4070  135.9470 C   0  0  0  0  0  0  0  0  0  0  0  0
  191.5370  174.8690  136.7840 C   0  0  1  0  0  3  0  0  0  0  0  0
  188.3810  173.7900  134.9130 C   0  0  0  0  0  3  0  0  0  0  0  0
  191.3880  176.3670  137.0400 C   0  0  0  0  0  2  0  0  0  0  0  0
  185.2740  173.5710  136.5330 O   0  0  0  0  0  0  0  0  0  0  0  0
  187.1950  174.5890  137.3640 N   0  0  0  0  0  2  0  0  0  0  0  0
  190.5490  174.3910  135.7640 C   0  0  0  0  0  3  0  0  0  0  0  0
  187.3650  177.0400  135.7120 F   0  0  0  0  0  0  0  0  0  0  0  0
  188.4740  177.4730  136.4210 C   0  0  0  0  0  0  0  0  0  0  0  0
  189.5300  177.5830  135.5300 F   0  0  0  0  0  0  0  0  0  0  0  0
  188.2000  178.8750  136.9860 C   0  0  0  0  0  0  0  0  0  0  0  0
  189.3510  179.6420  136.9650 F   0  0  0  0  0  0  0  0  0  0  0  0
  187.2370  179.5040  136.2160 F   0  0  0  0  0  0  0  0  0  0  0  0
  187.7230  178.7940  138.2790 F   0  0  0  0  0  0  0  0  0  0  0  0
  192.8870  173.7430  135.0180 C   0  0  0  0  0  1  0  0  0  0  0  0
  192.9410  174.5660  136.2920 C   0  0  0  0  0  2  0  0  0  0  0  0
  190.4850  175.9650  139.3080 N   0  0  0  0  0  2  0  0  0  0  0  0
  190.7560  176.9570  140.3340 C   0  0  0  0  0  2  0  0  0  0  0  0
  190.1120  176.5240  141.6350 C   0  0  0  0  0  2  0  0  0  0  0  0
  189.3120  177.6770  142.2450 C   0  0  0  0  0  2  0  0  0  0  0  0
  187.1010  178.3030  142.2320 O   0  0  0  0  0  1  0  0  0  0  0  0
  187.9390  177.3100  142.6170 N   0  0  0  0  0  0  0  0  0  0  0  0
  186.4750  177.6640  144.5290 C   0  0  0  0  0  1  0  0  0  0  0  0
  187.8370  177.1860  144.0660 C   0  0  0  0  0  2  0  0  0  0  0  0
  1  5  1  0  0  0  0
  2 22  1  1  0  0  0
  3 14  1  6  0  0  0
  3  2  1  0  0  0  0
  4  6  1  6  0  0  0
  4 11  1  0  0  0  0
  4  3  1  0  0  0  0
  5 10  2  0  0  0  0
  5 11  1  0  0  0  0
  7 21  1  6  0  0  0
  7  9  1  0  0  0  0
  8  1  2  0  0  0  0
  8  6  1  0  0  0  0
  9  2  1  0  0  0  0
 12  6  2  0  0  0  0
 12  7  1  0  0  0  0
 13 14  1  0  0  0  0
 14 16  1  0  0  0  0
 15 14  1  0  0  0  0
 16 19  1  0  0  0  0
 17 16  1  0  0  0  0
 18 16  1  0  0  0  0
 20 21  1  0  0  0  0
 22 23  1  0  0  0  0
 23 24  1  0  0  0  0
 24 25  1  0  0  0  0
 25 27  1  0  0  0  0
 26 27  1  0  0  0  0
 27 29  1  0  0  0  0
 29 28  1  0  0  0  0
M  END
>  <MODEL>
8

>  <REMARK>
 VINA RESULT:      -5.2      2.926      5.226
  Name = 
  9 active torsions:
  status: ('A' for Active; 'I' for Inactive)
    1  A    between atoms: C_4  and  N_29
    2  A    between atoms: C_5  and  C_8
    3  A    between atoms: C_5  and  C_16
    4  A    between atoms: C_7  and  C_17
    5  A    between atoms: C_10  and  N_11
    6  A    between atoms: C_10  and  C_21
    7  A    between atoms: N_11  and  C_27
    8  A    between atoms: C_21  and  C_24
    9  A    between atoms: C_24  and  N_29
                            x       y       z     vdW  Elec       q    Type
                         _______ _______ _______ _____ _____    ______ ____

>  <TORSDO>
F 9

$$$$
=
 OpenBabel10232412293D

 29 30  0  0  1  0  0  0  0  0999 V2000
  190.9000  177.4540  148.4750 N   0  0  0  0  0  0  0  0  0  0  0  0
  188.2800  177.5320  143.8370 C   0  0  2  0  0  3  0  0  0  0  0  0
  189.6470  177.5470  144.5390 C   0  0  2  0  0  3  0  0  0  0  0  0
  189.5910  176.8670  145.9270 C   0  0  2  0  0  3  0  0  0  0  0  0
  191.4960  176.5350  147.5570 C   0  0  0  0  0  0  0  0  0  0  0  0
  188.9740  177.6980  147.0310 C   0  0  0  0  0  0  0  0  0  0  0  0
  186.7630  177.7510  145.8670 C   0  0  1  0  0  3  0  0  0  0  0  0
  189.7460  178.0000  148.2470 C   0  0  0  0  0  3  0  0  0  0  0  0
  187.2170  178.3770  144.5500 C   0  0  0  0  0  2  0  0  0  0  0  0
  192.5860  175.9760  147.8460 O   0  0  0  0  0  0  0  0  0  0  0  0
  190.8750  176.2760  146.2970 N   0  0  0  0  0  2  0  0  0  0  0  0
  187.7010  178.0940  146.9830 C   0  0  0  0  0  3  0  0  0  0  0  0
  190.2340  179.6320  145.6140 F   0  0  0  0  0  0  0  0  0  0  0  0
  190.3440  178.9310  144.4240 C   0  0  0  0  0  0  0  0  0  0  0  0
  189.6940  179.6620  143.4410 F   0  0  0  0  0  0  0  0  0  0  0  0
  191.8240  178.8380  144.0240 C   0  0  0  0  0  0  0  0  0  0  0  0
  192.3970  177.6900  144.5450 F   0  0  0  0  0  0  0  0  0  0  0  0
  191.9300  178.7960  142.6450 F   0  0  0  0  0  0  0  0  0  0  0  0
  192.5190  179.9440  144.4700 F   0  0  0  0  0  0  0  0  0  0  0  0
  184.7350  178.9300  145.0270 C   0  0  0  0  0  1  0  0  0  0  0  0
  185.3720  178.2450  146.2210 C   0  0  0  0  0  2  0  0  0  0  0  0
  187.8220  176.1660  143.6200 N   0  0  0  0  0  2  0  0  0  0  0  0
  188.6590  175.5850  142.5850 C   0  0  0  0  0  2  0  0  0  0  0  0
  188.9920  176.6440  141.5540 C   0  0  0  0  0  2  0  0  0  0  0  0
  190.4550  176.5270  141.1210 C   0  0  0  0  0  2  0  0  0  0  0  0
  189.7040  178.0680  139.5910 O   0  0  0  0  0  1  0  0  0  0  0  0
  190.7840  177.3230  139.9320 N   0  0  0  0  0  0  0  0  0  0  0  0
  190.4620  176.9910  137.5410 C   0  0  0  0  0  1  0  0  0  0  0  0
  191.0760  176.4370  138.8120 C   0  0  0  0  0  2  0  0  0  0  0  0
  2 22  1  1  0  0  0
  2  3  1  0  0  0  0
  2  9  1  0  0  0  0
  3 14  1  1  0  0  0
  3  4  1  0  0  0  0
  4 11  1  1  0  0  0
  4  6  1  0  0  0  0
  5 10  2  0  0  0  0
  5  1  1  0  0  0  0
  6  8  1  0  0  0  0
  7 21  1  1  0  0  0
  7 12  1  0  0  0  0
  8  1  2  0  0  0  0
  9  7  1  0  0  0  0
 11  5  1  0  0  0  0
 12  6  2  0  0  0  0
 14 13  1  0  0  0  0
 15 14  1  0  0  0  0
 16 14  1  0  0  0  0
 16 19  1  0  0  0  0
 16 17  1  0  0  0  0
 18 16  1  0  0  0  0
 20 21  1  0  0  0  0
 23 22  1  0  0  0  0
 24 23  1  0  0  0  0
 25 24  1  0  0  0  0
 26 27  1  0  0  0  0
 27 25  1  0  0  0  0
 28 29  1  0  0  0  0
 29 27  1  0  0  0  0
M  END
>  <MODEL>
9

>  <REMARK>
 VINA RESULT:      -5.1      3.522      6.979
  Name = 
  9 active torsions:
  status: ('A' for Active; 'I' for Inactive)
    1  A    between atoms: C_4  and  N_29
    2  A    between atoms: C_5  and  C_8
    3  A    between atoms: C_5  and  C_16
    4  A    between atoms: C_7  and  C_17
    5  A    between atoms: C_10  and  N_11
    6  A    between atoms: C_10  and  C_21
    7  A    between atoms: N_11  and  C_27
    8  A    between atoms: C_21  and  C_24
    9  A    between atoms: C_24  and  N_29
                            x       y       z     vdW  Elec       q    Type
                         _______ _______ _______ _____ _____    ______ ____

>  <TORSDO>
F 9

$$$$
