=
 OpenBabel10232411483D

 47 52  0  0  1  0  0  0  0  0999 V2000
  188.6560  177.9240  141.2750 C   0  0  2  0  0  3  0  0  0  0  0  0
  187.9450  176.3550  138.0800 C   0  0  0  0  0  2  0  0  0  0  0  0
  188.2760  177.7220  138.6720 C   0  0  2  0  0  0  0  0  0  0  0  0
  180.5630  180.1010  139.3310 C   0  0  0  0  0  3  0  0  0  0  0  0
  186.8410  176.4190  137.0200 C   0  0  1  0  0  3  0  0  0  0  0  0
  186.5230  178.6820  143.0090 O   0  0  0  0  0  0  0  0  0  0  0  0
  181.2930  179.9540  138.2280 C   0  0  0  0  0  0  0  0  0  0  0  0
  182.8400  178.2520  140.3160 C   0  0  0  0  0  0  0  0  0  0  0  0
  186.9420  175.3400  135.9410 C   0  0  2  0  0  3  0  0  0  0  0  0
  184.5610  175.3660  136.5820 C   0  0  0  0  0  2  0  0  0  0  0  0
  180.6600  179.2840  140.4930 N   0  0  0  0  0  2  0  0  0  0  0  0
  184.0680  177.8480  141.0660 C   0  0  0  0  0  2  0  0  0  0  0  0
  183.7630  177.5490  136.0900 O   0  0  0  0  0  0  0  0  0  0  0  0
  181.8520  178.7440  141.0010 N   0  0  0  0  0  0  0  0  0  0  0  0
  186.2910  178.6680  141.7710 C   0  0  0  0  0  0  0  0  0  0  0  0
  184.9400  179.0710  141.2880 C   0  0  0  0  0  2  0  0  0  0  0  0
  187.3050  178.2540  140.8440 N   0  0  0  0  0  0  0  0  0  0  0  0
  187.0660  178.2740  139.4120 C   0  0  0  0  0  2  0  0  0  0  0  0
  185.9850  175.1610  137.1080 C   0  0  2  0  0  3  0  0  0  0  0  0
  182.1740  178.8060  137.9860 C   0  0  0  0  0  3  0  0  0  0  0  0
  182.8210  178.0240  138.8540 C   0  0  0  0  0  0  0  0  0  0  0  0
  183.9460  176.6730  136.9760 C   0  0  0  0  0  0  0  0  0  0  0  0
  188.6860  178.6930  137.5780 C   0  0  0  0  0  1  0  0  0  0  0  0
  183.6100  176.9290  138.3510 N   0  0  0  0  0  2  0  0  0  0  0  0
  189.6750  177.5260  139.8220 S   0  0  0  0  0  0  0  0  0  0  0  0
  180.9330  180.4710  135.9350 O   0  0  0  0  0  0  0  0  0  0  0  0
  181.0920  180.8980  137.1120 C   0  0  0  0  0  0  0  0  0  0  0  0
  181.0570  182.2730  137.3690 O   0  0  0  0  0  0  0  0  0  0  0  0
  180.6640  183.2140  136.3800 C   0  0  0  0  0  1  0  0  0  0  0  0
  188.6730  176.8370  142.2600 N   0  0  0  0  0  2  0  0  0  0  0  0
  190.0170  176.2820  142.4000 C   0  0  0  0  0  2  0  0  0  0  0  0
  190.5860  176.6590  143.7580 C   0  0  0  0  0  2  0  0  0  0  0  0
  189.5150  177.0900  144.6490 N   0  0  0  0  0  2  0  0  0  0  0  0
  190.1220  177.4700  145.9130 C   0  0  2  0  0  3  0  0  0  0  0  0
  191.4200  176.9620  145.9710 O   0  0  0  0  0  1  0  0  0  0  0  0
  188.9710  178.0170  148.0410 C   0  0  0  0  0  2  0  0  0  0  0  0
  189.3010  176.9050  147.0580 C   0  0  0  0  0  3  0  0  0  0  0  0
  187.9320  177.5490  147.0490 C   0  0  0  0  0  2  0  0  0  0  0  0
  188.1030  174.4760  136.1080 N   0  0  0  0  0  2  0  0  0  0  0  0
  189.1290  174.9880  135.2080 C   0  0  0  0  0  2  0  0  0  0  0  0
  192.3030  173.7070  136.7480 N   0  0  0  0  0  0  0  0  0  0  0  0
  190.4620  174.9490  135.8720 C   0  0  0  0  0  0  0  0  0  0  0  0
  191.0890  173.7300  136.1350 C   0  0  0  0  0  3  0  0  0  0  0  0
  192.9340  174.8520  137.1150 C   0  0  0  0  0  0  0  0  0  0  0  0
  191.0990  176.1360  136.2330 C   0  0  0  0  0  3  0  0  0  0  0  0
  194.2560  174.7850  137.7910 C   0  0  0  0  0  1  0  0  0  0  0  0
  192.3440  176.0900  136.8610 C   0  0  0  0  0  3  0  0  0  0  0  0
  1 30  1  1  0  0  0
  2  3  1  0  0  0  0
  3 23  1  6  0  0  0
  3 18  1  0  0  0  0
  3 25  1  0  0  0  0
  4 11  1  0  0  0  0
  5 19  1  0  0  0  0
  5  2  1  1  0  0  0
  7  4  2  0  0  0  0
  8 14  2  0  0  0  0
  8 12  1  0  0  0  0
  9 39  1  1  0  0  0
  9  5  1  0  0  0  0
  9 19  1  0  0  0  0
 10 22  1  0  0  0  0
 11 14  1  0  0  0  0
 12 16  1  0  0  0  0
 13 22  2  0  0  0  0
 15  6  2  0  0  0  0
 16 15  1  0  0  0  0
 17  1  1  0  0  0  0
 17 15  1  0  0  0  0
 18 17  1  0  0  0  0
 19 10  1  6  0  0  0
 20  7  1  0  0  0  0
 20 21  2  0  0  0  0
 21  8  1  0  0  0  0
 22 24  1  0  0  0  0
 24 21  1  0  0  0  0
 25  1  1  0  0  0  0
 26 27  2  0  0  0  0
 27 28  1  0  0  0  0
 27  7  1  0  0  0  0
 29 28  1  0  0  0  0
 30 31  1  0  0  0  0
 31 32  1  0  0  0  0
 32 33  1  0  0  0  0
 33 34  1  0  0  0  0
 34 35  1  6  0  0  0
 34 37  1  0  0  0  0
 37 36  1  0  0  0  0
 38 37  1  0  0  0  0
 38 36  1  0  0  0  0
 40 42  1  0  0  0  0
 40 39  1  0  0  0  0
 41 44  1  0  0  0  0
 42 43  1  0  0  0  0
 42 45  2  0  0  0  0
 43 41  2  0  0  0  0
 44 46  1  0  0  0  0
 45 47  1  0  0  0  0
 47 44  2  0  0  0  0
M  END
>  <MODEL>
1

>  <REMARK>
 VINA RESULT:      -7.9      0.000      0.000
  Name = 
  11 active torsions:
  status: ('A' for Active; 'I' for Inactive)
    1  A    between atoms: C_2  and  N_24
    2  A    between atoms: C_5  and  N_21
    3  A    between atoms: C_5  and  C_40
    4  A    between atoms: C_7  and  C_42
    5  A    between atoms: C_10  and  C_36
    6  A    between atoms: C_12  and  N_21
    7  A    between atoms: C_12  and  C_43
    8  A    between atoms: C_16  and  N_31
    9  A    between atoms: N_24  and  C_43
   10  A    between atoms: O_25  and  C_36
   11  A    between atoms: N_31  and  C_42
                            x       y       z     vdW  Elec       q    Type
                         _______ _______ _______ _____ _____    ______ ____

>  <TORSDO>
F 11

$$$$
=
 OpenBabel10232411483D

 47 52  0  0  1  0  0  0  0  0999 V2000
  185.9250  175.7140  135.6320 C   0  0  2  0  0  3  0  0  0  0  0  0
  187.4720  177.5700  138.3410 C   0  0  0  0  0  2  0  0  0  0  0  0
  187.3570  177.5850  136.8180 C   0  0  2  0  0  0  0  0  0  0  0  0
  194.2430  173.5190  135.5400 C   0  0  0  0  0  3  0  0  0  0  0  0
  188.8930  177.8630  138.8310 C   0  0  1  0  0  3  0  0  0  0  0  0
  187.1570  173.3500  134.6230 O   0  0  0  0  0  0  0  0  0  0  0  0
  194.0860  174.7700  135.9670 C   0  0  1  0  0  3  0  0  0  0  0  0
  191.3160  173.4890  136.5440 C   0  0  0  0  0  0  0  0  0  0  0  0
  188.9590  178.5420  140.2000 C   0  0  2  0  0  3  0  0  0  0  0  0
  190.6640  176.7640  140.2970 C   0  0  0  0  0  2  0  0  0  0  0  0
  193.3800  172.4320  135.8550 N   0  0  0  0  0  0  0  0  0  0  0  0
  189.8250  173.4340  136.4610 C   0  0  0  0  0  2  0  0  0  0  0  0
  192.2380  177.2550  138.5870 O   0  0  0  0  0  0  0  0  0  0  0  0
  191.9850  172.5240  135.9900 N   0  0  0  0  0  0  0  0  0  0  0  0
  187.9080  174.2320  135.1200 C   0  0  0  0  0  0  0  0  0  0  0  0
  189.3800  174.0040  135.1260 C   0  0  0  0  0  2  0  0  0  0  0  0
  187.3500  175.4270  135.6860 N   0  0  0  0  0  0  0  0  0  0  0  0
  188.2050  176.4720  136.2220 C   0  0  0  0  0  2  0  0  0  0  0  0
  189.1730  177.0410  140.0830 C   0  0  2  0  0  3  0  0  0  0  0  0
  193.1000  175.1640  136.9790 C   0  0  0  0  0  3  0  0  0  0  0  0
  191.9220  174.6160  137.2880 C   0  0  0  0  0  0  0  0  0  0  0  0
  191.4090  176.4240  139.0440 C   0  0  0  0  0  0  0  0  0  0  0  0
  187.8140  178.9230  136.2620 C   0  0  0  0  0  1  0  0  0  0  0  0
  191.1480  175.1860  138.3600 N   0  0  0  0  0  2  0  0  0  0  0  0
  185.6060  177.3440  136.3730 S   0  0  0  0  0  0  0  0  0  0  0  0
  194.8890  177.0060  135.8500 O   0  0  0  0  0  0  0  0  0  0  0  0
  195.0560  175.7950  135.5330 C   0  0  0  0  0  0  0  0  0  0  0  0
  196.1740  175.4140  134.7850 O   0  0  0  0  0  0  0  0  0  0  0  0
  197.4980  175.7000  135.2110 C   0  0  0  0  0  1  0  0  0  0  0  0
  185.1230  174.6650  136.2720 N   0  0  0  0  0  2  0  0  0  0  0  0
  183.7110  174.8040  135.9260 C   0  0  0  0  0  2  0  0  0  0  0  0
  182.8520  174.3800  137.1060 C   0  0  0  0  0  2  0  0  0  0  0  0
  183.1730  175.1880  138.2770 N   0  0  0  0  0  2  0  0  0  0  0  0
  181.9180  175.6340  138.8570 C   0  0  2  0  0  3  0  0  0  0  0  0
  180.8790  174.8420  138.3720 O   0  0  0  0  0  1  0  0  0  0  0  0
  181.5180  177.9180  139.7400 C   0  0  0  0  0  2  0  0  0  0  0  0
  181.6750  177.0840  138.4780 C   0  0  0  0  0  3  0  0  0  0  0  0
  182.8250  177.9270  138.9830 C   0  0  0  0  0  2  0  0  0  0  0  0
  187.6430  178.8180  140.7610 N   0  0  0  0  0  2  0  0  0  0  0  0
  187.5820  178.1070  142.0330 C   0  0  0  0  0  2  0  0  0  0  0  0
  184.8410  178.2780  144.5910 N   0  0  0  0  0  0  0  0  0  0  0  0
  186.2410  178.2850  142.6580 C   0  0  0  0  0  0  0  0  0  0  0  0
  186.0720  178.1190  144.0330 C   0  0  0  0  0  3  0  0  0  0  0  0
  183.7570  178.6010  143.8400 C   0  0  0  0  0  0  0  0  0  0  0  0
  185.1420  178.6270  141.8710 C   0  0  0  0  0  3  0  0  0  0  0  0
  182.4280  178.7580  144.4850 C   0  0  0  0  0  1  0  0  0  0  0  0
  183.8890  178.7840  142.4630 C   0  0  0  0  0  3  0  0  0  0  0  0
  1 17  1  0  0  0  0
  1 30  1  1  0  0  0
  1 25  1  0  0  0  0
  3 23  1  6  0  0  0
  3  2  1  0  0  0  0
  4 11  2  0  0  0  0
  4  7  1  0  0  0  0
  5  2  1  1  0  0  0
  5 19  1  0  0  0  0
  5  9  1  0  0  0  0
  6 15  2  0  0  0  0
  7 27  1  1  0  0  0
  7 20  1  0  0  0  0
  8 21  1  0  0  0  0
  9 39  1  1  0  0  0
 11 14  1  0  0  0  0
 12  8  1  0  0  0  0
 13 22  2  0  0  0  0
 14  8  2  0  0  0  0
 15 16  1  0  0  0  0
 15 17  1  0  0  0  0
 16 12  1  0  0  0  0
 17 18  1  0  0  0  0
 18  3  1  0  0  0  0
 19  9  1  0  0  0  0
 19 10  1  6  0  0  0
 20 21  2  0  0  0  0
 21 24  1  0  0  0  0
 22 10  1  0  0  0  0
 24 22  1  0  0  0  0
 25  3  1  0  0  0  0
 27 26  2  0  0  0  0
 28 29  1  0  0  0  0
 28 27  1  0  0  0  0
 31 30  1  0  0  0  0
 31 32  1  0  0  0  0
 32 33  1  0  0  0  0
 33 34  1  0  0  0  0
 34 35  1  6  0  0  0
 37 34  1  0  0  0  0
 37 38  1  0  0  0  0
 37 36  1  0  0  0  0
 38 36  1  0  0  0  0
 39 40  1  0  0  0  0
 40 42  1  0  0  0  0
 42 43  2  0  0  0  0
 43 41  1  0  0  0  0
 44 46  1  0  0  0  0
 44 41  2  0  0  0  0
 45 47  2  0  0  0  0
 45 42  1  0  0  0  0
 47 44  1  0  0  0  0
M  END
>  <MODEL>
2

>  <REMARK>
 VINA RESULT:      -7.4      3.455     10.230
  Name = 
  11 active torsions:
  status: ('A' for Active; 'I' for Inactive)
    1  A    between atoms: C_2  and  N_24
    2  A    between atoms: C_5  and  N_21
    3  A    between atoms: C_5  and  C_40
    4  A    between atoms: C_7  and  C_42
    5  A    between atoms: C_10  and  C_36
    6  A    between atoms: C_12  and  N_21
    7  A    between atoms: C_12  and  C_43
    8  A    between atoms: C_16  and  N_31
    9  A    between atoms: N_24  and  C_43
   10  A    between atoms: O_25  and  C_36
   11  A    between atoms: N_31  and  C_42
                            x       y       z     vdW  Elec       q    Type
                         _______ _______ _______ _____ _____    ______ ____

>  <TORSDO>
F 11

$$$$
=
 OpenBabel10232411483D

 47 52  0  0  1  0  0  0  0  0999 V2000
  186.0060  175.9170  135.4480 C   0  0  2  0  0  3  0  0  0  0  0  0
  187.4430  177.6480  138.2970 C   0  0  0  0  0  2  0  0  0  0  0  0
  187.4090  177.7160  136.7720 C   0  0  2  0  0  0  0  0  0  0  0  0
  194.2720  173.5470  135.7220 C   0  0  0  0  0  3  0  0  0  0  0  0
  188.8410  177.8930  138.8710 C   0  0  1  0  0  3  0  0  0  0  0  0
  187.2440  173.5610  134.4250 O   0  0  0  0  0  0  0  0  0  0  0  0
  194.1170  174.7860  136.1820 C   0  0  1  0  0  3  0  0  0  0  0  0
  191.2950  173.5470  136.5680 C   0  0  0  0  0  0  0  0  0  0  0  0
  188.8470  178.5250  140.2650 C   0  0  2  0  0  3  0  0  0  0  0  0
  190.5080  176.7080  140.3910 C   0  0  0  0  0  2  0  0  0  0  0  0
  193.3710  172.4680  135.9530 N   0  0  0  0  0  0  0  0  0  0  0  0
  189.8100  173.5270  136.4040 C   0  0  0  0  0  2  0  0  0  0  0  0
  192.1810  177.2220  138.7850 O   0  0  0  0  0  0  0  0  0  0  0  0
  191.9740  172.5860  136.0170 N   0  0  0  0  0  0  0  0  0  0  0  0
  187.9840  174.4100  134.9910 C   0  0  0  0  0  0  0  0  0  0  0  0
  189.4490  174.1500  135.0670 C   0  0  0  0  0  2  0  0  0  0  0  0
  187.4210  175.5970  135.5670 N   0  0  0  0  0  0  0  0  0  0  0  0
  188.2660  176.6050  136.1840 C   0  0  0  0  0  2  0  0  0  0  0  0
  189.0370  177.0250  140.1080 C   0  0  2  0  0  3  0  0  0  0  0  0
  193.0870  175.1670  137.1540 C   0  0  0  0  0  3  0  0  0  0  0  0
  191.8830  174.6350  137.3800 C   0  0  0  0  0  0  0  0  0  0  0  0
  191.3120  176.3940  139.1680 C   0  0  0  0  0  0  0  0  0  0  0  0
  187.9220  179.0620  136.2870 C   0  0  0  0  0  1  0  0  0  0  0  0
  191.0640  175.1860  138.4290 N   0  0  0  0  0  2  0  0  0  0  0  0
  185.6810  177.5290  136.2270 S   0  0  0  0  0  0  0  0  0  0  0  0
  194.9000  177.0270  136.0440 O   0  0  0  0  0  0  0  0  0  0  0  0
  195.1290  175.8030  135.8360 C   0  0  0  0  0  0  0  0  0  0  0  0
  196.3540  175.4020  135.2940 O   0  0  0  0  0  0  0  0  0  0  0  0
  197.5360  175.3290  136.0780 C   0  0  0  0  0  1  0  0  0  0  0  0
  185.1500  174.8650  136.0080 N   0  0  0  0  0  2  0  0  0  0  0  0
  184.2860  175.4000  137.0560 C   0  0  0  0  0  2  0  0  0  0  0  0
  183.4920  174.2700  137.6890 C   0  0  0  0  0  2  0  0  0  0  0  0
  182.6350  173.6380  136.6920 N   0  0  0  0  0  2  0  0  0  0  0  0
  182.7320  172.2000  136.8790 C   0  0  2  0  0  3  0  0  0  0  0  0
  184.0230  171.8760  137.2950 O   0  0  0  0  0  1  0  0  0  0  0  0
  181.0710  170.8180  135.6600 C   0  0  0  0  0  2  0  0  0  0  0  0
  182.4270  171.4990  135.5670 C   0  0  0  0  0  3  0  0  0  0  0  0
  181.2090  172.1370  134.9370 C   0  0  0  0  0  2  0  0  0  0  0  0
  187.5080  178.8110  140.7650 N   0  0  0  0  0  2  0  0  0  0  0  0
  187.4020  178.1460  142.0580 C   0  0  0  0  0  2  0  0  0  0  0  0
  183.6980  178.6970  142.3050 N   0  0  0  0  0  0  0  0  0  0  0  0
  186.0360  178.3310  142.6210 C   0  0  0  0  0  0  0  0  0  0  0  0
  184.9400  178.5220  141.7780 C   0  0  0  0  0  3  0  0  0  0  0  0
  183.4880  178.6870  143.6460 C   0  0  0  0  0  0  0  0  0  0  0  0
  185.8390  178.3080  144.0020 C   0  0  0  0  0  3  0  0  0  0  0  0
  182.1180  178.8900  144.1830 C   0  0  0  0  0  1  0  0  0  0  0  0
  184.5570  178.4900  144.5210 C   0  0  0  0  0  3  0  0  0  0  0  0
  1 17  1  0  0  0  0
  1 30  1  1  0  0  0
  1 25  1  0  0  0  0
  3 23  1  6  0  0  0
  3  2  1  0  0  0  0
  4 11  2  0  0  0  0
  4  7  1  0  0  0  0
  5  2  1  1  0  0  0
  5 19  1  0  0  0  0
  5  9  1  0  0  0  0
  6 15  2  0  0  0  0
  7 27  1  1  0  0  0
  7 20  1  0  0  0  0
  8 21  1  0  0  0  0
  9 39  1  1  0  0  0
 11 14  1  0  0  0  0
 12  8  1  0  0  0  0
 13 22  2  0  0  0  0
 14  8  2  0  0  0  0
 15 16  1  0  0  0  0
 15 17  1  0  0  0  0
 16 12  1  0  0  0  0
 17 18  1  0  0  0  0
 18  3  1  0  0  0  0
 19  9  1  0  0  0  0
 19 10  1  6  0  0  0
 20 21  2  0  0  0  0
 21 24  1  0  0  0  0
 22 10  1  0  0  0  0
 24 22  1  0  0  0  0
 25  3  1  0  0  0  0
 27 26  2  0  0  0  0
 28 27  1  0  0  0  0
 28 29  1  0  0  0  0
 30 31  1  0  0  0  0
 31 32  1  0  0  0  0
 33 34  1  0  0  0  0
 33 32  1  0  0  0  0
 34 35  1  6  0  0  0
 37 36  1  0  0  0  0
 37 34  1  0  0  0  0
 38 37  1  0  0  0  0
 38 36  1  0  0  0  0
 39 40  1  0  0  0  0
 40 42  1  0  0  0  0
 41 44  1  0  0  0  0
 42 45  2  0  0  0  0
 43 41  2  0  0  0  0
 43 42  1  0  0  0  0
 44 46  1  0  0  0  0
 44 47  2  0  0  0  0
 45 47  1  0  0  0  0
M  END
>  <MODEL>
3

>  <REMARK>
 VINA RESULT:      -7.1      4.032     10.640
  Name = 
  11 active torsions:
  status: ('A' for Active; 'I' for Inactive)
    1  A    between atoms: C_2  and  N_24
    2  A    between atoms: C_5  and  N_21
    3  A    between atoms: C_5  and  C_40
    4  A    between atoms: C_7  and  C_42
    5  A    between atoms: C_10  and  C_36
    6  A    between atoms: C_12  and  N_21
    7  A    between atoms: C_12  and  C_43
    8  A    between atoms: C_16  and  N_31
    9  A    between atoms: N_24  and  C_43
   10  A    between atoms: O_25  and  C_36
   11  A    between atoms: N_31  and  C_42
                            x       y       z     vdW  Elec       q    Type
                         _______ _______ _______ _____ _____    ______ ____

>  <TORSDO>
F 11

$$$$
=
 OpenBabel10232411483D

 47 52  0  0  1  0  0  0  0  0999 V2000
  188.6330  178.0210  140.0810 C   0  0  2  0  0  3  0  0  0  0  0  0
  187.0290  176.4210  137.2450 C   0  0  0  0  0  2  0  0  0  0  0  0
  187.5210  177.7920  137.7000 C   0  0  2  0  0  0  0  0  0  0  0  0
  180.3310  180.2330  140.5150 C   0  0  0  0  0  3  0  0  0  0  0  0
  185.6670  176.4800  136.5470 C   0  0  1  0  0  3  0  0  0  0  0  0
  187.0920  178.8140  142.3440 O   0  0  0  0  0  0  0  0  0  0  0  0
  180.7130  180.0680  139.2510 C   0  0  0  0  0  0  0  0  0  0  0  0
  182.7890  178.3790  140.8280 C   0  0  0  0  0  0  0  0  0  0  0  0
  185.4500  175.3890  135.4970 C   0  0  2  0  0  3  0  0  0  0  0  0
  183.3540  175.4390  136.7950 C   0  0  0  0  0  2  0  0  0  0  0  0
  180.7550  179.4290  141.6110 N   0  0  0  0  0  2  0  0  0  0  0  0
  184.1780  177.9750  141.1990 C   0  0  0  0  0  2  0  0  0  0  0  0
  182.4560  177.6210  136.5250 O   0  0  0  0  0  0  0  0  0  0  0  0
  182.0410  178.8870  141.7610 N   0  0  0  0  0  0  0  0  0  0  0  0
  186.5130  178.7870  141.2250 C   0  0  0  0  0  0  0  0  0  0  0  0
  185.0820  179.1940  141.1450 C   0  0  0  0  0  2  0  0  0  0  0  0
  187.2170  178.3550  140.0520 N   0  0  0  0  0  0  0  0  0  0  0  0
  186.5770  178.3610  138.7480 C   0  0  0  0  0  2  0  0  0  0  0  0
  184.8680  175.2300  136.8930 C   0  0  2  0  0  3  0  0  0  0  0  0
  181.4830  178.9120  138.7810 C   0  0  0  0  0  3  0  0  0  0  0  0
  182.3490  178.1350  139.4360 C   0  0  0  0  0  0  0  0  0  0  0  0
  182.8830  176.7550  137.3320 C   0  0  0  0  0  0  0  0  0  0  0  0
  187.6030  178.7480  136.5210 C   0  0  0  0  0  1  0  0  0  0  0  0
  182.9570  177.0290  138.7420 N   0  0  0  0  0  2  0  0  0  0  0  0
  189.1910  177.5990  138.4010 S   0  0  0  0  0  0  0  0  0  0  0  0
  179.9840  182.2100  138.5180 O   0  0  0  0  0  0  0  0  0  0  0  0
  180.2030  181.0010  138.2270 C   0  0  0  0  0  0  0  0  0  0  0  0
  179.9820  180.5430  136.9240 O   0  0  0  0  0  0  0  0  0  0  0  0
  180.6270  181.1250  135.8020 C   0  0  0  0  0  1  0  0  0  0  0  0
  188.9290  176.9450  141.0330 N   0  0  0  0  0  2  0  0  0  0  0  0
  190.1940  177.1910  141.7200 C   0  0  0  0  0  2  0  0  0  0  0  0
  190.0360  176.8960  143.2030 C   0  0  0  0  0  2  0  0  0  0  0  0
  189.8050  178.1350  143.9390 N   0  0  0  0  0  2  0  0  0  0  0  0
  189.6210  177.7850  145.3360 C   0  0  2  0  0  3  0  0  0  0  0  0
  190.6160  176.8880  145.7220 O   0  0  0  0  0  1  0  0  0  0  0  0
  187.7840  177.3610  146.9500 C   0  0  0  0  0  2  0  0  0  0  0  0
  188.2560  177.1450  145.5210 C   0  0  0  0  0  3  0  0  0  0  0  0
  187.2420  178.2230  145.8340 C   0  0  0  0  0  2  0  0  0  0  0  0
  186.6070  174.5180  135.3350 N   0  0  0  0  0  2  0  0  0  0  0  0
  186.2310  173.5150  134.3460 C   0  0  0  0  0  2  0  0  0  0  0  0
  188.6460  170.8160  135.3320 N   0  0  0  0  0  0  0  0  0  0  0  0
  186.7880  172.1860  134.7240 C   0  0  0  0  0  0  0  0  0  0  0  0
  188.1490  172.0370  134.9940 C   0  0  0  0  0  3  0  0  0  0  0  0
  187.8460  169.7230  135.4180 C   0  0  0  0  0  0  0  0  0  0  0  0
  185.9480  171.0760  134.8180 C   0  0  0  0  0  3  0  0  0  0  0  0
  188.4290  168.4050  135.7820 C   0  0  0  0  0  1  0  0  0  0  0  0
  186.4790  169.8340  135.1650 C   0  0  0  0  0  3  0  0  0  0  0  0
  1 30  1  1  0  0  0
  2  3  1  0  0  0  0
  3 23  1  6  0  0  0
  3 25  1  0  0  0  0
  3 18  1  0  0  0  0
  4 11  1  0  0  0  0
  5 19  1  0  0  0  0
  5  2  1  1  0  0  0
  7  4  2  0  0  0  0
  8 12  1  0  0  0  0
  8 14  2  0  0  0  0
  9 39  1  1  0  0  0
  9  5  1  0  0  0  0
  9 19  1  0  0  0  0
 10 22  1  0  0  0  0
 11 14  1  0  0  0  0
 13 22  2  0  0  0  0
 15  6  2  0  0  0  0
 16 12  1  0  0  0  0
 16 15  1  0  0  0  0
 17  1  1  0  0  0  0
 17 15  1  0  0  0  0
 18 17  1  0  0  0  0
 19 10  1  6  0  0  0
 20  7  1  0  0  0  0
 20 21  2  0  0  0  0
 21  8  1  0  0  0  0
 22 24  1  0  0  0  0
 24 21  1  0  0  0  0
 25  1  1  0  0  0  0
 27 26  2  0  0  0  0
 27  7  1  0  0  0  0
 28 27  1  0  0  0  0
 29 28  1  0  0  0  0
 30 31  1  0  0  0  0
 31 32  1  0  0  0  0
 32 33  1  0  0  0  0
 33 34  1  0  0  0  0
 34 37  1  0  0  0  0
 34 35  1  6  0  0  0
 37 38  1  0  0  0  0
 37 36  1  0  0  0  0
 38 36  1  0  0  0  0
 40 42  1  0  0  0  0
 40 39  1  0  0  0  0
 41 44  1  0  0  0  0
 42 45  2  0  0  0  0
 42 43  1  0  0  0  0
 43 41  2  0  0  0  0
 44 46  1  0  0  0  0
 45 47  1  0  0  0  0
 47 44  2  0  0  0  0
M  END
>  <MODEL>
4

>  <REMARK>
 VINA RESULT:      -6.9      2.201      2.931
  Name = 
  11 active torsions:
  status: ('A' for Active; 'I' for Inactive)
    1  A    between atoms: C_2  and  N_24
    2  A    between atoms: C_5  and  N_21
    3  A    between atoms: C_5  and  C_40
    4  A    between atoms: C_7  and  C_42
    5  A    between atoms: C_10  and  C_36
    6  A    between atoms: C_12  and  N_21
    7  A    between atoms: C_12  and  C_43
    8  A    between atoms: C_16  and  N_31
    9  A    between atoms: N_24  and  C_43
   10  A    between atoms: O_25  and  C_36
   11  A    between atoms: N_31  and  C_42
                            x       y       z     vdW  Elec       q    Type
                         _______ _______ _______ _____ _____    ______ ____

>  <TORSDO>
F 11

$$$$
=
 OpenBabel10232411483D

 47 52  0  0  1  0  0  0  0  0999 V2000
  185.8560  176.4520  136.3470 C   0  0  2  0  0  3  0  0  0  0  0  0
  187.7060  177.8080  139.1600 C   0  0  0  0  0  2  0  0  0  0  0  0
  187.4800  178.0550  137.6710 C   0  0  2  0  0  0  0  0  0  0  0  0
  194.0000  173.9020  135.2590 C   0  0  0  0  0  3  0  0  0  0  0  0
  189.1740  177.9560  139.5700 C   0  0  1  0  0  3  0  0  0  0  0  0
  186.8690  174.2090  134.9090 O   0  0  0  0  0  0  0  0  0  0  0  0
  193.9500  175.0810  135.8730 C   0  0  1  0  0  3  0  0  0  0  0  0
  191.1580  173.8620  136.4840 C   0  0  0  0  0  0  0  0  0  0  0  0
  189.3820  178.4200  141.0130 C   0  0  2  0  0  3  0  0  0  0  0  0
  190.9810  176.5680  140.7120 C   0  0  0  0  0  2  0  0  0  0  0  0
  193.0990  172.8220  135.4820 N   0  0  0  0  0  0  0  0  0  0  0  0
  189.6650  173.8910  136.5160 C   0  0  0  0  0  2  0  0  0  0  0  0
  192.4500  177.2320  138.9680 O   0  0  0  0  0  0  0  0  0  0  0  0
  191.7260  172.9590  135.7420 N   0  0  0  0  0  0  0  0  0  0  0  0
  187.7050  174.9700  135.4650 C   0  0  0  0  0  0  0  0  0  0  0  0
  189.1570  174.6740  135.3170 C   0  0  0  0  0  2  0  0  0  0  0  0
  187.2620  176.0930  136.2420 N   0  0  0  0  0  0  0  0  0  0  0  0
  188.2140  177.0040  136.8530 C   0  0  0  0  0  2  0  0  0  0  0  0
  189.4970  176.9450  140.6630 C   0  0  2  0  0  3  0  0  0  0  0  0
  193.0660  175.3660  137.0090 C   0  0  0  0  0  3  0  0  0  0  0  0
  191.8840  174.8350  137.3300 C   0  0  0  0  0  0  0  0  0  0  0  0
  191.6100  176.3830  139.3660 C   0  0  0  0  0  0  0  0  0  0  0  0
  187.9730  179.4380  137.2780 C   0  0  0  0  0  1  0  0  0  0  0  0
  191.2260  175.2750  138.5330 N   0  0  0  0  0  2  0  0  0  0  0  0
  185.6900  177.9680  137.3400 S   0  0  0  0  0  0  0  0  0  0  0  0
  194.6590  177.0070  134.6710 O   0  0  0  0  0  0  0  0  0  0  0  0
  194.9430  176.1110  135.5150 C   0  0  0  0  0  0  0  0  0  0  0  0
  196.1980  176.1040  136.1330 O   0  0  0  0  0  0  0  0  0  0  0  0
  197.2290  175.2120  135.7350 C   0  0  0  0  0  1  0  0  0  0  0  0
  185.0430  175.3590  136.8910 N   0  0  0  0  0  2  0  0  0  0  0  0
  183.6440  175.7610  137.0140 C   0  0  0  0  0  2  0  0  0  0  0  0
  182.7670  174.8030  136.2250 C   0  0  0  0  0  2  0  0  0  0  0  0
  182.6570  173.5290  136.9270 N   0  0  0  0  0  2  0  0  0  0  0  0
  182.9090  172.4740  135.9610 C   0  0  2  0  0  3  0  0  0  0  0  0
  181.7010  171.8690  135.6150 O   0  0  0  0  0  1  0  0  0  0  0  0
  183.6810  170.1190  135.8390 C   0  0  0  0  0  2  0  0  0  0  0  0
  183.8400  171.4420  136.5720 C   0  0  0  0  0  3  0  0  0  0  0  0
  184.8570  171.0180  135.5340 C   0  0  0  0  0  2  0  0  0  0  0  0
  188.1290  178.6710  141.7140 N   0  0  0  0  0  2  0  0  0  0  0  0
  187.7490  177.4110  142.3420 C   0  0  0  0  0  2  0  0  0  0  0  0
  189.1860  177.6010  145.8040 N   0  0  0  0  0  0  0  0  0  0  0  0
  187.8550  177.5220  143.8230 C   0  0  0  0  0  0  0  0  0  0  0  0
  189.1020  177.5070  144.4490 C   0  0  0  0  0  3  0  0  0  0  0  0
  188.0750  177.7140  146.5770 C   0  0  0  0  0  0  0  0  0  0  0  0
  186.7030  177.6470  144.6000 C   0  0  0  0  0  3  0  0  0  0  0  0
  188.2070  177.8070  148.0540 C   0  0  0  0  0  1  0  0  0  0  0  0
  186.8110  177.7420  145.9870 C   0  0  0  0  0  3  0  0  0  0  0  0
  1 30  1  1  0  0  0
  1 25  1  0  0  0  0
  3 23  1  6  0  0  0
  3  2  1  0  0  0  0
  4 11  2  0  0  0  0
  4  7  1  0  0  0  0
  5  2  1  1  0  0  0
  5 19  1  0  0  0  0
  5  9  1  0  0  0  0
  6 15  2  0  0  0  0
  7 27  1  1  0  0  0
  7 20  1  0  0  0  0
  8 12  1  0  0  0  0
  8 21  1  0  0  0  0
  9 39  1  1  0  0  0
 11 14  1  0  0  0  0
 13 22  2  0  0  0  0
 14  8  2  0  0  0  0
 15 17  1  0  0  0  0
 16 15  1  0  0  0  0
 16 12  1  0  0  0  0
 17  1  1  0  0  0  0
 17 18  1  0  0  0  0
 18  3  1  0  0  0  0
 19 10  1  6  0  0  0
 19  9  1  0  0  0  0
 20 21  2  0  0  0  0
 21 24  1  0  0  0  0
 22 10  1  0  0  0  0
 24 22  1  0  0  0  0
 25  3  1  0  0  0  0
 26 27  2  0  0  0  0
 27 28  1  0  0  0  0
 29 28  1  0  0  0  0
 30 31  1  0  0  0  0
 32 33  1  0  0  0  0
 32 31  1  0  0  0  0
 34 35  1  1  0  0  0
 34 37  1  0  0  0  0
 34 33  1  0  0  0  0
 36 37  1  0  0  0  0
 38 36  1  0  0  0  0
 38 37  1  0  0  0  0
 39 40  1  0  0  0  0
 40 42  1  0  0  0  0
 41 44  1  0  0  0  0
 42 43  1  0  0  0  0
 42 45  2  0  0  0  0
 43 41  2  0  0  0  0
 44 46  1  0  0  0  0
 45 47  1  0  0  0  0
 47 44  2  0  0  0  0
M  END
>  <MODEL>
5

>  <REMARK>
 VINA RESULT:      -6.1      3.844     10.422
  Name = 
  11 active torsions:
  status: ('A' for Active; 'I' for Inactive)
    1  A    between atoms: C_2  and  N_24
    2  A    between atoms: C_5  and  N_21
    3  A    between atoms: C_5  and  C_40
    4  A    between atoms: C_7  and  C_42
    5  A    between atoms: C_10  and  C_36
    6  A    between atoms: C_12  and  N_21
    7  A    between atoms: C_12  and  C_43
    8  A    between atoms: C_16  and  N_31
    9  A    between atoms: N_24  and  C_43
   10  A    between atoms: O_25  and  C_36
   11  A    between atoms: N_31  and  C_42
                            x       y       z     vdW  Elec       q    Type
                         _______ _______ _______ _____ _____    ______ ____

>  <TORSDO>
F 11

$$$$
=
 OpenBabel10232411483D

 47 52  0  0  1  0  0  0  0  0999 V2000
  182.7340  175.1190  136.6230 C   0  0  2  0  0  3  0  0  0  0  0  0
  186.2140  176.0620  136.1970 C   0  0  0  0  0  2  0  0  0  0  0  0
  185.3560  175.0020  136.8840 C   0  0  2  0  0  0  0  0  0  0  0  0
  185.0970  178.8120  144.0250 C   0  0  0  0  0  3  0  0  0  0  0  0
  187.3540  176.5690  137.0840 C   0  0  1  0  0  3  0  0  0  0  0  0
  181.1260  176.4130  138.5890 O   0  0  0  0  0  0  0  0  0  0  0  0
  186.1260  178.1890  143.4550 C   0  0  1  0  0  3  0  0  0  0  0  0
  184.2230  178.7190  141.0580 C   0  0  0  0  0  0  0  0  0  0  0  0
  188.5920  177.0320  136.3130 C   0  0  2  0  0  3  0  0  0  0  0  0
  188.2090  178.7870  138.0020 C   0  0  0  0  0  2  0  0  0  0  0  0
  184.0940  179.5440  143.3280 N   0  0  0  0  0  0  0  0  0  0  0  0
  183.4330  178.3010  139.8610 C   0  0  0  0  0  2  0  0  0  0  0  0
  188.3860  177.7250  140.1190 O   0  0  0  0  0  0  0  0  0  0  0  0
  183.5690  179.1960  142.0740 N   0  0  0  0  0  0  0  0  0  0  0  0
  182.3650  176.3360  138.8080 C   0  0  0  0  0  0  0  0  0  0  0  0
  182.9070  176.8930  140.0790 C   0  0  0  0  0  2  0  0  0  0  0  0
  183.2390  175.7370  137.8400 N   0  0  0  0  0  0  0  0  0  0  0  0
  184.6620  175.6020  138.0970 C   0  0  0  0  0  2  0  0  0  0  0  0
  187.5810  178.0510  136.8140 C   0  0  2  0  0  3  0  0  0  0  0  0
  186.4740  178.3290  142.0370 C   0  0  0  0  0  3  0  0  0  0  0  0
  185.6960  178.5990  140.9860 C   0  0  0  0  0  0  0  0  0  0  0  0
  187.6550  178.3840  139.3330 C   0  0  0  0  0  0  0  0  0  0  0  0
  186.2120  173.8250  137.3220 C   0  0  0  0  0  1  0  0  0  0  0  0
  186.3000  178.7130  139.6840 N   0  0  0  0  0  2  0  0  0  0  0  0
  184.1200  174.4000  135.6890 S   0  0  0  0  0  0  0  0  0  0  0  0
  186.6760  176.9130  145.3860 O   0  0  0  0  0  0  0  0  0  0  0  0
  187.0710  177.4490  144.3130 C   0  0  0  0  0  0  0  0  0  0  0  0
  188.4080  177.3270  143.9210 O   0  0  0  0  0  0  0  0  0  0  0  0
  188.9190  176.1330  143.3460 C   0  0  0  0  0  1  0  0  0  0  0  0
  181.9610  176.0590  135.8030 N   0  0  0  0  0  2  0  0  0  0  0  0
  182.8060  177.1500  135.3240 C   0  0  0  0  0  2  0  0  0  0  0  0
  181.9410  178.3460  134.9630 C   0  0  0  0  0  2  0  0  0  0  0  0
  180.7650  178.3930  135.8250 N   0  0  0  0  0  2  0  0  0  0  0  0
  180.4870  179.7900  136.1100 C   0  0  2  0  0  3  0  0  0  0  0  0
  180.9530  180.5760  135.0570 O   0  0  0  0  0  1  0  0  0  0  0  0
  180.3430  181.2210  138.1320 C   0  0  0  0  0  2  0  0  0  0  0  0
  181.1870  180.1920  137.3960 C   0  0  0  0  0  3  0  0  0  0  0  0
  180.3330  179.7770  138.5740 C   0  0  0  0  0  2  0  0  0  0  0  0
  188.4600  176.8640  134.8720 N   0  0  0  0  0  2  0  0  0  0  0  0
  189.0680  175.5780  134.5520 C   0  0  0  0  0  2  0  0  0  0  0  0
  192.5940  175.8370  135.8100 N   0  0  0  0  0  0  0  0  0  0  0  0
  190.2950  175.3700  135.3700 C   0  0  0  0  0  0  0  0  0  0  0  0
  191.4780  176.0410  135.0590 C   0  0  0  0  0  3  0  0  0  0  0  0
  192.5910  174.9900  136.8710 C   0  0  0  0  0  0  0  0  0  0  0  0
  190.2690  174.5030  136.4630 C   0  0  0  0  0  3  0  0  0  0  0  0
  193.8320  174.7880  137.6620 C   0  0  0  0  0  1  0  0  0  0  0  0
  191.4240  174.3090  137.2190 C   0  0  0  0  0  3  0  0  0  0  0  0
  1 30  1  6  0  0  0
  1 17  1  0  0  0  0
  2  3  1  0  0  0  0
  3 23  1  1  0  0  0
  3 18  1  0  0  0  0
  5  2  1  6  0  0  0
  6 15  2  0  0  0  0
  7  4  1  0  0  0  0
  7 27  1  1  0  0  0
  8 14  2  0  0  0  0
  9 39  1  6  0  0  0
  9 19  1  0  0  0  0
  9  5  1  0  0  0  0
 10 22  1  0  0  0  0
 11  4  2  0  0  0  0
 12 16  1  0  0  0  0
 12  8  1  0  0  0  0
 14 11  1  0  0  0  0
 15 16  1  0  0  0  0
 17 18  1  0  0  0  0
 17 15  1  0  0  0  0
 19  5  1  0  0  0  0
 19 10  1  1  0  0  0
 20  7  1  0  0  0  0
 21  8  1  0  0  0  0
 21 20  2  0  0  0  0
 22 24  1  0  0  0  0
 22 13  2  0  0  0  0
 24 21  1  0  0  0  0
 25  1  1  0  0  0  0
 25  3  1  0  0  0  0
 27 26  2  0  0  0  0
 28 27  1  0  0  0  0
 29 28  1  0  0  0  0
 31 30  1  0  0  0  0
 32 31  1  0  0  0  0
 32 33  1  0  0  0  0
 33 34  1  0  0  0  0
 34 35  1  6  0  0  0
 34 37  1  0  0  0  0
 36 38  1  0  0  0  0
 37 36  1  0  0  0  0
 37 38  1  0  0  0  0
 40 39  1  0  0  0  0
 40 42  1  0  0  0  0
 41 44  1  0  0  0  0
 42 45  2  0  0  0  0
 43 42  1  0  0  0  0
 43 41  2  0  0  0  0
 44 47  2  0  0  0  0
 44 46  1  0  0  0  0
 45 47  1  0  0  0  0
M  END
>  <MODEL>
6

>  <REMARK>
 VINA RESULT:      -5.8      2.425      7.417
  Name = 
  11 active torsions:
  status: ('A' for Active; 'I' for Inactive)
    1  A    between atoms: C_2  and  N_24
    2  A    between atoms: C_5  and  N_21
    3  A    between atoms: C_5  and  C_40
    4  A    between atoms: C_7  and  C_42
    5  A    between atoms: C_10  and  C_36
    6  A    between atoms: C_12  and  N_21
    7  A    between atoms: C_12  and  C_43
    8  A    between atoms: C_16  and  N_31
    9  A    between atoms: N_24  and  C_43
   10  A    between atoms: O_25  and  C_36
   11  A    between atoms: N_31  and  C_42
                            x       y       z     vdW  Elec       q    Type
                         _______ _______ _______ _____ _____    ______ ____

>  <TORSDO>
F 11

$$$$
=
 OpenBabel10232411483D

 47 52  0  0  1  0  0  0  0  0999 V2000
  180.8460  176.9380  138.5580 C   0  0  2  0  0  3  0  0  0  0  0  0
  184.1660  176.9990  137.0920 C   0  0  0  0  0  2  0  0  0  0  0  0
  183.2760  176.1080  137.9540 C   0  0  2  0  0  0  0  0  0  0  0  0
  186.2370  178.7530  145.0120 C   0  0  0  0  0  3  0  0  0  0  0  0
  185.6120  177.0570  137.5930 C   0  0  1  0  0  3  0  0  0  0  0  0
  180.3330  178.2980  141.0110 O   0  0  0  0  0  0  0  0  0  0  0  0
  186.8260  177.9760  144.1060 C   0  0  0  0  0  0  0  0  0  0  0  0
  184.5480  179.3310  142.4840 C   0  0  0  0  0  0  0  0  0  0  0  0
  186.6500  177.2930  136.4950 C   0  0  2  0  0  3  0  0  0  0  0  0
  187.3070  178.8160  138.3180 C   0  0  0  0  0  2  0  0  0  0  0  0
  185.3350  179.8150  144.7200 N   0  0  0  0  0  2  0  0  0  0  0  0
  183.3570  179.3140  141.5830 C   0  0  0  0  0  2  0  0  0  0  0  0
  187.7750  177.4430  140.1980 O   0  0  0  0  0  0  0  0  0  0  0  0
  184.3890  179.8050  143.6830 N   0  0  0  0  0  0  0  0  0  0  0  0
  181.5030  177.8710  140.8140 C   0  0  0  0  0  0  0  0  0  0  0  0
  182.5300  178.0740  141.8740 C   0  0  0  0  0  2  0  0  0  0  0  0
  181.8410  177.2170  139.5830 N   0  0  0  0  0  0  0  0  0  0  0  0
  183.1720  176.6810  139.3600 C   0  0  0  0  0  2  0  0  0  0  0  0
  186.1740  178.4530  137.3540 C   0  0  2  0  0  3  0  0  0  0  0  0
  186.7700  178.2300  142.6620 C   0  0  0  0  0  3  0  0  0  0  0  0
  185.8340  178.8450  141.9350 C   0  0  0  0  0  0  0  0  0  0  0  0
  187.0730  178.3770  139.7300 C   0  0  0  0  0  0  0  0  0  0  0  0
  183.8390  174.6980  138.0220 C   0  0  0  0  0  1  0  0  0  0  0  0
  186.0370  178.9910  140.5170 N   0  0  0  0  0  2  0  0  0  0  0  0
  181.6250  176.0310  137.1870 S   0  0  0  0  0  0  0  0  0  0  0  0
  188.0680  175.9740  143.7810 O   0  0  0  0  0  0  0  0  0  0  0  0
  187.7210  176.8980  144.5690 C   0  0  0  0  0  0  0  0  0  0  0  0
  188.2020  176.9160  145.8820 O   0  0  0  0  0  0  0  0  0  0  0  0
  189.5540  177.2240  146.1850 C   0  0  0  0  0  1  0  0  0  0  0  0
  180.1780  178.1570  138.0880 N   0  0  0  0  0  2  0  0  0  0  0  0
  181.0120  178.8700  137.1250 C   0  0  0  0  0  2  0  0  0  0  0  0
  181.2920  180.2740  137.6330 C   0  0  0  0  0  2  0  0  0  0  0  0
  180.6230  181.2570  136.7890 N   0  0  0  0  0  2  0  0  0  0  0  0
  180.9020  182.5710  137.3400 C   0  0  2  0  0  3  0  0  0  0  0  0
  180.6880  182.5470  138.7180 O   0  0  0  0  0  1  0  0  0  0  0  0
  180.6270  184.9690  136.7660 C   0  0  0  0  0  2  0  0  0  0  0  0
  179.9820  183.5940  136.6990 C   0  0  0  0  0  3  0  0  0  0  0  0
  180.6640  184.1770  135.4800 C   0  0  0  0  0  2  0  0  0  0  0  0
  186.0600  177.3790  135.1650 N   0  0  0  0  0  2  0  0  0  0  0  0
  186.7450  176.3860  134.3460 C   0  0  0  0  0  2  0  0  0  0  0  0
  186.5600  172.7890  135.3980 N   0  0  0  0  0  0  0  0  0  0  0  0
  186.2160  175.0250  134.6380 C   0  0  0  0  0  0  0  0  0  0  0  0
  187.0540  174.0300  135.1430 C   0  0  0  0  0  3  0  0  0  0  0  0
  185.2560  172.4840  135.1770 C   0  0  0  0  0  0  0  0  0  0  0  0
  184.8700  174.7340  134.4120 C   0  0  0  0  0  3  0  0  0  0  0  0
  184.7560  171.1140  135.4600 C   0  0  0  0  0  1  0  0  0  0  0  0
  184.3850  173.4550  134.6810 C   0  0  0  0  0  3  0  0  0  0  0  0
  1 30  1  6  0  0  0
  1 17  1  0  0  0  0
  2  3  1  0  0  0  0
  3 23  1  1  0  0  0
  3 18  1  0  0  0  0
  5  2  1  6  0  0  0
  7 27  1  0  0  0  0
  7  4  2  0  0  0  0
  8 14  2  0  0  0  0
  9 39  1  6  0  0  0
  9 19  1  0  0  0  0
  9  5  1  0  0  0  0
 10 22  1  0  0  0  0
 11  4  1  0  0  0  0
 12 16  1  0  0  0  0
 12  8  1  0  0  0  0
 14 11  1  0  0  0  0
 15  6  2  0  0  0  0
 15 16  1  0  0  0  0
 17 15  1  0  0  0  0
 18 17  1  0  0  0  0
 19  5  1  0  0  0  0
 19 10  1  1  0  0  0
 20  7  1  0  0  0  0
 21  8  1  0  0  0  0
 21 20  2  0  0  0  0
 22 13  2  0  0  0  0
 22 24  1  0  0  0  0
 24 21  1  0  0  0  0
 25  3  1  0  0  0  0
 25  1  1  0  0  0  0
 26 27  2  0  0  0  0
 27 28  1  0  0  0  0
 28 29  1  0  0  0  0
 31 32  1  0  0  0  0
 31 30  1  0  0  0  0
 33 34  1  0  0  0  0
 33 32  1  0  0  0  0
 34 35  1  1  0  0  0
 37 36  1  0  0  0  0
 37 34  1  0  0  0  0
 38 37  1  0  0  0  0
 38 36  1  0  0  0  0
 40 42  1  0  0  0  0
 40 39  1  0  0  0  0
 42 43  1  0  0  0  0
 43 41  2  0  0  0  0
 44 41  1  0  0  0  0
 44 46  1  0  0  0  0
 45 42  2  0  0  0  0
 45 47  1  0  0  0  0
 47 44  2  0  0  0  0
M  END
>  <MODEL>
7

>  <REMARK>
 VINA RESULT:      -5.7      3.257      8.412
  Name = 
  11 active torsions:
  status: ('A' for Active; 'I' for Inactive)
    1  A    between atoms: C_2  and  N_24
    2  A    between atoms: C_5  and  N_21
    3  A    between atoms: C_5  and  C_40
    4  A    between atoms: C_7  and  C_42
    5  A    between atoms: C_10  and  C_36
    6  A    between atoms: C_12  and  N_21
    7  A    between atoms: C_12  and  C_43
    8  A    between atoms: C_16  and  N_31
    9  A    between atoms: N_24  and  C_43
   10  A    between atoms: O_25  and  C_36
   11  A    between atoms: N_31  and  C_42
                            x       y       z     vdW  Elec       q    Type
                         _______ _______ _______ _____ _____    ______ ____

>  <TORSDO>
F 11

$$$$
=
 OpenBabel10232411483D

 47 52  0  0  1  0  0  0  0  0999 V2000
  190.3770  177.6500  142.5980 C   0  0  2  0  0  3  0  0  0  0  0  0
  186.8450  178.3970  142.9810 C   0  0  0  0  0  2  0  0  0  0  0  0
  187.7940  177.2040  142.8880 C   0  0  2  0  0  0  0  0  0  0  0  0
  186.8010  176.1200  134.9240 C   0  0  0  0  0  3  0  0  0  0  0  0
  185.5630  178.2020  142.1670 C   0  0  1  0  0  3  0  0  0  0  0  0
  191.5760  177.6650  140.0120 O   0  0  0  0  0  0  0  0  0  0  0  0
  185.9390  175.8730  135.9080 C   0  0  1  0  0  3  0  0  0  0  0  0
  187.9440  177.8480  137.2230 C   0  0  0  0  0  0  0  0  0  0  0  0
  184.3430  178.9330  142.7280 C   0  0  2  0  0  3  0  0  0  0  0  0
  184.2900  179.3910  140.3060 C   0  0  0  0  0  2  0  0  0  0  0  0
  187.7350  177.1950  134.9030 N   0  0  0  0  0  0  0  0  0  0  0  0
  188.8950  178.2710  138.2950 C   0  0  0  0  0  2  0  0  0  0  0  0
  184.0920  177.2810  139.2340 O   0  0  0  0  0  0  0  0  0  0  0  0
  188.4200  177.6880  136.0250 N   0  0  0  0  0  0  0  0  0  0  0  0
  190.3510  177.3820  140.0840 C   0  0  0  0  0  0  0  0  0  0  0  0
  189.6150  177.0470  138.8330 C   0  0  0  0  0  2  0  0  0  0  0  0
  189.6730  177.3990  141.3490 N   0  0  0  0  0  0  0  0  0  0  0  0
  188.2720  177.0320  141.4550 C   0  0  0  0  0  2  0  0  0  0  0  0
  185.1310  179.5390  141.5780 C   0  0  2  0  0  3  0  0  0  0  0  0
  185.7030  176.7900  137.0290 C   0  0  0  0  0  3  0  0  0  0  0  0
  186.5210  177.6820  137.5940 C   0  0  0  0  0  0  0  0  0  0  0  0
  184.7780  178.3280  139.3710 C   0  0  0  0  0  0  0  0  0  0  0  0
  187.0980  175.9340  143.3460 C   0  0  0  0  0  1  0  0  0  0  0  0
  186.0270  178.4910  138.6780 N   0  0  0  0  0  2  0  0  0  0  0  0
  189.2130  177.5120  143.9890 S   0  0  0  0  0  0  0  0  0  0  0  0
  184.7470  174.2370  134.6590 O   0  0  0  0  0  0  0  0  0  0  0  0
  185.0480  174.7020  135.7940 C   0  0  0  0  0  0  0  0  0  0  0  0
  184.5540  174.0950  136.9530 O   0  0  0  0  0  0  0  0  0  0  0  0
  185.2350  173.0250  137.5920 C   0  0  0  0  0  1  0  0  0  0  0  0
  191.0630  178.9470  142.5960 N   0  0  0  0  0  2  0  0  0  0  0  0
  191.5480  179.2820  143.9330 C   0  0  0  0  0  2  0  0  0  0  0  0
  192.3340  178.1110  144.4990 C   0  0  0  0  0  2  0  0  0  0  0  0
  191.7360  177.6640  145.7520 N   0  0  0  0  0  2  0  0  0  0  0  0
  192.1360  176.2830  145.9590 C   0  0  2  0  0  3  0  0  0  0  0  0
  191.6370  175.4980  144.9200 O   0  0  0  0  0  1  0  0  0  0  0  0
  192.7320  175.4550  148.2210 C   0  0  0  0  0  2  0  0  0  0  0  0
  191.5820  175.7900  147.2840 C   0  0  0  0  0  3  0  0  0  0  0  0
  191.9810  176.7570  148.3770 C   0  0  0  0  0  2  0  0  0  0  0  0
  184.6300  179.6510  143.9640 N   0  0  0  0  0  2  0  0  0  0  0  0
  184.1850  178.7880  145.0520 C   0  0  0  0  0  2  0  0  0  0  0  0
  186.6250  179.3640  147.8450 N   0  0  0  0  0  0  0  0  0  0  0  0
  185.2910  178.5790  146.0280 C   0  0  0  0  0  0  0  0  0  0  0  0
  185.6080  179.5640  146.9640 C   0  0  0  0  0  3  0  0  0  0  0  0
  187.3490  178.2160  147.8440 C   0  0  0  0  0  0  0  0  0  0  0  0
  186.0180  177.3890  146.0170 C   0  0  0  0  0  3  0  0  0  0  0  0
  188.4580  178.0380  148.8170 C   0  0  0  0  0  1  0  0  0  0  0  0
  187.0560  177.2040  146.9290 C   0  0  0  0  0  3  0  0  0  0  0  0
  1 30  1  6  0  0  0
  1 25  1  0  0  0  0
  3  2  1  0  0  0  0
  3 23  1  1  0  0  0
  3 25  1  0  0  0  0
  4  7  1  0  0  0  0
  5  9  1  0  0  0  0
  5  2  1  1  0  0  0
  6 15  2  0  0  0  0
  7 27  1  6  0  0  0
  7 20  1  0  0  0  0
  8 21  1  0  0  0  0
  8 12  1  0  0  0  0
  9 39  1  1  0  0  0
 11  4  2  0  0  0  0
 11 14  1  0  0  0  0
 12 16  1  0  0  0  0
 13 22  2  0  0  0  0
 14  8  2  0  0  0  0
 15 17  1  0  0  0  0
 16 15  1  0  0  0  0
 17 18  1  0  0  0  0
 17  1  1  0  0  0  0
 18  3  1  0  0  0  0
 19 10  1  6  0  0  0
 19  5  1  0  0  0  0
 19  9  1  0  0  0  0
 20 21  2  0  0  0  0
 21 24  1  0  0  0  0
 22 10  1  0  0  0  0
 24 22  1  0  0  0  0
 26 27  2  0  0  0  0
 27 28  1  0  0  0  0
 28 29  1  0  0  0  0
 30 31  1  0  0  0  0
 31 32  1  0  0  0  0
 32 33  1  0  0  0  0
 33 34  1  0  0  0  0
 34 35  1  6  0  0  0
 34 37  1  0  0  0  0
 36 38  1  0  0  0  0
 37 36  1  0  0  0  0
 37 38  1  0  0  0  0
 39 40  1  0  0  0  0
 40 42  1  0  0  0  0
 42 43  1  0  0  0  0
 43 41  2  0  0  0  0
 44 41  1  0  0  0  0
 44 46  1  0  0  0  0
 45 42  2  0  0  0  0
 45 47  1  0  0  0  0
 47 44  2  0  0  0  0
M  END
>  <MODEL>
8

>  <REMARK>
 VINA RESULT:      -5.6      3.232      7.315
  Name = 
  11 active torsions:
  status: ('A' for Active; 'I' for Inactive)
    1  A    between atoms: C_2  and  N_24
    2  A    between atoms: C_5  and  N_21
    3  A    between atoms: C_5  and  C_40
    4  A    between atoms: C_7  and  C_42
    5  A    between atoms: C_10  and  C_36
    6  A    between atoms: C_12  and  N_21
    7  A    between atoms: C_12  and  C_43
    8  A    between atoms: C_16  and  N_31
    9  A    between atoms: N_24  and  C_43
   10  A    between atoms: O_25  and  C_36
   11  A    between atoms: N_31  and  C_42
                            x       y       z     vdW  Elec       q    Type
                         _______ _______ _______ _____ _____    ______ ____

>  <TORSDO>
F 11

$$$$
=
 OpenBabel10232411483D

 47 52  0  0  1  0  0  0  0  0999 V2000
  189.5580  177.9040  139.2910 C   0  0  2  0  0  3  0  0  0  0  0  0
  187.3660  176.1670  136.9760 C   0  0  0  0  0  2  0  0  0  0  0  0
  187.8800  177.5720  137.2820 C   0  0  2  0  0  0  0  0  0  0  0  0
  181.5410  179.6690  141.8660 C   0  0  0  0  0  3  0  0  0  0  0  0
  185.8680  176.1400  136.6570 C   0  0  1  0  0  3  0  0  0  0  0  0
  188.6150  178.6530  141.8750 O   0  0  0  0  0  0  0  0  0  0  0  0
  181.5910  179.5020  140.5470 C   0  0  0  0  0  0  0  0  0  0  0  0
  184.0980  177.9570  141.5340 C   0  0  0  0  0  0  0  0  0  0  0  0
  185.4480  175.0190  135.7040 C   0  0  2  0  0  3  0  0  0  0  0  0
  183.7630  174.9790  137.5030 C   0  0  0  0  0  2  0  0  0  0  0  0
  182.2810  178.9090  142.8160 N   0  0  0  0  0  2  0  0  0  0  0  0
  185.5570  177.6360  141.5310 C   0  0  0  0  0  2  0  0  0  0  0  0
  182.7020  177.1040  137.4690 O   0  0  0  0  0  0  0  0  0  0  0  0
  183.5910  178.4400  142.6280 N   0  0  0  0  0  0  0  0  0  0  0  0
  187.7680  178.5740  140.9450 C   0  0  0  0  0  0  0  0  0  0  0  0
  186.3450  178.9020  141.2400 C   0  0  0  0  0  2  0  0  0  0  0  0
  188.1660  178.1600  139.6300 N   0  0  0  0  0  0  0  0  0  0  0  0
  187.2100  178.1080  138.5380 C   0  0  0  0  0  2  0  0  0  0  0  0
  185.2600  174.8540  137.2030 C   0  0  2  0  0  3  0  0  0  0  0  0
  182.2770  178.3810  139.8960 C   0  0  0  0  0  3  0  0  0  0  0  0
  183.3270  177.6640  140.3060 C   0  0  0  0  0  0  0  0  0  0  0  0
  183.3730  176.2770  138.1400 C   0  0  0  0  0  0  0  0  0  0  0  0
  187.5980  178.5080  136.1190 C   0  0  0  0  0  1  0  0  0  0  0  0
  183.7950  176.5800  139.4810 N   0  0  0  0  0  2  0  0  0  0  0  0
  189.6830  177.4820  137.5250 S   0  0  0  0  0  0  0  0  0  0  0  0
  180.4650  181.5450  140.0810 O   0  0  0  0  0  0  0  0  0  0  0  0
  180.7790  180.3870  139.6880 C   0  0  0  0  0  0  0  0  0  0  0  0
  180.3770  179.9430  138.4240 O   0  0  0  0  0  0  0  0  0  0  0  0
  180.8620  180.5360  137.2280 C   0  0  0  0  0  1  0  0  0  0  0  0
  190.1530  176.8630  140.1370 N   0  0  0  0  0  2  0  0  0  0  0  0
  191.3880  177.3370  140.7540 C   0  0  0  0  0  2  0  0  0  0  0  0
  191.5480  176.7050  142.1270 C   0  0  0  0  0  2  0  0  0  0  0  0
  191.3750  177.7130  143.1670 N   0  0  0  0  0  2  0  0  0  0  0  0
  191.4320  177.0330  144.4490 C   0  0  2  0  0  3  0  0  0  0  0  0
  191.9100  175.7360  144.2620 O   0  0  0  0  0  1  0  0  0  0  0  0
  190.0890  177.5230  146.4770 C   0  0  0  0  0  2  0  0  0  0  0  0
  190.0420  176.9820  145.0570 C   0  0  0  0  0  3  0  0  0  0  0  0
  189.5800  178.3930  145.3520 C   0  0  0  0  0  2  0  0  0  0  0  0
  186.5710  174.2100  135.2490 N   0  0  0  0  0  2  0  0  0  0  0  0
  186.0170  173.2080  134.3470 C   0  0  0  0  0  2  0  0  0  0  0  0
  182.4330  172.2430  134.9020 N   0  0  0  0  0  0  0  0  0  0  0  0
  184.7930  172.6020  134.9400 C   0  0  0  0  0  0  0  0  0  0  0  0
  183.5450  172.7960  134.3460 C   0  0  0  0  0  3  0  0  0  0  0  0
  182.5020  171.4940  136.0320 C   0  0  0  0  0  0  0  0  0  0  0  0
  184.8850  171.8260  136.0960 C   0  0  0  0  0  3  0  0  0  0  0  0
  181.2640  170.9130  136.6130 C   0  0  0  0  0  1  0  0  0  0  0  0
  183.7330  171.2690  136.6490 C   0  0  0  0  0  3  0  0  0  0  0  0
  1 17  1  0  0  0  0
  1 30  1  1  0  0  0
  2  3  1  0  0  0  0
  3 23  1  6  0  0  0
  3 25  1  0  0  0  0
  3 18  1  0  0  0  0
  4 11  1  0  0  0  0
  5  2  1  1  0  0  0
  5 19  1  0  0  0  0
  7  4  2  0  0  0  0
  8 14  2  0  0  0  0
  9 39  1  1  0  0  0
  9  5  1  0  0  0  0
  9 19  1  0  0  0  0
 10 22  1  0  0  0  0
 12  8  1  0  0  0  0
 13 22  2  0  0  0  0
 14 11  1  0  0  0  0
 15 16  1  0  0  0  0
 15  6  2  0  0  0  0
 16 12  1  0  0  0  0
 17 15  1  0  0  0  0
 18 17  1  0  0  0  0
 19 10  1  6  0  0  0
 20 21  2  0  0  0  0
 20  7  1  0  0  0  0
 21  8  1  0  0  0  0
 22 24  1  0  0  0  0
 24 21  1  0  0  0  0
 25  1  1  0  0  0  0
 27 26  2  0  0  0  0
 27  7  1  0  0  0  0
 28 27  1  0  0  0  0
 29 28  1  0  0  0  0
 30 31  1  0  0  0  0
 31 32  1  0  0  0  0
 32 33  1  0  0  0  0
 33 34  1  0  0  0  0
 34 35  1  6  0  0  0
 34 37  1  0  0  0  0
 37 38  1  0  0  0  0
 37 36  1  0  0  0  0
 38 36  1  0  0  0  0
 40 42  1  0  0  0  0
 40 39  1  0  0  0  0
 41 44  1  0  0  0  0
 42 45  2  0  0  0  0
 43 41  2  0  0  0  0
 43 42  1  0  0  0  0
 44 46  1  0  0  0  0
 44 47  2  0  0  0  0
 45 47  1  0  0  0  0
M  END
>  <MODEL>
9

>  <REMARK>
 VINA RESULT:      -5.5      2.315      4.249
  Name = 
  11 active torsions:
  status: ('A' for Active; 'I' for Inactive)
    1  A    between atoms: C_2  and  N_24
    2  A    between atoms: C_5  and  N_21
    3  A    between atoms: C_5  and  C_40
    4  A    between atoms: C_7  and  C_42
    5  A    between atoms: C_10  and  C_36
    6  A    between atoms: C_12  and  N_21
    7  A    between atoms: C_12  and  C_43
    8  A    between atoms: C_16  and  N_31
    9  A    between atoms: N_24  and  C_43
   10  A    between atoms: O_25  and  C_36
   11  A    between atoms: N_31  and  C_42
                            x       y       z     vdW  Elec       q    Type
                         _______ _______ _______ _____ _____    ______ ____

>  <TORSDO>
F 11

$$$$
