=
 OpenBabel10232408513D

 25 27  0  0  0  0  0  0  0  0999 V2000
  187.7760  177.8810  147.7330 C   0  0  0  0  0  3  0  0  0  0  0  0
  188.2590  177.5850  144.2150 C   0  0  0  0  0  0  0  0  0  0  0  0
  186.5140  178.1210  145.6540 C   0  0  0  0  0  0  0  0  0  0  0  0
  190.1100  177.2240  147.3940 C   0  0  0  0  0  0  0  0  0  0  0  0
  185.1470  178.5170  146.1260 C   0  0  0  0  0  3  0  0  0  0  0  0
  184.2030  178.7330  144.9540 C   0  0  0  0  0  0  0  0  0  0  0  0
  186.8440  177.9630  144.2580 C   0  0  0  0  0  0  0  0  0  0  0  0
  187.6110  177.8610  146.3500 C   0  0  0  0  0  0  0  0  0  0  0  0
  189.0390  177.5590  148.2530 C   0  0  0  0  0  3  0  0  0  0  0  0
  182.8940  179.1080  145.2210 O   0  0  0  0  0  1  0  0  0  0  0  0
  188.6610  177.5380  145.4930 C   0  0  0  0  0  0  0  0  0  0  0  0
  189.9190  177.2100  146.0030 C   0  0  0  0  0  3  0  0  0  0  0  0
  185.9590  178.1770  143.2900 C   0  0  0  0  0  2  0  0  0  0  0  0
  184.5840  178.5760  143.6700 C   0  0  0  0  0  3  0  0  0  0  0  0
  189.5820  176.0060  142.8240 C   0  0  0  0  0  3  0  0  0  0  0  0
  190.2700  175.7390  141.8030 O   0  0  0  0  0  0  0  0  0  0  0  0
  189.0510  177.3190  143.0380 N   0  0  0  0  0  0  0  0  0  0  0  0
  189.2750  178.3540  142.0290 C   0  0  0  0  0  2  0  0  0  0  0  0
  188.3730  178.1330  140.8240 C   0  0  0  0  0  2  0  0  0  0  0  0
  189.1910  178.0730  139.5480 C   0  0  0  0  0  2  0  0  0  0  0  0
  187.0650  178.4080  138.2940 O   0  0  0  0  0  1  0  0  0  0  0  0
  188.4220  178.6720  138.4260 C   0  0  0  0  0  0  0  0  0  0  0  0
  188.9930  179.4430  137.6120 O   0  0  0  0  0  0  0  0  0  0  0  0
  191.4330  176.8850  147.9300 C   0  0  0  0  0  3  0  0  0  0  0  0
  192.2450  176.1130  147.2840 N   0  0  0  0  0  2  0  0  0  0  0  0
  1  9  1  0  0  0  0
  2  7  2  0  0  0  0
  2 11  1  0  0  0  0
  3  5  2  0  0  0  0
  3  8  1  0  0  0  0
  4 24  1  0  0  0  0
  4  9  2  0  0  0  0
  6 10  1  0  0  0  0
  6  5  1  0  0  0  0
  7  3  1  0  0  0  0
  8  1  2  0  0  0  0
 11 12  2  0  0  0  0
 11  8  1  0  0  0  0
 12  4  1  0  0  0  0
 13 14  1  0  0  0  0
 13  7  1  0  0  0  0
 14  6  2  0  0  0  0
 15 17  1  0  0  0  0
 16 15  2  0  0  0  0
 17  2  1  0  0  0  0
 18 17  1  0  0  0  0
 19 18  1  0  0  0  0
 20 19  1  0  0  0  0
 21 22  1  0  0  0  0
 22 20  1  0  0  0  0
 23 22  2  0  0  0  0
 25 24  2  0  0  0  0
M  END
>  <MODEL>
1

>  <REMARK>
 VINA RESULT:      -9.3      0.000      0.000
  Name = 
  6 active torsions:
  status: ('A' for Active; 'I' for Inactive)
    1  A    between atoms: C_2  and  N_15
    2  A    between atoms: C_4  and  C_17
    3  A    between atoms: C_8  and  C_25
    4  A    between atoms: C_14  and  N_15
    5  A    between atoms: C_14  and  C_19
    6  A    between atoms: C_19  and  C_25
                            x       y       z     vdW  Elec       q    Type
                         _______ _______ _______ _____ _____    ______ ____

>  <TORSDO>
F 6

$$$$
=
 OpenBabel10232408513D

 25 27  0  0  0  0  0  0  0  0999 V2000
  185.4740  178.4230  146.5930 C   0  0  0  0  0  3  0  0  0  0  0  0
  186.6850  177.9390  143.2760 C   0  0  0  0  0  0  0  0  0  0  0  0
  184.6610  178.4710  144.2890 C   0  0  0  0  0  0  0  0  0  0  0  0
  187.8510  177.8670  146.7840 C   0  0  0  0  0  0  0  0  0  0  0  0
  183.2120  178.8250  144.4430 C   0  0  0  0  0  3  0  0  0  0  0  0
  182.5240  178.9210  143.0910 C   0  0  0  0  0  0  0  0  0  0  0  0
  185.2790  178.2460  143.0030 C   0  0  0  0  0  0  0  0  0  0  0  0
  185.6000  178.3110  145.2100 C   0  0  0  0  0  0  0  0  0  0  0  0
  186.6140  178.1990  147.3800 C   0  0  0  0  0  3  0  0  0  0  0  0
  181.1750  179.2440  143.0580 O   0  0  0  0  0  1  0  0  0  0  0  0
  186.8150  177.9910  144.6090 C   0  0  0  0  0  0  0  0  0  0  0  0
  187.9530  177.7590  145.3870 C   0  0  0  0  0  3  0  0  0  0  0  0
  184.6060  178.3560  141.8630 C   0  0  0  0  0  2  0  0  0  0  0  0
  183.1680  178.7060  141.9260 C   0  0  0  0  0  3  0  0  0  0  0  0
  187.8680  178.4880  141.1610 C   0  0  0  0  0  3  0  0  0  0  0  0
  188.7610  178.2630  140.3010 O   0  0  0  0  0  0  0  0  0  0  0  0
  187.7130  177.6430  142.3070 N   0  0  0  0  0  0  0  0  0  0  0  0
  188.6370  176.5280  142.5030 C   0  0  0  0  0  2  0  0  0  0  0  0
  190.0530  177.0360  142.7300 C   0  0  0  0  0  2  0  0  0  0  0  0
  190.8210  176.0890  143.6330 C   0  0  0  0  0  2  0  0  0  0  0  0
  191.8710  176.1880  145.8900 O   0  0  0  0  0  1  0  0  0  0  0  0
  191.4500  176.8510  144.7450 C   0  0  0  0  0  0  0  0  0  0  0  0
  191.6300  178.0910  144.6360 O   0  0  0  0  0  0  0  0  0  0  0  0
  189.0470  177.6290  147.6000 C   0  0  0  0  0  3  0  0  0  0  0  0
  189.2680  178.2970  148.6840 N   0  0  0  0  0  2  0  0  0  0  0  0
  1  9  1  0  0  0  0
  2 11  1  0  0  0  0
  3  5  2  0  0  0  0
  3  8  1  0  0  0  0
  4  9  2  0  0  0  0
  4 24  1  0  0  0  0
  6  5  1  0  0  0  0
  7  2  2  0  0  0  0
  7  3  1  0  0  0  0
  8  1  2  0  0  0  0
 10  6  1  0  0  0  0
 11  8  1  0  0  0  0
 11 12  2  0  0  0  0
 12  4  1  0  0  0  0
 13 14  1  0  0  0  0
 13  7  1  0  0  0  0
 14  6  2  0  0  0  0
 15 17  1  0  0  0  0
 16 15  2  0  0  0  0
 17 18  1  0  0  0  0
 17  2  1  0  0  0  0
 18 19  1  0  0  0  0
 19 20  1  0  0  0  0
 20 22  1  0  0  0  0
 22 21  1  0  0  0  0
 23 22  2  0  0  0  0
 24 25  2  0  0  0  0
M  END
>  <MODEL>
2

>  <REMARK>
 VINA RESULT:      -9.0      1.970      3.770
  Name = 
  6 active torsions:
  status: ('A' for Active; 'I' for Inactive)
    1  A    between atoms: C_2  and  N_15
    2  A    between atoms: C_4  and  C_17
    3  A    between atoms: C_8  and  C_25
    4  A    between atoms: C_14  and  N_15
    5  A    between atoms: C_14  and  C_19
    6  A    between atoms: C_19  and  C_25
                            x       y       z     vdW  Elec       q    Type
                         _______ _______ _______ _____ _____    ______ ____

>  <TORSDO>
F 6

$$$$
=
 OpenBabel10232408513D

 25 27  0  0  1  0  0  0  0  0999 V2000
  184.8360  178.6930  144.8320 C   0  0  0  0  0  3  0  0  0  0  0  0
  188.0770  177.5740  143.8600 C   0  0  0  0  0  0  0  0  0  0  0  0
  186.9690  178.0610  145.8450 C   0  0  0  0  0  0  0  0  0  0  0  0
  184.8310  178.5550  142.3870 C   0  0  0  0  0  0  0  0  0  0  0  0
  186.7160  178.2300  147.3120 C   0  0  0  0  0  3  0  0  0  0  0  0
  187.9450  177.8620  148.1270 C   0  0  0  0  0  0  0  0  0  0  0  0
  188.2370  177.6170  145.3150 C   0  0  1  0  0  3  0  0  0  0  0  0
  186.1600  178.2590  144.8140 C   0  0  0  0  0  0  0  0  0  0  0  0
  184.1720  178.8400  143.6050 C   0  0  0  0  0  3  0  0  0  0  0  0
  187.8750  177.9610  149.5100 O   0  0  0  0  0  1  0  0  0  0  0  0
  186.8190  177.9690  143.6210 C   0  0  0  0  0  0  0  0  0  0  0  0
  186.1660  178.1190  142.3950 C   0  0  0  0  0  3  0  0  0  0  0  0
  189.2650  177.3080  146.0990 C   0  0  0  0  0  3  0  0  0  0  0  0
  189.0970  177.4440  147.5640 C   0  0  0  0  0  3  0  0  0  0  0  0
  189.7120  175.9090  143.0040 C   0  0  0  0  0  3  0  0  0  0  0  0
  190.5770  175.5350  142.1680 O   0  0  0  0  0  0  0  0  0  0  0  0
  189.0710  177.1850  142.8880 N   0  0  0  0  0  0  0  0  0  0  0  0
  189.3970  178.0470  141.7530 C   0  0  0  0  0  2  0  0  0  0  0  0
  188.9130  177.4270  140.4510 C   0  0  0  0  0  2  0  0  0  0  0  0
  189.6430  178.0340  139.2680 C   0  0  0  0  0  2  0  0  0  0  0  0
  187.3080  178.4920  138.5330 O   0  0  0  0  0  1  0  0  0  0  0  0
  188.6700  178.6960  138.3600 C   0  0  0  0  0  0  0  0  0  0  0  0
  189.0790  179.4670  137.4530 O   0  0  0  0  0  0  0  0  0  0  0  0
  184.1450  178.7070  141.1000 C   0  0  0  0  0  3  0  0  0  0  0  0
  184.5800  179.5210  140.1950 N   0  0  0  0  0  2  0  0  0  0  0  0
  2  7  1  0  0  0  0
  3  5  1  0  0  0  0
  4 12  2  0  0  0  0
  4  9  1  0  0  0  0
  5  6  2  0  0  0  0
  6 10  1  0  0  0  0
  7  3  1  0  0  0  0
  7 13  1  1  0  0  0
  8  1  1  0  0  0  0
  8  3  2  0  0  0  0
  9  1  2  0  0  0  0
 11  2  2  0  0  0  0
 11  8  1  0  0  0  0
 12 11  1  0  0  0  0
 13 14  2  0  0  0  0
 14  6  1  0  0  0  0
 16 15  2  0  0  0  0
 17 15  1  0  0  0  0
 17  2  1  0  0  0  0
 18 17  1  0  0  0  0
 19 18  1  0  0  0  0
 20 19  1  0  0  0  0
 22 21  1  0  0  0  0
 22 20  1  0  0  0  0
 23 22  2  0  0  0  0
 24  4  1  0  0  0  0
 25 24  2  0  0  0  0
M  END
>  <MODEL>
3

>  <REMARK>
 VINA RESULT:      -8.9      1.938      4.552
  Name = 
  6 active torsions:
  status: ('A' for Active; 'I' for Inactive)
    1  A    between atoms: C_2  and  N_15
    2  A    between atoms: C_4  and  C_17
    3  A    between atoms: C_8  and  C_25
    4  A    between atoms: C_14  and  N_15
    5  A    between atoms: C_14  and  C_19
    6  A    between atoms: C_19  and  C_25
                            x       y       z     vdW  Elec       q    Type
                         _______ _______ _______ _____ _____    ______ ____

>  <TORSDO>
F 6

$$$$
=
 OpenBabel10232408513D

 25 27  0  0  1  0  0  0  0  0999 V2000
  184.0460  178.7680  145.4410 C   0  0  0  0  0  3  0  0  0  0  0  0
  187.0400  177.8900  143.7180 C   0  0  0  0  0  0  0  0  0  0  0  0
  186.3890  178.2620  145.9190 C   0  0  0  0  0  0  0  0  0  0  0  0
  183.4890  178.6790  143.0580 C   0  0  0  0  0  0  0  0  0  0  0  0
  186.4700  178.3840  147.4110 C   0  0  0  0  0  3  0  0  0  0  0  0
  187.8730  178.0830  147.9110 C   0  0  0  0  0  0  0  0  0  0  0  0
  187.5270  177.9150  145.1000 C   0  0  1  0  0  3  0  0  0  0  0  0
  185.3550  178.4250  145.1070 C   0  0  0  0  0  0  0  0  0  0  0  0
  183.1110  178.8940  144.4030 C   0  0  0  0  0  3  0  0  0  0  0  0
  188.1160  178.1500  149.2760 O   0  0  0  0  0  1  0  0  0  0  0  0
  185.7390  178.2040  143.7860 C   0  0  0  0  0  0  0  0  0  0  0  0
  184.8140  178.3330  142.7470 C   0  0  0  0  0  3  0  0  0  0  0  0
  188.7240  177.6610  145.6180 C   0  0  0  0  0  3  0  0  0  0  0  0
  188.8890  177.7560  147.0870 C   0  0  0  0  0  3  0  0  0  0  0  0
  187.8190  178.5180  141.4430 C   0  0  0  0  0  3  0  0  0  0  0  0
  188.4860  178.2900  140.3990 O   0  0  0  0  0  0  0  0  0  0  0  0
  187.8070  177.5890  142.5330 N   0  0  0  0  0  0  0  0  0  0  0  0
  188.6190  176.3760  142.4470 C   0  0  0  0  0  2  0  0  0  0  0  0
  190.0980  176.7230  142.3790 C   0  0  0  0  0  2  0  0  0  0  0  0
  190.9000  175.8290  143.3070 C   0  0  0  0  0  2  0  0  0  0  0  0
  191.9230  176.0930  145.5630 O   0  0  0  0  0  1  0  0  0  0  0  0
  191.5810  176.6540  144.3400 C   0  0  0  0  0  0  0  0  0  0  0  0
  191.8760  177.8520  144.0950 O   0  0  0  0  0  0  0  0  0  0  0  0
  182.5170  178.8100  141.9670 C   0  0  0  0  0  3  0  0  0  0  0  0
  181.2920  179.1520  142.1920 N   0  0  0  0  0  2  0  0  0  0  0  0
  2 11  2  0  0  0  0
  2  7  1  0  0  0  0
  3  5  1  0  0  0  0
  4  9  1  0  0  0  0
  5  6  2  0  0  0  0
  6 10  1  0  0  0  0
  7 13  1  1  0  0  0
  7  3  1  0  0  0  0
  8  1  1  0  0  0  0
  8  3  2  0  0  0  0
  9  1  2  0  0  0  0
 11  8  1  0  0  0  0
 12  4  2  0  0  0  0
 12 11  1  0  0  0  0
 13 14  2  0  0  0  0
 14  6  1  0  0  0  0
 15 17  1  0  0  0  0
 16 15  2  0  0  0  0
 17  2  1  0  0  0  0
 18 17  1  0  0  0  0
 19 18  1  0  0  0  0
 19 20  1  0  0  0  0
 20 22  1  0  0  0  0
 22 21  1  0  0  0  0
 23 22  2  0  0  0  0
 24 25  2  0  0  0  0
 24  4  1  0  0  0  0
M  END
>  <MODEL>
4

>  <REMARK>
 VINA RESULT:      -8.9      2.650      5.754
  Name = 
  6 active torsions:
  status: ('A' for Active; 'I' for Inactive)
    1  A    between atoms: C_2  and  N_15
    2  A    between atoms: C_4  and  C_17
    3  A    between atoms: C_8  and  C_25
    4  A    between atoms: C_14  and  N_15
    5  A    between atoms: C_14  and  C_19
    6  A    between atoms: C_19  and  C_25
                            x       y       z     vdW  Elec       q    Type
                         _______ _______ _______ _____ _____    ______ ____

>  <TORSDO>
F 6

$$$$
=
 OpenBabel10232408513D

 25 27  0  0  0  0  0  0  0  0999 V2000
  186.7590  178.0320  147.0440 C   0  0  0  0  0  3  0  0  0  0  0  0
  188.2520  177.6420  143.8310 C   0  0  0  0  0  0  0  0  0  0  0  0
  188.9150  177.4510  146.0510 C   0  0  0  0  0  0  0  0  0  0  0  0
  185.0200  178.5280  145.3920 C   0  0  0  0  0  0  0  0  0  0  0  0
  189.7870  177.2010  147.2450 C   0  0  0  0  0  3  0  0  0  0  0  0
  191.1920  176.8020  146.8260 C   0  0  0  0  0  0  0  0  0  0  0  0
  189.3940  177.3300  144.6940 C   0  0  0  0  0  0  0  0  0  0  0  0
  187.6380  177.7970  145.9890 C   0  0  0  0  0  0  0  0  0  0  0  0
  185.4400  178.3990  146.7350 C   0  0  0  0  0  3  0  0  0  0  0  0
  192.1260  176.5320  147.8160 O   0  0  0  0  0  1  0  0  0  0  0  0
  187.2350  177.9140  144.6600 C   0  0  0  0  0  0  0  0  0  0  0  0
  185.9250  178.2860  144.3460 C   0  0  0  0  0  3  0  0  0  0  0  0
  190.6420  176.9700  144.4110 C   0  0  0  0  0  2  0  0  0  0  0  0
  191.5690  176.7010  145.5340 C   0  0  0  0  0  3  0  0  0  0  0  0
  187.3200  178.5150  141.6990 C   0  0  0  0  0  3  0  0  0  0  0  0
  187.2840  178.5550  140.4410 O   0  0  0  0  0  0  0  0  0  0  0  0
  188.2320  177.6520  142.3880 N   0  0  0  0  0  0  0  0  0  0  0  0
  189.1680  176.8370  141.6140 C   0  0  0  0  0  2  0  0  0  0  0  0
  190.2930  177.6960  141.0560 C   0  0  0  0  0  2  0  0  0  0  0  0
  191.1660  176.8850  140.1160 C   0  0  0  0  0  2  0  0  0  0  0  0
  189.7990  177.6030  138.1620 O   0  0  0  0  0  0  0  0  0  0  0  0
  190.4190  176.5810  138.8680 C   0  0  0  0  0  0  0  0  0  0  0  0
  190.3740  175.4010  138.4330 O   0  0  0  0  0  1  0  0  0  0  0  0
  183.6440  178.9130  145.0620 C   0  0  0  0  0  3  0  0  0  0  0  0
  183.2090  178.8850  143.8450 N   0  0  0  0  0  2  0  0  0  0  0  0
  2 11  1  0  0  0  0
  2  7  2  0  0  0  0
  3  5  2  0  0  0  0
  4  9  2  0  0  0  0
  6  5  1  0  0  0  0
  6 10  1  0  0  0  0
  7  3  1  0  0  0  0
  8  3  1  0  0  0  0
  8  1  2  0  0  0  0
  9  1  1  0  0  0  0
 11  8  1  0  0  0  0
 12 11  2  0  0  0  0
 12  4  1  0  0  0  0
 13  7  1  0  0  0  0
 13 14  1  0  0  0  0
 14  6  2  0  0  0  0
 15 17  1  0  0  0  0
 16 15  2  0  0  0  0
 17  2  1  0  0  0  0
 18 17  1  0  0  0  0
 19 18  1  0  0  0  0
 20 19  1  0  0  0  0
 21 22  2  0  0  0  0
 22 20  1  0  0  0  0
 23 22  1  0  0  0  0
 24  4  1  0  0  0  0
 25 24  2  0  0  0  0
M  END
>  <MODEL>
5

>  <REMARK>
 VINA RESULT:      -8.9      2.349      4.897
  Name = 
  6 active torsions:
  status: ('A' for Active; 'I' for Inactive)
    1  A    between atoms: C_2  and  N_15
    2  A    between atoms: C_4  and  C_17
    3  A    between atoms: C_8  and  C_25
    4  A    between atoms: C_14  and  N_15
    5  A    between atoms: C_14  and  C_19
    6  A    between atoms: C_19  and  C_25
                            x       y       z     vdW  Elec       q    Type
                         _______ _______ _______ _____ _____    ______ ____

>  <TORSDO>
F 6

$$$$
=
 OpenBabel10232408513D

 25 27  0  0  0  0  0  0  0  0999 V2000
  186.6670  177.9930  146.0760 C   0  0  0  0  0  3  0  0  0  0  0  0
  188.7060  177.5310  143.1900 C   0  0  0  0  0  0  0  0  0  0  0  0
  188.9780  177.4500  145.4970 C   0  0  0  0  0  0  0  0  0  0  0  0
  185.2280  178.3620  144.1290 C   0  0  0  0  0  0  0  0  0  0  0  0
  189.6360  177.2780  146.8330 C   0  0  0  0  0  3  0  0  0  0  0  0
  191.1030  176.9130  146.6800 C   0  0  0  0  0  0  0  0  0  0  0  0
  189.6890  177.2940  144.2500 C   0  0  0  0  0  0  0  0  0  0  0  0
  187.7220  177.7480  145.2000 C   0  0  0  0  0  0  0  0  0  0  0  0
  185.4120  178.3010  145.5290 C   0  0  0  0  0  3  0  0  0  0  0  0
  191.8580  176.7150  147.8280 O   0  0  0  0  0  1  0  0  0  0  0  0
  187.5520  177.7990  143.8180 C   0  0  0  0  0  0  0  0  0  0  0  0
  186.3070  178.1120  143.2670 C   0  0  0  0  0  3  0  0  0  0  0  0
  190.9760  176.9670  144.2020 C   0  0  0  0  0  2  0  0  0  0  0  0
  191.7010  176.7750  145.4790 C   0  0  0  0  0  3  0  0  0  0  0  0
  188.2620  178.4130  140.9090 C   0  0  0  0  0  3  0  0  0  0  0  0
  188.4480  178.4050  139.6630 O   0  0  0  0  0  0  0  0  0  0  0  0
  188.9360  177.4840  141.7660 N   0  0  0  0  0  0  0  0  0  0  0  0
  189.8910  176.5410  141.1860 C   0  0  0  0  0  2  0  0  0  0  0  0
  191.0800  177.2790  140.5890 C   0  0  0  0  0  2  0  0  0  0  0  0
  191.4330  176.7080  139.2280 C   0  0  0  0  0  2  0  0  0  0  0  0
  193.7360  177.2880  139.9810 O   0  0  0  0  0  1  0  0  0  0  0  0
  192.8800  176.9130  138.9540 C   0  0  0  0  0  0  0  0  0  0  0  0
  193.3360  176.7170  137.7980 O   0  0  0  0  0  0  0  0  0  0  0  0
  183.9200  178.6850  143.5500 C   0  0  0  0  0  3  0  0  0  0  0  0
  182.9590  179.1570  144.2740 N   0  0  0  0  0  2  0  0  0  0  0  0
  2 11  1  0  0  0  0
  2  7  2  0  0  0  0
  3  5  2  0  0  0  0
  4  9  2  0  0  0  0
  6  5  1  0  0  0  0
  6 10  1  0  0  0  0
  7  3  1  0  0  0  0
  8  3  1  0  0  0  0
  8  1  2  0  0  0  0
  9  1  1  0  0  0  0
 11  8  1  0  0  0  0
 12 11  2  0  0  0  0
 12  4  1  0  0  0  0
 13  7  1  0  0  0  0
 13 14  1  0  0  0  0
 14  6  2  0  0  0  0
 15 17  1  0  0  0  0
 16 15  2  0  0  0  0
 17  2  1  0  0  0  0
 18 17  1  0  0  0  0
 19 18  1  0  0  0  0
 20 19  1  0  0  0  0
 22 20  1  0  0  0  0
 22 21  1  0  0  0  0
 23 22  2  0  0  0  0
 24  4  1  0  0  0  0
 24 25  2  0  0  0  0
M  END
>  <MODEL>
6

>  <REMARK>
 VINA RESULT:      -8.6      2.679      5.241
  Name = 
  6 active torsions:
  status: ('A' for Active; 'I' for Inactive)
    1  A    between atoms: C_2  and  N_15
    2  A    between atoms: C_4  and  C_17
    3  A    between atoms: C_8  and  C_25
    4  A    between atoms: C_14  and  N_15
    5  A    between atoms: C_14  and  C_19
    6  A    between atoms: C_19  and  C_25
                            x       y       z     vdW  Elec       q    Type
                         _______ _______ _______ _____ _____    ______ ____

>  <TORSDO>
F 6

$$$$
=
 OpenBabel10232408513D

 25 27  0  0  0  0  0  0  0  0999 V2000
  186.7120  177.8780  147.0070 C   0  0  0  0  0  3  0  0  0  0  0  0
  188.3310  177.7530  143.8350 C   0  0  0  0  0  0  0  0  0  0  0  0
  188.9190  177.4280  146.0600 C   0  0  0  0  0  0  0  0  0  0  0  0
  185.0190  178.4380  145.3280 C   0  0  0  0  0  0  0  0  0  0  0  0
  189.7540  177.1210  147.2670 C   0  0  0  0  0  3  0  0  0  0  0  0
  191.1850  176.7920  146.8750 C   0  0  0  0  0  0  0  0  0  0  0  0
  189.4500  177.4150  144.7180 C   0  0  0  0  0  0  0  0  0  0  0  0
  187.6350  177.7420  145.9730 C   0  0  0  0  0  0  0  0  0  0  0  0
  185.3940  178.2290  146.6750 C   0  0  0  0  0  3  0  0  0  0  0  0
  192.0910  176.4800  147.8790 O   0  0  0  0  0  1  0  0  0  0  0  0
  187.2760  177.9380  144.6410 C   0  0  0  0  0  0  0  0  0  0  0  0
  185.9680  178.2940  144.3030 C   0  0  0  0  0  3  0  0  0  0  0  0
  190.7170  177.1100  144.4580 C   0  0  0  0  0  2  0  0  0  0  0  0
  191.6110  176.7900  145.5950 C   0  0  0  0  0  3  0  0  0  0  0  0
  189.0260  176.8540  141.6250 C   0  0  0  0  0  3  0  0  0  0  0  0
  189.0640  176.9150  140.3670 O   0  0  0  0  0  0  0  0  0  0  0  0
  188.3620  177.8620  142.3960 N   0  0  0  0  0  0  0  0  0  0  0  0
  187.6790  178.9560  141.7060 C   0  0  0  0  0  2  0  0  0  0  0  0
  186.6560  178.4130  140.7200 C   0  0  0  0  0  2  0  0  0  0  0  0
  185.3110  179.0830  140.9240 C   0  0  0  0  0  2  0  0  0  0  0  0
  184.3530  178.0300  138.8800 O   0  0  0  0  0  0  0  0  0  0  0  0
  184.5900  179.1760  139.6270 C   0  0  0  0  0  0  0  0  0  0  0  0
  184.1670  180.2880  139.2200 O   0  0  0  0  0  1  0  0  0  0  0  0
  183.6440  178.8060  144.9730 C   0  0  0  0  0  3  0  0  0  0  0  0
  183.2520  178.8390  143.7410 N   0  0  0  0  0  2  0  0  0  0  0  0
  2 11  1  0  0  0  0
  2  7  2  0  0  0  0
  3  5  2  0  0  0  0
  4  9  2  0  0  0  0
  6  5  1  0  0  0  0
  6 10  1  0  0  0  0
  7  3  1  0  0  0  0
  8  3  1  0  0  0  0
  8  1  2  0  0  0  0
  9  1  1  0  0  0  0
 11  8  1  0  0  0  0
 12 11  2  0  0  0  0
 12  4  1  0  0  0  0
 13  7  1  0  0  0  0
 13 14  1  0  0  0  0
 14  6  2  0  0  0  0
 15 17  1  0  0  0  0
 16 15  2  0  0  0  0
 17  2  1  0  0  0  0
 18 17  1  0  0  0  0
 19 20  1  0  0  0  0
 19 18  1  0  0  0  0
 21 22  2  0  0  0  0
 22 20  1  0  0  0  0
 23 22  1  0  0  0  0
 24  4  1  0  0  0  0
 25 24  2  0  0  0  0
M  END
>  <MODEL>
7

>  <REMARK>
 VINA RESULT:      -8.6      2.433      4.916
  Name = 
  6 active torsions:
  status: ('A' for Active; 'I' for Inactive)
    1  A    between atoms: C_2  and  N_15
    2  A    between atoms: C_4  and  C_17
    3  A    between atoms: C_8  and  C_25
    4  A    between atoms: C_14  and  N_15
    5  A    between atoms: C_14  and  C_19
    6  A    between atoms: C_19  and  C_25
                            x       y       z     vdW  Elec       q    Type
                         _______ _______ _______ _____ _____    ______ ____

>  <TORSDO>
F 6

$$$$
=
 OpenBabel10232408513D

 25 27  0  0  0  0  0  0  0  0999 V2000
  190.6450  177.2670  142.4790 C   0  0  0  0  0  3  0  0  0  0  0  0
  187.8470  177.7690  144.6270 C   0  0  0  0  0  0  0  0  0  0  0  0
  190.0830  177.1740  144.8550 C   0  0  0  0  0  0  0  0  0  0  0  0
  188.7550  177.8770  141.0450 C   0  0  0  0  0  0  0  0  0  0  0  0
  191.3800  176.7860  145.5000 C   0  0  0  0  0  2  0  0  0  0  0  0
  191.2350  176.6920  147.0100 C   0  0  0  0  0  0  0  0  0  0  0  0
  188.8730  177.4060  145.6080 C   0  0  0  0  0  0  0  0  0  0  0  0
  189.7960  177.3760  143.5770 C   0  0  0  0  0  0  0  0  0  0  0  0
  190.1140  177.5210  141.2050 C   0  0  0  0  0  3  0  0  0  0  0  0
  192.3500  176.3440  147.7600 O   0  0  0  0  0  1  0  0  0  0  0  0
  188.4570  177.7320  143.4350 C   0  0  0  0  0  0  0  0  0  0  0  0
  187.9190  177.9800  142.1690 C   0  0  0  0  0  3  0  0  0  0  0  0
  188.8320  177.3080  146.9330 C   0  0  0  0  0  3  0  0  0  0  0  0
  190.0720  176.9320  147.6500 C   0  0  0  0  0  3  0  0  0  0  0  0
  186.1150  178.7010  146.1460 C   0  0  0  0  0  3  0  0  0  0  0  0
  184.9220  179.0090  146.4080 O   0  0  0  0  0  0  0  0  0  0  0  0
  186.4680  178.0980  144.8960 N   0  0  0  0  0  0  0  0  0  0  0  0
  185.4290  177.8770  143.8910 C   0  0  0  0  0  2  0  0  0  0  0  0
  184.8630  179.2020  143.4030 C   0  0  0  0  0  2  0  0  0  0  0  0
  183.6690  178.9710  142.4960 C   0  0  0  0  0  2  0  0  0  0  0  0
  185.0360  179.5630  140.5000 O   0  0  0  0  0  1  0  0  0  0  0  0
  184.1320  178.7030  141.1090 C   0  0  0  0  0  0  0  0  0  0  0  0
  183.7290  177.6800  140.4970 O   0  0  0  0  0  0  0  0  0  0  0  0
  188.1920  178.1430  139.7180 C   0  0  0  0  0  3  0  0  0  0  0  0
  188.8100  178.8860  138.8590 N   0  0  0  0  0  2  0  0  0  0  0  0
  1  8  1  0  0  0  0
  2 17  1  0  0  0  0
  2  7  1  0  0  0  0
  3  5  1  0  0  0  0
  3  7  1  0  0  0  0
  4  9  1  0  0  0  0
  4 12  2  0  0  0  0
  5  6  1  0  0  0  0
  6 14  2  0  0  0  0
  6 10  1  0  0  0  0
  7 13  2  0  0  0  0
  8  3  2  0  0  0  0
  9  1  2  0  0  0  0
 11  8  1  0  0  0  0
 11  2  2  0  0  0  0
 12 11  1  0  0  0  0
 13 14  1  0  0  0  0
 15 16  2  0  0  0  0
 17 15  1  0  0  0  0
 18 17  1  0  0  0  0
 19 18  1  0  0  0  0
 20 19  1  0  0  0  0
 21 22  1  0  0  0  0
 22 20  1  0  0  0  0
 23 22  2  0  0  0  0
 24  4  1  0  0  0  0
 25 24  2  0  0  0  0
M  END
>  <MODEL>
8

>  <REMARK>
 VINA RESULT:      -8.5      2.507      5.955
  Name = 
  6 active torsions:
  status: ('A' for Active; 'I' for Inactive)
    1  A    between atoms: C_2  and  N_15
    2  A    between atoms: C_4  and  C_17
    3  A    between atoms: C_8  and  C_25
    4  A    between atoms: C_14  and  N_15
    5  A    between atoms: C_14  and  C_19
    6  A    between atoms: C_19  and  C_25
                            x       y       z     vdW  Elec       q    Type
                         _______ _______ _______ _____ _____    ______ ____

>  <TORSDO>
F 6

$$$$
=
 OpenBabel10232408513D

 25 27  0  0  1  0  0  0  0  0999 V2000
  190.2720  176.8160  143.9270 C   0  0  0  0  0  3  0  0  0  0  0  0
  186.9660  178.0180  143.3580 C   0  0  0  0  0  0  0  0  0  0  0  0
  188.3060  177.5270  145.1930 C   0  0  0  0  0  0  0  0  0  0  0  0
  189.9650  176.9160  141.4990 C   0  0  0  0  0  0  0  0  0  0  0  0
  188.7420  177.3730  146.6190 C   0  0  0  0  0  3  0  0  0  0  0  0
  187.6400  177.7900  147.5780 C   0  0  0  0  0  0  0  0  0  0  0  0
  186.9940  178.0010  144.8230 C   0  0  1  0  0  3  0  0  0  0  0  0
  188.9700  177.2890  144.0710 C   0  0  0  0  0  0  0  0  0  0  0  0
  190.7670  176.6310  142.6270 C   0  0  0  0  0  3  0  0  0  0  0  0
  187.8850  177.7100  148.9420 O   0  0  0  0  0  1  0  0  0  0  0  0
  188.1710  177.5810  142.9670 C   0  0  0  0  0  0  0  0  0  0  0  0
  188.6560  177.3930  141.6700 C   0  0  0  0  0  3  0  0  0  0  0  0
  186.0850  178.3530  145.7260 C   0  0  0  0  0  3  0  0  0  0  0  0
  186.4360  178.2340  147.1600 C   0  0  0  0  0  3  0  0  0  0  0  0
  186.1260  179.1660  141.3200 C   0  0  0  0  0  3  0  0  0  0  0  0
  185.1890  179.5250  140.5580 O   0  0  0  0  0  0  0  0  0  0  0  0
  185.8650  178.4220  142.5160 N   0  0  0  0  0  0  0  0  0  0  0  0
  184.4910  178.0370  142.8320 C   0  0  0  0  0  2  0  0  0  0  0  0
  183.7180  179.2190  143.3970 C   0  0  0  0  0  2  0  0  0  0  0  0
  182.6290  178.7430  144.3410 C   0  0  0  0  0  2  0  0  0  0  0  0
  181.1550  179.7670  142.6130 O   0  0  0  0  0  0  0  0  0  0  0  0
  181.2970  178.9220  143.7060 C   0  0  0  0  0  0  0  0  0  0  0  0
  180.3020  178.2860  144.1400 O   0  0  0  0  0  1  0  0  0  0  0  0
  190.4750  176.7240  140.1370 C   0  0  0  0  0  3  0  0  0  0  0  0
  189.6780  176.6530  139.1220 N   0  0  0  0  0  2  0  0  0  0  0  0
  1  8  1  0  0  0  0
  2  7  1  0  0  0  0
  3  5  1  0  0  0  0
  4 12  2  0  0  0  0
  4  9  1  0  0  0  0
  5  6  2  0  0  0  0
  6 10  1  0  0  0  0
  7  3  1  0  0  0  0
  7 13  1  1  0  0  0
  8  3  2  0  0  0  0
  9  1  2  0  0  0  0
 11  2  2  0  0  0  0
 11  8  1  0  0  0  0
 12 11  1  0  0  0  0
 13 14  2  0  0  0  0
 14  6  1  0  0  0  0
 15 17  1  0  0  0  0
 16 15  2  0  0  0  0
 17 18  1  0  0  0  0
 17  2  1  0  0  0  0
 18 19  1  0  0  0  0
 19 20  1  0  0  0  0
 21 22  2  0  0  0  0
 22 23  1  0  0  0  0
 22 20  1  0  0  0  0
 24  4  1  0  0  0  0
 25 24  2  0  0  0  0
M  END
>  <MODEL>
9

>  <REMARK>
 VINA RESULT:      -8.3      2.884      5.712
  Name = 
  6 active torsions:
  status: ('A' for Active; 'I' for Inactive)
    1  A    between atoms: C_2  and  N_15
    2  A    between atoms: C_4  and  C_17
    3  A    between atoms: C_8  and  C_25
    4  A    between atoms: C_14  and  N_15
    5  A    between atoms: C_14  and  C_19
    6  A    between atoms: C_19  and  C_25
                            x       y       z     vdW  Elec       q    Type
                         _______ _______ _______ _____ _____    ______ ____

>  <TORSDO>
F 6

$$$$
