=
 OpenBabel10232411463D

 27 30  0  0  1  0  0  0  0  0999 V2000
  185.7410  178.6550  144.7210 C   0  0  1  0  0  3  0  0  0  0  0  0
  185.6070  179.9730  142.5770 C   0  0  0  0  0  2  0  0  0  0  0  0
  186.3160  177.1640  137.2810 C   0  0  0  0  0  3  0  0  0  0  0  0
  186.6590  177.9650  138.3800 C   0  0  0  0  0  0  0  0  0  0  0  0
  189.3030  177.1590  141.3680 C   0  0  0  0  0  0  0  0  0  0  0  0
  184.2060  177.5610  138.5640 S   0  0  0  0  0  0  0  0  0  0  0  0
  187.0950  178.0520  141.9360 C   0  0  0  0  0  0  0  0  0  0  0  0
  189.2580  176.3360  142.4900 C   0  0  0  0  0  3  0  0  0  0  0  0
  184.9600  176.8320  137.2390 C   0  0  0  0  0  3  0  0  0  0  0  0
  185.8080  178.8030  141.6380 C   0  0  2  0  0  3  0  0  0  0  0  0
  185.6280  179.2100  140.2560 N   0  0  0  0  0  2  0  0  0  0  0  0
  186.0900  177.3780  144.1050 N   0  0  0  0  0  2  0  0  0  0  0  0
  188.2370  178.0350  141.0810 C   0  0  0  0  0  0  0  0  0  0  0  0
  187.1160  177.2690  143.1130 C   0  0  0  0  0  0  0  0  0  0  0  0
  188.8180  178.6420  137.6890 O   0  0  0  0  0  0  0  0  0  0  0  0
  184.8530  179.4930  143.8060 C   0  0  0  0  0  2  0  0  0  0  0  0
  185.5890  178.2550  139.1980 C   0  0  0  0  0  0  0  0  0  0  0  0
  188.3650  178.9150  139.9550 N   0  0  0  0  0  2  0  0  0  0  0  0
  188.1770  176.3980  143.3620 C   0  0  0  0  0  3  0  0  0  0  0  0
  188.0000  178.5010  138.6360 C   0  0  0  0  0  0  0  0  0  0  0  0
  190.5050  177.0900  140.4890 C   0  0  0  0  0  1  0  0  0  0  0  0
  185.0220  178.3910  146.0310 C   0  0  0  0  0  2  0  0  0  0  0  0
  185.9780  178.5420  147.1990 C   0  0  0  0  0  2  0  0  0  0  0  0
  189.5520  177.0880  147.4530 C   0  0  0  0  0  1  0  0  0  0  0  0
  188.1120  178.1300  149.0310 O   0  0  0  0  0  0  0  0  0  0  0  0
  188.2750  177.7380  147.8450 C   0  0  0  0  0  0  0  0  0  0  0  0
  187.2450  177.9130  146.8720 N   0  0  0  0  0  2  0  0  0  0  0  0
  1 22  1  1  0  0  0
  2 16  1  0  0  0  0
  3  4  1  0  0  0  0
  4 20  1  0  0  0  0
  4 17  2  0  0  0  0
  5  8  1  0  0  0  0
  6 17  1  0  0  0  0
  7 14  2  0  0  0  0
  8 19  2  0  0  0  0
  9  3  2  0  0  0  0
  9  6  1  0  0  0  0
 10  7  1  0  0  0  0
 10  2  1  1  0  0  0
 11 10  1  0  0  0  0
 12  1  1  0  0  0  0
 13  5  2  0  0  0  0
 13  7  1  0  0  0  0
 14 19  1  0  0  0  0
 14 12  1  0  0  0  0
 15 20  2  0  0  0  0
 16  1  1  0  0  0  0
 17 11  1  0  0  0  0
 18 13  1  0  0  0  0
 20 18  1  0  0  0  0
 21  5  1  0  0  0  0
 22 23  1  0  0  0  0
 24 26  1  0  0  0  0
 26 25  2  0  0  0  0
 27 23  1  0  0  0  0
 27 26  1  0  0  0  0
M  END
>  <MODEL>
1

>  <REMARK>
 VINA RESULT:      -8.2      0.000      0.000
  Name = 
  3 active torsions:
  status: ('A' for Active; 'I' for Inactive)
    1  A    between atoms: C_1  and  C_22
    2  A    between atoms: C_2  and  N_8
    3  A    between atoms: C_2  and  C_22
                            x       y       z     vdW  Elec       q    Type
                         _______ _______ _______ _____ _____    ______ ____

>  <TORSDO>
F 3

$$$$
=
 OpenBabel10232411463D

 27 30  0  0  1  0  0  0  0  0999 V2000
  185.9330  178.4100  145.6990 C   0  0  1  0  0  3  0  0  0  0  0  0
  184.4570  179.5650  144.0130 C   0  0  0  0  0  2  0  0  0  0  0  0
  183.4870  177.0100  138.6310 C   0  0  0  0  0  3  0  0  0  0  0  0
  184.0350  177.9040  139.5610 C   0  0  0  0  0  0  0  0  0  0  0  0
  187.8510  178.0600  140.9700 C   0  0  0  0  0  0  0  0  0  0  0  0
  182.1770  176.7370  140.7440 S   0  0  0  0  0  0  0  0  0  0  0  0
  185.9880  178.2100  142.5510 C   0  0  0  0  0  0  0  0  0  0  0  0
  188.5660  177.2930  141.8860 C   0  0  0  0  0  3  0  0  0  0  0  0
  182.4260  176.2580  139.1420 C   0  0  0  0  0  3  0  0  0  0  0  0
  184.5490  178.4990  142.9410 C   0  0  2  0  0  3  0  0  0  0  0  0
  183.6490  178.7940  141.8390 N   0  0  0  0  0  2  0  0  0  0  0  0
  186.3250  177.2990  144.8370 N   0  0  0  0  0  2  0  0  0  0  0  0
  186.5650  178.5400  141.2890 C   0  0  0  0  0  0  0  0  0  0  0  0
  186.7710  177.5020  143.4920 C   0  0  0  0  0  0  0  0  0  0  0  0
  185.3370  179.2230  138.0900 O   0  0  0  0  0  0  0  0  0  0  0  0
  184.5230  178.8960  145.3760 C   0  0  0  0  0  2  0  0  0  0  0  0
  183.4200  177.8540  140.7930 C   0  0  0  0  0  0  0  0  0  0  0  0
  185.9010  179.3880  140.3410 N   0  0  0  0  0  2  0  0  0  0  0  0
  188.0340  177.0250  143.1410 C   0  0  0  0  0  3  0  0  0  0  0  0
  185.1200  178.8480  139.2720 C   0  0  0  0  0  0  0  0  0  0  0  0
  188.4840  178.3620  139.6540 C   0  0  0  0  0  1  0  0  0  0  0  0
  186.0010  177.9590  147.1470 C   0  0  0  0  0  2  0  0  0  0  0  0
  187.2190  178.5510  147.8290 C   0  0  0  0  0  2  0  0  0  0  0  0
  190.3590  176.3910  147.1710 C   0  0  0  0  0  1  0  0  0  0  0  0
  189.4180  178.2650  146.0510 O   0  0  0  0  0  0  0  0  0  0  0  0
  189.3310  177.4510  147.0090 C   0  0  0  0  0  0  0  0  0  0  0  0
  188.2520  177.5360  147.9400 N   0  0  0  0  0  2  0  0  0  0  0  0
  1 22  1  1  0  0  0
  2 16  1  0  0  0  0
  3  9  2  0  0  0  0
  3  4  1  0  0  0  0
  4 17  2  0  0  0  0
  5 13  2  0  0  0  0
  5  8  1  0  0  0  0
  6 17  1  0  0  0  0
  7 10  1  0  0  0  0
  7 14  2  0  0  0  0
  8 19  2  0  0  0  0
  9  6  1  0  0  0  0
 10  2  1  1  0  0  0
 11 10  1  0  0  0  0
 12  1  1  0  0  0  0
 13  7  1  0  0  0  0
 14 12  1  0  0  0  0
 15 20  2  0  0  0  0
 16  1  1  0  0  0  0
 17 11  1  0  0  0  0
 18 13  1  0  0  0  0
 19 14  1  0  0  0  0
 20  4  1  0  0  0  0
 20 18  1  0  0  0  0
 21  5  1  0  0  0  0
 22 23  1  0  0  0  0
 23 27  1  0  0  0  0
 25 26  2  0  0  0  0
 26 24  1  0  0  0  0
 26 27  1  0  0  0  0
M  END
>  <MODEL>
2

>  <REMARK>
 VINA RESULT:      -8.1      1.722      2.182
  Name = 
  3 active torsions:
  status: ('A' for Active; 'I' for Inactive)
    1  A    between atoms: C_1  and  C_22
    2  A    between atoms: C_2  and  N_8
    3  A    between atoms: C_2  and  C_22
                            x       y       z     vdW  Elec       q    Type
                         _______ _______ _______ _____ _____    ______ ____

>  <TORSDO>
F 3

$$$$
=
 OpenBabel10232411463D

 27 30  0  0  1  0  0  0  0  0999 V2000
  186.4460  178.1380  144.0940 C   0  0  1  0  0  3  0  0  0  0  0  0
  186.0710  179.4850  141.9960 C   0  0  0  0  0  2  0  0  0  0  0  0
  187.0760  176.9700  136.6010 C   0  0  0  0  0  3  0  0  0  0  0  0
  187.3200  177.7800  137.7190 C   0  0  0  0  0  0  0  0  0  0  0  0
  190.1170  177.2890  140.6350 C   0  0  0  0  0  0  0  0  0  0  0  0
  184.9590  177.0100  137.9310 S   0  0  0  0  0  0  0  0  0  0  0  0
  187.8150  177.8260  141.2680 C   0  0  0  0  0  0  0  0  0  0  0  0
  190.2190  176.4360  141.7300 C   0  0  0  0  0  3  0  0  0  0  0  0
  185.7840  176.4410  136.5710 C   0  0  0  0  0  3  0  0  0  0  0  0
  186.4240  178.3850  141.0170 C   0  0  2  0  0  3  0  0  0  0  0  0
  186.1560  178.8010  139.6510 N   0  0  0  0  0  2  0  0  0  0  0  0
  186.9660  176.9460  143.4310 N   0  0  0  0  0  2  0  0  0  0  0  0
  188.9270  178.0040  140.3940 C   0  0  0  0  0  0  0  0  0  0  0  0
  187.9760  177.0210  142.4190 C   0  0  0  0  0  0  0  0  0  0  0  0
  189.3400  178.7910  137.0140 O   0  0  0  0  0  0  0  0  0  0  0  0
  185.4240  178.8610  143.2210 C   0  0  0  0  0  2  0  0  0  0  0  0
  186.2360  177.8840  138.5640 C   0  0  0  0  0  0  0  0  0  0  0  0
  188.8990  178.9270  139.2950 N   0  0  0  0  0  2  0  0  0  0  0  0
  189.1600  176.3100  142.6220 C   0  0  0  0  0  3  0  0  0  0  0  0
  188.5720  178.5020  137.9690 C   0  0  0  0  0  0  0  0  0  0  0  0
  191.2980  177.4260  139.7340 C   0  0  0  0  0  1  0  0  0  0  0  0
  185.8020  177.7310  145.4060 C   0  0  0  0  0  2  0  0  0  0  0  0
  186.6390  178.2090  146.5770 C   0  0  0  0  0  2  0  0  0  0  0  0
  190.2230  177.0360  147.4390 C   0  0  0  0  0  1  0  0  0  0  0  0
  188.5310  178.1340  148.6970 O   0  0  0  0  0  0  0  0  0  0  0  0
  188.8710  177.6340  147.5920 C   0  0  0  0  0  0  0  0  0  0  0  0
  187.9710  177.6370  146.4840 N   0  0  0  0  0  2  0  0  0  0  0  0
  1 22  1  1  0  0  0
  2 16  1  0  0  0  0
  3  4  1  0  0  0  0
  4 20  1  0  0  0  0
  4 17  2  0  0  0  0
  5  8  1  0  0  0  0
  6 17  1  0  0  0  0
  7 14  2  0  0  0  0
  8 19  2  0  0  0  0
  9  3  2  0  0  0  0
  9  6  1  0  0  0  0
 10  7  1  0  0  0  0
 10  2  1  1  0  0  0
 11 10  1  0  0  0  0
 12  1  1  0  0  0  0
 13  5  2  0  0  0  0
 13  7  1  0  0  0  0
 14 19  1  0  0  0  0
 14 12  1  0  0  0  0
 15 20  2  0  0  0  0
 16  1  1  0  0  0  0
 17 11  1  0  0  0  0
 18 13  1  0  0  0  0
 20 18  1  0  0  0  0
 21  5  1  0  0  0  0
 22 23  1  0  0  0  0
 24 26  1  0  0  0  0
 26 25  2  0  0  0  0
 27 23  1  0  0  0  0
 27 26  1  0  0  0  0
M  END
>  <MODEL>
3

>  <REMARK>
 VINA RESULT:      -7.9      0.918      1.000
  Name = 
  3 active torsions:
  status: ('A' for Active; 'I' for Inactive)
    1  A    between atoms: C_1  and  C_22
    2  A    between atoms: C_2  and  N_8
    3  A    between atoms: C_2  and  C_22
                            x       y       z     vdW  Elec       q    Type
                         _______ _______ _______ _____ _____    ______ ____

>  <TORSDO>
F 3

$$$$
=
 OpenBabel10232411463D

 27 30  0  0  1  0  0  0  0  0999 V2000
  192.7440  175.0670  137.0730 C   0  0  1  0  0  3  0  0  0  0  0  0
  192.5840  177.0040  138.6780 C   0  0  0  0  0  2  0  0  0  0  0  0
  188.1230  177.1690  142.7410 C   0  0  0  0  0  3  0  0  0  0  0  0
  188.8260  177.5000  141.5740 C   0  0  0  0  0  0  0  0  0  0  0  0
  187.9000  176.5760  137.7190 C   0  0  0  0  0  0  0  0  0  0  0  0
  190.4020  176.1650  142.9700 S   0  0  0  0  0  0  0  0  0  0  0  0
  190.1930  176.2460  138.5080 C   0  0  0  0  0  0  0  0  0  0  0  0
  187.9910  175.4100  136.9650 C   0  0  0  0  0  3  0  0  0  0  0  0
  188.8680  176.4020  143.6390 C   0  0  0  0  0  3  0  0  0  0  0  0
  191.3700  176.5060  139.4330 C   0  0  2  0  0  3  0  0  0  0  0  0
  191.0890  177.3540  140.5790 N   0  0  0  0  0  2  0  0  0  0  0  0
  191.5170  174.4010  137.4990 N   0  0  0  0  0  2  0  0  0  0  0  0
  188.9960  177.0190  138.4870 C   0  0  0  0  0  0  0  0  0  0  0  0
  190.2860  175.1130  137.6660 C   0  0  0  0  0  0  0  0  0  0  0  0
  187.3730  179.1610  140.7210 O   0  0  0  0  0  0  0  0  0  0  0  0
  193.4080  175.8080  138.2300 C   0  0  0  0  0  2  0  0  0  0  0  0
  190.1070  176.9940  141.5480 C   0  0  0  0  0  0  0  0  0  0  0  0
  188.8760  178.2670  139.1860 N   0  0  0  0  0  2  0  0  0  0  0  0
  189.1790  174.6890  136.9310 C   0  0  0  0  0  3  0  0  0  0  0  0
  188.3000  178.3400  140.4930 C   0  0  0  0  0  0  0  0  0  0  0  0
  186.6200  177.3410  137.6860 C   0  0  0  0  0  1  0  0  0  0  0  0
  193.7000  174.0280  136.5150 C   0  0  0  0  0  2  0  0  0  0  0  0
  195.0870  174.2180  137.0980 C   0  0  0  0  0  2  0  0  0  0  0  0
  198.2590  175.1560  135.0930 C   0  0  0  0  0  1  0  0  0  0  0  0
  197.6510  175.4140  137.3760 O   0  0  0  0  0  0  0  0  0  0  0  0
  197.3180  175.0030  136.2330 C   0  0  0  0  0  0  0  0  0  0  0  0
  196.0460  174.3930  136.0200 N   0  0  0  0  0  2  0  0  0  0  0  0
  1 22  1  1  0  0  0
  1 12  1  0  0  0  0
  1 16  1  0  0  0  0
  3  9  2  0  0  0  0
  4  3  1  0  0  0  0
  5 13  1  0  0  0  0
  6  9  1  0  0  0  0
  7 10  1  0  0  0  0
  8  5  2  0  0  0  0
 10  2  1  6  0  0  0
 10 11  1  0  0  0  0
 11 17  1  0  0  0  0
 12 14  1  0  0  0  0
 13  7  2  0  0  0  0
 13 18  1  0  0  0  0
 14  7  1  0  0  0  0
 16  2  1  0  0  0  0
 17  4  2  0  0  0  0
 17  6  1  0  0  0  0
 18 20  1  0  0  0  0
 19  8  1  0  0  0  0
 19 14  2  0  0  0  0
 20 15  2  0  0  0  0
 20  4  1  0  0  0  0
 21  5  1  0  0  0  0
 22 23  1  0  0  0  0
 24 26  1  0  0  0  0
 26 25  2  0  0  0  0
 27 26  1  0  0  0  0
 27 23  1  0  0  0  0
M  END
>  <MODEL>
4

>  <REMARK>
 VINA RESULT:      -7.1      4.842      8.938
  Name = 
  3 active torsions:
  status: ('A' for Active; 'I' for Inactive)
    1  A    between atoms: C_1  and  C_22
    2  A    between atoms: C_2  and  N_8
    3  A    between atoms: C_2  and  C_22
                            x       y       z     vdW  Elec       q    Type
                         _______ _______ _______ _____ _____    ______ ____

>  <TORSDO>
F 3

$$$$
=
 OpenBabel10232411463D

 27 30  0  0  1  0  0  0  0  0999 V2000
  188.3860  177.6650  136.0150 C   0  0  1  0  0  3  0  0  0  0  0  0
  188.8480  179.0930  138.0410 C   0  0  0  0  0  2  0  0  0  0  0  0
  186.6420  177.4680  143.4190 C   0  0  0  0  0  3  0  0  0  0  0  0
  186.7370  178.1930  142.2230 C   0  0  0  0  0  0  0  0  0  0  0  0
  184.2530  178.0860  138.9990 C   0  0  0  0  0  0  0  0  0  0  0  0
  188.8370  176.8600  142.3880 S   0  0  0  0  0  0  0  0  0  0  0  0
  186.6730  177.9860  138.6460 C   0  0  0  0  0  0  0  0  0  0  0  0
  184.0640  177.1730  137.9650 C   0  0  0  0  0  3  0  0  0  0  0  0
  187.7470  176.6510  143.6630 C   0  0  0  0  0  3  0  0  0  0  0  0
  188.1220  178.2180  139.0410 C   0  0  2  0  0  3  0  0  0  0  0  0
  188.3310  178.6980  140.3960 N   0  0  0  0  0  2  0  0  0  0  0  0
  187.5120  176.7080  136.6870 N   0  0  0  0  0  2  0  0  0  0  0  0
  185.5500  178.5160  139.3460 C   0  0  0  0  0  0  0  0  0  0  0  0
  186.4450  177.1270  137.5450 C   0  0  0  0  0  0  0  0  0  0  0  0
  184.9690  179.7260  142.5720 O   0  0  0  0  0  0  0  0  0  0  0  0
  189.4520  178.2080  136.9630 C   0  0  0  0  0  2  0  0  0  0  0  0
  187.9000  177.9440  141.5270 C   0  0  0  0  0  0  0  0  0  0  0  0
  185.6840  179.5140  140.3680 N   0  0  0  0  0  2  0  0  0  0  0  0
  185.1520  176.7050  137.2370 C   0  0  0  0  0  3  0  0  0  0  0  0
  185.7430  179.1630  141.7530 C   0  0  0  0  0  0  0  0  0  0  0  0
  183.0510  178.5950  139.7200 C   0  0  0  0  0  1  0  0  0  0  0  0
  189.0510  176.9800  134.8350 C   0  0  0  0  0  2  0  0  0  0  0  0
  189.2090  175.4960  135.1040 C   0  0  0  0  0  2  0  0  0  0  0  0
  192.3280  174.4770  137.1510 C   0  0  0  0  0  1  0  0  0  0  0  0
  190.0080  174.5490  137.6620 O   0  0  0  0  0  0  0  0  0  0  0  0
  190.9080  174.7430  136.8030 C   0  0  0  0  0  0  0  0  0  0  0  0
  190.5790  175.2180  135.4980 N   0  0  0  0  0  2  0  0  0  0  0  0
  1 22  1  6  0  0  0
  1 12  1  0  0  0  0
  1 16  1  0  0  0  0
  3  9  2  0  0  0  0
  4  3  1  0  0  0  0
  5 13  1  0  0  0  0
  5 21  1  0  0  0  0
  6  9  1  0  0  0  0
  7 10  1  0  0  0  0
  7 13  2  0  0  0  0
  8  5  2  0  0  0  0
 10  2  1  6  0  0  0
 10 11  1  0  0  0  0
 11 17  1  0  0  0  0
 12 14  1  0  0  0  0
 13 18  1  0  0  0  0
 14  7  1  0  0  0  0
 16  2  1  0  0  0  0
 17  4  2  0  0  0  0
 17  6  1  0  0  0  0
 18 20  1  0  0  0  0
 19 14  2  0  0  0  0
 19  8  1  0  0  0  0
 20  4  1  0  0  0  0
 20 15  2  0  0  0  0
 22 23  1  0  0  0  0
 23 27  1  0  0  0  0
 26 24  1  0  0  0  0
 26 25  2  0  0  0  0
 27 26  1  0  0  0  0
M  END
>  <MODEL>
5

>  <REMARK>
 VINA RESULT:      -7.1      3.114      7.637
  Name = 
  3 active torsions:
  status: ('A' for Active; 'I' for Inactive)
    1  A    between atoms: C_1  and  C_22
    2  A    between atoms: C_2  and  N_8
    3  A    between atoms: C_2  and  C_22
                            x       y       z     vdW  Elec       q    Type
                         _______ _______ _______ _____ _____    ______ ____

>  <TORSDO>
F 3

$$$$
=
 OpenBabel10232411463D

 27 30  0  0  1  0  0  0  0  0999 V2000
  185.5780  178.6880  142.8910 C   0  0  1  0  0  3  0  0  0  0  0  0
  187.0190  179.4570  140.9710 C   0  0  0  0  0  2  0  0  0  0  0  0
  190.7690  175.5610  138.2900 C   0  0  0  0  0  3  0  0  0  0  0  0
  190.3780  176.6200  139.1220 C   0  0  0  0  0  0  0  0  0  0  0  0
  190.3000  176.7450  143.1900 C   0  0  0  0  0  0  0  0  0  0  0  0
  188.3890  176.0740  137.7220 S   0  0  0  0  0  0  0  0  0  0  0  0
  188.3660  177.5650  141.9330 C   0  0  0  0  0  0  0  0  0  0  0  0
  189.4470  176.2040  144.1480 C   0  0  0  0  0  3  0  0  0  0  0  0
  189.7550  175.1200  137.4380 C   0  0  0  0  0  3  0  0  0  0  0  0
  187.6750  178.1210  140.6990 C   0  0  2  0  0  3  0  0  0  0  0  0
  188.4920  178.1790  139.4990 N   0  0  0  0  0  2  0  0  0  0  0  0
  186.1210  177.3350  142.9700 N   0  0  0  0  0  2  0  0  0  0  0  0
  189.7790  177.4420  142.0810 C   0  0  0  0  0  0  0  0  0  0  0  0
  187.5290  177.0820  142.9650 C   0  0  0  0  0  0  0  0  0  0  0  0
  192.5080  177.2880  139.9040 O   0  0  0  0  0  0  0  0  0  0  0  0
  185.6000  179.2170  141.4600 C   0  0  0  0  0  2  0  0  0  0  0  0
  189.0680  177.0050  138.9330 C   0  0  0  0  0  0  0  0  0  0  0  0
  190.7020  178.0430  141.1610 N   0  0  0  0  0  2  0  0  0  0  0  0
  188.0720  176.3800  144.0420 C   0  0  0  0  0  3  0  0  0  0  0  0
  191.2600  177.3060  140.0710 C   0  0  0  0  0  0  0  0  0  0  0  0
  191.7690  176.5700  143.3720 C   0  0  0  0  0  1  0  0  0  0  0  0
  184.1520  178.6790  143.4120 C   0  0  0  0  0  2  0  0  0  0  0  0
  184.0510  179.4850  144.6920 C   0  0  0  0  0  2  0  0  0  0  0  0
  186.7730  178.6360  147.3050 C   0  0  0  0  0  1  0  0  0  0  0  0
  184.4820  178.0390  147.1000 O   0  0  0  0  0  0  0  0  0  0  0  0
  185.4580  178.6690  146.6150 C   0  0  0  0  0  0  0  0  0  0  0  0
  185.3130  179.4170  145.4080 N   0  0  0  0  0  2  0  0  0  0  0  0
  1 12  1  0  0  0  0
  1 22  1  6  0  0  0
  2 16  1  0  0  0  0
  3  4  1  0  0  0  0
  4 20  1  0  0  0  0
  5 21  1  0  0  0  0
  5  8  1  0  0  0  0
  6 17  1  0  0  0  0
  7 13  1  0  0  0  0
  7 14  2  0  0  0  0
  9  6  1  0  0  0  0
  9  3  2  0  0  0  0
 10  2  1  1  0  0  0
 10  7  1  0  0  0  0
 11 10  1  0  0  0  0
 13  5  2  0  0  0  0
 14 12  1  0  0  0  0
 14 19  1  0  0  0  0
 15 20  2  0  0  0  0
 16  1  1  0  0  0  0
 17  4  2  0  0  0  0
 17 11  1  0  0  0  0
 18 13  1  0  0  0  0
 19  8  2  0  0  0  0
 20 18  1  0  0  0  0
 22 23  1  0  0  0  0
 23 27  1  0  0  0  0
 26 25  2  0  0  0  0
 26 24  1  0  0  0  0
 27 26  1  0  0  0  0
M  END
>  <MODEL>
6

>  <REMARK>
 VINA RESULT:      -6.8      2.369      3.103
  Name = 
  3 active torsions:
  status: ('A' for Active; 'I' for Inactive)
    1  A    between atoms: C_1  and  C_22
    2  A    between atoms: C_2  and  N_8
    3  A    between atoms: C_2  and  C_22
                            x       y       z     vdW  Elec       q    Type
                         _______ _______ _______ _____ _____    ______ ____

>  <TORSDO>
F 3

$$$$
=
 OpenBabel10232411463D

 27 30  0  0  1  0  0  0  0  0999 V2000
  187.0920  178.5670  141.9770 C   0  0  1  0  0  3  0  0  0  0  0  0
  189.5100  178.8890  142.6120 C   0  0  0  0  0  2  0  0  0  0  0  0
  192.1380  175.0480  146.4560 C   0  0  0  0  0  3  0  0  0  0  0  0
  191.5370  176.2380  146.0200 C   0  0  0  0  0  0  0  0  0  0  0  0
  187.8580  177.7040  146.9600 C   0  0  0  0  0  0  0  0  0  0  0  0
  192.0070  174.9110  143.9620 S   0  0  0  0  0  0  0  0  0  0  0  0
  188.5790  177.6990  144.6210 C   0  0  0  0  0  0  0  0  0  0  0  0
  186.5650  177.3740  146.5620 C   0  0  0  0  0  3  0  0  0  0  0  0
  192.4590  174.1750  145.4140 C   0  0  0  0  0  3  0  0  0  0  0  0
  189.6180  177.6770  143.5120 C   0  0  2  0  0  3  0  0  0  0  0  0
  190.9890  177.4730  143.9450 N   0  0  0  0  0  2  0  0  0  0  0  0
  186.8400  177.4370  142.8670 N   0  0  0  0  0  2  0  0  0  0  0  0
  188.8760  177.8840  146.0030 C   0  0  0  0  0  0  0  0  0  0  0  0
  187.2400  177.4500  144.2410 C   0  0  0  0  0  0  0  0  0  0  0  0
  191.7060  177.4950  148.0170 O   0  0  0  0  0  0  0  0  0  0  0  0
  188.5360  178.5790  141.4860 C   0  0  0  0  0  2  0  0  0  0  0  0
  191.3800  176.2990  144.6520 C   0  0  0  0  0  0  0  0  0  0  0  0
  190.1730  178.2960  146.4600 N   0  0  0  0  0  2  0  0  0  0  0  0
  186.2560  177.2580  145.2120 C   0  0  0  0  0  3  0  0  0  0  0  0
  191.1490  177.3470  146.8970 C   0  0  0  0  0  0  0  0  0  0  0  0
  188.1290  177.8640  148.4180 C   0  0  0  0  0  1  0  0  0  0  0  0
  186.1490  178.4800  140.7910 C   0  0  0  0  0  2  0  0  0  0  0  0
  184.8650  179.2350  141.0790 C   0  0  0  0  0  2  0  0  0  0  0  0
  183.0510  178.8790  144.4760 C   0  0  0  0  0  1  0  0  0  0  0  0
  182.3180  178.7030  142.2220 O   0  0  0  0  0  0  0  0  0  0  0  0
  183.2790  178.9140  143.0080 C   0  0  0  0  0  0  0  0  0  0  0  0
  184.5860  179.1870  142.5040 N   0  0  0  0  0  2  0  0  0  0  0  0
  1 22  1  6  0  0  0
  1 12  1  0  0  0  0
  4  3  1  0  0  0  0
  4 20  1  0  0  0  0
  5 21  1  0  0  0  0
  6 17  1  0  0  0  0
  6  9  1  0  0  0  0
  7 13  1  0  0  0  0
  8  5  1  0  0  0  0
  9  3  2  0  0  0  0
 10  2  1  1  0  0  0
 10 11  1  0  0  0  0
 10  7  1  0  0  0  0
 11 17  1  0  0  0  0
 12 14  1  0  0  0  0
 13 18  1  0  0  0  0
 13  5  2  0  0  0  0
 14  7  2  0  0  0  0
 14 19  1  0  0  0  0
 16  1  1  0  0  0  0
 16  2  1  0  0  0  0
 17  4  2  0  0  0  0
 18 20  1  0  0  0  0
 19  8  2  0  0  0  0
 20 15  2  0  0  0  0
 22 23  1  0  0  0  0
 23 27  1  0  0  0  0
 25 26  2  0  0  0  0
 26 24  1  0  0  0  0
 27 26  1  0  0  0  0
M  END
>  <MODEL>
7

>  <REMARK>
 VINA RESULT:      -6.8      3.322      6.958
  Name = 
  3 active torsions:
  status: ('A' for Active; 'I' for Inactive)
    1  A    between atoms: C_1  and  C_22
    2  A    between atoms: C_2  and  N_8
    3  A    between atoms: C_2  and  C_22
                            x       y       z     vdW  Elec       q    Type
                         _______ _______ _______ _____ _____    ______ ____

>  <TORSDO>
F 3

$$$$
=
 OpenBabel10232411463D

 27 30  0  0  1  0  0  0  0  0999 V2000
  186.3900  177.5430  137.8100 C   0  0  1  0  0  3  0  0  0  0  0  0
  183.9140  177.1070  137.6390 C   0  0  0  0  0  2  0  0  0  0  0  0
  180.0050  181.0360  140.0310 C   0  0  0  0  0  3  0  0  0  0  0  0
  180.7630  179.8600  139.9290 C   0  0  0  0  0  0  0  0  0  0  0  0
  183.9710  178.7190  142.1600 C   0  0  0  0  0  0  0  0  0  0  0  0
  180.9560  180.9960  137.7180 S   0  0  0  0  0  0  0  0  0  0  0  0
  184.0730  178.5020  139.7240 C   0  0  0  0  0  0  0  0  0  0  0  0
  185.3080  179.1040  142.1820 C   0  0  0  0  0  3  0  0  0  0  0  0
  180.0160  181.8060  138.8660 C   0  0  0  0  0  3  0  0  0  0  0  0
  183.4640  178.3720  138.3380 C   0  0  2  0  0  3  0  0  0  0  0  0
  182.0200  178.5140  138.2740 N   0  0  0  0  0  2  0  0  0  0  0  0
  186.2870  178.7500  138.6250 N   0  0  0  0  0  2  0  0  0  0  0  0
  183.3380  178.4000  140.9420 C   0  0  0  0  0  0  0  0  0  0  0  0
  185.4510  178.8120  139.7860 C   0  0  0  0  0  0  0  0  0  0  0  0
  179.9850  178.7450  141.8650 O   0  0  0  0  0  0  0  0  0  0  0  0
  185.1940  177.3970  136.8730 C   0  0  0  0  0  2  0  0  0  0  0  0
  181.3700  179.7080  138.7010 C   0  0  0  0  0  0  0  0  0  0  0  0
  181.9800  177.9360  140.9820 N   0  0  0  0  0  2  0  0  0  0  0  0
  186.0460  179.1410  141.0040 C   0  0  0  0  0  3  0  0  0  0  0  0
  180.8780  178.8470  140.9830 C   0  0  0  0  0  0  0  0  0  0  0  0
  183.2350  178.6490  143.4550 C   0  0  0  0  0  1  0  0  0  0  0  0
  187.6710  177.6060  136.9970 C   0  0  0  0  0  2  0  0  0  0  0  0
  188.6160  178.6410  137.5780 C   0  0  0  0  0  2  0  0  0  0  0  0
  191.3740  176.9540  139.7010 C   0  0  0  0  0  1  0  0  0  0  0  0
  189.2290  177.8290  140.2320 O   0  0  0  0  0  0  0  0  0  0  0  0
  190.0920  177.6120  139.3400 C   0  0  0  0  0  0  0  0  0  0  0  0
  189.8510  177.9940  137.9860 N   0  0  0  0  0  2  0  0  0  0  0  0
  1 22  1  6  0  0  0
  1 12  1  0  0  0  0
  4  3  1  0  0  0  0
  4 20  1  0  0  0  0
  5  8  1  0  0  0  0
  5 21  1  0  0  0  0
  6 17  1  0  0  0  0
  6  9  1  0  0  0  0
  7 14  2  0  0  0  0
  7 13  1  0  0  0  0
  9  3  2  0  0  0  0
 10  2  1  1  0  0  0
 10  7  1  0  0  0  0
 11 10  1  0  0  0  0
 11 17  1  0  0  0  0
 12 14  1  0  0  0  0
 13 18  1  0  0  0  0
 13  5  2  0  0  0  0
 14 19  1  0  0  0  0
 16  2  1  0  0  0  0
 16  1  1  0  0  0  0
 17  4  2  0  0  0  0
 18 20  1  0  0  0  0
 19  8  2  0  0  0  0
 20 15  2  0  0  0  0
 22 23  1  0  0  0  0
 23 27  1  0  0  0  0
 26 24  1  0  0  0  0
 26 25  2  0  0  0  0
 27 26  1  0  0  0  0
M  END
>  <MODEL>
8

>  <REMARK>
 VINA RESULT:      -6.7      3.846      6.885
  Name = 
  3 active torsions:
  status: ('A' for Active; 'I' for Inactive)
    1  A    between atoms: C_1  and  C_22
    2  A    between atoms: C_2  and  N_8
    3  A    between atoms: C_2  and  C_22
                            x       y       z     vdW  Elec       q    Type
                         _______ _______ _______ _____ _____    ______ ____

>  <TORSDO>
F 3

$$$$
=
 OpenBabel10232411463D

 27 30  0  0  1  0  0  0  0  0999 V2000
  189.7300  176.0800  136.3110 C   0  0  1  0  0  3  0  0  0  0  0  0
  189.3630  178.2480  137.5430 C   0  0  0  0  0  2  0  0  0  0  0  0
  185.3780  178.4850  142.0710 C   0  0  0  0  0  3  0  0  0  0  0  0
  185.8860  178.6840  140.7790 C   0  0  0  0  0  0  0  0  0  0  0  0
  184.7760  176.8540  137.3170 C   0  0  0  0  0  0  0  0  0  0  0  0
  187.8190  177.9460  142.1700 S   0  0  0  0  0  0  0  0  0  0  0  0
  187.1560  177.0800  137.8370 C   0  0  0  0  0  0  0  0  0  0  0  0
  185.0120  175.5900  136.7830 C   0  0  0  0  0  3  0  0  0  0  0  0
  186.3420  178.0530  142.9850 C   0  0  0  0  0  3  0  0  0  0  0  0
  188.3480  177.7170  138.5330 C   0  0  2  0  0  3  0  0  0  0  0  0
  188.0250  178.7210  139.5320 N   0  0  0  0  0  2  0  0  0  0  0  0
  188.7010  175.3180  137.0120 N   0  0  0  0  0  2  0  0  0  0  0  0
  185.8370  177.6210  137.8370 C   0  0  0  0  0  0  0  0  0  0  0  0
  187.3800  175.8320  137.2110 C   0  0  0  0  0  0  0  0  0  0  0  0
  184.0650  179.8690  139.8410 O   0  0  0  0  0  0  0  0  0  0  0  0
  190.3520  177.1410  137.2140 C   0  0  0  0  0  2  0  0  0  0  0  0
  187.2310  178.4060  140.6730 C   0  0  0  0  0  0  0  0  0  0  0  0
  185.5510  178.9460  138.3070 N   0  0  0  0  0  2  0  0  0  0  0  0
  186.3070  175.0870  136.7210 C   0  0  0  0  0  3  0  0  0  0  0  0
  185.1050  179.1860  139.6440 C   0  0  0  0  0  0  0  0  0  0  0  0
  183.3760  177.3690  137.3180 C   0  0  0  0  0  1  0  0  0  0  0  0
  190.8070  175.1250  135.8270 C   0  0  0  0  0  2  0  0  0  0  0  0
  192.1500  175.8270  135.7720 C   0  0  0  0  0  2  0  0  0  0  0  0
  194.9060  174.3770  138.0650 C   0  0  0  0  0  1  0  0  0  0  0  0
  193.6170  176.3720  138.1450 O   0  0  0  0  0  0  0  0  0  0  0  0
  193.8700  175.2990  137.5340 C   0  0  0  0  0  0  0  0  0  0  0  0
  193.1720  174.9620  136.3360 N   0  0  0  0  0  2  0  0  0  0  0  0
  1 22  1  1  0  0  0
  1 12  1  0  0  0  0
  1 16  1  0  0  0  0
  3  9  2  0  0  0  0
  4  3  1  0  0  0  0
  5 21  1  0  0  0  0
  5 13  1  0  0  0  0
  6  9  1  0  0  0  0
  7 13  2  0  0  0  0
  7 10  1  0  0  0  0
  8  5  2  0  0  0  0
 10  2  1  6  0  0  0
 10 11  1  0  0  0  0
 11 17  1  0  0  0  0
 12 14  1  0  0  0  0
 13 18  1  0  0  0  0
 14  7  1  0  0  0  0
 16  2  1  0  0  0  0
 17  4  2  0  0  0  0
 17  6  1  0  0  0  0
 18 20  1  0  0  0  0
 19  8  1  0  0  0  0
 19 14  2  0  0  0  0
 20 15  2  0  0  0  0
 20  4  1  0  0  0  0
 23 22  1  0  0  0  0
 23 27  1  0  0  0  0
 26 24  1  0  0  0  0
 26 25  2  0  0  0  0
 27 26  1  0  0  0  0
M  END
>  <MODEL>
9

>  <REMARK>
 VINA RESULT:      -6.7      3.774      7.740
  Name = 
  3 active torsions:
  status: ('A' for Active; 'I' for Inactive)
    1  A    between atoms: C_1  and  C_22
    2  A    between atoms: C_2  and  N_8
    3  A    between atoms: C_2  and  C_22
                            x       y       z     vdW  Elec       q    Type
                         _______ _______ _______ _____ _____    ______ ____

>  <TORSDO>
F 3

$$$$
