=
 OpenBabel10232412153D

 48 54  0  0  1  0  0  0  0  0999 V2000
  194.2720  175.9110  137.8320 S   0  0  0  0  0  0  0  0  0  0  0  0
  188.5590  177.2950  139.1510 C   0  0  0  0  0  0  0  0  0  0  0  0
  190.7530  177.8610  140.8540 C   0  0  1  0  0  3  0  0  0  0  0  0
  191.7140  176.1270  136.9120 C   0  0  0  0  0  2  0  0  0  0  0  0
  192.2110  177.1980  139.1280 C   0  0  0  0  0  0  0  0  0  0  0  0
  189.7180  177.6770  138.5890 C   0  0  0  0  0  0  0  0  0  0  0  0
  192.0640  177.3770  141.4780 C   0  0  0  0  0  2  0  0  0  0  0  0
  190.8910  177.6610  139.4200 N   0  0  0  0  0  0  0  0  0  0  0  0
  189.7630  178.2830  137.2230 C   0  0  0  0  0  1  0  0  0  0  0  0
  193.5340  174.5990  136.8560 C   0  0  0  0  0  0  0  0  0  0  0  0
  189.5410  177.1080  141.3460 C   0  0  0  0  0  0  0  0  0  0  0  0
  188.5370  176.9050  140.5380 N   0  0  0  0  0  0  0  0  0  0  0  0
  193.0700  177.2810  140.3350 C   0  0  0  0  0  2  0  0  0  0  0  0
  192.2950  174.8410  136.4450 C   0  0  0  0  0  3  0  0  0  0  0  0
  192.6170  176.5760  138.0040 C   0  0  0  0  0  0  0  0  0  0  0  0
  195.0290  172.9630  139.2190 O   0  0  0  0  0  1  0  0  0  0  0  0
  196.4170  174.2920  135.1260 C   0  0  1  0  0  3  0  0  0  0  0  0
  195.5470  173.1030  134.6640 C   0  0  0  0  0  2  0  0  0  0  0  0
  196.7980  174.2510  136.6270 C   0  0  1  0  0  3  0  0  0  0  0  0
  196.8890  172.9480  137.1440 O   0  0  0  0  0  0  0  0  0  0  0  0
  197.5600  174.3230  134.3460 F   0  0  0  0  0  0  0  0  0  0  0  0
  197.9850  174.9460  136.8650 O   0  0  0  0  0  1  0  0  0  0  0  0
  194.2170  173.3840  136.4920 N   0  0  0  0  0  0  0  0  0  0  0  0
  195.3030  172.5400  137.6050 P   0  0  2  0  0  0  0  0  0  0  0  0
  195.1120  171.0480  137.4490 O   0  0  0  0  0  0  0  0  0  0  0  0
  194.2220  173.0190  135.1770 O   0  0  0  0  0  0  0  0  0  0  0  0
  189.4160  176.7420  142.7990 C   0  0  2  0  0  3  0  0  0  0  0  0
  188.1970  175.9700  142.9810 N   0  0  0  0  0  1  0  0  0  0  0  0
  190.6160  177.9440  144.6800 C   0  0  0  0  0  2  0  0  0  0  0  0
  188.5950  177.2800  145.8150 C   0  0  0  0  0  2  0  0  0  0  0  0
  190.1040  177.3200  145.9590 C   0  0  0  0  0  2  0  0  0  0  0  0
  188.2510  178.0660  144.6400 N   0  0  0  0  0  0  0  0  0  0  0  0
  189.4180  177.9780  143.7450 C   0  0  2  0  0  3  0  0  0  0  0  0
  187.0130  177.5380  144.0740 C   0  0  0  0  0  2  0  0  0  0  0  0
  186.1960  179.1440  145.6080 F   0  0  0  0  0  0  0  0  0  0  0  0
  185.8210  178.0350  144.8720 C   0  0  1  0  0  3  0  0  0  0  0  0
  184.7380  178.3930  143.9700 N   0  0  0  0  0  2  0  0  0  0  0  0
  183.7500  179.1170  144.7520 C   0  0  0  0  0  2  0  0  0  0  0  0
  182.3610  178.6430  144.3710 C   0  0  0  0  0  2  0  0  0  0  0  0
  181.9700  179.1970  143.0140 C   0  0  0  0  0  2  0  0  0  0  0  0
  180.5540  178.9790  142.7770 N   0  0  0  0  0  2  0  0  0  0  0  0
  180.4430  178.4360  141.5420 O   0  0  0  0  0  1  0  0  0  0  0  0
  187.0170  177.2780  138.2330 S   0  0  0  0  0  0  0  0  0  0  0  0
  186.2400  178.4560  139.3790 C   0  0  0  0  0  2  0  0  0  0  0  0
  184.7860  178.6580  139.0040 C   0  0  1  0  0  0  0  0  0  0  0  0
  184.4070  180.0070  139.1210 O   0  0  0  0  0  0  0  0  0  0  0  0
  183.8500  177.7650  139.7840 C   0  0  0  0  0  2  0  0  0  0  0  0
  184.1090  179.1870  140.2220 C   0  0  1  0  0  3  0  0  0  0  0  0
  1 15  1  0  0  0  0
  2 12  1  0  0  0  0
  3 11  1  0  0  0  0
  3  7  1  1  0  0  0
  4 15  1  0  0  0  0
  5  8  1  0  0  0  0
  5 13  1  0  0  0  0
  6  2  2  0  0  0  0
  6  8  1  0  0  0  0
  8  3  1  0  0  0  0
  9  6  1  0  0  0  0
 10  1  1  0  0  0  0
 11 27  1  0  0  0  0
 12 11  2  0  0  0  0
 13  7  1  0  0  0  0
 14 10  2  0  0  0  0
 14  4  1  0  0  0  0
 15  5  2  0  0  0  0
 17 21  1  6  0  0  0
 17 19  1  0  0  0  0
 18 17  1  0  0  0  0
 18 26  1  0  0  0  0
 19 22  1  6  0  0  0
 19 20  1  0  0  0  0
 20 24  1  0  0  0  0
 23 10  1  0  0  0  0
 23 24  1  0  0  0  0
 24 25  2  6  0  0  0
 24 16  1  0  0  0  0
 26 23  1  0  0  0  0
 27 28  1  6  0  0  0
 29 31  1  0  0  0  0
 30 31  1  0  0  0  0
 32 30  1  0  0  0  0
 33 27  1  1  0  0  0
 33 32  1  0  0  0  0
 33 29  1  0  0  0  0
 34 32  1  0  0  0  0
 34 36  1  0  0  0  0
 36 35  1  6  0  0  0
 37 38  1  0  0  0  0
 37 36  1  0  0  0  0
 39 38  1  0  0  0  0
 40 39  1  0  0  0  0
 41 40  1  0  0  0  0
 42 41  1  0  0  0  0
 43  2  1  0  0  0  0
 43 44  1  0  0  0  0
 45 46  1  0  0  0  0
 45 44  1  1  0  0  0
 45 47  1  0  0  0  0
 45 48  1  0  0  0  0
 46 48  1  0  0  0  0
 48 47  1  6  0  0  0
M  END
>  <MODEL>
1

>  <REMARK>
 VINA RESULT:      -7.0      0.000      0.000
  Name = 
  13 active torsions:
  status: ('A' for Active; 'I' for Inactive)
    1  A    between atoms: S_1  and  C_7
    2  A    between atoms: S_1  and  C_31
    3  A    between atoms: C_3  and  N_34
    4  A    between atoms: C_3  and  C_35
    5  A    between atoms: C_10  and  C_31
    6  A    between atoms: N_11  and  C_20
    7  A    between atoms: C_20  and  C_35
    8  A    between atoms: C_21  and  C_29
    9  A    between atoms: C_21  and  C_44
   10  A    between atoms: C_27  and  C_32
   11  A    between atoms: C_27  and  N_34
   12  A    between atoms: C_28  and  N_30
   13  A    between atoms: C_32  and  N_41
                            x       y       z     vdW  Elec       q    Type
                         _______ _______ _______ _____ _____    ______ ____

>  <TORSDO>
F 13

$$$$
=
 OpenBabel10232412153D

 48 54  0  0  1  0  0  0  0  0999 V2000
  186.9580  178.4060  141.0180 S   0  0  0  0  0  0  0  0  0  0  0  0
  188.2830  176.5660  135.4370 C   0  0  0  0  0  0  0  0  0  0  0  0
  185.6890  177.3510  136.2650 C   0  0  1  0  0  3  0  0  0  0  0  0
  188.9270  177.8130  139.2270 C   0  0  0  0  0  2  0  0  0  0  0  0
  186.6070  178.0840  138.3070 C   0  0  0  0  0  0  0  0  0  0  0  0
  188.1740  177.5920  136.2980 C   0  0  0  0  0  0  0  0  0  0  0  0
  184.6020  177.2930  137.3410 C   0  0  0  0  0  2  0  0  0  0  0  0
  186.9030  177.7800  136.9410 N   0  0  0  0  0  0  0  0  0  0  0  0
  189.2540  178.6170  136.4350 C   0  0  0  0  0  1  0  0  0  0  0  0
  188.3460  177.3710  141.4900 C   0  0  0  0  0  0  0  0  0  0  0  0
  185.9380  176.0240  135.5910 C   0  0  0  0  0  0  0  0  0  0  0  0
  187.1430  175.7210  135.1910 N   0  0  0  0  0  0  0  0  0  0  0  0
  185.1400  178.0760  138.5340 C   0  0  0  0  0  2  0  0  0  0  0  0
  189.2500  177.1840  140.5350 C   0  0  0  0  0  3  0  0  0  0  0  0
  187.4870  178.1670  139.3230 C   0  0  0  0  0  0  0  0  0  0  0  0
  186.7970  178.8060  143.9480 O   0  0  0  0  0  0  0  0  0  0  0  0
  191.0970  177.5030  143.4420 C   0  0  1  0  0  3  0  0  0  0  0  0
  190.4950  176.1040  143.6970 C   0  0  0  0  0  2  0  0  0  0  0  0
  190.1860  178.6740  143.8860 C   0  0  1  0  0  3  0  0  0  0  0  0
  189.3500  178.3510  144.9680 O   0  0  0  0  0  0  0  0  0  0  0  0
  192.3170  177.5750  144.0920 F   0  0  0  0  0  0  0  0  0  0  0  0
  190.9370  179.8120  144.1830 O   0  0  0  0  0  1  0  0  0  0  0  0
  188.5210  176.8070  142.8030 N   0  0  0  0  0  0  0  0  0  0  0  0
  187.9740  177.6350  144.2690 P   0  0  2  0  0  0  0  0  0  0  0  0
  187.4040  176.6180  145.2310 O   0  0  0  0  0  1  0  0  0  0  0  0
  189.3500  175.7320  142.9360 O   0  0  0  0  0  0  0  0  0  0  0  0
  184.7840  175.1290  135.2310 C   0  0  2  0  0  3  0  0  0  0  0  0
  183.6460  175.9610  134.8740 N   0  0  0  0  0  1  0  0  0  0  0  0
  185.5330  173.9910  137.3680 C   0  0  0  0  0  2  0  0  0  0  0  0
  185.3960  172.0890  135.8930 C   0  0  0  0  0  2  0  0  0  0  0  0
  186.2790  172.7500  136.9330 C   0  0  0  0  0  2  0  0  0  0  0  0
  184.1100  172.7700  135.9190 N   0  0  0  0  0  0  0  0  0  0  0  0
  184.3960  174.1430  136.3700 C   0  0  2  0  0  3  0  0  0  0  0  0
  183.5090  172.6810  134.5920 C   0  0  0  0  0  2  0  0  0  0  0  0
  181.8610  171.6380  135.9330 F   0  0  0  0  0  0  0  0  0  0  0  0
  182.0600  172.2410  134.7040 C   0  0  1  0  0  3  0  0  0  0  0  0
  181.1830  173.3940  134.5810 N   0  0  0  0  0  2  0  0  0  0  0  0
  180.3600  173.4370  135.7770 C   0  0  0  0  0  2  0  0  0  0  0  0
  180.6480  174.7140  136.5420 C   0  0  0  0  0  2  0  0  0  0  0  0
  180.8720  174.4080  138.0110 C   0  0  0  0  0  2  0  0  0  0  0  0
  181.8540  175.3220  138.5660 N   0  0  0  0  0  2  0  0  0  0  0  0
  181.4070  175.6780  139.7930 O   0  0  0  0  0  1  0  0  0  0  0  0
  189.8090  176.2230  134.5550 S   0  0  0  0  0  0  0  0  0  0  0  0
  190.3520  175.0320  135.8160 C   0  0  0  0  0  2  0  0  0  0  0  0
  191.6620  175.4880  136.4270 C   0  0  1  0  0  0  0  0  0  0  0  0
  192.7280  174.6590  136.0360 O   0  0  0  0  0  0  0  0  0  0  0  0
  191.5960  175.6090  137.9310 C   0  0  0  0  0  2  0  0  0  0  0  0
  192.1420  174.3620  137.2770 C   0  0  1  0  0  3  0  0  0  0  0  0
  1 10  1  0  0  0  0
  2  6  2  0  0  0  0
  3  8  1  0  0  0  0
  3  7  1  1  0  0  0
  4 15  1  0  0  0  0
  4 14  1  0  0  0  0
  5 13  1  0  0  0  0
  5 15  2  0  0  0  0
  6  9  1  0  0  0  0
  6  8  1  0  0  0  0
  7 13  1  0  0  0  0
  8  5  1  0  0  0  0
 10 23  1  0  0  0  0
 11  3  1  0  0  0  0
 12  2  1  0  0  0  0
 12 11  2  0  0  0  0
 14 10  2  0  0  0  0
 15  1  1  0  0  0  0
 17 18  1  0  0  0  0
 17 19  1  0  0  0  0
 17 21  1  1  0  0  0
 19 22  1  1  0  0  0
 19 20  1  0  0  0  0
 23 26  1  0  0  0  0
 23 24  1  0  0  0  0
 24 16  2  6  0  0  0
 24 20  1  0  0  0  0
 24 25  1  0  0  0  0
 26 18  1  0  0  0  0
 27 28  1  1  0  0  0
 27 11  1  0  0  0  0
 30 32  1  0  0  0  0
 30 31  1  0  0  0  0
 31 29  1  0  0  0  0
 32 33  1  0  0  0  0
 33 27  1  6  0  0  0
 33 29  1  0  0  0  0
 34 36  1  0  0  0  0
 34 32  1  0  0  0  0
 36 35  1  1  0  0  0
 37 36  1  0  0  0  0
 37 38  1  0  0  0  0
 38 39  1  0  0  0  0
 39 40  1  0  0  0  0
 40 41  1  0  0  0  0
 41 42  1  0  0  0  0
 43  2  1  0  0  0  0
 43 44  1  0  0  0  0
 45 44  1  6  0  0  0
 45 48  1  0  0  0  0
 45 47  1  0  0  0  0
 46 45  1  0  0  0  0
 46 48  1  0  0  0  0
 48 47  1  1  0  0  0
M  END
>  <MODEL>
2

>  <REMARK>
 VINA RESULT:      -6.8      5.369      8.978
  Name = 
  13 active torsions:
  status: ('A' for Active; 'I' for Inactive)
    1  A    between atoms: S_1  and  C_7
    2  A    between atoms: S_1  and  C_31
    3  A    between atoms: C_3  and  N_34
    4  A    between atoms: C_3  and  C_35
    5  A    between atoms: C_10  and  C_31
    6  A    between atoms: N_11  and  C_20
    7  A    between atoms: C_20  and  C_35
    8  A    between atoms: C_21  and  C_29
    9  A    between atoms: C_21  and  C_44
   10  A    between atoms: C_27  and  C_32
   11  A    between atoms: C_27  and  N_34
   12  A    between atoms: C_28  and  N_30
   13  A    between atoms: C_32  and  N_41
                            x       y       z     vdW  Elec       q    Type
                         _______ _______ _______ _____ _____    ______ ____

>  <TORSDO>
F 13

$$$$
=
 OpenBabel10232412153D

 48 54  0  0  1  0  0  0  0  0999 V2000
  194.3890  175.7900  137.6180 S   0  0  0  0  0  0  0  0  0  0  0  0
  188.6450  177.0820  138.8990 C   0  0  0  0  0  0  0  0  0  0  0  0
  190.8350  177.8370  140.5330 C   0  0  1  0  0  3  0  0  0  0  0  0
  191.8180  175.8590  136.7130 C   0  0  0  0  0  2  0  0  0  0  0  0
  192.2990  177.1000  138.8420 C   0  0  0  0  0  0  0  0  0  0  0  0
  189.7870  177.4600  138.2990 C   0  0  0  0  0  0  0  0  0  0  0  0
  192.1670  177.4400  141.1750 C   0  0  0  0  0  2  0  0  0  0  0  0
  190.9670  177.5400  139.1160 N   0  0  0  0  0  0  0  0  0  0  0  0
  189.8000  177.9690  136.8930 C   0  0  0  0  0  1  0  0  0  0  0  0
  193.6860  174.3900  136.7450 C   0  0  0  0  0  0  0  0  0  0  0  0
  189.6520  177.0830  141.0910 C   0  0  0  0  0  0  0  0  0  0  0  0
  188.6480  176.7900  140.3090 N   0  0  0  0  0  0  0  0  0  0  0  0
  193.1650  177.2950  140.0320 C   0  0  0  0  0  2  0  0  0  0  0  0
  192.4360  174.5620  136.3320 C   0  0  0  0  0  3  0  0  0  0  0  0
  192.7150  176.4130  137.7610 C   0  0  0  0  0  0  0  0  0  0  0  0
  195.1590  172.9120  139.2250 O   0  0  0  0  0  1  0  0  0  0  0  0
  196.6170  174.0630  135.1020 C   0  0  1  0  0  3  0  0  0  0  0  0
  195.7850  172.8320  134.6810 C   0  0  0  0  0  2  0  0  0  0  0  0
  196.9620  174.1080  136.6120 C   0  0  1  0  0  3  0  0  0  0  0  0
  197.0690  172.8350  137.1970 O   0  0  0  0  0  0  0  0  0  0  0  0
  197.7770  174.0810  134.3490 F   0  0  0  0  0  0  0  0  0  0  0  0
  198.1260  174.8420  136.8420 O   0  0  0  0  0  1  0  0  0  0  0  0
  194.4050  173.1740  136.4610 N   0  0  0  0  0  0  0  0  0  0  0  0
  195.4810  172.4130  137.6410 P   0  0  2  0  0  0  0  0  0  0  0  0
  195.3280  170.9120  137.5580 O   0  0  0  0  0  0  0  0  0  0  0  0
  194.4500  172.7420  135.1670 O   0  0  0  0  0  0  0  0  0  0  0  0
  189.5520  176.8170  142.5670 C   0  0  2  0  0  3  0  0  0  0  0  0
  188.5380  175.7980  142.7880 N   0  0  0  0  0  1  0  0  0  0  0  0
  190.2070  178.2560  144.5480 C   0  0  0  0  0  2  0  0  0  0  0  0
  188.0850  177.4070  145.3170 C   0  0  0  0  0  2  0  0  0  0  0  0
  189.5200  177.6410  145.7470 C   0  0  0  0  0  2  0  0  0  0  0  0
  187.9000  178.0800  144.0410 N   0  0  0  0  0  0  0  0  0  0  0  0
  189.2260  178.0910  143.3980 C   0  0  2  0  0  3  0  0  0  0  0  0
  186.8680  177.3740  143.2870 C   0  0  0  0  0  2  0  0  0  0  0  0
  185.5840  179.2640  143.9010 F   0  0  0  0  0  0  0  0  0  0  0  0
  185.7610  178.3340  142.8920 C   0  0  1  0  0  3  0  0  0  0  0  0
  186.1150  179.0160  141.6590 N   0  0  0  0  0  2  0  0  0  0  0  0
  184.9640  178.9350  140.7770 C   0  0  0  0  0  2  0  0  0  0  0  0
  183.8530  178.1670  141.4680 C   0  0  0  0  0  2  0  0  0  0  0  0
  182.7560  177.8240  140.4780 C   0  0  0  0  0  2  0  0  0  0  0  0
  183.1670  176.7080  139.6460 N   0  0  0  0  0  2  0  0  0  0  0  0
  182.0530  175.9870  139.3800 O   0  0  0  0  0  1  0  0  0  0  0  0
  187.0970  176.9510  138.0010 S   0  0  0  0  0  0  0  0  0  0  0  0
  187.5530  175.3310  137.3120 C   0  0  0  0  0  2  0  0  0  0  0  0
  187.4370  175.3610  135.8020 C   0  0  1  0  0  0  0  0  0  0  0  0
  186.2480  174.7500  135.3650 O   0  0  0  0  0  0  0  0  0  0  0  0
  188.6380  174.7610  135.1100 C   0  0  0  0  0  2  0  0  0  0  0  0
  187.3950  173.9390  135.3570 C   0  0  1  0  0  3  0  0  0  0  0  0
  1 15  1  0  0  0  0
  2 12  1  0  0  0  0
  3 11  1  0  0  0  0
  3  7  1  1  0  0  0
  4 15  1  0  0  0  0
  5  8  1  0  0  0  0
  5 13  1  0  0  0  0
  6  2  2  0  0  0  0
  6  8  1  0  0  0  0
  8  3  1  0  0  0  0
  9  6  1  0  0  0  0
 10  1  1  0  0  0  0
 11 27  1  0  0  0  0
 12 11  2  0  0  0  0
 13  7  1  0  0  0  0
 14  4  1  0  0  0  0
 14 10  2  0  0  0  0
 15  5  2  0  0  0  0
 17 21  1  6  0  0  0
 17 19  1  0  0  0  0
 18 17  1  0  0  0  0
 18 26  1  0  0  0  0
 19 22  1  6  0  0  0
 19 20  1  0  0  0  0
 20 24  1  0  0  0  0
 23 10  1  0  0  0  0
 23 24  1  0  0  0  0
 24 25  2  6  0  0  0
 24 16  1  0  0  0  0
 26 23  1  0  0  0  0
 27 28  1  6  0  0  0
 29 31  1  0  0  0  0
 30 31  1  0  0  0  0
 32 30  1  0  0  0  0
 33 27  1  1  0  0  0
 33 32  1  0  0  0  0
 33 29  1  0  0  0  0
 34 32  1  0  0  0  0
 36 34  1  0  0  0  0
 36 35  1  1  0  0  0
 37 36  1  0  0  0  0
 38 39  1  0  0  0  0
 38 37  1  0  0  0  0
 40 39  1  0  0  0  0
 41 40  1  0  0  0  0
 42 41  1  0  0  0  0
 43  2  1  0  0  0  0
 44 43  1  0  0  0  0
 45 44  1  1  0  0  0
 46 45  1  0  0  0  0
 47 45  1  0  0  0  0
 48 47  1  6  0  0  0
 48 46  1  0  0  0  0
 48 45  1  0  0  0  0
M  END
>  <MODEL>
3

>  <REMARK>
 VINA RESULT:      -6.7      1.884      2.489
  Name = 
  13 active torsions:
  status: ('A' for Active; 'I' for Inactive)
    1  A    between atoms: S_1  and  C_7
    2  A    between atoms: S_1  and  C_31
    3  A    between atoms: C_3  and  N_34
    4  A    between atoms: C_3  and  C_35
    5  A    between atoms: C_10  and  C_31
    6  A    between atoms: N_11  and  C_20
    7  A    between atoms: C_20  and  C_35
    8  A    between atoms: C_21  and  C_29
    9  A    between atoms: C_21  and  C_44
   10  A    between atoms: C_27  and  C_32
   11  A    between atoms: C_27  and  N_34
   12  A    between atoms: C_28  and  N_30
   13  A    between atoms: C_32  and  N_41
                            x       y       z     vdW  Elec       q    Type
                         _______ _______ _______ _____ _____    ______ ____

>  <TORSDO>
F 13

$$$$
=
 OpenBabel10232412153D

 48 54  0  0  1  0  0  0  0  0999 V2000
  188.6670  178.7470  141.2790 S   0  0  0  0  0  0  0  0  0  0  0  0
  184.8910  176.8620  136.9800 C   0  0  0  0  0  0  0  0  0  0  0  0
  184.0960  178.4350  139.2000 C   0  0  1  0  0  3  0  0  0  0  0  0
  188.4140  177.6170  138.8110 C   0  0  0  0  0  2  0  0  0  0  0  0
  186.3650  178.7060  139.7690 C   0  0  0  0  0  0  0  0  0  0  0  0
  185.7290  177.8180  137.4150 C   0  0  0  0  0  0  0  0  0  0  0  0
  184.1960  178.6920  140.7050 C   0  0  0  0  0  2  0  0  0  0  0  0
  185.4630  178.3920  138.7060 N   0  0  0  0  0  0  0  0  0  0  0  0
  186.7740  178.4080  136.5230 C   0  0  0  0  0  1  0  0  0  0  0  0
  189.6030  177.2810  140.8420 C   0  0  0  0  0  0  0  0  0  0  0  0
  183.4020  177.1390  138.8570 C   0  0  0  0  0  0  0  0  0  0  0  0
  183.7770  176.4670  137.8030 N   0  0  0  0  0  0  0  0  0  0  0  0
  185.6180  179.1830  140.9600 C   0  0  0  0  0  2  0  0  0  0  0  0
  189.4120  176.8480  139.6010 C   0  0  0  0  0  3  0  0  0  0  0  0
  187.6830  178.4330  139.8150 C   0  0  0  0  0  0  0  0  0  0  0  0
  188.3670  175.3270  143.1130 O   0  0  0  0  0  0  0  0  0  0  0  0
  191.4110  178.6640  143.3350 C   0  0  1  0  0  3  0  0  0  0  0  0
  192.3370  177.5920  142.7190 C   0  0  0  0  0  2  0  0  0  0  0  0
  190.1270  178.0920  143.9870 C   0  0  1  0  0  3  0  0  0  0  0  0
  190.2910  176.7930  144.4960 O   0  0  0  0  0  0  0  0  0  0  0  0
  192.1390  179.3820  144.2670 F   0  0  0  0  0  0  0  0  0  0  0  0
  189.6480  178.9420  144.9850 O   0  0  0  0  0  1  0  0  0  0  0  0
  190.5300  176.6230  141.7270 N   0  0  0  0  0  0  0  0  0  0  0  0
  190.0010  175.7580  143.1770 P   0  0  2  0  0  0  0  0  0  0  0  0
  190.8320  174.5060  143.3400 O   0  0  0  0  0  1  0  0  0  0  0  0
  191.8590  176.8880  141.5770 O   0  0  0  0  0  0  0  0  0  0  0  0
  182.1820  176.7090  139.6230 C   0  0  2  0  0  3  0  0  0  0  0  0
  182.0880  175.2580  139.5710 N   0  0  0  0  0  1  0  0  0  0  0  0
  181.1010  178.0500  137.7640 C   0  0  0  0  0  2  0  0  0  0  0  0
  180.9640  179.6370  139.5740 C   0  0  0  0  0  2  0  0  0  0  0  0
  181.3410  179.5020  138.1120 C   0  0  0  0  0  2  0  0  0  0  0  0
  180.3070  178.4000  139.9690 N   0  0  0  0  0  0  0  0  0  0  0  0
  180.8680  177.3540  139.0960 C   0  0  2  0  0  3  0  0  0  0  0  0
  180.5350  178.1860  141.3940 C   0  0  0  0  0  2  0  0  0  0  0  0
  179.9930  180.4510  141.8120 F   0  0  0  0  0  0  0  0  0  0  0  0
  180.9530  179.4860  142.0570 C   0  0  1  0  0  3  0  0  0  0  0  0
  181.0890  179.2880  143.4910 N   0  0  0  0  0  2  0  0  0  0  0  0
  182.2600  178.4550  143.7010 C   0  0  0  0  0  2  0  0  0  0  0  0
  183.1020  179.0420  144.8170 C   0  0  0  0  0  2  0  0  0  0  0  0
  184.5740  178.9820  144.4540 C   0  0  0  0  0  2  0  0  0  0  0  0
  185.3720  178.7590  145.6460 N   0  0  0  0  0  2  0  0  0  0  0  0
  184.5200  178.7790  146.6970 O   0  0  0  0  0  1  0  0  0  0  0  0
  185.0990  176.0700  135.3830 S   0  0  0  0  0  0  0  0  0  0  0  0
  184.9800  174.4090  136.1130 C   0  0  0  0  0  2  0  0  0  0  0  0
  184.3190  173.4600  135.1340 C   0  0  1  0  0  0  0  0  0  0  0  0
  182.9220  173.6130  135.1330 O   0  0  0  0  0  0  0  0  0  0  0  0
  184.7050  172.0180  135.3660 C   0  0  0  0  0  2  0  0  0  0  0  0
  183.4260  172.5810  135.9410 C   0  0  1  0  0  3  0  0  0  0  0  0
  2  6  2  0  0  0  0
  2 12  1  0  0  0  0
  3  7  1  1  0  0  0
  4 14  1  0  0  0  0
  4 15  1  0  0  0  0
  5 15  2  0  0  0  0
  5 13  1  0  0  0  0
  6  8  1  0  0  0  0
  7 13  1  0  0  0  0
  8  3  1  0  0  0  0
  8  5  1  0  0  0  0
  9  6  1  0  0  0  0
 10  1  1  0  0  0  0
 10 23  1  0  0  0  0
 11  3  1  0  0  0  0
 11 27  1  0  0  0  0
 12 11  2  0  0  0  0
 14 10  2  0  0  0  0
 15  1  1  0  0  0  0
 17 19  1  0  0  0  0
 17 21  1  1  0  0  0
 18 17  1  0  0  0  0
 19 20  1  0  0  0  0
 19 22  1  1  0  0  0
 23 24  1  0  0  0  0
 24 16  2  6  0  0  0
 24 25  1  0  0  0  0
 24 20  1  0  0  0  0
 26 23  1  0  0  0  0
 26 18  1  0  0  0  0
 27 28  1  6  0  0  0
 29 31  1  0  0  0  0
 29 33  1  0  0  0  0
 30 32  1  0  0  0  0
 31 30  1  0  0  0  0
 32 34  1  0  0  0  0
 33 27  1  1  0  0  0
 33 32  1  0  0  0  0
 34 36  1  0  0  0  0
 36 35  1  1  0  0  0
 36 37  1  0  0  0  0
 37 38  1  0  0  0  0
 38 39  1  0  0  0  0
 40 39  1  0  0  0  0
 40 41  1  0  0  0  0
 41 42  1  0  0  0  0
 43 44  1  0  0  0  0
 43  2  1  0  0  0  0
 45 47  1  0  0  0  0
 45 48  1  0  0  0  0
 45 44  1  1  0  0  0
 46 45  1  0  0  0  0
 46 48  1  0  0  0  0
 48 47  1  6  0  0  0
M  END
>  <MODEL>
4

>  <REMARK>
 VINA RESULT:      -6.6      4.869      7.560
  Name = 
  13 active torsions:
  status: ('A' for Active; 'I' for Inactive)
    1  A    between atoms: S_1  and  C_7
    2  A    between atoms: S_1  and  C_31
    3  A    between atoms: C_3  and  N_34
    4  A    between atoms: C_3  and  C_35
    5  A    between atoms: C_10  and  C_31
    6  A    between atoms: N_11  and  C_20
    7  A    between atoms: C_20  and  C_35
    8  A    between atoms: C_21  and  C_29
    9  A    between atoms: C_21  and  C_44
   10  A    between atoms: C_27  and  C_32
   11  A    between atoms: C_27  and  N_34
   12  A    between atoms: C_28  and  N_30
   13  A    between atoms: C_32  and  N_41
                            x       y       z     vdW  Elec       q    Type
                         _______ _______ _______ _____ _____    ______ ____

>  <TORSDO>
F 13

$$$$
=
 OpenBabel10232412153D

 48 54  0  0  1  0  0  0  0  0999 V2000
  185.9970  177.4310  134.8630 S   0  0  0  0  0  0  0  0  0  0  0  0
  190.5020  176.9000  138.8280 C   0  0  0  0  0  0  0  0  0  0  0  0
  190.7880  176.4480  136.0450 C   0  0  1  0  0  3  0  0  0  0  0  0
  186.8510  177.8980  137.4100 C   0  0  0  0  0  2  0  0  0  0  0  0
  188.6070  177.2770  135.7270 C   0  0  0  0  0  0  0  0  0  0  0  0
  189.8220  177.6920  137.9810 C   0  0  0  0  0  0  0  0  0  0  0  0
  190.2100  175.8320  134.7680 C   0  0  0  0  0  2  0  0  0  0  0  0
  189.7300  177.2680  136.6120 N   0  0  0  0  0  0  0  0  0  0  0  0
  189.3530  179.0520  138.3900 C   0  0  0  0  0  1  0  0  0  0  0  0
  184.9590  177.0220  136.2680 C   0  0  0  0  0  0  0  0  0  0  0  0
  191.2210  175.4210  137.0630 C   0  0  0  0  0  0  0  0  0  0  0  0
  191.1060  175.6890  138.3350 N   0  0  0  0  0  0  0  0  0  0  0  0
  188.9590  176.6380  134.4340 C   0  0  0  0  0  2  0  0  0  0  0  0
  185.4790  177.3270  137.4510 C   0  0  0  0  0  3  0  0  0  0  0  0
  187.3400  177.6120  136.0360 C   0  0  0  0  0  0  0  0  0  0  0  0
  183.2160  176.7500  138.9860 O   0  0  0  0  0  1  0  0  0  0  0  0
  184.1590  173.7920  135.6980 C   0  0  1  0  0  3  0  0  0  0  0  0
  183.0940  174.6070  134.9320 C   0  0  0  0  0  2  0  0  0  0  0  0
  184.1230  173.9900  137.2340 C   0  0  1  0  0  3  0  0  0  0  0  0
  182.8430  174.2910  137.7280 O   0  0  0  0  0  0  0  0  0  0  0  0
  183.9890  172.4550  135.3860 F   0  0  0  0  0  0  0  0  0  0  0  0
  184.6440  172.8780  137.8980 O   0  0  0  0  0  1  0  0  0  0  0  0
  183.6430  176.4480  136.1570 N   0  0  0  0  0  0  0  0  0  0  0  0
  182.6920  175.9800  137.5740 P   0  0  2  0  0  0  0  0  0  0  0  0
  181.2410  176.3260  137.3360 O   0  0  0  0  0  0  0  0  0  0  0  0
  183.2280  176.0250  134.9280 O   0  0  0  0  0  0  0  0  0  0  0  0
  191.9320  174.1720  136.6230 C   0  0  2  0  0  3  0  0  0  0  0  0
  191.1070  173.0230  136.9630 N   0  0  0  0  0  1  0  0  0  0  0  0
  194.1310  175.3210  137.1410 C   0  0  0  0  0  2  0  0  0  0  0  0
  194.8620  173.7180  135.4950 C   0  0  0  0  0  2  0  0  0  0  0  0
  194.9740  175.1760  135.8940 C   0  0  0  0  0  2  0  0  0  0  0  0
  194.2050  173.0180  136.5900 N   0  0  0  0  0  0  0  0  0  0  0  0
  193.3490  174.0210  137.2480 C   0  0  2  0  0  3  0  0  0  0  0  0
  193.4840  171.8730  136.0440 C   0  0  0  0  0  2  0  0  0  0  0  0
  194.4370  169.7240  135.7650 F   0  0  0  0  0  0  0  0  0  0  0  0
  193.9460  170.5950  136.7210 C   0  0  1  0  0  3  0  0  0  0  0  0
  194.9920  170.8970  137.6850 N   0  0  0  0  0  2  0  0  0  0  0  0
  195.5450  169.6300  138.1300 C   0  0  0  0  0  2  0  0  0  0  0  0
  194.5890  168.9790  139.1110 C   0  0  0  0  0  2  0  0  0  0  0  0
  195.3340  168.0030  140.0030 C   0  0  0  0  0  2  0  0  0  0  0  0
  194.6810  167.9150  141.2970 N   0  0  0  0  0  2  0  0  0  0  0  0
  193.3510  168.0190  141.0720 O   0  0  0  0  0  1  0  0  0  0  0  0
  190.7050  177.3140  140.5620 S   0  0  0  0  0  0  0  0  0  0  0  0
  188.9640  176.9410  140.9280 C   0  0  0  0  0  2  0  0  0  0  0  0
  188.4720  177.8230  142.0580 C   0  0  1  0  0  0  0  0  0  0  0  0
  189.3920  177.8590  143.1200 O   0  0  0  0  0  0  0  0  0  0  0  0
  187.0970  177.4350  142.5470 C   0  0  0  0  0  2  0  0  0  0  0  0
  188.3380  176.9400  143.2510 C   0  0  1  0  0  3  0  0  0  0  0  0
  1 15  1  0  0  0  0
  1 10  1  0  0  0  0
  2 43  1  0  0  0  0
  3  7  1  6  0  0  0
  3  8  1  0  0  0  0
  3 11  1  0  0  0  0
  4 14  1  0  0  0  0
  5 15  2  0  0  0  0
  5  8  1  0  0  0  0
  6  9  1  0  0  0  0
  6  2  2  0  0  0  0
  8  6  1  0  0  0  0
 10 14  2  0  0  0  0
 11 12  2  0  0  0  0
 12  2  1  0  0  0  0
 13  7  1  0  0  0  0
 13  5  1  0  0  0  0
 15  4  1  0  0  0  0
 17 21  1  1  0  0  0
 17 19  1  0  0  0  0
 18 17  1  0  0  0  0
 19 20  1  0  0  0  0
 19 22  1  1  0  0  0
 23 10  1  0  0  0  0
 23 24  1  0  0  0  0
 24 25  2  6  0  0  0
 24 20  1  0  0  0  0
 24 16  1  0  0  0  0
 26 18  1  0  0  0  0
 26 23  1  0  0  0  0
 27 28  1  1  0  0  0
 27 11  1  0  0  0  0
 29 33  1  0  0  0  0
 30 31  1  0  0  0  0
 30 32  1  0  0  0  0
 31 29  1  0  0  0  0
 32 33  1  0  0  0  0
 33 27  1  6  0  0  0
 34 32  1  0  0  0  0
 34 36  1  0  0  0  0
 36 35  1  6  0  0  0
 36 37  1  0  0  0  0
 37 38  1  0  0  0  0
 38 39  1  0  0  0  0
 39 40  1  0  0  0  0
 40 41  1  0  0  0  0
 42 41  1  0  0  0  0
 43 44  1  0  0  0  0
 45 44  1  6  0  0  0
 45 47  1  0  0  0  0
 45 46  1  0  0  0  0
 45 48  1  0  0  0  0
 46 48  1  0  0  0  0
 48 47  1  1  0  0  0
M  END
>  <MODEL>
5

>  <REMARK>
 VINA RESULT:      -6.5      4.780     10.578
  Name = 
  13 active torsions:
  status: ('A' for Active; 'I' for Inactive)
    1  A    between atoms: S_1  and  C_7
    2  A    between atoms: S_1  and  C_31
    3  A    between atoms: C_3  and  N_34
    4  A    between atoms: C_3  and  C_35
    5  A    between atoms: C_10  and  C_31
    6  A    between atoms: N_11  and  C_20
    7  A    between atoms: C_20  and  C_35
    8  A    between atoms: C_21  and  C_29
    9  A    between atoms: C_21  and  C_44
   10  A    between atoms: C_27  and  C_32
   11  A    between atoms: C_27  and  N_34
   12  A    between atoms: C_28  and  N_30
   13  A    between atoms: C_32  and  N_41
                            x       y       z     vdW  Elec       q    Type
                         _______ _______ _______ _____ _____    ______ ____

>  <TORSDO>
F 13

$$$$
=
 OpenBabel10232412153D

 48 54  0  0  1  0  0  0  0  0999 V2000
  188.2500  177.6080  136.3150 S   0  0  0  0  0  0  0  0  0  0  0  0
  182.3470  176.4180  136.1510 C   0  0  0  0  0  0  0  0  0  0  0  0
  183.5770  178.0290  138.1320 C   0  0  1  0  0  3  0  0  0  0  0  0
  186.1740  176.5960  134.8660 C   0  0  0  0  0  2  0  0  0  0  0  0
  185.5800  177.9470  136.8970 C   0  0  0  0  0  0  0  0  0  0  0  0
  183.3520  177.2280  135.7780 C   0  0  0  0  0  0  0  0  0  0  0  0
  184.7530  178.2270  139.0910 C   0  0  0  0  0  2  0  0  0  0  0  0
  184.1610  177.7990  136.8200 N   0  0  0  0  0  0  0  0  0  0  0  0
  183.5060  177.6820  134.3620 C   0  0  0  0  0  1  0  0  0  0  0  0
  188.4030  176.0330  135.4710 C   0  0  0  0  0  0  0  0  0  0  0  0
  182.6960  176.8590  138.4970 C   0  0  0  0  0  0  0  0  0  0  0  0
  182.1190  176.1690  137.5510 N   0  0  0  0  0  0  0  0  0  0  0  0
  185.9750  178.4970  138.2180 C   0  0  0  0  0  2  0  0  0  0  0  0
  187.3320  175.6670  134.7770 C   0  0  0  0  0  3  0  0  0  0  0  0
  186.4880  177.4830  136.0160 C   0  0  0  0  0  0  0  0  0  0  0  0
  188.2200  173.1460  136.9320 O   0  0  0  0  0  1  0  0  0  0  0  0
  191.2070  176.5220  137.2870 C   0  0  1  0  0  3  0  0  0  0  0  0
  191.7010  175.9620  135.9350 C   0  0  0  0  0  2  0  0  0  0  0  0
  190.3260  175.5380  138.0950 C   0  0  1  0  0  3  0  0  0  0  0  0
  190.6340  174.1880  137.8570 O   0  0  0  0  0  0  0  0  0  0  0  0
  192.3120  176.8940  138.0320 F   0  0  0  0  0  0  0  0  0  0  0  0
  190.3900  175.8100  139.4630 O   0  0  0  0  0  1  0  0  0  0  0  0
  189.5930  175.2220  135.4890 N   0  0  0  0  0  0  0  0  0  0  0  0
  189.7290  173.7620  136.4800 P   0  0  2  0  0  0  0  0  0  0  0  0
  190.4790  172.7030  135.7050 O   0  0  0  0  0  0  0  0  0  0  0  0
  190.7260  175.7300  134.9240 O   0  0  0  0  0  0  0  0  0  0  0  0
  182.3500  176.5920  139.9350 C   0  0  2  0  0  3  0  0  0  0  0  0
  182.1620  175.1600  140.1100 N   0  0  0  0  0  1  0  0  0  0  0  0
  180.3040  177.9130  139.2340 C   0  0  0  0  0  2  0  0  0  0  0  0
  181.5810  179.6440  140.3230 C   0  0  0  0  0  2  0  0  0  0  0  0
  180.7720  179.3420  139.0760 C   0  0  0  0  0  2  0  0  0  0  0  0
  181.3730  178.5430  141.2520 N   0  0  0  0  0  0  0  0  0  0  0  0
  181.0880  177.3640  140.4160 C   0  0  2  0  0  3  0  0  0  0  0  0
  182.5580  178.4150  142.0940 C   0  0  0  0  0  2  0  0  0  0  0  0
  181.9390  178.3290  144.3770 F   0  0  0  0  0  0  0  0  0  0  0  0
  182.3670  179.1920  143.3840 C   0  0  1  0  0  3  0  0  0  0  0  0
  183.6240  179.8050  143.7820 N   0  0  0  0  0  2  0  0  0  0  0  0
  184.6700  178.8210  143.5640 C   0  0  0  0  0  2  0  0  0  0  0  0
  185.2040  178.3480  144.9020 C   0  0  0  0  0  2  0  0  0  0  0  0
  186.6350  177.8640  144.7560 C   0  0  0  0  0  2  0  0  0  0  0  0
  187.1940  177.5640  146.0620 N   0  0  0  0  0  2  0  0  0  0  0  0
  188.5400  177.6060  145.9290 O   0  0  0  0  0  1  0  0  0  0  0  0
  181.2530  175.6480  134.9550 S   0  0  0  0  0  0  0  0  0  0  0  0
  182.4460  174.3190  134.6140 C   0  0  0  0  0  2  0  0  0  0  0  0
  182.2340  173.1730  135.5820 C   0  0  1  0  0  0  0  0  0  0  0  0
  183.4040  172.8880  136.3070 O   0  0  0  0  0  0  0  0  0  0  0  0
  181.6980  171.9300  134.9110 C   0  0  0  0  0  2  0  0  0  0  0  0
  183.1770  172.0960  135.1700 C   0  0  1  0  0  3  0  0  0  0  0  0
  2 12  1  0  0  0  0
  3 11  1  0  0  0  0
  3  7  1  1  0  0  0
  4 15  1  0  0  0  0
  5 13  1  0  0  0  0
  6  2  2  0  0  0  0
  6  8  1  0  0  0  0
  8  5  1  0  0  0  0
  8  3  1  0  0  0  0
  9  6  1  0  0  0  0
 10 23  1  0  0  0  0
 10  1  1  0  0  0  0
 11 27  1  0  0  0  0
 12 11  2  0  0  0  0
 13  7  1  0  0  0  0
 14  4  1  0  0  0  0
 14 10  2  0  0  0  0
 15  1  1  0  0  0  0
 15  5  2  0  0  0  0
 17 21  1  1  0  0  0
 17 19  1  0  0  0  0
 18 17  1  0  0  0  0
 19 22  1  1  0  0  0
 20 19  1  0  0  0  0
 23 24  1  0  0  0  0
 24 25  2  6  0  0  0
 24 16  1  0  0  0  0
 24 20  1  0  0  0  0
 26 23  1  0  0  0  0
 26 18  1  0  0  0  0
 27 28  1  6  0  0  0
 29 33  1  0  0  0  0
 30 32  1  0  0  0  0
 31 29  1  0  0  0  0
 31 30  1  0  0  0  0
 32 34  1  0  0  0  0
 33 27  1  6  0  0  0
 33 32  1  0  0  0  0
 34 36  1  0  0  0  0
 36 37  1  0  0  0  0
 36 35  1  1  0  0  0
 38 37  1  0  0  0  0
 38 39  1  0  0  0  0
 40 39  1  0  0  0  0
 40 41  1  0  0  0  0
 42 41  1  0  0  0  0
 43  2  1  0  0  0  0
 44 43  1  0  0  0  0
 45 44  1  6  0  0  0
 45 46  1  0  0  0  0
 47 45  1  0  0  0  0
 48 47  1  1  0  0  0
 48 45  1  0  0  0  0
 48 46  1  0  0  0  0
M  END
>  <MODEL>
6

>  <REMARK>
 VINA RESULT:      -6.0      4.379      6.949
  Name = 
  13 active torsions:
  status: ('A' for Active; 'I' for Inactive)
    1  A    between atoms: S_1  and  C_7
    2  A    between atoms: S_1  and  C_31
    3  A    between atoms: C_3  and  N_34
    4  A    between atoms: C_3  and  C_35
    5  A    between atoms: C_10  and  C_31
    6  A    between atoms: N_11  and  C_20
    7  A    between atoms: C_20  and  C_35
    8  A    between atoms: C_21  and  C_29
    9  A    between atoms: C_21  and  C_44
   10  A    between atoms: C_27  and  C_32
   11  A    between atoms: C_27  and  N_34
   12  A    between atoms: C_28  and  N_30
   13  A    between atoms: C_32  and  N_41
                            x       y       z     vdW  Elec       q    Type
                         _______ _______ _______ _____ _____    ______ ____

>  <TORSDO>
F 13

$$$$
=
 OpenBabel10232412153D

 48 54  0  0  1  0  0  0  0  0999 V2000
  194.3510  175.7780  137.9800 S   0  0  0  0  0  0  0  0  0  0  0  0
  188.7320  177.3960  139.4330 C   0  0  0  0  0  0  0  0  0  0  0  0
  190.9680  177.7530  141.1380 C   0  0  1  0  0  3  0  0  0  0  0  0
  191.8010  176.1790  137.1010 C   0  0  0  0  0  2  0  0  0  0  0  0
  192.3740  177.1040  139.3630 C   0  0  0  0  0  0  0  0  0  0  0  0
  189.9070  177.7430  138.8780 C   0  0  0  0  0  0  0  0  0  0  0  0
  192.2570  177.1680  141.7210 C   0  0  0  0  0  2  0  0  0  0  0  0
  191.0830  177.6210  139.6940 N   0  0  0  0  0  0  0  0  0  0  0  0
  189.9720  178.4170  137.5450 C   0  0  0  0  0  1  0  0  0  0  0  0
  193.5360  174.5610  136.9460 C   0  0  0  0  0  0  0  0  0  0  0  0
  189.7210  177.0420  141.6040 C   0  0  0  0  0  0  0  0  0  0  0  0
  188.7010  176.9350  140.7970 N   0  0  0  0  0  0  0  0  0  0  0  0
  193.2460  177.0780  140.5640 C   0  0  0  0  0  2  0  0  0  0  0  0
  192.3080  174.8890  136.5620 C   0  0  0  0  0  3  0  0  0  0  0  0
  192.7360  176.5210  138.2040 C   0  0  0  0  0  0  0  0  0  0  0  0
  194.9870  172.7400  139.2010 O   0  0  0  0  0  1  0  0  0  0  0  0
  196.3680  174.1910  135.1470 C   0  0  1  0  0  3  0  0  0  0  0  0
  195.4300  173.0710  134.6470 C   0  0  0  0  0  2  0  0  0  0  0  0
  196.7730  174.0600  136.6360 C   0  0  1  0  0  3  0  0  0  0  0  0
  196.8070  172.7310  137.0900 O   0  0  0  0  0  0  0  0  0  0  0  0
  197.4970  174.2020  134.3460 F   0  0  0  0  0  0  0  0  0  0  0  0
  197.9980  174.6820  136.8830 O   0  0  0  0  0  1  0  0  0  0  0  0
  194.1490  173.3310  136.5120 N   0  0  0  0  0  0  0  0  0  0  0  0
  195.2100  172.3810  137.5630 P   0  0  2  0  0  0  0  0  0  0  0  0
  194.9400  170.9110  137.3420 O   0  0  0  0  0  0  0  0  0  0  0  0
  194.1120  173.0290  135.1830 O   0  0  0  0  0  0  0  0  0  0  0  0
  189.5890  176.6080  143.0380 C   0  0  2  0  0  3  0  0  0  0  0  0
  188.4950  175.6540  143.1350 N   0  0  0  0  0  1  0  0  0  0  0  0
  189.6070  179.1260  143.3270 C   0  0  0  0  0  2  0  0  0  0  0  0
  191.4540  178.5150  144.7520 C   0  0  0  0  0  2  0  0  0  0  0  0
  191.0350  179.4890  143.6690 C   0  0  0  0  0  2  0  0  0  0  0  0
  190.2590  177.8070  145.1850 N   0  0  0  0  0  0  0  0  0  0  0  0
  189.3590  177.7940  144.0180 C   0  0  2  0  0  3  0  0  0  0  0  0
  190.6490  176.4840  145.6620 C   0  0  0  0  0  2  0  0  0  0  0  0
  191.4930  176.0080  147.8220 F   0  0  0  0  0  0  0  0  0  0  0  0
  190.3380  176.3510  147.1420 C   0  0  1  0  0  3  0  0  0  0  0  0
  189.8290  177.6130  147.6550 N   0  0  0  0  0  2  0  0  0  0  0  0
  188.5100  177.3520  148.2050 C   0  0  0  0  0  2  0  0  0  0  0  0
  187.5360  178.3950  147.6920 C   0  0  0  0  0  2  0  0  0  0  0  0
  186.6290  177.7930  146.6350 C   0  0  0  0  0  2  0  0  0  0  0  0
  185.4210  178.5870  146.5040 N   0  0  0  0  0  2  0  0  0  0  0  0
  185.4680  179.5330  147.4710 O   0  0  0  0  0  1  0  0  0  0  0  0
  187.1850  177.5090  138.5310 S   0  0  0  0  0  0  0  0  0  0  0  0
  187.8050  176.4480  137.1920 C   0  0  0  0  0  2  0  0  0  0  0  0
  186.6440  175.8140  136.4550 C   0  0  1  0  0  0  0  0  0  0  0  0
  186.8180  174.4260  136.3150 O   0  0  0  0  0  0  0  0  0  0  0  0
  186.3760  176.4630  135.1160 C   0  0  0  0  0  2  0  0  0  0  0  0
  187.2130  175.2090  135.2170 C   0  0  1  0  0  3  0  0  0  0  0  0
  1 15  1  0  0  0  0
  2 12  1  0  0  0  0
  3 11  1  0  0  0  0
  3  7  1  1  0  0  0
  4 15  1  0  0  0  0
  5  8  1  0  0  0  0
  5 13  1  0  0  0  0
  6  2  2  0  0  0  0
  6  8  1  0  0  0  0
  8  3  1  0  0  0  0
  9  6  1  0  0  0  0
 10  1  1  0  0  0  0
 11 27  1  0  0  0  0
 12 11  2  0  0  0  0
 13  7  1  0  0  0  0
 14 10  2  0  0  0  0
 14  4  1  0  0  0  0
 15  5  2  0  0  0  0
 17 21  1  6  0  0  0
 17 19  1  0  0  0  0
 18 17  1  0  0  0  0
 18 26  1  0  0  0  0
 19 22  1  6  0  0  0
 19 20  1  0  0  0  0
 20 24  1  0  0  0  0
 23 10  1  0  0  0  0
 23 24  1  0  0  0  0
 24 25  2  6  0  0  0
 24 16  1  0  0  0  0
 26 23  1  0  0  0  0
 27 28  1  6  0  0  0
 29 31  1  0  0  0  0
 29 33  1  0  0  0  0
 30 32  1  0  0  0  0
 31 30  1  0  0  0  0
 32 34  1  0  0  0  0
 33 27  1  6  0  0  0
 33 32  1  0  0  0  0
 34 36  1  0  0  0  0
 36 37  1  0  0  0  0
 36 35  1  1  0  0  0
 37 38  1  0  0  0  0
 39 38  1  0  0  0  0
 40 39  1  0  0  0  0
 41 40  1  0  0  0  0
 41 42  1  0  0  0  0
 43  2  1  0  0  0  0
 44 43  1  0  0  0  0
 45 44  1  1  0  0  0
 46 45  1  0  0  0  0
 47 45  1  0  0  0  0
 48 47  1  6  0  0  0
 48 46  1  0  0  0  0
 48 45  1  0  0  0  0
M  END
>  <MODEL>
7

>  <REMARK>
 VINA RESULT:      -5.9      2.751      3.313
  Name = 
  13 active torsions:
  status: ('A' for Active; 'I' for Inactive)
    1  A    between atoms: S_1  and  C_7
    2  A    between atoms: S_1  and  C_31
    3  A    between atoms: C_3  and  N_34
    4  A    between atoms: C_3  and  C_35
    5  A    between atoms: C_10  and  C_31
    6  A    between atoms: N_11  and  C_20
    7  A    between atoms: C_20  and  C_35
    8  A    between atoms: C_21  and  C_29
    9  A    between atoms: C_21  and  C_44
   10  A    between atoms: C_27  and  C_32
   11  A    between atoms: C_27  and  N_34
   12  A    between atoms: C_28  and  N_30
   13  A    between atoms: C_32  and  N_41
                            x       y       z     vdW  Elec       q    Type
                         _______ _______ _______ _____ _____    ______ ____

>  <TORSDO>
F 13

$$$$
=
 OpenBabel10232412153D

 48 54  0  0  1  0  0  0  0  0999 V2000
  187.5060  178.4190  141.0890 S   0  0  0  0  0  0  0  0  0  0  0  0
  187.8950  176.2140  135.4960 C   0  0  0  0  0  0  0  0  0  0  0  0
  185.5140  177.2690  136.6140 C   0  0  1  0  0  3  0  0  0  0  0  0
  189.1540  177.5680  139.0900 C   0  0  0  0  0  2  0  0  0  0  0  0
  186.7610  178.0070  138.4710 C   0  0  0  0  0  0  0  0  0  0  0  0
  187.9910  177.2840  136.3030 C   0  0  0  0  0  0  0  0  0  0  0  0
  184.5830  177.3590  137.8260 C   0  0  0  0  0  2  0  0  0  0  0  0
  186.8400  177.6160  137.0980 N   0  0  0  0  0  0  0  0  0  0  0  0
  189.1620  178.2110  136.2370 C   0  0  0  0  0  1  0  0  0  0  0  0
  188.8540  177.2850  141.4310 C   0  0  0  0  0  0  0  0  0  0  0  0
  185.5550  175.8950  135.9910 C   0  0  0  0  0  0  0  0  0  0  0  0
  186.6640  175.4660  135.4530 N   0  0  0  0  0  0  0  0  0  0  0  0
  185.3430  178.1430  138.8900 C   0  0  0  0  0  2  0  0  0  0  0  0
  189.5990  176.9720  140.3770 C   0  0  0  0  0  3  0  0  0  0  0  0
  187.7760  178.0570  139.3550 C   0  0  0  0  0  0  0  0  0  0  0  0
  187.0700  178.3610  143.9130 O   0  0  0  0  0  0  0  0  0  0  0  0
  191.5410  177.9850  143.3510 C   0  0  1  0  0  3  0  0  0  0  0  0
  191.2470  176.4900  143.6070 C   0  0  0  0  0  2  0  0  0  0  0  0
  190.4110  178.9400  143.8110 C   0  0  1  0  0  3  0  0  0  0  0  0
  189.6740  178.4480  144.9010 O   0  0  0  0  0  0  0  0  0  0  0  0
  192.7260  178.3090  143.9870 F   0  0  0  0  0  0  0  0  0  0  0  0
  190.9120  180.2090  144.1040 O   0  0  0  0  0  1  0  0  0  0  0  0
  189.1590  176.7680  142.7400 N   0  0  0  0  0  0  0  0  0  0  0  0
  188.4690  177.4610  144.2150 P   0  0  2  0  0  0  0  0  0  0  0  0
  188.1370  176.3460  145.1800 O   0  0  0  0  0  1  0  0  0  0  0  0
  190.1960  175.8890  142.8590 O   0  0  0  0  0  0  0  0  0  0  0  0
  184.2920  175.0940  135.8390 C   0  0  2  0  0  3  0  0  0  0  0  0
  183.2020  176.0020  135.5180 N   0  0  0  0  0  1  0  0  0  0  0  0
  184.8780  173.0650  137.2400 C   0  0  0  0  0  2  0  0  0  0  0  0
  182.7200  172.3970  136.3970 C   0  0  0  0  0  2  0  0  0  0  0  0
  184.1370  171.9050  136.6120 C   0  0  0  0  0  2  0  0  0  0  0  0
  182.5920  173.6690  137.0920 N   0  0  0  0  0  0  0  0  0  0  0  0
  183.9430  174.2560  137.1020 C   0  0  2  0  0  3  0  0  0  0  0  0
  181.5860  174.4750  136.4070 C   0  0  0  0  0  2  0  0  0  0  0  0
  180.4470  173.8980  138.4000 F   0  0  0  0  0  0  0  0  0  0  0  0
  180.4480  174.8060  137.3550 C   0  0  1  0  0  3  0  0  0  0  0  0
  180.6170  176.1510  137.8800 N   0  0  0  0  0  2  0  0  0  0  0  0
  180.9990  176.0220  139.2760 C   0  0  0  0  0  2  0  0  0  0  0  0
  180.3460  177.1290  140.0810 C   0  0  0  0  0  2  0  0  0  0  0  0
  180.8360  178.4840  139.6050 C   0  0  0  0  0  2  0  0  0  0  0  0
  182.0770  178.8290  140.2770 N   0  0  0  0  0  2  0  0  0  0  0  0
  181.8350  178.7570  141.6060 O   0  0  0  0  0  1  0  0  0  0  0  0
  189.2500  175.6940  134.4410 S   0  0  0  0  0  0  0  0  0  0  0  0
  190.2460  175.1600  135.8650 C   0  0  0  0  0  2  0  0  0  0  0  0
  191.2710  174.1350  135.4250 C   0  0  1  0  0  0  0  0  0  0  0  0
  190.9280  172.8430  135.8600 O   0  0  0  0  0  0  0  0  0  0  0  0
  192.6760  174.4920  135.8490 C   0  0  0  0  0  2  0  0  0  0  0  0
  191.8360  173.5440  136.6710 C   0  0  1  0  0  3  0  0  0  0  0  0
  1 10  1  0  0  0  0
  2  6  2  0  0  0  0
  3  8  1  0  0  0  0
  3  7  1  1  0  0  0
  4 15  1  0  0  0  0
  4 14  1  0  0  0  0
  5 13  1  0  0  0  0
  5 15  2  0  0  0  0
  6  8  1  0  0  0  0
  7 13  1  0  0  0  0
  8  5  1  0  0  0  0
  9  6  1  0  0  0  0
 10 23  1  0  0  0  0
 11  3  1  0  0  0  0
 12  2  1  0  0  0  0
 12 11  2  0  0  0  0
 14 10  2  0  0  0  0
 15  1  1  0  0  0  0
 17 18  1  0  0  0  0
 17 19  1  0  0  0  0
 17 21  1  1  0  0  0
 19 22  1  1  0  0  0
 19 20  1  0  0  0  0
 23 26  1  0  0  0  0
 23 24  1  0  0  0  0
 24 16  2  6  0  0  0
 24 20  1  0  0  0  0
 24 25  1  0  0  0  0
 26 18  1  0  0  0  0
 27 28  1  1  0  0  0
 27 11  1  0  0  0  0
 30 31  1  0  0  0  0
 30 32  1  0  0  0  0
 31 29  1  0  0  0  0
 32 33  1  0  0  0  0
 33 27  1  6  0  0  0
 33 29  1  0  0  0  0
 34 32  1  0  0  0  0
 34 36  1  0  0  0  0
 36 37  1  0  0  0  0
 36 35  1  1  0  0  0
 37 38  1  0  0  0  0
 38 39  1  0  0  0  0
 40 39  1  0  0  0  0
 40 41  1  0  0  0  0
 41 42  1  0  0  0  0
 43  2  1  0  0  0  0
 43 44  1  0  0  0  0
 45 47  1  0  0  0  0
 45 46  1  0  0  0  0
 45 44  1  1  0  0  0
 45 48  1  0  0  0  0
 46 48  1  0  0  0  0
 48 47  1  6  0  0  0
M  END
>  <MODEL>
8

>  <REMARK>
 VINA RESULT:      -5.9      4.799      8.476
  Name = 
  13 active torsions:
  status: ('A' for Active; 'I' for Inactive)
    1  A    between atoms: S_1  and  C_7
    2  A    between atoms: S_1  and  C_31
    3  A    between atoms: C_3  and  N_34
    4  A    between atoms: C_3  and  C_35
    5  A    between atoms: C_10  and  C_31
    6  A    between atoms: N_11  and  C_20
    7  A    between atoms: C_20  and  C_35
    8  A    between atoms: C_21  and  C_29
    9  A    between atoms: C_21  and  C_44
   10  A    between atoms: C_27  and  C_32
   11  A    between atoms: C_27  and  N_34
   12  A    between atoms: C_28  and  N_30
   13  A    between atoms: C_32  and  N_41
                            x       y       z     vdW  Elec       q    Type
                         _______ _______ _______ _____ _____    ______ ____

>  <TORSDO>
F 13

$$$$
=
 OpenBabel10232412153D

 48 54  0  0  1  0  0  0  0  0999 V2000
  192.0340  175.5770  135.2350 S   0  0  0  0  0  0  0  0  0  0  0  0
  186.2520  174.2580  136.2960 C   0  0  0  0  0  0  0  0  0  0  0  0
  187.1910  176.8630  135.6900 C   0  0  1  0  0  3  0  0  0  0  0  0
  190.1690  173.6110  135.5400 C   0  0  0  0  0  2  0  0  0  0  0  0
  189.3050  175.9450  135.2080 C   0  0  0  0  0  0  0  0  0  0  0  0
  187.2400  174.3850  135.3940 C   0  0  0  0  0  0  0  0  0  0  0  0
  188.2560  177.9390  135.9150 C   0  0  0  0  0  2  0  0  0  0  0  0
  187.9100  175.6540  135.3230 N   0  0  0  0  0  0  0  0  0  0  0  0
  187.5040  173.3270  134.3700 C   0  0  0  0  0  1  0  0  0  0  0  0
  192.3580  174.1610  136.2880 C   0  0  0  0  0  0  0  0  0  0  0  0
  186.3470  176.5880  136.9110 C   0  0  0  0  0  0  0  0  0  0  0  0
  185.9040  175.3800  137.1290 N   0  0  0  0  0  0  0  0  0  0  0  0
  189.5380  177.4090  135.2820 C   0  0  0  0  0  2  0  0  0  0  0  0
  191.3810  173.2620  136.3270 C   0  0  0  0  0  3  0  0  0  0  0  0
  190.3190  175.0580  135.2370 C   0  0  0  0  0  0  0  0  0  0  0  0
  193.5220  176.6750  137.9680 O   0  0  0  0  0  0  0  0  0  0  0  0
  195.4740  173.8490  135.0270 C   0  0  1  0  0  3  0  0  0  0  0  0
  195.4330  172.8830  136.2320 C   0  0  0  0  0  2  0  0  0  0  0  0
  195.3000  175.3410  135.4060 C   0  0  1  0  0  3  0  0  0  0  0  0
  195.7770  175.6490  136.6900 O   0  0  0  0  0  0  0  0  0  0  0  0
  196.6730  173.6630  134.3620 F   0  0  0  0  0  0  0  0  0  0  0  0
  195.8980  176.1740  134.4590 O   0  0  0  0  0  1  0  0  0  0  0  0
  193.5850  173.9610  137.0140 N   0  0  0  0  0  0  0  0  0  0  0  0
  194.4830  175.3020  137.7410 P   0  0  2  0  0  0  0  0  0  0  0  0
  195.0370  174.8640  139.0770 O   0  0  0  0  0  1  0  0  0  0  0  0
  194.1960  172.7450  136.9220 O   0  0  0  0  0  0  0  0  0  0  0  0
  185.8800  177.7240  137.7790 C   0  0  2  0  0  3  0  0  0  0  0  0
  186.9380  178.0560  138.7200 N   0  0  0  0  0  1  0  0  0  0  0  0
  183.3500  177.6430  137.6500 C   0  0  0  0  0  2  0  0  0  0  0  0
  183.6430  179.4440  139.2270 C   0  0  0  0  0  2  0  0  0  0  0  0
  182.8770  179.0410  137.9820 C   0  0  0  0  0  2  0  0  0  0  0  0
  184.3200  178.2550  139.7230 N   0  0  0  0  0  0  0  0  0  0  0  0
  184.5610  177.4100  138.5410 C   0  0  2  0  0  3  0  0  0  0  0  0
  185.5300  178.6690  140.4270 C   0  0  0  0  0  2  0  0  0  0  0  0
  184.1850  177.8380  142.1890 F   0  0  0  0  0  0  0  0  0  0  0  0
  185.3090  178.6010  141.9280 C   0  0  1  0  0  3  0  0  0  0  0  0
  186.4660  177.9980  142.5700 N   0  0  0  0  0  2  0  0  0  0  0  0
  187.5860  178.1360  141.6560 C   0  0  0  0  0  2  0  0  0  0  0  0
  188.7320  177.2630  142.1270 C   0  0  0  0  0  2  0  0  0  0  0  0
  189.9140  177.3910  141.1840 C   0  0  0  0  0  2  0  0  0  0  0  0
  191.1250  176.9300  141.8390 N   0  0  0  0  0  2  0  0  0  0  0  0
  191.2430  177.6370  142.9860 O   0  0  0  0  0  1  0  0  0  0  0  0
  185.3250  172.7330  136.4830 S   0  0  0  0  0  0  0  0  0  0  0  0
  183.7390  173.5810  136.2140 C   0  0  0  0  0  2  0  0  0  0  0  0
  182.6920  173.0320  137.1610 C   0  0  1  0  0  0  0  0  0  0  0  0
  182.4730  171.6600  136.9470 O   0  0  0  0  0  0  0  0  0  0  0  0
  181.3930  173.8020  137.1070 C   0  0  0  0  0  2  0  0  0  0  0  0
  181.5770  172.5330  136.3090 C   0  0  1  0  0  3  0  0  0  0  0  0
  1 15  1  0  0  0  0
  1 10  1  0  0  0  0
  2 43  1  0  0  0  0
  2 12  1  0  0  0  0
  3  7  1  1  0  0  0
  3 11  1  0  0  0  0
  4 14  1  0  0  0  0
  5 15  2  0  0  0  0
  5 13  1  0  0  0  0
  5  8  1  0  0  0  0
  6  2  2  0  0  0  0
  8  6  1  0  0  0  0
  8  3  1  0  0  0  0
  9  6  1  0  0  0  0
 10 14  2  0  0  0  0
 10 23  1  0  0  0  0
 11 12  2  0  0  0  0
 11 27  1  0  0  0  0
 13  7  1  0  0  0  0
 15  4  1  0  0  0  0
 17 21  1  1  0  0  0
 17 19  1  0  0  0  0
 17 18  1  0  0  0  0
 18 26  1  0  0  0  0
 19 22  1  6  0  0  0
 19 20  1  0  0  0  0
 20 24  1  0  0  0  0
 23 24  1  0  0  0  0
 24 16  2  1  0  0  0
 24 25  1  0  0  0  0
 26 23  1  0  0  0  0
 27 28  1  1  0  0  0
 29 31  1  0  0  0  0
 29 33  1  0  0  0  0
 30 32  1  0  0  0  0
 31 30  1  0  0  0  0
 32 34  1  0  0  0  0
 33 27  1  6  0  0  0
 33 32  1  0  0  0  0
 34 36  1  0  0  0  0
 36 35  1  6  0  0  0
 36 37  1  0  0  0  0
 38 39  1  0  0  0  0
 38 37  1  0  0  0  0
 40 41  1  0  0  0  0
 40 39  1  0  0  0  0
 41 42  1  0  0  0  0
 44 43  1  0  0  0  0
 45 44  1  6  0  0  0
 46 45  1  0  0  0  0
 47 45  1  0  0  0  0
 48 46  1  0  0  0  0
 48 47  1  1  0  0  0
 48 45  1  0  0  0  0
M  END
>  <MODEL>
9

>  <REMARK>
 VINA RESULT:      -5.8      3.582      5.759
  Name = 
  13 active torsions:
  status: ('A' for Active; 'I' for Inactive)
    1  A    between atoms: S_1  and  C_7
    2  A    between atoms: S_1  and  C_31
    3  A    between atoms: C_3  and  N_34
    4  A    between atoms: C_3  and  C_35
    5  A    between atoms: C_10  and  C_31
    6  A    between atoms: N_11  and  C_20
    7  A    between atoms: C_20  and  C_35
    8  A    between atoms: C_21  and  C_29
    9  A    between atoms: C_21  and  C_44
   10  A    between atoms: C_27  and  C_32
   11  A    between atoms: C_27  and  N_34
   12  A    between atoms: C_28  and  N_30
   13  A    between atoms: C_32  and  N_41
                            x       y       z     vdW  Elec       q    Type
                         _______ _______ _______ _____ _____    ______ ____

>  <TORSDO>
F 13

$$$$
