=
 OpenBabel10232409333D

 33 35  0  0  1  0  0  0  0  0999 V2000
  188.4330  178.2460  141.5120 N   0  0  0  0  0  0  0  0  0  0  0  0
  186.4280  178.7820  140.3500 C   0  0  0  0  0  3  0  0  0  0  0  0
  191.6940  177.5700  144.1540 C   0  0  1  0  0  3  0  0  0  0  0  0
  187.3510  178.1130  139.4340 N   0  0  0  0  0  0  0  0  0  0  0  0
  191.9020  177.0980  142.7100 C   0  0  0  0  0  2  0  0  0  0  0  0
  187.1020  178.7830  141.7440 C   0  0  1  0  0  3  0  0  0  0  0  0
  190.6770  177.3090  141.8720 C   0  0  0  0  0  0  0  0  0  0  0  0
  190.7010  176.9800  140.6100 N   0  0  0  0  0  0  0  0  0  0  0  0
  191.0750  178.9760  144.2090 C   0  0  0  0  0  2  0  0  0  0  0  0
  189.8430  179.1720  143.3030 C   0  0  0  0  0  2  0  0  0  0  0  0
  189.4460  177.9220  142.5160 C   0  0  1  0  0  3  0  0  0  0  0  0
  188.5160  177.8260  140.1750 C   0  0  0  0  0  0  0  0  0  0  0  0
  189.5950  177.1940  139.7180 C   0  0  0  0  0  0  0  0  0  0  0  0
  189.6950  176.7370  138.2970 C   0  0  0  0  0  2  0  0  0  0  0  0
  191.1440  176.5200  137.8840 C   0  0  0  0  0  2  0  0  0  0  0  0
  191.4000  175.0630  137.5370 C   0  0  0  0  0  2  0  0  0  0  0  0
  190.1730  173.5250  135.4660 O   0  0  0  0  0  0  0  0  0  0  0  0
  188.3870  172.7350  136.8210 C   0  0  0  0  0  1  0  0  0  0  0  0
  189.6240  173.5290  136.6000 C   0  0  0  0  0  0  0  0  0  0  0  0
  190.1680  174.3020  137.6710 N   0  0  0  0  0  2  0  0  0  0  0  0
  186.3290  177.8670  142.6810 C   0  0  0  0  0  2  0  0  0  0  0  0
  184.9010  178.0390  142.4820 N   0  0  0  0  0  2  0  0  0  0  0  0
  184.4990  179.1620  143.3090 C   0  0  0  0  0  2  0  0  0  0  0  0
  183.0660  178.9720  143.7560 C   0  0  0  0  0  1  0  0  0  0  0  0
  190.8900  176.6620  144.8510 O   0  0  0  0  0  0  0  0  0  0  0  0
  191.7150  176.1480  145.8570 C   0  0  0  0  0  2  0  0  0  0  0  0
  191.2210  176.6040  147.2190 C   0  0  0  0  0  2  0  0  0  0  0  0
  189.7900  176.7210  147.2020 N   0  0  0  0  0  0  0  0  0  0  0  0
  189.2260  177.7640  147.6900 C   0  0  0  0  0  3  0  0  0  0  0  0
  187.7380  177.9010  147.6830 C   0  0  0  0  0  2  0  0  0  0  0  0
  187.1950  177.9090  146.2620 C   0  0  0  0  0  2  0  0  0  0  0  0
  186.1720  178.8530  146.1460 O   0  0  0  0  0  0  0  0  0  0  0  0
  185.1260  178.3300  146.9050 C   0  0  0  0  0  1  0  0  0  0  0  0
  1  6  1  0  0  0  0
  1 11  1  0  0  0  0
  2  6  1  0  0  0  0
  3  9  1  0  0  0  0
  3 25  1  6  0  0  0
  4 12  1  0  0  0  0
  4  2  2  0  0  0  0
  5  3  1  0  0  0  0
  6 21  1  1  0  0  0
  7 11  1  0  0  0  0
  7  5  1  0  0  0  0
  8  7  2  0  0  0  0
 10  9  1  0  0  0  0
 11 10  1  6  0  0  0
 12  1  1  0  0  0  0
 13 12  2  0  0  0  0
 13  8  1  0  0  0  0
 14 13  1  0  0  0  0
 15 14  1  0  0  0  0
 16 20  1  0  0  0  0
 16 15  1  0  0  0  0
 17 19  2  0  0  0  0
 19 18  1  0  0  0  0
 19 20  1  0  0  0  0
 22 21  1  0  0  0  0
 22 23  1  0  0  0  0
 23 24  1  0  0  0  0
 25 26  1  0  0  0  0
 26 27  1  0  0  0  0
 28 27  1  0  0  0  0
 28 29  2  0  0  0  0
 30 29  1  0  0  0  0
 31 30  1  0  0  0  0
 32 31  1  0  0  0  0
 32 33  1  0  0  0  0
M  END
>  <MODEL>
1

>  <REMARK>
 VINA RESULT:      -6.6      0.000      0.000
  Name = 
  14 active torsions:
  status: ('A' for Active; 'I' for Inactive)
    1  A    between atoms: C_1  and  N_23
    2  A    between atoms: C_4  and  O_27
    3  A    between atoms: C_8  and  C_13
    4  A    between atoms: C_8  and  C_31
    5  A    between atoms: C_10  and  C_14
    6  A    between atoms: C_10  and  C_33
    7  A    between atoms: C_12  and  C_15
    8  A    between atoms: C_12  and  N_23
    9  A    between atoms: C_13  and  O_20
   10  A    between atoms: C_14  and  C_17
   11  A    between atoms: N_16  and  C_17
   12  A    between atoms: C_21  and  C_26
   13  A    between atoms: C_21  and  N_30
   14  A    between atoms: C_26  and  O_27
                            x       y       z     vdW  Elec       q    Type
                         _______ _______ _______ _____ _____    ______ ____

>  <TORSDO>
F 14

$$$$
=
 OpenBabel10232409333D

 33 35  0  0  1  0  0  0  0  0999 V2000
  189.2260  177.0480  137.9190 N   0  0  0  0  0  0  0  0  0  0  0  0
  188.7080  176.7990  135.6120 C   0  0  0  0  0  3  0  0  0  0  0  0
  189.4570  177.6070  142.1270 C   0  0  1  0  0  3  0  0  0  0  0  0
  190.1400  176.5750  135.8100 N   0  0  0  0  0  0  0  0  0  0  0  0
  190.7860  177.3040  141.4250 C   0  0  0  0  0  2  0  0  0  0  0  0
  188.0890  177.0150  137.0130 C   0  0  1  0  0  3  0  0  0  0  0  0
  190.5970  177.0490  139.9600 C   0  0  0  0  0  0  0  0  0  0  0  0
  191.6390  176.8000  139.2150 N   0  0  0  0  0  0  0  0  0  0  0  0
  188.6360  178.6580  141.3610 C   0  0  0  0  0  2  0  0  0  0  0  0
  188.4970  178.3880  139.8490 C   0  0  0  0  0  2  0  0  0  0  0  0
  189.1950  177.1100  139.3800 C   0  0  1  0  0  3  0  0  0  0  0  0
  190.3840  176.7400  137.1890 C   0  0  0  0  0  0  0  0  0  0  0  0
  191.5620  176.5950  137.7950 C   0  0  0  0  0  0  0  0  0  0  0  0
  192.8030  176.2620  137.0300 C   0  0  0  0  0  2  0  0  0  0  0  0
  193.1300  174.7780  137.1190 C   0  0  0  0  0  2  0  0  0  0  0  0
  194.5990  174.5250  136.8270 C   0  0  0  0  0  2  0  0  0  0  0  0
  195.5110  173.0510  139.0970 O   0  0  0  0  0  0  0  0  0  0  0  0
  196.7330  174.8570  140.0430 C   0  0  0  0  0  1  0  0  0  0  0  0
  195.8610  174.2570  138.9990 C   0  0  0  0  0  0  0  0  0  0  0  0
  195.4140  175.0600  137.9060 N   0  0  0  0  0  2  0  0  0  0  0  0
  187.1880  175.8380  137.3560 C   0  0  0  0  0  2  0  0  0  0  0  0
  185.8040  176.1640  137.0550 N   0  0  0  0  0  2  0  0  0  0  0  0
  185.5740  177.5030  137.5660 C   0  0  0  0  0  2  0  0  0  0  0  0
  184.1170  177.6540  137.9460 C   0  0  0  0  0  1  0  0  0  0  0  0
  188.7110  176.4350  142.2850 O   0  0  0  0  0  0  0  0  0  0  0  0
  187.7240  176.7580  143.2210 C   0  0  0  0  0  2  0  0  0  0  0  0
  188.3530  176.9820  144.5850 C   0  0  0  0  0  2  0  0  0  0  0  0
  187.5330  177.8740  145.3560 N   0  0  0  0  0  0  0  0  0  0  0  0
  186.2680  177.9200  145.1530 C   0  0  0  0  0  3  0  0  0  0  0  0
  185.4010  178.8440  145.9450 C   0  0  0  0  0  2  0  0  0  0  0  0
  183.9940  178.9040  145.3710 C   0  0  0  0  0  2  0  0  0  0  0  0
  184.0130  178.5540  144.0190 O   0  0  0  0  0  0  0  0  0  0  0  0
  182.7760  178.9750  143.5310 C   0  0  0  0  0  1  0  0  0  0  0  0
  1 11  1  0  0  0  0
  2  4  2  0  0  0  0
  2  6  1  0  0  0  0
  3 25  1  6  0  0  0
  4 12  1  0  0  0  0
  5  3  1  0  0  0  0
  6 21  1  1  0  0  0
  6  1  1  0  0  0  0
  7  5  1  0  0  0  0
  8  7  2  0  0  0  0
  9  3  1  0  0  0  0
 10  9  1  0  0  0  0
 11 10  1  6  0  0  0
 11  7  1  0  0  0  0
 12 13  2  0  0  0  0
 12  1  1  0  0  0  0
 13  8  1  0  0  0  0
 14 15  1  0  0  0  0
 14 13  1  0  0  0  0
 16 15  1  0  0  0  0
 16 20  1  0  0  0  0
 19 17  2  0  0  0  0
 19 18  1  0  0  0  0
 20 19  1  0  0  0  0
 22 21  1  0  0  0  0
 22 23  1  0  0  0  0
 23 24  1  0  0  0  0
 25 26  1  0  0  0  0
 26 27  1  0  0  0  0
 27 28  1  0  0  0  0
 29 28  2  0  0  0  0
 29 30  1  0  0  0  0
 31 30  1  0  0  0  0
 32 31  1  0  0  0  0
 33 32  1  0  0  0  0
M  END
>  <MODEL>
2

>  <REMARK>
 VINA RESULT:      -6.2      2.861      4.502
  Name = 
  14 active torsions:
  status: ('A' for Active; 'I' for Inactive)
    1  A    between atoms: C_1  and  N_23
    2  A    between atoms: C_4  and  O_27
    3  A    between atoms: C_8  and  C_13
    4  A    between atoms: C_8  and  C_31
    5  A    between atoms: C_10  and  C_14
    6  A    between atoms: C_10  and  C_33
    7  A    between atoms: C_12  and  C_15
    8  A    between atoms: C_12  and  N_23
    9  A    between atoms: C_13  and  O_20
   10  A    between atoms: C_14  and  C_17
   11  A    between atoms: N_16  and  C_17
   12  A    between atoms: C_21  and  C_26
   13  A    between atoms: C_21  and  N_30
   14  A    between atoms: C_26  and  O_27
                            x       y       z     vdW  Elec       q    Type
                         _______ _______ _______ _____ _____    ______ ____

>  <TORSDO>
F 14

$$$$
=
 OpenBabel10232409333D

 33 35  0  0  1  0  0  0  0  0999 V2000
  189.2950  177.8070  141.6840 N   0  0  0  0  0  0  0  0  0  0  0  0
  191.6290  177.3680  141.5670 C   0  0  0  0  0  3  0  0  0  0  0  0
  185.1970  178.4880  142.5890 C   0  0  1  0  0  3  0  0  0  0  0  0
  191.1300  177.6750  140.2270 N   0  0  0  0  0  0  0  0  0  0  0  0
  185.5780  178.6090  141.1080 C   0  0  0  0  0  2  0  0  0  0  0  0
  190.4400  177.5500  142.5410 C   0  0  1  0  0  3  0  0  0  0  0  0
  187.0500  178.4270  140.8950 C   0  0  0  0  0  0  0  0  0  0  0  0
  187.5310  178.4770  139.6830 N   0  0  0  0  0  0  0  0  0  0  0  0
  185.8220  177.2410  143.2360 C   0  0  0  0  0  2  0  0  0  0  0  0
  187.3290  177.0610  142.9610 C   0  0  0  0  0  2  0  0  0  0  0  0
  187.9390  178.1660  142.0980 C   0  0  1  0  0  3  0  0  0  0  0  0
  189.7470  177.9210  140.3600 C   0  0  0  0  0  0  0  0  0  0  0  0
  188.9180  178.2620  139.3760 C   0  0  0  0  0  0  0  0  0  0  0  0
  189.3890  178.3910  137.9620 C   0  0  0  0  0  2  0  0  0  0  0  0
  188.2440  178.7560  137.0260 C   0  0  0  0  0  2  0  0  0  0  0  0
  187.9960  177.6520  136.0120 C   0  0  0  0  0  2  0  0  0  0  0  0
  187.7470  174.9300  136.8420 O   0  0  0  0  0  0  0  0  0  0  0  0
  185.3850  175.0030  137.0980 C   0  0  0  0  0  1  0  0  0  0  0  0
  186.6950  175.6170  136.7560 C   0  0  0  0  0  0  0  0  0  0  0  0
  186.7440  176.9760  136.3170 N   0  0  0  0  0  2  0  0  0  0  0  0
  190.6970  178.7520  143.4370 C   0  0  0  0  0  2  0  0  0  0  0  0
  190.5320  178.3810  144.8320 N   0  0  0  0  0  2  0  0  0  0  0  0
  190.7500  176.9480  144.9070 C   0  0  0  0  0  2  0  0  0  0  0  0
  191.7050  176.6440  146.0410 C   0  0  0  0  0  1  0  0  0  0  0  0
  185.5820  179.6370  143.2860 O   0  0  0  0  0  0  0  0  0  0  0  0
  184.4120  180.0970  143.8980 C   0  0  0  0  0  2  0  0  0  0  0  0
  184.1700  179.3430  145.1940 C   0  0  0  0  0  2  0  0  0  0  0  0
  185.3690  179.3410  145.9850 N   0  0  0  0  0  0  0  0  0  0  0  0
  185.6520  178.3280  146.7180 C   0  0  0  0  0  3  0  0  0  0  0  0
  186.8940  178.3100  147.5490 C   0  0  0  0  0  2  0  0  0  0  0  0
  187.8510  177.2240  147.0830 C   0  0  0  0  0  2  0  0  0  0  0  0
  188.9260  177.1220  147.9680 O   0  0  0  0  0  0  0  0  0  0  0  0
  188.9830  178.3650  148.5950 C   0  0  0  0  0  1  0  0  0  0  0  0
  1 11  1  0  0  0  0
  1  6  1  0  0  0  0
  2  6  1  0  0  0  0
  3  9  1  0  0  0  0
  3 25  1  1  0  0  0
  4 12  1  0  0  0  0
  4  2  2  0  0  0  0
  5  3  1  0  0  0  0
  6 21  1  1  0  0  0
  7  5  1  0  0  0  0
  7 11  1  0  0  0  0
  8  7  2  0  0  0  0
 10  9  1  0  0  0  0
 11 10  1  6  0  0  0
 12  1  1  0  0  0  0
 13  8  1  0  0  0  0
 13 12  2  0  0  0  0
 14 13  1  0  0  0  0
 15 14  1  0  0  0  0
 16 20  1  0  0  0  0
 16 15  1  0  0  0  0
 19 17  2  0  0  0  0
 19 18  1  0  0  0  0
 20 19  1  0  0  0  0
 21 22  1  0  0  0  0
 22 23  1  0  0  0  0
 23 24  1  0  0  0  0
 25 26  1  0  0  0  0
 26 27  1  0  0  0  0
 27 28  1  0  0  0  0
 28 29  2  0  0  0  0
 29 30  1  0  0  0  0
 31 30  1  0  0  0  0
 31 32  1  0  0  0  0
 32 33  1  0  0  0  0
M  END
>  <MODEL>
3

>  <REMARK>
 VINA RESULT:      -6.0      2.111      4.804
  Name = 
  14 active torsions:
  status: ('A' for Active; 'I' for Inactive)
    1  A    between atoms: C_1  and  N_23
    2  A    between atoms: C_4  and  O_27
    3  A    between atoms: C_8  and  C_13
    4  A    between atoms: C_8  and  C_31
    5  A    between atoms: C_10  and  C_14
    6  A    between atoms: C_10  and  C_33
    7  A    between atoms: C_12  and  C_15
    8  A    between atoms: C_12  and  N_23
    9  A    between atoms: C_13  and  O_20
   10  A    between atoms: C_14  and  C_17
   11  A    between atoms: N_16  and  C_17
   12  A    between atoms: C_21  and  C_26
   13  A    between atoms: C_21  and  N_30
   14  A    between atoms: C_26  and  O_27
                            x       y       z     vdW  Elec       q    Type
                         _______ _______ _______ _____ _____    ______ ____

>  <TORSDO>
F 14

$$$$
=
 OpenBabel10232409333D

 33 35  0  0  1  0  0  0  0  0999 V2000
  189.1900  177.4730  141.4770 N   0  0  0  0  0  0  0  0  0  0  0  0
  191.2640  177.0580  140.3890 C   0  0  0  0  0  3  0  0  0  0  0  0
  185.8070  177.9690  144.0030 C   0  0  1  0  0  3  0  0  0  0  0  0
  190.3240  177.6370  139.4290 N   0  0  0  0  0  0  0  0  0  0  0  0
  185.6110  178.3910  142.5420 C   0  0  0  0  0  2  0  0  0  0  0  0
  190.5490  177.0400  141.7620 C   0  0  1  0  0  3  0  0  0  0  0  0
  186.8730  178.2510  141.7470 C   0  0  0  0  0  0  0  0  0  0  0  0
  186.8650  178.5480  140.4770 N   0  0  0  0  0  0  0  0  0  0  0  0
  186.5240  176.6140  144.1130 C   0  0  0  0  0  2  0  0  0  0  0  0
  187.7960  176.4880  143.2490 C   0  0  0  0  0  2  0  0  0  0  0  0
  188.1250  177.7450  142.4420 C   0  0  1  0  0  3  0  0  0  0  0  0
  189.1190  177.8550  140.1290 C   0  0  0  0  0  0  0  0  0  0  0  0
  188.0110  178.3950  139.6240 C   0  0  0  0  0  0  0  0  0  0  0  0
  187.9230  178.8110  138.1900 C   0  0  0  0  0  2  0  0  0  0  0  0
  186.7690  178.1170  137.4800 C   0  0  0  0  0  2  0  0  0  0  0  0
  187.2690  177.2850  136.3110 C   0  0  0  0  0  2  0  0  0  0  0  0
  190.0360  176.7640  135.8310 O   0  0  0  0  0  0  0  0  0  0  0  0
  190.1040  174.7750  137.1310 C   0  0  0  0  0  1  0  0  0  0  0  0
  189.4010  175.9500  136.5530 C   0  0  0  0  0  0  0  0  0  0  0  0
  188.0070  176.1340  136.8060 N   0  0  0  0  0  2  0  0  0  0  0  0
  191.2230  178.0320  142.6980 C   0  0  0  0  0  2  0  0  0  0  0  0
  191.7500  177.3410  143.8620 N   0  0  0  0  0  2  0  0  0  0  0  0
  191.2220  175.9900  143.8150 C   0  0  0  0  0  2  0  0  0  0  0  0
  192.1940  175.0460  144.4900 C   0  0  0  0  0  1  0  0  0  0  0  0
  186.5200  178.9480  144.7010 O   0  0  0  0  0  0  0  0  0  0  0  0
  185.7140  179.2710  145.7970 C   0  0  0  0  0  2  0  0  0  0  0  0
  185.9920  178.3180  146.9470 C   0  0  0  0  0  2  0  0  0  0  0  0
  187.3360  178.5040  147.4170 N   0  0  0  0  0  0  0  0  0  0  0  0
  188.0800  177.4870  147.6520 C   0  0  0  0  0  3  0  0  0  0  0  0
  189.4800  177.6630  148.1440 C   0  0  0  0  0  2  0  0  0  0  0  0
  190.4540  176.8140  147.3420 C   0  0  0  0  0  2  0  0  0  0  0  0
  191.7620  177.0550  147.7670 O   0  0  0  0  0  0  0  0  0  0  0  0
  192.3430  175.7910  147.8470 C   0  0  0  0  0  1  0  0  0  0  0  0
  1  6  1  0  0  0  0
  1 11  1  0  0  0  0
  2  6  1  0  0  0  0
  3  9  1  0  0  0  0
  3 25  1  1  0  0  0
  4 12  1  0  0  0  0
  4  2  2  0  0  0  0
  5  3  1  0  0  0  0
  6 21  1  1  0  0  0
  7 11  1  0  0  0  0
  7  5  1  0  0  0  0
  8  7  2  0  0  0  0
 10  9  1  0  0  0  0
 11 10  1  6  0  0  0
 12  1  1  0  0  0  0
 13 12  2  0  0  0  0
 13  8  1  0  0  0  0
 14 13  1  0  0  0  0
 15 14  1  0  0  0  0
 16 20  1  0  0  0  0
 16 15  1  0  0  0  0
 17 19  2  0  0  0  0
 19 20  1  0  0  0  0
 19 18  1  0  0  0  0
 21 22  1  0  0  0  0
 23 22  1  0  0  0  0
 23 24  1  0  0  0  0
 25 26  1  0  0  0  0
 26 27  1  0  0  0  0
 27 28  1  0  0  0  0
 28 29  2  0  0  0  0
 29 30  1  0  0  0  0
 31 32  1  0  0  0  0
 31 30  1  0  0  0  0
 32 33  1  0  0  0  0
M  END
>  <MODEL>
4

>  <REMARK>
 VINA RESULT:      -6.0      1.889      4.740
  Name = 
  14 active torsions:
  status: ('A' for Active; 'I' for Inactive)
    1  A    between atoms: C_1  and  N_23
    2  A    between atoms: C_4  and  O_27
    3  A    between atoms: C_8  and  C_13
    4  A    between atoms: C_8  and  C_31
    5  A    between atoms: C_10  and  C_14
    6  A    between atoms: C_10  and  C_33
    7  A    between atoms: C_12  and  C_15
    8  A    between atoms: C_12  and  N_23
    9  A    between atoms: C_13  and  O_20
   10  A    between atoms: C_14  and  C_17
   11  A    between atoms: N_16  and  C_17
   12  A    between atoms: C_21  and  C_26
   13  A    between atoms: C_21  and  N_30
   14  A    between atoms: C_26  and  O_27
                            x       y       z     vdW  Elec       q    Type
                         _______ _______ _______ _____ _____    ______ ____

>  <TORSDO>
F 14

$$$$
=
 OpenBabel10232409333D

 33 35  0  0  1  0  0  0  0  0999 V2000
  188.7130  177.9140  146.1150 N   0  0  0  0  0  0  0  0  0  0  0  0
  188.3180  177.8870  148.4600 C   0  0  0  0  0  3  0  0  0  0  0  0
  190.1050  177.9720  142.0990 C   0  0  1  0  0  3  0  0  0  0  0  0
  187.0370  177.8320  147.7560 N   0  0  0  0  0  0  0  0  0  0  0  0
  188.5820  177.9370  142.2720 C   0  0  0  0  0  2  0  0  0  0  0  0
  189.4250  177.8430  147.3800 C   0  0  1  0  0  3  0  0  0  0  0  0
  188.1860  177.8430  143.7140 C   0  0  0  0  0  0  0  0  0  0  0  0
  186.9210  177.8280  144.0310 N   0  0  0  0  0  0  0  0  0  0  0  0
  190.7610  178.9910  143.0440 C   0  0  0  0  0  2  0  0  0  0  0  0
  190.3010  178.8960  144.5130 C   0  0  0  0  0  2  0  0  0  0  0  0
  189.2750  177.7900  144.7710 C   0  0  1  0  0  3  0  0  0  0  0  0
  187.3350  177.8550  146.3780 C   0  0  0  0  0  0  0  0  0  0  0  0
  186.4470  177.7940  145.3870 C   0  0  0  0  0  0  0  0  0  0  0  0
  184.9770  177.7260  145.6530 C   0  0  0  0  0  2  0  0  0  0  0  0
  184.3200  179.0900  145.4930 C   0  0  0  0  0  2  0  0  0  0  0  0
  184.5480  179.6450  144.0970 C   0  0  0  0  0  2  0  0  0  0  0  0
  185.1980  179.4220  141.3250 O   0  0  0  0  0  0  0  0  0  0  0  0
  183.4610  177.8780  140.8250 C   0  0  0  0  0  1  0  0  0  0  0  0
  184.2200  178.7540  141.7560 C   0  0  0  0  0  0  0  0  0  0  0  0
  183.8220  178.8440  143.1240 N   0  0  0  0  0  2  0  0  0  0  0  0
  190.1770  176.5250  147.4790 C   0  0  0  0  0  2  0  0  0  0  0  0
  191.5920  176.7710  147.6990 N   0  0  0  0  0  2  0  0  0  0  0  0
  192.3060  175.6800  147.0620 C   0  0  0  0  0  2  0  0  0  0  0  0
  191.9550  175.6410  145.5890 C   0  0  0  0  0  1  0  0  0  0  0  0
  190.6480  176.7010  142.3100 O   0  0  0  0  0  0  0  0  0  0  0  0
  191.7740  176.6470  141.4830 C   0  0  0  0  0  2  0  0  0  0  0  0
  191.4320  177.1810  140.1020 C   0  0  0  0  0  2  0  0  0  0  0  0
  190.9440  176.1120  139.2760 N   0  0  0  0  0  0  0  0  0  0  0  0
  190.0860  176.3540  138.3550 C   0  0  0  0  0  3  0  0  0  0  0  0
  189.5670  175.2540  137.4870 C   0  0  0  0  0  2  0  0  0  0  0  0
  188.6380  175.7940  136.4120 C   0  0  0  0  0  2  0  0  0  0  0  0
  189.3420  175.9840  135.2210 O   0  0  0  0  0  0  0  0  0  0  0  0
  189.1930  174.7820  134.5310 C   0  0  0  0  0  1  0  0  0  0  0  0
  1 12  1  0  0  0  0
  1  6  1  0  0  0  0
  3  5  1  0  0  0  0
  3 25  1  1  0  0  0
  3  9  1  0  0  0  0
  4  2  2  0  0  0  0
  5  7  1  0  0  0  0
  6 21  1  6  0  0  0
  6  2  1  0  0  0  0
  7  8  2  0  0  0  0
  7 11  1  0  0  0  0
  8 13  1  0  0  0  0
  9 10  1  0  0  0  0
 11 10  1  6  0  0  0
 11  1  1  0  0  0  0
 12  4  1  0  0  0  0
 13 14  1  0  0  0  0
 13 12  2  0  0  0  0
 15 14  1  0  0  0  0
 16 15  1  0  0  0  0
 17 19  2  0  0  0  0
 18 19  1  0  0  0  0
 19 20  1  0  0  0  0
 20 16  1  0  0  0  0
 21 22  1  0  0  0  0
 23 22  1  0  0  0  0
 24 23  1  0  0  0  0
 26 25  1  0  0  0  0
 27 26  1  0  0  0  0
 28 27  1  0  0  0  0
 29 28  2  0  0  0  0
 30 29  1  0  0  0  0
 31 30  1  0  0  0  0
 32 31  1  0  0  0  0
 33 32  1  0  0  0  0
M  END
>  <MODEL>
5

>  <REMARK>
 VINA RESULT:      -5.8      2.015      7.866
  Name = 
  14 active torsions:
  status: ('A' for Active; 'I' for Inactive)
    1  A    between atoms: C_1  and  N_23
    2  A    between atoms: C_4  and  O_27
    3  A    between atoms: C_8  and  C_13
    4  A    between atoms: C_8  and  C_31
    5  A    between atoms: C_10  and  C_14
    6  A    between atoms: C_10  and  C_33
    7  A    between atoms: C_12  and  C_15
    8  A    between atoms: C_12  and  N_23
    9  A    between atoms: C_13  and  O_20
   10  A    between atoms: C_14  and  C_17
   11  A    between atoms: N_16  and  C_17
   12  A    between atoms: C_21  and  C_26
   13  A    between atoms: C_21  and  N_30
   14  A    between atoms: C_26  and  O_27
                            x       y       z     vdW  Elec       q    Type
                         _______ _______ _______ _____ _____    ______ ____

>  <TORSDO>
F 14

$$$$
=
 OpenBabel10232409333D

 33 35  0  0  1  0  0  0  0  0999 V2000
  189.9010  177.4460  142.0930 N   0  0  0  0  0  0  0  0  0  0  0  0
  192.1990  177.1840  141.5400 C   0  0  0  0  0  3  0  0  0  0  0  0
  185.9890  177.7150  143.7340 C   0  0  1  0  0  3  0  0  0  0  0  0
  191.4700  177.6500  140.3600 N   0  0  0  0  0  0  0  0  0  0  0  0
  186.1110  178.0760  142.2480 C   0  0  0  0  0  2  0  0  0  0  0  0
  191.1830  177.1430  142.7070 C   0  0  1  0  0  3  0  0  0  0  0  0
  187.5320  178.0240  141.7770 C   0  0  0  0  0  0  0  0  0  0  0  0
  187.8010  178.2820  140.5270 N   0  0  0  0  0  0  0  0  0  0  0  0
  186.7640  176.4320  144.0740 C   0  0  0  0  0  2  0  0  0  0  0  0
  188.2090  176.3940  143.5380 C   0  0  0  0  0  2  0  0  0  0  0  0
  188.6200  177.6510  142.7690 C   0  0  1  0  0  3  0  0  0  0  0  0
  190.1210  177.7810  140.7480 C   0  0  0  0  0  0  0  0  0  0  0  0
  189.1250  178.2060  139.9730 C   0  0  0  0  0  0  0  0  0  0  0  0
  189.3460  178.5700  138.5390 C   0  0  0  0  0  2  0  0  0  0  0  0
  189.1670  177.3650  137.6260 C   0  0  0  0  0  2  0  0  0  0  0  0
  188.2130  177.6820  136.4860 C   0  0  0  0  0  2  0  0  0  0  0  0
  185.9210  178.7920  137.7800 O   0  0  0  0  0  0  0  0  0  0  0  0
  184.5530  176.8740  137.4660 C   0  0  0  0  0  1  0  0  0  0  0  0
  185.8310  177.6200  137.3270 C   0  0  0  0  0  0  0  0  0  0  0  0
  186.9490  176.9930  136.6970 N   0  0  0  0  0  2  0  0  0  0  0  0
  191.5370  178.2170  143.7250 C   0  0  0  0  0  2  0  0  0  0  0  0
  191.0400  177.8440  145.0380 N   0  0  0  0  0  2  0  0  0  0  0  0
  191.5890  176.5340  145.3310 C   0  0  0  0  0  2  0  0  0  0  0  0
  191.7020  176.3580  146.8310 C   0  0  0  0  0  1  0  0  0  0  0  0
  186.4370  178.7740  144.5300 O   0  0  0  0  0  0  0  0  0  0  0  0
  185.2970  179.5420  144.7850 C   0  0  0  0  0  2  0  0  0  0  0  0
  184.3360  178.7700  145.6720 C   0  0  0  0  0  2  0  0  0  0  0  0
  182.9930  178.9320  145.1870 N   0  0  0  0  0  0  0  0  0  0  0  0
  182.7720  179.0190  143.9280 C   0  0  0  0  0  3  0  0  0  0  0  0
  181.3820  179.1900  143.4070 C   0  0  0  0  0  2  0  0  0  0  0  0
  181.2410  178.5980  142.0130 C   0  0  0  0  0  2  0  0  0  0  0  0
  182.3860  178.8680  141.2600 O   0  0  0  0  0  0  0  0  0  0  0  0
  182.5270  177.7580  140.4280 C   0  0  0  0  0  1  0  0  0  0  0  0
  1  6  1  0  0  0  0
  1 11  1  0  0  0  0
  2  6  1  0  0  0  0
  3  9  1  0  0  0  0
  3 25  1  1  0  0  0
  4 12  1  0  0  0  0
  4  2  2  0  0  0  0
  5  3  1  0  0  0  0
  6 21  1  1  0  0  0
  7  5  1  0  0  0  0
  7 11  1  0  0  0  0
  8  7  2  0  0  0  0
 10  9  1  0  0  0  0
 11 10  1  6  0  0  0
 12  1  1  0  0  0  0
 13  8  1  0  0  0  0
 13 12  2  0  0  0  0
 14 13  1  0  0  0  0
 15 14  1  0  0  0  0
 16 20  1  0  0  0  0
 16 15  1  0  0  0  0
 19 18  1  0  0  0  0
 19 17  2  0  0  0  0
 20 19  1  0  0  0  0
 21 22  1  0  0  0  0
 22 23  1  0  0  0  0
 23 24  1  0  0  0  0
 25 26  1  0  0  0  0
 26 27  1  0  0  0  0
 28 27  1  0  0  0  0
 29 28  2  0  0  0  0
 30 29  1  0  0  0  0
 31 30  1  0  0  0  0
 32 31  1  0  0  0  0
 33 32  1  0  0  0  0
M  END
>  <MODEL>
6

>  <REMARK>
 VINA RESULT:      -5.8      2.628      5.611
  Name = 
  14 active torsions:
  status: ('A' for Active; 'I' for Inactive)
    1  A    between atoms: C_1  and  N_23
    2  A    between atoms: C_4  and  O_27
    3  A    between atoms: C_8  and  C_13
    4  A    between atoms: C_8  and  C_31
    5  A    between atoms: C_10  and  C_14
    6  A    between atoms: C_10  and  C_33
    7  A    between atoms: C_12  and  C_15
    8  A    between atoms: C_12  and  N_23
    9  A    between atoms: C_13  and  O_20
   10  A    between atoms: C_14  and  C_17
   11  A    between atoms: N_16  and  C_17
   12  A    between atoms: C_21  and  C_26
   13  A    between atoms: C_21  and  N_30
   14  A    between atoms: C_26  and  O_27
                            x       y       z     vdW  Elec       q    Type
                         _______ _______ _______ _____ _____    ______ ____

>  <TORSDO>
F 14

$$$$
=
 OpenBabel10232409333D

 33 35  0  0  1  0  0  0  0  0999 V2000
  187.6710  178.4590  141.1520 N   0  0  0  0  0  0  0  0  0  0  0  0
  185.5040  179.1580  140.4670 C   0  0  0  0  0  3  0  0  0  0  0  0
  191.3470  177.4270  143.0220 C   0  0  1  0  0  3  0  0  0  0  0  0
  186.2090  178.5850  139.3210 N   0  0  0  0  0  0  0  0  0  0  0  0
  191.2580  177.1230  141.5220 C   0  0  0  0  0  2  0  0  0  0  0  0
  186.4300  178.9860  141.6950 C   0  0  1  0  0  3  0  0  0  0  0  0
  189.9060  177.4500  140.9660 C   0  0  0  0  0  0  0  0  0  0  0  0
  189.6760  177.2700  139.6940 N   0  0  0  0  0  0  0  0  0  0  0  0
  190.8040  178.8270  143.3520 C   0  0  0  0  0  2  0  0  0  0  0  0
  189.4300  179.1470  142.7290 C   0  0  0  0  0  2  0  0  0  0  0  0
  188.8430  178.0040  141.8990 C   0  0  1  0  0  3  0  0  0  0  0  0
  187.4820  178.1950  139.7870 C   0  0  0  0  0  0  0  0  0  0  0  0
  188.4300  177.6030  139.0620 C   0  0  0  0  0  0  0  0  0  0  0  0
  188.2400  177.3130  137.6070 C   0  0  0  0  0  2  0  0  0  0  0  0
  188.1490  175.8160  137.3470 C   0  0  0  0  0  2  0  0  0  0  0  0
  186.9690  175.4890  136.4470 C   0  0  0  0  0  2  0  0  0  0  0  0
  184.7710  177.2880  136.1440 O   0  0  0  0  0  0  0  0  0  0  0  0
  183.4270  176.2600  137.8140 C   0  0  0  0  0  1  0  0  0  0  0  0
  184.6700  176.3750  137.0070 C   0  0  0  0  0  0  0  0  0  0  0  0
  185.7450  175.4620  137.2320 N   0  0  0  0  0  2  0  0  0  0  0  0
  185.8150  177.9810  142.6560 C   0  0  0  0  0  2  0  0  0  0  0  0
  184.3660  178.0370  142.5800 N   0  0  0  0  0  2  0  0  0  0  0  0
  183.8980  178.4640  143.8850 C   0  0  0  0  0  2  0  0  0  0  0  0
  182.5570  179.1510  143.7410 C   0  0  0  0  0  1  0  0  0  0  0  0
  190.6560  176.4580  143.7570 O   0  0  0  0  0  0  0  0  0  0  0  0
  191.6080  175.9190  144.6270 C   0  0  0  0  0  2  0  0  0  0  0  0
  191.7020  176.7640  145.8860 C   0  0  0  0  0  2  0  0  0  0  0  0
  190.6130  176.4440  146.7660 N   0  0  0  0  0  0  0  0  0  0  0  0
  189.6710  177.2930  146.9550 C   0  0  0  0  0  3  0  0  0  0  0  0
  188.5320  176.9780  147.8690 C   0  0  0  0  0  2  0  0  0  0  0  0
  187.4690  178.0650  147.8160 C   0  0  0  0  0  2  0  0  0  0  0  0
  186.7020  177.9290  146.6580 O   0  0  0  0  0  0  0  0  0  0  0  0
  185.6220  178.7890  146.8510 C   0  0  0  0  0  1  0  0  0  0  0  0
  1  6  1  0  0  0  0
  1 11  1  0  0  0  0
  2  6  1  0  0  0  0
  3  9  1  0  0  0  0
  3 25  1  1  0  0  0
  4 12  1  0  0  0  0
  4  2  2  0  0  0  0
  5  3  1  0  0  0  0
  6 21  1  1  0  0  0
  7  5  1  0  0  0  0
  7 11  1  0  0  0  0
  8  7  2  0  0  0  0
 10  9  1  0  0  0  0
 11 10  1  6  0  0  0
 12  1  1  0  0  0  0
 13  8  1  0  0  0  0
 13 12  2  0  0  0  0
 14 13  1  0  0  0  0
 15 14  1  0  0  0  0
 16 20  1  0  0  0  0
 16 15  1  0  0  0  0
 17 19  2  0  0  0  0
 19 20  1  0  0  0  0
 19 18  1  0  0  0  0
 22 21  1  0  0  0  0
 22 23  1  0  0  0  0
 24 23  1  0  0  0  0
 25 26  1  0  0  0  0
 26 27  1  0  0  0  0
 27 28  1  0  0  0  0
 28 29  2  0  0  0  0
 29 30  1  0  0  0  0
 31 30  1  0  0  0  0
 32 33  1  0  0  0  0
 32 31  1  0  0  0  0
M  END
>  <MODEL>
7

>  <REMARK>
 VINA RESULT:      -5.8      2.059      2.462
  Name = 
  14 active torsions:
  status: ('A' for Active; 'I' for Inactive)
    1  A    between atoms: C_1  and  N_23
    2  A    between atoms: C_4  and  O_27
    3  A    between atoms: C_8  and  C_13
    4  A    between atoms: C_8  and  C_31
    5  A    between atoms: C_10  and  C_14
    6  A    between atoms: C_10  and  C_33
    7  A    between atoms: C_12  and  C_15
    8  A    between atoms: C_12  and  N_23
    9  A    between atoms: C_13  and  O_20
   10  A    between atoms: C_14  and  C_17
   11  A    between atoms: N_16  and  C_17
   12  A    between atoms: C_21  and  C_26
   13  A    between atoms: C_21  and  N_30
   14  A    between atoms: C_26  and  O_27
                            x       y       z     vdW  Elec       q    Type
                         _______ _______ _______ _____ _____    ______ ____

>  <TORSDO>
F 14

$$$$
=
 OpenBabel10232409333D

 33 35  0  0  1  0  0  0  0  0999 V2000
  187.7940  178.0030  142.8520 N   0  0  0  0  0  0  0  0  0  0  0  0
  190.1370  177.7830  143.1960 C   0  0  0  0  0  3  0  0  0  0  0  0
  183.7750  178.4960  141.5580 C   0  0  1  0  0  3  0  0  0  0  0  0
  189.4430  177.5850  144.4680 N   0  0  0  0  0  0  0  0  0  0  0  0
  183.9610  178.2320  143.0570 C   0  0  0  0  0  2  0  0  0  0  0  0
  189.0450  177.9620  142.1130 C   0  0  1  0  0  3  0  0  0  0  0  0
  185.3980  177.9980  143.4080 C   0  0  0  0  0  0  0  0  0  0  0  0
  185.7260  177.7830  144.6520 N   0  0  0  0  0  0  0  0  0  0  0  0
  184.7730  179.5420  141.0360 C   0  0  0  0  0  2  0  0  0  0  0  0
  186.2380  179.2950  141.4510 C   0  0  0  0  0  2  0  0  0  0  0  0
  186.4390  178.0400  142.3030 C   0  0  1  0  0  3  0  0  0  0  0  0
  188.0660  177.7310  144.2020 C   0  0  0  0  0  0  0  0  0  0  0  0
  187.0820  177.6010  145.0900 C   0  0  0  0  0  0  0  0  0  0  0  0
  187.3580  177.3070  146.5310 C   0  0  0  0  0  2  0  0  0  0  0  0
  188.1550  178.4280  147.1840 C   0  0  0  0  0  2  0  0  0  0  0  0
  189.2490  177.8700  148.0780 C   0  0  0  0  0  2  0  0  0  0  0  0
  192.0550  177.3490  148.1980 O   0  0  0  0  0  0  0  0  0  0  0  0
  191.9640  175.3990  146.8410 C   0  0  0  0  0  1  0  0  0  0  0  0
  191.3380  176.5600  147.5250 C   0  0  0  0  0  0  0  0  0  0  0  0
  189.9330  176.7810  147.3980 N   0  0  0  0  0  2  0  0  0  0  0  0
  189.0560  176.7620  141.1790 C   0  0  0  0  0  2  0  0  0  0  0  0
  190.4220  176.4070  140.8370 N   0  0  0  0  0  2  0  0  0  0  0  0
  190.7860  177.2190  139.6910 C   0  0  0  0  0  2  0  0  0  0  0  0
  191.3000  176.3250  138.5830 C   0  0  0  0  0  1  0  0  0  0  0  0
  183.9030  177.3060  140.8340 O   0  0  0  0  0  0  0  0  0  0  0  0
  183.0410  177.4520  139.7430 C   0  0  0  0  0  2  0  0  0  0  0  0
  183.6100  176.7360  138.5300 C   0  0  0  0  0  2  0  0  0  0  0  0
  184.8370  177.3640  138.1280 N   0  0  0  0  0  0  0  0  0  0  0  0
  185.3740  177.0620  137.0040 C   0  0  0  0  0  3  0  0  0  0  0  0
  186.6520  177.7040  136.5710 C   0  0  0  0  0  2  0  0  0  0  0  0
  187.7460  177.5060  137.6090 C   0  0  0  0  0  2  0  0  0  0  0  0
  188.0740  178.7290  138.1980 O   0  0  0  0  0  0  0  0  0  0  0  0
  188.9850  179.3080  137.3160 C   0  0  0  0  0  1  0  0  0  0  0  0
  1 12  1  0  0  0  0
  2  4  2  0  0  0  0
  3 25  1  6  0  0  0
  3  5  1  0  0  0  0
  5  7  1  0  0  0  0
  6 21  1  6  0  0  0
  6  1  1  0  0  0  0
  6  2  1  0  0  0  0
  7  8  2  0  0  0  0
  8 13  1  0  0  0  0
  9 10  1  0  0  0  0
  9  3  1  0  0  0  0
 11 10  1  1  0  0  0
 11  1  1  0  0  0  0
 11  7  1  0  0  0  0
 12  4  1  0  0  0  0
 12 13  2  0  0  0  0
 13 14  1  0  0  0  0
 14 15  1  0  0  0  0
 15 16  1  0  0  0  0
 18 19  1  0  0  0  0
 19 17  2  0  0  0  0
 20 19  1  0  0  0  0
 20 16  1  0  0  0  0
 22 21  1  0  0  0  0
 23 22  1  0  0  0  0
 24 23  1  0  0  0  0
 26 25  1  0  0  0  0
 27 26  1  0  0  0  0
 28 27  1  0  0  0  0
 29 28  2  0  0  0  0
 30 29  1  0  0  0  0
 30 31  1  0  0  0  0
 31 32  1  0  0  0  0
 33 32  1  0  0  0  0
M  END
>  <MODEL>
8

>  <REMARK>
 VINA RESULT:      -5.8      2.523      8.444
  Name = 
  14 active torsions:
  status: ('A' for Active; 'I' for Inactive)
    1  A    between atoms: C_1  and  N_23
    2  A    between atoms: C_4  and  O_27
    3  A    between atoms: C_8  and  C_13
    4  A    between atoms: C_8  and  C_31
    5  A    between atoms: C_10  and  C_14
    6  A    between atoms: C_10  and  C_33
    7  A    between atoms: C_12  and  C_15
    8  A    between atoms: C_12  and  N_23
    9  A    between atoms: C_13  and  O_20
   10  A    between atoms: C_14  and  C_17
   11  A    between atoms: N_16  and  C_17
   12  A    between atoms: C_21  and  C_26
   13  A    between atoms: C_21  and  N_30
   14  A    between atoms: C_26  and  O_27
                            x       y       z     vdW  Elec       q    Type
                         _______ _______ _______ _____ _____    ______ ____

>  <TORSDO>
F 14

$$$$
=
 OpenBabel10232409333D

 33 35  0  0  1  0  0  0  0  0999 V2000
  189.4040  176.8010  137.8600 N   0  0  0  0  0  0  0  0  0  0  0  0
  189.0850  176.2980  135.5570 C   0  0  0  0  0  3  0  0  0  0  0  0
  189.2680  177.7590  141.9990 C   0  0  1  0  0  3  0  0  0  0  0  0
  190.5110  176.2230  135.8730 N   0  0  0  0  0  0  0  0  0  0  0  0
  190.6670  177.5140  141.4210 C   0  0  0  0  0  2  0  0  0  0  0  0
  188.3460  176.5830  136.8870 C   0  0  1  0  0  3  0  0  0  0  0  0
  190.6110  177.1120  139.9790 C   0  0  0  0  0  0  0  0  0  0  0  0
  191.7240  176.8910  139.3340 N   0  0  0  0  0  0  0  0  0  0  0  0
  188.4220  178.6570  141.0820 C   0  0  0  0  0  2  0  0  0  0  0  0
  188.4210  178.2400  139.5970 C   0  0  0  0  0  2  0  0  0  0  0  0
  189.2570  176.9930  139.3020 C   0  0  1  0  0  3  0  0  0  0  0  0
  190.6360  176.5340  137.2430 C   0  0  0  0  0  0  0  0  0  0  0  0
  191.7720  176.5520  137.9380 C   0  0  0  0  0  0  0  0  0  0  0  0
  193.0910  176.2650  137.2940 C   0  0  0  0  0  2  0  0  0  0  0  0
  193.4220  174.7800  137.3430 C   0  0  0  0  0  2  0  0  0  0  0  0
  194.8240  174.5160  136.8200 C   0  0  0  0  0  2  0  0  0  0  0  0
  195.6000  173.1800  139.2220 O   0  0  0  0  0  0  0  0  0  0  0  0
  197.2150  174.8060  139.8540 C   0  0  0  0  0  1  0  0  0  0  0  0
  196.1680  174.2700  138.9440 C   0  0  0  0  0  0  0  0  0  0  0  0
  195.8050  175.0050  137.7750 N   0  0  0  0  0  2  0  0  0  0  0  0
  187.5220  175.3660  137.2800 C   0  0  0  0  0  2  0  0  0  0  0  0
  186.1150  175.6060  137.0120 N   0  0  0  0  0  2  0  0  0  0  0  0
  185.7290  174.6760  135.9680 C   0  0  0  0  0  2  0  0  0  0  0  0
  186.0950  173.2680  136.3860 C   0  0  0  0  0  1  0  0  0  0  0  0
  188.6130  176.5430  142.2190 O   0  0  0  0  0  0  0  0  0  0  0  0
  188.3640  176.5110  143.5950 C   0  0  0  0  0  2  0  0  0  0  0  0
  186.9540  176.9990  143.8800 C   0  0  0  0  0  2  0  0  0  0  0  0
  186.8120  177.2790  145.2820 N   0  0  0  0  0  0  0  0  0  0  0  0
  187.7750  177.8290  145.9260 C   0  0  0  0  0  3  0  0  0  0  0  0
  187.6450  178.1260  147.3850 C   0  0  0  0  0  2  0  0  0  0  0  0
  188.8580  177.6280  148.1560 C   0  0  0  0  0  2  0  0  0  0  0  0
  189.4720  176.5840  147.4610 O   0  0  0  0  0  0  0  0  0  0  0  0
  190.8260  176.9140  147.4590 C   0  0  0  0  0  1  0  0  0  0  0  0
  1 11  1  0  0  0  0
  2  4  2  0  0  0  0
  2  6  1  0  0  0  0
  3 25  1  6  0  0  0
  4 12  1  0  0  0  0
  5  3  1  0  0  0  0
  6 21  1  1  0  0  0
  6  1  1  0  0  0  0
  7  5  1  0  0  0  0
  8  7  2  0  0  0  0
  9  3  1  0  0  0  0
 10  9  1  0  0  0  0
 11 10  1  6  0  0  0
 11  7  1  0  0  0  0
 12  1  1  0  0  0  0
 12 13  2  0  0  0  0
 13  8  1  0  0  0  0
 14 15  1  0  0  0  0
 14 13  1  0  0  0  0
 16 15  1  0  0  0  0
 16 20  1  0  0  0  0
 19 17  2  0  0  0  0
 19 18  1  0  0  0  0
 20 19  1  0  0  0  0
 22 21  1  0  0  0  0
 23 24  1  0  0  0  0
 23 22  1  0  0  0  0
 25 26  1  0  0  0  0
 26 27  1  0  0  0  0
 27 28  1  0  0  0  0
 28 29  2  0  0  0  0
 29 30  1  0  0  0  0
 30 31  1  0  0  0  0
 32 31  1  0  0  0  0
 33 32  1  0  0  0  0
M  END
>  <MODEL>
9

>  <REMARK>
 VINA RESULT:      -5.7      2.886      5.009
  Name = 
  14 active torsions:
  status: ('A' for Active; 'I' for Inactive)
    1  A    between atoms: C_1  and  N_23
    2  A    between atoms: C_4  and  O_27
    3  A    between atoms: C_8  and  C_13
    4  A    between atoms: C_8  and  C_31
    5  A    between atoms: C_10  and  C_14
    6  A    between atoms: C_10  and  C_33
    7  A    between atoms: C_12  and  C_15
    8  A    between atoms: C_12  and  N_23
    9  A    between atoms: C_13  and  O_20
   10  A    between atoms: C_14  and  C_17
   11  A    between atoms: N_16  and  C_17
   12  A    between atoms: C_21  and  C_26
   13  A    between atoms: C_21  and  N_30
   14  A    between atoms: C_26  and  O_27
                            x       y       z     vdW  Elec       q    Type
                         _______ _______ _______ _____ _____    ______ ____

>  <TORSDO>
F 14

$$$$
