=
 OpenBabel10222422123D

 70 76  0  0  1  0  0  0  0  0999 V2000
  187.4150  177.0780  144.4010 C   0  0  1  0  0  3  0  0  0  0  0  0
  189.8960  177.3240  144.2550 C   0  0  0  0  0  0  0  0  0  0  0  0
  191.2350  177.7190  144.7930 C   0  0  0  0  0  2  0  0  0  0  0  0
  188.8520  177.3820  146.5120 C   0  0  0  0  0  3  0  0  0  0  0  0
  188.5040  177.0420  142.2090 C   0  0  0  0  0  0  0  0  0  0  0  0
  187.4280  176.9990  142.9320 N   0  0  0  0  0  0  0  0  0  0  0  0
  189.7830  177.1910  142.8380 N   0  0  0  0  0  2  0  0  0  0  0  0
  188.7940  177.2710  145.0320 C   0  0  0  0  0  0  0  0  0  0  0  0
  191.7650  176.7320  145.7830 C   0  0  0  0  0  3  0  0  0  0  0  0
  189.8570  177.0380  147.3240 C   0  0  0  0  0  3  0  0  0  0  0  0
  191.1660  176.4620  146.9480 C   0  0  0  0  0  0  0  0  0  0  0  0
  185.6220  177.6900  146.0670 C   0  0  0  0  0  1  0  0  0  0  0  0
  186.3790  178.1320  144.8280 C   0  0  2  0  0  3  0  0  0  0  0  0
  185.4200  178.4650  143.6870 C   0  0  0  0  0  2  0  0  0  0  0  0
  184.2810  179.3340  144.1210 C   0  0  0  0  0  0  0  0  0  0  0  0
  184.5200  180.3420  144.8390 O   0  0  0  0  0  0  0  0  0  0  0  0
  182.9010  179.0610  143.6920 C   0  0  0  0  0  0  0  0  0  0  0  0
  182.0810  178.5300  144.4880 O   0  0  0  0  0  0  0  0  0  0  0  0
  182.4420  179.4370  142.3180 C   0  0  0  0  0  2  0  0  0  0  0  0
  182.0180  178.2060  141.5260 C   0  0  0  0  0  2  0  0  0  0  0  0
  182.5580  178.2720  140.0980 C   0  0  2  0  0  3  0  0  0  0  0  0
  183.8820  179.0150  140.1200 C   0  0  0  0  0  1  0  0  0  0  0  0
  181.3830  180.5700  139.2840 O   0  0  0  0  0  0  0  0  0  0  0  0
  181.3860  179.0910  139.0060 S   0  0  0  0  0  0  0  0  0  0  0  0
  180.0050  178.5350  139.2290 O   0  0  0  0  0  0  0  0  0  0  0  0
  181.8480  178.8560  137.2930 C   0  0  1  0  0  3  0  0  0  0  0  0
  182.4200  177.4580  137.0910 C   0  0  0  0  0  2  0  0  0  0  0  0
  180.6340  179.0870  136.3810 C   0  0  2  0  0  3  0  0  0  0  0  0
  182.7030  177.1890  135.5980 C   0  0  2  0  0  3  0  0  0  0  0  0
  180.5890  178.0790  135.2200 C   0  0  0  0  0  2  0  0  0  0  0  0
  181.8770  177.8940  134.6780 O   0  0  0  0  0  0  0  0  0  0  0  0
  182.8190  175.7000  135.2400 C   0  0  2  0  0  0  0  0  0  0  0  0
  181.6530  174.9070  134.7660 C   0  0  0  0  0  2  0  0  0  0  0  0
  182.0380  174.9270  136.1190 O   0  0  0  0  0  0  0  0  0  0  0  0
  184.1870  175.1620  135.1480 N   0  0  0  0  0  2  0  0  0  0  0  0
  184.7080  174.7160  136.4390 C   0  0  2  0  0  3  0  0  0  0  0  0
  185.4440  175.7500  137.0280 O   0  0  0  0  0  1  0  0  0  0  0  0
  185.8020  172.8210  137.6330 C   0  0  0  0  0  1  0  0  0  0  0  0
  185.5660  173.4660  136.2740 C   0  0  2  0  0  3  0  0  0  0  0  0
  188.0270  173.0020  136.2260 C   0  0  0  0  0  1  0  0  0  0  0  0
  186.8920  173.7840  135.5920 C   0  0  0  0  0  2  0  0  0  0  0  0
  180.4750  181.4170  136.9390 O   0  0  0  0  0  1  0  0  0  0  0  0
  180.6060  180.5230  135.8780 C   0  0  0  0  0  2  0  0  0  0  0  0
  191.7730  175.6160  147.8830 O   0  0  0  0  0  0  0  0  0  0  0  0
  192.9590  175.9690  148.5950 C   0  0  0  0  0  1  0  0  0  0  0  0
  188.3710  177.0230  140.7180 C   0  0  0  0  0  2  0  0  0  0  0  0
  189.7970  178.1150  138.9130 N   0  0  0  0  0  2  0  0  0  0  0  0
  188.9290  178.2410  140.0420 C   0  0  0  0  0  0  0  0  0  0  0  0
  188.5970  179.3880  140.4440 O   0  0  0  0  0  0  0  0  0  0  0  0
  190.1930  176.8190  138.3790 C   0  0  0  0  0  2  0  0  0  0  0  0
  192.9850  174.8060  135.0720 N   0  0  0  0  0  2  0  0  0  0  0  0
  189.2060  176.5460  136.0750 C   0  0  1  0  0  3  0  0  0  0  0  0
  190.4680  176.9150  136.8770 C   0  0  2  0  0  3  0  0  0  0  0  0
  188.1870  177.6610  136.1710 C   0  0  0  0  0  1  0  0  0  0  0  0
  193.2500  176.1800  137.3520 S   0  0  0  0  0  0  0  0  0  0  0  0
  191.7270  175.3890  135.3600 C   0  0  0  0  0  0  0  0  0  0  0  0
  190.5400  175.1810  134.4640 C   0  0  0  0  0  2  0  0  0  0  0  0
  194.0320  175.3120  135.9450 C   0  0  1  0  0  3  0  0  0  0  0  0
  191.6750  176.0930  136.4800 C   0  0  0  0  0  0  0  0  0  0  0  0
  189.5490  176.3290  134.6090 C   0  0  0  0  0  2  0  0  0  0  0  0
  195.0380  174.2200  136.3140 C   0  0  0  0  0  2  0  0  0  0  0  0
  196.4080  174.2140  135.6190 C   0  0  2  0  0  0  0  0  0  0  0  0
  196.7940  172.7510  135.3330 C   0  0  0  0  0  2  0  0  0  0  0  0
  197.4800  174.8770  136.4680 C   0  0  0  0  0  0  0  0  0  0  0  0
  196.3010  171.7860  137.4930 O   0  0  0  0  0  1  0  0  0  0  0  0
  197.8110  176.0370  136.2610 O   0  0  0  0  0  0  0  0  0  0  0  0
  198.0870  174.1330  137.6220 C   0  0  0  0  0  2  0  0  0  0  0  0
  198.4950  172.7230  137.1890 C   0  0  0  0  0  2  0  0  0  0  0  0
  197.3190  171.9800  136.5560 C   0  0  2  0  0  3  0  0  0  0  0  0
  196.2990  174.8690  134.3950 O   0  0  0  0  0  1  0  0  0  0  0  0
  1 13  1  6  0  0  0
  1  8  1  0  0  0  0
  2  3  1  0  0  0  0
  2  8  2  0  0  0  0
  3  9  1  0  0  0  0
  4 10  2  0  0  0  0
  5  7  1  0  0  0  0
  5  6  2  0  0  0  0
  6  1  1  0  0  0  0
  7  2  1  0  0  0  0
  8  4  1  0  0  0  0
  9 11  2  0  0  0  0
 11 10  1  0  0  0  0
 11 44  1  0  0  0  0
 13 12  1  1  0  0  0
 14 15  1  0  0  0  0
 14 13  1  0  0  0  0
 15 16  2  0  0  0  0
 17 15  1  0  0  0  0
 17 18  2  0  0  0  0
 19 17  1  0  0  0  0
 20 19  1  0  0  0  0
 21 22  1  1  0  0  0
 21 20  1  0  0  0  0
 24 25  2  0  0  0  0
 24 23  2  0  0  0  0
 24 21  1  0  0  0  0
 26 24  1  1  0  0  0
 27 26  1  0  0  0  0
 28 43  1  6  0  0  0
 28 26  1  0  0  0  0
 29 27  1  1  0  0  0
 30 28  1  0  0  0  0
 31 30  1  0  0  0  0
 31 29  1  0  0  0  0
 32 35  1  6  0  0  0
 32 29  1  0  0  0  0
 32 34  1  0  0  0  0
 33 32  1  0  0  0  0
 33 34  1  0  0  0  0
 35 36  1  0  0  0  0
 36 37  1  6  0  0  0
 39 36  1  0  0  0  0
 39 38  1  1  0  0  0
 41 40  1  0  0  0  0
 41 39  1  0  0  0  0
 43 42  1  0  0  0  0
 44 45  1  0  0  0  0
 46  5  1  0  0  0  0
 47 48  1  0  0  0  0
 48 49  2  0  0  0  0
 48 46  1  0  0  0  0
 50 47  1  0  0  0  0
 51 56  1  0  0  0  0
 51 58  1  0  0  0  0
 52 54  1  6  0  0  0
 52 53  1  0  0  0  0
 53 50  1  1  0  0  0
 56 59  2  0  0  0  0
 57 60  1  0  0  0  0
 57 56  1  0  0  0  0
 58 61  1  1  0  0  0
 58 55  1  0  0  0  0
 59 53  1  0  0  0  0
 59 55  1  0  0  0  0
 60 52  1  0  0  0  0
 62 70  1  6  0  0  0
 62 61  1  0  0  0  0
 62 64  1  0  0  0  0
 63 62  1  0  0  0  0
 63 69  1  0  0  0  0
 64 67  1  0  0  0  0
 66 64  2  0  0  0  0
 68 67  1  0  0  0  0
 69 68  1  0  0  0  0
 69 65  1  1  0  0  0
M  END
>  <MODEL>
1

>  <REMARK>
 VINA RESULT:      -7.3      0.000      0.000
  Name = 
  22 active torsions:
  status: ('A' for Active; 'I' for Inactive)
    1  A    between atoms: C_1  and  S_58
    2  A    between atoms: C_2  and  C_64
    3  A    between atoms: C_4  and  C_41
    4  A    between atoms: C_4  and  N_43
    5  A    between atoms: C_7  and  C_31
    6  A    between atoms: C_7  and  C_45
    7  A    between atoms: C_9  and  C_25
    8  A    between atoms: C_11  and  C_23
    9  A    between atoms: C_11  and  C_32
   10  A    between atoms: C_16  and  C_27
   11  A    between atoms: C_17  and  C_29
   12  A    between atoms: C_19  and  C_54
   13  A    between atoms: N_22  and  C_49
   14  A    between atoms: C_23  and  C_64
   15  A    between atoms: C_25  and  C_50
   16  A    between atoms: C_26  and  C_49
   17  A    between atoms: C_27  and  C_35
   18  A    between atoms: C_29  and  C_60
   19  A    between atoms: C_31  and  C_32
   20  A    between atoms: C_35  and  N_43
   21  A    between atoms: O_39  and  C_70
   22  A    between atoms: C_45  and  S_58
                            x       y       z     vdW  Elec       q    Type
                         _______ _______ _______ _____ _____    ______ ____

>  <TORSDO>
F 22

$$$$
=
 OpenBabel10222422123D

 70 76  0  0  1  0  0  0  0  0999 V2000
  187.8590  177.1580  143.7340 C   0  0  1  0  0  3  0  0  0  0  0  0
  190.2440  177.8190  144.0760 C   0  0  0  0  0  0  0  0  0  0  0  0
  191.4000  178.2650  144.9130 C   0  0  0  0  0  2  0  0  0  0  0  0
  188.9320  177.1220  146.0710 C   0  0  0  0  0  3  0  0  0  0  0  0
  189.2030  177.8660  141.8140 C   0  0  0  0  0  0  0  0  0  0  0  0
  188.0740  177.4670  142.3120 N   0  0  0  0  0  0  0  0  0  0  0  0
  190.3380  178.0440  142.6700 N   0  0  0  0  0  2  0  0  0  0  0  0
  189.0840  177.3930  144.6190 C   0  0  0  0  0  0  0  0  0  0  0  0
  191.9840  177.1490  145.7200 C   0  0  0  0  0  3  0  0  0  0  0  0
  189.8740  176.7400  146.9410 C   0  0  0  0  0  3  0  0  0  0  0  0
  191.3070  176.4950  146.6690 C   0  0  0  0  0  0  0  0  0  0  0  0
  186.1640  177.4040  145.5860 C   0  0  0  0  0  1  0  0  0  0  0  0
  186.5930  177.8870  144.2120 C   0  0  2  0  0  3  0  0  0  0  0  0
  185.4560  177.7500  143.2010 C   0  0  0  0  0  2  0  0  0  0  0  0
  184.8070  179.0600  142.8770 C   0  0  0  0  0  0  0  0  0  0  0  0
  185.4720  179.9360  142.2630 O   0  0  0  0  0  0  0  0  0  0  0  0
  183.4010  179.3250  143.2200 C   0  0  0  0  0  0  0  0  0  0  0  0
  183.1060  180.2540  144.0180 O   0  0  0  0  0  0  0  0  0  0  0  0
  182.3010  178.5180  142.6060 C   0  0  0  0  0  2  0  0  0  0  0  0
  182.4590  178.4390  141.0920 C   0  0  0  0  0  2  0  0  0  0  0  0
  181.8280  179.6580  140.4190 C   0  0  2  0  0  3  0  0  0  0  0  0
  180.3760  179.3370  140.1110 C   0  0  0  0  0  1  0  0  0  0  0  0
  184.1990  180.0030  139.1610 O   0  0  0  0  0  0  0  0  0  0  0  0
  182.7170  180.0920  138.9170 S   0  0  0  0  0  0  0  0  0  0  0  0
  182.3610  181.4940  138.4980 O   0  0  0  0  0  0  0  0  0  0  0  0
  182.3090  178.9600  137.5930 C   0  0  1  0  0  3  0  0  0  0  0  0
  182.9690  177.6080  137.8360 C   0  0  0  0  0  2  0  0  0  0  0  0
  180.7850  178.8100  137.4740 C   0  0  2  0  0  3  0  0  0  0  0  0
  182.5260  176.5790  136.7750 C   0  0  2  0  0  3  0  0  0  0  0  0
  180.3730  177.3580  137.1780 C   0  0  0  0  0  2  0  0  0  0  0  0
  181.2330  176.7880  136.2180 O   0  0  0  0  0  0  0  0  0  0  0  0
  182.7410  175.1160  137.1920 C   0  0  2  0  0  0  0  0  0  0  0  0
  183.6690  174.7350  138.2900 C   0  0  0  0  0  2  0  0  0  0  0  0
  184.0710  174.7310  136.9420 O   0  0  0  0  0  0  0  0  0  0  0  0
  181.7990  174.1370  136.6230 N   0  0  0  0  0  2  0  0  0  0  0  0
  182.1330  173.7600  135.2500 C   0  0  2  0  0  3  0  0  0  0  0  0
  181.2960  174.4430  134.3620 O   0  0  0  0  0  1  0  0  0  0  0  0
  180.9050  171.7080  135.9490 C   0  0  0  0  0  1  0  0  0  0  0  0
  182.0140  172.2520  135.0590 C   0  0  2  0  0  3  0  0  0  0  0  0
  183.3370  170.9630  136.7510 C   0  0  0  0  0  1  0  0  0  0  0  0
  183.3340  171.5450  135.3500 C   0  0  0  0  0  2  0  0  0  0  0  0
  180.5490  179.3490  135.1460 O   0  0  0  0  0  1  0  0  0  0  0  0
  180.2300  179.7730  136.4340 C   0  0  0  0  0  2  0  0  0  0  0  0
  191.9440  175.5400  147.4710 O   0  0  0  0  0  0  0  0  0  0  0  0
  192.7600  175.8850  148.5900 C   0  0  0  0  0  1  0  0  0  0  0  0
  189.2660  178.2160  140.3600 C   0  0  0  0  0  2  0  0  0  0  0  0
  187.9400  177.6350  138.2650 N   0  0  0  0  0  2  0  0  0  0  0  0
  187.9640  178.0430  139.6350 C   0  0  0  0  0  0  0  0  0  0  0  0
  186.8760  178.2150  140.2490 O   0  0  0  0  0  0  0  0  0  0  0  0
  189.1600  177.3890  137.5080 C   0  0  0  0  0  2  0  0  0  0  0  0
  190.8540  173.2850  135.7560 N   0  0  0  0  0  2  0  0  0  0  0  0
  187.4800  175.8180  136.4730 C   0  0  1  0  0  3  0  0  0  0  0  0
  188.8920  176.4210  136.3540 C   0  0  2  0  0  3  0  0  0  0  0  0
  186.4410  176.8590  136.1170 C   0  0  0  0  0  1  0  0  0  0  0  0
  191.7310  175.7600  136.2670 S   0  0  0  0  0  0  0  0  0  0  0  0
  189.7150  174.1010  135.9620 C   0  0  0  0  0  0  0  0  0  0  0  0
  188.3220  173.5420  135.8860 C   0  0  0  0  0  2  0  0  0  0  0  0
  192.0740  174.0690  135.6610 C   0  0  1  0  0  3  0  0  0  0  0  0
  189.9730  175.3670  136.2520 C   0  0  0  0  0  0  0  0  0  0  0  0
  187.3230  174.6340  135.5320 C   0  0  0  0  0  2  0  0  0  0  0  0
  193.2580  173.3550  136.3150 C   0  0  0  0  0  2  0  0  0  0  0  0
  194.6770  173.6740  135.8220 C   0  0  2  0  0  0  0  0  0  0  0  0
  195.1580  172.4970  134.9520 C   0  0  0  0  0  2  0  0  0  0  0  0
  195.6440  173.8970  136.9740 C   0  0  0  0  0  0  0  0  0  0  0  0
  194.5450  170.6630  136.4020 O   0  0  0  0  0  1  0  0  0  0  0  0
  195.9310  175.0310  137.3360 O   0  0  0  0  0  0  0  0  0  0  0  0
  196.1950  172.7210  137.7270 C   0  0  0  0  0  2  0  0  0  0  0  0
  196.7060  171.6580  136.7530 C   0  0  0  0  0  2  0  0  0  0  0  0
  195.6230  171.2660  135.7490 C   0  0  2  0  0  3  0  0  0  0  0  0
  194.6330  174.8060  135.0120 O   0  0  0  0  0  1  0  0  0  0  0  0
  1 13  1  1  0  0  0
  1  8  1  0  0  0  0
  2  8  2  0  0  0  0
  2  3  1  0  0  0  0
  3  9  1  0  0  0  0
  4 10  2  0  0  0  0
  5  6  2  0  0  0  0
  5  7  1  0  0  0  0
  6  1  1  0  0  0  0
  7  2  1  0  0  0  0
  8  4  1  0  0  0  0
  9 11  2  0  0  0  0
 11 10  1  0  0  0  0
 11 44  1  0  0  0  0
 13 12  1  1  0  0  0
 14 13  1  0  0  0  0
 15 14  1  0  0  0  0
 15 17  1  0  0  0  0
 16 15  2  0  0  0  0
 17 18  2  0  0  0  0
 19 17  1  0  0  0  0
 20 19  1  0  0  0  0
 21 22  1  6  0  0  0
 21 20  1  0  0  0  0
 24 23  2  0  0  0  0
 24 21  1  0  0  0  0
 25 24  2  0  0  0  0
 26 27  1  0  0  0  0
 26 24  1  1  0  0  0
 28 43  1  6  0  0  0
 28 26  1  0  0  0  0
 29 32  1  0  0  0  0
 29 27  1  1  0  0  0
 30 28  1  0  0  0  0
 31 29  1  0  0  0  0
 31 30  1  0  0  0  0
 32 35  1  6  0  0  0
 32 33  1  0  0  0  0
 34 32  1  0  0  0  0
 34 33  1  0  0  0  0
 36 37  1  6  0  0  0
 36 35  1  0  0  0  0
 39 36  1  0  0  0  0
 39 41  1  0  0  0  0
 39 38  1  1  0  0  0
 41 40  1  0  0  0  0
 42 43  1  0  0  0  0
 44 45  1  0  0  0  0
 46  5  1  0  0  0  0
 47 48  1  0  0  0  0
 48 49  2  0  0  0  0
 48 46  1  0  0  0  0
 50 47  1  0  0  0  0
 51 56  1  0  0  0  0
 52 54  1  6  0  0  0
 53 52  1  0  0  0  0
 53 50  1  1  0  0  0
 56 59  2  0  0  0  0
 57 56  1  0  0  0  0
 58 51  1  0  0  0  0
 58 55  1  0  0  0  0
 58 61  1  1  0  0  0
 59 55  1  0  0  0  0
 59 53  1  0  0  0  0
 60 57  1  0  0  0  0
 60 52  1  0  0  0  0
 62 70  1  6  0  0  0
 62 61  1  0  0  0  0
 62 64  1  0  0  0  0
 63 69  1  0  0  0  0
 63 62  1  0  0  0  0
 64 66  2  0  0  0  0
 64 67  1  0  0  0  0
 68 67  1  0  0  0  0
 69 65  1  1  0  0  0
 69 68  1  0  0  0  0
M  END
>  <MODEL>
2

>  <REMARK>
 VINA RESULT:      -5.9      1.669      2.252
  Name = 
  22 active torsions:
  status: ('A' for Active; 'I' for Inactive)
    1  A    between atoms: C_1  and  S_58
    2  A    between atoms: C_2  and  C_64
    3  A    between atoms: C_4  and  C_41
    4  A    between atoms: C_4  and  N_43
    5  A    between atoms: C_7  and  C_31
    6  A    between atoms: C_7  and  C_45
    7  A    between atoms: C_9  and  C_25
    8  A    between atoms: C_11  and  C_23
    9  A    between atoms: C_11  and  C_32
   10  A    between atoms: C_16  and  C_27
   11  A    between atoms: C_17  and  C_29
   12  A    between atoms: C_19  and  C_54
   13  A    between atoms: N_22  and  C_49
   14  A    between atoms: C_23  and  C_64
   15  A    between atoms: C_25  and  C_50
   16  A    between atoms: C_26  and  C_49
   17  A    between atoms: C_27  and  C_35
   18  A    between atoms: C_29  and  C_60
   19  A    between atoms: C_31  and  C_32
   20  A    between atoms: C_35  and  N_43
   21  A    between atoms: O_39  and  C_70
   22  A    between atoms: C_45  and  S_58
                            x       y       z     vdW  Elec       q    Type
                         _______ _______ _______ _____ _____    ______ ____

>  <TORSDO>
F 22

$$$$
=
 OpenBabel10222422123D

 70 76  0  0  1  0  0  0  0  0999 V2000
  188.0230  176.5760  143.8530 C   0  0  1  0  0  3  0  0  0  0  0  0
  190.4680  176.9510  144.1970 C   0  0  0  0  0  0  0  0  0  0  0  0
  191.6480  177.4650  144.9610 C   0  0  0  0  0  2  0  0  0  0  0  0
  188.9740  177.1280  146.1780 C   0  0  0  0  0  3  0  0  0  0  0  0
  189.5460  176.4290  141.9430 C   0  0  0  0  0  0  0  0  0  0  0  0
  188.3460  176.3810  142.4320 N   0  0  0  0  0  0  0  0  0  0  0  0
  190.6590  176.7010  142.8050 N   0  0  0  0  0  2  0  0  0  0  0  0
  189.2310  176.8970  144.7340 C   0  0  0  0  0  0  0  0  0  0  0  0
  191.9990  176.5900  146.1220 C   0  0  0  0  0  3  0  0  0  0  0  0
  189.8010  176.9070  147.2070 C   0  0  0  0  0  3  0  0  0  0  0  0
  191.1810  176.3800  147.1590 C   0  0  0  0  0  0  0  0  0  0  0  0
  187.1720  178.8440  143.1470 C   0  0  0  0  0  1  0  0  0  0  0  0
  186.8790  177.5980  143.9640 C   0  0  2  0  0  3  0  0  0  0  0  0
  186.5860  177.9510  145.4200 C   0  0  0  0  0  2  0  0  0  0  0  0
  185.4140  178.8710  145.5700 C   0  0  0  0  0  0  0  0  0  0  0  0
  185.4900  179.8290  146.3850 O   0  0  0  0  0  0  0  0  0  0  0  0
  184.2000  178.7060  144.7560 C   0  0  0  0  0  0  0  0  0  0  0  0
  183.0850  179.1000  145.1910 O   0  0  0  0  0  0  0  0  0  0  0  0
  184.2740  178.0990  143.3910 C   0  0  0  0  0  2  0  0  0  0  0  0
  183.5050  178.9350  142.3760 C   0  0  0  0  0  2  0  0  0  0  0  0
  183.5960  178.3120  140.9830 C   0  0  2  0  0  3  0  0  0  0  0  0
  184.7190  178.9980  140.2240 C   0  0  0  0  0  1  0  0  0  0  0  0
  181.4190  179.8160  140.4150 O   0  0  0  0  0  0  0  0  0  0  0  0
  182.0370  178.4800  140.1020 S   0  0  0  0  0  0  0  0  0  0  0  0
  181.0940  177.3820  140.5170 O   0  0  0  0  0  0  0  0  0  0  0  0
  182.2980  178.3960  138.3340 C   0  0  1  0  0  3  0  0  0  0  0  0
  182.8810  177.0410  137.9530 C   0  0  0  0  0  2  0  0  0  0  0  0
  180.9780  178.6520  137.5910 C   0  0  2  0  0  3  0  0  0  0  0  0
  182.9920  176.9000  136.4200 C   0  0  2  0  0  3  0  0  0  0  0  0
  180.8240  177.7360  136.3650 C   0  0  0  0  0  2  0  0  0  0  0  0
  182.0430  177.6420  135.6630 O   0  0  0  0  0  0  0  0  0  0  0  0
  183.1070  175.4490  135.9310 C   0  0  2  0  0  0  0  0  0  0  0  0
  181.9310  174.6850  135.4360 C   0  0  0  0  0  2  0  0  0  0  0  0
  182.3690  174.5940  136.7700 O   0  0  0  0  0  0  0  0  0  0  0  0
  184.4760  174.9380  135.7400 N   0  0  0  0  0  2  0  0  0  0  0  0
  185.0380  174.3550  136.9580 C   0  0  2  0  0  3  0  0  0  0  0  0
  186.1240  175.1270  137.3860 O   0  0  0  0  0  1  0  0  0  0  0  0
  186.0050  172.7580  135.3070 C   0  0  0  0  0  1  0  0  0  0  0  0
  185.4600  172.9090  136.7210 C   0  0  2  0  0  3  0  0  0  0  0  0
  183.9630  171.1860  135.6880 C   0  0  0  0  0  1  0  0  0  0  0  0
  184.3030  171.9430  136.9580 C   0  0  0  0  0  2  0  0  0  0  0  0
  180.9310  180.2850  135.8310 O   0  0  0  0  0  1  0  0  0  0  0  0
  180.8490  180.1200  137.2130 C   0  0  0  0  0  2  0  0  0  0  0  0
  191.6130  175.6460  148.2710 O   0  0  0  0  0  0  0  0  0  0  0  0
  192.9050  175.8100  148.8550 C   0  0  0  0  0  1  0  0  0  0  0  0
  189.7290  176.2840  140.4640 C   0  0  0  0  0  2  0  0  0  0  0  0
  189.9430  178.1410  138.7340 N   0  0  0  0  0  2  0  0  0  0  0  0
  190.4940  177.4100  139.8330 C   0  0  0  0  0  0  0  0  0  0  0  0
  191.6150  177.7470  140.3010 O   0  0  0  0  0  0  0  0  0  0  0  0
  188.6400  177.8230  138.1680 C   0  0  0  0  0  2  0  0  0  0  0  0
  190.5080  175.2100  134.6370 N   0  0  0  0  0  2  0  0  0  0  0  0
  187.2930  177.6600  136.0420 C   0  0  1  0  0  3  0  0  0  0  0  0
  188.7040  177.8140  136.6390 C   0  0  2  0  0  3  0  0  0  0  0  0
  186.5170  178.9490  136.2090 C   0  0  0  0  0  1  0  0  0  0  0  0
  191.3470  176.5880  136.7700 S   0  0  0  0  0  0  0  0  0  0  0  0
  189.4320  176.0280  135.0590 C   0  0  0  0  0  0  0  0  0  0  0  0
  188.1080  176.0150  134.3490 C   0  0  0  0  0  2  0  0  0  0  0  0
  191.7450  175.5410  135.3250 C   0  0  1  0  0  3  0  0  0  0  0  0
  189.6720  176.7680  136.1300 C   0  0  0  0  0  0  0  0  0  0  0  0
  187.3730  177.3320  134.5590 C   0  0  0  0  0  2  0  0  0  0  0  0
  192.5810  174.2940  135.6170 C   0  0  0  0  0  2  0  0  0  0  0  0
  194.0980  174.4490  135.8030 C   0  0  2  0  0  0  0  0  0  0  0  0
  194.7790  173.1740  135.2730 C   0  0  0  0  0  2  0  0  0  0  0  0
  194.4730  174.6700  137.2600 C   0  0  0  0  0  0  0  0  0  0  0  0
  193.3870  171.5130  136.3420 O   0  0  0  0  0  1  0  0  0  0  0  0
  194.6950  175.7980  137.6820 O   0  0  0  0  0  0  0  0  0  0  0  0
  194.4980  173.5100  138.2110 C   0  0  0  0  0  2  0  0  0  0  0  0
  195.2660  172.3370  137.5980 C   0  0  0  0  0  2  0  0  0  0  0  0
  194.7020  171.9680  136.2260 C   0  0  2  0  0  3  0  0  0  0  0  0
  194.5430  175.5180  135.0300 O   0  0  0  0  0  1  0  0  0  0  0  0
  1 13  1  6  0  0  0
  1  8  1  0  0  0  0
  2  8  2  0  0  0  0
  2  3  1  0  0  0  0
  3  9  1  0  0  0  0
  4 10  2  0  0  0  0
  5  6  2  0  0  0  0
  5  7  1  0  0  0  0
  6  1  1  0  0  0  0
  7  2  1  0  0  0  0
  8  4  1  0  0  0  0
  9 11  2  0  0  0  0
 11 10  1  0  0  0  0
 11 44  1  0  0  0  0
 13 12  1  6  0  0  0
 13 14  1  0  0  0  0
 14 15  1  0  0  0  0
 15 16  2  0  0  0  0
 17 18  2  0  0  0  0
 17 15  1  0  0  0  0
 19 17  1  0  0  0  0
 20 19  1  0  0  0  0
 21 22  1  6  0  0  0
 21 20  1  0  0  0  0
 24 23  2  0  0  0  0
 24 25  2  0  0  0  0
 24 21  1  0  0  0  0
 26 24  1  1  0  0  0
 27 26  1  0  0  0  0
 28 43  1  6  0  0  0
 28 26  1  0  0  0  0
 29 27  1  1  0  0  0
 30 28  1  0  0  0  0
 31 30  1  0  0  0  0
 31 29  1  0  0  0  0
 32 35  1  6  0  0  0
 32 29  1  0  0  0  0
 32 34  1  0  0  0  0
 33 32  1  0  0  0  0
 33 34  1  0  0  0  0
 35 36  1  0  0  0  0
 36 37  1  6  0  0  0
 39 38  1  6  0  0  0
 39 41  1  0  0  0  0
 39 36  1  0  0  0  0
 40 41  1  0  0  0  0
 42 43  1  0  0  0  0
 44 45  1  0  0  0  0
 46  5  1  0  0  0  0
 47 48  1  0  0  0  0
 48 49  2  0  0  0  0
 48 46  1  0  0  0  0
 50 47  1  0  0  0  0
 51 56  1  0  0  0  0
 51 58  1  0  0  0  0
 52 54  1  6  0  0  0
 52 53  1  0  0  0  0
 53 50  1  1  0  0  0
 56 59  2  0  0  0  0
 57 60  1  0  0  0  0
 57 56  1  0  0  0  0
 58 61  1  1  0  0  0
 58 55  1  0  0  0  0
 59 53  1  0  0  0  0
 59 55  1  0  0  0  0
 60 52  1  0  0  0  0
 61 62  1  0  0  0  0
 62 70  1  6  0  0  0
 62 64  1  0  0  0  0
 63 62  1  0  0  0  0
 63 69  1  0  0  0  0
 64 66  2  0  0  0  0
 64 67  1  0  0  0  0
 68 67  1  0  0  0  0
 69 65  1  1  0  0  0
 69 68  1  0  0  0  0
M  END
>  <MODEL>
3

>  <REMARK>
 VINA RESULT:      -5.8      1.544      1.956
  Name = 
  22 active torsions:
  status: ('A' for Active; 'I' for Inactive)
    1  A    between atoms: C_1  and  S_58
    2  A    between atoms: C_2  and  C_64
    3  A    between atoms: C_4  and  C_41
    4  A    between atoms: C_4  and  N_43
    5  A    between atoms: C_7  and  C_31
    6  A    between atoms: C_7  and  C_45
    7  A    between atoms: C_9  and  C_25
    8  A    between atoms: C_11  and  C_23
    9  A    between atoms: C_11  and  C_32
   10  A    between atoms: C_16  and  C_27
   11  A    between atoms: C_17  and  C_29
   12  A    between atoms: C_19  and  C_54
   13  A    between atoms: N_22  and  C_49
   14  A    between atoms: C_23  and  C_64
   15  A    between atoms: C_25  and  C_50
   16  A    between atoms: C_26  and  C_49
   17  A    between atoms: C_27  and  C_35
   18  A    between atoms: C_29  and  C_60
   19  A    between atoms: C_31  and  C_32
   20  A    between atoms: C_35  and  N_43
   21  A    between atoms: O_39  and  C_70
   22  A    between atoms: C_45  and  S_58
                            x       y       z     vdW  Elec       q    Type
                         _______ _______ _______ _____ _____    ______ ____

>  <TORSDO>
F 22

$$$$
=
 OpenBabel10222422123D

 70 76  0  0  1  0  0  0  0  0999 V2000
  191.7560  174.7530  137.6840 C   0  0  1  0  0  3  0  0  0  0  0  0
  192.7150  173.9950  135.5050 C   0  0  0  0  0  0  0  0  0  0  0  0
  193.6610  174.1020  134.3520 C   0  0  0  0  0  2  0  0  0  0  0  0
  194.0800  175.5340  136.9040 C   0  0  0  0  0  3  0  0  0  0  0  0
  190.4600  173.2480  136.2540 C   0  0  0  0  0  0  0  0  0  0  0  0
  190.5710  173.9550  137.3350 N   0  0  0  0  0  0  0  0  0  0  0  0
  191.5300  173.2260  135.3010 N   0  0  0  0  0  2  0  0  0  0  0  0
  192.8620  174.7300  136.6280 C   0  0  0  0  0  0  0  0  0  0  0  0
  195.0360  173.6240  134.6960 C   0  0  0  0  0  3  0  0  0  0  0  0
  195.3280  175.3090  136.4800 C   0  0  0  0  0  3  0  0  0  0  0  0
  195.8060  174.2020  135.6240 C   0  0  0  0  0  0  0  0  0  0  0  0
  192.2960  176.8250  139.0190 C   0  0  0  0  0  1  0  0  0  0  0  0
  191.3000  176.1660  138.0810 C   0  0  2  0  0  3  0  0  0  0  0  0
  189.8990  176.1490  138.6900 C   0  0  0  0  0  2  0  0  0  0  0  0
  189.1040  177.3720  138.3520 C   0  0  0  0  0  0  0  0  0  0  0  0
  189.1120  177.7960  137.1650 O   0  0  0  0  0  0  0  0  0  0  0  0
  188.2820  178.0560  139.3610 C   0  0  0  0  0  0  0  0  0  0  0  0
  187.0320  178.1300  139.2200 O   0  0  0  0  0  0  0  0  0  0  0  0
  188.9120  178.6470  140.5830 C   0  0  0  0  0  2  0  0  0  0  0  0
  189.6210  177.5790  141.4060 C   0  0  0  0  0  2  0  0  0  0  0  0
  189.7760  178.0310  142.8580 C   0  0  2  0  0  3  0  0  0  0  0  0
  191.2140  177.7910  143.2830 C   0  0  0  0  0  1  0  0  0  0  0  0
  189.4040  176.4770  145.0420 O   0  0  0  0  0  0  0  0  0  0  0  0
  188.6380  177.1430  143.9310 S   0  0  0  0  0  0  0  0  0  0  0  0
  187.8960  176.1000  143.1390 O   0  0  0  0  0  0  0  0  0  0  0  0
  187.4620  178.2690  144.6740 C   0  0  1  0  0  3  0  0  0  0  0  0
  186.2850  178.4930  143.7330 C   0  0  0  0  0  2  0  0  0  0  0  0
  186.9840  177.7190  146.0260 C   0  0  2  0  0  3  0  0  0  0  0  0
  185.1980  179.3570  144.4070 C   0  0  2  0  0  3  0  0  0  0  0  0
  185.4810  177.9620  146.2450 C   0  0  0  0  0  2  0  0  0  0  0  0
  185.1260  179.2600  145.8250 O   0  0  0  0  0  0  0  0  0  0  0  0
  183.8130  179.2440  143.7540 C   0  0  2  0  0  0  0  0  0  0  0  0
  182.5560  179.2910  144.5490 C   0  0  0  0  0  2  0  0  0  0  0  0
  183.1640  178.0740  144.1900 O   0  0  0  0  0  0  0  0  0  0  0  0
  183.7820  179.3400  142.2840 N   0  0  0  0  0  2  0  0  0  0  0  0
  182.8770  178.3680  141.6720 C   0  0  2  0  0  3  0  0  0  0  0  0
  183.6020  177.5290  140.8180 O   0  0  0  0  0  1  0  0  0  0  0  0
  180.4130  178.4700  141.3090 C   0  0  0  0  0  1  0  0  0  0  0  0
  181.7560  179.0730  140.9170 C   0  0  2  0  0  3  0  0  0  0  0  0
  181.9220  180.3740  138.7820 C   0  0  0  0  0  1  0  0  0  0  0  0
  181.9600  178.9930  139.4080 C   0  0  0  0  0  2  0  0  0  0  0  0
  188.2960  177.2740  147.9870 O   0  0  0  0  0  1  0  0  0  0  0  0
  187.8160  178.2920  147.1650 C   0  0  0  0  0  2  0  0  0  0  0  0
  197.1270  173.7820  135.8180 O   0  0  0  0  0  0  0  0  0  0  0  0
  197.5200  172.9240  136.8890 C   0  0  0  0  0  1  0  0  0  0  0  0
  189.1690  172.5380  135.9860 C   0  0  0  0  0  2  0  0  0  0  0  0
  188.2190  170.8380  134.3460 N   0  0  0  0  0  2  0  0  0  0  0  0
  189.3140  171.3130  135.1320 C   0  0  0  0  0  0  0  0  0  0  0  0
  190.4250  170.7200  135.0700 O   0  0  0  0  0  0  0  0  0  0  0  0
  186.9200  171.4970  134.3480 C   0  0  0  0  0  2  0  0  0  0  0  0
  182.4280  171.8910  135.9140 N   0  0  0  0  0  2  0  0  0  0  0  0
  185.7220  169.3500  134.9100 C   0  0  1  0  0  3  0  0  0  0  0  0
  185.9690  170.8110  135.3300 C   0  0  2  0  0  3  0  0  0  0  0  0
  186.9520  168.5140  135.1930 C   0  0  0  0  0  1  0  0  0  0  0  0
  184.6570  173.3680  135.8250 S   0  0  0  0  0  0  0  0  0  0  0  0
  183.5000  171.0170  135.6060 C   0  0  0  0  0  0  0  0  0  0  0  0
  183.2780  169.5480  135.3840 C   0  0  0  0  0  2  0  0  0  0  0  0
  182.8960  173.2120  136.2980 C   0  0  1  0  0  3  0  0  0  0  0  0
  184.6860  171.5950  135.5010 C   0  0  0  0  0  0  0  0  0  0  0  0
  184.5490  168.7620  135.6790 C   0  0  0  0  0  2  0  0  0  0  0  0
  181.9690  174.3140  135.7810 C   0  0  0  0  0  2  0  0  0  0  0  0
  181.6420  175.4960  136.7040 C   0  0  2  0  0  0  0  0  0  0  0  0
  181.5840  176.7730  135.8460 C   0  0  0  0  0  2  0  0  0  0  0  0
  182.6750  175.6600  137.8080 C   0  0  0  0  0  0  0  0  0  0  0  0
  183.6240  176.4890  134.5830 O   0  0  0  0  0  1  0  0  0  0  0  0
  182.4610  175.2220  138.9310 O   0  0  0  0  0  0  0  0  0  0  0  0
  184.0010  176.2930  137.5040 C   0  0  0  0  0  2  0  0  0  0  0  0
  183.8030  177.5880  136.7150 C   0  0  0  0  0  2  0  0  0  0  0  0
  182.9590  177.3460  135.4630 C   0  0  2  0  0  3  0  0  0  0  0  0
  180.3800  175.3030  137.2600 O   0  0  0  0  0  1  0  0  0  0  0  0
  1 13  1  6  0  0  0
  2  8  2  0  0  0  0
  3  9  1  0  0  0  0
  3  2  1  0  0  0  0
  5  6  2  0  0  0  0
  6  1  1  0  0  0  0
  7  2  1  0  0  0  0
  7  5  1  0  0  0  0
  8  4  1  0  0  0  0
  8  1  1  0  0  0  0
  9 11  2  0  0  0  0
 10  4  2  0  0  0  0
 11 44  1  0  0  0  0
 11 10  1  0  0  0  0
 13 14  1  0  0  0  0
 13 12  1  1  0  0  0
 15 14  1  0  0  0  0
 15 17  1  0  0  0  0
 16 15  2  0  0  0  0
 17 19  1  0  0  0  0
 18 17  2  0  0  0  0
 19 20  1  0  0  0  0
 20 21  1  0  0  0  0
 21 22  1  1  0  0  0
 21 24  1  0  0  0  0
 24 23  2  0  0  0  0
 25 24  2  0  0  0  0
 26 24  1  6  0  0  0
 26 28  1  0  0  0  0
 27 26  1  0  0  0  0
 28 30  1  0  0  0  0
 28 43  1  1  0  0  0
 29 27  1  6  0  0  0
 29 31  1  0  0  0  0
 31 30  1  0  0  0  0
 32 35  1  6  0  0  0
 32 34  1  0  0  0  0
 32 29  1  0  0  0  0
 32 33  1  0  0  0  0
 34 33  1  0  0  0  0
 36 37  1  6  0  0  0
 36 35  1  0  0  0  0
 39 38  1  6  0  0  0
 39 36  1  0  0  0  0
 40 41  1  0  0  0  0
 41 39  1  0  0  0  0
 43 42  1  0  0  0  0
 44 45  1  0  0  0  0
 46  5  1  0  0  0  0
 47 50  1  0  0  0  0
 47 48  1  0  0  0  0
 48 46  1  0  0  0  0
 49 48  2  0  0  0  0
 51 58  1  0  0  0  0
 52 54  1  1  0  0  0
 52 53  1  0  0  0  0
 52 60  1  0  0  0  0
 53 50  1  6  0  0  0
 53 59  1  0  0  0  0
 55 58  1  0  0  0  0
 56 51  1  0  0  0  0
 57 56  1  0  0  0  0
 57 60  1  0  0  0  0
 58 61  1  6  0  0  0
 59 56  2  0  0  0  0
 59 55  1  0  0  0  0
 61 62  1  0  0  0  0
 62 70  1  1  0  0  0
 62 64  1  0  0  0  0
 63 62  1  0  0  0  0
 64 66  2  0  0  0  0
 67 64  1  0  0  0  0
 68 67  1  0  0  0  0
 69 65  1  6  0  0  0
 69 63  1  0  0  0  0
 69 68  1  0  0  0  0
M  END
>  <MODEL>
4

>  <REMARK>
 VINA RESULT:      -5.6      2.829     10.470
  Name = 
  22 active torsions:
  status: ('A' for Active; 'I' for Inactive)
    1  A    between atoms: C_1  and  S_58
    2  A    between atoms: C_2  and  C_64
    3  A    between atoms: C_4  and  C_41
    4  A    between atoms: C_4  and  N_43
    5  A    between atoms: C_7  and  C_31
    6  A    between atoms: C_7  and  C_45
    7  A    between atoms: C_9  and  C_25
    8  A    between atoms: C_11  and  C_23
    9  A    between atoms: C_11  and  C_32
   10  A    between atoms: C_16  and  C_27
   11  A    between atoms: C_17  and  C_29
   12  A    between atoms: C_19  and  C_54
   13  A    between atoms: N_22  and  C_49
   14  A    between atoms: C_23  and  C_64
   15  A    between atoms: C_25  and  C_50
   16  A    between atoms: C_26  and  C_49
   17  A    between atoms: C_27  and  C_35
   18  A    between atoms: C_29  and  C_60
   19  A    between atoms: C_31  and  C_32
   20  A    between atoms: C_35  and  N_43
   21  A    between atoms: O_39  and  C_70
   22  A    between atoms: C_45  and  S_58
                            x       y       z     vdW  Elec       q    Type
                         _______ _______ _______ _____ _____    ______ ____

>  <TORSDO>
F 22

$$$$
=
 OpenBabel10222422123D

 70 76  0  0  1  0  0  0  0  0999 V2000
  191.5240  174.5160  137.2140 C   0  0  1  0  0  3  0  0  0  0  0  0
  192.7740  173.4690  135.3220 C   0  0  0  0  0  0  0  0  0  0  0  0
  193.9380  173.3540  134.3890 C   0  0  0  0  0  2  0  0  0  0  0  0
  194.0480  174.9020  136.9060 C   0  0  0  0  0  3  0  0  0  0  0  0
  190.3270  173.1040  135.6120 C   0  0  0  0  0  0  0  0  0  0  0  0
  190.3260  173.8680  136.6600 N   0  0  0  0  0  0  0  0  0  0  0  0
  191.5510  172.8600  134.9080 N   0  0  0  0  0  2  0  0  0  0  0  0
  192.8030  174.2590  136.4160 C   0  0  0  0  0  0  0  0  0  0  0  0
  195.1260  172.7150  135.0360 C   0  0  0  0  0  3  0  0  0  0  0  0
  195.3070  174.4720  136.7640 C   0  0  0  0  0  3  0  0  0  0  0  0
  195.7720  173.2480  136.0780 C   0  0  0  0  0  0  0  0  0  0  0  0
  192.1150  176.5950  138.5170 C   0  0  0  0  0  1  0  0  0  0  0  0
  191.2180  176.0060  137.4430 C   0  0  2  0  0  3  0  0  0  0  0  0
  189.7440  176.2280  137.7730 C   0  0  0  0  0  2  0  0  0  0  0  0
  189.3240  177.6570  137.6180 C   0  0  0  0  0  0  0  0  0  0  0  0
  189.7840  178.3280  136.6550 O   0  0  0  0  0  0  0  0  0  0  0  0
  188.3550  178.2750  138.5350 C   0  0  0  0  0  0  0  0  0  0  0  0
  187.2270  178.6470  138.1120 O   0  0  0  0  0  0  0  0  0  0  0  0
  188.6780  178.4440  139.9860 C   0  0  0  0  0  2  0  0  0  0  0  0
  189.5390  177.2940  140.4940 C   0  0  0  0  0  2  0  0  0  0  0  0
  190.1410  177.6310  141.8580 C   0  0  2  0  0  3  0  0  0  0  0  0
  191.6430  177.4150  141.7840 C   0  0  0  0  0  1  0  0  0  0  0  0
  190.4420  175.6440  143.6690 O   0  0  0  0  0  0  0  0  0  0  0  0
  189.4140  176.6130  143.1500 S   0  0  0  0  0  0  0  0  0  0  0  0
  188.2380  175.8500  142.5990 O   0  0  0  0  0  0  0  0  0  0  0  0
  188.8720  177.6260  144.5220 C   0  0  1  0  0  3  0  0  0  0  0  0
  187.3570  177.7870  144.4880 C   0  0  0  0  0  2  0  0  0  0  0  0
  189.3260  177.0040  145.8510 C   0  0  2  0  0  3  0  0  0  0  0  0
  186.8560  178.5470  145.7340 C   0  0  2  0  0  3  0  0  0  0  0  0
  188.2470  177.1270  146.9400 C   0  0  0  0  0  2  0  0  0  0  0  0
  187.6540  178.4060  146.9040 O   0  0  0  0  0  0  0  0  0  0  0  0
  185.3620  178.3480  146.0310 C   0  0  2  0  0  0  0  0  0  0  0  0
  184.8160  178.4070  147.4140 C   0  0  0  0  0  2  0  0  0  0  0  0
  185.1720  177.1890  146.8070 O   0  0  0  0  0  0  0  0  0  0  0  0
  184.4650  178.3460  144.8630 N   0  0  0  0  0  2  0  0  0  0  0  0
  184.8450  179.3380  143.8570 C   0  0  2  0  0  3  0  0  0  0  0  0
  184.7090  180.6230  144.3930 O   0  0  0  0  0  1  0  0  0  0  0  0
  182.5770  178.7900  142.9800 C   0  0  0  0  0  1  0  0  0  0  0  0
  183.9980  179.1820  142.5980 C   0  0  2  0  0  3  0  0  0  0  0  0
  184.7950  178.7560  140.2610 C   0  0  0  0  0  1  0  0  0  0  0  0
  184.6000  178.1580  141.6420 C   0  0  0  0  0  2  0  0  0  0  0  0
  190.8890  177.3230  147.6450 O   0  0  0  0  0  1  0  0  0  0  0  0
  190.6490  177.6070  146.3020 C   0  0  0  0  0  2  0  0  0  0  0  0
  196.9470  172.6620  136.5650 O   0  0  0  0  0  0  0  0  0  0  0  0
  198.1070  172.4640  135.7570 C   0  0  0  0  0  1  0  0  0  0  0  0
  189.0230  172.5650  135.1110 C   0  0  0  0  0  2  0  0  0  0  0  0
  187.8680  170.4130  134.3930 N   0  0  0  0  0  2  0  0  0  0  0  0
  189.0610  171.1050  134.7670 C   0  0  0  0  0  0  0  0  0  0  0  0
  190.1610  170.4900  134.7640 O   0  0  0  0  0  0  0  0  0  0  0  0
  186.5710  171.0740  134.3460 C   0  0  0  0  0  2  0  0  0  0  0  0
  182.6960  172.4370  136.7780 N   0  0  0  0  0  2  0  0  0  0  0  0
  184.9700  169.2540  135.0430 C   0  0  1  0  0  3  0  0  0  0  0  0
  185.6640  170.5620  135.4670 C   0  0  2  0  0  3  0  0  0  0  0  0
  185.9660  168.1150  135.0460 C   0  0  0  0  0  1  0  0  0  0  0  0
  185.1820  173.3100  136.3150 S   0  0  0  0  0  0  0  0  0  0  0  0
  183.4270  171.3550  136.2300 C   0  0  0  0  0  0  0  0  0  0  0  0
  182.7900  170.0140  135.9960 C   0  0  0  0  0  2  0  0  0  0  0  0
  183.5570  173.5590  137.1160 C   0  0  1  0  0  3  0  0  0  0  0  0
  184.6850  171.6240  135.9180 C   0  0  0  0  0  0  0  0  0  0  0  0
  183.8410  168.9120  136.0030 C   0  0  0  0  0  2  0  0  0  0  0  0
  182.8760  174.9000  136.8370 C   0  0  0  0  0  2  0  0  0  0  0  0
  183.1540  176.0790  137.7810 C   0  0  2  0  0  0  0  0  0  0  0  0
  182.7180  175.6700  139.2000 C   0  0  0  0  0  2  0  0  0  0  0  0
  182.4140  177.3370  137.3530 C   0  0  0  0  0  0  0  0  0  0  0  0
  180.5430  174.7490  138.6920 O   0  0  0  0  0  1  0  0  0  0  0  0
  182.9880  178.2110  136.7170 O   0  0  0  0  0  0  0  0  0  0  0  0
  180.9480  177.4790  137.6440 C   0  0  0  0  0  2  0  0  0  0  0  0
  180.6590  177.1160  139.1020 C   0  0  0  0  0  2  0  0  0  0  0  0
  181.2000  175.7280  139.4410 C   0  0  2  0  0  3  0  0  0  0  0  0
  184.5240  176.3220  137.8130 O   0  0  0  0  0  1  0  0  0  0  0  0
  1 13  1  6  0  0  0
  2  8  2  0  0  0  0
  3  9  1  0  0  0  0
  3  2  1  0  0  0  0
  5  6  2  0  0  0  0
  6  1  1  0  0  0  0
  7  2  1  0  0  0  0
  7  5  1  0  0  0  0
  8  4  1  0  0  0  0
  8  1  1  0  0  0  0
  9 11  2  0  0  0  0
 10  4  2  0  0  0  0
 11 44  1  0  0  0  0
 11 10  1  0  0  0  0
 13 14  1  0  0  0  0
 13 12  1  1  0  0  0
 15 14  1  0  0  0  0
 15 17  1  0  0  0  0
 16 15  2  0  0  0  0
 17 19  1  0  0  0  0
 18 17  2  0  0  0  0
 19 20  1  0  0  0  0
 20 21  1  0  0  0  0
 21 22  1  6  0  0  0
 21 24  1  0  0  0  0
 24 23  2  0  0  0  0
 25 24  2  0  0  0  0
 26 24  1  6  0  0  0
 26 28  1  0  0  0  0
 27 26  1  0  0  0  0
 28 43  1  1  0  0  0
 28 30  1  0  0  0  0
 29 27  1  6  0  0  0
 29 32  1  0  0  0  0
 29 31  1  0  0  0  0
 31 30  1  0  0  0  0
 32 35  1  6  0  0  0
 32 34  1  0  0  0  0
 32 33  1  0  0  0  0
 34 33  1  0  0  0  0
 36 37  1  1  0  0  0
 36 35  1  0  0  0  0
 39 38  1  1  0  0  0
 39 36  1  0  0  0  0
 40 41  1  0  0  0  0
 41 39  1  0  0  0  0
 43 42  1  0  0  0  0
 45 44  1  0  0  0  0
 46  5  1  0  0  0  0
 47 48  1  0  0  0  0
 48 46  1  0  0  0  0
 49 48  2  0  0  0  0
 50 47  1  0  0  0  0
 51 58  1  0  0  0  0
 52 54  1  1  0  0  0
 52 53  1  0  0  0  0
 52 60  1  0  0  0  0
 53 50  1  6  0  0  0
 53 59  1  0  0  0  0
 55 58  1  0  0  0  0
 56 51  1  0  0  0  0
 57 60  1  0  0  0  0
 57 56  1  0  0  0  0
 58 61  1  6  0  0  0
 59 56  2  0  0  0  0
 59 55  1  0  0  0  0
 61 62  1  0  0  0  0
 62 70  1  1  0  0  0
 62 63  1  0  0  0  0
 63 69  1  0  0  0  0
 64 67  1  0  0  0  0
 64 62  1  0  0  0  0
 66 64  2  0  0  0  0
 67 68  1  0  0  0  0
 68 69  1  0  0  0  0
 69 65  1  6  0  0  0
M  END
>  <MODEL>
5

>  <REMARK>
 VINA RESULT:      -5.6      2.882     11.027
  Name = 
  22 active torsions:
  status: ('A' for Active; 'I' for Inactive)
    1  A    between atoms: C_1  and  S_58
    2  A    between atoms: C_2  and  C_64
    3  A    between atoms: C_4  and  C_41
    4  A    between atoms: C_4  and  N_43
    5  A    between atoms: C_7  and  C_31
    6  A    between atoms: C_7  and  C_45
    7  A    between atoms: C_9  and  C_25
    8  A    between atoms: C_11  and  C_23
    9  A    between atoms: C_11  and  C_32
   10  A    between atoms: C_16  and  C_27
   11  A    between atoms: C_17  and  C_29
   12  A    between atoms: C_19  and  C_54
   13  A    between atoms: N_22  and  C_49
   14  A    between atoms: C_23  and  C_64
   15  A    between atoms: C_25  and  C_50
   16  A    between atoms: C_26  and  C_49
   17  A    between atoms: C_27  and  C_35
   18  A    between atoms: C_29  and  C_60
   19  A    between atoms: C_31  and  C_32
   20  A    between atoms: C_35  and  N_43
   21  A    between atoms: O_39  and  C_70
   22  A    between atoms: C_45  and  S_58
                            x       y       z     vdW  Elec       q    Type
                         _______ _______ _______ _____ _____    ______ ____

>  <TORSDO>
F 22

$$$$
=
 OpenBabel10222422123D

 70 76  0  0  1  0  0  0  0  0999 V2000
  189.2360  177.6610  143.1950 C   0  0  1  0  0  3  0  0  0  0  0  0
  187.5090  177.1540  144.9270 C   0  0  0  0  0  0  0  0  0  0  0  0
  187.0500  176.5730  146.2270 C   0  0  0  0  0  2  0  0  0  0  0  0
  189.9010  177.0430  145.6010 C   0  0  0  0  0  3  0  0  0  0  0  0
  186.8640  177.7410  142.5940 C   0  0  0  0  0  0  0  0  0  0  0  0
  188.1130  177.8490  142.2630 N   0  0  0  0  0  0  0  0  0  0  0  0
  186.5080  177.4040  143.9410 N   0  0  0  0  0  2  0  0  0  0  0  0
  188.8170  177.2700  144.6130 C   0  0  0  0  0  0  0  0  0  0  0  0
  187.4380  177.4190  147.3980 C   0  0  0  0  0  3  0  0  0  0  0  0
  189.8550  177.2110  146.9270 C   0  0  0  0  0  3  0  0  0  0  0  0
  188.7060  177.6650  147.7400 C   0  0  0  0  0  0  0  0  0  0  0  0
  191.6720  177.2150  142.7130 C   0  0  0  0  0  1  0  0  0  0  0  0
  190.2520  176.7000  142.5560 C   0  0  2  0  0  3  0  0  0  0  0  0
  189.9220  176.4350  141.0890 C   0  0  0  0  0  2  0  0  0  0  0  0
  190.5930  177.3980  140.1590 C   0  0  0  0  0  0  0  0  0  0  0  0
  189.9640  178.4240  139.7840 O   0  0  0  0  0  0  0  0  0  0  0  0
  191.9790  177.1940  139.7130 C   0  0  0  0  0  0  0  0  0  0  0  0
  192.9360  177.6940  140.3630 O   0  0  0  0  0  0  0  0  0  0  0  0
  192.2770  176.3670  138.5020 C   0  0  0  0  0  2  0  0  0  0  0  0
  191.2350  176.5930  137.4140 C   0  0  0  0  0  2  0  0  0  0  0  0
  190.9010  175.2810  136.7050 C   0  0  2  0  0  3  0  0  0  0  0  0
  190.9780  174.1550  137.7210 C   0  0  0  0  0  1  0  0  0  0  0  0
  191.9950  176.1480  134.3860 O   0  0  0  0  0  0  0  0  0  0  0  0
  192.0330  174.9840  135.3390 S   0  0  0  0  0  0  0  0  0  0  0  0
  191.6380  173.7260  134.6110 O   0  0  0  0  0  0  0  0  0  0  0  0
  193.7120  174.8180  135.9350 C   0  0  1  0  0  3  0  0  0  0  0  0
  193.9560  173.3980  136.4290 C   0  0  0  0  0  2  0  0  0  0  0  0
  194.7070  175.1900  134.8260 C   0  0  2  0  0  3  0  0  0  0  0  0
  195.4340  173.1980  136.8260 C   0  0  2  0  0  3  0  0  0  0  0  0
  195.9310  174.2580  134.8170 C   0  0  0  0  0  2  0  0  0  0  0  0
  196.3730  174.0130  136.1340 O   0  0  0  0  0  0  0  0  0  0  0  0
  195.8770  171.7280  136.8750 C   0  0  2  0  0  0  0  0  0  0  0  0
  194.9490  170.6350  137.2690 C   0  0  0  0  0  2  0  0  0  0  0  0
  195.8140  171.2460  138.1950 O   0  0  0  0  0  0  0  0  0  0  0  0
  197.1870  171.4280  136.2710 N   0  0  0  0  0  2  0  0  0  0  0  0
  198.2750  171.4350  137.2480 C   0  0  2  0  0  3  0  0  0  0  0  0
  199.0810  172.5600  137.0400 O   0  0  0  0  0  1  0  0  0  0  0  0
  199.8470  170.1230  135.8270 C   0  0  0  0  0  1  0  0  0  0  0  0
  199.0970  170.1540  137.1520 C   0  0  2  0  0  3  0  0  0  0  0  0
  198.7960  167.9680  138.3380 C   0  0  0  0  0  1  0  0  0  0  0  0
  198.2210  168.9150  137.3020 C   0  0  0  0  0  2  0  0  0  0  0  0
  194.7200  177.1840  136.1630 O   0  0  0  0  0  1  0  0  0  0  0  0
  195.1170  176.6510  134.9380 C   0  0  0  0  0  2  0  0  0  0  0  0
  189.0050  178.3670  148.9150 O   0  0  0  0  0  0  0  0  0  0  0  0
  190.2990  178.3550  149.5180 C   0  0  0  0  0  1  0  0  0  0  0  0
  185.8210  177.8860  141.5300 C   0  0  0  0  0  2  0  0  0  0  0  0
  183.9960  179.4660  140.7200 N   0  0  0  0  0  2  0  0  0  0  0  0
  185.1820  179.2430  141.4860 C   0  0  0  0  0  0  0  0  0  0  0  0
  185.6680  180.1880  142.1640 O   0  0  0  0  0  0  0  0  0  0  0  0
  183.3660  178.4090  139.9400 C   0  0  0  0  0  2  0  0  0  0  0  0
  182.9360  176.6580  135.5200 N   0  0  0  0  0  2  0  0  0  0  0  0
  181.6340  179.4860  138.4570 C   0  0  1  0  0  3  0  0  0  0  0  0
  183.0550  178.8970  138.5230 C   0  0  2  0  0  3  0  0  0  0  0  0
  181.5980  180.8300  139.1510 C   0  0  0  0  0  1  0  0  0  0  0  0
  184.7910  176.8180  137.4410 S   0  0  0  0  0  0  0  0  0  0  0  0
  182.4880  177.6190  136.4590 C   0  0  0  0  0  0  0  0  0  0  0  0
  181.1790  178.3370  136.2870 C   0  0  0  0  0  2  0  0  0  0  0  0
  184.3110  176.2560  135.7680 C   0  0  1  0  0  3  0  0  0  0  0  0
  183.2860  177.8070  137.4980 C   0  0  0  0  0  0  0  0  0  0  0  0
  181.2010  179.6760  137.0110 C   0  0  0  0  0  2  0  0  0  0  0  0
  184.5260  174.7690  135.4780 C   0  0  0  0  0  2  0  0  0  0  0  0
  185.3240  173.9290  136.4860 C   0  0  2  0  0  0  0  0  0  0  0  0
  186.6830  174.6160  136.7130 C   0  0  0  0  0  2  0  0  0  0  0  0
  185.5380  172.5050  135.9980 C   0  0  0  0  0  0  0  0  0  0  0  0
  187.3020  175.0290  134.4140 O   0  0  0  0  0  1  0  0  0  0  0  0
  184.8200  171.5970  136.3940 O   0  0  0  0  0  0  0  0  0  0  0  0
  186.5860  172.2190  134.9630 C   0  0  0  0  0  2  0  0  0  0  0  0
  187.9060  172.8940  135.3410 C   0  0  0  0  0  2  0  0  0  0  0  0
  187.7070  174.3890  135.5870 C   0  0  2  0  0  3  0  0  0  0  0  0
  184.6490  173.9180  137.7040 O   0  0  0  0  0  1  0  0  0  0  0  0
  1 13  1  6  0  0  0
  1  8  1  0  0  0  0
  2  3  1  0  0  0  0
  3  9  1  0  0  0  0
  4 10  2  0  0  0  0
  5  7  1  0  0  0  0
  6  5  2  0  0  0  0
  6  1  1  0  0  0  0
  7  2  1  0  0  0  0
  8  2  2  0  0  0  0
  8  4  1  0  0  0  0
  9 11  2  0  0  0  0
 10 11  1  0  0  0  0
 11 44  1  0  0  0  0
 13 12  1  6  0  0  0
 14 13  1  0  0  0  0
 15 14  1  0  0  0  0
 16 15  2  0  0  0  0
 17 15  1  0  0  0  0
 17 18  2  0  0  0  0
 19 17  1  0  0  0  0
 20 19  1  0  0  0  0
 21 20  1  0  0  0  0
 21 22  1  1  0  0  0
 23 24  2  0  0  0  0
 24 21  1  0  0  0  0
 25 24  2  0  0  0  0
 26 24  1  6  0  0  0
 26 27  1  0  0  0  0
 28 43  1  1  0  0  0
 28 26  1  0  0  0  0
 29 27  1  6  0  0  0
 29 32  1  0  0  0  0
 30 28  1  0  0  0  0
 30 31  1  0  0  0  0
 31 29  1  0  0  0  0
 32 35  1  6  0  0  0
 32 33  1  0  0  0  0
 32 34  1  0  0  0  0
 33 34  1  0  0  0  0
 35 36  1  0  0  0  0
 36 37  1  6  0  0  0
 39 38  1  6  0  0  0
 39 36  1  0  0  0  0
 39 41  1  0  0  0  0
 41 40  1  0  0  0  0
 43 42  1  0  0  0  0
 44 45  1  0  0  0  0
 46  5  1  0  0  0  0
 47 48  1  0  0  0  0
 48 46  1  0  0  0  0
 48 49  2  0  0  0  0
 50 47  1  0  0  0  0
 51 58  1  0  0  0  0
 51 56  1  0  0  0  0
 52 53  1  0  0  0  0
 52 54  1  1  0  0  0
 53 50  1  1  0  0  0
 55 59  1  0  0  0  0
 56 59  2  0  0  0  0
 57 56  1  0  0  0  0
 57 60  1  0  0  0  0
 58 61  1  1  0  0  0
 58 55  1  0  0  0  0
 59 53  1  0  0  0  0
 60 52  1  0  0  0  0
 61 62  1  0  0  0  0
 62 63  1  0  0  0  0
 62 70  1  1  0  0  0
 64 66  2  0  0  0  0
 64 62  1  0  0  0  0
 67 68  1  0  0  0  0
 67 64  1  0  0  0  0
 68 69  1  0  0  0  0
 69 65  1  6  0  0  0
 69 63  1  0  0  0  0
M  END
>  <MODEL>
6

>  <REMARK>
 VINA RESULT:      -4.4      2.592     10.131
  Name = 
  22 active torsions:
  status: ('A' for Active; 'I' for Inactive)
    1  A    between atoms: C_1  and  S_58
    2  A    between atoms: C_2  and  C_64
    3  A    between atoms: C_4  and  C_41
    4  A    between atoms: C_4  and  N_43
    5  A    between atoms: C_7  and  C_31
    6  A    between atoms: C_7  and  C_45
    7  A    between atoms: C_9  and  C_25
    8  A    between atoms: C_11  and  C_23
    9  A    between atoms: C_11  and  C_32
   10  A    between atoms: C_16  and  C_27
   11  A    between atoms: C_17  and  C_29
   12  A    between atoms: C_19  and  C_54
   13  A    between atoms: N_22  and  C_49
   14  A    between atoms: C_23  and  C_64
   15  A    between atoms: C_25  and  C_50
   16  A    between atoms: C_26  and  C_49
   17  A    between atoms: C_27  and  C_35
   18  A    between atoms: C_29  and  C_60
   19  A    between atoms: C_31  and  C_32
   20  A    between atoms: C_35  and  N_43
   21  A    between atoms: O_39  and  C_70
   22  A    between atoms: C_45  and  S_58
                            x       y       z     vdW  Elec       q    Type
                         _______ _______ _______ _____ _____    ______ ____

>  <TORSDO>
F 22

$$$$
