=
 OpenBabel10232408403D

 40 44  0  0  1  0  0  0  0  0999 V2000
  189.7820  177.7170  138.8810 C   0  0  1  0  0  3  0  0  0  0  0  0
  188.5520  178.0560  135.4590 O   0  0  0  0  0  1  0  0  0  0  0  0
  188.3070  177.4880  136.7110 C   0  0  1  0  0  3  0  0  0  0  0  0
  188.8510  176.0570  136.7390 C   0  0  1  0  0  3  0  0  0  0  0  0
  189.9750  176.1980  138.7300 C   0  0  1  0  0  3  0  0  0  0  0  0
  188.9050  175.5640  138.0560 O   0  0  0  0  0  0  0  0  0  0  0  0
  188.9520  178.3330  137.7780 C   0  0  0  0  0  0  0  0  0  0  0  0
  188.7800  179.5420  137.7690 O   0  0  0  0  0  0  0  0  0  0  0  0
  191.3280  175.8060  138.2070 C   0  0  0  0  0  0  0  0  0  0  0  0
  192.9760  172.8860  136.7650 C   0  0  0  0  0  3  0  0  0  0  0  0
  192.7730  174.1690  137.2730 C   0  0  0  0  0  0  0  0  0  0  0  0
  193.8590  175.0640  137.3400 C   0  0  0  0  0  0  0  0  0  0  0  0
  194.2510  172.5070  136.3350 C   0  0  0  0  0  3  0  0  0  0  0  0
  195.3050  173.4220  136.4210 C   0  0  0  0  0  3  0  0  0  0  0  0
  191.5440  174.5570  137.7040 N   0  0  0  0  0  0  0  0  0  0  0  0
  195.0910  174.6720  136.9170 N   0  0  0  0  0  0  0  0  0  0  0  0
  193.6560  176.3470  137.8520 C   0  0  0  0  0  3  0  0  0  0  0  0
  192.3850  176.7200  138.2910 C   0  0  0  0  0  3  0  0  0  0  0  0
  189.2470  178.0520  140.2020 N   0  0  0  0  0  2  0  0  0  0  0  0
  189.9020  177.2720  141.1720 N   0  0  0  0  0  2  0  0  0  0  0  0
  191.5030  178.4650  143.1390 F   0  0  0  0  0  0  0  0  0  0  0  0
  187.8110  176.8940  144.2850 C   0  0  0  0  0  3  0  0  0  0  0  0
  188.5760  177.4770  145.2140 C   0  0  0  0  0  0  0  0  0  0  0  0
  190.4610  177.6350  143.5170 C   0  0  2  0  0  3  0  0  0  0  0  0
  189.3580  177.6590  142.4630 C   0  0  2  0  0  3  0  0  0  0  0  0
  188.2730  176.6660  142.8720 C   0  0  0  0  0  2  0  0  0  0  0  0
  189.9060  178.1060  144.8610 C   0  0  0  0  0  2  0  0  0  0  0  0
  188.8900  177.6470  147.7190 C   0  0  0  0  0  1  0  0  0  0  0  0
  188.0480  177.6170  146.5340 N   0  0  0  0  0  2  0  0  0  0  0  0
  188.0060  175.1180  135.8880 C   0  0  0  0  0  2  0  0  0  0  0  0
  189.5770  173.4450  135.0900 C   0  0  0  0  0  0  0  0  0  0  0  0
  190.5290  173.1720  134.3470 O   0  0  0  0  0  0  0  0  0  0  0  0
  188.5710  173.7350  135.8720 C   0  0  0  0  0  0  0  0  0  0  0  0
  188.1110  172.7450  136.8900 C   0  0  0  0  0  2  0  0  0  0  0  0
  184.3680  172.7650  137.4800 C   0  0  0  0  0  3  0  0  0  0  0  0
  186.2000  171.6480  135.6860 C   0  0  0  0  0  3  0  0  0  0  0  0
  184.8330  171.3980  135.5350 C   0  0  0  0  0  3  0  0  0  0  0  0
  185.7350  173.0160  137.6320 C   0  0  0  0  0  3  0  0  0  0  0  0
  183.9180  171.9550  136.4320 C   0  0  0  0  0  3  0  0  0  0  0  0
  186.6540  172.4550  136.7370 C   0  0  0  0  0  0  0  0  0  0  0  0
  1 19  1  1  0  0  0
  3  2  1  6  0  0  0
  3  4  1  0  0  0  0
  3  7  1  0  0  0  0
  4 30  1  6  0  0  0
  4  6  1  0  0  0  0
  5  9  1  6  0  0  0
  5  1  1  0  0  0  0
  6  5  1  0  0  0  0
  7  1  1  0  0  0  0
  8  7  2  0  0  0  0
  9 18  1  0  0  0  0
 10 11  1  0  0  0  0
 11 12  2  0  0  0  0
 11 15  1  0  0  0  0
 12 17  1  0  0  0  0
 13 14  1  0  0  0  0
 13 10  2  0  0  0  0
 14 16  2  0  0  0  0
 15  9  2  0  0  0  0
 16 12  1  0  0  0  0
 17 18  2  0  0  0  0
 19 20  1  0  0  0  0
 22 23  2  0  0  0  0
 23 29  1  0  0  0  0
 24 21  1  6  0  0  0
 24 27  1  0  0  0  0
 25 20  1  6  0  0  0
 25 26  1  0  0  0  0
 25 24  1  0  0  0  0
 26 22  1  0  0  0  0
 27 23  1  0  0  0  0
 29 28  1  0  0  0  0
 31 33  2  0  0  0  0
 32 31  2  0  0  0  0
 33 30  1  0  0  0  0
 33 34  1  0  0  0  0
 35 38  1  0  0  0  0
 36 40  1  0  0  0  0
 37 36  2  0  0  0  0
 37 39  1  0  0  0  0
 39 35  2  0  0  0  0
 40 34  1  0  0  0  0
 40 38  2  0  0  0  0
M  END
>  <MODEL>
1

>  <REMARK>
 VINA RESULT:      -7.9      0.000      0.000
  Name = 
  9 active torsions:
  status: ('A' for Active; 'I' for Inactive)
    1  A    between atoms: C_1  and  N_16
    2  A    between atoms: N_4  and  N_16
    3  A    between atoms: N_4  and  C_26
    4  A    between atoms: C_5  and  C_15
    5  A    between atoms: C_14  and  C_34
    6  A    between atoms: C_17  and  N_30
    7  A    between atoms: C_31  and  C_38
    8  A    between atoms: C_31  and  C_39
    9  A    between atoms: C_34  and  C_38
                            x       y       z     vdW  Elec       q    Type
                         _______ _______ _______ _____ _____    ______ ____

>  <TORSDO>
F 9

$$$$
=
 OpenBabel10232408403D

 40 44  0  0  1  0  0  0  0  0999 V2000
  188.7920  177.8570  142.0830 C   0  0  1  0  0  3  0  0  0  0  0  0
  189.2770  175.8950  139.0410 O   0  0  0  0  0  1  0  0  0  0  0  0
  189.5790  177.0950  139.6870 C   0  0  1  0  0  3  0  0  0  0  0  0
  188.5920  178.1780  139.2420 C   0  0  1  0  0  3  0  0  0  0  0  0
  188.0540  178.9740  141.3220 C   0  0  1  0  0  3  0  0  0  0  0  0
  188.6610  179.3010  140.0870 O   0  0  0  0  0  0  0  0  0  0  0  0
  189.5200  176.8890  141.1770 C   0  0  0  0  0  0  0  0  0  0  0  0
  190.0940  175.9320  141.6730 O   0  0  0  0  0  0  0  0  0  0  0  0
  186.5700  178.7640  141.2230 C   0  0  0  0  0  0  0  0  0  0  0  0
  183.8190  179.6170  138.9810 C   0  0  0  0  0  3  0  0  0  0  0  0
  184.5200  179.1110  140.0760 C   0  0  0  0  0  0  0  0  0  0  0  0
  183.8130  178.4580  141.1040 C   0  0  0  0  0  0  0  0  0  0  0  0
  182.4300  179.4710  138.9220 C   0  0  0  0  0  3  0  0  0  0  0  0
  181.7630  178.8190  139.9650 C   0  0  0  0  0  3  0  0  0  0  0  0
  185.8690  179.2480  140.1570 N   0  0  0  0  0  0  0  0  0  0  0  0
  182.4610  178.3290  141.0270 N   0  0  0  0  0  0  0  0  0  0  0  0
  184.5140  177.9560  142.2020 C   0  0  0  0  0  3  0  0  0  0  0  0
  185.9000  178.1110  142.2640 C   0  0  0  0  0  3  0  0  0  0  0  0
  189.6870  178.4140  143.0980 N   0  0  0  0  0  2  0  0  0  0  0  0
  189.0210  178.4280  144.3360 N   0  0  0  0  0  2  0  0  0  0  0  0
  188.1580  177.9350  146.9580 F   0  0  0  0  0  0  0  0  0  0  0  0
  191.8900  176.4710  145.8010 C   0  0  0  0  0  3  0  0  0  0  0  0
  191.4640  176.2290  147.0460 C   0  0  0  0  0  0  0  0  0  0  0  0
  189.4970  177.7870  146.6400 C   0  0  2  0  0  3  0  0  0  0  0  0
  189.6540  177.4180  145.1680 C   0  0  2  0  0  3  0  0  0  0  0  0
  191.1430  177.3530  144.8390 C   0  0  0  0  0  2  0  0  0  0  0  0
  190.1040  176.6920  147.5180 C   0  0  0  0  0  2  0  0  0  0  0  0
  193.1410  175.9360  148.9170 C   0  0  0  0  0  1  0  0  0  0  0  0
  192.2680  175.4000  147.8860 N   0  0  0  0  0  2  0  0  0  0  0  0
  188.8480  178.6150  137.8050 C   0  0  0  0  0  2  0  0  0  0  0  0
  186.8070  177.5510  137.0290 C   0  0  0  0  0  0  0  0  0  0  0  0
  185.6030  177.3320  137.2170 O   0  0  0  0  0  0  0  0  0  0  0  0
  188.0780  177.7820  136.8330 C   0  0  0  0  0  0  0  0  0  0  0  0
  188.7170  177.3810  135.5450 C   0  0  0  0  0  2  0  0  0  0  0  0
  189.6050  173.7020  135.7170 C   0  0  0  0  0  3  0  0  0  0  0  0
  190.8840  176.1780  135.9430 C   0  0  0  0  0  3  0  0  0  0  0  0
  191.6220  174.9970  136.0700 C   0  0  0  0  0  3  0  0  0  0  0  0
  188.8670  174.8820  135.5890 C   0  0  0  0  0  3  0  0  0  0  0  0
  190.9820  173.7590  135.9580 C   0  0  0  0  0  3  0  0  0  0  0  0
  189.5050  176.1230  135.7050 C   0  0  0  0  0  0  0  0  0  0  0  0
  1 19  1  1  0  0  0
  3  2  1  6  0  0  0
  3  7  1  0  0  0  0
  4 30  1  6  0  0  0
  4  3  1  0  0  0  0
  4  6  1  0  0  0  0
  5  9  1  6  0  0  0
  5  1  1  0  0  0  0
  6  5  1  0  0  0  0
  7  8  2  0  0  0  0
  7  1  1  0  0  0  0
  9 18  1  0  0  0  0
 10 11  1  0  0  0  0
 11 15  1  0  0  0  0
 11 12  2  0  0  0  0
 12 17  1  0  0  0  0
 13 10  2  0  0  0  0
 13 14  1  0  0  0  0
 14 16  2  0  0  0  0
 15  9  2  0  0  0  0
 16 12  1  0  0  0  0
 17 18  2  0  0  0  0
 19 20  1  0  0  0  0
 22 23  2  0  0  0  0
 23 27  1  0  0  0  0
 23 29  1  0  0  0  0
 24 21  1  1  0  0  0
 24 27  1  0  0  0  0
 25 20  1  6  0  0  0
 25 24  1  0  0  0  0
 26 25  1  0  0  0  0
 26 22  1  0  0  0  0
 29 28  1  0  0  0  0
 31 32  2  0  0  0  0
 33 31  2  0  0  0  0
 33 30  1  0  0  0  0
 34 40  1  0  0  0  0
 34 33  1  0  0  0  0
 35 39  1  0  0  0  0
 36 37  1  0  0  0  0
 38 40  1  0  0  0  0
 38 35  2  0  0  0  0
 39 37  2  0  0  0  0
 40 36  2  0  0  0  0
M  END
>  <MODEL>
2

>  <REMARK>
 VINA RESULT:      -7.8      3.358      6.885
  Name = 
  9 active torsions:
  status: ('A' for Active; 'I' for Inactive)
    1  A    between atoms: C_1  and  N_16
    2  A    between atoms: N_4  and  N_16
    3  A    between atoms: N_4  and  C_26
    4  A    between atoms: C_5  and  C_15
    5  A    between atoms: C_14  and  C_34
    6  A    between atoms: C_17  and  N_30
    7  A    between atoms: C_31  and  C_38
    8  A    between atoms: C_31  and  C_39
    9  A    between atoms: C_34  and  C_38
                            x       y       z     vdW  Elec       q    Type
                         _______ _______ _______ _____ _____    ______ ____

>  <TORSDO>
F 9

$$$$
=
 OpenBabel10232408403D

 40 44  0  0  1  0  0  0  0  0999 V2000
  188.7550  177.7910  142.0340 C   0  0  1  0  0  3  0  0  0  0  0  0
  189.2800  176.0970  138.8410 O   0  0  0  0  0  1  0  0  0  0  0  0
  189.5690  177.2400  139.5900 C   0  0  1  0  0  3  0  0  0  0  0  0
  188.5820  178.3530  139.2290 C   0  0  1  0  0  3  0  0  0  0  0  0
  188.0200  178.9660  141.3640 C   0  0  1  0  0  3  0  0  0  0  0  0
  188.6370  179.4000  140.1670 O   0  0  0  0  0  0  0  0  0  0  0  0
  189.4970  176.9070  141.0570 C   0  0  0  0  0  0  0  0  0  0  0  0
  190.0710  175.9130  141.4740 O   0  0  0  0  0  0  0  0  0  0  0  0
  186.5380  178.7590  141.2310 C   0  0  0  0  0  0  0  0  0  0  0  0
  183.8320  179.6470  138.9470 C   0  0  0  0  0  3  0  0  0  0  0  0
  184.5110  179.1250  140.0490 C   0  0  0  0  0  0  0  0  0  0  0  0
  183.7830  178.4580  141.0530 C   0  0  0  0  0  0  0  0  0  0  0  0
  182.4450  179.5040  138.8590 C   0  0  0  0  0  3  0  0  0  0  0  0
  181.7570  178.8380  139.8780 C   0  0  0  0  0  3  0  0  0  0  0  0
  185.8590  179.2590  140.1590 N   0  0  0  0  0  0  0  0  0  0  0  0
  182.4330  178.3320  140.9470 N   0  0  0  0  0  0  0  0  0  0  0  0
  184.4620  177.9390  142.1570 C   0  0  0  0  0  3  0  0  0  0  0  0
  185.8460  178.0920  142.2500 C   0  0  0  0  0  3  0  0  0  0  0  0
  189.6370  178.2630  143.1020 N   0  0  0  0  0  2  0  0  0  0  0  0
  188.9340  178.2380  144.3200 N   0  0  0  0  0  2  0  0  0  0  0  0
  188.2150  177.9230  147.0110 F   0  0  0  0  0  0  0  0  0  0  0  0
  191.8910  176.3960  145.7580 C   0  0  0  0  0  3  0  0  0  0  0  0
  191.5330  176.2380  147.0380 C   0  0  0  0  0  0  0  0  0  0  0  0
  189.5370  177.7580  146.6330 C   0  0  2  0  0  3  0  0  0  0  0  0
  189.6170  177.2900  145.1830 C   0  0  2  0  0  3  0  0  0  0  0  0
  191.0880  177.2080  144.7800 C   0  0  0  0  0  2  0  0  0  0  0  0
  190.1970  176.7270  147.5490 C   0  0  0  0  0  2  0  0  0  0  0  0
  193.1230  176.0550  148.9970 C   0  0  0  0  0  1  0  0  0  0  0  0
  192.3860  175.4710  147.8880 N   0  0  0  0  0  2  0  0  0  0  0  0
  188.8500  178.9120  137.8380 C   0  0  0  0  0  2  0  0  0  0  0  0
  188.4800  177.7280  135.7480 C   0  0  0  0  0  0  0  0  0  0  0  0
  188.9710  177.2050  134.7390 O   0  0  0  0  0  0  0  0  0  0  0  0
  187.9630  178.2820  136.8130 C   0  0  0  0  0  0  0  0  0  0  0  0
  186.5090  178.1170  137.1060 C   0  0  0  0  0  2  0  0  0  0  0  0
  184.6810  175.7210  134.8100 C   0  0  0  0  0  3  0  0  0  0  0  0
  186.3280  175.6140  137.0680 C   0  0  0  0  0  3  0  0  0  0  0  0
  185.8490  174.4320  136.4960 C   0  0  0  0  0  3  0  0  0  0  0  0
  185.1590  176.9040  135.3810 C   0  0  0  0  0  3  0  0  0  0  0  0
  185.0250  174.4860  135.3680 C   0  0  0  0  0  3  0  0  0  0  0  0
  185.9810  176.8530  136.5130 C   0  0  0  0  0  0  0  0  0  0  0  0
  1 19  1  1  0  0  0
  3  2  1  6  0  0  0
  3  7  1  0  0  0  0
  4 30  1  6  0  0  0
  4  3  1  0  0  0  0
  4  6  1  0  0  0  0
  5  9  1  6  0  0  0
  5  1  1  0  0  0  0
  6  5  1  0  0  0  0
  7  8  2  0  0  0  0
  7  1  1  0  0  0  0
  9 18  1  0  0  0  0
 10 11  1  0  0  0  0
 11 15  1  0  0  0  0
 11 12  2  0  0  0  0
 12 17  1  0  0  0  0
 13 10  2  0  0  0  0
 13 14  1  0  0  0  0
 14 16  2  0  0  0  0
 15  9  2  0  0  0  0
 16 12  1  0  0  0  0
 17 18  2  0  0  0  0
 19 20  1  0  0  0  0
 22 23  2  0  0  0  0
 23 27  1  0  0  0  0
 23 29  1  0  0  0  0
 24 21  1  1  0  0  0
 24 27  1  0  0  0  0
 25 20  1  6  0  0  0
 25 24  1  0  0  0  0
 26 25  1  0  0  0  0
 26 22  1  0  0  0  0
 29 28  1  0  0  0  0
 31 33  2  0  0  0  0
 32 31  2  0  0  0  0
 33 34  1  0  0  0  0
 33 30  1  0  0  0  0
 35 39  2  0  0  0  0
 35 38  1  0  0  0  0
 37 36  2  0  0  0  0
 38 40  2  0  0  0  0
 39 37  1  0  0  0  0
 40 36  1  0  0  0  0
 40 34  1  0  0  0  0
M  END
>  <MODEL>
3

>  <REMARK>
 VINA RESULT:      -7.8      3.677      6.589
  Name = 
  9 active torsions:
  status: ('A' for Active; 'I' for Inactive)
    1  A    between atoms: C_1  and  N_16
    2  A    between atoms: N_4  and  N_16
    3  A    between atoms: N_4  and  C_26
    4  A    between atoms: C_5  and  C_15
    5  A    between atoms: C_14  and  C_34
    6  A    between atoms: C_17  and  N_30
    7  A    between atoms: C_31  and  C_38
    8  A    between atoms: C_31  and  C_39
    9  A    between atoms: C_34  and  C_38
                            x       y       z     vdW  Elec       q    Type
                         _______ _______ _______ _____ _____    ______ ____

>  <TORSDO>
F 9

$$$$
=
 OpenBabel10232408403D

 40 44  0  0  1  0  0  0  0  0999 V2000
  188.4750  178.0420  138.2740 C   0  0  1  0  0  3  0  0  0  0  0  0
  187.5310  177.9580  134.7470 O   0  0  0  0  0  1  0  0  0  0  0  0
  187.1630  177.5750  136.0380 C   0  0  1  0  0  3  0  0  0  0  0  0
  187.6330  176.1420  136.3010 C   0  0  1  0  0  3  0  0  0  0  0  0
  188.6060  176.5100  138.3430 C   0  0  1  0  0  3  0  0  0  0  0  0
  187.5610  175.8310  137.6720 O   0  0  0  0  0  0  0  0  0  0  0  0
  187.7630  178.5320  137.0330 C   0  0  0  0  0  0  0  0  0  0  0  0
  187.6510  179.7350  136.8490 O   0  0  0  0  0  0  0  0  0  0  0  0
  189.9740  176.0000  137.9900 C   0  0  0  0  0  0  0  0  0  0  0  0
  191.4910  173.1350  136.3120 C   0  0  0  0  0  3  0  0  0  0  0  0
  191.3560  174.3320  137.0160 C   0  0  0  0  0  0  0  0  0  0  0  0
  192.5120  175.0180  137.4370 C   0  0  0  0  0  0  0  0  0  0  0  0
  192.7670  172.6350  136.0390 C   0  0  0  0  0  3  0  0  0  0  0  0
  193.8910  173.3440  136.4770 C   0  0  0  0  0  3  0  0  0  0  0  0
  190.1250  174.8340  137.2990 N   0  0  0  0  0  0  0  0  0  0  0  0
  193.7440  174.5110  137.1620 N   0  0  0  0  0  0  0  0  0  0  0  0
  192.3760  176.2140  138.1450 C   0  0  0  0  0  3  0  0  0  0  0  0
  191.1010  176.7070  138.4270 C   0  0  0  0  0  3  0  0  0  0  0  0
  187.8560  178.5730  139.4900 N   0  0  0  0  0  2  0  0  0  0  0  0
  188.5170  178.0400  140.6100 N   0  0  0  0  0  2  0  0  0  0  0  0
  188.9610  176.8510  143.1100 F   0  0  0  0  0  0  0  0  0  0  0  0
  185.4040  178.9520  142.5280 C   0  0  0  0  0  3  0  0  0  0  0  0
  185.6310  178.3930  143.7220 C   0  0  0  0  0  0  0  0  0  0  0  0
  187.6820  177.2430  142.7570 C   0  0  2  0  0  3  0  0  0  0  0  0
  187.7370  178.4120  141.7780 C   0  0  2  0  0  3  0  0  0  0  0  0
  186.3130  178.7530  141.3470 C   0  0  0  0  0  2  0  0  0  0  0  0
  186.9180  177.6550  144.0160 C   0  0  0  0  0  2  0  0  0  0  0  0
  185.0230  178.4990  146.1760 C   0  0  0  0  0  1  0  0  0  0  0  0
  184.6860  178.6250  144.7670 N   0  0  0  0  0  2  0  0  0  0  0  0
  186.8120  175.1280  135.5140 C   0  0  0  0  0  2  0  0  0  0  0  0
  185.6780  173.7880  137.1950 C   0  0  0  0  0  0  0  0  0  0  0  0
  185.7610  172.9160  138.0700 O   0  0  0  0  0  0  0  0  0  0  0  0
  185.5930  174.7070  136.2690 C   0  0  0  0  0  0  0  0  0  0  0  0
  184.3240  175.4740  136.0970 C   0  0  0  0  0  2  0  0  0  0  0  0
  183.8210  177.8000  139.0450 C   0  0  0  0  0  3  0  0  0  0  0  0
  182.9380  175.2910  138.1820 C   0  0  0  0  0  3  0  0  0  0  0  0
  182.4750  175.8150  139.3920 C   0  0  0  0  0  3  0  0  0  0  0  0
  184.2830  177.2770  137.8350 C   0  0  0  0  0  3  0  0  0  0  0  0
  182.9180  177.0690  139.8250 C   0  0  0  0  0  3  0  0  0  0  0  0
  183.8450  176.0190  137.4020 C   0  0  0  0  0  0  0  0  0  0  0  0
  1  5  1  0  0  0  0
  1 19  1  1  0  0  0
  3  2  1  6  0  0  0
  3  4  1  0  0  0  0
  3  7  1  0  0  0  0
  4 30  1  6  0  0  0
  4  6  1  0  0  0  0
  5  9  1  6  0  0  0
  6  5  1  0  0  0  0
  7  1  1  0  0  0  0
  8  7  2  0  0  0  0
  9 18  1  0  0  0  0
 10 11  1  0  0  0  0
 11 15  1  0  0  0  0
 11 12  2  0  0  0  0
 12 17  1  0  0  0  0
 13 10  2  0  0  0  0
 13 14  1  0  0  0  0
 14 16  2  0  0  0  0
 15  9  2  0  0  0  0
 16 12  1  0  0  0  0
 17 18  2  0  0  0  0
 19 20  1  0  0  0  0
 22 23  2  0  0  0  0
 23 27  1  0  0  0  0
 23 29  1  0  0  0  0
 24 21  1  1  0  0  0
 24 27  1  0  0  0  0
 25 20  1  6  0  0  0
 25 24  1  0  0  0  0
 26 25  1  0  0  0  0
 26 22  1  0  0  0  0
 29 28  1  0  0  0  0
 30 33  1  0  0  0  0
 31 32  2  0  0  0  0
 33 31  2  0  0  0  0
 34 33  1  0  0  0  0
 34 40  1  0  0  0  0
 35 39  1  0  0  0  0
 36 37  1  0  0  0  0
 37 39  2  0  0  0  0
 38 35  2  0  0  0  0
 40 38  1  0  0  0  0
 40 36  2  0  0  0  0
M  END
>  <MODEL>
4

>  <REMARK>
 VINA RESULT:      -7.5      2.466      3.200
  Name = 
  9 active torsions:
  status: ('A' for Active; 'I' for Inactive)
    1  A    between atoms: C_1  and  N_16
    2  A    between atoms: N_4  and  N_16
    3  A    between atoms: N_4  and  C_26
    4  A    between atoms: C_5  and  C_15
    5  A    between atoms: C_14  and  C_34
    6  A    between atoms: C_17  and  N_30
    7  A    between atoms: C_31  and  C_38
    8  A    between atoms: C_31  and  C_39
    9  A    between atoms: C_34  and  C_38
                            x       y       z     vdW  Elec       q    Type
                         _______ _______ _______ _____ _____    ______ ____

>  <TORSDO>
F 9

$$$$
=
 OpenBabel10232408403D

 40 44  0  0  1  0  0  0  0  0999 V2000
  189.0370  176.3130  137.4320 C   0  0  1  0  0  3  0  0  0  0  0  0
  185.7490  174.7250  137.3710 O   0  0  0  0  0  1  0  0  0  0  0  0
  186.5260  175.7650  136.8570 C   0  0  1  0  0  3  0  0  0  0  0  0
  186.2750  177.0410  137.6670 C   0  0  1  0  0  3  0  0  0  0  0  0
  188.4660  177.6240  138.0000 C   0  0  1  0  0  3  0  0  0  0  0  0
  187.2520  178.0140  137.3870 O   0  0  0  0  0  0  0  0  0  0  0  0
  187.9780  175.3720  136.9020 C   0  0  0  0  0  0  0  0  0  0  0  0
  188.3160  174.2780  136.4760 O   0  0  0  0  0  0  0  0  0  0  0  0
  188.4190  177.6670  139.5010 C   0  0  0  0  0  0  0  0  0  0  0  0
  190.1560  176.1810  142.3470 C   0  0  0  0  0  3  0  0  0  0  0  0
  189.2450  176.9300  141.6020 C   0  0  0  0  0  0  0  0  0  0  0  0
  188.2540  177.6750  142.2730 C   0  0  0  0  0  0  0  0  0  0  0  0
  190.0700  176.1770  143.7420 C   0  0  0  0  0  3  0  0  0  0  0  0
  189.0700  176.9270  144.3710 C   0  0  0  0  0  3  0  0  0  0  0  0
  189.3040  176.9430  140.2450 N   0  0  0  0  0  0  0  0  0  0  0  0
  188.1890  177.6550  143.6310 N   0  0  0  0  0  0  0  0  0  0  0  0
  187.3400  178.4220  141.5270 C   0  0  0  0  0  3  0  0  0  0  0  0
  187.4200  178.4160  140.1330 C   0  0  0  0  0  3  0  0  0  0  0  0
  190.0670  176.5790  136.4260 N   0  0  0  0  0  2  0  0  0  0  0  0
  191.2700  176.9000  137.0770 N   0  0  0  0  0  2  0  0  0  0  0  0
  193.3830  176.7110  138.9110 F   0  0  0  0  0  0  0  0  0  0  0  0
  192.9390  173.6680  136.0920 C   0  0  0  0  0  3  0  0  0  0  0  0
  193.9360  173.5790  136.9790 C   0  0  0  0  0  0  0  0  0  0  0  0
  193.4030  175.9370  137.7640 C   0  0  2  0  0  3  0  0  0  0  0  0
  191.9800  175.6500  137.2940 C   0  0  2  0  0  3  0  0  0  0  0  0
  192.0480  174.8730  135.9820 C   0  0  0  0  0  2  0  0  0  0  0  0
  194.1290  174.6240  138.0560 C   0  0  0  0  0  2  0  0  0  0  0  0
  195.9940  172.3000  137.7070 C   0  0  0  0  0  1  0  0  0  0  0  0
  194.7410  172.3990  136.9770 N   0  0  0  0  0  2  0  0  0  0  0  0
  184.8950  177.6210  137.3880 C   0  0  0  0  0  2  0  0  0  0  0  0
  184.1760  179.4290  138.8440 C   0  0  0  0  0  0  0  0  0  0  0  0
  184.1010  180.6490  139.0400 O   0  0  0  0  0  0  0  0  0  0  0  0
  184.2570  178.1410  138.6350 C   0  0  0  0  0  0  0  0  0  0  0  0
  183.5430  177.1940  139.5420 C   0  0  0  0  0  2  0  0  0  0  0  0
  181.2500  178.9520  141.9920 C   0  0  0  0  0  3  0  0  0  0  0  0
  183.9080  178.0940  141.8560 C   0  0  0  0  0  3  0  0  0  0  0  0
  183.4370  178.7270  143.0100 C   0  0  0  0  0  3  0  0  0  0  0  0
  181.7200  178.3190  140.8380 C   0  0  0  0  0  3  0  0  0  0  0  0
  182.1090  179.1580  143.0770 C   0  0  0  0  0  3  0  0  0  0  0  0
  183.0520  177.8910  140.7670 C   0  0  0  0  0  0  0  0  0  0  0  0
  1 19  1  6  0  0  0
  1  5  1  0  0  0  0
  3  7  1  0  0  0  0
  3  2  1  1  0  0  0
  3  4  1  0  0  0  0
  4 30  1  6  0  0  0
  5  9  1  1  0  0  0
  6  4  1  0  0  0  0
  6  5  1  0  0  0  0
  7  1  1  0  0  0  0
  8  7  2  0  0  0  0
  9 18  2  0  0  0  0
  9 15  1  0  0  0  0
 10 13  2  0  0  0  0
 11 12  1  0  0  0  0
 11 10  1  0  0  0  0
 12 16  1  0  0  0  0
 13 14  1  0  0  0  0
 15 11  2  0  0  0  0
 16 14  2  0  0  0  0
 17 12  2  0  0  0  0
 18 17  1  0  0  0  0
 19 20  1  0  0  0  0
 22 23  2  0  0  0  0
 23 27  1  0  0  0  0
 24 27  1  0  0  0  0
 24 21  1  1  0  0  0
 25 20  1  6  0  0  0
 25 24  1  0  0  0  0
 26 22  1  0  0  0  0
 26 25  1  0  0  0  0
 29 23  1  0  0  0  0
 29 28  1  0  0  0  0
 30 33  1  0  0  0  0
 31 32  2  0  0  0  0
 33 31  2  0  0  0  0
 33 34  1  0  0  0  0
 34 40  1  0  0  0  0
 35 39  1  0  0  0  0
 36 37  1  0  0  0  0
 37 39  2  0  0  0  0
 38 35  2  0  0  0  0
 40 38  1  0  0  0  0
 40 36  2  0  0  0  0
M  END
>  <MODEL>
5

>  <REMARK>
 VINA RESULT:      -7.4      3.345      7.579
  Name = 
  9 active torsions:
  status: ('A' for Active; 'I' for Inactive)
    1  A    between atoms: C_1  and  N_16
    2  A    between atoms: N_4  and  N_16
    3  A    between atoms: N_4  and  C_26
    4  A    between atoms: C_5  and  C_15
    5  A    between atoms: C_14  and  C_34
    6  A    between atoms: C_17  and  N_30
    7  A    between atoms: C_31  and  C_38
    8  A    between atoms: C_31  and  C_39
    9  A    between atoms: C_34  and  C_38
                            x       y       z     vdW  Elec       q    Type
                         _______ _______ _______ _____ _____    ______ ____

>  <TORSDO>
F 9

$$$$
=
 OpenBabel10232408403D

 40 44  0  0  1  0  0  0  0  0999 V2000
  189.3560  177.8440  139.5950 C   0  0  1  0  0  3  0  0  0  0  0  0
  189.0660  175.7820  142.5960 O   0  0  0  0  0  1  0  0  0  0  0  0
  189.6010  176.9570  142.0630 C   0  0  1  0  0  3  0  0  0  0  0  0
  191.0430  176.7040  141.6120 C   0  0  1  0  0  3  0  0  0  0  0  0
  190.8810  177.6540  139.5330 C   0  0  1  0  0  3  0  0  0  0  0  0
  191.5070  177.7540  140.7980 O   0  0  0  0  0  0  0  0  0  0  0  0
  188.7470  177.4180  140.9130 C   0  0  0  0  0  0  0  0  0  0  0  0
  187.5350  177.4750  141.0520 O   0  0  0  0  0  0  0  0  0  0  0  0
  191.3130  176.4500  138.7460 C   0  0  0  0  0  0  0  0  0  0  0  0
  194.4000  174.9070  137.5560 C   0  0  0  0  0  3  0  0  0  0  0  0
  193.0420  175.1440  137.7730 C   0  0  0  0  0  0  0  0  0  0  0  0
  192.0900  174.2780  137.2000 C   0  0  0  0  0  0  0  0  0  0  0  0
  194.7930  173.8180  136.7720 C   0  0  0  0  0  3  0  0  0  0  0  0
  193.8180  172.9830  136.2170 C   0  0  0  0  0  3  0  0  0  0  0  0
  192.6360  176.2000  138.5260 N   0  0  0  0  0  0  0  0  0  0  0  0
  192.4970  173.2260  136.4390 N   0  0  0  0  0  0  0  0  0  0  0  0
  190.7320  174.5190  137.4150 C   0  0  0  0  0  3  0  0  0  0  0  0
  190.3400  175.6120  138.1890 C   0  0  0  0  0  3  0  0  0  0  0  0
  188.9810  179.2170  139.2540 N   0  0  0  0  0  2  0  0  0  0  0  0
  188.7620  179.3000  137.8680 N   0  0  0  0  0  2  0  0  0  0  0  0
  189.5900  177.6120  135.7880 F   0  0  0  0  0  0  0  0  0  0  0  0
  185.6490  177.3100  137.1250 C   0  0  0  0  0  2  0  0  0  0  0  0
  186.0560  176.5000  136.1420 C   0  0  0  0  0  0  0  0  0  0  0  0
  188.2380  177.7980  136.0200 C   0  0  2  0  0  3  0  0  0  0  0  0
  187.9940  178.1260  137.4900 C   0  0  2  0  0  3  0  0  0  0  0  0
  186.5070  178.4110  137.6840 C   0  0  0  0  0  2  0  0  0  0  0  0
  187.4830  176.5250  135.6390 C   0  0  0  0  0  2  0  0  0  0  0  0
  183.8750  175.2300  136.3090 C   0  0  0  0  0  1  0  0  0  0  0  0
  185.1480  175.5060  135.6650 N   0  0  0  0  0  0  0  0  0  0  0  0
  191.9820  176.5380  142.7990 C   0  0  0  0  0  2  0  0  0  0  0  0
  191.1420  178.5390  143.8920 C   0  0  0  0  0  0  0  0  0  0  0  0
  190.8160  179.7290  143.7900 O   0  0  0  0  0  0  0  0  0  0  0  0
  191.4890  177.2830  143.9970 C   0  0  0  0  0  0  0  0  0  0  0  0
  191.2100  176.5380  145.2600 C   0  0  0  0  0  2  0  0  0  0  0  0
  188.8350  177.8490  147.9040 C   0  0  0  0  0  3  0  0  0  0  0  0
  188.8020  177.2410  145.1750 C   0  0  0  0  0  3  0  0  0  0  0  0
  187.6510  177.7370  145.7940 C   0  0  0  0  0  3  0  0  0  0  0  0
  189.9870  177.3540  147.2860 C   0  0  0  0  0  3  0  0  0  0  0  0
  187.6670  178.0390  147.1590 C   0  0  0  0  0  3  0  0  0  0  0  0
  189.9710  177.0450  145.9210 C   0  0  0  0  0  0  0  0  0  0  0  0
  1 19  1  1  0  0  0
  1  7  1  0  0  0  0
  3  2  1  6  0  0  0
  4  3  1  0  0  0  0
  4 30  1  1  0  0  0
  5  9  1  1  0  0  0
  5  1  1  0  0  0  0
  5  6  1  0  0  0  0
  6  4  1  0  0  0  0
  7  8  2  0  0  0  0
  7  3  1  0  0  0  0
 10 11  1  0  0  0  0
 11 15  2  0  0  0  0
 12 17  2  0  0  0  0
 12 11  1  0  0  0  0
 13 10  2  0  0  0  0
 14 16  2  0  0  0  0
 14 13  1  0  0  0  0
 15  9  1  0  0  0  0
 16 12  1  0  0  0  0
 17 18  1  0  0  0  0
 18  9  2  0  0  0  0
 20 19  1  0  0  0  0
 22 26  1  0  0  0  0
 23 22  1  0  0  0  0
 24 21  1  1  0  0  0
 24 25  1  0  0  0  0
 25 26  1  0  0  0  0
 25 20  1  6  0  0  0
 27 24  1  0  0  0  0
 27 23  1  0  0  0  0
 29 23  2  0  0  0  0
 29 28  1  0  0  0  0
 30 33  1  0  0  0  0
 31 33  2  0  0  0  0
 32 31  2  0  0  0  0
 33 34  1  0  0  0  0
 34 40  1  0  0  0  0
 36 37  2  0  0  0  0
 36 40  1  0  0  0  0
 37 39  1  0  0  0  0
 38 35  1  0  0  0  0
 39 35  2  0  0  0  0
 40 38  2  0  0  0  0
M  END
>  <MODEL>
6

>  <REMARK>
 VINA RESULT:      -7.4      3.144      7.546
  Name = 
  9 active torsions:
  status: ('A' for Active; 'I' for Inactive)
    1  A    between atoms: C_1  and  N_16
    2  A    between atoms: N_4  and  N_16
    3  A    between atoms: N_4  and  C_26
    4  A    between atoms: C_5  and  C_15
    5  A    between atoms: C_14  and  C_34
    6  A    between atoms: C_17  and  N_30
    7  A    between atoms: C_31  and  C_38
    8  A    between atoms: C_31  and  C_39
    9  A    between atoms: C_34  and  C_38
                            x       y       z     vdW  Elec       q    Type
                         _______ _______ _______ _____ _____    ______ ____

>  <TORSDO>
F 9

$$$$
=
 OpenBabel10232408403D

 40 44  0  0  1  0  0  0  0  0999 V2000
  190.0230  177.3590  140.5010 C   0  0  1  0  0  3  0  0  0  0  0  0
  188.0480  175.4460  138.0980 O   0  0  0  0  0  1  0  0  0  0  0  0
  188.7300  176.6440  138.3210 C   0  0  1  0  0  3  0  0  0  0  0  0
  187.7440  177.7140  138.7990 C   0  0  1  0  0  3  0  0  0  0  0  0
  188.9630  178.4710  140.5860 C   0  0  1  0  0  3  0  0  0  0  0  0
  188.4250  178.8270  139.3260 O   0  0  0  0  0  0  0  0  0  0  0  0
  189.8180  176.4170  139.3360 C   0  0  0  0  0  0  0  0  0  0  0  0
  190.5710  175.4650  139.2040 O   0  0  0  0  0  0  0  0  0  0  0  0
  187.9160  178.2350  141.6370 C   0  0  0  0  0  0  0  0  0  0  0  0
  184.6210  179.5000  142.5680 C   0  0  0  0  0  3  0  0  0  0  0  0
  185.8100  178.7710  142.5950 C   0  0  0  0  0  0  0  0  0  0  0  0
  186.0360  177.8600  143.6460 C   0  0  0  0  0  0  0  0  0  0  0  0
  183.6760  179.3180  143.5820 C   0  0  0  0  0  3  0  0  0  0  0  0
  183.9390  178.4070  144.6100 C   0  0  0  0  0  3  0  0  0  0  0  0
  186.7460  178.9360  141.6240 N   0  0  0  0  0  0  0  0  0  0  0  0
  185.1030  177.7020  144.6230 N   0  0  0  0  0  0  0  0  0  0  0  0
  187.2280  177.1330  143.6750 C   0  0  0  0  0  3  0  0  0  0  0  0
  188.1750  177.3230  142.6680 C   0  0  0  0  0  3  0  0  0  0  0  0
  191.3750  177.9200  140.5030 N   0  0  0  0  0  2  0  0  0  0  0  0
  192.1380  177.2700  141.4890 N   0  0  0  0  0  2  0  0  0  0  0  0
  191.5790  179.5700  142.9900 F   0  0  0  0  0  0  0  0  0  0  0  0
  190.8960  175.8500  144.7510 C   0  0  0  0  0  3  0  0  0  0  0  0
  190.6190  176.9530  145.4560 C   0  0  0  0  0  0  0  0  0  0  0  0
  191.7060  178.3500  143.6310 C   0  0  2  0  0  3  0  0  0  0  0  0
  191.3200  177.2140  142.6890 C   0  0  2  0  0  3  0  0  0  0  0  0
  191.5590  175.8870  143.4030 C   0  0  0  0  0  2  0  0  0  0  0  0
  190.8010  178.3330  144.8640 C   0  0  0  0  0  2  0  0  0  0  0  0
  188.8330  177.5460  147.1460 C   0  0  0  0  0  1  0  0  0  0  0  0
  190.0140  176.8010  146.7400 N   0  0  0  0  0  2  0  0  0  0  0  0
  186.8260  178.1740  137.6750 C   0  0  0  0  0  2  0  0  0  0  0  0
  184.9050  179.2720  138.6790 C   0  0  0  0  0  0  0  0  0  0  0  0
  184.4410  180.2860  139.2180 O   0  0  0  0  0  0  0  0  0  0  0  0
  185.3970  178.2030  138.1120 C   0  0  0  0  0  0  0  0  0  0  0  0
  184.4900  177.0830  137.7220 C   0  0  0  0  0  2  0  0  0  0  0  0
  180.7720  177.6550  138.1740 C   0  0  0  0  0  3  0  0  0  0  0  0
  183.0010  177.0300  139.7430 C   0  0  0  0  0  3  0  0  0  0  0  0
  181.7410  177.1460  140.3360 C   0  0  0  0  0  3  0  0  0  0  0  0
  182.0320  177.5390  137.5800 C   0  0  0  0  0  3  0  0  0  0  0  0
  180.6270  177.4600  139.5510 C   0  0  0  0  0  3  0  0  0  0  0  0
  183.1500  177.2290  138.3650 C   0  0  0  0  0  0  0  0  0  0  0  0
  1 19  1  6  0  0  0
  1  5  1  0  0  0  0
  3  2  1  1  0  0  0
  3  4  1  0  0  0  0
  3  7  1  0  0  0  0
  4 30  1  6  0  0  0
  4  6  1  0  0  0  0
  5  9  1  1  0  0  0
  6  5  1  0  0  0  0
  7  1  1  0  0  0  0
  8  7  2  0  0  0  0
  9 18  1  0  0  0  0
 10 11  2  0  0  0  0
 10 13  1  0  0  0  0
 11 12  1  0  0  0  0
 12 17  1  0  0  0  0
 12 16  2  0  0  0  0
 13 14  2  0  0  0  0
 14 16  1  0  0  0  0
 15  9  2  0  0  0  0
 15 11  1  0  0  0  0
 18 17  2  0  0  0  0
 19 20  1  0  0  0  0
 22 23  2  0  0  0  0
 23 29  1  0  0  0  0
 24 21  1  6  0  0  0
 24 27  1  0  0  0  0
 25 20  1  6  0  0  0
 25 26  1  0  0  0  0
 25 24  1  0  0  0  0
 26 22  1  0  0  0  0
 27 23  1  0  0  0  0
 29 28  1  0  0  0  0
 30 33  1  0  0  0  0
 31 32  2  0  0  0  0
 33 31  2  0  0  0  0
 34 33  1  0  0  0  0
 34 40  1  0  0  0  0
 35 39  1  0  0  0  0
 36 37  1  0  0  0  0
 38 35  2  0  0  0  0
 38 40  1  0  0  0  0
 39 37  2  0  0  0  0
 40 36  2  0  0  0  0
M  END
>  <MODEL>
7

>  <REMARK>
 VINA RESULT:      -7.3      3.702      6.757
  Name = 
  9 active torsions:
  status: ('A' for Active; 'I' for Inactive)
    1  A    between atoms: C_1  and  N_16
    2  A    between atoms: N_4  and  N_16
    3  A    between atoms: N_4  and  C_26
    4  A    between atoms: C_5  and  C_15
    5  A    between atoms: C_14  and  C_34
    6  A    between atoms: C_17  and  N_30
    7  A    between atoms: C_31  and  C_38
    8  A    between atoms: C_31  and  C_39
    9  A    between atoms: C_34  and  C_38
                            x       y       z     vdW  Elec       q    Type
                         _______ _______ _______ _____ _____    ______ ____

>  <TORSDO>
F 9

$$$$
=
 OpenBabel10232408403D

 40 44  0  0  1  0  0  0  0  0999 V2000
  183.4610  178.7020  139.4190 C   0  0  1  0  0  3  0  0  0  0  0  0
  184.9510  177.5790  142.5580 O   0  0  0  0  0  1  0  0  0  0  0  0
  184.9020  178.6130  141.6220 C   0  0  1  0  0  3  0  0  0  0  0  0
  186.0510  178.4530  140.6220 C   0  0  1  0  0  3  0  0  0  0  0  0
  184.8250  178.7270  138.7050 C   0  0  1  0  0  3  0  0  0  0  0  0
  185.8590  179.2780  139.4980 O   0  0  0  0  0  0  0  0  0  0  0  0
  183.5690  178.5920  140.9230 C   0  0  0  0  0  0  0  0  0  0  0  0
  182.5470  178.5100  141.5870 O   0  0  0  0  0  0  0  0  0  0  0  0
  185.1970  177.4230  138.0600 C   0  0  0  0  0  0  0  0  0  0  0  0
  183.7520  174.1140  137.5190 C   0  0  0  0  0  3  0  0  0  0  0  0
  184.6600  175.1740  137.5160 C   0  0  0  0  0  0  0  0  0  0  0  0
  185.9380  174.9850  136.9550 C   0  0  0  0  0  0  0  0  0  0  0  0
  184.1260  172.8840  136.9700 C   0  0  0  0  0  3  0  0  0  0  0  0
  185.4060  172.7340  136.4260 C   0  0  0  0  0  3  0  0  0  0  0  0
  184.3210  176.3760  138.0510 N   0  0  0  0  0  0  0  0  0  0  0  0
  186.2800  173.7780  136.4290 N   0  0  0  0  0  0  0  0  0  0  0  0
  186.8470  176.0450  136.9560 C   0  0  0  0  0  3  0  0  0  0  0  0
  186.4770  177.2700  137.5140 C   0  0  0  0  0  3  0  0  0  0  0  0
  182.6400  179.8480  139.0250 N   0  0  0  0  0  2  0  0  0  0  0  0
  181.4580  179.3790  138.4250 N   0  0  0  0  0  2  0  0  0  0  0  0
  180.3850  179.3130  135.8360 F   0  0  0  0  0  0  0  0  0  0  0  0
  180.9410  183.0300  137.6470 C   0  0  0  0  0  2  0  0  0  0  0  0
  180.4170  182.9880  136.4170 C   0  0  0  0  0  0  0  0  0  0  0  0
  180.9080  180.4960  136.3290 C   0  0  2  0  0  3  0  0  0  0  0  0
  180.7890  180.5340  137.8490 C   0  0  2  0  0  3  0  0  0  0  0  0
  181.4560  181.8090  138.3580 C   0  0  0  0  0  2  0  0  0  0  0  0
  180.1470  181.6740  135.7190 C   0  0  0  0  0  2  0  0  0  0  0  0
  180.1760  185.5060  136.4610 C   0  0  0  0  0  1  0  0  0  0  0  0
  179.9850  184.2130  135.8240 N   0  0  0  0  0  0  0  0  0  0  0  0
  187.3970  178.7760  141.2560 C   0  0  0  0  0  2  0  0  0  0  0  0
  189.1090  178.0980  139.6700 C   0  0  0  0  0  0  0  0  0  0  0  0
  189.7170  178.3390  138.6190 O   0  0  0  0  0  0  0  0  0  0  0  0
  188.4650  177.8460  140.7790 C   0  0  0  0  0  0  0  0  0  0  0  0
  188.9230  176.7390  141.6690 C   0  0  0  0  0  2  0  0  0  0  0  0
  187.8540  177.1410  145.2820 C   0  0  0  0  0  3  0  0  0  0  0  0
  189.9620  177.9270  143.6210 C   0  0  0  0  0  3  0  0  0  0  0  0
  189.9580  178.3020  144.9680 C   0  0  0  0  0  3  0  0  0  0  0  0
  187.8580  176.7660  143.9360 C   0  0  0  0  0  3  0  0  0  0  0  0
  188.9030  177.9100  145.7980 C   0  0  0  0  0  3  0  0  0  0  0  0
  188.9110  177.1620  143.1010 C   0  0  0  0  0  0  0  0  0  0  0  0
  1 19  1  1  0  0  0
  1  7  1  0  0  0  0
  3  2  1  1  0  0  0
  4 30  1  1  0  0  0
  4  3  1  0  0  0  0
  5  9  1  1  0  0  0
  5  1  1  0  0  0  0
  5  6  1  0  0  0  0
  6  4  1  0  0  0  0
  7  8  2  0  0  0  0
  7  3  1  0  0  0  0
 11 10  1  0  0  0  0
 11 15  2  0  0  0  0
 12 17  2  0  0  0  0
 12 11  1  0  0  0  0
 13 10  2  0  0  0  0
 14 16  2  0  0  0  0
 14 13  1  0  0  0  0
 15  9  1  0  0  0  0
 16 12  1  0  0  0  0
 17 18  1  0  0  0  0
 18  9  2  0  0  0  0
 20 19  1  0  0  0  0
 22 26  1  0  0  0  0
 23 22  1  0  0  0  0
 24 21  1  6  0  0  0
 24 25  1  0  0  0  0
 25 26  1  0  0  0  0
 25 20  1  1  0  0  0
 27 24  1  0  0  0  0
 27 23  1  0  0  0  0
 29 23  2  0  0  0  0
 29 28  1  0  0  0  0
 31 33  2  0  0  0  0
 32 31  2  0  0  0  0
 33 30  1  0  0  0  0
 33 34  1  0  0  0  0
 34 40  1  0  0  0  0
 35 39  1  0  0  0  0
 36 37  1  0  0  0  0
 37 39  2  0  0  0  0
 38 35  2  0  0  0  0
 40 36  2  0  0  0  0
 40 38  1  0  0  0  0
M  END
>  <MODEL>
8

>  <REMARK>
 VINA RESULT:      -7.3      5.824      9.346
  Name = 
  9 active torsions:
  status: ('A' for Active; 'I' for Inactive)
    1  A    between atoms: C_1  and  N_16
    2  A    between atoms: N_4  and  N_16
    3  A    between atoms: N_4  and  C_26
    4  A    between atoms: C_5  and  C_15
    5  A    between atoms: C_14  and  C_34
    6  A    between atoms: C_17  and  N_30
    7  A    between atoms: C_31  and  C_38
    8  A    between atoms: C_31  and  C_39
    9  A    between atoms: C_34  and  C_38
                            x       y       z     vdW  Elec       q    Type
                         _______ _______ _______ _____ _____    ______ ____

>  <TORSDO>
F 9

$$$$
=
 OpenBabel10232408403D

 40 44  0  0  1  0  0  0  0  0999 V2000
  190.0980  177.4900  140.2750 C   0  0  1  0  0  3  0  0  0  0  0  0
  188.6540  175.6350  137.4800 O   0  0  0  0  0  1  0  0  0  0  0  0
  189.3100  176.8080  137.8560 C   0  0  1  0  0  3  0  0  0  0  0  0
  188.2810  177.9150  138.1010 C   0  0  1  0  0  3  0  0  0  0  0  0
  189.0870  178.6390  140.1200 C   0  0  1  0  0  3  0  0  0  0  0  0
  188.8640  179.0060  138.7720 O   0  0  0  0  0  0  0  0  0  0  0  0
  190.1300  176.5490  139.0920 C   0  0  0  0  0  0  0  0  0  0  0  0
  190.8590  175.5690  139.1320 O   0  0  0  0  0  0  0  0  0  0  0  0
  187.8210  178.4460  140.9040 C   0  0  0  0  0  0  0  0  0  0  0  0
  184.2370  179.0330  140.5280 C   0  0  0  0  0  3  0  0  0  0  0  0
  185.4640  178.6700  141.0870 C   0  0  0  0  0  0  0  0  0  0  0  0
  185.5000  178.1780  142.4060 C   0  0  0  0  0  0  0  0  0  0  0  0
  183.0690  178.9060  141.2840 C   0  0  0  0  0  3  0  0  0  0  0  0
  183.1480  178.4170  142.5930 C   0  0  0  0  0  3  0  0  0  0  0  0
  186.6130  178.7910  140.3730 N   0  0  0  0  0  0  0  0  0  0  0  0
  184.3500  178.0660  143.1240 N   0  0  0  0  0  0  0  0  0  0  0  0
  186.7280  177.8190  142.9660 C   0  0  0  0  0  3  0  0  0  0  0  0
  187.8950  177.9560  142.2140 C   0  0  0  0  0  3  0  0  0  0  0  0
  191.4340  178.0020  140.5860 N   0  0  0  0  0  2  0  0  0  0  0  0
  191.9570  177.2830  141.6760 N   0  0  0  0  0  2  0  0  0  0  0  0
  191.7080  179.5470  143.3110 F   0  0  0  0  0  0  0  0  0  0  0  0
  189.9220  175.9940  144.5740 C   0  0  0  0  0  3  0  0  0  0  0  0
  189.7970  177.0820  145.3420 C   0  0  0  0  0  0  0  0  0  0  0  0
  191.4490  178.2920  143.8360 C   0  0  2  0  0  3  0  0  0  0  0  0
  190.9680  177.3480  142.7390 C   0  0  2  0  0  3  0  0  0  0  0  0
  190.7820  175.9580  143.3410 C   0  0  0  0  0  2  0  0  0  0  0  0
  190.3810  178.4140  144.9230 C   0  0  0  0  0  2  0  0  0  0  0  0
  187.6940  177.6700  146.6180 C   0  0  0  0  0  1  0  0  0  0  0  0
  188.9770  176.9970  146.5080 N   0  0  0  0  0  2  0  0  0  0  0  0
  187.6590  178.4020  136.7980 C   0  0  0  0  0  2  0  0  0  0  0  0
  186.3040  176.9610  135.3870 C   0  0  0  0  0  0  0  0  0  0  0  0
  186.2170  176.2960  134.3470 O   0  0  0  0  0  0  0  0  0  0  0  0
  186.3980  177.6660  136.4840 C   0  0  0  0  0  0  0  0  0  0  0  0
  185.3230  177.5800  137.5170 C   0  0  0  0  0  2  0  0  0  0  0  0
  183.6000  174.2430  137.0210 C   0  0  0  0  0  3  0  0  0  0  0  0
  183.0640  176.9580  136.6160 C   0  0  0  0  0  3  0  0  0  0  0  0
  182.1000  176.0000  136.2890 C   0  0  0  0  0  3  0  0  0  0  0  0
  184.5640  175.2000  137.3490 C   0  0  0  0  0  3  0  0  0  0  0  0
  182.3690  174.6430  136.4900 C   0  0  0  0  0  3  0  0  0  0  0  0
  184.2990  176.5600  137.1440 C   0  0  0  0  0  0  0  0  0  0  0  0
  1 19  1  6  0  0  0
  3  2  1  1  0  0  0
  3  4  1  0  0  0  0
  3  7  1  0  0  0  0
  4 30  1  6  0  0  0
  4  6  1  0  0  0  0
  5  1  1  0  0  0  0
  5  9  1  6  0  0  0
  6  5  1  0  0  0  0
  7  8  2  0  0  0  0
  7  1  1  0  0  0  0
  9 18  1  0  0  0  0
 10 11  2  0  0  0  0
 10 13  1  0  0  0  0
 11 12  1  0  0  0  0
 12 17  1  0  0  0  0
 12 16  2  0  0  0  0
 13 14  2  0  0  0  0
 14 16  1  0  0  0  0
 15  9  2  0  0  0  0
 15 11  1  0  0  0  0
 18 17  2  0  0  0  0
 19 20  1  0  0  0  0
 22 23  2  0  0  0  0
 23 29  1  0  0  0  0
 24 21  1  6  0  0  0
 24 27  1  0  0  0  0
 25 20  1  6  0  0  0
 25 26  1  0  0  0  0
 25 24  1  0  0  0  0
 26 22  1  0  0  0  0
 27 23  1  0  0  0  0
 29 28  1  0  0  0  0
 31 33  2  0  0  0  0
 32 31  2  0  0  0  0
 33 30  1  0  0  0  0
 33 34  1  0  0  0  0
 35 38  1  0  0  0  0
 36 40  1  0  0  0  0
 37 39  1  0  0  0  0
 37 36  2  0  0  0  0
 39 35  2  0  0  0  0
 40 38  2  0  0  0  0
 40 34  1  0  0  0  0
M  END
>  <MODEL>
9

>  <REMARK>
 VINA RESULT:      -7.2      3.167      5.928
  Name = 
  9 active torsions:
  status: ('A' for Active; 'I' for Inactive)
    1  A    between atoms: C_1  and  N_16
    2  A    between atoms: N_4  and  N_16
    3  A    between atoms: N_4  and  C_26
    4  A    between atoms: C_5  and  C_15
    5  A    between atoms: C_14  and  C_34
    6  A    between atoms: C_17  and  N_30
    7  A    between atoms: C_31  and  C_38
    8  A    between atoms: C_31  and  C_39
    9  A    between atoms: C_34  and  C_38
                            x       y       z     vdW  Elec       q    Type
                         _______ _______ _______ _____ _____    ______ ____

>  <TORSDO>
F 9

$$$$
