=
 OpenBabel10232408173D

 32 36  0  0  1  0  0  0  0  0999 V2000
  186.8170  178.3890  140.2550 C   0  0  0  0  0  0  0  0  0  0  0  0
  188.6920  176.9960  142.8510 C   0  0  0  0  0  2  0  0  0  0  0  0
  184.5400  178.6340  142.1360 C   0  0  0  0  0  0  0  0  0  0  0  0
  188.2930  178.2500  142.2120 N   0  0  0  0  0  0  0  0  0  0  0  0
  185.2710  178.5390  139.5600 S   0  0  0  0  0  0  0  0  0  0  0  0
  187.4370  176.7130  145.1420 C   0  0  1  0  0  3  0  0  0  0  0  0
  188.5410  178.0060  148.6080 C   0  0  0  0  0  1  0  0  0  0  0  0
  184.1340  178.6710  140.7730 C   0  0  0  0  0  0  0  0  0  0  0  0
  188.7130  177.5640  147.1710 C   0  0  1  0  0  3  0  0  0  0  0  0
  186.9710  178.4030  141.6700 C   0  0  0  0  0  0  0  0  0  0  0  0
  189.5470  178.3070  144.9140 C   0  0  2  0  0  3  0  0  0  0  0  0
  187.3770  177.0830  146.6300 C   0  0  0  0  0  2  0  0  0  0  0  0
  189.2780  179.3000  142.0000 C   0  0  0  0  0  1  0  0  0  0  0  0
  182.3280  178.7490  141.9180 N   0  0  0  0  0  0  0  0  0  0  0  0
  182.8030  178.7360  140.6760 N   0  0  0  0  0  0  0  0  0  0  0  0
  186.1850  177.0620  144.4670 N   0  0  0  0  0  2  0  0  0  0  0  0
  185.8780  178.5470  142.5840 C   0  0  0  0  0  0  0  0  0  0  0  0
  185.3310  179.3170  144.9620 C   0  0  0  0  0  1  0  0  0  0  0  0
  189.1660  178.7440  146.3310 C   0  0  0  0  0  2  0  0  0  0  0  0
  183.3400  178.6840  142.8210 C   0  0  0  0  0  3  0  0  0  0  0  0
  186.1990  178.4580  144.0540 C   0  0  1  0  0  3  0  0  0  0  0  0
  188.7410  177.1040  144.3850 C   0  0  2  0  0  3  0  0  0  0  0  0
  188.9700  177.3090  138.7700 C   0  0  0  0  0  2  0  0  0  0  0  0
  187.9340  178.1870  139.3900 N   0  0  0  0  0  0  0  0  0  0  0  0
  188.9840  178.6440  138.4320 C   0  0  0  0  0  2  0  0  0  0  0  0
  191.0350  177.9830  144.8470 C   0  0  0  0  0  2  0  0  0  0  0  0
  191.3080  176.6600  145.3900 N   0  0  0  0  0  0  0  0  0  0  0  0
  191.8850  174.7390  143.7930 N   0  0  0  0  0  0  0  0  0  0  0  0
  191.6250  175.6060  144.5130 C   0  0  0  0  0  0  0  0  0  0  0  0
  191.3180  176.5170  146.8480 C   0  0  0  0  0  2  0  0  0  0  0  0
  193.0770  176.1240  148.4910 N   0  0  0  0  0  1  0  0  0  0  0  0
  192.3720  175.5410  147.3620 C   0  0  0  0  0  2  0  0  0  0  0  0
  1 10  2  0  0  0  0
  3 17  2  0  0  0  0
  3 20  1  0  0  0  0
  4  2  1  0  0  0  0
  5  1  1  0  0  0  0
  5  8  1  0  0  0  0
  6 12  1  1  0  0  0
  8  3  1  0  0  0  0
  9  7  1  1  0  0  0
 10  4  1  0  0  0  0
 10 17  1  0  0  0  0
 11 26  1  1  0  0  0
 11 19  1  0  0  0  0
 12  9  1  0  0  0  0
 13  4  1  0  0  0  0
 14 20  2  0  0  0  0
 15  8  2  0  0  0  0
 15 14  1  0  0  0  0
 16  6  1  0  0  0  0
 17 21  1  0  0  0  0
 19  9  1  0  0  0  0
 21 16  1  0  0  0  0
 21 18  1  1  0  0  0
 22  2  1  6  0  0  0
 22 11  1  0  0  0  0
 22  6  1  0  0  0  0
 23 24  1  0  0  0  0
 24  1  1  0  0  0  0
 25 23  1  0  0  0  0
 25 24  1  0  0  0  0
 26 27  1  0  0  0  0
 27 30  1  0  0  0  0
 28 29  3  0  0  0  0
 29 27  1  0  0  0  0
 30 32  1  0  0  0  0
 32 31  1  0  0  0  0
M  END
>  <MODEL>
1

>  <REMARK>
 VINA RESULT:      -6.9      0.000      0.000
  Name = 
  6 active torsions:
  status: ('A' for Active; 'I' for Inactive)
    1  A    between atoms: C_1  and  N_20
    2  A    between atoms: C_13  and  C_24
    3  A    between atoms: C_17  and  C_30
    4  A    between atoms: C_24  and  N_27
    5  A    between atoms: N_27  and  C_30
    6  A    between atoms: N_27  and  C_31
                            x       y       z     vdW  Elec       q    Type
                         _______ _______ _______ _____ _____    ______ ____

>  <TORSDO>
F 6

$$$$
=
 OpenBabel10232408173D

 32 36  0  0  1  0  0  0  0  0999 V2000
  185.1610  178.5430  140.6710 C   0  0  0  0  0  0  0  0  0  0  0  0
  187.8400  176.9920  142.2880 C   0  0  0  0  0  2  0  0  0  0  0  0
  183.7970  178.7440  143.2940 C   0  0  0  0  0  0  0  0  0  0  0  0
  187.2710  178.2820  141.8990 N   0  0  0  0  0  0  0  0  0  0  0  0
  183.4740  178.7560  140.6350 S   0  0  0  0  0  0  0  0  0  0  0  0
  187.5560  176.6260  144.8750 C   0  0  1  0  0  3  0  0  0  0  0  0
  189.9580  177.7320  147.6870 C   0  0  0  0  0  1  0  0  0  0  0  0
  182.8970  178.8540  142.1980 C   0  0  0  0  0  0  0  0  0  0  0  0
  189.5470  177.3550  146.2810 C   0  0  1  0  0  3  0  0  0  0  0  0
  185.8500  178.4860  141.9170 C   0  0  0  0  0  0  0  0  0  0  0  0
  189.4720  178.1860  143.9050 C   0  0  2  0  0  3  0  0  0  0  0  0
  188.0890  176.9270  146.2820 C   0  0  0  0  0  2  0  0  0  0  0  0
  188.1360  179.3200  141.3600 C   0  0  0  0  0  1  0  0  0  0  0  0
  181.6770  178.9140  143.9540 N   0  0  0  0  0  0  0  0  0  0  0  0
  181.6350  178.9500  142.6260 N   0  0  0  0  0  0  0  0  0  0  0  0
  186.1540  177.0310  144.7500 N   0  0  0  0  0  2  0  0  0  0  0  0
  185.1990  178.6090  143.1870 C   0  0  0  0  0  0  0  0  0  0  0  0
  185.6400  179.2770  145.6170 C   0  0  0  0  0  1  0  0  0  0  0  0
  189.6840  178.5630  145.3740 C   0  0  0  0  0  2  0  0  0  0  0  0
  182.9560  178.7860  144.3920 C   0  0  0  0  0  3  0  0  0  0  0  0
  186.0590  178.4450  144.4140 C   0  0  1  0  0  3  0  0  0  0  0  0
  188.4810  177.0250  143.6860 C   0  0  2  0  0  3  0  0  0  0  0  0
  185.8860  178.3540  137.9430 C   0  0  0  0  0  2  0  0  0  0  0  0
  185.8490  178.3590  139.4350 N   0  0  0  0  0  0  0  0  0  0  0  0
  187.0430  178.0140  138.6080 C   0  0  0  0  0  2  0  0  0  0  0  0
  190.8060  177.8360  143.2550 C   0  0  0  0  0  2  0  0  0  0  0  0
  190.7340  176.5530  142.5700 N   0  0  0  0  0  0  0  0  0  0  0  0
  190.5460  176.5020  140.0130 N   0  0  0  0  0  0  0  0  0  0  0  0
  190.6310  176.5250  141.1670 C   0  0  0  0  0  0  0  0  0  0  0  0
  190.8570  175.3430  143.3870 C   0  0  0  0  0  2  0  0  0  0  0  0
  192.4410  174.0440  144.7110 N   0  0  0  0  0  1  0  0  0  0  0  0
  192.0070  175.3930  144.3900 C   0  0  0  0  0  2  0  0  0  0  0  0
  1 10  2  0  0  0  0
  3 20  1  0  0  0  0
  4 10  1  0  0  0  0
  4  2  1  0  0  0  0
  5  1  1  0  0  0  0
  5  8  1  0  0  0  0
  6 12  1  1  0  0  0
  8 15  2  0  0  0  0
  8  3  1  0  0  0  0
  9 12  1  0  0  0  0
  9  7  1  1  0  0  0
 10 17  1  0  0  0  0
 11 26  1  1  0  0  0
 11 19  1  0  0  0  0
 13  4  1  0  0  0  0
 14 20  2  0  0  0  0
 15 14  1  0  0  0  0
 16  6  1  0  0  0  0
 17  3  2  0  0  0  0
 17 21  1  0  0  0  0
 19  9  1  0  0  0  0
 21 16  1  0  0  0  0
 21 18  1  1  0  0  0
 22  2  1  6  0  0  0
 22 11  1  0  0  0  0
 22  6  1  0  0  0  0
 23 25  1  0  0  0  0
 23 24  1  0  0  0  0
 24  1  1  0  0  0  0
 25 24  1  0  0  0  0
 27 26  1  0  0  0  0
 27 30  1  0  0  0  0
 28 29  3  0  0  0  0
 29 27  1  0  0  0  0
 30 32  1  0  0  0  0
 32 31  1  0  0  0  0
M  END
>  <MODEL>
2

>  <REMARK>
 VINA RESULT:      -6.6      1.653      2.126
  Name = 
  6 active torsions:
  status: ('A' for Active; 'I' for Inactive)
    1  A    between atoms: C_1  and  N_20
    2  A    between atoms: C_13  and  C_24
    3  A    between atoms: C_17  and  C_30
    4  A    between atoms: C_24  and  N_27
    5  A    between atoms: N_27  and  C_30
    6  A    between atoms: N_27  and  C_31
                            x       y       z     vdW  Elec       q    Type
                         _______ _______ _______ _____ _____    ______ ____

>  <TORSDO>
F 6

$$$$
=
 OpenBabel10232408173D

 32 36  0  0  1  0  0  0  0  0999 V2000
  190.1640  177.1030  138.8170 C   0  0  0  0  0  0  0  0  0  0  0  0
  190.5220  176.0770  142.1370 C   0  0  0  0  0  2  0  0  0  0  0  0
  187.4340  178.0420  139.4850 C   0  0  0  0  0  0  0  0  0  0  0  0
  190.6790  177.2030  141.2160 N   0  0  0  0  0  0  0  0  0  0  0  0
  189.0880  177.2960  137.5140 S   0  0  0  0  0  0  0  0  0  0  0  0
  188.4320  176.4630  143.6830 C   0  0  1  0  0  3  0  0  0  0  0  0
  188.3150  178.3250  147.0630 C   0  0  0  0  0  1  0  0  0  0  0  0
  187.6180  177.8340  138.0890 C   0  0  0  0  0  0  0  0  0  0  0  0
  188.9470  177.5620  145.9180 C   0  0  1  0  0  3  0  0  0  0  0  0
  189.7440  177.4030  140.1450 C   0  0  0  0  0  0  0  0  0  0  0  0
  190.7420  177.6830  144.1560 C   0  0  2  0  0  3  0  0  0  0  0  0
  187.8660  177.1520  144.9320 C   0  0  0  0  0  2  0  0  0  0  0  0
  191.8620  178.0450  141.2990 C   0  0  0  0  0  1  0  0  0  0  0  0
  185.5660  178.3910  138.3250 N   0  0  0  0  0  0  0  0  0  0  0  0
  186.4800  178.0470  137.4230 N   0  0  0  0  0  0  0  0  0  0  0  0
  187.6530  176.8150  142.4940 N   0  0  0  0  0  2  0  0  0  0  0  0
  188.4340  177.8820  140.4700 C   0  0  0  0  0  0  0  0  0  0  0  0
  187.1620  179.2150  142.2470 C   0  0  0  0  0  1  0  0  0  0  0  0
  189.9300  178.4630  145.1940 C   0  0  0  0  0  2  0  0  0  0  0  0
  186.0990  178.3940  139.5740 C   0  0  0  0  0  3  0  0  0  0  0  0
  188.1200  178.0750  141.9320 C   0  0  1  0  0  3  0  0  0  0  0  0
  189.9800  176.5080  143.5110 C   0  0  2  0  0  3  0  0  0  0  0  0
  192.9380  176.7400  138.3940 C   0  0  0  0  0  2  0  0  0  0  0  0
  191.4630  176.5750  138.5540 N   0  0  0  0  0  0  0  0  0  0  0  0
  192.4170  175.4780  138.2110 C   0  0  0  0  0  2  0  0  0  0  0  0
  192.0320  177.1630  144.7800 C   0  0  0  0  0  2  0  0  0  0  0  0
  191.7860  175.9620  145.5650 N   0  0  0  0  0  0  0  0  0  0  0  0
  192.2990  173.6660  144.5450 N   0  0  0  0  0  0  0  0  0  0  0  0
  192.0680  174.7020  145.0050 C   0  0  0  0  0  0  0  0  0  0  0  0
  191.3280  176.1380  146.9460 C   0  0  0  0  0  2  0  0  0  0  0  0
  193.0520  176.5140  148.6300 N   0  0  0  0  0  1  0  0  0  0  0  0
  192.2440  175.4940  147.9830 C   0  0  0  0  0  2  0  0  0  0  0  0
  1 10  2  0  0  0  0
  3 20  1  0  0  0  0
  3 17  2  0  0  0  0
  4 13  1  0  0  0  0
  4  2  1  0  0  0  0
  5  8  1  0  0  0  0
  5  1  1  0  0  0  0
  6 12  1  1  0  0  0
  8  3  1  0  0  0  0
  9  7  1  1  0  0  0
 10 17  1  0  0  0  0
 10  4  1  0  0  0  0
 11 26  1  1  0  0  0
 11 19  1  0  0  0  0
 12  9  1  0  0  0  0
 14 20  2  0  0  0  0
 15  8  2  0  0  0  0
 15 14  1  0  0  0  0
 16  6  1  0  0  0  0
 17 21  1  0  0  0  0
 19  9  1  0  0  0  0
 21 18  1  6  0  0  0
 21 16  1  0  0  0  0
 22  2  1  6  0  0  0
 22  6  1  0  0  0  0
 22 11  1  0  0  0  0
 23 24  1  0  0  0  0
 24  1  1  0  0  0  0
 25 23  1  0  0  0  0
 25 24  1  0  0  0  0
 26 27  1  0  0  0  0
 27 30  1  0  0  0  0
 28 29  3  0  0  0  0
 29 27  1  0  0  0  0
 30 32  1  0  0  0  0
 32 31  1  0  0  0  0
M  END
>  <MODEL>
3

>  <REMARK>
 VINA RESULT:      -6.3      2.103      2.978
  Name = 
  6 active torsions:
  status: ('A' for Active; 'I' for Inactive)
    1  A    between atoms: C_1  and  N_20
    2  A    between atoms: C_13  and  C_24
    3  A    between atoms: C_17  and  C_30
    4  A    between atoms: C_24  and  N_27
    5  A    between atoms: N_27  and  C_30
    6  A    between atoms: N_27  and  C_31
                            x       y       z     vdW  Elec       q    Type
                         _______ _______ _______ _____ _____    ______ ____

>  <TORSDO>
F 6

$$$$
=
 OpenBabel10232408173D

 32 36  0  0  1  0  0  0  0  0999 V2000
  185.2140  178.5640  140.7720 C   0  0  0  0  0  0  0  0  0  0  0  0
  187.9580  177.0940  142.3550 C   0  0  0  0  0  2  0  0  0  0  0  0
  183.8660  178.6990  143.4080 C   0  0  0  0  0  0  0  0  0  0  0  0
  187.3420  178.3660  141.9810 N   0  0  0  0  0  0  0  0  0  0  0  0
  183.5200  178.7200  140.7520 S   0  0  0  0  0  0  0  0  0  0  0  0
  187.7090  176.6990  144.9410 C   0  0  1  0  0  3  0  0  0  0  0  0
  190.0950  177.8650  147.7430 C   0  0  0  0  0  1  0  0  0  0  0  0
  182.9550  178.7860  142.3200 C   0  0  0  0  0  0  0  0  0  0  0  0
  189.6850  177.4850  146.3360 C   0  0  1  0  0  3  0  0  0  0  0  0
  185.9150  178.5220  142.0120 C   0  0  0  0  0  0  0  0  0  0  0  0
  189.5620  178.3310  143.9680 C   0  0  2  0  0  3  0  0  0  0  0  0
  188.2430  177.0070  146.3470 C   0  0  0  0  0  2  0  0  0  0  0  0
  188.1670  179.4380  141.4430 C   0  0  0  0  0  1  0  0  0  0  0  0
  181.7480  178.7910  144.0860 N   0  0  0  0  0  0  0  0  0  0  0  0
  181.6930  178.8350  142.7580 N   0  0  0  0  0  0  0  0  0  0  0  0
  186.2930  177.0570  144.8310 N   0  0  0  0  0  2  0  0  0  0  0  0
  185.2720  178.6130  143.2880 C   0  0  0  0  0  0  0  0  0  0  0  0
  185.7100  179.2770  145.7200 C   0  0  0  0  0  1  0  0  0  0  0  0
  189.7730  178.7040  145.4380 C   0  0  0  0  0  2  0  0  0  0  0  0
  183.0340  178.7040  144.5130 C   0  0  0  0  0  3  0  0  0  0  0  0
  186.1460  178.4690  144.5070 C   0  0  1  0  0  3  0  0  0  0  0  0
  188.6090  177.1390  143.7490 C   0  0  2  0  0  3  0  0  0  0  0  0
  185.9280  178.4420  138.0380 C   0  0  0  0  0  2  0  0  0  0  0  0
  185.8980  178.4130  139.5290 N   0  0  0  0  0  0  0  0  0  0  0  0
  187.0910  178.0960  138.6890 C   0  0  0  0  0  2  0  0  0  0  0  0
  190.9020  178.0320  143.3050 C   0  0  0  0  0  2  0  0  0  0  0  0
  191.0250  176.6150  142.9900 N   0  0  0  0  0  0  0  0  0  0  0  0
  191.9820  175.0140  144.7500 N   0  0  0  0  0  0  0  0  0  0  0  0
  191.5500  175.7370  143.9560 C   0  0  0  0  0  0  0  0  0  0  0  0
  190.5110  176.1630  141.6950 C   0  0  0  0  0  2  0  0  0  0  0  0
  190.8210  176.2940  139.2800 N   0  0  0  0  0  1  0  0  0  0  0  0
  190.9480  177.0360  140.5220 C   0  0  0  0  0  2  0  0  0  0  0  0
  1 10  2  0  0  0  0
  3 20  1  0  0  0  0
  4 10  1  0  0  0  0
  4  2  1  0  0  0  0
  5  1  1  0  0  0  0
  5  8  1  0  0  0  0
  6 12  1  1  0  0  0
  8 15  2  0  0  0  0
  8  3  1  0  0  0  0
  9 12  1  0  0  0  0
  9  7  1  1  0  0  0
 10 17  1  0  0  0  0
 11 26  1  1  0  0  0
 11 19  1  0  0  0  0
 13  4  1  0  0  0  0
 14 20  2  0  0  0  0
 15 14  1  0  0  0  0
 16  6  1  0  0  0  0
 17  3  2  0  0  0  0
 17 21  1  0  0  0  0
 19  9  1  0  0  0  0
 21 16  1  0  0  0  0
 21 18  1  1  0  0  0
 22  2  1  6  0  0  0
 22 11  1  0  0  0  0
 22  6  1  0  0  0  0
 23 25  1  0  0  0  0
 23 24  1  0  0  0  0
 24  1  1  0  0  0  0
 25 24  1  0  0  0  0
 27 26  1  0  0  0  0
 27 29  1  0  0  0  0
 29 28  3  0  0  0  0
 30 27  1  0  0  0  0
 31 32  1  0  0  0  0
 32 30  1  0  0  0  0
M  END
>  <MODEL>
4

>  <REMARK>
 VINA RESULT:      -6.3      1.594      2.732
  Name = 
  6 active torsions:
  status: ('A' for Active; 'I' for Inactive)
    1  A    between atoms: C_1  and  N_20
    2  A    between atoms: C_13  and  C_24
    3  A    between atoms: C_17  and  C_30
    4  A    between atoms: C_24  and  N_27
    5  A    between atoms: N_27  and  C_30
    6  A    between atoms: N_27  and  C_31
                            x       y       z     vdW  Elec       q    Type
                         _______ _______ _______ _____ _____    ______ ____

>  <TORSDO>
F 6

$$$$
=
 OpenBabel10232408173D

 32 36  0  0  1  0  0  0  0  0999 V2000
  182.4390  173.3710  136.9800 C   0  0  0  0  0  0  0  0  0  0  0  0
  183.6120  176.6260  136.5030 C   0  0  0  0  0  2  0  0  0  0  0  0
  185.0920  172.3720  136.1160 C   0  0  0  0  0  0  0  0  0  0  0  0
  183.5150  175.5250  137.4610 N   0  0  0  0  0  0  0  0  0  0  0  0
  182.5040  171.7600  136.4390 S   0  0  0  0  0  0  0  0  0  0  0  0
  186.0770  176.8330  135.6150 C   0  0  1  0  0  3  0  0  0  0  0  0
  188.9740  178.8620  137.1610 C   0  0  0  0  0  1  0  0  0  0  0  0
  184.0720  171.3870  136.0080 C   0  0  0  0  0  0  0  0  0  0  0  0
  187.5340  178.4840  136.8880 C   0  0  1  0  0  3  0  0  0  0  0  0
  183.6220  174.1630  137.0190 C   0  0  0  0  0  0  0  0  0  0  0  0
  185.3840  177.7830  137.9950 C   0  0  2  0  0  3  0  0  0  0  0  0
  187.4970  177.3530  135.8740 C   0  0  0  0  0  2  0  0  0  0  0  0
  183.1720  175.8020  138.8480 C   0  0  0  0  0  1  0  0  0  0  0  0
  185.8420  170.4740  135.2290 N   0  0  0  0  0  0  0  0  0  0  0  0
  184.5520  170.2620  135.4690 N   0  0  0  0  0  0  0  0  0  0  0  0
  186.0850  175.3870  135.3830 N   0  0  0  0  0  2  0  0  0  0  0  0
  184.9120  173.6780  136.6270 C   0  0  0  0  0  0  0  0  0  0  0  0
  187.4110  174.0830  136.9960 C   0  0  0  0  0  1  0  0  0  0  0  0
  186.8910  177.9900  138.1700 C   0  0  0  0  0  2  0  0  0  0  0  0
  186.2020  171.7300  135.6000 C   0  0  0  0  0  3  0  0  0  0  0  0
  186.0500  174.6660  136.6480 C   0  0  1  0  0  3  0  0  0  0  0  0
  184.9650  177.3550  136.5740 C   0  0  2  0  0  3  0  0  0  0  0  0
  179.9880  174.0200  138.2350 C   0  0  0  0  0  2  0  0  0  0  0  0
  181.1690  173.9210  137.3280 N   0  0  0  0  0  0  0  0  0  0  0  0
  179.9830  174.7980  137.0980 C   0  0  0  0  0  2  0  0  0  0  0  0
  184.6320  179.0530  138.3780 C   0  0  0  0  0  2  0  0  0  0  0  0
  184.1630  178.9880  139.7550 N   0  0  0  0  0  0  0  0  0  0  0  0
  185.8710  178.7660  141.6550 N   0  0  0  0  0  0  0  0  0  0  0  0
  185.1000  178.8660  140.7980 C   0  0  0  0  0  0  0  0  0  0  0  0
  182.7240  179.1390  139.9870 C   0  0  0  0  0  2  0  0  0  0  0  0
  180.8660  178.0320  141.1130 N   0  0  0  0  0  1  0  0  0  0  0  0
  182.2380  178.4810  141.2750 C   0  0  0  0  0  2  0  0  0  0  0  0
  1 10  2  0  0  0  0
  1 24  1  0  0  0  0
  2  4  1  0  0  0  0
  3 17  2  0  0  0  0
  4 13  1  0  0  0  0
  5  1  1  0  0  0  0
  6 12  1  1  0  0  0
  6 22  1  0  0  0  0
  8  3  1  0  0  0  0
  8  5  1  0  0  0  0
  9  7  1  1  0  0  0
  9 19  1  0  0  0  0
 10  4  1  0  0  0  0
 11 19  1  0  0  0  0
 11 26  1  6  0  0  0
 12  9  1  0  0  0  0
 14 15  1  0  0  0  0
 14 20  2  0  0  0  0
 15  8  2  0  0  0  0
 16  6  1  0  0  0  0
 16 21  1  0  0  0  0
 17 21  1  0  0  0  0
 17 10  1  0  0  0  0
 20  3  1  0  0  0  0
 21 18  1  6  0  0  0
 22  2  1  1  0  0  0
 22 11  1  0  0  0  0
 24 23  1  0  0  0  0
 25 24  1  0  0  0  0
 25 23  1  0  0  0  0
 26 27  1  0  0  0  0
 27 30  1  0  0  0  0
 27 29  1  0  0  0  0
 29 28  3  0  0  0  0
 30 32  1  0  0  0  0
 31 32  1  0  0  0  0
M  END
>  <MODEL>
5

>  <REMARK>
 VINA RESULT:      -6.0      5.653      9.428
  Name = 
  6 active torsions:
  status: ('A' for Active; 'I' for Inactive)
    1  A    between atoms: C_1  and  N_20
    2  A    between atoms: C_13  and  C_24
    3  A    between atoms: C_17  and  C_30
    4  A    between atoms: C_24  and  N_27
    5  A    between atoms: N_27  and  C_30
    6  A    between atoms: N_27  and  C_31
                            x       y       z     vdW  Elec       q    Type
                         _______ _______ _______ _____ _____    ______ ____

>  <TORSDO>
F 6

$$$$
=
 OpenBabel10232408173D

 32 36  0  0  1  0  0  0  0  0999 V2000
  188.2240  177.6070  139.1950 C   0  0  0  0  0  0  0  0  0  0  0  0
  188.6070  176.1470  142.3440 C   0  0  0  0  0  2  0  0  0  0  0  0
  185.7350  178.8820  140.1750 C   0  0  0  0  0  0  0  0  0  0  0  0
  188.8930  177.3360  141.5410 N   0  0  0  0  0  0  0  0  0  0  0  0
  187.1180  178.1250  138.0100 S   0  0  0  0  0  0  0  0  0  0  0  0
  186.7090  176.6720  144.0850 C   0  0  1  0  0  3  0  0  0  0  0  0
  187.1120  178.1100  147.6450 C   0  0  0  0  0  1  0  0  0  0  0  0
  185.7960  178.8170  138.7560 C   0  0  0  0  0  0  0  0  0  0  0  0
  187.5360  177.4000  146.3780 C   0  0  1  0  0  3  0  0  0  0  0  0
  187.9410  177.8100  140.5760 C   0  0  0  0  0  0  0  0  0  0  0  0
  189.2150  177.4440  144.5010 C   0  0  2  0  0  3  0  0  0  0  0  0
  186.3440  177.2880  145.4420 C   0  0  0  0  0  2  0  0  0  0  0  0
  190.2040  177.9630  141.6200 C   0  0  0  0  0  1  0  0  0  0  0  0
  183.8850  179.6610  139.2130 N   0  0  0  0  0  0  0  0  0  0  0  0
  184.6710  179.2870  138.2090 N   0  0  0  0  0  0  0  0  0  0  0  0
  185.9290  177.2850  143.0070 N   0  0  0  0  0  2  0  0  0  0  0  0
  186.7530  178.4480  141.0550 C   0  0  0  0  0  0  0  0  0  0  0  0
  185.8330  179.7440  143.0610 C   0  0  0  0  0  1  0  0  0  0  0  0
  188.6100  178.2120  145.6800 C   0  0  0  0  0  2  0  0  0  0  0  0
  184.4860  179.4300  140.4090 C   0  0  0  0  0  3  0  0  0  0  0  0
  186.5650  178.5120  142.5490 C   0  0  1  0  0  3  0  0  0  0  0  0
  188.2290  176.4910  143.7950 C   0  0  2  0  0  3  0  0  0  0  0  0
  190.8000  176.9020  138.2630 C   0  0  0  0  0  2  0  0  0  0  0  0
  189.3980  176.9150  138.7720 N   0  0  0  0  0  0  0  0  0  0  0  0
  190.1890  175.6850  138.4710 C   0  0  0  0  0  2  0  0  0  0  0  0
  190.4350  176.6540  144.9610 C   0  0  0  0  0  2  0  0  0  0  0  0
  191.4430  177.5350  145.5330 N   0  0  0  0  0  0  0  0  0  0  0  0
  192.2820  179.5380  144.1700 N   0  0  0  0  0  0  0  0  0  0  0  0
  191.9040  178.6340  144.7850 C   0  0  0  0  0  0  0  0  0  0  0  0
  191.8690  177.2710  146.9100 C   0  0  0  0  0  2  0  0  0  0  0  0
  193.1060  175.4820  148.0110 N   0  0  0  0  0  1  0  0  0  0  0  0
  191.8950  175.7880  147.2710 C   0  0  0  0  0  2  0  0  0  0  0  0
  1 10  2  0  0  0  0
  3 20  1  0  0  0  0
  3 17  2  0  0  0  0
  4 13  1  0  0  0  0
  4  2  1  0  0  0  0
  5  8  1  0  0  0  0
  5  1  1  0  0  0  0
  6 12  1  1  0  0  0
  8  3  1  0  0  0  0
  9  7  1  1  0  0  0
 10 17  1  0  0  0  0
 10  4  1  0  0  0  0
 11 26  1  1  0  0  0
 11 19  1  0  0  0  0
 12  9  1  0  0  0  0
 14 20  2  0  0  0  0
 15  8  2  0  0  0  0
 15 14  1  0  0  0  0
 16  6  1  0  0  0  0
 17 21  1  0  0  0  0
 19  9  1  0  0  0  0
 21 16  1  0  0  0  0
 21 18  1  6  0  0  0
 22  2  1  6  0  0  0
 22  6  1  0  0  0  0
 22 11  1  0  0  0  0
 23 25  1  0  0  0  0
 23 24  1  0  0  0  0
 24  1  1  0  0  0  0
 25 24  1  0  0  0  0
 26 27  1  0  0  0  0
 27 30  1  0  0  0  0
 28 29  3  0  0  0  0
 29 27  1  0  0  0  0
 30 32  1  0  0  0  0
 32 31  1  0  0  0  0
M  END
>  <MODEL>
6

>  <REMARK>
 VINA RESULT:      -5.9      1.603      2.073
  Name = 
  6 active torsions:
  status: ('A' for Active; 'I' for Inactive)
    1  A    between atoms: C_1  and  N_20
    2  A    between atoms: C_13  and  C_24
    3  A    between atoms: C_17  and  C_30
    4  A    between atoms: C_24  and  N_27
    5  A    between atoms: N_27  and  C_30
    6  A    between atoms: N_27  and  C_31
                            x       y       z     vdW  Elec       q    Type
                         _______ _______ _______ _____ _____    ______ ____

>  <TORSDO>
F 6

$$$$
=
 OpenBabel10232408173D

 32 36  0  0  1  0  0  0  0  0999 V2000
  187.7210  178.0050  144.5510 C   0  0  0  0  0  0  0  0  0  0  0  0
  188.4720  178.6600  141.2030 C   0  0  0  0  0  2  0  0  0  0  0  0
  184.8600  178.4350  143.9110 C   0  0  0  0  0  0  0  0  0  0  0  0
  188.0970  177.6150  142.1560 N   0  0  0  0  0  0  0  0  0  0  0  0
  186.6970  178.3700  145.8590 S   0  0  0  0  0  0  0  0  0  0  0  0
  186.4240  179.2570  139.6690 C   0  0  1  0  0  3  0  0  0  0  0  0
  185.4040  177.5800  136.3440 C   0  0  0  0  0  1  0  0  0  0  0  0
  185.1380  178.5670  145.2990 C   0  0  0  0  0  0  0  0  0  0  0  0
  186.3350  177.9880  137.4660 C   0  0  1  0  0  3  0  0  0  0  0  0
  187.1910  177.9020  143.2330 C   0  0  0  0  0  0  0  0  0  0  0  0
  187.8890  177.0870  139.2310 C   0  0  2  0  0  3  0  0  0  0  0  0
  185.5850  178.8800  138.4400 C   0  0  0  0  0  2  0  0  0  0  0  0
  188.7480  176.3150  142.0970 C   0  0  0  0  0  1  0  0  0  0  0  0
  183.0610  179.0290  145.0800 N   0  0  0  0  0  0  0  0  0  0  0  0
  184.0410  178.9280  145.9720 N   0  0  0  0  0  0  0  0  0  0  0  0
  185.5860  179.3400  140.8670 N   0  0  0  0  0  2  0  0  0  0  0  0
  185.8050  178.0830  142.9210 C   0  0  0  0  0  0  0  0  0  0  0  0
  184.0340  177.4550  141.1840 C   0  0  0  0  0  1  0  0  0  0  0  0
  186.7930  176.7510  138.2150 C   0  0  0  0  0  2  0  0  0  0  0  0
  183.5140  178.7450  143.8310 C   0  0  0  0  0  3  0  0  0  0  0  0
  185.4180  178.0230  141.4660 C   0  0  1  0  0  3  0  0  0  0  0  0
  187.7730  178.4980  139.8420 C   0  0  2  0  0  3  0  0  0  0  0  0
  190.5300  178.3320  144.6370 C   0  0  0  0  0  2  0  0  0  0  0  0
  189.1200  177.8710  144.7990 N   0  0  0  0  0  0  0  0  0  0  0  0
  190.3160  177.1900  145.3780 C   0  0  0  0  0  2  0  0  0  0  0  0
  189.2640  176.9270  138.5920 C   0  0  0  0  0  2  0  0  0  0  0  0
  189.1770  176.1850  137.3430 N   0  0  0  0  0  0  0  0  0  0  0  0
  189.3770  177.4420  135.1160 N   0  0  0  0  0  0  0  0  0  0  0  0
  189.2870  176.8750  136.1210 C   0  0  0  0  0  0  0  0  0  0  0  0
  189.0600  174.7270  137.4290 C   0  0  0  0  0  2  0  0  0  0  0  0
  191.4400  174.3120  137.7570 N   0  0  0  0  0  1  0  0  0  0  0  0
  190.2940  173.9810  136.9280 C   0  0  0  0  0  2  0  0  0  0  0  0
  1 24  1  0  0  0  0
  1  5  1  0  0  0  0
  2  4  1  0  0  0  0
  3  8  1  0  0  0  0
  4 10  1  0  0  0  0
  6 12  1  6  0  0  0
  6 22  1  0  0  0  0
  6 16  1  0  0  0  0
  8  5  1  0  0  0  0
  8 15  2  0  0  0  0
  9  7  1  6  0  0  0
  9 19  1  0  0  0  0
  9 12  1  0  0  0  0
 10  1  2  0  0  0  0
 11 26  1  6  0  0  0
 11 22  1  0  0  0  0
 13  4  1  0  0  0  0
 14 15  1  0  0  0  0
 16 21  1  0  0  0  0
 17 10  1  0  0  0  0
 17  3  2  0  0  0  0
 19 11  1  0  0  0  0
 20  3  1  0  0  0  0
 20 14  2  0  0  0  0
 21 18  1  1  0  0  0
 21 17  1  0  0  0  0
 22  2  1  1  0  0  0
 23 24  1  0  0  0  0
 23 25  1  0  0  0  0
 24 25  1  0  0  0  0
 27 30  1  0  0  0  0
 27 26  1  0  0  0  0
 28 29  3  0  0  0  0
 29 27  1  0  0  0  0
 32 30  1  0  0  0  0
 32 31  1  0  0  0  0
M  END
>  <MODEL>
7

>  <REMARK>
 VINA RESULT:      -5.5      2.661      6.689
  Name = 
  6 active torsions:
  status: ('A' for Active; 'I' for Inactive)
    1  A    between atoms: C_1  and  N_20
    2  A    between atoms: C_13  and  C_24
    3  A    between atoms: C_17  and  C_30
    4  A    between atoms: C_24  and  N_27
    5  A    between atoms: N_27  and  C_30
    6  A    between atoms: N_27  and  C_31
                            x       y       z     vdW  Elec       q    Type
                         _______ _______ _______ _____ _____    ______ ____

>  <TORSDO>
F 6

$$$$
=
 OpenBabel10232408173D

 32 36  0  0  1  0  0  0  0  0999 V2000
  188.7730  177.3920  145.4670 C   0  0  0  0  0  0  0  0  0  0  0  0
  189.7110  178.1770  142.1960 C   0  0  0  0  0  2  0  0  0  0  0  0
  186.0050  178.2000  144.7830 C   0  0  0  0  0  0  0  0  0  0  0  0
  189.1840  177.1230  143.0610 N   0  0  0  0  0  0  0  0  0  0  0  0
  187.7530  177.7870  146.7700 S   0  0  0  0  0  0  0  0  0  0  0  0
  187.8020  179.1150  140.6530 C   0  0  1  0  0  3  0  0  0  0  0  0
  186.7110  177.7990  137.1920 C   0  0  0  0  0  1  0  0  0  0  0  0
  186.2480  178.2050  146.1840 C   0  0  0  0  0  0  0  0  0  0  0  0
  187.6420  178.0170  138.3650 C   0  0  1  0  0  3  0  0  0  0  0  0
  188.2810  177.4420  144.1310 C   0  0  0  0  0  0  0  0  0  0  0  0
  189.0180  176.8210  140.1020 C   0  0  2  0  0  3  0  0  0  0  0  0
  186.9680  178.9240  139.3790 C   0  0  0  0  0  2  0  0  0  0  0  0
  189.6820  175.7620  142.9280 C   0  0  0  0  0  1  0  0  0  0  0  0
  184.2480  178.9230  145.9430 N   0  0  0  0  0  0  0  0  0  0  0  0
  185.1780  178.6470  146.8510 N   0  0  0  0  0  0  0  0  0  0  0  0
  186.9380  179.2160  141.8320 N   0  0  0  0  0  2  0  0  0  0  0  0
  186.9370  177.8070  143.7960 C   0  0  0  0  0  0  0  0  0  0  0  0
  185.1670  177.5110  141.9720 C   0  0  0  0  0  1  0  0  0  0  0  0
  187.9270  176.6870  139.0360 C   0  0  0  0  0  2  0  0  0  0  0  0
  184.7080  178.6720  144.6900 C   0  0  0  0  0  3  0  0  0  0  0  0
  186.5960  177.8910  142.3300 C   0  0  1  0  0  3  0  0  0  0  0  0
  189.0460  178.1910  140.8090 C   0  0  2  0  0  3  0  0  0  0  0  0
  191.1890  176.4270  146.5780 C   0  0  0  0  0  2  0  0  0  0  0  0
  190.1370  177.0770  145.7430 N   0  0  0  0  0  0  0  0  0  0  0  0
  191.6040  177.1340  145.4700 C   0  0  0  0  0  2  0  0  0  0  0  0
  190.3870  176.5430  139.4900 C   0  0  0  0  0  2  0  0  0  0  0  0
  190.2660  176.1670  138.0890 N   0  0  0  0  0  0  0  0  0  0  0  0
  189.7510  173.7290  137.4820 N   0  0  0  0  0  0  0  0  0  0  0  0
  189.9830  174.8290  137.7560 C   0  0  0  0  0  0  0  0  0  0  0  0
  190.3670  177.2340  137.0910 C   0  0  0  0  0  2  0  0  0  0  0  0
  189.3630  177.5980  134.8990 N   0  0  0  0  0  1  0  0  0  0  0  0
  190.2630  176.7400  135.6510 C   0  0  0  0  0  2  0  0  0  0  0  0
  1 24  1  0  0  0  0
  1  5  1  0  0  0  0
  2  4  1  0  0  0  0
  3  8  1  0  0  0  0
  4 10  1  0  0  0  0
  6 12  1  6  0  0  0
  6 22  1  0  0  0  0
  6 16  1  0  0  0  0
  8  5  1  0  0  0  0
  8 15  2  0  0  0  0
  9  7  1  6  0  0  0
  9 19  1  0  0  0  0
  9 12  1  0  0  0  0
 10  1  2  0  0  0  0
 11 26  1  6  0  0  0
 11 22  1  0  0  0  0
 13  4  1  0  0  0  0
 14 15  1  0  0  0  0
 16 21  1  0  0  0  0
 17 10  1  0  0  0  0
 17  3  2  0  0  0  0
 19 11  1  0  0  0  0
 20  3  1  0  0  0  0
 20 14  2  0  0  0  0
 21 18  1  1  0  0  0
 21 17  1  0  0  0  0
 22  2  1  1  0  0  0
 24 23  1  0  0  0  0
 25 24  1  0  0  0  0
 25 23  1  0  0  0  0
 27 26  1  0  0  0  0
 28 29  3  0  0  0  0
 29 27  1  0  0  0  0
 30 27  1  0  0  0  0
 31 32  1  0  0  0  0
 32 30  1  0  0  0  0
M  END
>  <MODEL>
8

>  <REMARK>
 VINA RESULT:      -5.5      2.541      6.726
  Name = 
  6 active torsions:
  status: ('A' for Active; 'I' for Inactive)
    1  A    between atoms: C_1  and  N_20
    2  A    between atoms: C_13  and  C_24
    3  A    between atoms: C_17  and  C_30
    4  A    between atoms: C_24  and  N_27
    5  A    between atoms: N_27  and  C_30
    6  A    between atoms: N_27  and  C_31
                            x       y       z     vdW  Elec       q    Type
                         _______ _______ _______ _____ _____    ______ ____

>  <TORSDO>
F 6

$$$$
=
 OpenBabel10232408173D

 32 36  0  0  1  0  0  0  0  0999 V2000
  181.7890  176.6160  137.2700 C   0  0  0  0  0  0  0  0  0  0  0  0
  185.0420  177.1130  136.1010 C   0  0  0  0  0  2  0  0  0  0  0  0
  182.2250  173.6960  137.0080 C   0  0  0  0  0  0  0  0  0  0  0  0
  184.2300  176.8790  137.2950 N   0  0  0  0  0  0  0  0  0  0  0  0
  180.3950  175.6460  137.1780 S   0  0  0  0  0  0  0  0  0  0  0  0
  186.3780  174.9370  135.4800 C   0  0  1  0  0  3  0  0  0  0  0  0
  189.8540  173.8580  136.7680 C   0  0  0  0  0  1  0  0  0  0  0  0
  180.8460  174.0450  137.0430 C   0  0  0  0  0  0  0  0  0  0  0  0
  188.7310  174.8180  136.4380 C   0  0  1  0  0  3  0  0  0  0  0  0
  183.0820  176.0190  137.2380 C   0  0  0  0  0  0  0  0  0  0  0  0
  187.1870  176.5400  137.4340 C   0  0  2  0  0  3  0  0  0  0  0  0
  187.6060  174.0580  135.7560 C   0  0  0  0  0  2  0  0  0  0  0  0
  184.5030  177.6270  138.5130 C   0  0  0  0  0  1  0  0  0  0  0  0
  180.8990  171.9290  136.7380 N   0  0  0  0  0  0  0  0  0  0  0  0
  180.0780  172.9650  136.8740 N   0  0  0  0  0  0  0  0  0  0  0  0
  185.1410  174.1670  135.6350 N   0  0  0  0  0  2  0  0  0  0  0  0
  183.2980  174.6070  137.1370 C   0  0  0  0  0  0  0  0  0  0  0  0
  185.0210  172.7920  137.6730 C   0  0  0  0  0  1  0  0  0  0  0  0
  188.1870  175.4170  137.7220 C   0  0  0  0  0  2  0  0  0  0  0  0
  182.1950  172.3280  136.8080 C   0  0  0  0  0  3  0  0  0  0  0  0
  184.7280  174.1400  137.0310 C   0  0  1  0  0  3  0  0  0  0  0  0
  186.3780  176.3500  136.1350 C   0  0  2  0  0  3  0  0  0  0  0  0
  181.5150  179.3160  138.0690 C   0  0  0  0  0  2  0  0  0  0  0  0
  181.6290  178.0330  137.3150 N   0  0  0  0  0  0  0  0  0  0  0  0
  181.4280  179.3760  136.6950 C   0  0  0  0  0  2  0  0  0  0  0  0
  187.9070  177.8830  137.3840 C   0  0  0  0  0  2  0  0  0  0  0  0
  188.6340  178.1330  138.6210 N   0  0  0  0  0  0  0  0  0  0  0  0
  187.3270  178.6460  140.7670 N   0  0  0  0  0  0  0  0  0  0  0  0
  187.9170  178.4140  139.7990 C   0  0  0  0  0  0  0  0  0  0  0  0
  190.0920  177.9940  138.5870 C   0  0  0  0  0  2  0  0  0  0  0  0
  191.6350  177.6460  140.4430 N   0  0  0  0  0  1  0  0  0  0  0  0
  190.6380  176.9990  139.6070 C   0  0  0  0  0  2  0  0  0  0  0  0
  1 24  1  0  0  0  0
  2  4  1  0  0  0  0
  3  8  1  0  0  0  0
  3 17  2  0  0  0  0
  4 13  1  0  0  0  0
  5  1  1  0  0  0  0
  6 16  1  0  0  0  0
  6 12  1  1  0  0  0
  6 22  1  0  0  0  0
  8  5  1  0  0  0  0
  9  7  1  1  0  0  0
  9 19  1  0  0  0  0
 10  1  2  0  0  0  0
 10  4  1  0  0  0  0
 11 26  1  6  0  0  0
 11 19  1  0  0  0  0
 12  9  1  0  0  0  0
 14 20  2  0  0  0  0
 14 15  1  0  0  0  0
 15  8  2  0  0  0  0
 16 21  1  0  0  0  0
 17 10  1  0  0  0  0
 20  3  1  0  0  0  0
 21 17  1  0  0  0  0
 21 18  1  6  0  0  0
 22  2  1  1  0  0  0
 22 11  1  0  0  0  0
 24 23  1  0  0  0  0
 25 24  1  0  0  0  0
 25 23  1  0  0  0  0
 26 27  1  0  0  0  0
 27 29  1  0  0  0  0
 29 28  3  0  0  0  0
 30 27  1  0  0  0  0
 30 32  1  0  0  0  0
 32 31  1  0  0  0  0
M  END
>  <MODEL>
9

>  <REMARK>
 VINA RESULT:      -5.5      5.098      8.261
  Name = 
  6 active torsions:
  status: ('A' for Active; 'I' for Inactive)
    1  A    between atoms: C_1  and  N_20
    2  A    between atoms: C_13  and  C_24
    3  A    between atoms: C_17  and  C_30
    4  A    between atoms: C_24  and  N_27
    5  A    between atoms: N_27  and  C_30
    6  A    between atoms: N_27  and  C_31
                            x       y       z     vdW  Elec       q    Type
                         _______ _______ _______ _____ _____    ______ ____

>  <TORSDO>
F 6

$$$$
