=
 OpenBabel10232410013D

 26 28  0  0  1  0  0  0  0  0999 V2000
  190.4180  177.6700  145.9840 O   0  0  0  0  0  0  0  0  0  0  0  0
  187.3560  177.2740  146.1310 C   0  0  1  0  0  3  0  0  0  0  0  0
  190.4030  176.8630  143.7220 C   0  0  0  0  0  2  0  0  0  0  0  0
  188.2880  177.2690  142.4840 C   0  0  0  0  0  3  0  0  0  0  0  0
  187.5710  177.2810  143.6110 C   0  0  0  0  0  3  0  0  0  0  0  0
  189.9300  175.7720  147.2640 F   0  0  0  0  0  0  0  0  0  0  0  0
  188.2260  177.6580  144.9210 C   0  0  2  0  0  3  0  0  0  0  0  0
  189.6190  176.9940  145.0450 C   0  0  2  0  0  3  0  0  0  0  0  0
  189.7480  177.6060  142.5520 C   0  0  2  0  0  3  0  0  0  0  0  0
  190.2020  177.1360  147.2750 C   0  0  0  0  0  0  0  0  0  0  0  0
  191.3620  177.3200  148.0080 F   0  0  0  0  0  0  0  0  0  0  0  0
  189.0750  177.8740  147.9430 C   0  0  0  0  0  0  0  0  0  0  0  0
  189.2640  178.4220  149.0620 O   0  0  0  0  0  0  0  0  0  0  0  0
  187.7870  177.9860  147.3300 N   0  0  0  0  0  2  0  0  0  0  0  0
  190.3180  176.5980  138.9550 C   0  0  0  0  0  0  0  0  0  0  0  0
  190.4370  177.3030  141.2600 C   0  0  0  0  0  0  0  0  0  0  0  0
  192.4280  177.1380  139.9020 C   0  0  0  0  0  0  0  0  0  0  0  0
  189.6790  176.8820  140.1650 C   0  0  0  0  0  3  0  0  0  0  0  0
  191.8280  177.4320  141.1270 C   0  0  0  0  0  3  0  0  0  0  0  0
  189.5560  176.1700  137.8340 N   0  0  0  0  0  1  0  0  0  0  0  0
  191.6670  176.7300  138.8500 N   0  0  0  0  0  0  0  0  0  0  0  0
  193.8370  177.2650  139.7540 N   0  0  0  0  0  1  0  0  0  0  0  0
  185.8770  177.5810  145.8990 C   0  0  0  0  0  2  0  0  0  0  0  0
  185.6130  179.0780  145.9410 C   0  0  0  0  0  2  0  0  0  0  0  0
  183.3200  179.1400  145.3170 O   0  0  0  0  0  1  0  0  0  0  0  0
  184.6020  179.4650  144.8790 C   0  0  0  0  0  2  0  0  0  0  0  0
  1 10  1  0  0  0  0
  2 23  1  6  0  0  0
  2 14  1  0  0  0  0
  4  9  1  0  0  0  0
  4  5  2  0  0  0  0
  6 10  1  0  0  0  0
  7  5  1  6  0  0  0
  7  8  1  0  0  0  0
  7  2  1  0  0  0  0
  8  3  1  6  0  0  0
  8  1  1  0  0  0  0
  9 16  1  6  0  0  0
  9  3  1  0  0  0  0
 10 12  1  0  0  0  0
 10 11  1  0  0  0  0
 12 13  2  0  0  0  0
 14 12  1  0  0  0  0
 15 18  1  0  0  0  0
 17 19  2  0  0  0  0
 18 16  2  0  0  0  0
 19 16  1  0  0  0  0
 20 15  1  0  0  0  0
 21 15  2  0  0  0  0
 21 17  1  0  0  0  0
 22 17  1  0  0  0  0
 23 24  1  0  0  0  0
 26 25  1  0  0  0  0
 26 24  1  0  0  0  0
M  END
>  <MODEL>
1

>  <REMARK>
 VINA RESULT:      -8.9      0.000      0.000
  Name = 
  4 active torsions:
  status: ('A' for Active; 'I' for Inactive)
    1  A    between atoms: C_3  and  C_17
    2  A    between atoms: C_3  and  C_26
    3  A    between atoms: C_5  and  C_16
    4  A    between atoms: C_6  and  C_17
                            x       y       z     vdW  Elec       q    Type
                         _______ _______ _______ _____ _____    ______ ____

>  <TORSDO>
F 4

$$$$
=
 OpenBabel10232410013D

 26 28  0  0  1  0  0  0  0  0999 V2000
  190.4250  177.6640  145.9570 O   0  0  0  0  0  0  0  0  0  0  0  0
  187.3630  177.2830  146.1400 C   0  0  1  0  0  3  0  0  0  0  0  0
  190.3790  176.8580  143.6950 C   0  0  0  0  0  2  0  0  0  0  0  0
  188.2510  177.2750  142.4820 C   0  0  0  0  0  3  0  0  0  0  0  0
  187.5480  177.2890  143.6180 C   0  0  0  0  0  3  0  0  0  0  0  0
  189.9440  175.7670  147.2420 F   0  0  0  0  0  0  0  0  0  0  0  0
  188.2200  177.6630  144.9200 C   0  0  2  0  0  3  0  0  0  0  0  0
  189.6120  176.9930  145.0270 C   0  0  2  0  0  3  0  0  0  0  0  0
  189.7140  177.6050  142.5330 C   0  0  2  0  0  3  0  0  0  0  0  0
  190.2220  177.1300  147.2500 C   0  0  0  0  0  0  0  0  0  0  0  0
  191.3920  177.3080  147.9690 F   0  0  0  0  0  0  0  0  0  0  0  0
  189.1070  177.8730  147.9320 C   0  0  0  0  0  0  0  0  0  0  0  0
  189.3110  178.4190  149.0490 O   0  0  0  0  0  0  0  0  0  0  0  0
  187.8120  177.9910  147.3350 N   0  0  0  0  0  2  0  0  0  0  0  0
  192.4070  177.1510  139.9210 C   0  0  0  0  0  0  0  0  0  0  0  0
  190.3860  177.2990  141.2330 C   0  0  0  0  0  0  0  0  0  0  0  0
  190.3240  176.6080  138.9190 C   0  0  0  0  0  0  0  0  0  0  0  0
  191.7730  177.4350  141.1340 C   0  0  0  0  0  3  0  0  0  0  0  0
  189.6530  176.8820  140.1130 C   0  0  0  0  0  3  0  0  0  0  0  0
  193.8180  177.2840  139.8100 N   0  0  0  0  0  1  0  0  0  0  0  0
  191.6750  176.7480  138.8490 N   0  0  0  0  0  0  0  0  0  0  0  0
  189.5920  176.1840  137.7750 N   0  0  0  0  0  1  0  0  0  0  0  0
  185.8830  177.5970  145.9260 C   0  0  0  0  0  2  0  0  0  0  0  0
  185.6350  179.0970  145.9170 C   0  0  0  0  0  2  0  0  0  0  0  0
  183.3330  179.1550  145.3260 O   0  0  0  0  0  1  0  0  0  0  0  0
  184.6100  179.4560  144.8580 C   0  0  0  0  0  2  0  0  0  0  0  0
  1 10  1  0  0  0  0
  2 23  1  6  0  0  0
  2 14  1  0  0  0  0
  4  9  1  0  0  0  0
  4  5  2  0  0  0  0
  6 10  1  0  0  0  0
  7  5  1  6  0  0  0
  7  8  1  0  0  0  0
  7  2  1  0  0  0  0
  8  3  1  6  0  0  0
  8  1  1  0  0  0  0
  9 16  1  6  0  0  0
  9  3  1  0  0  0  0
 10 12  1  0  0  0  0
 10 11  1  0  0  0  0
 12 13  2  0  0  0  0
 14 12  1  0  0  0  0
 15 18  1  0  0  0  0
 17 19  2  0  0  0  0
 18 16  2  0  0  0  0
 19 16  1  0  0  0  0
 20 15  1  0  0  0  0
 21 17  1  0  0  0  0
 21 15  2  0  0  0  0
 22 17  1  0  0  0  0
 24 23  1  0  0  0  0
 26 25  1  0  0  0  0
 26 24  1  0  0  0  0
M  END
>  <MODEL>
2

>  <REMARK>
 VINA RESULT:      -8.9      0.039      1.634
  Name = 
  4 active torsions:
  status: ('A' for Active; 'I' for Inactive)
    1  A    between atoms: C_3  and  C_17
    2  A    between atoms: C_3  and  C_26
    3  A    between atoms: C_5  and  C_16
    4  A    between atoms: C_6  and  C_17
                            x       y       z     vdW  Elec       q    Type
                         _______ _______ _______ _____ _____    ______ ____

>  <TORSDO>
F 4

$$$$
=
 OpenBabel10232410013D

 26 28  0  0  1  0  0  0  0  0999 V2000
  188.3380  178.2090  142.3060 O   0  0  0  0  0  0  0  0  0  0  0  0
  188.8750  177.4900  145.2640 C   0  0  1  0  0  3  0  0  0  0  0  0
  185.9900  177.8370  142.6530 C   0  0  0  0  0  2  0  0  0  0  0  0
  185.2000  178.2520  144.9710 C   0  0  0  0  0  3  0  0  0  0  0  0
  186.4040  177.9840  145.4830 C   0  0  0  0  0  3  0  0  0  0  0  0
  189.2750  176.0670  142.4380 F   0  0  0  0  0  0  0  0  0  0  0  0
  187.6460  178.1750  144.6420 C   0  0  2  0  0  3  0  0  0  0  0  0
  187.4180  177.6430  143.2060 C   0  0  2  0  0  3  0  0  0  0  0  0
  185.1070  178.7140  143.5470 C   0  0  2  0  0  3  0  0  0  0  0  0
  189.5150  177.4270  142.2610 C   0  0  0  0  0  0  0  0  0  0  0  0
  190.0810  177.5860  141.0080 F   0  0  0  0  0  0  0  0  0  0  0  0
  190.4820  177.9120  143.3050 C   0  0  0  0  0  0  0  0  0  0  0  0
  191.6450  178.2600  142.9660 O   0  0  0  0  0  0  0  0  0  0  0  0
  190.1100  178.0070  144.6830 N   0  0  0  0  0  2  0  0  0  0  0  0
  182.1090  178.6450  141.2480 C   0  0  0  0  0  0  0  0  0  0  0  0
  183.6900  178.7260  143.0690 C   0  0  0  0  0  0  0  0  0  0  0  0
  181.3120  178.8340  143.4770 C   0  0  0  0  0  0  0  0  0  0  0  0
  183.4310  178.6350  141.7000 C   0  0  0  0  0  3  0  0  0  0  0  0
  182.6180  178.8280  143.9680 C   0  0  0  0  0  3  0  0  0  0  0  0
  181.8340  178.5520  139.8560 N   0  0  0  0  0  1  0  0  0  0  0  0
  181.0860  178.7440  142.1380 N   0  0  0  0  0  0  0  0  0  0  0  0
  180.2150  178.9370  144.3770 N   0  0  0  0  0  1  0  0  0  0  0  0
  188.9400  177.6850  146.7780 C   0  0  0  0  0  2  0  0  0  0  0  0
  189.6780  176.5380  147.4490 C   0  0  0  0  0  2  0  0  0  0  0  0
  191.8880  175.9430  146.8080 O   0  0  0  0  0  1  0  0  0  0  0  0
  191.1560  176.8560  147.5650 C   0  0  0  0  0  2  0  0  0  0  0  0
  1  8  1  0  0  0  0
  2 23  1  1  0  0  0
  3  9  1  0  0  0  0
  4  5  2  0  0  0  0
  7  2  1  0  0  0  0
  7  5  1  1  0  0  0
  8  3  1  6  0  0  0
  8  7  1  0  0  0  0
  9 16  1  6  0  0  0
  9  4  1  0  0  0  0
 10  1  1  0  0  0  0
 10  6  1  0  0  0  0
 10 12  1  0  0  0  0
 11 10  1  0  0  0  0
 12 14  1  0  0  0  0
 13 12  2  0  0  0  0
 14  2  1  0  0  0  0
 15 18  2  0  0  0  0
 15 21  1  0  0  0  0
 16 19  2  0  0  0  0
 17 19  1  0  0  0  0
 17 22  1  0  0  0  0
 18 16  1  0  0  0  0
 20 15  1  0  0  0  0
 21 17  2  0  0  0  0
 23 24  1  0  0  0  0
 24 26  1  0  0  0  0
 25 26  1  0  0  0  0
M  END
>  <MODEL>
3

>  <REMARK>
 VINA RESULT:      -8.7      3.885      6.982
  Name = 
  4 active torsions:
  status: ('A' for Active; 'I' for Inactive)
    1  A    between atoms: C_3  and  C_17
    2  A    between atoms: C_3  and  C_26
    3  A    between atoms: C_5  and  C_16
    4  A    between atoms: C_6  and  C_17
                            x       y       z     vdW  Elec       q    Type
                         _______ _______ _______ _____ _____    ______ ____

>  <TORSDO>
F 4

$$$$
=
 OpenBabel10232410013D

 26 28  0  0  1  0  0  0  0  0999 V2000
  188.3440  178.2720  142.2600 O   0  0  0  0  0  0  0  0  0  0  0  0
  188.8460  177.4780  145.2050 C   0  0  1  0  0  3  0  0  0  0  0  0
  185.9950  177.8750  142.5650 C   0  0  0  0  0  2  0  0  0  0  0  0
  185.1700  178.2230  144.8820 C   0  0  0  0  0  3  0  0  0  0  0  0
  186.3690  177.9490  145.4030 C   0  0  0  0  0  3  0  0  0  0  0  0
  189.2940  176.1340  142.3480 F   0  0  0  0  0  0  0  0  0  0  0  0
  187.6200  178.1720  144.5840 C   0  0  2  0  0  3  0  0  0  0  0  0
  187.4160  177.6760  143.1320 C   0  0  2  0  0  3  0  0  0  0  0  0
  185.0930  178.7220  143.4690 C   0  0  2  0  0  3  0  0  0  0  0  0
  189.5270  177.4990  142.2100 C   0  0  0  0  0  0  0  0  0  0  0  0
  190.1090  177.6960  140.9700 F   0  0  0  0  0  0  0  0  0  0  0  0
  190.4770  177.9630  143.2800 C   0  0  0  0  0  0  0  0  0  0  0  0
  191.6410  178.3270  142.9660 O   0  0  0  0  0  0  0  0  0  0  0  0
  190.0850  178.0180  144.6550 N   0  0  0  0  0  2  0  0  0  0  0  0
  181.3170  178.8520  143.4350 C   0  0  0  0  0  0  0  0  0  0  0  0
  183.6820  178.7370  142.9730 C   0  0  0  0  0  0  0  0  0  0  0  0
  182.0580  178.6690  141.1860 C   0  0  0  0  0  0  0  0  0  0  0  0
  182.6370  178.8380  143.8930 C   0  0  0  0  0  3  0  0  0  0  0  0
  183.3900  178.6510  141.6040 C   0  0  0  0  0  3  0  0  0  0  0  0
  180.2450  178.9550  144.3630 N   0  0  0  0  0  1  0  0  0  0  0  0
  181.0570  178.7680  142.1030 N   0  0  0  0  0  0  0  0  0  0  0  0
  181.7480  178.5820  139.8010 N   0  0  0  0  0  1  0  0  0  0  0  0
  188.8890  177.6330  146.7240 C   0  0  0  0  0  2  0  0  0  0  0  0
  189.7230  176.5350  147.3660 C   0  0  0  0  0  2  0  0  0  0  0  0
  192.0400  176.5190  146.8370 O   0  0  0  0  0  1  0  0  0  0  0  0
  191.1020  177.0570  147.7170 C   0  0  0  0  0  2  0  0  0  0  0  0
  1  8  1  0  0  0  0
  2 23  1  1  0  0  0
  3  9  1  0  0  0  0
  4  5  2  0  0  0  0
  7  2  1  0  0  0  0
  7  5  1  1  0  0  0
  8  3  1  6  0  0  0
  8  7  1  0  0  0  0
  9 16  1  6  0  0  0
  9  4  1  0  0  0  0
 10  1  1  0  0  0  0
 10  6  1  0  0  0  0
 10 12  1  0  0  0  0
 11 10  1  0  0  0  0
 12 14  1  0  0  0  0
 13 12  2  0  0  0  0
 14  2  1  0  0  0  0
 15 18  1  0  0  0  0
 15 20  1  0  0  0  0
 16 18  2  0  0  0  0
 17 19  2  0  0  0  0
 17 21  1  0  0  0  0
 19 16  1  0  0  0  0
 21 15  2  0  0  0  0
 22 17  1  0  0  0  0
 23 24  1  0  0  0  0
 24 26  1  0  0  0  0
 25 26  1  0  0  0  0
M  END
>  <MODEL>
4

>  <REMARK>
 VINA RESULT:      -8.7      3.911      7.008
  Name = 
  4 active torsions:
  status: ('A' for Active; 'I' for Inactive)
    1  A    between atoms: C_3  and  C_17
    2  A    between atoms: C_3  and  C_26
    3  A    between atoms: C_5  and  C_16
    4  A    between atoms: C_6  and  C_17
                            x       y       z     vdW  Elec       q    Type
                         _______ _______ _______ _____ _____    ______ ____

>  <TORSDO>
F 4

$$$$
=
 OpenBabel10232410013D

 26 28  0  0  1  0  0  0  0  0999 V2000
  185.8550  178.9580  142.4880 O   0  0  0  0  0  0  0  0  0  0  0  0
  187.3150  177.7650  140.0400 C   0  0  1  0  0  3  0  0  0  0  0  0
  187.3350  177.7520  143.9460 C   0  0  0  0  0  2  0  0  0  0  0  0
  189.5900  177.3050  143.0040 C   0  0  0  0  0  3  0  0  0  0  0  0
  189.1280  177.3370  141.7510 C   0  0  0  0  0  3  0  0  0  0  0  0
  184.5310  177.2880  141.5200 F   0  0  0  0  0  0  0  0  0  0  0  0
  187.8830  178.1300  141.4220 C   0  0  2  0  0  3  0  0  0  0  0  0
  186.8000  177.9170  142.5080 C   0  0  2  0  0  3  0  0  0  0  0  0
  188.8350  178.0400  144.0720 C   0  0  2  0  0  3  0  0  0  0  0  0
  184.8130  178.6490  141.5840 C   0  0  0  0  0  0  0  0  0  0  0  0
  183.6670  179.2870  142.0260 F   0  0  0  0  0  0  0  0  0  0  0  0
  185.1660  179.1610  140.2150 C   0  0  0  0  0  0  0  0  0  0  0  0
  184.3810  179.9470  139.6210 O   0  0  0  0  0  0  0  0  0  0  0  0
  186.3870  178.7890  139.5700 N   0  0  0  0  0  2  0  0  0  0  0  0
  189.0260  177.6620  147.8260 C   0  0  0  0  0  0  0  0  0  0  0  0
  189.3440  177.6940  145.4350 C   0  0  0  0  0  0  0  0  0  0  0  0
  191.0300  176.7820  146.9050 C   0  0  0  0  0  0  0  0  0  0  0  0
  188.5560  177.9840  146.5500 C   0  0  0  0  0  3  0  0  0  0  0  0
  190.5960  177.0870  145.6130 C   0  0  0  0  0  3  0  0  0  0  0  0
  188.2310  177.9520  148.9690 N   0  0  0  0  0  1  0  0  0  0  0  0
  190.2430  177.0740  147.9760 N   0  0  0  0  0  0  0  0  0  0  0  0
  192.2970  176.1660  147.1000 N   0  0  0  0  0  1  0  0  0  0  0  0
  188.4140  177.5970  138.9910 C   0  0  0  0  0  2  0  0  0  0  0  0
  187.8340  177.5840  137.5850 C   0  0  0  0  0  2  0  0  0  0  0  0
  188.9810  179.6530  137.3490 O   0  0  0  0  0  1  0  0  0  0  0  0
  188.6450  178.4830  136.6710 C   0  0  0  0  0  2  0  0  0  0  0  0
  1  8  1  0  0  0  0
  2 23  1  6  0  0  0
  2  7  1  0  0  0  0
  3  9  1  0  0  0  0
  4  9  1  0  0  0  0
  5  4  2  0  0  0  0
  6 10  1  0  0  0  0
  7  5  1  1  0  0  0
  7  8  1  0  0  0  0
  8  3  1  1  0  0  0
  9 16  1  1  0  0  0
 10 11  1  0  0  0  0
 10  1  1  0  0  0  0
 12 10  1  0  0  0  0
 13 12  2  0  0  0  0
 14  2  1  0  0  0  0
 14 12  1  0  0  0  0
 15 21  1  0  0  0  0
 15 20  1  0  0  0  0
 16 19  2  0  0  0  0
 16 18  1  0  0  0  0
 17 22  1  0  0  0  0
 17 21  2  0  0  0  0
 18 15  2  0  0  0  0
 19 17  1  0  0  0  0
 24 23  1  0  0  0  0
 26 25  1  0  0  0  0
 26 24  1  0  0  0  0
M  END
>  <MODEL>
5

>  <REMARK>
 VINA RESULT:      -8.5      4.097      7.346
  Name = 
  4 active torsions:
  status: ('A' for Active; 'I' for Inactive)
    1  A    between atoms: C_3  and  C_17
    2  A    between atoms: C_3  and  C_26
    3  A    between atoms: C_5  and  C_16
    4  A    between atoms: C_6  and  C_17
                            x       y       z     vdW  Elec       q    Type
                         _______ _______ _______ _____ _____    ______ ____

>  <TORSDO>
F 4

$$$$
=
 OpenBabel10232410013D

 26 28  0  0  1  0  0  0  0  0999 V2000
  185.7080  178.9650  142.4500 O   0  0  0  0  0  0  0  0  0  0  0  0
  187.1640  177.7690  140.0010 C   0  0  1  0  0  3  0  0  0  0  0  0
  187.1960  177.7670  143.9060 C   0  0  0  0  0  2  0  0  0  0  0  0
  189.4480  177.3230  142.9590 C   0  0  0  0  0  3  0  0  0  0  0  0
  188.9830  177.3510  141.7070 C   0  0  0  0  0  3  0  0  0  0  0  0
  184.3850  177.2890  141.4900 F   0  0  0  0  0  0  0  0  0  0  0  0
  187.7350  178.1390  141.3800 C   0  0  2  0  0  3  0  0  0  0  0  0
  186.6550  177.9270  142.4700 C   0  0  2  0  0  3  0  0  0  0  0  0
  188.6950  178.0590  144.0270 C   0  0  2  0  0  3  0  0  0  0  0  0
  184.6640  178.6510  141.5500 C   0  0  0  0  0  0  0  0  0  0  0  0
  183.5170  179.2870  141.9930 F   0  0  0  0  0  0  0  0  0  0  0  0
  185.0110  179.1600  140.1790 C   0  0  0  0  0  0  0  0  0  0  0  0
  184.2230  179.9420  139.5850 O   0  0  0  0  0  0  0  0  0  0  0  0
  186.2310  178.7890  139.5300 N   0  0  0  0  0  2  0  0  0  0  0  0
  190.9430  176.7860  146.7840 C   0  0  0  0  0  0  0  0  0  0  0  0
  189.2090  177.7180  145.3900 C   0  0  0  0  0  0  0  0  0  0  0  0
  188.9810  177.6620  147.7940 C   0  0  0  0  0  0  0  0  0  0  0  0
  190.4580  177.1070  145.5130 C   0  0  0  0  0  3  0  0  0  0  0  0
  188.4610  177.9990  146.5420 C   0  0  0  0  0  3  0  0  0  0  0  0
  192.2150  176.1640  146.9220 N   0  0  0  0  0  1  0  0  0  0  0  0
  190.2010  177.0670  147.8880 N   0  0  0  0  0  0  0  0  0  0  0  0
  188.2330  177.9410  148.9710 N   0  0  0  0  0  1  0  0  0  0  0  0
  188.2600  177.6010  138.9490 C   0  0  0  0  0  2  0  0  0  0  0  0
  187.7240  177.8640  137.5500 C   0  0  0  0  0  2  0  0  0  0  0  0
  188.9820  179.8790  137.6450 O   0  0  0  0  0  1  0  0  0  0  0  0
  188.6360  178.8210  136.8070 C   0  0  0  0  0  2  0  0  0  0  0  0
  1  8  1  0  0  0  0
  2 23  1  6  0  0  0
  2  7  1  0  0  0  0
  3  9  1  0  0  0  0
  4  9  1  0  0  0  0
  5  4  2  0  0  0  0
  6 10  1  0  0  0  0
  7  5  1  1  0  0  0
  7  8  1  0  0  0  0
  8  3  1  1  0  0  0
  9 16  1  1  0  0  0
 10 11  1  0  0  0  0
 10  1  1  0  0  0  0
 12 10  1  0  0  0  0
 13 12  2  0  0  0  0
 14  2  1  0  0  0  0
 14 12  1  0  0  0  0
 15 20  1  0  0  0  0
 15 21  1  0  0  0  0
 16 18  1  0  0  0  0
 16 19  2  0  0  0  0
 17 21  2  0  0  0  0
 17 22  1  0  0  0  0
 18 15  2  0  0  0  0
 19 17  1  0  0  0  0
 24 23  1  0  0  0  0
 26 24  1  0  0  0  0
 26 25  1  0  0  0  0
M  END
>  <MODEL>
6

>  <REMARK>
 VINA RESULT:      -8.4      4.137      7.437
  Name = 
  4 active torsions:
  status: ('A' for Active; 'I' for Inactive)
    1  A    between atoms: C_3  and  C_17
    2  A    between atoms: C_3  and  C_26
    3  A    between atoms: C_5  and  C_16
    4  A    between atoms: C_6  and  C_17
                            x       y       z     vdW  Elec       q    Type
                         _______ _______ _______ _____ _____    ______ ____

>  <TORSDO>
F 4

$$$$
=
 OpenBabel10232410013D

 26 28  0  0  1  0  0  0  0  0999 V2000
  188.7870  177.4030  140.4840 O   0  0  0  0  0  0  0  0  0  0  0  0
  186.0500  178.8290  140.3100 C   0  0  1  0  0  3  0  0  0  0  0  0
  188.9110  177.9480  142.8200 C   0  0  0  0  0  2  0  0  0  0  0  0
  186.7130  178.1700  143.9570 C   0  0  0  0  0  3  0  0  0  0  0  0
  186.1020  178.5100  142.8180 C   0  0  0  0  0  3  0  0  0  0  0  0
  189.0410  179.4670  139.4080 F   0  0  0  0  0  0  0  0  0  0  0  0
  186.6680  178.0590  141.4910 C   0  0  2  0  0  3  0  0  0  0  0  0
  188.2070  178.2180  141.4730 C   0  0  2  0  0  3  0  0  0  0  0  0
  187.9770  177.3650  143.8860 C   0  0  2  0  0  3  0  0  0  0  0  0
  188.8400  178.0990  139.2540 C   0  0  0  0  0  0  0  0  0  0  0  0
  189.9110  177.6020  138.5330 F   0  0  0  0  0  0  0  0  0  0  0  0
  187.5720  177.8550  138.4830 C   0  0  0  0  0  0  0  0  0  0  0  0
  187.6310  177.3850  137.3160 O   0  0  0  0  0  0  0  0  0  0  0  0
  186.2870  178.1310  139.0500 N   0  0  0  0  0  2  0  0  0  0  0  0
  190.6420  176.8920  146.5230 C   0  0  0  0  0  0  0  0  0  0  0  0
  188.6510  177.2910  145.2190 C   0  0  0  0  0  0  0  0  0  0  0  0
  188.6190  177.4620  147.6280 C   0  0  0  0  0  0  0  0  0  0  0  0
  190.0070  176.9630  145.2800 C   0  0  0  0  0  3  0  0  0  0  0  0
  187.9480  177.5430  146.4060 C   0  0  0  0  0  3  0  0  0  0  0  0
  192.0220  176.5600  146.5960 N   0  0  0  0  0  1  0  0  0  0  0  0
  189.9410  177.1400  147.6610 N   0  0  0  0  0  0  0  0  0  0  0  0
  187.9180  177.7150  148.8400 N   0  0  0  0  0  1  0  0  0  0  0  0
  184.5430  179.0230  140.4730 C   0  0  0  0  0  2  0  0  0  0  0  0
  183.7790  178.3840  139.3240 C   0  0  0  0  0  2  0  0  0  0  0  0
  183.3840  180.6890  138.8970 O   0  0  0  0  0  1  0  0  0  0  0  0
  182.8920  179.4090  138.6440 C   0  0  0  0  0  2  0  0  0  0  0  0
  1  8  1  0  0  0  0
  2 23  1  1  0  0  0
  2  7  1  0  0  0  0
  3  9  1  0  0  0  0
  5  4  2  0  0  0  0
  7  5  1  1  0  0  0
  8  7  1  0  0  0  0
  8  3  1  1  0  0  0
  9  4  1  0  0  0  0
  9 16  1  1  0  0  0
 10  6  1  0  0  0  0
 10  1  1  0  0  0  0
 11 10  1  0  0  0  0
 12 14  1  0  0  0  0
 12 10  1  0  0  0  0
 13 12  2  0  0  0  0
 14  2  1  0  0  0  0
 15 20  1  0  0  0  0
 15 21  1  0  0  0  0
 16 18  1  0  0  0  0
 16 19  2  0  0  0  0
 17 21  2  0  0  0  0
 17 22  1  0  0  0  0
 18 15  2  0  0  0  0
 19 17  1  0  0  0  0
 24 23  1  0  0  0  0
 26 25  1  0  0  0  0
 26 24  1  0  0  0  0
M  END
>  <MODEL>
7

>  <REMARK>
 VINA RESULT:      -8.2      4.349      7.146
  Name = 
  4 active torsions:
  status: ('A' for Active; 'I' for Inactive)
    1  A    between atoms: C_3  and  C_17
    2  A    between atoms: C_3  and  C_26
    3  A    between atoms: C_5  and  C_16
    4  A    between atoms: C_6  and  C_17
                            x       y       z     vdW  Elec       q    Type
                         _______ _______ _______ _____ _____    ______ ____

>  <TORSDO>
F 4

$$$$
=
 OpenBabel10232410013D

 26 28  0  0  1  0  0  0  0  0999 V2000
  190.8670  175.7860  139.3710 O   0  0  0  0  0  0  0  0  0  0  0  0
  189.3250  178.0070  137.8740 C   0  0  1  0  0  3  0  0  0  0  0  0
  190.4430  176.9080  141.4520 C   0  0  0  0  0  2  0  0  0  0  0  0
  188.3570  178.2560  141.5030 C   0  0  0  0  0  3  0  0  0  0  0  0
  188.3880  178.4470  140.1810 C   0  0  0  0  0  3  0  0  0  0  0  0
  192.3820  177.1910  138.2700 F   0  0  0  0  0  0  0  0  0  0  0  0
  189.0880  177.4480  139.2880 C   0  0  2  0  0  3  0  0  0  0  0  0
  190.4350  177.0100  139.9120 C   0  0  2  0  0  3  0  0  0  0  0  0
  189.0520  177.0560  142.0770 C   0  0  2  0  0  3  0  0  0  0  0  0
  191.6390  176.0160  138.2090 C   0  0  0  0  0  0  0  0  0  0  0  0
  192.5330  174.9680  138.0800 F   0  0  0  0  0  0  0  0  0  0  0  0
  190.7390  176.0460  137.0050 C   0  0  0  0  0  0  0  0  0  0  0  0
  190.9590  175.2670  136.0400 O   0  0  0  0  0  0  0  0  0  0  0  0
  189.6190  176.9330  136.9300 N   0  0  0  0  0  2  0  0  0  0  0  0
  188.0300  177.4340  145.6950 C   0  0  0  0  0  0  0  0  0  0  0  0
  189.1300  177.1330  143.5680 C   0  0  0  0  0  0  0  0  0  0  0  0
  190.3750  177.0630  145.6370 C   0  0  0  0  0  0  0  0  0  0  0  0
  187.9630  177.3610  144.3010 C   0  0  0  0  0  3  0  0  0  0  0  0
  190.3500  176.9840  144.2430 C   0  0  0  0  0  3  0  0  0  0  0  0
  186.8480  177.6640  146.4510 N   0  0  0  0  0  1  0  0  0  0  0  0
  189.2240  177.2850  146.3280 N   0  0  0  0  0  0  0  0  0  0  0  0
  191.6050  176.9130  146.3340 N   0  0  0  0  0  1  0  0  0  0  0  0
  188.1190  178.7870  137.3520 C   0  0  0  0  0  2  0  0  0  0  0  0
  187.1630  177.8780  136.5950 C   0  0  0  0  0  2  0  0  0  0  0  0
  185.6440  178.7890  138.1800 O   0  0  0  0  0  1  0  0  0  0  0  0
  185.8920  177.6660  137.3930 C   0  0  0  0  0  2  0  0  0  0  0  0
  1  8  1  0  0  0  0
  2 23  1  6  0  0  0
  2  7  1  0  0  0  0
  3  9  1  0  0  0  0
  4  9  1  0  0  0  0
  5  4  2  0  0  0  0
  7  8  1  0  0  0  0
  7  5  1  1  0  0  0
  8  3  1  1  0  0  0
  9 16  1  1  0  0  0
 10  6  1  0  0  0  0
 10  1  1  0  0  0  0
 11 10  1  0  0  0  0
 12 10  1  0  0  0  0
 13 12  2  0  0  0  0
 14 12  1  0  0  0  0
 14  2  1  0  0  0  0
 15 21  1  0  0  0  0
 15 20  1  0  0  0  0
 16 19  2  0  0  0  0
 16 18  1  0  0  0  0
 17 21  2  0  0  0  0
 17 22  1  0  0  0  0
 18 15  2  0  0  0  0
 19 17  1  0  0  0  0
 24 23  1  0  0  0  0
 24 26  1  0  0  0  0
 26 25  1  0  0  0  0
M  END
>  <MODEL>
8

>  <REMARK>
 VINA RESULT:      -8.1      4.338      7.628
  Name = 
  4 active torsions:
  status: ('A' for Active; 'I' for Inactive)
    1  A    between atoms: C_3  and  C_17
    2  A    between atoms: C_3  and  C_26
    3  A    between atoms: C_5  and  C_16
    4  A    between atoms: C_6  and  C_17
                            x       y       z     vdW  Elec       q    Type
                         _______ _______ _______ _____ _____    ______ ____

>  <TORSDO>
F 4

$$$$
=
 OpenBabel10232410013D

 26 28  0  0  1  0  0  0  0  0999 V2000
  187.2780  178.2670  144.8480 O   0  0  0  0  0  0  0  0  0  0  0  0
  184.2900  178.7870  144.2550 C   0  0  1  0  0  3  0  0  0  0  0  0
  187.6000  177.5830  142.5680 C   0  0  0  0  0  2  0  0  0  0  0  0
  186.0560  178.6390  140.9340 C   0  0  0  0  0  3  0  0  0  0  0  0
  185.1150  178.8200  141.8650 C   0  0  0  0  0  3  0  0  0  0  0  0
  185.9820  176.5520  145.7750 F   0  0  0  0  0  0  0  0  0  0  0  0
  185.5030  178.9400  143.3210 C   0  0  2  0  0  3  0  0  0  0  0  0
  186.5810  177.8910  143.6860 C   0  0  2  0  0  3  0  0  0  0  0  0
  187.4880  178.5270  141.3670 C   0  0  2  0  0  3  0  0  0  0  0  0
  186.6100  177.7740  145.9930 C   0  0  0  0  0  0  0  0  0  0  0  0
  187.5560  177.5810  146.9840 F   0  0  0  0  0  0  0  0  0  0  0  0
  185.6030  178.7870  146.4630 C   0  0  0  0  0  0  0  0  0  0  0  0
  185.6530  179.2140  147.6470 O   0  0  0  0  0  0  0  0  0  0  0  0
  184.5900  179.2950  145.5900 N   0  0  0  0  0  2  0  0  0  0  0  0
  188.6550  177.6230  137.8890 C   0  0  0  0  0  0  0  0  0  0  0  0
  188.3640  178.0810  140.2400 C   0  0  0  0  0  0  0  0  0  0  0  0
  190.4780  177.2960  139.3750 C   0  0  0  0  0  0  0  0  0  0  0  0
  187.8410  178.0390  138.9460 C   0  0  0  0  0  3  0  0  0  0  0  0
  189.6980  177.7050  140.4570 C   0  0  0  0  0  3  0  0  0  0  0  0
  188.1330  177.5770  136.5670 N   0  0  0  0  0  1  0  0  0  0  0  0
  189.9450  177.2630  138.1230 N   0  0  0  0  0  0  0  0  0  0  0  0
  191.8320  176.9110  139.5810 N   0  0  0  0  0  1  0  0  0  0  0  0
  183.0590  179.5240  143.7280 C   0  0  0  0  0  2  0  0  0  0  0  0
  181.7800  178.7830  144.0840 C   0  0  0  0  0  2  0  0  0  0  0  0
  180.3630  180.3330  142.9700 O   0  0  0  0  0  1  0  0  0  0  0  0
  180.7320  178.9900  143.0080 C   0  0  0  0  0  2  0  0  0  0  0  0
  1 10  1  0  0  0  0
  2 23  1  6  0  0  0
  2 14  1  0  0  0  0
  4  9  1  0  0  0  0
  4  5  2  0  0  0  0
  6 10  1  0  0  0  0
  7  5  1  6  0  0  0
  7  8  1  0  0  0  0
  7  2  1  0  0  0  0
  8  3  1  6  0  0  0
  8  1  1  0  0  0  0
  9 16  1  6  0  0  0
  9  3  1  0  0  0  0
 10 12  1  0  0  0  0
 10 11  1  0  0  0  0
 12 13  2  0  0  0  0
 14 12  1  0  0  0  0
 15 21  2  0  0  0  0
 15 18  1  0  0  0  0
 16 19  1  0  0  0  0
 17 22  1  0  0  0  0
 17 19  2  0  0  0  0
 18 16  2  0  0  0  0
 20 15  1  0  0  0  0
 21 17  1  0  0  0  0
 23 24  1  0  0  0  0
 25 26  1  0  0  0  0
 26 24  1  0  0  0  0
M  END
>  <MODEL>
9

>  <REMARK>
 VINA RESULT:      -8.0      2.520      3.349
  Name = 
  4 active torsions:
  status: ('A' for Active; 'I' for Inactive)
    1  A    between atoms: C_3  and  C_17
    2  A    between atoms: C_3  and  C_26
    3  A    between atoms: C_5  and  C_16
    4  A    between atoms: C_6  and  C_17
                            x       y       z     vdW  Elec       q    Type
                         _______ _______ _______ _____ _____    ______ ____

>  <TORSDO>
F 4

$$$$
