=
 OpenBabel10232408133D

 32 34  0  0  1  0  0  0  0  0999 V2000
  183.1750  179.4330  143.6570 C   0  0  0  0  0  2  0  0  0  0  0  0
  182.0320  179.0010  142.7500 C   0  0  0  0  0  2  0  0  0  0  0  0
  182.5650  178.7010  141.3540 C   0  0  0  0  0  2  0  0  0  0  0  0
  183.6760  177.6460  141.4310 C   0  0  0  0  0  2  0  0  0  0  0  0
  184.7730  178.0530  142.3230 N   0  0  0  0  0  0  0  0  0  0  0  0
  184.2460  178.3400  143.6720 C   0  0  1  0  0  3  0  0  0  0  0  0
  185.4580  179.2140  141.7520 C   0  0  0  0  0  2  0  0  0  0  0  0
  186.8670  178.8280  141.3520 C   0  0  0  0  0  2  0  0  0  0  0  0
  186.9290  178.6480  139.9110 N   0  0  0  0  0  2  0  0  0  0  0  0
  188.1460  177.9050  139.6210 C   0  0  2  0  0  3  0  0  0  0  0  0
  189.0670  177.9370  140.8300 C   0  0  0  0  0  2  0  0  0  0  0  0
  190.2550  177.0180  140.6150 C   0  0  0  0  0  1  0  0  0  0  0  0
  188.8360  178.4710  138.3800 C   0  0  0  0  0  2  0  0  0  0  0  0
  187.8560  178.9160  137.3970 N   0  0  0  0  0  2  0  0  0  0  0  0
  187.3270  176.2080  136.5860 C   0  0  0  0  0  1  0  0  0  0  0  0
  189.3210  177.6850  135.5820 O   0  0  0  0  0  0  0  0  0  0  0  0
  187.0400  178.3170  134.9480 O   0  0  0  0  0  0  0  0  0  0  0  0
  187.9050  177.8090  136.0680 S   0  0  0  0  0  0  0  0  0  0  0  0
  185.3550  178.6880  144.6580 C   0  0  0  0  0  2  0  0  0  0  0  0
  186.2670  177.4910  144.8680 C   0  0  0  0  0  2  0  0  0  0  0  0
  189.5430  177.9900  147.0480 C   0  0  0  0  0  0  0  0  0  0  0  0
  190.4820  176.8550  147.2900 C   0  0  0  0  0  3  0  0  0  0  0  0
  192.5300  175.2140  146.9070 Cl  0  0  0  0  0  0  0  0  0  0  0  0
  189.1890  177.6340  144.6230 C   0  0  0  0  0  3  0  0  0  0  0  0
  188.7830  178.2610  148.2730 N   0  0  0  0  0  0  0  0  0  0  0  0
  190.6270  177.5750  144.3040 C   0  0  0  0  0  3  0  0  0  0  0  0
  191.5910  177.0680  145.0800 C   0  0  0  0  0  3  0  0  0  0  0  0
  188.6610  177.7460  145.8480 C   0  0  0  0  0  0  0  0  0  0  0  0
  187.1930  177.7440  146.0160 C   0  0  1  0  0  3  0  0  0  0  0  0
  191.4100  176.4660  146.4160 C   0  0  0  0  0  0  0  0  0  0  0  0
  186.6710  177.9950  147.2110 C   0  0  0  0  0  3  0  0  0  0  0  0
  187.5090  178.2600  148.3400 N   0  0  0  0  0  0  0  0  0  0  0  0
  1  6  1  0  0  0  0
  2  1  1  0  0  0  0
  3  4  1  0  0  0  0
  3  2  1  0  0  0  0
  4  5  1  0  0  0  0
  5  6  1  0  0  0  0
  6 19  1  1  0  0  0
  7  5  1  0  0  0  0
  8  7  1  0  0  0  0
  9  8  1  0  0  0  0
 10 13  1  6  0  0  0
 10  9  1  0  0  0  0
 10 11  1  0  0  0  0
 12 11  1  0  0  0  0
 14 13  1  0  0  0  0
 16 18  2  0  0  0  0
 17 18  2  0  0  0  0
 18 15  1  0  0  0  0
 18 14  1  0  0  0  0
 19 20  1  0  0  0  0
 21 22  1  0  0  0  0
 21 25  2  0  0  0  0
 24 28  2  0  0  0  0
 25 32  1  0  0  0  0
 26 24  1  0  0  0  0
 26 27  2  0  0  0  0
 27 30  1  0  0  0  0
 28 29  1  0  0  0  0
 28 21  1  0  0  0  0
 29 20  1  6  0  0  0
 29 31  1  0  0  0  0
 30 23  1  0  0  0  0
 30 22  2  0  0  0  0
 31 32  2  0  0  0  0
M  END
>  <MODEL>
1

>  <REMARK>
 VINA RESULT:      -8.3      0.000      0.000
  Name = 
  11 active torsions:
  status: ('A' for Active; 'I' for Inactive)
    1  A    between atoms: C_3  and  N_15
    2  A    between atoms: C_3  and  C_16
    3  A    between atoms: C_7  and  N_12
    4  A    between atoms: C_7  and  C_26
    5  A    between atoms: N_12  and  S_23
    6  A    between atoms: C_14  and  C_26
    7  A    between atoms: C_16  and  N_31
    8  A    between atoms: C_18  and  C_24
    9  A    between atoms: C_18  and  C_27
   10  A    between atoms: C_26  and  N_31
   11  A    between atoms: C_27  and  C_32
                            x       y       z     vdW  Elec       q    Type
                         _______ _______ _______ _____ _____    ______ ____

>  <TORSDO>
F 11

$$$$
=
 OpenBabel10232408133D

 32 34  0  0  1  0  0  0  0  0999 V2000
  183.5830  179.2900  143.5030 C   0  0  0  0  0  2  0  0  0  0  0  0
  182.1580  178.9610  143.0820 C   0  0  0  0  0  2  0  0  0  0  0  0
  182.0990  178.7540  141.5740 C   0  0  0  0  0  2  0  0  0  0  0  0
  183.0940  177.6660  141.1520 C   0  0  0  0  0  2  0  0  0  0  0  0
  184.4690  177.9730  141.5750 N   0  0  0  0  0  0  0  0  0  0  0  0
  184.5150  178.1690  143.0380 C   0  0  1  0  0  3  0  0  0  0  0  0
  184.9480  179.1540  140.8560 C   0  0  0  0  0  2  0  0  0  0  0  0
  185.4830  178.7440  139.4990 C   0  0  0  0  0  2  0  0  0  0  0  0
  186.8850  178.3810  139.6210 N   0  0  0  0  0  2  0  0  0  0  0  0
  187.3940  178.1680  138.2750 C   0  0  2  0  0  3  0  0  0  0  0  0
  186.3530  177.4360  137.4430 C   0  0  0  0  0  2  0  0  0  0  0  0
  186.5720  177.7040  135.9660 C   0  0  0  0  0  1  0  0  0  0  0  0
  188.7150  177.4010  138.3170 C   0  0  0  0  0  2  0  0  0  0  0  0
  189.6740  178.0630  139.1910 N   0  0  0  0  0  2  0  0  0  0  0  0
  192.2290  177.4910  140.3810 C   0  0  0  0  0  1  0  0  0  0  0  0
  190.8190  175.6960  138.9830 O   0  0  0  0  0  0  0  0  0  0  0  0
  189.9410  176.3330  141.1800 O   0  0  0  0  0  0  0  0  0  0  0  0
  190.6340  176.8360  139.9440 S   0  0  0  0  0  0  0  0  0  0  0  0
  185.9350  178.4090  143.5390 C   0  0  0  0  0  2  0  0  0  0  0  0
  186.4710  177.1610  144.2190 C   0  0  0  0  0  2  0  0  0  0  0  0
  189.2490  177.9990  146.9230 C   0  0  0  0  0  0  0  0  0  0  0  0
  190.2150  176.9560  147.3790 C   0  0  0  0  0  3  0  0  0  0  0  0
  192.4210  175.4850  147.4390 Cl  0  0  0  0  0  0  0  0  0  0  0  0
  189.3690  177.5450  144.4930 C   0  0  0  0  0  3  0  0  0  0  0  0
  188.2610  178.2410  147.9800 N   0  0  0  0  0  0  0  0  0  0  0  0
  190.8410  177.5990  144.4370 C   0  0  0  0  0  3  0  0  0  0  0  0
  191.6860  177.1990  145.3950 C   0  0  0  0  0  3  0  0  0  0  0  0
  188.6200  177.6470  145.5980 C   0  0  0  0  0  0  0  0  0  0  0  0
  187.1510  177.5250  145.5010 C   0  0  1  0  0  3  0  0  0  0  0  0
  191.3140  176.6220  146.7020 C   0  0  0  0  0  0  0  0  0  0  0  0
  186.4040  177.7650  146.5720 C   0  0  0  0  0  3  0  0  0  0  0  0
  186.9990  178.1330  147.8200 N   0  0  0  0  0  0  0  0  0  0  0  0
  2  1  1  0  0  0  0
  3  2  1  0  0  0  0
  4  3  1  0  0  0  0
  4  5  1  0  0  0  0
  5  6  1  0  0  0  0
  6  1  1  0  0  0  0
  6 19  1  6  0  0  0
  7  5  1  0  0  0  0
  8  9  1  0  0  0  0
  8  7  1  0  0  0  0
 10 11  1  6  0  0  0
 10 13  1  0  0  0  0
 10  9  1  0  0  0  0
 12 11  1  0  0  0  0
 13 14  1  0  0  0  0
 14 18  1  0  0  0  0
 16 18  2  0  0  0  0
 18 15  1  0  0  0  0
 18 17  2  0  0  0  0
 19 20  1  0  0  0  0
 21 22  1  0  0  0  0
 21 25  2  0  0  0  0
 24 28  2  0  0  0  0
 26 24  1  0  0  0  0
 26 27  2  0  0  0  0
 27 30  1  0  0  0  0
 28 21  1  0  0  0  0
 29 20  1  6  0  0  0
 29 28  1  0  0  0  0
 29 31  1  0  0  0  0
 30 22  2  0  0  0  0
 30 23  1  0  0  0  0
 31 32  2  0  0  0  0
 32 25  1  0  0  0  0
M  END
>  <MODEL>
2

>  <REMARK>
 VINA RESULT:      -8.1      1.894      2.573
  Name = 
  11 active torsions:
  status: ('A' for Active; 'I' for Inactive)
    1  A    between atoms: C_3  and  N_15
    2  A    between atoms: C_3  and  C_16
    3  A    between atoms: C_7  and  N_12
    4  A    between atoms: C_7  and  C_26
    5  A    between atoms: N_12  and  S_23
    6  A    between atoms: C_14  and  C_26
    7  A    between atoms: C_16  and  N_31
    8  A    between atoms: C_18  and  C_24
    9  A    between atoms: C_18  and  C_27
   10  A    between atoms: C_26  and  N_31
   11  A    between atoms: C_27  and  C_32
                            x       y       z     vdW  Elec       q    Type
                         _______ _______ _______ _____ _____    ______ ____

>  <TORSDO>
F 11

$$$$
=
 OpenBabel10232408133D

 32 34  0  0  1  0  0  0  0  0999 V2000
  184.4740  178.1260  141.8500 C   0  0  0  0  0  2  0  0  0  0  0  0
  183.0640  178.6460  142.0890 C   0  0  0  0  0  2  0  0  0  0  0  0
  182.8170  178.8060  143.5840 C   0  0  0  0  0  2  0  0  0  0  0  0
  183.8850  179.7200  144.1990 C   0  0  0  0  0  2  0  0  0  0  0  0
  185.2500  179.2290  143.9530 N   0  0  0  0  0  0  0  0  0  0  0  0
  185.4780  179.0800  142.5010 C   0  0  1  0  0  3  0  0  0  0  0  0
  185.4470  177.9650  144.6640 C   0  0  0  0  0  2  0  0  0  0  0  0
  185.4650  178.2180  146.1580 C   0  0  0  0  0  2  0  0  0  0  0  0
  186.7770  178.7050  146.5510 N   0  0  0  0  0  2  0  0  0  0  0  0
  187.7070  177.5940  146.4210 C   0  0  2  0  0  3  0  0  0  0  0  0
  188.1670  177.1460  147.8000 C   0  0  0  0  0  2  0  0  0  0  0  0
  189.0360  178.2140  148.4390 C   0  0  0  0  0  1  0  0  0  0  0  0
  188.8910  177.9860  145.5380 C   0  0  0  0  0  2  0  0  0  0  0  0
  189.4700  176.8150  144.8920 N   0  0  0  0  0  2  0  0  0  0  0  0
  191.5740  178.5330  143.9460 C   0  0  0  0  0  1  0  0  0  0  0  0
  191.8110  175.8730  144.1270 O   0  0  0  0  0  0  0  0  0  0  0  0
  191.7360  177.1290  146.2290 O   0  0  0  0  0  0  0  0  0  0  0  0
  191.1850  177.0410  144.8330 S   0  0  0  0  0  0  0  0  0  0  0  0
  186.9070  178.6510  142.1890 C   0  0  0  0  0  2  0  0  0  0  0  0
  187.0940  178.4960  140.6890 C   0  0  0  0  0  2  0  0  0  0  0  0
  190.2320  176.9540  138.8170 C   0  0  2  0  0  3  0  0  0  0  0  0
  190.0610  175.8960  137.7790 C   0  0  0  0  0  3  0  0  0  0  0  0
  189.7130  174.8150  135.3820 Cl  0  0  0  0  0  0  0  0  0  0  0  0
  188.4200  178.4670  138.0710 C   0  0  0  0  0  3  0  0  0  0  0  0
  190.7670  176.3510  140.0420 N   0  0  0  0  0  0  0  0  0  0  0  0
  188.8720  178.5050  136.6670 C   0  0  0  0  0  3  0  0  0  0  0  0
  189.4400  177.5010  135.9900 C   0  0  0  0  0  3  0  0  0  0  0  0
  188.9580  177.7290  139.0490 C   0  0  0  0  0  0  0  0  0  0  0  0
  188.3640  177.7600  140.4010 C   0  0  0  0  0  0  0  0  0  0  0  0
  189.7310  176.1510  136.5120 C   0  0  0  0  0  0  0  0  0  0  0  0
  188.9800  177.1390  141.4000 C   0  0  0  0  0  3  0  0  0  0  0  0
  190.2070  176.4340  141.1860 N   0  0  0  0  0  0  0  0  0  0  0  0
  1  2  1  0  0  0  0
  1  6  1  0  0  0  0
  2  3  1  0  0  0  0
  3  4  1  0  0  0  0
  5  4  1  0  0  0  0
  5  7  1  0  0  0  0
  6 19  1  1  0  0  0
  6  5  1  0  0  0  0
  7  8  1  0  0  0  0
  8  9  1  0  0  0  0
 10 13  1  6  0  0  0
 10  9  1  0  0  0  0
 10 11  1  0  0  0  0
 11 12  1  0  0  0  0
 14 13  1  0  0  0  0
 15 18  1  0  0  0  0
 16 18  2  0  0  0  0
 18 14  1  0  0  0  0
 18 17  2  0  0  0  0
 20 19  1  0  0  0  0
 21 22  1  6  0  0  0
 21 28  1  0  0  0  0
 21 25  1  0  0  0  0
 23 30  1  0  0  0  0
 24 28  2  0  0  0  0
 25 32  2  0  0  0  0
 26 24  1  0  0  0  0
 27 30  1  0  0  0  0
 27 26  2  0  0  0  0
 28 29  1  0  0  0  0
 29 20  1  0  0  0  0
 29 31  2  0  0  0  0
 30 22  2  0  0  0  0
 32 31  1  0  0  0  0
M  END
>  <MODEL>
3

>  <REMARK>
 VINA RESULT:      -7.7      4.095      7.219
  Name = 
  11 active torsions:
  status: ('A' for Active; 'I' for Inactive)
    1  A    between atoms: C_3  and  N_15
    2  A    between atoms: C_3  and  C_16
    3  A    between atoms: C_7  and  N_12
    4  A    between atoms: C_7  and  C_26
    5  A    between atoms: N_12  and  S_23
    6  A    between atoms: C_14  and  C_26
    7  A    between atoms: C_16  and  N_31
    8  A    between atoms: C_18  and  C_24
    9  A    between atoms: C_18  and  C_27
   10  A    between atoms: C_26  and  N_31
   11  A    between atoms: C_27  and  C_32
                            x       y       z     vdW  Elec       q    Type
                         _______ _______ _______ _____ _____    ______ ____

>  <TORSDO>
F 11

$$$$
=
 OpenBabel10232408133D

 32 34  0  0  1  0  0  0  0  0999 V2000
  189.4580  178.1340  140.8140 C   0  0  0  0  0  2  0  0  0  0  0  0
  188.4860  178.2300  139.6480 C   0  0  0  0  0  2  0  0  0  0  0  0
  189.1710  177.7770  138.3650 C   0  0  0  0  0  2  0  0  0  0  0  0
  189.7300  176.3590  138.5390 C   0  0  0  0  0  2  0  0  0  0  0  0
  190.6550  176.2590  139.6780 N   0  0  0  0  0  0  0  0  0  0  0  0
  189.9800  176.6990  140.9160 C   0  0  1  0  0  3  0  0  0  0  0  0
  191.8530  177.0540  139.4030 C   0  0  0  0  0  2  0  0  0  0  0  0
  192.6270  176.4310  138.2600 C   0  0  0  0  0  2  0  0  0  0  0  0
  193.9820  176.1390  138.6940 N   0  0  0  0  0  2  0  0  0  0  0  0
  194.4370  174.9800  137.9420 C   0  0  2  0  0  3  0  0  0  0  0  0
  193.2400  174.1450  137.5130 C   0  0  0  0  0  2  0  0  0  0  0  0
  193.5670  173.3560  136.2590 C   0  0  0  0  0  1  0  0  0  0  0  0
  195.4220  174.1560  138.7700 C   0  0  0  0  0  2  0  0  0  0  0  0
  196.6120  174.9340  139.0890 N   0  0  0  0  0  2  0  0  0  0  0  0
  197.5420  173.0380  137.1360 C   0  0  0  0  0  1  0  0  0  0  0  0
  199.1550  174.7500  138.4130 O   0  0  0  0  0  0  0  0  0  0  0  0
  197.6160  175.6960  136.7580 O   0  0  0  0  0  0  0  0  0  0  0  0
  197.7720  174.6580  137.8340 S   0  0  0  0  0  0  0  0  0  0  0  0
  190.8720  176.5370  142.1420 C   0  0  0  0  0  2  0  0  0  0  0  0
  190.8390  177.7990  142.9870 C   0  0  0  0  0  2  0  0  0  0  0  0
  189.0650  176.9500  146.4310 C   0  0  0  0  0  0  0  0  0  0  0  0
  188.2420  177.9720  147.1410 C   0  0  0  0  0  3  0  0  0  0  0  0
  186.0990  179.3670  147.8500 Cl  0  0  0  0  0  0  0  0  0  0  0  0
  188.1850  177.3230  144.1470 C   0  0  0  0  0  3  0  0  0  0  0  0
  190.3390  176.7770  147.1360 N   0  0  0  0  0  0  0  0  0  0  0  0
  186.7710  177.2150  144.5490 C   0  0  0  0  0  3  0  0  0  0  0  0
  186.2440  177.6160  145.7120 C   0  0  0  0  0  3  0  0  0  0  0  0
  189.2400  177.2820  144.9690 C   0  0  0  0  0  0  0  0  0  0  0  0
  190.6020  177.4530  144.4220 C   0  0  0  0  0  0  0  0  0  0  0  0
  186.9740  178.2460  146.8290 C   0  0  2  0  0  3  0  0  0  0  0  0
  191.6520  177.2730  145.2150 C   0  0  0  0  0  3  0  0  0  0  0  0
  191.4850  176.9240  146.5930 N   0  0  0  0  0  0  0  0  0  0  0  0
  1  6  1  0  0  0  0
  2  1  1  0  0  0  0
  3  4  1  0  0  0  0
  3  2  1  0  0  0  0
  4  5  1  0  0  0  0
  5  6  1  0  0  0  0
  6 19  1  1  0  0  0
  7  5  1  0  0  0  0
  8  9  1  0  0  0  0
  8  7  1  0  0  0  0
 10 11  1  1  0  0  0
 10  9  1  0  0  0  0
 10 13  1  0  0  0  0
 12 11  1  0  0  0  0
 13 14  1  0  0  0  0
 15 18  1  0  0  0  0
 17 18  2  0  0  0  0
 18 16  2  0  0  0  0
 18 14  1  0  0  0  0
 19 20  1  0  0  0  0
 20 29  1  0  0  0  0
 21 25  1  0  0  0  0
 21 22  2  0  0  0  0
 24 26  1  0  0  0  0
 24 28  2  0  0  0  0
 26 27  2  0  0  0  0
 27 30  1  0  0  0  0
 28 21  1  0  0  0  0
 29 28  1  0  0  0  0
 29 31  2  0  0  0  0
 30 22  1  0  0  0  0
 30 23  1  1  0  0  0
 31 32  1  0  0  0  0
 32 25  2  0  0  0  0
M  END
>  <MODEL>
4

>  <REMARK>
 VINA RESULT:      -7.7      4.962      6.789
  Name = 
  11 active torsions:
  status: ('A' for Active; 'I' for Inactive)
    1  A    between atoms: C_3  and  N_15
    2  A    between atoms: C_3  and  C_16
    3  A    between atoms: C_7  and  N_12
    4  A    between atoms: C_7  and  C_26
    5  A    between atoms: N_12  and  S_23
    6  A    between atoms: C_14  and  C_26
    7  A    between atoms: C_16  and  N_31
    8  A    between atoms: C_18  and  C_24
    9  A    between atoms: C_18  and  C_27
   10  A    between atoms: C_26  and  N_31
   11  A    between atoms: C_27  and  C_32
                            x       y       z     vdW  Elec       q    Type
                         _______ _______ _______ _____ _____    ______ ____

>  <TORSDO>
F 11

$$$$
=
 OpenBabel10232408133D

 32 34  0  0  1  0  0  0  0  0999 V2000
  189.5160  176.8560  138.6470 C   0  0  0  0  0  2  0  0  0  0  0  0
  190.1540  177.2710  137.3290 C   0  0  0  0  0  2  0  0  0  0  0  0
  189.1040  177.8960  136.4200 C   0  0  0  0  0  2  0  0  0  0  0  0
  188.4250  179.0730  137.1310 C   0  0  0  0  0  2  0  0  0  0  0  0
  187.8240  178.6790  138.4150 N   0  0  0  0  0  0  0  0  0  0  0  0
  188.8500  178.0760  139.2890 C   0  0  1  0  0  3  0  0  0  0  0  0
  186.7140  177.7570  138.1680 C   0  0  0  0  0  2  0  0  0  0  0  0
  185.3980  178.4690  138.4040 C   0  0  0  0  0  2  0  0  0  0  0  0
  185.4880  179.2670  139.6150 N   0  0  0  0  0  2  0  0  0  0  0  0
  184.2890  179.0030  140.3960 C   0  0  2  0  0  3  0  0  0  0  0  0
  184.6470  178.1740  141.6200 C   0  0  0  0  0  2  0  0  0  0  0  0
  184.3030  178.9300  142.8900 C   0  0  0  0  0  1  0  0  0  0  0  0
  183.2340  178.3050  139.5390 C   0  0  0  0  0  2  0  0  0  0  0  0
  182.8960  177.0000  140.0900 N   0  0  0  0  0  2  0  0  0  0  0  0
  183.4110  174.9720  138.1150 C   0  0  0  0  0  1  0  0  0  0  0  0
  181.6810  176.9820  137.7490 O   0  0  0  0  0  0  0  0  0  0  0  0
  181.0470  175.2480  139.3590 O   0  0  0  0  0  0  0  0  0  0  0  0
  182.1910  176.0600  138.8190 S   0  0  0  0  0  0  0  0  0  0  0  0
  188.2950  177.7230  140.6640 C   0  0  0  0  0  2  0  0  0  0  0  0
  188.8220  178.6920  141.7080 C   0  0  0  0  0  2  0  0  0  0  0  0
  189.7050  176.7880  145.0730 C   0  0  0  0  0  0  0  0  0  0  0  0
  189.6990  177.5040  146.3830 C   0  0  0  0  0  3  0  0  0  0  0  0
  188.7670  178.4620  148.6740 Cl  0  0  0  0  0  0  0  0  0  0  0  0
  187.5830  177.6920  144.1740 C   0  0  0  0  0  3  0  0  0  0  0  0
  191.0920  176.5400  144.6630 N   0  0  0  0  0  0  0  0  0  0  0  0
  186.7970  177.3570  145.3760 C   0  0  0  0  0  3  0  0  0  0  0  0
  187.2340  177.3790  146.6410 C   0  0  0  0  0  3  0  0  0  0  0  0
  188.9020  177.5190  144.0260 C   0  0  0  0  0  0  0  0  0  0  0  0
  189.5610  177.9490  142.7750 C   0  0  0  0  0  0  0  0  0  0  0  0
  188.5930  177.7420  147.0880 C   0  0  2  0  0  3  0  0  0  0  0  0
  190.8390  177.6510  142.5740 C   0  0  0  0  0  3  0  0  0  0  0  0
  191.5900  176.9270  143.5530 N   0  0  0  0  0  0  0  0  0  0  0  0
  1  6  1  0  0  0  0
  2  1  1  0  0  0  0
  3  4  1  0  0  0  0
  3  2  1  0  0  0  0
  4  5  1  0  0  0  0
  5  6  1  0  0  0  0
  6 19  1  1  0  0  0
  7  8  1  0  0  0  0
  7  5  1  0  0  0  0
  8  9  1  0  0  0  0
  9 10  1  0  0  0  0
 10 13  1  6  0  0  0
 10 11  1  0  0  0  0
 11 12  1  0  0  0  0
 13 14  1  0  0  0  0
 15 18  1  0  0  0  0
 16 18  2  0  0  0  0
 18 17  2  0  0  0  0
 18 14  1  0  0  0  0
 19 20  1  0  0  0  0
 20 29  1  0  0  0  0
 21 22  2  0  0  0  0
 22 30  1  0  0  0  0
 24 26  1  0  0  0  0
 25 21  1  0  0  0  0
 26 27  2  0  0  0  0
 27 30  1  0  0  0  0
 28 24  2  0  0  0  0
 28 21  1  0  0  0  0
 29 28  1  0  0  0  0
 30 23  1  1  0  0  0
 31 29  2  0  0  0  0
 31 32  1  0  0  0  0
 32 25  2  0  0  0  0
M  END
>  <MODEL>
5

>  <REMARK>
 VINA RESULT:      -7.5      3.121      5.497
  Name = 
  11 active torsions:
  status: ('A' for Active; 'I' for Inactive)
    1  A    between atoms: C_3  and  N_15
    2  A    between atoms: C_3  and  C_16
    3  A    between atoms: C_7  and  N_12
    4  A    between atoms: C_7  and  C_26
    5  A    between atoms: N_12  and  S_23
    6  A    between atoms: C_14  and  C_26
    7  A    between atoms: C_16  and  N_31
    8  A    between atoms: C_18  and  C_24
    9  A    between atoms: C_18  and  C_27
   10  A    between atoms: C_26  and  N_31
   11  A    between atoms: C_27  and  C_32
                            x       y       z     vdW  Elec       q    Type
                         _______ _______ _______ _____ _____    ______ ____

>  <TORSDO>
F 11

$$$$
=
 OpenBabel10232408133D

 32 34  0  0  1  0  0  0  0  0999 V2000
  190.4330  176.5810  140.9430 C   0  0  0  0  0  2  0  0  0  0  0  0
  190.4960  176.4910  139.4250 C   0  0  0  0  0  2  0  0  0  0  0  0
  189.2150  177.0520  138.8190 C   0  0  0  0  0  2  0  0  0  0  0  0
  188.9880  178.4890  139.3070 C   0  0  0  0  0  2  0  0  0  0  0  0
  188.9460  178.5810  140.7740 N   0  0  0  0  0  0  0  0  0  0  0  0
  190.1920  178.0360  141.3500 C   0  0  1  0  0  3  0  0  0  0  0  0
  187.7660  177.8730  141.2730 C   0  0  0  0  0  2  0  0  0  0  0  0
  186.7170  178.8750  141.7100 C   0  0  0  0  0  2  0  0  0  0  0  0
  185.5540  178.1680  142.2200 N   0  0  0  0  0  2  0  0  0  0  0  0
  184.5180  179.1590  142.4640 C   0  0  2  0  0  3  0  0  0  0  0  0
  184.3370  179.3530  143.9620 C   0  0  0  0  0  2  0  0  0  0  0  0
  183.0020  178.7870  144.4100 C   0  0  0  0  0  1  0  0  0  0  0  0
  183.2100  178.7430  141.7930 C   0  0  0  0  0  2  0  0  0  0  0  0
  183.4660  177.9190  140.6190 N   0  0  0  0  0  2  0  0  0  0  0  0
  183.4240  177.9570  137.7430 C   0  0  0  0  0  1  0  0  0  0  0  0
  184.4830  179.9160  139.2280 O   0  0  0  0  0  0  0  0  0  0  0  0
  182.0430  179.6920  139.2580 O   0  0  0  0  0  0  0  0  0  0  0  0
  183.3430  178.9380  139.2250 S   0  0  0  0  0  0  0  0  0  0  0  0
  190.2340  178.1830  142.8670 C   0  0  0  0  0  2  0  0  0  0  0  0
  190.8120  176.9300  143.5020 C   0  0  0  0  0  2  0  0  0  0  0  0
  189.0650  177.0310  147.0610 C   0  0  0  0  0  0  0  0  0  0  0  0
  188.3140  178.2390  147.5120 C   0  0  0  0  0  3  0  0  0  0  0  0
  186.2660  179.8840  147.8820 Cl  0  0  0  0  0  0  0  0  0  0  0  0
  188.1600  176.9000  144.7600 C   0  0  0  0  0  3  0  0  0  0  0  0
  190.3420  176.9570  147.7790 N   0  0  0  0  0  0  0  0  0  0  0  0
  186.7500  176.9730  145.1860 C   0  0  0  0  0  3  0  0  0  0  0  0
  186.2710  177.6690  146.2230 C   0  0  0  0  0  3  0  0  0  0  0  0
  189.2280  176.9940  145.5610 C   0  0  0  0  0  0  0  0  0  0  0  0
  190.5860  176.9500  144.9800 C   0  0  0  0  0  0  0  0  0  0  0  0
  187.0570  178.5040  147.1520 C   0  0  2  0  0  3  0  0  0  0  0  0
  191.6400  176.9040  145.7860 C   0  0  0  0  0  3  0  0  0  0  0  0
  191.4820  176.9030  147.2080 N   0  0  0  0  0  0  0  0  0  0  0  0
  1  6  1  0  0  0  0
  2  1  1  0  0  0  0
  3  4  1  0  0  0  0
  3  2  1  0  0  0  0
  4  5  1  0  0  0  0
  5  7  1  0  0  0  0
  5  6  1  0  0  0  0
  6 19  1  1  0  0  0
  7  8  1  0  0  0  0
  8  9  1  0  0  0  0
  9 10  1  0  0  0  0
 10 13  1  1  0  0  0
 10 11  1  0  0  0  0
 11 12  1  0  0  0  0
 14 13  1  0  0  0  0
 15 18  1  0  0  0  0
 18 16  2  0  0  0  0
 18 17  2  0  0  0  0
 18 14  1  0  0  0  0
 19 20  1  0  0  0  0
 20 29  1  0  0  0  0
 21 22  2  0  0  0  0
 21 25  1  0  0  0  0
 24 26  1  0  0  0  0
 24 28  2  0  0  0  0
 26 27  2  0  0  0  0
 27 30  1  0  0  0  0
 28 21  1  0  0  0  0
 29 28  1  0  0  0  0
 29 31  2  0  0  0  0
 30 22  1  0  0  0  0
 30 23  1  1  0  0  0
 31 32  1  0  0  0  0
 32 25  2  0  0  0  0
M  END
>  <MODEL>
6

>  <REMARK>
 VINA RESULT:      -7.4      2.685      5.352
  Name = 
  11 active torsions:
  status: ('A' for Active; 'I' for Inactive)
    1  A    between atoms: C_3  and  N_15
    2  A    between atoms: C_3  and  C_16
    3  A    between atoms: C_7  and  N_12
    4  A    between atoms: C_7  and  C_26
    5  A    between atoms: N_12  and  S_23
    6  A    between atoms: C_14  and  C_26
    7  A    between atoms: C_16  and  N_31
    8  A    between atoms: C_18  and  C_24
    9  A    between atoms: C_18  and  C_27
   10  A    between atoms: C_26  and  N_31
   11  A    between atoms: C_27  and  C_32
                            x       y       z     vdW  Elec       q    Type
                         _______ _______ _______ _____ _____    ______ ____

>  <TORSDO>
F 11

$$$$
=
 OpenBabel10232408133D

 32 34  0  0  1  0  0  0  0  0999 V2000
  183.3200  179.3150  143.3400 C   0  0  0  0  0  2  0  0  0  0  0  0
  181.9170  178.8280  143.0090 C   0  0  0  0  0  2  0  0  0  0  0  0
  181.7970  178.5720  141.5120 C   0  0  0  0  0  2  0  0  0  0  0  0
  182.8770  177.5810  141.0600 C   0  0  0  0  0  2  0  0  0  0  0  0
  184.2330  178.0400  141.3960 N   0  0  0  0  0  0  0  0  0  0  0  0
  184.3380  178.2840  142.8490 C   0  0  1  0  0  3  0  0  0  0  0  0
  184.5440  179.2440  140.6220 C   0  0  0  0  0  2  0  0  0  0  0  0
  184.4150  178.9460  139.1420 C   0  0  0  0  0  2  0  0  0  0  0  0
  185.6750  178.4210  138.6420 N   0  0  0  0  0  2  0  0  0  0  0  0
  185.4140  177.8500  137.3300 C   0  0  2  0  0  3  0  0  0  0  0  0
  184.6360  176.5520  137.4810 C   0  0  0  0  0  2  0  0  0  0  0  0
  183.6710  176.3760  136.3240 C   0  0  0  0  0  1  0  0  0  0  0  0
  186.7230  177.6310  136.5710 C   0  0  0  0  0  2  0  0  0  0  0  0
  187.7010  176.9490  137.4080 N   0  0  0  0  0  2  0  0  0  0  0  0
  190.4820  176.9430  138.1440 C   0  0  0  0  0  1  0  0  0  0  0  0
  189.0210  179.1740  137.9190 O   0  0  0  0  0  0  0  0  0  0  0  0
  189.5710  177.9910  135.8450 O   0  0  0  0  0  0  0  0  0  0  0  0
  189.1920  177.8210  137.2900 S   0  0  0  0  0  0  0  0  0  0  0  0
  185.7500  178.6840  143.2610 C   0  0  0  0  0  2  0  0  0  0  0  0
  186.5350  177.4630  143.7070 C   0  0  0  0  0  2  0  0  0  0  0  0
  189.0300  177.9660  146.7490 C   0  0  0  0  0  0  0  0  0  0  0  0
  189.9420  176.8660  147.1820 C   0  0  0  0  0  3  0  0  0  0  0  0
  192.1260  175.3650  147.3020 Cl  0  0  0  0  0  0  0  0  0  0  0  0
  189.3910  177.7730  144.3070 C   0  0  0  0  0  3  0  0  0  0  0  0
  187.9420  178.1060  147.7220 N   0  0  0  0  0  0  0  0  0  0  0  0
  190.8620  177.8120  144.4050 C   0  0  0  0  0  3  0  0  0  0  0  0
  191.6050  177.2990  145.3920 C   0  0  0  0  0  3  0  0  0  0  0  0
  188.5370  177.7670  145.3370 C   0  0  0  0  0  0  0  0  0  0  0  0
  187.0840  177.6770  145.0820 C   0  0  1  0  0  3  0  0  0  0  0  0
  191.1020  176.5910  146.5850 C   0  0  0  0  0  0  0  0  0  0  0  0
  186.2340  177.8110  146.0930 C   0  0  0  0  0  3  0  0  0  0  0  0
  186.7020  178.0340  147.4270 N   0  0  0  0  0  0  0  0  0  0  0  0
  2  1  1  0  0  0  0
  3  2  1  0  0  0  0
  4  5  1  0  0  0  0
  4  3  1  0  0  0  0
  5  6  1  0  0  0  0
  6 19  1  6  0  0  0
  6  1  1  0  0  0  0
  7  5  1  0  0  0  0
  8  7  1  0  0  0  0
  9  8  1  0  0  0  0
 10 13  1  1  0  0  0
 10 11  1  0  0  0  0
 10  9  1  0  0  0  0
 12 11  1  0  0  0  0
 13 14  1  0  0  0  0
 17 18  2  0  0  0  0
 18 14  1  0  0  0  0
 18 16  2  0  0  0  0
 18 15  1  0  0  0  0
 19 20  1  0  0  0  0
 21 22  1  0  0  0  0
 21 25  2  0  0  0  0
 24 26  1  0  0  0  0
 24 28  2  0  0  0  0
 26 27  2  0  0  0  0
 27 30  1  0  0  0  0
 28 21  1  0  0  0  0
 29 20  1  6  0  0  0
 29 28  1  0  0  0  0
 29 31  1  0  0  0  0
 30 22  2  0  0  0  0
 30 23  1  0  0  0  0
 31 32  2  0  0  0  0
 32 25  1  0  0  0  0
M  END
>  <MODEL>
7

>  <REMARK>
 VINA RESULT:      -7.4      1.547      2.380
  Name = 
  11 active torsions:
  status: ('A' for Active; 'I' for Inactive)
    1  A    between atoms: C_3  and  N_15
    2  A    between atoms: C_3  and  C_16
    3  A    between atoms: C_7  and  N_12
    4  A    between atoms: C_7  and  C_26
    5  A    between atoms: N_12  and  S_23
    6  A    between atoms: C_14  and  C_26
    7  A    between atoms: C_16  and  N_31
    8  A    between atoms: C_18  and  C_24
    9  A    between atoms: C_18  and  C_27
   10  A    between atoms: C_26  and  N_31
   11  A    between atoms: C_27  and  C_32
                            x       y       z     vdW  Elec       q    Type
                         _______ _______ _______ _____ _____    ______ ____

>  <TORSDO>
F 11

$$$$
=
 OpenBabel10232408133D

 32 34  0  0  1  0  0  0  0  0999 V2000
  189.3410  176.6710  145.5130 C   0  0  0  0  0  2  0  0  0  0  0  0
  190.5600  177.3390  146.1330 C   0  0  0  0  0  2  0  0  0  0  0  0
  191.6030  177.6130  145.0570 C   0  0  0  0  0  2  0  0  0  0  0  0
  190.9890  178.4550  143.9310 C   0  0  0  0  0  2  0  0  0  0  0  0
  189.7990  177.8210  143.3430 N   0  0  0  0  0  0  0  0  0  0  0  0
  188.7940  177.5620  144.3950 C   0  0  1  0  0  3  0  0  0  0  0  0
  190.1930  176.5900  142.6570 C   0  0  0  0  0  2  0  0  0  0  0  0
  190.5990  176.9080  141.2320 C   0  0  0  0  0  2  0  0  0  0  0  0
  189.4340  177.3510  140.4840 N   0  0  0  0  0  2  0  0  0  0  0  0
  189.8580  177.5580  139.1080 C   0  0  2  0  0  3  0  0  0  0  0  0
  188.6580  177.9340  138.2530 C   0  0  0  0  0  2  0  0  0  0  0  0
  188.9830  179.1340  137.3830 C   0  0  0  0  0  1  0  0  0  0  0  0
  190.5580  176.3110  138.5690 C   0  0  0  0  0  2  0  0  0  0  0  0
  191.2990  176.6150  137.3520 N   0  0  0  0  0  2  0  0  0  0  0  0
  193.9220  176.5380  136.1750 C   0  0  0  0  0  1  0  0  0  0  0  0
  192.9760  174.6280  137.7940 O   0  0  0  0  0  0  0  0  0  0  0  0
  193.5010  176.7930  138.8150 O   0  0  0  0  0  0  0  0  0  0  0  0
  192.9380  176.1170  137.5960 S   0  0  0  0  0  0  0  0  0  0  0  0
  187.5070  176.9780  143.8240 C   0  0  0  0  0  2  0  0  0  0  0  0
  186.3470  177.9310  144.0590 C   0  0  0  0  0  2  0  0  0  0  0  0
  183.8190  179.1770  141.2690 C   0  0  0  0  0  0  0  0  0  0  0  0
  182.6840  178.3160  140.8230 C   0  0  0  0  0  3  0  0  0  0  0  0
  180.2440  177.2780  140.7570 Cl  0  0  0  0  0  0  0  0  0  0  0  0
  183.5770  178.8350  143.7080 C   0  0  0  0  0  3  0  0  0  0  0  0
  184.8520  179.1950  140.2280 N   0  0  0  0  0  0  0  0  0  0  0  0
  182.1390  179.1630  143.7290 C   0  0  0  0  0  3  0  0  0  0  0  0
  181.2510  178.8940  142.7650 C   0  0  0  0  0  3  0  0  0  0  0  0
  184.3490  178.7600  142.6180 C   0  0  0  0  0  0  0  0  0  0  0  0
  185.7690  178.3710  142.7520 C   0  0  0  0  0  0  0  0  0  0  0  0
  181.5310  178.2150  141.4850 C   0  0  2  0  0  3  0  0  0  0  0  0
  186.5650  178.4320  141.6910 C   0  0  0  0  0  3  0  0  0  0  0  0
  186.0690  178.8620  140.4200 N   0  0  0  0  0  0  0  0  0  0  0  0
  1  2  1  0  0  0  0
  3  2  1  0  0  0  0
  4  3  1  0  0  0  0
  5  4  1  0  0  0  0
  5  6  1  0  0  0  0
  6 19  1  6  0  0  0
  6  1  1  0  0  0  0
  7  5  1  0  0  0  0
  8  7  1  0  0  0  0
  9  8  1  0  0  0  0
 10 11  1  6  0  0  0
 10  9  1  0  0  0  0
 12 11  1  0  0  0  0
 13 10  1  0  0  0  0
 14 18  1  0  0  0  0
 14 13  1  0  0  0  0
 15 18  1  0  0  0  0
 18 16  2  0  0  0  0
 18 17  2  0  0  0  0
 19 20  1  0  0  0  0
 21 28  1  0  0  0  0
 22 21  2  0  0  0  0
 22 30  1  0  0  0  0
 24 26  1  0  0  0  0
 25 32  2  0  0  0  0
 25 21  1  0  0  0  0
 27 26  2  0  0  0  0
 28 29  1  0  0  0  0
 28 24  2  0  0  0  0
 29 20  1  0  0  0  0
 30 23  1  6  0  0  0
 30 27  1  0  0  0  0
 31 29  2  0  0  0  0
 32 31  1  0  0  0  0
M  END
>  <MODEL>
8

>  <REMARK>
 VINA RESULT:      -7.4      3.664      6.967
  Name = 
  11 active torsions:
  status: ('A' for Active; 'I' for Inactive)
    1  A    between atoms: C_3  and  N_15
    2  A    between atoms: C_3  and  C_16
    3  A    between atoms: C_7  and  N_12
    4  A    between atoms: C_7  and  C_26
    5  A    between atoms: N_12  and  S_23
    6  A    between atoms: C_14  and  C_26
    7  A    between atoms: C_16  and  N_31
    8  A    between atoms: C_18  and  C_24
    9  A    between atoms: C_18  and  C_27
   10  A    between atoms: C_26  and  N_31
   11  A    between atoms: C_27  and  C_32
                            x       y       z     vdW  Elec       q    Type
                         _______ _______ _______ _____ _____    ______ ____

>  <TORSDO>
F 11

$$$$
=
 OpenBabel10232408133D

 32 34  0  0  1  0  0  0  0  0999 V2000
  188.8330  176.8330  145.9300 C   0  0  0  0  0  2  0  0  0  0  0  0
  190.0540  177.5050  146.5420 C   0  0  0  0  0  2  0  0  0  0  0  0
  191.0950  177.7700  145.4620 C   0  0  0  0  0  2  0  0  0  0  0  0
  190.4800  178.6040  144.3310 C   0  0  0  0  0  2  0  0  0  0  0  0
  189.2880  177.9660  143.7510 N   0  0  0  0  0  0  0  0  0  0  0  0
  188.2850  177.7150  144.8060 C   0  0  1  0  0  3  0  0  0  0  0  0
  189.6810  176.7290  143.0730 C   0  0  0  0  0  2  0  0  0  0  0  0
  190.2820  177.0560  141.7220 C   0  0  0  0  0  2  0  0  0  0  0  0
  189.2230  177.1550  140.7310 N   0  0  0  0  0  2  0  0  0  0  0  0
  189.8400  177.0010  139.4230 C   0  0  2  0  0  3  0  0  0  0  0  0
  191.3530  176.9630  139.5710 C   0  0  0  0  0  2  0  0  0  0  0  0
  192.0010  176.5400  138.2660 C   0  0  0  0  0  1  0  0  0  0  0  0
  189.4000  178.1270  138.4870 C   0  0  0  0  0  2  0  0  0  0  0  0
  187.9720  178.3850  138.6190 N   0  0  0  0  0  2  0  0  0  0  0  0
  185.4580  177.5500  137.4990 C   0  0  0  0  0  1  0  0  0  0  0  0
  187.8090  176.4670  136.8170 O   0  0  0  0  0  0  0  0  0  0  0  0
  187.3800  178.7590  136.0640 O   0  0  0  0  0  0  0  0  0  0  0  0
  187.1950  177.7850  137.1940 S   0  0  0  0  0  0  0  0  0  0  0  0
  186.9970  177.1280  144.2420 C   0  0  0  0  0  2  0  0  0  0  0  0
  185.8540  178.1160  144.4020 C   0  0  0  0  0  2  0  0  0  0  0  0
  183.4660  179.2130  141.4310 C   0  0  2  0  0  3  0  0  0  0  0  0
  182.4610  178.2660  140.8660 C   0  0  0  0  0  3  0  0  0  0  0  0
  180.1450  177.0090  140.5610 Cl  0  0  0  0  0  0  0  0  0  0  0  0
  183.0500  178.7710  143.8310 C   0  0  0  0  0  3  0  0  0  0  0  0
  184.5780  179.3610  140.4860 N   0  0  0  0  0  0  0  0  0  0  0  0
  181.5920  178.9640  143.7330 C   0  0  0  0  0  3  0  0  0  0  0  0
  180.8180  178.6450  142.6880 C   0  0  0  0  0  3  0  0  0  0  0  0
  183.9160  178.8030  142.8110 C   0  0  0  0  0  0  0  0  0  0  0  0
  185.3500  178.5430  143.0600 C   0  0  0  0  0  0  0  0  0  0  0  0
  181.2700  178.0360  141.4220 C   0  0  0  0  0  0  0  0  0  0  0  0
  186.2240  178.7120  142.0750 C   0  0  0  0  0  3  0  0  0  0  0  0
  185.8000  179.1350  140.7760 N   0  0  0  0  0  0  0  0  0  0  0  0
  1  2  1  0  0  0  0
  3  2  1  0  0  0  0
  4  3  1  0  0  0  0
  5  4  1  0  0  0  0
  5  6  1  0  0  0  0
  6 19  1  6  0  0  0
  6  1  1  0  0  0  0
  7  5  1  0  0  0  0
  8  7  1  0  0  0  0
  9  8  1  0  0  0  0
 10 13  1  6  0  0  0
 10 11  1  0  0  0  0
 10  9  1  0  0  0  0
 12 11  1  0  0  0  0
 13 14  1  0  0  0  0
 16 18  2  0  0  0  0
 17 18  2  0  0  0  0
 18 15  1  0  0  0  0
 18 14  1  0  0  0  0
 19 20  1  0  0  0  0
 21 22  1  6  0  0  0
 21 28  1  0  0  0  0
 22 30  2  0  0  0  0
 23 30  1  0  0  0  0
 25 32  2  0  0  0  0
 25 21  1  0  0  0  0
 26 24  1  0  0  0  0
 27 26  2  0  0  0  0
 28 29  1  0  0  0  0
 28 24  2  0  0  0  0
 29 20  1  0  0  0  0
 30 27  1  0  0  0  0
 31 29  2  0  0  0  0
 32 31  1  0  0  0  0
M  END
>  <MODEL>
9

>  <REMARK>
 VINA RESULT:      -7.3      3.063      6.541
  Name = 
  11 active torsions:
  status: ('A' for Active; 'I' for Inactive)
    1  A    between atoms: C_3  and  N_15
    2  A    between atoms: C_3  and  C_16
    3  A    between atoms: C_7  and  N_12
    4  A    between atoms: C_7  and  C_26
    5  A    between atoms: N_12  and  S_23
    6  A    between atoms: C_14  and  C_26
    7  A    between atoms: C_16  and  N_31
    8  A    between atoms: C_18  and  C_24
    9  A    between atoms: C_18  and  C_27
   10  A    between atoms: C_26  and  N_31
   11  A    between atoms: C_27  and  C_32
                            x       y       z     vdW  Elec       q    Type
                         _______ _______ _______ _____ _____    ______ ____

>  <TORSDO>
F 11

$$$$
