=
 OpenBabel10232412323D

 29 32  0  0  1  0  0  0  0  0999 V2000
  185.8170  180.0780  146.8340 O   0  0  0  0  0  0  0  0  0  0  0  0
  185.3420  178.8830  146.0550 S   0  0  0  0  0  0  0  0  0  0  0  0
  184.4110  178.0610  146.9000 O   0  0  0  0  0  0  0  0  0  0  0  0
  186.5350  177.0970  144.3430 C   0  0  0  0  0  2  0  0  0  0  0  0
  185.1270  180.5800  144.1010 F   0  0  0  0  0  0  0  0  0  0  0  0
  185.9360  177.9070  143.1980 C   0  0  0  0  0  2  0  0  0  0  0  0
  184.5010  179.4450  144.5890 C   0  0  1  0  0  3  0  0  0  0  0  0
  184.5100  178.3340  143.5350 C   0  0  1  0  0  3  0  0  0  0  0  0
  186.6900  177.9120  145.5460 N   0  0  2  0  0  0  0  0  0  0  0  0
  191.6960  176.6680  145.9980 N   0  0  0  0  0  0  0  0  0  0  0  0
  187.8710  177.9040  147.7940 C   0  0  0  0  0  3  0  0  0  0  0  0
  189.8460  177.2990  147.2220 C   0  0  0  0  0  0  0  0  0  0  0  0
  189.6440  177.0420  144.8370 N   0  0  0  0  0  0  0  0  0  0  0  0
  189.0910  177.3350  146.0340 C   0  0  0  0  0  0  0  0  0  0  0  0
  190.9690  176.7010  144.8280 C   0  0  0  0  0  0  0  0  0  0  0  0
  191.1510  176.9630  147.1870 N   0  0  0  0  0  0  0  0  0  0  0  0
  191.6320  176.3660  143.5420 C   0  0  0  0  0  1  0  0  0  0  0  0
  189.1140  177.6430  148.2940 N   0  0  0  0  0  0  0  0  0  0  0  0
  187.8280  177.7230  146.4030 C   0  0  2  0  0  3  0  0  0  0  0  0
  183.7980  178.7780  142.2680 C   0  0  0  0  0  2  0  0  0  0  0  0
  184.8020  179.0100  141.1510 C   0  0  0  0  0  2  0  0  0  0  0  0
  183.3910  177.4980  140.0620 C   0  0  0  0  0  2  0  0  0  0  0  0
  185.2820  178.4130  138.9300 C   0  0  0  0  0  2  0  0  0  0  0  0
  182.6020  177.1940  138.7800 C   0  0  1  0  0  3  0  0  0  0  0  0
  184.8120  177.6940  137.6510 C   0  0  0  0  0  2  0  0  0  0  0  0
  183.2910  177.6920  137.4980 C   0  0  0  0  0  2  0  0  0  0  0  0
  184.1910  178.7040  139.8690 N   0  0  0  0  0  0  0  0  0  0  0  0
  181.0140  175.7130  139.5210 C   0  0  0  0  0  1  0  0  0  0  0  0
  182.1450  175.8600  138.7000 O   0  0  0  0  0  0  0  0  0  0  0  0
  2  1  2  0  0  0  0
  2  3  2  0  0  0  0
  6  8  1  0  0  0  0
  6  4  1  0  0  0  0
  7  5  1  6  0  0  0
  7  2  1  0  0  0  0
  8 20  1  6  0  0  0
  8  7  1  0  0  0  0
  9  4  1  1  0  0  0
  9  2  1  0  0  0  0
  9 19  1  0  0  0  0
 10 16  1  0  0  0  0
 11 18  2  0  0  0  0
 12 18  1  0  0  0  0
 13 14  2  0  0  0  0
 14 19  1  0  0  0  0
 14 12  1  0  0  0  0
 15 13  1  0  0  0  0
 15 10  2  0  0  0  0
 16 12  2  0  0  0  0
 17 15  1  0  0  0  0
 19 11  1  6  0  0  0
 21 20  1  0  0  0  0
 23 27  1  0  0  0  0
 24 29  1  6  0  0  0
 24 22  1  0  0  0  0
 25 23  1  0  0  0  0
 26 25  1  0  0  0  0
 26 24  1  0  0  0  0
 27 22  1  0  0  0  0
 27 21  1  0  0  0  0
 29 28  1  0  0  0  0
M  END
>  <MODEL>
1

>  <REMARK>
 VINA RESULT:      -8.4      0.000      0.000
  Name = 
  5 active torsions:
  status: ('A' for Active; 'I' for Inactive)
    1  A    between atoms: C_8  and  C_14
    2  A    between atoms: C_8  and  N_26
    3  A    between atoms: C_9  and  O_11
    4  A    between atoms: C_14  and  C_24
    5  A    between atoms: N_27  and  C_29
                            x       y       z     vdW  Elec       q    Type
                         _______ _______ _______ _____ _____    ______ ____

>  <TORSDO>
F 5

$$$$
=
 OpenBabel10232412323D

 29 32  0  0  1  0  0  0  0  0999 V2000
  190.7350  176.7680  145.4540 O   0  0  0  0  0  0  0  0  0  0  0  0
  190.3650  177.5890  144.2500 S   0  0  0  0  0  0  0  0  0  0  0  0
  190.9920  178.9500  144.3510 O   0  0  0  0  0  0  0  0  0  0  0  0
  188.0630  177.9570  142.7980 C   0  0  0  0  0  2  0  0  0  0  0  0
  190.8130  175.3890  142.9460 F   0  0  0  0  0  0  0  0  0  0  0  0
  188.6370  176.9770  141.7790 C   0  0  0  0  0  2  0  0  0  0  0  0
  190.9400  176.7590  142.7830 C   0  0  1  0  0  3  0  0  0  0  0  0
  190.1280  177.2320  141.5750 C   0  0  1  0  0  3  0  0  0  0  0  0
  188.6390  177.7420  144.1240 N   0  0  2  0  0  0  0  0  0  0  0  0
  184.0030  178.8570  146.1400 N   0  0  0  0  0  0  0  0  0  0  0  0
  188.2250  177.7100  146.6290 C   0  0  0  0  0  3  0  0  0  0  0  0
  186.1570  178.2670  146.7140 C   0  0  0  0  0  0  0  0  0  0  0  0
  185.5940  178.5400  144.3900 N   0  0  0  0  0  0  0  0  0  0  0  0
  186.5010  178.2560  145.3480 C   0  0  0  0  0  0  0  0  0  0  0  0
  184.3250  178.8470  144.8010 C   0  0  0  0  0  0  0  0  0  0  0  0
  184.9000  178.5700  147.0940 N   0  0  0  0  0  0  0  0  0  0  0  0
  183.2840  179.1720  143.7930 C   0  0  0  0  0  1  0  0  0  0  0  0
  187.1970  177.9370  147.4970 N   0  0  0  0  0  0  0  0  0  0  0  0
  187.8240  177.8990  145.2970 C   0  0  2  0  0  3  0  0  0  0  0  0
  190.5930  176.5440  140.3020 C   0  0  0  0  0  2  0  0  0  0  0  0
  190.9750  177.5740  139.2530 C   0  0  0  0  0  2  0  0  0  0  0  0
  188.9510  178.2870  138.3240 C   0  0  0  0  0  2  0  0  0  0  0  0
  189.6810  176.0330  138.0400 C   0  0  0  0  0  2  0  0  0  0  0  0
  188.0620  178.2980  137.0710 C   0  0  1  0  0  3  0  0  0  0  0  0
  188.4690  175.7990  137.1190 C   0  0  0  0  0  2  0  0  0  0  0  0
  188.1540  177.0090  136.2380 C   0  0  0  0  0  2  0  0  0  0  0  0
  190.1140  177.4350  138.0910 N   0  0  0  0  0  0  0  0  0  0  0  0
  186.3620  178.3120  138.6110 C   0  0  0  0  0  1  0  0  0  0  0  0
  186.7390  178.7230  137.3220 O   0  0  0  0  0  0  0  0  0  0  0  0
  2  3  2  0  0  0  0
  2  1  2  0  0  0  0
  6  4  1  0  0  0  0
  7  5  1  1  0  0  0
  7  2  1  0  0  0  0
  8 20  1  6  0  0  0
  8  6  1  0  0  0  0
  8  7  1  0  0  0  0
  9  4  1  6  0  0  0
  9  2  1  0  0  0  0
  9 19  1  0  0  0  0
 10 16  1  0  0  0  0
 11 18  2  0  0  0  0
 12 16  2  0  0  0  0
 12 18  1  0  0  0  0
 13 15  1  0  0  0  0
 13 14  2  0  0  0  0
 14 12  1  0  0  0  0
 15 10  2  0  0  0  0
 17 15  1  0  0  0  0
 19 14  1  0  0  0  0
 19 11  1  6  0  0  0
 21 20  1  0  0  0  0
 23 27  1  0  0  0  0
 24 29  1  1  0  0  0
 24 22  1  0  0  0  0
 25 23  1  0  0  0  0
 26 24  1  0  0  0  0
 26 25  1  0  0  0  0
 27 22  1  0  0  0  0
 27 21  1  0  0  0  0
 29 28  1  0  0  0  0
M  END
>  <MODEL>
2

>  <REMARK>
 VINA RESULT:      -8.3      3.733      5.610
  Name = 
  5 active torsions:
  status: ('A' for Active; 'I' for Inactive)
    1  A    between atoms: C_8  and  C_14
    2  A    between atoms: C_8  and  N_26
    3  A    between atoms: C_9  and  O_11
    4  A    between atoms: C_14  and  C_24
    5  A    between atoms: N_27  and  C_29
                            x       y       z     vdW  Elec       q    Type
                         _______ _______ _______ _____ _____    ______ ____

>  <TORSDO>
F 5

$$$$
=
 OpenBabel10232412323D

 29 32  0  0  1  0  0  0  0  0999 V2000
  185.8190  180.0400  146.8510 O   0  0  0  0  0  0  0  0  0  0  0  0
  185.3300  178.8750  146.0360 S   0  0  0  0  0  0  0  0  0  0  0  0
  184.3950  178.0350  146.8590 O   0  0  0  0  0  0  0  0  0  0  0  0
  186.4990  177.1330  144.2640 C   0  0  0  0  0  2  0  0  0  0  0  0
  185.1220  180.6350  144.1390 F   0  0  0  0  0  0  0  0  0  0  0  0
  185.9030  177.9840  143.1480 C   0  0  0  0  0  2  0  0  0  0  0  0
  184.4880  179.4900  144.5930 C   0  0  1  0  0  3  0  0  0  0  0  0
  184.4830  178.4130  143.5040 C   0  0  1  0  0  3  0  0  0  0  0  0
  186.6670  177.9080  145.4920 N   0  0  2  0  0  0  0  0  0  0  0  0
  191.6850  176.6920  145.8750 N   0  0  0  0  0  0  0  0  0  0  0  0
  187.8470  177.7820  147.7360 C   0  0  0  0  0  3  0  0  0  0  0  0
  189.8280  177.2320  147.1320 C   0  0  0  0  0  0  0  0  0  0  0  0
  189.6300  177.1120  144.7360 N   0  0  0  0  0  0  0  0  0  0  0  0
  189.0740  177.3290  145.9470 C   0  0  0  0  0  0  0  0  0  0  0  0
  190.9580  176.7860  144.7090 C   0  0  0  0  0  0  0  0  0  0  0  0
  191.1370  176.9130  147.0780 N   0  0  0  0  0  0  0  0  0  0  0  0
  191.6250  176.5320  143.4050 C   0  0  0  0  0  1  0  0  0  0  0  0
  189.0920  177.5060  148.2210 N   0  0  0  0  0  0  0  0  0  0  0  0
  187.8070  177.6820  146.3370 C   0  0  2  0  0  3  0  0  0  0  0  0
  183.7700  178.9040  142.2550 C   0  0  0  0  0  2  0  0  0  0  0  0
  184.6830  178.7890  141.0460 C   0  0  0  0  0  2  0  0  0  0  0  0
  183.1510  179.5390  139.4470 C   0  0  0  0  0  2  0  0  0  0  0  0
  182.9820  177.3310  140.3380 C   0  0  0  0  0  2  0  0  0  0  0  0
  182.4180  179.2110  138.1370 C   0  0  1  0  0  3  0  0  0  0  0  0
  181.8350  177.0630  139.3450 C   0  0  0  0  0  2  0  0  0  0  0  0
  182.0660  177.7220  137.9840 C   0  0  0  0  0  2  0  0  0  0  0  0
  183.9130  178.3730  139.8860 N   0  0  0  0  0  0  0  0  0  0  0  0
  181.5900  181.3240  138.4710 C   0  0  0  0  0  1  0  0  0  0  0  0
  181.3440  180.0840  137.8570 O   0  0  0  0  0  0  0  0  0  0  0  0
  2  1  2  0  0  0  0
  2  3  2  0  0  0  0
  6  8  1  0  0  0  0
  6  4  1  0  0  0  0
  7  5  1  6  0  0  0
  7  2  1  0  0  0  0
  8 20  1  6  0  0  0
  8  7  1  0  0  0  0
  9  4  1  1  0  0  0
  9  2  1  0  0  0  0
  9 19  1  0  0  0  0
 10 16  1  0  0  0  0
 11 18  2  0  0  0  0
 12 18  1  0  0  0  0
 13 14  2  0  0  0  0
 14 19  1  0  0  0  0
 14 12  1  0  0  0  0
 15 13  1  0  0  0  0
 15 10  2  0  0  0  0
 16 12  2  0  0  0  0
 17 15  1  0  0  0  0
 19 11  1  6  0  0  0
 21 20  1  0  0  0  0
 22 27  1  0  0  0  0
 24 29  1  1  0  0  0
 24 22  1  0  0  0  0
 25 23  1  0  0  0  0
 26 24  1  0  0  0  0
 26 25  1  0  0  0  0
 27 23  1  0  0  0  0
 27 21  1  0  0  0  0
 29 28  1  0  0  0  0
M  END
>  <MODEL>
3

>  <REMARK>
 VINA RESULT:      -8.3      1.276      1.702
  Name = 
  5 active torsions:
  status: ('A' for Active; 'I' for Inactive)
    1  A    between atoms: C_8  and  C_14
    2  A    between atoms: C_8  and  N_26
    3  A    between atoms: C_9  and  O_11
    4  A    between atoms: C_14  and  C_24
    5  A    between atoms: N_27  and  C_29
                            x       y       z     vdW  Elec       q    Type
                         _______ _______ _______ _____ _____    ______ ____

>  <TORSDO>
F 5

$$$$
=
 OpenBabel10232412323D

 29 32  0  0  1  0  0  0  0  0999 V2000
  190.8530  176.9700  145.2840 O   0  0  0  0  0  0  0  0  0  0  0  0
  190.3860  177.7470  144.0850 S   0  0  0  0  0  0  0  0  0  0  0  0
  190.9240  179.1480  144.1450 O   0  0  0  0  0  0  0  0  0  0  0  0
  188.0140  177.9390  142.7140 C   0  0  0  0  0  2  0  0  0  0  0  0
  190.9330  175.5620  142.7930 F   0  0  0  0  0  0  0  0  0  0  0  0
  188.6150  176.9850  141.6870 C   0  0  0  0  0  2  0  0  0  0  0  0
  190.9620  176.9340  142.6090 C   0  0  1  0  0  3  0  0  0  0  0  0
  190.0770  177.3340  141.4250 C   0  0  1  0  0  3  0  0  0  0  0  0
  188.6510  177.7840  144.0210 N   0  0  2  0  0  0  0  0  0  0  0  0
  184.0690  178.8130  146.2020 N   0  0  0  0  0  0  0  0  0  0  0  0
  188.3110  177.6830  146.5350 C   0  0  0  0  0  3  0  0  0  0  0  0
  186.2440  178.2230  146.6950 C   0  0  0  0  0  0  0  0  0  0  0  0
  185.6090  178.5530  144.3970 N   0  0  0  0  0  0  0  0  0  0  0  0
  186.5460  178.2500  145.3210 C   0  0  0  0  0  0  0  0  0  0  0  0
  184.3520  178.8410  144.8540 C   0  0  0  0  0  0  0  0  0  0  0  0
  184.9960  178.5070  147.1210 N   0  0  0  0  0  0  0  0  0  0  0  0
  183.2790  179.1840  143.8860 C   0  0  0  0  0  1  0  0  0  0  0  0
  187.3080  177.8800  147.4390 N   0  0  0  0  0  0  0  0  0  0  0  0
  187.8700  177.9040  145.2210 C   0  0  2  0  0  3  0  0  0  0  0  0
  190.5410  176.6590  140.1450 C   0  0  0  0  0  2  0  0  0  0  0  0
  190.4410  177.6220  138.9730 C   0  0  0  0  0  2  0  0  0  0  0  0
  188.8210  176.4080  137.8040 C   0  0  0  0  0  2  0  0  0  0  0  0
  188.9950  178.7710  137.5210 C   0  0  0  0  0  2  0  0  0  0  0  0
  187.3440  176.3320  137.3890 C   0  0  1  0  0  3  0  0  0  0  0  0
  187.7390  178.7150  136.6310 C   0  0  0  0  0  2  0  0  0  0  0  0
  186.7040  177.7060  137.1310 C   0  0  0  0  0  2  0  0  0  0  0  0
  189.0720  177.6710  138.4920 N   0  0  0  0  0  0  0  0  0  0  0  0
  188.2630  175.1950  135.6210 C   0  0  0  0  0  1  0  0  0  0  0  0
  187.0910  175.3840  136.3730 O   0  0  0  0  0  0  0  0  0  0  0  0
  2  3  2  0  0  0  0
  2  1  2  0  0  0  0
  6  4  1  0  0  0  0
  7  5  1  1  0  0  0
  7  2  1  0  0  0  0
  8 20  1  6  0  0  0
  8  6  1  0  0  0  0
  8  7  1  0  0  0  0
  9  4  1  6  0  0  0
  9  2  1  0  0  0  0
  9 19  1  0  0  0  0
 10 16  1  0  0  0  0
 11 18  2  0  0  0  0
 12 16  2  0  0  0  0
 12 18  1  0  0  0  0
 13 15  1  0  0  0  0
 13 14  2  0  0  0  0
 14 12  1  0  0  0  0
 15 10  2  0  0  0  0
 17 15  1  0  0  0  0
 19 14  1  0  0  0  0
 19 11  1  6  0  0  0
 21 20  1  0  0  0  0
 22 27  1  0  0  0  0
 23 27  1  0  0  0  0
 24 29  1  6  0  0  0
 24 22  1  0  0  0  0
 25 26  1  0  0  0  0
 25 23  1  0  0  0  0
 26 24  1  0  0  0  0
 27 21  1  0  0  0  0
 28 29  1  0  0  0  0
M  END
>  <MODEL>
4

>  <REMARK>
 VINA RESULT:      -8.2      3.678      5.523
  Name = 
  5 active torsions:
  status: ('A' for Active; 'I' for Inactive)
    1  A    between atoms: C_8  and  C_14
    2  A    between atoms: C_8  and  N_26
    3  A    between atoms: C_9  and  O_11
    4  A    between atoms: C_14  and  C_24
    5  A    between atoms: N_27  and  C_29
                            x       y       z     vdW  Elec       q    Type
                         _______ _______ _______ _____ _____    ______ ____

>  <TORSDO>
F 5

$$$$
=
 OpenBabel10232412323D

 29 32  0  0  1  0  0  0  0  0999 V2000
  191.4200  177.6990  145.3680 O   0  0  0  0  0  0  0  0  0  0  0  0
  190.7740  178.2420  144.1240 S   0  0  0  0  0  0  0  0  0  0  0  0
  190.9220  179.7370  144.0850 O   0  0  0  0  0  0  0  0  0  0  0  0
  188.4490  177.7080  142.7640 C   0  0  0  0  0  2  0  0  0  0  0  0
  191.8920  176.1990  142.9750 F   0  0  0  0  0  0  0  0  0  0  0  0
  189.2900  176.8800  141.7980 C   0  0  0  0  0  2  0  0  0  0  0  0
  191.5580  177.5150  142.6990 C   0  0  1  0  0  3  0  0  0  0  0  0
  190.6100  177.5860  141.5000 C   0  0  1  0  0  3  0  0  0  0  0  0
  189.0920  177.8130  144.0730 N   0  0  2  0  0  0  0  0  0  0  0  0
  184.4980  178.6550  146.3080 N   0  0  0  0  0  0  0  0  0  0  0  0
  188.7150  177.4160  146.5520 C   0  0  0  0  0  3  0  0  0  0  0  0
  186.6550  177.9710  146.7520 C   0  0  0  0  0  0  0  0  0  0  0  0
  186.0590  178.5870  144.5030 N   0  0  0  0  0  0  0  0  0  0  0  0
  186.9780  178.1580  145.3940 C   0  0  0  0  0  0  0  0  0  0  0  0
  184.8000  178.8410  144.9770 C   0  0  0  0  0  0  0  0  0  0  0  0
  185.4070  178.2240  147.1940 N   0  0  0  0  0  0  0  0  0  0  0  0
  183.7470  179.3190  144.0440 C   0  0  0  0  0  1  0  0  0  0  0  0
  187.7030  177.5200  147.4610 N   0  0  0  0  0  0  0  0  0  0  0  0
  188.2960  177.8020  145.2690 C   0  0  2  0  0  3  0  0  0  0  0  0
  191.2470  176.9740  140.2630 C   0  0  0  0  0  2  0  0  0  0  0  0
  190.1800  176.6070  139.2450 C   0  0  0  0  0  2  0  0  0  0  0  0
  191.9880  175.7090  138.0660 C   0  0  0  0  0  2  0  0  0  0  0  0
  189.7570  175.3860  137.2830 C   0  0  0  0  0  2  0  0  0  0  0  0
  192.5570  174.4660  137.3670 C   0  0  1  0  0  3  0  0  0  0  0  0
  190.3210  174.4740  136.1770 C   0  0  0  0  0  2  0  0  0  0  0  0
  191.4890  173.6130  136.6600 C   0  0  0  0  0  2  0  0  0  0  0  0
  190.6110  175.4520  138.4770 N   0  0  0  0  0  0  0  0  0  0  0  0
  193.7460  176.1130  136.3020 C   0  0  0  0  0  1  0  0  0  0  0  0
  193.6920  174.7350  136.5700 O   0  0  0  0  0  0  0  0  0  0  0  0
  2  1  2  0  0  0  0
  3  2  2  0  0  0  0
  6  4  1  0  0  0  0
  7  5  1  1  0  0  0
  7  2  1  0  0  0  0
  8 20  1  6  0  0  0
  8  6  1  0  0  0  0
  8  7  1  0  0  0  0
  9  4  1  6  0  0  0
  9  2  1  0  0  0  0
  9 19  1  0  0  0  0
 10 16  1  0  0  0  0
 11 18  2  0  0  0  0
 12 16  2  0  0  0  0
 12 18  1  0  0  0  0
 13 15  1  0  0  0  0
 13 14  2  0  0  0  0
 14 12  1  0  0  0  0
 15 10  2  0  0  0  0
 17 15  1  0  0  0  0
 19 14  1  0  0  0  0
 19 11  1  6  0  0  0
 21 20  1  0  0  0  0
 22 27  1  0  0  0  0
 23 27  1  0  0  0  0
 24 29  1  6  0  0  0
 24 22  1  0  0  0  0
 25 26  1  0  0  0  0
 25 23  1  0  0  0  0
 26 24  1  0  0  0  0
 27 21  1  0  0  0  0
 28 29  1  0  0  0  0
M  END
>  <MODEL>
5

>  <REMARK>
 VINA RESULT:      -8.2      4.888      6.894
  Name = 
  5 active torsions:
  status: ('A' for Active; 'I' for Inactive)
    1  A    between atoms: C_8  and  C_14
    2  A    between atoms: C_8  and  N_26
    3  A    between atoms: C_9  and  O_11
    4  A    between atoms: C_14  and  C_24
    5  A    between atoms: N_27  and  C_29
                            x       y       z     vdW  Elec       q    Type
                         _______ _______ _______ _____ _____    ______ ____

>  <TORSDO>
F 5

$$$$
=
 OpenBabel10232412323D

 29 32  0  0  1  0  0  0  0  0999 V2000
  188.1970  175.7660  143.2940 O   0  0  0  0  0  0  0  0  0  0  0  0
  189.6660  175.9060  143.0090 S   0  0  0  0  0  0  0  0  0  0  0  0
  190.3480  174.5790  143.1870 O   0  0  0  0  0  0  0  0  0  0  0  0
  191.5770  177.7870  143.6000 C   0  0  0  0  0  2  0  0  0  0  0  0
  188.8660  177.3710  141.0200 F   0  0  0  0  0  0  0  0  0  0  0  0
  191.3930  178.3130  142.1800 C   0  0  0  0  0  2  0  0  0  0  0  0
  189.8790  176.4820  141.3370 C   0  0  1  0  0  3  0  0  0  0  0  0
  191.2470  177.1550  141.1970 C   0  0  1  0  0  3  0  0  0  0  0  0
  190.3830  177.0840  144.0650 N   0  0  2  0  0  0  0  0  0  0  0  0
  186.6570  178.2730  147.4570 N   0  0  0  0  0  0  0  0  0  0  0  0
  190.7400  176.8880  146.5710 C   0  0  0  0  0  3  0  0  0  0  0  0
  188.8380  177.5380  147.3130 C   0  0  0  0  0  0  0  0  0  0  0  0
  187.6210  178.0090  145.2900 N   0  0  0  0  0  0  0  0  0  0  0  0
  188.7530  177.6110  145.9090 C   0  0  0  0  0  0  0  0  0  0  0  0
  186.5600  178.3470  146.0860 C   0  0  0  0  0  0  0  0  0  0  0  0
  187.7770  177.8730  148.0750 N   0  0  0  0  0  0  0  0  0  0  0  0
  185.2880  178.7960  145.4620 C   0  0  0  0  0  1  0  0  0  0  0  0
  190.0390  177.1000  147.7220 N   0  0  0  0  0  0  0  0  0  0  0  0
  189.9710  177.1930  145.4370 C   0  0  2  0  0  3  0  0  0  0  0  0
  191.4640  177.6590  139.7800 C   0  0  0  0  0  2  0  0  0  0  0  0
  191.3140  176.5200  138.7850 C   0  0  0  0  0  2  0  0  0  0  0  0
  189.5610  177.8330  137.9660 C   0  0  0  0  0  2  0  0  0  0  0  0
  190.2110  175.8410  136.8250 C   0  0  0  0  0  2  0  0  0  0  0  0
  188.9460  178.5020  136.7280 C   0  0  1  0  0  3  0  0  0  0  0  0
  189.1990  176.1930  135.7190 C   0  0  0  0  0  2  0  0  0  0  0  0
  189.1350  177.6940  135.4330 C   0  0  0  0  0  2  0  0  0  0  0  0
  190.7000  177.0120  137.5640 N   0  0  0  0  0  0  0  0  0  0  0  0
  186.9990  178.1380  137.8850 C   0  0  0  0  0  1  0  0  0  0  0  0
  187.6250  178.9570  136.9300 O   0  0  0  0  0  0  0  0  0  0  0  0
  2  3  2  0  0  0  0
  2  1  2  0  0  0  0
  2  9  1  0  0  0  0
  6  4  1  0  0  0  0
  7  5  1  1  0  0  0
  7  2  1  0  0  0  0
  8 20  1  6  0  0  0
  8  7  1  0  0  0  0
  8  6  1  0  0  0  0
  9  4  1  1  0  0  0
  9 19  1  0  0  0  0
 10 16  1  0  0  0  0
 11 18  2  0  0  0  0
 12 18  1  0  0  0  0
 12 16  2  0  0  0  0
 13 14  2  0  0  0  0
 13 15  1  0  0  0  0
 14 12  1  0  0  0  0
 15 10  2  0  0  0  0
 17 15  1  0  0  0  0
 19 14  1  0  0  0  0
 19 11  1  6  0  0  0
 21 20  1  0  0  0  0
 23 27  1  0  0  0  0
 24 29  1  1  0  0  0
 24 22  1  0  0  0  0
 25 23  1  0  0  0  0
 26 25  1  0  0  0  0
 26 24  1  0  0  0  0
 27 22  1  0  0  0  0
 27 21  1  0  0  0  0
 29 28  1  0  0  0  0
M  END
>  <MODEL>
6

>  <REMARK>
 VINA RESULT:      -7.9      3.979      5.663
  Name = 
  5 active torsions:
  status: ('A' for Active; 'I' for Inactive)
    1  A    between atoms: C_8  and  C_14
    2  A    between atoms: C_8  and  N_26
    3  A    between atoms: C_9  and  O_11
    4  A    between atoms: C_14  and  C_24
    5  A    between atoms: N_27  and  C_29
                            x       y       z     vdW  Elec       q    Type
                         _______ _______ _______ _____ _____    ______ ____

>  <TORSDO>
F 5

$$$$
=
 OpenBabel10232412323D

 29 32  0  0  1  0  0  0  0  0999 V2000
  191.7270  177.3460  142.5070 O   0  0  0  0  0  0  0  0  0  0  0  0
  190.4070  176.8800  141.9580 S   0  0  0  0  0  0  0  0  0  0  0  0
  190.1670  175.4510  142.3540 O   0  0  0  0  0  0  0  0  0  0  0  0
  189.0890  177.2020  139.5710 C   0  0  0  0  0  2  0  0  0  0  0  0
  189.5720  179.2200  142.7130 F   0  0  0  0  0  0  0  0  0  0  0  0
  188.2620  178.2840  140.2580 C   0  0  0  0  0  2  0  0  0  0  0  0
  189.1120  177.9180  142.6030 C   0  0  1  0  0  3  0  0  0  0  0  0
  187.8950  177.8560  141.6760 C   0  0  1  0  0  3  0  0  0  0  0  0
  190.3820  177.0250  140.2270 N   0  0  2  0  0  0  0  0  0  0  0  0
  192.5630  174.2770  136.4200 N   0  0  0  0  0  0  0  0  0  0  0  0
  192.8090  177.3540  139.5580 C   0  0  0  0  0  3  0  0  0  0  0  0
  193.0030  175.9150  137.9820 C   0  0  0  0  0  0  0  0  0  0  0  0
  190.7990  174.9530  137.8780 N   0  0  0  0  0  0  0  0  0  0  0  0
  191.6750  175.8160  138.4370 C   0  0  0  0  0  0  0  0  0  0  0  0
  191.2600  174.1720  136.8540 C   0  0  0  0  0  0  0  0  0  0  0  0
  193.4330  175.1370  136.9690 N   0  0  0  0  0  0  0  0  0  0  0  0
  190.3450  173.2010  136.2020 C   0  0  0  0  0  1  0  0  0  0  0  0
  193.6980  176.8450  138.6570 N   0  0  0  0  0  0  0  0  0  0  0  0
  191.5530  176.7380  139.4450 C   0  0  2  0  0  3  0  0  0  0  0  0
  186.7670  178.7310  142.1970 C   0  0  0  0  0  2  0  0  0  0  0  0
  185.8720  177.9370  143.1340 C   0  0  0  0  0  2  0  0  0  0  0  0
  186.9250  177.5490  145.1850 C   0  0  0  0  0  2  0  0  0  0  0  0
  184.6810  178.3550  145.1150 C   0  0  0  0  0  2  0  0  0  0  0  0
  187.2240  178.1040  146.5850 C   0  0  1  0  0  3  0  0  0  0  0  0
  184.7200  178.4760  146.6500 C   0  0  0  0  0  2  0  0  0  0  0  0
  186.0780  178.9470  147.1720 C   0  0  0  0  0  2  0  0  0  0  0  0
  186.0060  178.4440  144.4890 N   0  0  0  0  0  0  0  0  0  0  0  0
  188.1070  177.7730  148.6760 C   0  0  0  0  0  1  0  0  0  0  0  0
  187.7380  177.1390  147.4780 O   0  0  0  0  0  0  0  0  0  0  0  0
  2  3  2  0  0  0  0
  2  1  2  0  0  0  0
  2  7  1  0  0  0  0
  4  6  1  0  0  0  0
  6  8  1  0  0  0  0
  7  5  1  6  0  0  0
  8 20  1  1  0  0  0
  8  7  1  0  0  0  0
  9  4  1  6  0  0  0
  9  2  1  0  0  0  0
 10 15  2  0  0  0  0
 10 16  1  0  0  0  0
 12 14  1  0  0  0  0
 12 18  1  0  0  0  0
 13 14  2  0  0  0  0
 14 19  1  0  0  0  0
 15 13  1  0  0  0  0
 16 12  2  0  0  0  0
 17 15  1  0  0  0  0
 18 11  2  0  0  0  0
 19 11  1  6  0  0  0
 19  9  1  0  0  0  0
 20 21  1  0  0  0  0
 21 27  1  0  0  0  0
 22 24  1  0  0  0  0
 23 25  1  0  0  0  0
 24 26  1  0  0  0  0
 24 29  1  1  0  0  0
 25 26  1  0  0  0  0
 27 23  1  0  0  0  0
 27 22  1  0  0  0  0
 29 28  1  0  0  0  0
M  END
>  <MODEL>
7

>  <REMARK>
 VINA RESULT:      -7.8      5.117      7.854
  Name = 
  5 active torsions:
  status: ('A' for Active; 'I' for Inactive)
    1  A    between atoms: C_8  and  C_14
    2  A    between atoms: C_8  and  N_26
    3  A    between atoms: C_9  and  O_11
    4  A    between atoms: C_14  and  C_24
    5  A    between atoms: N_27  and  C_29
                            x       y       z     vdW  Elec       q    Type
                         _______ _______ _______ _____ _____    ______ ____

>  <TORSDO>
F 5

$$$$
=
 OpenBabel10232412323D

 29 32  0  0  1  0  0  0  0  0999 V2000
  186.8810  178.2870  138.1970 O   0  0  0  0  0  0  0  0  0  0  0  0
  188.3060  178.3560  138.6690 S   0  0  0  0  0  0  0  0  0  0  0  0
  188.9770  179.5670  138.0850 O   0  0  0  0  0  0  0  0  0  0  0  0
  190.3140  176.5160  139.0220 C   0  0  0  0  0  2  0  0  0  0  0  0
  187.3000  177.6690  140.9610 F   0  0  0  0  0  0  0  0  0  0  0  0
  189.9690  176.5340  140.5080 C   0  0  0  0  0  2  0  0  0  0  0  0
  188.3250  178.4450  140.4470 C   0  0  1  0  0  3  0  0  0  0  0  0
  189.6790  177.9590  140.9710 C   0  0  1  0  0  3  0  0  0  0  0  0
  189.1710  176.9220  138.2060 N   0  0  2  0  0  0  0  0  0  0  0  0
  186.4150  173.5360  135.4240 N   0  0  0  0  0  0  0  0  0  0  0  0
  189.6170  176.5410  135.7360 C   0  0  0  0  0  3  0  0  0  0  0  0
  188.1520  175.0460  135.2770 C   0  0  0  0  0  0  0  0  0  0  0  0
  187.0480  174.7290  137.3920 N   0  0  0  0  0  0  0  0  0  0  0  0
  187.9950  175.3360  136.6450 C   0  0  0  0  0  0  0  0  0  0  0  0
  186.2500  173.8120  136.7630 C   0  0  0  0  0  0  0  0  0  0  0  0
  187.3510  174.1420  134.6780 N   0  0  0  0  0  0  0  0  0  0  0  0
  185.1920  173.1080  137.5330 C   0  0  0  0  0  1  0  0  0  0  0  0
  189.1330  175.7730  134.7180 N   0  0  0  0  0  0  0  0  0  0  0  0
  188.9330  176.2930  136.9370 C   0  0  2  0  0  3  0  0  0  0  0  0
  189.7320  178.0220  142.4880 C   0  0  0  0  0  2  0  0  0  0  0  0
  189.6300  176.6260  143.0800 C   0  0  0  0  0  2  0  0  0  0  0  0
  187.8070  177.5660  144.2010 C   0  0  0  0  0  2  0  0  0  0  0  0
  189.8990  177.2950  145.3160 C   0  0  0  0  0  2  0  0  0  0  0  0
  186.9690  177.5640  145.4880 C   0  0  1  0  0  3  0  0  0  0  0  0
  189.2270  177.7900  146.6100 C   0  0  0  0  0  2  0  0  0  0  0  0
  187.7900  177.2890  146.7590 C   0  0  0  0  0  2  0  0  0  0  0  0
  188.9590  176.6850  144.3670 N   0  0  0  0  0  0  0  0  0  0  0  0
  185.6640  178.7830  146.9290 C   0  0  0  0  0  1  0  0  0  0  0  0
  186.1000  178.6730  145.5980 O   0  0  0  0  0  0  0  0  0  0  0  0
  1  2  2  0  0  0  0
  2  7  1  0  0  0  0
  3  2  2  0  0  0  0
  4  6  1  0  0  0  0
  6  8  1  0  0  0  0
  7  5  1  1  0  0  0
  7  8  1  0  0  0  0
  8 20  1  1  0  0  0
  9  2  1  0  0  0  0
  9  4  1  6  0  0  0
 10 15  2  0  0  0  0
 12 14  1  0  0  0  0
 14 19  1  0  0  0  0
 14 13  2  0  0  0  0
 15 13  1  0  0  0  0
 15 17  1  0  0  0  0
 16 12  2  0  0  0  0
 16 10  1  0  0  0  0
 18 12  1  0  0  0  0
 18 11  2  0  0  0  0
 19 11  1  6  0  0  0
 19  9  1  0  0  0  0
 20 21  1  0  0  0  0
 21 27  1  0  0  0  0
 22 27  1  0  0  0  0
 22 24  1  0  0  0  0
 23 25  1  0  0  0  0
 24 29  1  1  0  0  0
 24 26  1  0  0  0  0
 25 26  1  0  0  0  0
 27 23  1  0  0  0  0
 29 28  1  0  0  0  0
M  END
>  <MODEL>
8

>  <REMARK>
 VINA RESULT:      -7.5      4.621      9.020
  Name = 
  5 active torsions:
  status: ('A' for Active; 'I' for Inactive)
    1  A    between atoms: C_8  and  C_14
    2  A    between atoms: C_8  and  N_26
    3  A    between atoms: C_9  and  O_11
    4  A    between atoms: C_14  and  C_24
    5  A    between atoms: N_27  and  C_29
                            x       y       z     vdW  Elec       q    Type
                         _______ _______ _______ _____ _____    ______ ____

>  <TORSDO>
F 5

$$$$
=
 OpenBabel10232412323D

 29 32  0  0  1  0  0  0  0  0999 V2000
  191.6690  176.9870  143.4100 O   0  0  0  0  0  0  0  0  0  0  0  0
  190.3960  176.5180  142.7620 S   0  0  0  0  0  0  0  0  0  0  0  0
  190.2970  175.0220  142.8590 O   0  0  0  0  0  0  0  0  0  0  0  0
  189.0370  177.1880  140.4720 C   0  0  0  0  0  2  0  0  0  0  0  0
  189.3460  178.5670  143.9610 F   0  0  0  0  0  0  0  0  0  0  0  0
  188.1140  178.0250  141.3520 C   0  0  0  0  0  2  0  0  0  0  0  0
  189.0120  177.2770  143.5860 C   0  0  1  0  0  3  0  0  0  0  0  0
  187.8000  177.2870  142.6500 C   0  0  1  0  0  3  0  0  0  0  0  0
  190.3460  177.0060  141.0950 N   0  0  2  0  0  0  0  0  0  0  0  0
  192.8090  175.1810  136.9230 N   0  0  0  0  0  0  0  0  0  0  0  0
  192.7020  177.7420  140.5020 C   0  0  0  0  0  3  0  0  0  0  0  0
  193.0570  176.6010  138.7240 C   0  0  0  0  0  0  0  0  0  0  0  0
  190.9930  175.3930  138.4570 N   0  0  0  0  0  0  0  0  0  0  0  0
  191.7580  176.2640  139.1480 C   0  0  0  0  0  0  0  0  0  0  0  0
  191.5370  174.8440  137.3270 C   0  0  0  0  0  0  0  0  0  0  0  0
  193.5700  176.0500  137.6050 N   0  0  0  0  0  0  0  0  0  0  0  0
  190.7440  173.8760  136.5260 C   0  0  0  0  0  1  0  0  0  0  0  0
  193.6370  177.4970  139.5390 N   0  0  0  0  0  0  0  0  0  0  0  0
  191.5330  176.9960  140.2860 C   0  0  2  0  0  3  0  0  0  0  0  0
  186.5970  177.9270  143.3220 C   0  0  0  0  0  2  0  0  0  0  0  0
  185.5610  178.3250  142.2840 C   0  0  0  0  0  2  0  0  0  0  0  0
  183.3130  178.8260  141.8880 C   0  0  0  0  0  2  0  0  0  0  0  0
  184.2330  179.0630  144.0760 C   0  0  0  0  0  2  0  0  0  0  0  0
  181.8660  178.6430  142.3700 C   0  0  1  0  0  3  0  0  0  0  0  0
  182.8210  179.4020  144.5890 C   0  0  0  0  0  2  0  0  0  0  0  0
  181.7290  178.5810  143.9010 C   0  0  0  0  0  2  0  0  0  0  0  0
  184.2300  178.2400  142.8600 N   0  0  0  0  0  0  0  0  0  0  0  0
  181.1650  179.5010  140.3610 C   0  0  0  0  0  1  0  0  0  0  0  0
  180.9480  179.5190  141.7490 O   0  0  0  0  0  0  0  0  0  0  0  0
  2  3  2  0  0  0  0
  2  1  2  0  0  0  0
  2  7  1  0  0  0  0
  4  6  1  0  0  0  0
  6  8  1  0  0  0  0
  7  5  1  6  0  0  0
  8 20  1  1  0  0  0
  8  7  1  0  0  0  0
  9  4  1  6  0  0  0
  9  2  1  0  0  0  0
 10 15  2  0  0  0  0
 10 16  1  0  0  0  0
 12 14  1  0  0  0  0
 12 18  1  0  0  0  0
 13 14  2  0  0  0  0
 14 19  1  0  0  0  0
 15 13  1  0  0  0  0
 16 12  2  0  0  0  0
 17 15  1  0  0  0  0
 18 11  2  0  0  0  0
 19 11  1  6  0  0  0
 19  9  1  0  0  0  0
 21 27  1  0  0  0  0
 21 20  1  0  0  0  0
 22 24  1  0  0  0  0
 22 27  1  0  0  0  0
 23 25  1  0  0  0  0
 24 29  1  1  0  0  0
 24 26  1  0  0  0  0
 26 25  1  0  0  0  0
 27 23  1  0  0  0  0
 28 29  1  0  0  0  0
M  END
>  <MODEL>
9

>  <REMARK>
 VINA RESULT:      -7.4      4.848      6.432
  Name = 
  5 active torsions:
  status: ('A' for Active; 'I' for Inactive)
    1  A    between atoms: C_8  and  C_14
    2  A    between atoms: C_8  and  N_26
    3  A    between atoms: C_9  and  O_11
    4  A    between atoms: C_14  and  C_24
    5  A    between atoms: N_27  and  C_29
                            x       y       z     vdW  Elec       q    Type
                         _______ _______ _______ _____ _____    ______ ____

>  <TORSDO>
F 5

$$$$
