=
 OpenBabel10232408533D

 51 57  0  0  1  0  0  0  0  0999 V2000
  190.2770  175.7840  142.2410 C   0  0  0  0  0  2  0  0  0  0  0  0
  190.0740  177.7110  140.6630 C   0  0  1  0  0  3  0  0  0  0  0  0
  189.1670  178.3850  141.6840 C   0  0  1  0  0  3  0  0  0  0  0  0
  189.8700  177.9770  142.9930 C   0  0  2  0  0  3  0  0  0  0  0  0
  189.2280  179.8900  141.5060 C   0  0  0  0  0  1  0  0  0  0  0  0
  191.0310  176.9410  141.5700 C   0  0  1  0  0  3  0  0  0  0  0  0
  191.2130  177.8510  142.6160 O   0  0  0  0  0  0  0  0  0  0  0  0
  189.5170  176.5250  143.3300 C   0  0  1  0  0  3  0  0  0  0  0  0
  187.7360  177.4610  139.0720 S   0  0  0  0  0  0  0  0  0  0  0  0
  188.5010  179.5350  137.6370 O   0  0  0  0  0  1  0  0  0  0  0  0
  188.3720  178.1500  137.5130 C   0  0  1  0  0  0  0  0  0  0  0  0
  189.7090  177.5380  137.2840 C   0  0  0  0  0  3  0  0  0  0  0  0
  190.2420  176.9030  138.3150 C   0  0  0  0  0  0  0  0  0  0  0  0
  189.4050  176.8800  139.5500 C   0  0  1  0  0  3  0  0  0  0  0  0
  194.0360  174.9700  138.0850 C   0  0  0  0  0  3  0  0  0  0  0  0
  191.6550  174.9200  137.7410 C   0  0  0  0  0  3  0  0  0  0  0  0
  192.8950  174.2860  137.6650 C   0  0  0  0  0  3  0  0  0  0  0  0
  191.5570  176.2280  138.2330 C   0  0  0  0  0  0  0  0  0  0  0  0
  193.9330  176.2410  138.5600 N   0  0  0  0  0  0  0  0  0  0  0  0
  192.7330  176.8750  138.6420 C   0  0  0  0  0  3  0  0  0  0  0  0
  187.4000  177.8080  136.3860 C   0  0  0  0  0  2  0  0  0  0  0  0
  187.3450  176.3700  136.1410 N   0  0  0  0  0  2  0  0  0  0  0  0
  185.9530  175.9960  135.9150 C   0  0  2  0  0  3  0  0  0  0  0  0
  185.1560  177.1420  135.9990 O   0  0  0  0  0  1  0  0  0  0  0  0
  186.6270  174.1000  137.2700 C   0  0  0  0  0  2  0  0  0  0  0  0
  184.5760  172.9430  137.3910 C   0  0  2  0  0  3  0  0  0  0  0  0
  186.0600  172.6780  137.2190 C   0  0  1  0  0  3  0  0  0  0  0  0
  185.8510  173.0350  134.6940 C   0  0  0  0  0  2  0  0  0  0  0  0
  186.3190  172.0890  135.8160 C   0  0  0  0  0  2  0  0  0  0  0  0
  185.5290  175.0220  136.9300 N   0  0  0  0  0  0  0  0  0  0  0  0
  184.5060  173.7130  135.0180 C   0  0  0  0  0  2  0  0  0  0  0  0
  183.6620  171.7650  137.0600 C   0  0  0  0  0  1  0  0  0  0  0  0
  184.4060  174.1610  136.5080 C   0  0  1  0  0  3  0  0  0  0  0  0
  188.0230  176.2260  143.3030 C   0  0  0  0  0  2  0  0  0  0  0  0
  187.2390  177.3840  143.8920 C   0  0  0  0  0  2  0  0  0  0  0  0
  186.4780  176.9080  145.1160 C   0  0  0  0  0  2  0  0  0  0  0  0
  187.2860  178.1170  147.1050 N   0  0  0  0  0  0  0  0  0  0  0  0
  186.4130  177.9880  146.1470 C   0  0  0  0  0  0  0  0  0  0  0  0
  188.4340  177.2940  147.3670 C   0  0  0  0  0  0  0  0  0  0  0  0
  188.3550  176.2560  148.0800 O   0  0  0  0  0  0  0  0  0  0  0  0
  190.7800  176.5950  147.0800 C   0  0  0  0  0  1  0  0  0  0  0  0
  189.7390  177.6490  146.7400 C   0  0  0  0  0  2  0  0  0  0  0  0
  185.3300  179.0020  146.0110 C   0  0  0  0  0  2  0  0  0  0  0  0
  184.2510  178.5020  145.0640 C   0  0  0  0  0  2  0  0  0  0  0  0
  183.2500  178.5440  141.4530 N   0  0  0  0  0  0  0  0  0  0  0  0
  182.4080  179.4060  143.5830 C   0  0  0  0  0  2  0  0  0  0  0  0
  183.8400  179.6060  144.0970 C   0  0  0  0  0  3  0  0  0  0  0  0
  182.3510  178.2630  142.5690 C   0  0  0  0  0  2  0  0  0  0  0  0
  183.1360  177.4250  140.5350 C   0  0  0  0  0  1  0  0  0  0  0  0
  184.6230  178.5390  141.9530 C   0  0  0  0  0  2  0  0  0  0  0  0
  184.8280  179.6960  142.9320 C   0  0  0  0  0  2  0  0  0  0  0  0
  1  8  1  0  0  0  0
  2 14  1  6  0  0  0
  2  6  1  0  0  0  0
  2  3  1  0  0  0  0
  3  5  1  6  0  0  0
  3  4  1  0  0  0  0
  4  7  1  6  0  0  0
  4  8  1  0  0  0  0
  6  1  1  1  0  0  0
  6  7  1  0  0  0  0
  8 34  1  6  0  0  0
  9 14  1  0  0  0  0
 11 10  1  1  0  0  0
 11  9  1  0  0  0  0
 12 11  1  0  0  0  0
 12 13  2  0  0  0  0
 14 13  1  6  0  0  0
 15 19  1  0  0  0  0
 16 18  2  0  0  0  0
 17 16  1  0  0  0  0
 17 15  2  0  0  0  0
 18 13  1  0  0  0  0
 18 20  1  0  0  0  0
 19 20  2  0  0  0  0
 21 11  1  0  0  0  0
 22 21  1  0  0  0  0
 23 24  1  1  0  0  0
 23 22  1  0  0  0  0
 23 30  1  0  0  0  0
 26 32  1  6  0  0  0
 27 29  1  6  0  0  0
 27 25  1  0  0  0  0
 27 26  1  0  0  0  0
 28 31  1  0  0  0  0
 28 29  1  0  0  0  0
 30 25  1  0  0  0  0
 33 31  1  6  0  0  0
 33 30  1  0  0  0  0
 33 26  1  0  0  0  0
 34 35  1  0  0  0  0
 35 36  1  0  0  0  0
 36 38  1  0  0  0  0
 37 39  1  0  0  0  0
 38 37  2  0  0  0  0
 39 40  2  0  0  0  0
 42 41  1  0  0  0  0
 42 39  1  0  0  0  0
 43 38  1  0  0  0  0
 44 43  1  0  0  0  0
 45 50  1  0  0  0  0
 45 48  1  0  0  0  0
 46 47  1  0  0  0  0
 47 44  1  0  0  0  0
 48 46  1  0  0  0  0
 49 45  1  0  0  0  0
 50 51  1  0  0  0  0
 51 47  1  0  0  0  0
M  END
>  <MODEL>
1

>  <REMARK>
 VINA RESULT:      -7.1      0.000      0.000
  Name = 
  15 active torsions:
  status: ('A' for Active; 'I' for Inactive)
    1  A    between atoms: N_3  and  C_20
    2  A    between atoms: C_5  and  C_50
    3  A    between atoms: C_7  and  C_26
    4  A    between atoms: C_7  and  C_41
    5  A    between atoms: N_13  and  C_17
    6  A    between atoms: N_13  and  C_48
    7  A    between atoms: C_14  and  C_48
    8  A    between atoms: C_17  and  N_36
    9  A    between atoms: C_19  and  C_24
   10  A    between atoms: C_19  and  C_33
   11  A    between atoms: C_20  and  C_38
   12  A    between atoms: C_24  and  C_29
   13  A    between atoms: C_26  and  C_33
   14  A    between atoms: C_30  and  C_41
   15  A    between atoms: C_32  and  C_43
                            x       y       z     vdW  Elec       q    Type
                         _______ _______ _______ _____ _____    ______ ____

>  <TORSDO>
F 15

$$$$
=
 OpenBabel10232408533D

 51 57  0  0  1  0  0  0  0  0999 V2000
  190.7020  174.8920  137.9940 C   0  0  0  0  0  2  0  0  0  0  0  0
  189.4450  175.0240  135.8390 C   0  0  1  0  0  3  0  0  0  0  0  0
  189.7910  176.5050  135.7860 C   0  0  1  0  0  3  0  0  0  0  0  0
  191.2310  176.4740  136.3340 C   0  0  2  0  0  3  0  0  0  0  0  0
  189.7910  176.9790  134.3460 C   0  0  0  0  0  1  0  0  0  0  0  0
  190.6800  174.4470  136.5250 C   0  0  1  0  0  3  0  0  0  0  0  0
  191.6990  175.2110  135.9470 O   0  0  0  0  0  0  0  0  0  0  0  0
  191.1940  176.3240  137.8580 C   0  0  1  0  0  3  0  0  0  0  0  0
  187.0130  176.0420  136.8920 S   0  0  0  0  0  0  0  0  0  0  0  0
  186.1890  176.5800  134.4480 O   0  0  0  0  0  1  0  0  0  0  0  0
  185.9160  175.6860  135.4860 C   0  0  1  0  0  0  0  0  0  0  0  0
  186.2160  174.2970  135.0440 C   0  0  0  0  0  3  0  0  0  0  0  0
  187.3240  173.7580  135.5300 C   0  0  0  0  0  0  0  0  0  0  0  0
  188.0940  174.6270  136.4670 C   0  0  1  0  0  3  0  0  0  0  0  0
  188.5430  169.7870  134.5710 C   0  0  0  0  0  3  0  0  0  0  0  0
  186.8090  171.3330  135.1980 C   0  0  0  0  0  3  0  0  0  0  0  0
  187.2070  170.0330  134.8850 C   0  0  0  0  0  3  0  0  0  0  0  0
  187.7420  172.3780  135.1970 C   0  0  0  0  0  0  0  0  0  0  0  0
  189.4430  170.8070  134.5700 N   0  0  0  0  0  0  0  0  0  0  0  0
  189.0750  172.0810  134.8740 C   0  0  0  0  0  3  0  0  0  0  0  0
  184.4650  175.8280  135.9390 C   0  0  0  0  0  2  0  0  0  0  0  0
  184.3500  176.6830  137.1160 N   0  0  0  0  0  2  0  0  0  0  0  0
  183.4090  176.0630  138.0430 C   0  0  2  0  0  3  0  0  0  0  0  0
  182.9920  174.8370  137.5140 O   0  0  0  0  0  1  0  0  0  0  0  0
  182.4500  178.2400  137.5650 C   0  0  0  0  0  2  0  0  0  0  0  0
  181.1960  178.5680  139.5360 C   0  0  2  0  0  3  0  0  0  0  0  0
  182.0880  179.3330  138.5750 C   0  0  1  0  0  3  0  0  0  0  0  0
  184.1620  178.5850  139.8720 C   0  0  0  0  0  2  0  0  0  0  0  0
  183.3710  179.7800  139.3070 C   0  0  0  0  0  2  0  0  0  0  0  0
  182.2470  176.9420  138.2330 N   0  0  0  0  0  0  0  0  0  0  0  0
  183.2460  177.5110  140.4900 C   0  0  0  0  0  2  0  0  0  0  0  0
  180.9140  179.2720  140.8610 C   0  0  0  0  0  1  0  0  0  0  0  0
  181.9600  177.2650  139.6450 C   0  0  1  0  0  3  0  0  0  0  0  0
  190.2810  177.3220  138.5580 C   0  0  0  0  0  2  0  0  0  0  0  0
  190.8150  177.6520  139.9390 C   0  0  0  0  0  2  0  0  0  0  0  0
  190.1050  176.7970  140.9730 C   0  0  0  0  0  2  0  0  0  0  0  0
  189.6900  178.0690  143.0430 N   0  0  0  0  0  0  0  0  0  0  0  0
  189.2770  177.6490  141.8800 C   0  0  0  0  0  0  0  0  0  0  0  0
  190.9570  177.8170  143.6710 C   0  0  0  0  0  0  0  0  0  0  0  0
  191.8950  178.6590  143.6310 O   0  0  0  0  0  0  0  0  0  0  0  0
  191.5660  176.8600  145.8590 C   0  0  0  0  0  1  0  0  0  0  0  0
  191.1490  176.5480  144.4310 C   0  0  0  0  0  2  0  0  0  0  0  0
  187.9450  178.0910  141.3810 C   0  0  0  0  0  2  0  0  0  0  0  0
  187.1420  178.7260  142.5040 C   0  0  0  0  0  2  0  0  0  0  0  0
  185.6810  178.2310  145.9200 N   0  0  0  0  0  0  0  0  0  0  0  0
  184.8890  178.3970  143.6100 C   0  0  0  0  0  2  0  0  0  0  0  0
  186.1650  177.7180  143.0970 C   0  0  0  0  0  3  0  0  0  0  0  0
  185.1630  179.1520  144.9110 C   0  0  0  0  0  2  0  0  0  0  0  0
  185.9080  179.0140  147.1210 C   0  0  0  0  0  1  0  0  0  0  0  0
  186.9880  177.7510  145.4780 C   0  0  0  0  0  2  0  0  0  0  0  0
  186.8360  176.9090  144.2090 C   0  0  0  0  0  2  0  0  0  0  0  0
  2 14  1  1  0  0  0
  2  6  1  0  0  0  0
  3  5  1  6  0  0  0
  3  2  1  0  0  0  0
  3  4  1  0  0  0  0
  4  7  1  6  0  0  0
  4  8  1  0  0  0  0
  6  1  1  1  0  0  0
  7  6  1  0  0  0  0
  8  1  1  0  0  0  0
  8 34  1  1  0  0  0
 11 10  1  6  0  0  0
 11 21  1  0  0  0  0
 11  9  1  0  0  0  0
 12 11  1  0  0  0  0
 12 13  2  0  0  0  0
 14 13  1  6  0  0  0
 14  9  1  0  0  0  0
 15 17  1  0  0  0  0
 17 16  2  0  0  0  0
 18 16  1  0  0  0  0
 18 13  1  0  0  0  0
 19 15  2  0  0  0  0
 19 20  1  0  0  0  0
 20 18  2  0  0  0  0
 21 22  1  0  0  0  0
 22 23  1  0  0  0  0
 23 24  1  6  0  0  0
 23 30  1  0  0  0  0
 25 30  1  0  0  0  0
 26 33  1  0  0  0  0
 26 32  1  1  0  0  0
 27 25  1  6  0  0  0
 27 29  1  0  0  0  0
 27 26  1  0  0  0  0
 28 31  1  0  0  0  0
 29 28  1  0  0  0  0
 30 33  1  0  0  0  0
 33 31  1  1  0  0  0
 34 35  1  0  0  0  0
 35 36  1  0  0  0  0
 36 38  1  0  0  0  0
 37 39  1  0  0  0  0
 38 37  2  0  0  0  0
 39 42  1  0  0  0  0
 40 39  2  0  0  0  0
 42 41  1  0  0  0  0
 43 38  1  0  0  0  0
 43 44  1  0  0  0  0
 44 47  1  0  0  0  0
 45 49  1  0  0  0  0
 46 48  1  0  0  0  0
 47 46  1  0  0  0  0
 47 51  1  0  0  0  0
 48 45  1  0  0  0  0
 50 45  1  0  0  0  0
 51 50  1  0  0  0  0
M  END
>  <MODEL>
2

>  <REMARK>
 VINA RESULT:      -6.6      2.361      5.681
  Name = 
  15 active torsions:
  status: ('A' for Active; 'I' for Inactive)
    1  A    between atoms: N_3  and  C_20
    2  A    between atoms: C_5  and  C_50
    3  A    between atoms: C_7  and  C_26
    4  A    between atoms: C_7  and  C_41
    5  A    between atoms: N_13  and  C_17
    6  A    between atoms: N_13  and  C_48
    7  A    between atoms: C_14  and  C_48
    8  A    between atoms: C_17  and  N_36
    9  A    between atoms: C_19  and  C_24
   10  A    between atoms: C_19  and  C_33
   11  A    between atoms: C_20  and  C_38
   12  A    between atoms: C_24  and  C_29
   13  A    between atoms: C_26  and  C_33
   14  A    between atoms: C_30  and  C_41
   15  A    between atoms: C_32  and  C_43
                            x       y       z     vdW  Elec       q    Type
                         _______ _______ _______ _____ _____    ______ ____

>  <TORSDO>
F 15

$$$$
=
 OpenBabel10232408533D

 51 57  0  0  1  0  0  0  0  0999 V2000
  181.1450  176.0200  139.9630 C   0  0  0  0  0  2  0  0  0  0  0  0
  182.2280  178.1850  140.5850 C   0  0  1  0  0  3  0  0  0  0  0  0
  181.8150  178.7240  139.2220 C   0  0  1  0  0  3  0  0  0  0  0  0
  180.4240  178.0770  139.0770 C   0  0  2  0  0  3  0  0  0  0  0  0
  181.6850  180.2330  139.2880 C   0  0  0  0  0  1  0  0  0  0  0  0
  181.0740  177.2350  140.8980 C   0  0  1  0  0  3  0  0  0  0  0  0
  179.9820  177.9550  140.4010 O   0  0  0  0  0  0  0  0  0  0  0  0
  180.5840  176.6070  138.6780 C   0  0  1  0  0  3  0  0  0  0  0  0
  184.5270  177.3790  139.1280 S   0  0  0  0  0  0  0  0  0  0  0  0
  185.1960  179.9060  138.8020 O   0  0  0  0  0  1  0  0  0  0  0  0
  185.6200  178.7810  139.5120 C   0  0  1  0  0  0  0  0  0  0  0  0
  185.5000  179.0350  140.9740 C   0  0  0  0  0  3  0  0  0  0  0  0
  184.4920  178.4350  141.5870 C   0  0  0  0  0  0  0  0  0  0  0  0
  183.6380  177.5760  140.7160 C   0  0  1  0  0  3  0  0  0  0  0  0
  183.8010  178.8460  145.7740 C   0  0  0  0  0  3  0  0  0  0  0  0
  185.2750  178.2810  143.9580 C   0  0  0  0  0  3  0  0  0  0  0  0
  185.0500  178.4140  145.3280 C   0  0  0  0  0  3  0  0  0  0  0  0
  184.2570  178.5770  143.0420 C   0  0  0  0  0  0  0  0  0  0  0  0
  182.8180  179.1330  144.8780 N   0  0  0  0  0  0  0  0  0  0  0  0
  183.0180  179.0090  143.5390 C   0  0  0  0  0  3  0  0  0  0  0  0
  187.0510  178.4170  139.1230 C   0  0  0  0  0  2  0  0  0  0  0  0
  187.9960  178.7390  140.1870 N   0  0  0  0  0  2  0  0  0  0  0  0
  189.1070  177.7970  140.1140 C   0  0  2  0  0  3  0  0  0  0  0  0
  189.0360  177.1030  138.9010 O   0  0  0  0  0  1  0  0  0  0  0  0
  188.4470  177.4860  142.4280 C   0  0  0  0  0  2  0  0  0  0  0  0
  190.0670  175.9090  143.1000 C   0  0  2  0  0  3  0  0  0  0  0  0
  189.3580  177.1490  143.6120 C   0  0  1  0  0  3  0  0  0  0  0  0
  191.1000  178.6400  142.4770 C   0  0  0  0  0  2  0  0  0  0  0  0
  190.3810  178.2900  143.7950 C   0  0  0  0  0  2  0  0  0  0  0  0
  189.0290  176.8480  141.2330 N   0  0  0  0  0  0  0  0  0  0  0  0
  191.4670  177.3880  141.6560 C   0  0  0  0  0  2  0  0  0  0  0  0
  191.2970  175.4860  143.8990 C   0  0  0  0  0  1  0  0  0  0  0  0
  190.3360  176.3150  141.6660 C   0  0  1  0  0  3  0  0  0  0  0  0
  181.5040  176.3830  137.4850 C   0  0  0  0  0  2  0  0  0  0  0  0
  182.1910  175.0350  137.5910 C   0  0  0  0  0  2  0  0  0  0  0  0
  181.8460  174.1960  136.3730 C   0  0  0  0  0  2  0  0  0  0  0  0
  183.7710  173.0040  135.3990 N   0  0  0  0  0  0  0  0  0  0  0  0
  183.0290  174.0730  135.4680 C   0  0  0  0  0  0  0  0  0  0  0  0
  183.6240  171.7820  136.1390 C   0  0  0  0  0  0  0  0  0  0  0  0
  184.0680  171.6620  137.3130 O   0  0  0  0  0  0  0  0  0  0  0  0
  183.5370  169.3290  135.9160 C   0  0  0  0  0  1  0  0  0  0  0  0
  182.8850  170.6440  135.5210 C   0  0  0  0  0  2  0  0  0  0  0  0
  183.3140  175.2130  134.5520 C   0  0  0  0  0  2  0  0  0  0  0  0
  184.8090  175.4760  134.4810 C   0  0  0  0  0  2  0  0  0  0  0  0
  188.1480  176.7000  135.6660 N   0  0  0  0  0  0  0  0  0  0  0  0
  185.8680  177.5630  135.4440 C   0  0  0  0  0  2  0  0  0  0  0  0
  185.2870  176.1770  135.7480 C   0  0  0  0  0  3  0  0  0  0  0  0
  187.2450  177.4420  134.7900 C   0  0  0  0  0  2  0  0  0  0  0  0
  189.4270  176.6320  134.9840 C   0  0  0  0  0  1  0  0  0  0  0  0
  187.6590  175.3270  135.7770 C   0  0  0  0  0  2  0  0  0  0  0  0
  186.3060  175.3100  136.4910 C   0  0  0  0  0  2  0  0  0  0  0  0
  2 14  1  6  0  0  0
  2  6  1  0  0  0  0
  3  5  1  1  0  0  0
  3  2  1  0  0  0  0
  4  3  1  0  0  0  0
  4  7  1  1  0  0  0
  6  1  1  6  0  0  0
  7  6  1  0  0  0  0
  8 34  1  6  0  0  0
  8  4  1  0  0  0  0
  8  1  1  0  0  0  0
  9 11  1  0  0  0  0
 11 10  1  6  0  0  0
 11 12  1  0  0  0  0
 12 13  2  0  0  0  0
 13 18  1  0  0  0  0
 14  9  1  6  0  0  0
 14 13  1  0  0  0  0
 16 17  2  0  0  0  0
 17 15  1  0  0  0  0
 18 20  2  0  0  0  0
 18 16  1  0  0  0  0
 19 15  2  0  0  0  0
 20 19  1  0  0  0  0
 21 11  1  0  0  0  0
 21 22  1  0  0  0  0
 23 24  1  6  0  0  0
 23 22  1  0  0  0  0
 23 30  1  0  0  0  0
 26 27  1  0  0  0  0
 26 32  1  1  0  0  0
 27 25  1  6  0  0  0
 27 29  1  0  0  0  0
 28 29  1  0  0  0  0
 30 33  1  0  0  0  0
 30 25  1  0  0  0  0
 31 28  1  0  0  0  0
 33 31  1  1  0  0  0
 33 26  1  0  0  0  0
 34 35  1  0  0  0  0
 36 35  1  0  0  0  0
 37 38  2  0  0  0  0
 37 39  1  0  0  0  0
 38 36  1  0  0  0  0
 39 40  2  0  0  0  0
 42 41  1  0  0  0  0
 42 39  1  0  0  0  0
 43 38  1  0  0  0  0
 44 43  1  0  0  0  0
 44 47  1  0  0  0  0
 45 50  1  0  0  0  0
 46 47  1  0  0  0  0
 47 51  1  0  0  0  0
 48 46  1  0  0  0  0
 48 45  1  0  0  0  0
 49 45  1  0  0  0  0
 50 51  1  0  0  0  0
M  END
>  <MODEL>
3

>  <REMARK>
 VINA RESULT:      -6.6      2.904      9.502
  Name = 
  15 active torsions:
  status: ('A' for Active; 'I' for Inactive)
    1  A    between atoms: N_3  and  C_20
    2  A    between atoms: C_5  and  C_50
    3  A    between atoms: C_7  and  C_26
    4  A    between atoms: C_7  and  C_41
    5  A    between atoms: N_13  and  C_17
    6  A    between atoms: N_13  and  C_48
    7  A    between atoms: C_14  and  C_48
    8  A    between atoms: C_17  and  N_36
    9  A    between atoms: C_19  and  C_24
   10  A    between atoms: C_19  and  C_33
   11  A    between atoms: C_20  and  C_38
   12  A    between atoms: C_24  and  C_29
   13  A    between atoms: C_26  and  C_33
   14  A    between atoms: C_30  and  C_41
   15  A    between atoms: C_32  and  C_43
                            x       y       z     vdW  Elec       q    Type
                         _______ _______ _______ _____ _____    ______ ____

>  <TORSDO>
F 15

$$$$
=
 OpenBabel10232408533D

 51 57  0  0  1  0  0  0  0  0999 V2000
  186.7740  177.4960  134.8680 C   0  0  0  0  0  2  0  0  0  0  0  0
  188.1510  175.4800  135.4010 C   0  0  1  0  0  3  0  0  0  0  0  0
  187.1310  175.1310  136.4770 C   0  0  1  0  0  3  0  0  0  0  0  0
  185.8270  175.5380  135.7650 C   0  0  2  0  0  3  0  0  0  0  0  0
  187.1460  173.6360  136.7270 C   0  0  0  0  0  1  0  0  0  0  0  0
  187.2660  176.1390  134.3460 C   0  0  1  0  0  3  0  0  0  0  0  0
  186.1200  175.3390  134.4090 O   0  0  0  0  0  0  0  0  0  0  0  0
  185.6690  177.0600  135.8180 C   0  0  1  0  0  3  0  0  0  0  0  0
  189.0310  177.6640  136.9870 S   0  0  0  0  0  0  0  0  0  0  0  0
  188.7360  176.1970  139.1560 O   0  0  0  0  0  1  0  0  0  0  0  0
  189.7580  176.7400  138.3750 C   0  0  1  0  0  0  0  0  0  0  0  0
  190.5760  175.6450  137.7840 C   0  0  0  0  0  3  0  0  0  0  0  0
  190.3850  175.4080  136.4960 C   0  0  0  0  0  0  0  0  0  0  0  0
  189.3890  176.2950  135.8270 C   0  0  1  0  0  3  0  0  0  0  0  0
  192.5670  172.4090  134.3930 C   0  0  0  0  0  3  0  0  0  0  0  0
  190.6250  173.0650  135.6530 C   0  0  0  0  0  3  0  0  0  0  0  0
  191.3390  172.0830  134.9660 C   0  0  0  0  0  3  0  0  0  0  0  0
  191.1390  174.3640  135.7660 C   0  0  0  0  0  0  0  0  0  0  0  0
  193.0580  173.6730  134.5050 N   0  0  0  0  0  0  0  0  0  0  0  0
  192.3780  174.6440  135.1710 C   0  0  0  0  0  3  0  0  0  0  0  0
  190.6150  177.6890  139.2100 C   0  0  0  0  0  2  0  0  0  0  0  0
  190.2100  177.6870  140.6120 N   0  0  0  0  0  2  0  0  0  0  0  0
  191.4140  177.6440  141.4360 C   0  0  2  0  0  3  0  0  0  0  0  0
  192.4960  177.2520  140.6400 O   0  0  0  0  0  1  0  0  0  0  0  0
  189.8150  176.5930  142.9270 C   0  0  0  0  0  2  0  0  0  0  0  0
  191.1710  176.3080  144.8350 C   0  0  2  0  0  3  0  0  0  0  0  0
  189.7580  176.7080  144.4530 C   0  0  1  0  0  3  0  0  0  0  0  0
  190.5110  179.1320  144.1270 C   0  0  0  0  0  2  0  0  0  0  0  0
  189.5200  178.1860  144.8320 C   0  0  0  0  0  2  0  0  0  0  0  0
  191.2320  176.6840  142.5330 N   0  0  0  0  0  0  0  0  0  0  0  0
  191.9410  178.5600  144.0810 C   0  0  0  0  0  2  0  0  0  0  0  0
  191.5710  176.6280  146.2730 C   0  0  0  0  0  1  0  0  0  0  0  0
  191.9630  177.0330  143.7680 C   0  0  1  0  0  3  0  0  0  0  0  0
  185.8320  177.6540  137.2110 C   0  0  0  0  0  2  0  0  0  0  0  0
  184.5220  178.2540  137.6890 C   0  0  0  0  0  2  0  0  0  0  0  0
  184.1540  177.6550  139.0340 C   0  0  0  0  0  2  0  0  0  0  0  0
  183.0580  179.3010  140.5050 N   0  0  0  0  0  0  0  0  0  0  0  0
  184.1440  178.7100  140.0930 C   0  0  0  0  0  0  0  0  0  0  0  0
  181.7110  179.0820  140.0540 C   0  0  0  0  0  0  0  0  0  0  0  0
  181.3310  179.4470  138.9080 O   0  0  0  0  0  0  0  0  0  0  0  0
  180.1360  177.1930  140.2000 C   0  0  0  0  0  1  0  0  0  0  0  0
  180.7560  178.3640  140.9450 C   0  0  0  0  0  2  0  0  0  0  0  0
  185.4400  179.0350  140.7510 C   0  0  0  0  0  2  0  0  0  0  0  0
  185.2220  179.3630  142.2190 C   0  0  0  0  0  2  0  0  0  0  0  0
  185.2310  178.3670  145.8330 N   0  0  0  0  0  0  0  0  0  0  0  0
  183.6350  178.4740  143.9800 C   0  0  0  0  0  2  0  0  0  0  0  0
  184.7410  178.1290  142.9740 C   0  0  0  0  0  3  0  0  0  0  0  0
  184.2150  179.2000  145.1950 C   0  0  0  0  0  2  0  0  0  0  0  0
  185.7270  179.1150  146.9730 C   0  0  0  0  0  1  0  0  0  0  0  0
  186.3540  178.2190  144.9080 C   0  0  0  0  0  2  0  0  0  0  0  0
  185.9130  177.4350  143.6710 C   0  0  0  0  0  2  0  0  0  0  0  0
  1  8  1  0  0  0  0
  2 14  1  1  0  0  0
  2  3  1  0  0  0  0
  3  5  1  6  0  0  0
  4  7  1  6  0  0  0
  4  8  1  0  0  0  0
  4  3  1  0  0  0  0
  6  7  1  0  0  0  0
  6  1  1  1  0  0  0
  6  2  1  0  0  0  0
  8 34  1  1  0  0  0
  9 11  1  0  0  0  0
 11 10  1  1  0  0  0
 11 21  1  0  0  0  0
 12 11  1  0  0  0  0
 13 12  2  0  0  0  0
 14 13  1  1  0  0  0
 14  9  1  0  0  0  0
 15 19  2  0  0  0  0
 15 17  1  0  0  0  0
 16 18  1  0  0  0  0
 17 16  2  0  0  0  0
 18 13  1  0  0  0  0
 19 20  1  0  0  0  0
 20 18  2  0  0  0  0
 21 22  1  0  0  0  0
 22 23  1  0  0  0  0
 23 24  1  6  0  0  0
 23 30  1  0  0  0  0
 26 32  1  1  0  0  0
 27 25  1  6  0  0  0
 27 29  1  0  0  0  0
 27 26  1  0  0  0  0
 28 29  1  0  0  0  0
 30 25  1  0  0  0  0
 30 33  1  0  0  0  0
 31 28  1  0  0  0  0
 33 31  1  1  0  0  0
 33 26  1  0  0  0  0
 34 35  1  0  0  0  0
 35 36  1  0  0  0  0
 36 38  1  0  0  0  0
 38 37  2  0  0  0  0
 38 43  1  0  0  0  0
 39 37  1  0  0  0  0
 39 42  1  0  0  0  0
 40 39  2  0  0  0  0
 41 42  1  0  0  0  0
 43 44  1  0  0  0  0
 44 47  1  0  0  0  0
 45 49  1  0  0  0  0
 46 48  1  0  0  0  0
 47 51  1  0  0  0  0
 47 46  1  0  0  0  0
 48 45  1  0  0  0  0
 50 45  1  0  0  0  0
 51 50  1  0  0  0  0
M  END
>  <MODEL>
4

>  <REMARK>
 VINA RESULT:      -6.5      2.589      7.411
  Name = 
  15 active torsions:
  status: ('A' for Active; 'I' for Inactive)
    1  A    between atoms: N_3  and  C_20
    2  A    between atoms: C_5  and  C_50
    3  A    between atoms: C_7  and  C_26
    4  A    between atoms: C_7  and  C_41
    5  A    between atoms: N_13  and  C_17
    6  A    between atoms: N_13  and  C_48
    7  A    between atoms: C_14  and  C_48
    8  A    between atoms: C_17  and  N_36
    9  A    between atoms: C_19  and  C_24
   10  A    between atoms: C_19  and  C_33
   11  A    between atoms: C_20  and  C_38
   12  A    between atoms: C_24  and  C_29
   13  A    between atoms: C_26  and  C_33
   14  A    between atoms: C_30  and  C_41
   15  A    between atoms: C_32  and  C_43
                            x       y       z     vdW  Elec       q    Type
                         _______ _______ _______ _____ _____    ______ ____

>  <TORSDO>
F 15

$$$$
=
 OpenBabel10232408533D

 51 57  0  0  1  0  0  0  0  0999 V2000
  190.1600  173.3310  136.5960 C   0  0  0  0  0  2  0  0  0  0  0  0
  188.9310  175.3630  135.8190 C   0  0  1  0  0  3  0  0  0  0  0  0
  190.2770  175.9750  135.4540 C   0  0  1  0  0  3  0  0  0  0  0  0
  191.0070  174.7330  134.9070 C   0  0  2  0  0  3  0  0  0  0  0  0
  190.0900  176.9990  134.3520 C   0  0  0  0  0  1  0  0  0  0  0  0
  189.1860  173.8830  135.5460 C   0  0  1  0  0  3  0  0  0  0  0  0
  189.9690  173.9470  134.3880 O   0  0  0  0  0  0  0  0  0  0  0  0
  191.4850  173.8660  136.0740 C   0  0  1  0  0  3  0  0  0  0  0  0
  189.5400  176.4780  138.3580 S   0  0  0  0  0  0  0  0  0  0  0  0
  189.4670  178.8930  137.3070 O   0  0  0  0  0  1  0  0  0  0  0  0
  188.7190  178.0900  138.1720 C   0  0  1  0  0  0  0  0  0  0  0  0
  187.3790  177.8270  137.5810 C   0  0  0  0  0  3  0  0  0  0  0  0
  187.1910  176.6150  137.0830 C   0  0  0  0  0  0  0  0  0  0  0  0
  188.3520  175.6880  137.2110 C   0  0  1  0  0  3  0  0  0  0  0  0
  183.4820  175.4110  135.3590 C   0  0  0  0  0  3  0  0  0  0  0  0
  185.3320  176.9470  135.4420 C   0  0  0  0  0  3  0  0  0  0  0  0
  184.1190  176.5540  134.8770 C   0  0  0  0  0  3  0  0  0  0  0  0
  185.9030  176.2000  136.4810 C   0  0  0  0  0  0  0  0  0  0  0  0
  184.0430  174.6910  136.3670 N   0  0  0  0  0  0  0  0  0  0  0  0
  185.2260  175.0580  136.9310 C   0  0  0  0  0  3  0  0  0  0  0  0
  188.6060  178.7520  139.5430 C   0  0  0  0  0  2  0  0  0  0  0  0
  188.9870  177.8370  140.6150 N   0  0  0  0  0  2  0  0  0  0  0  0
  188.0120  177.9640  141.6930 C   0  0  2  0  0  3  0  0  0  0  0  0
  186.9990  178.8400  141.2880 O   0  0  0  0  0  1  0  0  0  0  0  0
  190.1350  178.4660  142.7540 C   0  0  0  0  0  2  0  0  0  0  0  0
  189.5690  178.0460  145.0040 C   0  0  2  0  0  3  0  0  0  0  0  0
  190.7070  177.8310  144.0240 C   0  0  1  0  0  3  0  0  0  0  0  0
  189.6270  175.6550  143.2180 C   0  0  0  0  0  2  0  0  0  0  0  0
  190.8990  176.3180  143.7830 C   0  0  0  0  0  2  0  0  0  0  0  0
  188.6680  178.4890  142.8980 N   0  0  0  0  0  0  0  0  0  0  0  0
  188.3430  176.1810  143.8890 C   0  0  0  0  0  2  0  0  0  0  0  0
  189.6630  177.2420  146.2980 C   0  0  0  0  0  1  0  0  0  0  0  0
  188.3800  177.7210  144.1250 C   0  0  1  0  0  3  0  0  0  0  0  0
  192.2630  174.6290  137.1380 C   0  0  0  0  0  2  0  0  0  0  0  0
  193.6030  175.0840  136.5910 C   0  0  0  0  0  2  0  0  0  0  0  0
  194.6770  174.0890  136.9950 C   0  0  0  0  0  2  0  0  0  0  0  0
  196.5630  174.0190  135.4100 N   0  0  0  0  0  0  0  0  0  0  0  0
  195.3980  173.5770  135.7890 C   0  0  0  0  0  0  0  0  0  0  0  0
  197.3630  175.0380  136.0310 C   0  0  0  0  0  0  0  0  0  0  0  0
  197.0530  176.2590  135.9560 O   0  0  0  0  0  0  0  0  0  0  0  0
  198.5770  173.1300  137.0090 C   0  0  0  0  0  1  0  0  0  0  0  0
  198.5600  174.6390  136.8240 C   0  0  0  0  0  2  0  0  0  0  0  0
  194.7690  172.4540  135.0400 C   0  0  0  0  0  2  0  0  0  0  0  0
  195.5370  171.1630  135.2760 C   0  0  0  0  0  2  0  0  0  0  0  0
  196.7160  168.5180  137.6550 N   0  0  0  0  0  0  0  0  0  0  0  0
  195.4210  170.5930  137.7400 C   0  0  0  0  0  2  0  0  0  0  0  0
  194.8470  170.3220  136.3430 C   0  0  0  0  0  3  0  0  0  0  0  0
  196.8030  169.9570  137.8910 C   0  0  0  0  0  2  0  0  0  0  0  0
  198.0560  167.9870  137.8220 C   0  0  0  0  0  1  0  0  0  0  0  0
  196.3480  168.3000  136.2580 C   0  0  0  0  0  2  0  0  0  0  0  0
  194.9390  168.8340  135.9970 C   0  0  0  0  0  2  0  0  0  0  0  0
  2 14  1  1  0  0  0
  3  5  1  6  0  0  0
  3  2  1  0  0  0  0
  4  7  1  6  0  0  0
  4  3  1  0  0  0  0
  4  8  1  0  0  0  0
  6  2  1  0  0  0  0
  6  1  1  1  0  0  0
  7  6  1  0  0  0  0
  8  1  1  0  0  0  0
  8 34  1  1  0  0  0
 11 10  1  6  0  0  0
 11  9  1  0  0  0  0
 11 21  1  0  0  0  0
 12 11  1  0  0  0  0
 13 12  2  0  0  0  0
 14 13  1  6  0  0  0
 14  9  1  0  0  0  0
 15 19  1  0  0  0  0
 16 18  2  0  0  0  0
 17 15  2  0  0  0  0
 17 16  1  0  0  0  0
 18 20  1  0  0  0  0
 18 13  1  0  0  0  0
 19 20  2  0  0  0  0
 21 22  1  0  0  0  0
 22 23  1  0  0  0  0
 23 24  1  6  0  0  0
 23 30  1  0  0  0  0
 25 30  1  0  0  0  0
 26 32  1  1  0  0  0
 27 25  1  6  0  0  0
 27 26  1  0  0  0  0
 28 29  1  0  0  0  0
 28 31  1  0  0  0  0
 29 27  1  0  0  0  0
 30 33  1  0  0  0  0
 33 31  1  6  0  0  0
 33 26  1  0  0  0  0
 35 36  1  0  0  0  0
 35 34  1  0  0  0  0
 37 38  2  0  0  0  0
 37 39  1  0  0  0  0
 38 36  1  0  0  0  0
 39 42  1  0  0  0  0
 40 39  2  0  0  0  0
 42 41  1  0  0  0  0
 43 44  1  0  0  0  0
 43 38  1  0  0  0  0
 44 47  1  0  0  0  0
 45 49  1  0  0  0  0
 45 48  1  0  0  0  0
 46 48  1  0  0  0  0
 47 46  1  0  0  0  0
 50 45  1  0  0  0  0
 51 50  1  0  0  0  0
 51 47  1  0  0  0  0
M  END
>  <MODEL>
5

>  <REMARK>
 VINA RESULT:      -6.2      3.713     10.835
  Name = 
  15 active torsions:
  status: ('A' for Active; 'I' for Inactive)
    1  A    between atoms: N_3  and  C_20
    2  A    between atoms: C_5  and  C_50
    3  A    between atoms: C_7  and  C_26
    4  A    between atoms: C_7  and  C_41
    5  A    between atoms: N_13  and  C_17
    6  A    between atoms: N_13  and  C_48
    7  A    between atoms: C_14  and  C_48
    8  A    between atoms: C_17  and  N_36
    9  A    between atoms: C_19  and  C_24
   10  A    between atoms: C_19  and  C_33
   11  A    between atoms: C_20  and  C_38
   12  A    between atoms: C_24  and  C_29
   13  A    between atoms: C_26  and  C_33
   14  A    between atoms: C_30  and  C_41
   15  A    between atoms: C_32  and  C_43
                            x       y       z     vdW  Elec       q    Type
                         _______ _______ _______ _____ _____    ______ ____

>  <TORSDO>
F 15

$$$$
=
 OpenBabel10232408533D

 51 57  0  0  1  0  0  0  0  0999 V2000
  190.3890  175.7900  142.1780 C   0  0  0  0  0  2  0  0  0  0  0  0
  190.1380  177.7340  140.6280 C   0  0  1  0  0  3  0  0  0  0  0  0
  189.2680  178.3990  141.6850 C   0  0  1  0  0  3  0  0  0  0  0  0
  190.0130  177.9750  142.9650 C   0  0  2  0  0  3  0  0  0  0  0  0
  189.3280  179.9050  141.5210 C   0  0  0  0  0  1  0  0  0  0  0  0
  191.1230  176.9510  141.4930 C   0  0  1  0  0  3  0  0  0  0  0  0
  191.3430  177.8500  142.5420 O   0  0  0  0  0  0  0  0  0  0  0  0
  189.6670  176.5210  143.2990 C   0  0  1  0  0  3  0  0  0  0  0  0
  187.7730  177.5430  139.0700 S   0  0  0  0  0  0  0  0  0  0  0  0
  188.5790  179.5830  137.6110 O   0  0  0  0  0  1  0  0  0  0  0  0
  188.4070  178.2020  137.4980 C   0  0  1  0  0  0  0  0  0  0  0  0
  189.7220  177.5500  137.2550 C   0  0  0  0  0  3  0  0  0  0  0  0
  190.2500  176.9050  138.2830 C   0  0  0  0  0  0  0  0  0  0  0  0
  189.4300  176.9150  139.5290 C   0  0  1  0  0  3  0  0  0  0  0  0
  193.9700  174.8400  138.0010 C   0  0  0  0  0  3  0  0  0  0  0  0
  192.7370  176.8350  138.5420 C   0  0  0  0  0  3  0  0  0  0  0  0
  193.9550  176.1600  138.4500 C   0  0  0  0  0  3  0  0  0  0  0  0
  191.5440  176.1920  138.1880 C   0  0  0  0  0  0  0  0  0  0  0  0
  192.8070  174.2220  137.6600 N   0  0  0  0  0  0  0  0  0  0  0  0
  191.6100  174.8630  137.7430 C   0  0  0  0  0  3  0  0  0  0  0  0
  187.4100  177.8820  136.3870 C   0  0  0  0  0  2  0  0  0  0  0  0
  187.2990  176.4440  136.1610 N   0  0  0  0  0  2  0  0  0  0  0  0
  185.8900  176.1180  135.9720 C   0  0  2  0  0  3  0  0  0  0  0  0
  185.1280  177.2800  136.1330 O   0  0  0  0  0  1  0  0  0  0  0  0
  186.5970  174.2260  137.3150 C   0  0  0  0  0  2  0  0  0  0  0  0
  184.5880  172.9920  137.3620 C   0  0  2  0  0  3  0  0  0  0  0  0
  186.0860  172.7850  137.2270 C   0  0  1  0  0  3  0  0  0  0  0  0
  185.9320  173.1750  134.7030 C   0  0  0  0  0  2  0  0  0  0  0  0
  186.4040  172.2280  135.8230 C   0  0  0  0  0  2  0  0  0  0  0  0
  185.4750  175.1120  136.9590 N   0  0  0  0  0  0  0  0  0  0  0  0
  184.5540  173.7970  135.0000 C   0  0  0  0  0  2  0  0  0  0  0  0
  183.7290  171.7860  136.9880 C   0  0  0  0  0  1  0  0  0  0  0  0
  184.3970  174.2170  136.4930 C   0  0  1  0  0  3  0  0  0  0  0  0
  188.1730  176.2260  143.3190 C   0  0  0  0  0  2  0  0  0  0  0  0
  187.3770  177.5070  143.1480 C   0  0  0  0  0  2  0  0  0  0  0  0
  185.9870  177.3190  143.7300 C   0  0  0  0  0  2  0  0  0  0  0  0
  185.0990  179.2450  144.9850 N   0  0  0  0  0  0  0  0  0  0  0  0
  185.2860  178.6330  143.8490 C   0  0  0  0  0  0  0  0  0  0  0  0
  185.5000  178.8110  146.2940 C   0  0  0  0  0  0  0  0  0  0  0  0
  184.6580  178.4180  147.1470 O   0  0  0  0  0  0  0  0  0  0  0  0
  187.2470  177.5850  147.5260 C   0  0  0  0  0  1  0  0  0  0  0  0
  186.9510  178.7800  146.6350 C   0  0  0  0  0  2  0  0  0  0  0  0
  184.8530  179.2970  142.5890 C   0  0  0  0  0  2  0  0  0  0  0  0
  183.4890  178.7810  142.1590 C   0  0  0  0  0  2  0  0  0  0  0  0
  182.2620  179.3450  138.6630 N   0  0  0  0  0  0  0  0  0  0  0  0
  184.3620  178.7750  139.7840 C   0  0  0  0  0  2  0  0  0  0  0  0
  183.6040  177.9900  140.8610 C   0  0  0  0  0  3  0  0  0  0  0  0
  183.4930  179.9000  139.2200 C   0  0  0  0  0  2  0  0  0  0  0  0
  181.4980  180.4650  138.1440 C   0  0  0  0  0  1  0  0  0  0  0  0
  181.4790  178.7720  139.7550 C   0  0  0  0  0  2  0  0  0  0  0  0
  182.2190  177.5770  140.3590 C   0  0  0  0  0  2  0  0  0  0  0  0
  1  8  1  0  0  0  0
  2 14  1  6  0  0  0
  2  6  1  0  0  0  0
  2  3  1  0  0  0  0
  3  5  1  6  0  0  0
  3  4  1  0  0  0  0
  4  7  1  6  0  0  0
  4  8  1  0  0  0  0
  6  1  1  1  0  0  0
  6  7  1  0  0  0  0
  8 34  1  6  0  0  0
  9 14  1  0  0  0  0
 11 10  1  1  0  0  0
 11  9  1  0  0  0  0
 12 11  1  0  0  0  0
 12 13  2  0  0  0  0
 14 13  1  6  0  0  0
 15 17  1  0  0  0  0
 17 16  2  0  0  0  0
 18 13  1  0  0  0  0
 18 16  1  0  0  0  0
 19 20  1  0  0  0  0
 19 15  2  0  0  0  0
 20 18  2  0  0  0  0
 21 11  1  0  0  0  0
 22 21  1  0  0  0  0
 23 24  1  1  0  0  0
 23 22  1  0  0  0  0
 23 30  1  0  0  0  0
 26 32  1  6  0  0  0
 27 29  1  6  0  0  0
 27 25  1  0  0  0  0
 27 26  1  0  0  0  0
 28 31  1  0  0  0  0
 28 29  1  0  0  0  0
 30 25  1  0  0  0  0
 33 31  1  6  0  0  0
 33 30  1  0  0  0  0
 33 26  1  0  0  0  0
 35 34  1  0  0  0  0
 35 36  1  0  0  0  0
 36 38  1  0  0  0  0
 37 39  1  0  0  0  0
 38 37  2  0  0  0  0
 39 42  1  0  0  0  0
 39 40  2  0  0  0  0
 42 41  1  0  0  0  0
 43 38  1  0  0  0  0
 44 43  1  0  0  0  0
 45 48  1  0  0  0  0
 45 50  1  0  0  0  0
 46 47  1  0  0  0  0
 47 44  1  0  0  0  0
 48 46  1  0  0  0  0
 49 45  1  0  0  0  0
 50 51  1  0  0  0  0
 51 47  1  0  0  0  0
M  END
>  <MODEL>
6

>  <REMARK>
 VINA RESULT:      -5.9      1.346      2.104
  Name = 
  15 active torsions:
  status: ('A' for Active; 'I' for Inactive)
    1  A    between atoms: N_3  and  C_20
    2  A    between atoms: C_5  and  C_50
    3  A    between atoms: C_7  and  C_26
    4  A    between atoms: C_7  and  C_41
    5  A    between atoms: N_13  and  C_17
    6  A    between atoms: N_13  and  C_48
    7  A    between atoms: C_14  and  C_48
    8  A    between atoms: C_17  and  N_36
    9  A    between atoms: C_19  and  C_24
   10  A    between atoms: C_19  and  C_33
   11  A    between atoms: C_20  and  C_38
   12  A    between atoms: C_24  and  C_29
   13  A    between atoms: C_26  and  C_33
   14  A    between atoms: C_30  and  C_41
   15  A    between atoms: C_32  and  C_43
                            x       y       z     vdW  Elec       q    Type
                         _______ _______ _______ _____ _____    ______ ____

>  <TORSDO>
F 15

$$$$
=
 OpenBabel10232408533D

 51 57  0  0  1  0  0  0  0  0999 V2000
  191.7560  178.4050  143.4170 C   0  0  0  0  0  2  0  0  0  0  0  0
  189.7090  177.1390  144.0880 C   0  0  1  0  0  3  0  0  0  0  0  0
  189.8430  176.3410  142.7980 C   0  0  1  0  0  3  0  0  0  0  0  0
  191.3740  176.1900  142.7230 C   0  0  2  0  0  3  0  0  0  0  0  0
  189.1920  174.9820  142.9700 C   0  0  0  0  0  1  0  0  0  0  0  0
  191.1710  177.4110  144.4300 C   0  0  1  0  0  3  0  0  0  0  0  0
  191.7690  176.1990  144.0670 O   0  0  0  0  0  0  0  0  0  0  0  0
  191.9910  177.4980  142.2200 C   0  0  1  0  0  3  0  0  0  0  0  0
  188.1080  178.7880  142.4210 S   0  0  0  0  0  0  0  0  0  0  0  0
  186.2600  176.9110  142.3520 O   0  0  0  0  0  1  0  0  0  0  0  0
  186.4630  178.1780  142.9030 C   0  0  1  0  0  0  0  0  0  0  0  0
  186.4540  178.0880  144.3890 C   0  0  0  0  0  3  0  0  0  0  0  0
  187.6320  178.1790  144.9840 C   0  0  0  0  0  0  0  0  0  0  0  0
  188.7930  178.3800  144.0690 C   0  0  1  0  0  3  0  0  0  0  0  0
  188.0420  178.0300  149.2250 C   0  0  0  0  0  3  0  0  0  0  0  0
  188.9940  177.7350  147.0350 C   0  0  0  0  0  3  0  0  0  0  0  0
  189.1290  177.6860  148.4230 C   0  0  0  0  0  3  0  0  0  0  0  0
  187.7790  178.1270  146.4560 C   0  0  0  0  0  0  0  0  0  0  0  0
  186.8670  178.4100  148.6560 N   0  0  0  0  0  0  0  0  0  0  0  0
  186.7150  178.4650  147.3050 C   0  0  0  0  0  3  0  0  0  0  0  0
  185.4030  179.1520  142.3950 C   0  0  0  0  0  2  0  0  0  0  0  0
  184.2380  178.4510  141.8640 N   0  0  0  0  0  2  0  0  0  0  0  0
  184.2280  178.6120  140.4140 C   0  0  2  0  0  3  0  0  0  0  0  0
  185.1690  179.5840  140.0590 O   0  0  0  0  0  1  0  0  0  0  0  0
  181.8450  178.4840  140.8520 C   0  0  0  0  0  2  0  0  0  0  0  0
  181.0240  178.5840  138.6440 C   0  0  2  0  0  3  0  0  0  0  0  0
  180.7720  177.8620  139.9550 C   0  0  1  0  0  3  0  0  0  0  0  0
  182.5340  176.1080  139.3520 C   0  0  0  0  0  2  0  0  0  0  0  0
  181.0760  176.3590  139.7820 C   0  0  0  0  0  2  0  0  0  0  0  0
  182.8910  179.0310  139.9700 N   0  0  0  0  0  0  0  0  0  0  0  0
  183.0220  177.1270  138.3040 C   0  0  0  0  0  2  0  0  0  0  0  0
  180.3420  177.9720  137.4230 C   0  0  0  0  0  1  0  0  0  0  0  0
  182.5380  178.5760  138.6100 C   0  0  1  0  0  3  0  0  0  0  0  0
  191.3530  178.0370  140.9460 C   0  0  0  0  0  2  0  0  0  0  0  0
  191.6540  177.1230  139.7730 C   0  0  0  0  0  2  0  0  0  0  0  0
  190.3700  176.4620  139.3060 C   0  0  0  0  0  2  0  0  0  0  0  0
  190.3950  175.9160  136.9030 N   0  0  0  0  0  0  0  0  0  0  0  0
  190.1230  176.7560  137.8620 C   0  0  0  0  0  0  0  0  0  0  0  0
  190.9610  174.6010  137.0190 C   0  0  0  0  0  0  0  0  0  0  0  0
  190.2600  173.6050  137.3480 O   0  0  0  0  0  0  0  0  0  0  0  0
  193.0690  175.7470  136.4540 C   0  0  0  0  0  1  0  0  0  0  0  0
  192.4030  174.4020  136.6950 C   0  0  0  0  0  2  0  0  0  0  0  0
  189.4650  178.0490  137.5270 C   0  0  0  0  0  2  0  0  0  0  0  0
  188.8750  177.9980  136.1270 C   0  0  0  0  0  2  0  0  0  0  0  0
  185.7320  175.9960  135.7250 N   0  0  0  0  0  0  0  0  0  0  0  0
  186.6640  177.6220  137.3000 C   0  0  0  0  0  2  0  0  0  0  0  0
  187.3920  178.3460  136.1600 C   0  0  0  0  0  3  0  0  0  0  0  0
  186.4820  176.1390  136.9700 C   0  0  0  0  0  2  0  0  0  0  0  0
  185.5940  174.5710  135.4840 C   0  0  0  0  0  1  0  0  0  0  0  0
  186.5440  176.5300  134.6340 C   0  0  0  0  0  2  0  0  0  0  0  0
  186.7370  178.0370  134.8130 C   0  0  0  0  0  2  0  0  0  0  0  0
  2 14  1  6  0  0  0
  2  6  1  0  0  0  0
  3  5  1  1  0  0  0
  3  2  1  0  0  0  0
  4  3  1  0  0  0  0
  4  7  1  1  0  0  0
  6  1  1  6  0  0  0
  7  6  1  0  0  0  0
  8 34  1  6  0  0  0
  8  4  1  0  0  0  0
  8  1  1  0  0  0  0
  9 11  1  0  0  0  0
 11 10  1  6  0  0  0
 11 12  1  0  0  0  0
 12 13  2  0  0  0  0
 13 18  1  0  0  0  0
 14  9  1  6  0  0  0
 14 13  1  0  0  0  0
 16 17  1  0  0  0  0
 17 15  2  0  0  0  0
 18 16  2  0  0  0  0
 18 20  1  0  0  0  0
 19 15  1  0  0  0  0
 20 19  2  0  0  0  0
 21 11  1  0  0  0  0
 22 21  1  0  0  0  0
 23 24  1  1  0  0  0
 23 22  1  0  0  0  0
 26 32  1  6  0  0  0
 26 27  1  0  0  0  0
 27 29  1  6  0  0  0
 27 25  1  0  0  0  0
 28 29  1  0  0  0  0
 30 23  1  0  0  0  0
 30 25  1  0  0  0  0
 31 28  1  0  0  0  0
 33 31  1  1  0  0  0
 33 26  1  0  0  0  0
 33 30  1  0  0  0  0
 35 34  1  0  0  0  0
 36 35  1  0  0  0  0
 37 39  1  0  0  0  0
 37 38  2  0  0  0  0
 38 36  1  0  0  0  0
 39 40  2  0  0  0  0
 41 42  1  0  0  0  0
 42 39  1  0  0  0  0
 43 38  1  0  0  0  0
 44 47  1  0  0  0  0
 44 43  1  0  0  0  0
 45 48  1  0  0  0  0
 47 46  1  0  0  0  0
 48 46  1  0  0  0  0
 49 45  1  0  0  0  0
 50 51  1  0  0  0  0
 50 45  1  0  0  0  0
 51 47  1  0  0  0  0
M  END
>  <MODEL>
7

>  <REMARK>
 VINA RESULT:      -5.8      2.164      7.673
  Name = 
  15 active torsions:
  status: ('A' for Active; 'I' for Inactive)
    1  A    between atoms: N_3  and  C_20
    2  A    between atoms: C_5  and  C_50
    3  A    between atoms: C_7  and  C_26
    4  A    between atoms: C_7  and  C_41
    5  A    between atoms: N_13  and  C_17
    6  A    between atoms: N_13  and  C_48
    7  A    between atoms: C_14  and  C_48
    8  A    between atoms: C_17  and  N_36
    9  A    between atoms: C_19  and  C_24
   10  A    between atoms: C_19  and  C_33
   11  A    between atoms: C_20  and  C_38
   12  A    between atoms: C_24  and  C_29
   13  A    between atoms: C_26  and  C_33
   14  A    between atoms: C_30  and  C_41
   15  A    between atoms: C_32  and  C_43
                            x       y       z     vdW  Elec       q    Type
                         _______ _______ _______ _____ _____    ______ ____

>  <TORSDO>
F 15

$$$$
=
 OpenBabel10232408533D

 51 57  0  0  1  0  0  0  0  0999 V2000
  189.3230  177.5510  139.1830 C   0  0  0  0  0  2  0  0  0  0  0  0
  189.1610  176.8020  136.8040 C   0  0  1  0  0  3  0  0  0  0  0  0
  187.8160  177.5110  136.7270 C   0  0  1  0  0  3  0  0  0  0  0  0
  188.1140  178.7650  137.5700 C   0  0  2  0  0  3  0  0  0  0  0  0
  187.5300  177.9040  135.2900 C   0  0  0  0  0  1  0  0  0  0  0  0
  189.9220  177.6990  137.7770 C   0  0  1  0  0  3  0  0  0  0  0  0
  189.4870  178.9680  137.3790 O   0  0  0  0  0  0  0  0  0  0  0  0
  188.0700  178.4020  139.0570 C   0  0  1  0  0  3  0  0  0  0  0  0
  187.5300  174.4840  136.9740 S   0  0  0  0  0  0  0  0  0  0  0  0
  187.5400  174.2950  134.3460 O   0  0  0  0  0  1  0  0  0  0  0  0
  188.0710  173.6370  135.4580 C   0  0  1  0  0  0  0  0  0  0  0  0
  189.5570  173.7150  135.4260 C   0  0  0  0  0  3  0  0  0  0  0  0
  190.1130  174.5630  136.2760 C   0  0  0  0  0  0  0  0  0  0  0  0
  189.1590  175.3000  137.1550 C   0  0  1  0  0  3  0  0  0  0  0  0
  194.3390  175.0630  136.5450 C   0  0  0  0  0  3  0  0  0  0  0  0
  192.2330  174.5750  137.6040 C   0  0  0  0  0  3  0  0  0  0  0  0
  193.6160  174.7390  137.6930 C   0  0  0  0  0  3  0  0  0  0  0  0
  191.5800  174.7350  136.3740 C   0  0  0  0  0  0  0  0  0  0  0  0
  193.6970  175.2140  135.3550 N   0  0  0  0  0  0  0  0  0  0  0  0
  192.3500  175.0590  135.2480 C   0  0  0  0  0  3  0  0  0  0  0  0
  187.5870  172.1900  135.4980 C   0  0  0  0  0  2  0  0  0  0  0  0
  186.5730  171.9330  134.4790 N   0  0  0  0  0  2  0  0  0  0  0  0
  185.4780  171.1950  135.0990 C   0  0  2  0  0  3  0  0  0  0  0  0
  185.6010  169.8400  134.7730 O   0  0  0  0  0  1  0  0  0  0  0  0
  184.2350  173.1730  134.4440 C   0  0  0  0  0  2  0  0  0  0  0  0
  182.0700  172.5310  135.1240 C   0  0  2  0  0  3  0  0  0  0  0  0
  182.9820  173.7430  135.1160 C   0  0  1  0  0  3  0  0  0  0  0  0
  184.0330  172.9920  137.3250 C   0  0  0  0  0  2  0  0  0  0  0  0
  183.3300  174.1350  136.5670 C   0  0  0  0  0  2  0  0  0  0  0  0
  184.1920  171.7090  134.6080 N   0  0  0  0  0  0  0  0  0  0  0  0
  183.4140  171.6150  137.0170 C   0  0  0  0  0  2  0  0  0  0  0  0
  180.8410  172.6470  136.0220 C   0  0  0  0  0  1  0  0  0  0  0  0
  183.0530  171.4460  135.5100 C   0  0  1  0  0  3  0  0  0  0  0  0
  186.8130  177.6510  139.4760 C   0  0  0  0  0  2  0  0  0  0  0  0
  185.9790  178.4970  140.4210 C   0  0  0  0  0  2  0  0  0  0  0  0
  186.8580  179.0080  141.5490 C   0  0  0  0  0  2  0  0  0  0  0  0
  186.0150  178.0070  143.6380 N   0  0  0  0  0  0  0  0  0  0  0  0
  186.8920  178.0240  142.6740 C   0  0  0  0  0  0  0  0  0  0  0  0
  184.8900  178.8820  143.8200 C   0  0  0  0  0  0  0  0  0  0  0  0
  184.9870  179.9570  144.4730 O   0  0  0  0  0  0  0  0  0  0  0  0
  182.4410  178.9370  144.0890 C   0  0  0  0  0  1  0  0  0  0  0  0
  183.5900  178.5350  143.1790 C   0  0  0  0  0  2  0  0  0  0  0  0
  187.9460  176.9730  142.6350 C   0  0  0  0  0  2  0  0  0  0  0  0
  188.3930  176.6170  144.0440 C   0  0  0  0  0  2  0  0  0  0  0  0
  191.1260  176.9990  146.5800 N   0  0  0  0  0  0  0  0  0  0  0  0
  190.5450  177.9060  144.3820 C   0  0  0  0  0  2  0  0  0  0  0  0
  189.0500  177.8190  144.7130 C   0  0  0  0  0  3  0  0  0  0  0  0
  191.3320  176.8380  145.1430 C   0  0  0  0  0  2  0  0  0  0  0  0
  191.9050  175.9610  147.2310 C   0  0  0  0  0  1  0  0  0  0  0  0
  189.7230  176.7210  146.8790 C   0  0  0  0  0  2  0  0  0  0  0  0
  188.8290  177.7780  146.2270 C   0  0  0  0  0  2  0  0  0  0  0  0
  2 14  1  1  0  0  0
  2  6  1  0  0  0  0
  3  5  1  6  0  0  0
  3  2  1  0  0  0  0
  3  4  1  0  0  0  0
  4  7  1  6  0  0  0
  4  8  1  0  0  0  0
  6  1  1  1  0  0  0
  7  6  1  0  0  0  0
  8  1  1  0  0  0  0
  8 34  1  6  0  0  0
  9 14  1  0  0  0  0
 11 10  1  6  0  0  0
 11 21  1  0  0  0  0
 11  9  1  0  0  0  0
 12 11  1  0  0  0  0
 12 13  2  0  0  0  0
 13 18  1  0  0  0  0
 14 13  1  6  0  0  0
 15 17  1  0  0  0  0
 16 17  2  0  0  0  0
 18 16  1  0  0  0  0
 19 15  2  0  0  0  0
 20 19  1  0  0  0  0
 20 18  2  0  0  0  0
 22 23  1  0  0  0  0
 22 21  1  0  0  0  0
 23 24  1  6  0  0  0
 25 30  1  0  0  0  0
 26 33  1  0  0  0  0
 26 32  1  1  0  0  0
 27 25  1  6  0  0  0
 27 26  1  0  0  0  0
 27 29  1  0  0  0  0
 29 28  1  0  0  0  0
 30 23  1  0  0  0  0
 30 33  1  0  0  0  0
 31 28  1  0  0  0  0
 33 31  1  1  0  0  0
 34 35  1  0  0  0  0
 35 36  1  0  0  0  0
 36 38  1  0  0  0  0
 37 39  1  0  0  0  0
 38 37  2  0  0  0  0
 39 40  2  0  0  0  0
 42 39  1  0  0  0  0
 42 41  1  0  0  0  0
 43 38  1  0  0  0  0
 43 44  1  0  0  0  0
 44 47  1  0  0  0  0
 45 50  1  0  0  0  0
 45 49  1  0  0  0  0
 46 47  1  0  0  0  0
 46 48  1  0  0  0  0
 47 51  1  0  0  0  0
 48 45  1  0  0  0  0
 51 50  1  0  0  0  0
M  END
>  <MODEL>
8

>  <REMARK>
 VINA RESULT:      -5.7      2.466      5.263
  Name = 
  15 active torsions:
  status: ('A' for Active; 'I' for Inactive)
    1  A    between atoms: N_3  and  C_20
    2  A    between atoms: C_5  and  C_50
    3  A    between atoms: C_7  and  C_26
    4  A    between atoms: C_7  and  C_41
    5  A    between atoms: N_13  and  C_17
    6  A    between atoms: N_13  and  C_48
    7  A    between atoms: C_14  and  C_48
    8  A    between atoms: C_17  and  N_36
    9  A    between atoms: C_19  and  C_24
   10  A    between atoms: C_19  and  C_33
   11  A    between atoms: C_20  and  C_38
   12  A    between atoms: C_24  and  C_29
   13  A    between atoms: C_26  and  C_33
   14  A    between atoms: C_30  and  C_41
   15  A    between atoms: C_32  and  C_43
                            x       y       z     vdW  Elec       q    Type
                         _______ _______ _______ _____ _____    ______ ____

>  <TORSDO>
F 15

$$$$
=
 OpenBabel10232408533D

 51 57  0  0  1  0  0  0  0  0999 V2000
  186.9990  173.7630  136.2440 C   0  0  0  0  0  2  0  0  0  0  0  0
  186.6360  176.2340  136.1460 C   0  0  1  0  0  3  0  0  0  0  0  0
  187.8470  176.3230  135.2270 C   0  0  1  0  0  3  0  0  0  0  0  0
  187.6500  175.0480  134.3840 C   0  0  2  0  0  3  0  0  0  0  0  0
  187.7300  177.5530  134.3480 C   0  0  0  0  0  1  0  0  0  0  0  0
  186.0590  174.8750  135.7570 C   0  0  1  0  0  3  0  0  0  0  0  0
  186.2600  174.8760  134.3720 O   0  0  0  0  0  0  0  0  0  0  0  0
  188.0960  173.8270  135.1940 C   0  0  1  0  0  3  0  0  0  0  0  0
  188.6270  176.4450  138.1580 S   0  0  0  0  0  0  0  0  0  0  0  0
  189.2190  178.8680  137.3060 O   0  0  0  0  0  1  0  0  0  0  0  0
  188.6070  178.2490  138.3980 C   0  0  1  0  0  0  0  0  0  0  0  0
  187.1780  178.6580  138.4720 C   0  0  0  0  0  3  0  0  0  0  0  0
  186.2920  177.7530  138.0880 C   0  0  0  0  0  0  0  0  0  0  0  0
  186.8670  176.4450  137.6560 C   0  0  1  0  0  3  0  0  0  0  0  0
  182.0920  178.4790  138.1840 C   0  0  0  0  0  3  0  0  0  0  0  0
  184.2850  178.8400  139.1090 C   0  0  0  0  0  3  0  0  0  0  0  0
  182.9100  179.0780  139.1420 C   0  0  0  0  0  3  0  0  0  0  0  0
  184.8350  178.0080  138.1240 C   0  0  0  0  0  0  0  0  0  0  0  0
  182.6350  177.6750  137.2310 N   0  0  0  0  0  0  0  0  0  0  0  0
  183.9720  177.4300  137.1820 C   0  0  0  0  0  3  0  0  0  0  0  0
  189.3530  178.5870  139.6860 C   0  0  0  0  0  2  0  0  0  0  0  0
  189.4070  177.4450  140.5930 N   0  0  0  0  0  2  0  0  0  0  0  0
  190.7290  177.4110  141.2080 C   0  0  2  0  0  3  0  0  0  0  0  0
  191.6610  176.9780  140.2590 O   0  0  0  0  0  1  0  0  0  0  0  0
  189.3760  176.3910  142.9450 C   0  0  0  0  0  2  0  0  0  0  0  0
  190.9930  176.1940  144.6500 C   0  0  2  0  0  3  0  0  0  0  0  0
  189.5330  176.5610  144.4590 C   0  0  1  0  0  3  0  0  0  0  0  0
  190.1880  178.9810  143.9490 C   0  0  0  0  0  2  0  0  0  0  0  0
  189.3240  178.0470  144.8190 C   0  0  0  0  0  2  0  0  0  0  0  0
  190.7220  176.4880  142.3520 N   0  0  0  0  0  0  0  0  0  0  0  0
  191.6070  178.4270  143.7200 C   0  0  0  0  0  2  0  0  0  0  0  0
  191.5860  176.5700  146.0060 C   0  0  0  0  0  1  0  0  0  0  0  0
  191.6140  176.8900  143.4580 C   0  0  1  0  0  3  0  0  0  0  0  0
  189.4830  173.9620  135.8090 C   0  0  0  0  0  2  0  0  0  0  0  0
  190.4470  172.9830  135.1660 C   0  0  0  0  0  2  0  0  0  0  0  0
  191.7690  173.0110  135.9130 C   0  0  0  0  0  2  0  0  0  0  0  0
  193.4820  174.1300  134.5400 N   0  0  0  0  0  0  0  0  0  0  0  0
  192.9140  173.0320  134.9520 C   0  0  0  0  0  0  0  0  0  0  0  0
  193.1470  175.4820  134.8950 C   0  0  0  0  0  0  0  0  0  0  0  0
  192.1320  176.0590  134.4180 O   0  0  0  0  0  0  0  0  0  0  0  0
  193.2920  176.2370  137.2360 C   0  0  0  0  0  1  0  0  0  0  0  0
  193.9940  176.2010  135.8880 C   0  0  0  0  0  2  0  0  0  0  0  0
  193.4680  171.7210  134.5140 C   0  0  0  0  0  2  0  0  0  0  0  0
  193.2770  170.6760  135.6010 C   0  0  0  0  0  2  0  0  0  0  0  0
  196.5840  171.5440  137.1380 N   0  0  0  0  0  0  0  0  0  0  0  0
  194.9020  169.7740  137.3190 C   0  0  0  0  0  2  0  0  0  0  0  0
  194.5700  169.9010  135.8270 C   0  0  0  0  0  3  0  0  0  0  0  0
  195.4030  171.1070  137.8780 C   0  0  0  0  0  2  0  0  0  0  0  0
  197.0020  172.8020  137.7260 C   0  0  0  0  0  1  0  0  0  0  0  0
  196.1840  171.8360  135.7630 C   0  0  0  0  0  2  0  0  0  0  0  0
  195.7270  170.5520  135.0660 C   0  0  0  0  0  2  0  0  0  0  0  0
  2 14  1  1  0  0  0
  3  5  1  6  0  0  0
  3  2  1  0  0  0  0
  4  7  1  1  0  0  0
  4  8  1  0  0  0  0
  4  3  1  0  0  0  0
  6  2  1  0  0  0  0
  6  1  1  1  0  0  0
  7  6  1  0  0  0  0
  8 34  1  1  0  0  0
  8  1  1  0  0  0  0
  9 11  1  0  0  0  0
 11 10  1  6  0  0  0
 11 12  1  0  0  0  0
 11 21  1  0  0  0  0
 13 18  1  0  0  0  0
 13 12  2  0  0  0  0
 14 13  1  6  0  0  0
 14  9  1  0  0  0  0
 15 17  1  0  0  0  0
 16 17  2  0  0  0  0
 18 16  1  0  0  0  0
 19 15  2  0  0  0  0
 20 19  1  0  0  0  0
 20 18  2  0  0  0  0
 21 22  1  0  0  0  0
 22 23  1  0  0  0  0
 23 24  1  6  0  0  0
 23 30  1  0  0  0  0
 26 32  1  1  0  0  0
 27 25  1  6  0  0  0
 27 26  1  0  0  0  0
 27 29  1  0  0  0  0
 28 29  1  0  0  0  0
 30 25  1  0  0  0  0
 30 33  1  0  0  0  0
 31 28  1  0  0  0  0
 33 31  1  1  0  0  0
 33 26  1  0  0  0  0
 35 34  1  0  0  0  0
 35 36  1  0  0  0  0
 37 39  1  0  0  0  0
 37 38  2  0  0  0  0
 38 36  1  0  0  0  0
 39 42  1  0  0  0  0
 40 39  2  0  0  0  0
 42 41  1  0  0  0  0
 43 38  1  0  0  0  0
 43 44  1  0  0  0  0
 44 47  1  0  0  0  0
 45 49  1  0  0  0  0
 45 48  1  0  0  0  0
 46 48  1  0  0  0  0
 47 46  1  0  0  0  0
 50 45  1  0  0  0  0
 51 50  1  0  0  0  0
 51 47  1  0  0  0  0
M  END
>  <MODEL>
9

>  <REMARK>
 VINA RESULT:      -5.7      3.073     10.723
  Name = 
  15 active torsions:
  status: ('A' for Active; 'I' for Inactive)
    1  A    between atoms: N_3  and  C_20
    2  A    between atoms: C_5  and  C_50
    3  A    between atoms: C_7  and  C_26
    4  A    between atoms: C_7  and  C_41
    5  A    between atoms: N_13  and  C_17
    6  A    between atoms: N_13  and  C_48
    7  A    between atoms: C_14  and  C_48
    8  A    between atoms: C_17  and  N_36
    9  A    between atoms: C_19  and  C_24
   10  A    between atoms: C_19  and  C_33
   11  A    between atoms: C_20  and  C_38
   12  A    between atoms: C_24  and  C_29
   13  A    between atoms: C_26  and  C_33
   14  A    between atoms: C_30  and  C_41
   15  A    between atoms: C_32  and  C_43
                            x       y       z     vdW  Elec       q    Type
                         _______ _______ _______ _____ _____    ______ ____

>  <TORSDO>
F 15

$$$$
