=
 OpenBabel10232411593D

 41 44  0  0  1  0  0  0  0  0999 V2000
  190.5320  176.7160  138.2760 N   0  0  0  0  0  0  0  0  0  0  0  0
  188.9350  178.0580  137.2320 O   0  0  0  0  0  1  0  0  0  0  0  0
  189.8220  177.9860  138.3090 C   0  0  1  0  0  3  0  0  0  0  0  0
  188.2860  178.9030  139.9580 N   0  0  0  0  0  0  0  0  0  0  0  0
  189.0600  177.9290  139.5760 C   0  0  0  0  0  0  0  0  0  0  0  0
  190.2460  175.8650  139.4270 C   0  0  0  0  0  2  0  0  0  0  0  0
  189.3190  176.6650  140.3380 C   0  0  1  0  0  3  0  0  0  0  0  0
  189.3970  176.5360  142.8970 C   0  0  0  0  0  0  0  0  0  0  0  0
  191.9580  177.6950  145.2480 F   0  0  0  0  0  0  0  0  0  0  0  0
  188.1840  175.9280  142.9360 F   0  0  0  0  0  0  0  0  0  0  0  0
  189.5130  176.4180  145.2790 F   0  0  0  0  0  0  0  0  0  0  0  0
  191.3100  177.4390  144.0860 C   0  0  0  0  0  0  0  0  0  0  0  0
  190.0670  176.7950  144.0990 C   0  0  0  0  0  0  0  0  0  0  0  0
  189.9850  176.9050  141.6680 C   0  0  0  0  0  0  0  0  0  0  0  0
  191.8820  177.8240  142.8720 C   0  0  0  0  0  3  0  0  0  0  0  0
  191.2200  177.5620  141.6710 C   0  0  0  0  0  3  0  0  0  0  0  0
  191.5110  176.3750  137.2800 C   0  0  0  0  0  0  0  0  0  0  0  0
  192.0980  175.9490  134.9600 C   0  0  0  0  0  3  0  0  0  0  0  0
  192.8420  176.1160  137.6460 C   0  0  0  0  0  3  0  0  0  0  0  0
  193.4180  175.6980  135.3370 C   0  0  0  0  0  3  0  0  0  0  0  0
  193.8000  175.7820  136.6840 C   0  0  0  0  0  0  0  0  0  0  0  0
  191.1490  176.2870  135.9270 C   0  0  0  0  0  3  0  0  0  0  0  0
  194.8330  173.4290  138.1210 O   0  0  0  0  0  0  0  0  0  0  0  0
  195.1460  175.5250  137.1090 N   0  0  0  0  0  2  0  0  0  0  0  0
  195.6150  174.3710  137.8230 C   0  0  0  0  0  0  0  0  0  0  0  0
  196.9810  174.2870  138.2180 N   0  0  0  0  0  2  0  0  0  0  0  0
  197.8810  175.3230  137.9400 N   0  0  0  0  0  2  0  0  0  0  0  0
  199.4630  174.9560  139.3830 C   0  0  0  0  0  1  0  0  0  0  0  0
  198.3530  175.7590  139.1300 O   0  0  0  0  0  0  0  0  0  0  0  0
  187.4420  178.9160  141.1200 C   0  0  0  0  0  0  0  0  0  0  0  0
  187.9410  179.0190  142.2740 O   0  0  0  0  0  0  0  0  0  0  0  0
  185.4190  178.5990  139.6980 C   0  0  0  0  0  3  0  0  0  0  0  0
  183.7580  178.6860  141.9530 C   0  0  0  0  0  0  0  0  0  0  0  0
  183.1860  178.5080  140.6670 C   0  0  0  0  0  0  0  0  0  0  0  0
  184.0370  178.4710  139.5530 C   0  0  0  0  0  3  0  0  0  0  0  0
  185.1440  178.8100  142.0860 C   0  0  0  0  0  3  0  0  0  0  0  0
  182.9440  178.7640  143.1990 C   0  0  0  0  0  1  0  0  0  0  0  0
  185.9830  178.7660  140.9660 C   0  0  0  0  0  0  0  0  0  0  0  0
  180.9920  179.4890  140.2530 O   0  0  0  0  0  0  0  0  0  0  0  0
  181.7660  178.3690  140.4530 N   0  0  0  0  0  0  0  0  0  0  0  0
  181.2220  177.2480  140.3760 O   0  0  0  0  0  0  0  0  0  0  0  0
  1  3  1  0  0  0  0
  1  6  1  0  0  0  0
  3  2  1  6  0  0  0
  3  5  1  0  0  0  0
  4 30  1  0  0  0  0
  5  4  2  0  0  0  0
  5  7  1  0  0  0  0
  6  7  1  0  0  0  0
  7 14  1  1  0  0  0
  8 10  1  0  0  0  0
  8 13  1  0  0  0  0
 12 13  2  0  0  0  0
 12  9  1  0  0  0  0
 13 11  1  0  0  0  0
 14 16  1  0  0  0  0
 14  8  2  0  0  0  0
 15 12  1  0  0  0  0
 16 15  2  0  0  0  0
 17 19  1  0  0  0  0
 17  1  1  0  0  0  0
 18 20  2  0  0  0  0
 18 22  1  0  0  0  0
 20 21  1  0  0  0  0
 21 24  1  0  0  0  0
 21 19  2  0  0  0  0
 22 17  2  0  0  0  0
 24 25  1  0  0  0  0
 25 23  2  0  0  0  0
 25 26  1  0  0  0  0
 27 26  1  0  0  0  0
 27 29  1  0  0  0  0
 29 28  1  0  0  0  0
 30 31  2  0  0  0  0
 32 38  1  0  0  0  0
 33 36  1  0  0  0  0
 33 37  1  0  0  0  0
 34 33  2  0  0  0  0
 35 32  2  0  0  0  0
 35 34  1  0  0  0  0
 38 30  1  0  0  0  0
 38 36  2  0  0  0  0
 39 40  2  0  0  0  0
 40 34  1  0  0  0  0
 41 40  2  0  0  0  0
M  END
>  <MODEL>
1

>  <REMARK>
 VINA RESULT:      -8.3      0.000      0.000
  Name = 
  8 active torsions:
  status: ('A' for Active; 'I' for Inactive)
    1  A    between atoms: N_4  and  C_19
    2  A    between atoms: N_5  and  C_15
    3  A    between atoms: N_12  and  C_35
    4  A    between atoms: C_17  and  C_40
    5  A    between atoms: O_18  and  N_21
    6  A    between atoms: N_21  and  N_41
    7  A    between atoms: N_25  and  C_32
    8  A    between atoms: C_35  and  C_38
                            x       y       z     vdW  Elec       q    Type
                         _______ _______ _______ _____ _____    ______ ____

>  <TORSDO>
F 8

$$$$
=
 OpenBabel10232411593D

 41 44  0  0  1  0  0  0  0  0999 V2000
  191.0430  176.2340  137.4190 N   0  0  0  0  0  0  0  0  0  0  0  0
  191.6210  177.0110  139.5410 O   0  0  0  0  0  1  0  0  0  0  0  0
  190.6560  176.3040  138.8200 C   0  0  1  0  0  3  0  0  0  0  0  0
  188.7330  177.3490  139.8840 N   0  0  0  0  0  0  0  0  0  0  0  0
  189.3920  177.0720  138.7960 C   0  0  0  0  0  0  0  0  0  0  0  0
  190.1160  176.9250  136.5280 C   0  0  0  0  0  2  0  0  0  0  0  0
  188.9780  177.4410  137.4030 C   0  0  1  0  0  3  0  0  0  0  0  0
  186.7000  177.4830  136.2260 C   0  0  0  0  0  0  0  0  0  0  0  0
  184.1210  174.8920  135.9730 F   0  0  0  0  0  0  0  0  0  0  0  0
  186.8970  178.7630  135.8210 F   0  0  0  0  0  0  0  0  0  0  0  0
  184.5810  177.4780  135.1280 F   0  0  0  0  0  0  0  0  0  0  0  0
  185.2750  175.5210  136.3040 C   0  0  0  0  0  0  0  0  0  0  0  0
  185.5090  176.8340  135.8800 C   0  0  0  0  0  0  0  0  0  0  0  0
  187.6770  176.8050  136.9880 C   0  0  0  0  0  0  0  0  0  0  0  0
  186.2310  174.8570  137.0750 C   0  0  0  0  0  3  0  0  0  0  0  0
  187.4230  175.4980  137.4180 C   0  0  0  0  0  3  0  0  0  0  0  0
  192.1560  175.4610  136.9360 C   0  0  0  0  0  0  0  0  0  0  0  0
  193.0640  173.8000  135.4120 C   0  0  0  0  0  3  0  0  0  0  0  0
  193.4260  175.5940  137.5210 C   0  0  0  0  0  3  0  0  0  0  0  0
  194.3220  173.9440  135.9990 C   0  0  0  0  0  3  0  0  0  0  0  0
  194.5120  174.8450  137.0580 C   0  0  0  0  0  0  0  0  0  0  0  0
  191.9860  174.5560  135.8770 C   0  0  0  0  0  3  0  0  0  0  0  0
  195.6820  173.2610  139.2460 O   0  0  0  0  0  0  0  0  0  0  0  0
  195.7890  175.0160  137.6900 N   0  0  0  0  0  2  0  0  0  0  0  0
  196.3250  174.2330  138.7670 C   0  0  0  0  0  0  0  0  0  0  0  0
  197.5950  174.5620  139.3210 N   0  0  0  0  0  2  0  0  0  0  0  0
  198.3320  175.6540  138.8460 N   0  0  0  0  0  2  0  0  0  0  0  0
  199.9560  174.2800  138.4030 C   0  0  0  0  0  1  0  0  0  0  0  0
  199.6280  175.4100  139.1490 O   0  0  0  0  0  0  0  0  0  0  0  0
  187.5490  178.1550  139.9830 C   0  0  0  0  0  0  0  0  0  0  0  0
  187.1030  178.7660  138.9740 O   0  0  0  0  0  0  0  0  0  0  0  0
  185.7260  179.0960  141.3990 C   0  0  0  0  0  3  0  0  0  0  0  0
  186.7650  177.8250  143.6700 C   0  0  0  0  0  0  0  0  0  0  0  0
  185.5960  178.6190  143.7850 C   0  0  0  0  0  0  0  0  0  0  0  0
  185.0970  179.2500  142.6350 C   0  0  0  0  0  3  0  0  0  0  0  0
  187.3850  177.6760  142.4260 C   0  0  0  0  0  3  0  0  0  0  0  0
  187.3920  177.1310  144.8310 C   0  0  0  0  0  1  0  0  0  0  0  0
  186.8730  178.3050  141.2850 C   0  0  0  0  0  0  0  0  0  0  0  0
  185.5110  179.5030  146.0570 O   0  0  0  0  0  0  0  0  0  0  0  0
  184.9000  178.8150  145.0330 N   0  0  0  0  0  0  0  0  0  0  0  0
  183.7220  178.4330  145.1920 O   0  0  0  0  0  0  0  0  0  0  0  0
  1  3  1  0  0  0  0
  3  2  1  1  0  0  0
  4 30  1  0  0  0  0
  5  3  1  0  0  0  0
  5  4  2  0  0  0  0
  6  7  1  0  0  0  0
  6  1  1  0  0  0  0
  7 14  1  6  0  0  0
  7  5  1  0  0  0  0
  8 14  1  0  0  0  0
  9 12  1  0  0  0  0
 10  8  1  0  0  0  0
 11 13  1  0  0  0  0
 12 15  2  0  0  0  0
 13  8  2  0  0  0  0
 13 12  1  0  0  0  0
 14 16  2  0  0  0  0
 15 16  1  0  0  0  0
 17  1  1  0  0  0  0
 17 19  1  0  0  0  0
 18 22  1  0  0  0  0
 18 20  2  0  0  0  0
 20 21  1  0  0  0  0
 21 19  2  0  0  0  0
 21 24  1  0  0  0  0
 22 17  2  0  0  0  0
 24 25  1  0  0  0  0
 25 23  2  0  0  0  0
 25 26  1  0  0  0  0
 27 29  1  0  0  0  0
 27 26  1  0  0  0  0
 28 29  1  0  0  0  0
 30 38  1  0  0  0  0
 31 30  2  0  0  0  0
 32 35  1  0  0  0  0
 33 34  1  0  0  0  0
 33 37  1  0  0  0  0
 34 40  1  0  0  0  0
 35 34  2  0  0  0  0
 36 33  2  0  0  0  0
 38 32  2  0  0  0  0
 38 36  1  0  0  0  0
 40 41  2  0  0  0  0
 40 39  2  0  0  0  0
M  END
>  <MODEL>
2

>  <REMARK>
 VINA RESULT:      -8.0      3.550      4.935
  Name = 
  8 active torsions:
  status: ('A' for Active; 'I' for Inactive)
    1  A    between atoms: N_4  and  C_19
    2  A    between atoms: N_5  and  C_15
    3  A    between atoms: N_12  and  C_35
    4  A    between atoms: C_17  and  C_40
    5  A    between atoms: O_18  and  N_21
    6  A    between atoms: N_21  and  N_41
    7  A    between atoms: N_25  and  C_32
    8  A    between atoms: C_35  and  C_38
                            x       y       z     vdW  Elec       q    Type
                         _______ _______ _______ _____ _____    ______ ____

>  <TORSDO>
F 8

$$$$
=
 OpenBabel10232411593D

 41 44  0  0  1  0  0  0  0  0999 V2000
  190.6840  176.7380  137.7030 N   0  0  0  0  0  0  0  0  0  0  0  0
  191.2430  177.5280  139.8250 O   0  0  0  0  0  1  0  0  0  0  0  0
  190.3250  176.7530  139.1130 C   0  0  1  0  0  3  0  0  0  0  0  0
  188.3470  177.6130  140.2390 N   0  0  0  0  0  0  0  0  0  0  0  0
  189.0000  177.4110  139.1310 C   0  0  0  0  0  0  0  0  0  0  0  0
  189.6800  177.3620  136.8460 C   0  0  0  0  0  2  0  0  0  0  0  0
  188.5230  177.7650  137.7550 C   0  0  1  0  0  3  0  0  0  0  0  0
  187.1800  175.6180  137.3590 C   0  0  0  0  0  0  0  0  0  0  0  0
  183.7400  175.1630  136.1810 F   0  0  0  0  0  0  0  0  0  0  0  0
  188.2350  174.8500  137.7320 F   0  0  0  0  0  0  0  0  0  0  0  0
  185.8920  173.6410  136.9940 F   0  0  0  0  0  0  0  0  0  0  0  0
  184.8930  175.7640  136.5610 C   0  0  0  0  0  0  0  0  0  0  0  0
  185.9880  174.9940  136.9710 C   0  0  0  0  0  0  0  0  0  0  0  0
  187.2720  177.0260  137.3570 C   0  0  0  0  0  0  0  0  0  0  0  0
  184.9900  177.1560  136.5390 C   0  0  0  0  0  3  0  0  0  0  0  0
  186.1750  177.7830  136.9310 C   0  0  0  0  0  3  0  0  0  0  0  0
  191.8460  176.0710  137.1810 C   0  0  0  0  0  0  0  0  0  0  0  0
  192.9430  174.8310  135.4020 C   0  0  0  0  0  3  0  0  0  0  0  0
  193.0250  175.9900  137.9410 C   0  0  0  0  0  3  0  0  0  0  0  0
  194.1090  174.7600  136.1660 C   0  0  0  0  0  3  0  0  0  0  0  0
  194.1590  175.3420  137.4420 C   0  0  0  0  0  0  0  0  0  0  0  0
  191.8170  175.4850  135.9070 C   0  0  0  0  0  3  0  0  0  0  0  0
  195.1490  173.0800  139.0440 O   0  0  0  0  0  0  0  0  0  0  0  0
  195.3370  175.2850  138.2570 N   0  0  0  0  0  2  0  0  0  0  0  0
  195.7860  174.1680  139.0400 C   0  0  0  0  0  0  0  0  0  0  0  0
  196.9580  174.2850  139.8400 N   0  0  0  0  0  2  0  0  0  0  0  0
  197.6800  175.4840  139.8950 N   0  0  0  0  0  2  0  0  0  0  0  0
  199.6590  174.8680  139.2420 C   0  0  0  0  0  1  0  0  0  0  0  0
  198.4920  175.4990  138.8130 O   0  0  0  0  0  0  0  0  0  0  0  0
  187.1010  178.3130  140.3790 C   0  0  0  0  0  0  0  0  0  0  0  0
  186.5420  178.8330  139.3750 O   0  0  0  0  0  0  0  0  0  0  0  0
  185.3270  179.2180  141.8780 C   0  0  0  0  0  3  0  0  0  0  0  0
  186.5270  178.0160  144.1070 C   0  0  0  0  0  0  0  0  0  0  0  0
  185.3410  178.7750  144.2740 C   0  0  0  0  0  0  0  0  0  0  0  0
  184.7610  179.3710  143.1440 C   0  0  0  0  0  3  0  0  0  0  0  0
  187.0850  177.8680  142.8330 C   0  0  0  0  0  3  0  0  0  0  0  0
  187.2390  177.3620  145.2420 C   0  0  0  0  0  1  0  0  0  0  0  0
  186.4920  178.4620  141.7130 C   0  0  0  0  0  0  0  0  0  0  0  0
  183.3370  179.0800  145.6300 O   0  0  0  0  0  0  0  0  0  0  0  0
  184.7070  178.9680  145.5550 N   0  0  0  0  0  0  0  0  0  0  0  0
  185.3640  178.9720  146.6170 O   0  0  0  0  0  0  0  0  0  0  0  0
  1  3  1  0  0  0  0
  3  5  1  0  0  0  0
  3  2  1  1  0  0  0
  4 30  1  0  0  0  0
  5  4  2  0  0  0  0
  6  1  1  0  0  0  0
  6  7  1  0  0  0  0
  7 14  1  6  0  0  0
  7  5  1  0  0  0  0
  8 10  1  0  0  0  0
  9 12  1  0  0  0  0
 12 13  1  0  0  0  0
 13 11  1  0  0  0  0
 13  8  2  0  0  0  0
 14  8  1  0  0  0  0
 15 12  2  0  0  0  0
 15 16  1  0  0  0  0
 16 14  2  0  0  0  0
 17  1  1  0  0  0  0
 17 19  1  0  0  0  0
 18 22  1  0  0  0  0
 18 20  2  0  0  0  0
 20 21  1  0  0  0  0
 21 19  2  0  0  0  0
 21 24  1  0  0  0  0
 22 17  2  0  0  0  0
 24 25  1  0  0  0  0
 25 23  2  0  0  0  0
 25 26  1  0  0  0  0
 26 27  1  0  0  0  0
 29 28  1  0  0  0  0
 29 27  1  0  0  0  0
 30 38  1  0  0  0  0
 31 30  2  0  0  0  0
 32 35  1  0  0  0  0
 33 34  1  0  0  0  0
 33 37  1  0  0  0  0
 34 40  1  0  0  0  0
 35 34  2  0  0  0  0
 36 33  2  0  0  0  0
 38 32  2  0  0  0  0
 38 36  1  0  0  0  0
 40 39  2  0  0  0  0
 40 41  2  0  0  0  0
M  END
>  <MODEL>
3

>  <REMARK>
 VINA RESULT:      -7.9      3.138      4.728
  Name = 
  8 active torsions:
  status: ('A' for Active; 'I' for Inactive)
    1  A    between atoms: N_4  and  C_19
    2  A    between atoms: N_5  and  C_15
    3  A    between atoms: N_12  and  C_35
    4  A    between atoms: C_17  and  C_40
    5  A    between atoms: O_18  and  N_21
    6  A    between atoms: N_21  and  N_41
    7  A    between atoms: N_25  and  C_32
    8  A    between atoms: C_35  and  C_38
                            x       y       z     vdW  Elec       q    Type
                         _______ _______ _______ _____ _____    ______ ____

>  <TORSDO>
F 8

$$$$
=
 OpenBabel10232411593D

 41 44  0  0  1  0  0  0  0  0999 V2000
  190.4360  176.7420  138.1700 N   0  0  0  0  0  0  0  0  0  0  0  0
  188.9030  178.1480  137.1140 O   0  0  0  0  0  1  0  0  0  0  0  0
  189.7450  178.0220  138.2220 C   0  0  1  0  0  3  0  0  0  0  0  0
  188.1590  178.9040  139.8420 N   0  0  0  0  0  0  0  0  0  0  0  0
  188.9320  177.9320  139.4550 C   0  0  0  0  0  0  0  0  0  0  0  0
  190.0910  175.8550  139.2780 C   0  0  0  0  0  2  0  0  0  0  0  0
  189.1420  176.6370  140.1800 C   0  0  1  0  0  3  0  0  0  0  0  0
  190.9740  177.5030  141.7500 C   0  0  0  0  0  0  0  0  0  0  0  0
  191.3250  177.1780  145.3830 F   0  0  0  0  0  0  0  0  0  0  0  0
  191.6550  178.0460  140.7090 F   0  0  0  0  0  0  0  0  0  0  0  0
  192.6520  178.3080  143.2450 F   0  0  0  0  0  0  0  0  0  0  0  0
  190.8220  177.0610  144.1300 C   0  0  0  0  0  0  0  0  0  0  0  0
  191.4940  177.6300  143.0440 C   0  0  0  0  0  0  0  0  0  0  0  0
  189.7570  176.8180  141.5430 C   0  0  0  0  0  0  0  0  0  0  0  0
  189.6290  176.3650  143.9250 C   0  0  0  0  0  3  0  0  0  0  0  0
  189.1030  176.2410  142.6370 C   0  0  0  0  0  3  0  0  0  0  0  0
  191.4490  176.4210  137.2020 C   0  0  0  0  0  0  0  0  0  0  0  0
  192.1110  176.0240  134.8970 C   0  0  0  0  0  3  0  0  0  0  0  0
  192.7720  176.1730  137.6060 C   0  0  0  0  0  3  0  0  0  0  0  0
  193.4220  175.7820  135.3120 C   0  0  0  0  0  3  0  0  0  0  0  0
  193.7620  175.8570  136.6710 C   0  0  0  0  0  0  0  0  0  0  0  0
  191.1300  176.3430  135.8370 C   0  0  0  0  0  3  0  0  0  0  0  0
  194.7090  173.6680  138.3950 O   0  0  0  0  0  0  0  0  0  0  0  0
  195.0960  175.6100  137.1350 N   0  0  0  0  0  2  0  0  0  0  0  0
  195.5240  174.5390  137.9890 C   0  0  0  0  0  0  0  0  0  0  0  0
  196.8850  174.4580  138.4020 N   0  0  0  0  0  2  0  0  0  0  0  0
  197.8200  175.4210  138.0040 N   0  0  0  0  0  2  0  0  0  0  0  0
  199.4070  174.8710  139.3830 C   0  0  0  0  0  1  0  0  0  0  0  0
  198.4430  175.8460  139.1280 O   0  0  0  0  0  0  0  0  0  0  0  0
  187.2690  178.8900  140.9690 C   0  0  0  0  0  0  0  0  0  0  0  0
  187.7140  179.0460  142.1390 O   0  0  0  0  0  0  0  0  0  0  0  0
  184.9600  178.5750  141.8540 C   0  0  0  0  0  3  0  0  0  0  0  0
  183.9610  178.2180  139.2610 C   0  0  0  0  0  0  0  0  0  0  0  0
  183.0760  178.1530  140.3680 C   0  0  0  0  0  0  0  0  0  0  0  0
  183.6010  178.3300  141.6570 C   0  0  0  0  0  3  0  0  0  0  0  0
  185.3200  178.4650  139.4710 C   0  0  0  0  0  3  0  0  0  0  0  0
  183.5140  178.0190  137.8530 C   0  0  0  0  0  1  0  0  0  0  0  0
  185.8300  178.6480  140.7620 C   0  0  0  0  0  0  0  0  0  0  0  0
  181.2010  176.6120  140.1260 O   0  0  0  0  0  0  0  0  0  0  0  0
  181.6620  177.9050  140.2300 N   0  0  0  0  0  0  0  0  0  0  0  0
  180.8280  178.8330  140.2680 O   0  0  0  0  0  0  0  0  0  0  0  0
  1  3  1  0  0  0  0
  1  6  1  0  0  0  0
  3  2  1  6  0  0  0
  3  5  1  0  0  0  0
  4 30  1  0  0  0  0
  5  4  2  0  0  0  0
  5  7  1  0  0  0  0
  6  7  1  0  0  0  0
  7 14  1  1  0  0  0
  8 13  1  0  0  0  0
 10  8  1  0  0  0  0
 12  9  1  0  0  0  0
 13 11  1  0  0  0  0
 13 12  2  0  0  0  0
 14  8  2  0  0  0  0
 14 16  1  0  0  0  0
 15 12  1  0  0  0  0
 16 15  2  0  0  0  0
 17 19  1  0  0  0  0
 17  1  1  0  0  0  0
 18 20  2  0  0  0  0
 18 22  1  0  0  0  0
 20 21  1  0  0  0  0
 21 24  1  0  0  0  0
 21 19  2  0  0  0  0
 22 17  2  0  0  0  0
 24 25  1  0  0  0  0
 25 23  2  0  0  0  0
 25 26  1  0  0  0  0
 27 26  1  0  0  0  0
 27 29  1  0  0  0  0
 29 28  1  0  0  0  0
 30 31  2  0  0  0  0
 33 36  2  0  0  0  0
 33 34  1  0  0  0  0
 34 35  2  0  0  0  0
 35 32  1  0  0  0  0
 36 38  1  0  0  0  0
 37 33  1  0  0  0  0
 38 30  1  0  0  0  0
 38 32  2  0  0  0  0
 39 40  2  0  0  0  0
 40 41  2  0  0  0  0
 40 34  1  0  0  0  0
M  END
>  <MODEL>
4

>  <REMARK>
 VINA RESULT:      -7.4      0.911      1.781
  Name = 
  8 active torsions:
  status: ('A' for Active; 'I' for Inactive)
    1  A    between atoms: N_4  and  C_19
    2  A    between atoms: N_5  and  C_15
    3  A    between atoms: N_12  and  C_35
    4  A    between atoms: C_17  and  C_40
    5  A    between atoms: O_18  and  N_21
    6  A    between atoms: N_21  and  N_41
    7  A    between atoms: N_25  and  C_32
    8  A    between atoms: C_35  and  C_38
                            x       y       z     vdW  Elec       q    Type
                         _______ _______ _______ _____ _____    ______ ____

>  <TORSDO>
F 8

$$$$
=
 OpenBabel10232411593D

 41 44  0  0  1  0  0  0  0  0999 V2000
  191.1690  177.0150  140.7990 N   0  0  0  0  0  0  0  0  0  0  0  0
  193.4800  176.7730  140.5970 O   0  0  0  0  0  1  0  0  0  0  0  0
  192.3440  177.3180  139.9950 C   0  0  1  0  0  3  0  0  0  0  0  0
  192.9250  176.6630  137.7250 N   0  0  0  0  0  0  0  0  0  0  0  0
  192.0800  176.6260  138.7140 C   0  0  0  0  0  0  0  0  0  0  0  0
  190.2030  176.1630  140.1110 C   0  0  0  0  0  2  0  0  0  0  0  0
  190.7490  175.9370  138.7050 C   0  0  1  0  0  3  0  0  0  0  0  0
  189.1590  175.7130  136.7060 C   0  0  0  0  0  0  0  0  0  0  0  0
  187.2370  178.2680  134.9150 F   0  0  0  0  0  0  0  0  0  0  0  0
  189.3720  174.3740  136.6450 F   0  0  0  0  0  0  0  0  0  0  0  0
  187.6600  175.5420  134.8560 F   0  0  0  0  0  0  0  0  0  0  0  0
  188.0730  177.6890  135.8110 C   0  0  0  0  0  0  0  0  0  0  0  0
  188.2920  176.3080  135.7810 C   0  0  0  0  0  0  0  0  0  0  0  0
  189.7990  176.5060  137.6840 C   0  0  0  0  0  0  0  0  0  0  0  0
  188.7210  178.4770  136.7640 C   0  0  0  0  0  3  0  0  0  0  0  0
  189.5820  177.8880  137.6920 C   0  0  0  0  0  3  0  0  0  0  0  0
  190.9170  177.5890  142.0930 C   0  0  0  0  0  0  0  0  0  0  0  0
  191.7240  178.7030  144.0970 C   0  0  0  0  0  3  0  0  0  0  0  0
  189.6210  177.5910  142.6340 C   0  0  0  0  0  3  0  0  0  0  0  0
  190.4300  178.7010  144.6230 C   0  0  0  0  0  3  0  0  0  0  0  0
  189.3690  178.1460  143.8920 C   0  0  0  0  0  0  0  0  0  0  0  0
  191.9660  178.1510  142.8380 C   0  0  0  0  0  3  0  0  0  0  0  0
  188.4540  177.2930  146.5570 O   0  0  0  0  0  0  0  0  0  0  0  0
  188.0280  178.1220  144.4020 N   0  0  0  0  0  2  0  0  0  0  0  0
  187.6130  177.6840  145.7050 C   0  0  0  0  0  0  0  0  0  0  0  0
  186.2300  177.6750  146.0440 N   0  0  0  0  0  2  0  0  0  0  0  0
  185.2540  178.0690  145.1200 N   0  0  0  0  0  2  0  0  0  0  0  0
  183.3980  179.1640  144.8460 C   0  0  0  0  0  1  0  0  0  0  0  0
  184.3360  178.7880  145.8050 O   0  0  0  0  0  0  0  0  0  0  0  0
  192.8090  175.9630  136.4770 C   0  0  0  0  0  0  0  0  0  0  0  0
  192.3260  176.5360  135.4620 O   0  0  0  0  0  0  0  0  0  0  0  0
  192.4800  173.6460  135.6180 C   0  0  0  0  0  3  0  0  0  0  0  0
  194.7190  172.7460  137.0420 C   0  0  0  0  0  0  0  0  0  0  0  0
  193.9780  171.8310  136.2500 C   0  0  0  0  0  0  0  0  0  0  0  0
  192.8580  172.3040  135.5500 C   0  0  0  0  0  3  0  0  0  0  0  0
  194.3320  174.0880  137.1000 C   0  0  0  0  0  3  0  0  0  0  0  0
  195.9100  172.3450  137.8450 C   0  0  0  0  0  1  0  0  0  0  0  0
  193.2160  174.5490  136.3910 C   0  0  0  0  0  0  0  0  0  0  0  0
  193.8580  169.5400  137.0780 O   0  0  0  0  0  0  0  0  0  0  0  0
  194.3190  170.4350  136.1380 N   0  0  0  0  0  0  0  0  0  0  0  0
  194.9720  169.9960  135.1690 O   0  0  0  0  0  0  0  0  0  0  0  0
  1 17  1  0  0  0  0
  3  2  1  1  0  0  0
  3  1  1  0  0  0  0
  4  5  2  0  0  0  0
  5  3  1  0  0  0  0
  6  1  1  0  0  0  0
  7 14  1  6  0  0  0
  7  5  1  0  0  0  0
  7  6  1  0  0  0  0
  8 14  1  0  0  0  0
  9 12  1  0  0  0  0
 10  8  1  0  0  0  0
 11 13  1  0  0  0  0
 12 15  2  0  0  0  0
 13 12  1  0  0  0  0
 13  8  2  0  0  0  0
 14 16  2  0  0  0  0
 15 16  1  0  0  0  0
 17 19  2  0  0  0  0
 17 22  1  0  0  0  0
 18 20  1  0  0  0  0
 19 21  1  0  0  0  0
 21 24  1  0  0  0  0
 21 20  2  0  0  0  0
 22 18  2  0  0  0  0
 24 25  1  0  0  0  0
 25 26  1  0  0  0  0
 25 23  2  0  0  0  0
 27 29  1  0  0  0  0
 27 26  1  0  0  0  0
 28 29  1  0  0  0  0
 30  4  1  0  0  0  0
 31 30  2  0  0  0  0
 32 38  1  0  0  0  0
 33 36  1  0  0  0  0
 33 37  1  0  0  0  0
 34 33  2  0  0  0  0
 35 32  2  0  0  0  0
 35 34  1  0  0  0  0
 38 30  1  0  0  0  0
 38 36  2  0  0  0  0
 40 34  1  0  0  0  0
 40 39  2  0  0  0  0
 41 40  2  0  0  0  0
M  END
>  <MODEL>
5

>  <REMARK>
 VINA RESULT:      -7.4      3.992     10.287
  Name = 
  8 active torsions:
  status: ('A' for Active; 'I' for Inactive)
    1  A    between atoms: N_4  and  C_19
    2  A    between atoms: N_5  and  C_15
    3  A    between atoms: N_12  and  C_35
    4  A    between atoms: C_17  and  C_40
    5  A    between atoms: O_18  and  N_21
    6  A    between atoms: N_21  and  N_41
    7  A    between atoms: N_25  and  C_32
    8  A    between atoms: C_35  and  C_38
                            x       y       z     vdW  Elec       q    Type
                         _______ _______ _______ _____ _____    ______ ____

>  <TORSDO>
F 8

$$$$
=
 OpenBabel10232411593D

 41 44  0  0  1  0  0  0  0  0999 V2000
  189.1480  177.5270  141.2870 N   0  0  0  0  0  0  0  0  0  0  0  0
  187.9950  178.7820  139.6950 O   0  0  0  0  0  1  0  0  0  0  0  0
  188.3790  178.7370  141.0370 C   0  0  1  0  0  3  0  0  0  0  0  0
  186.2400  179.4710  141.9340 N   0  0  0  0  0  0  0  0  0  0  0  0
  187.1820  178.5740  141.8910 C   0  0  0  0  0  0  0  0  0  0  0  0
  188.4980  176.6130  142.2230 C   0  0  0  0  0  2  0  0  0  0  0  0
  187.2210  177.3050  142.6880 C   0  0  1  0  0  3  0  0  0  0  0  0
  188.4820  177.7810  144.8700 C   0  0  0  0  0  0  0  0  0  0  0  0
  187.2300  178.1440  148.2940 F   0  0  0  0  0  0  0  0  0  0  0  0
  189.6700  177.8090  144.2140 F   0  0  0  0  0  0  0  0  0  0  0  0
  189.6190  178.2400  146.9180 F   0  0  0  0  0  0  0  0  0  0  0  0
  187.2520  177.9450  146.9540 C   0  0  0  0  0  0  0  0  0  0  0  0
  188.4620  177.9900  146.2540 C   0  0  0  0  0  0  0  0  0  0  0  0
  187.2760  177.5450  144.1750 C   0  0  0  0  0  0  0  0  0  0  0  0
  186.0610  177.6920  146.2710 C   0  0  0  0  0  3  0  0  0  0  0  0
  186.0740  177.4880  144.8900 C   0  0  0  0  0  3  0  0  0  0  0  0
  190.4690  177.2980  140.7680 C   0  0  0  0  0  0  0  0  0  0  0  0
  192.8770  177.5830  140.9350 C   0  0  0  0  0  3  0  0  0  0  0  0
  190.6550  176.5790  139.5750 C   0  0  0  0  0  3  0  0  0  0  0  0
  193.0480  176.8640  139.7500 C   0  0  0  0  0  3  0  0  0  0  0  0
  191.9360  176.3550  139.0630 C   0  0  0  0  0  0  0  0  0  0  0  0
  191.5940  177.7980  141.4420 C   0  0  0  0  0  3  0  0  0  0  0  0
  193.6700  176.9560  136.7620 O   0  0  0  0  0  0  0  0  0  0  0  0
  192.0720  175.6160  137.8410 N   0  0  0  0  0  2  0  0  0  0  0  0
  192.9180  175.9460  136.7290 C   0  0  0  0  0  0  0  0  0  0  0  0
  192.9040  175.1320  135.5590 N   0  0  0  0  0  2  0  0  0  0  0  0
  192.0600  174.0190  135.4620 N   0  0  0  0  0  2  0  0  0  0  0  0
  194.0530  173.2440  135.0760 C   0  0  0  0  0  1  0  0  0  0  0  0
  192.8320  172.9270  135.6680 O   0  0  0  0  0  0  0  0  0  0  0  0
  185.0040  179.3760  142.6580 C   0  0  0  0  0  0  0  0  0  0  0  0
  184.9210  179.8010  143.8440 O   0  0  0  0  0  0  0  0  0  0  0  0
  183.9620  178.0780  140.8030 C   0  0  0  0  0  3  0  0  0  0  0  0
  181.4530  178.2230  142.0420 C   0  0  0  0  0  0  0  0  0  0  0  0
  181.5850  177.5450  140.8040 C   0  0  0  0  0  0  0  0  0  0  0  0
  182.8500  177.4890  140.2000 C   0  0  0  0  0  3  0  0  0  0  0  0
  182.5750  178.8080  142.6380 C   0  0  0  0  0  3  0  0  0  0  0  0
  180.1520  178.3630  142.7570 C   0  0  0  0  0  1  0  0  0  0  0  0
  183.8340  178.7390  142.0280 C   0  0  0  0  0  0  0  0  0  0  0  0
  179.9830  177.4570  138.9670 O   0  0  0  0  0  0  0  0  0  0  0  0
  180.4750  176.9150  140.1330 N   0  0  0  0  0  0  0  0  0  0  0  0
  179.9830  175.8440  140.5440 O   0  0  0  0  0  0  0  0  0  0  0  0
  1  6  1  0  0  0  0
  3  2  1  6  0  0  0
  3  1  1  0  0  0  0
  3  5  1  0  0  0  0
  4 30  1  0  0  0  0
  5  4  2  0  0  0  0
  5  7  1  0  0  0  0
  6  7  1  0  0  0  0
  7 14  1  1  0  0  0
  8 13  1  0  0  0  0
 10  8  1  0  0  0  0
 12  9  1  0  0  0  0
 13 11  1  0  0  0  0
 13 12  2  0  0  0  0
 14  8  2  0  0  0  0
 14 16  1  0  0  0  0
 15 12  1  0  0  0  0
 16 15  2  0  0  0  0
 17  1  1  0  0  0  0
 17 22  1  0  0  0  0
 18 22  2  0  0  0  0
 19 17  2  0  0  0  0
 20 18  1  0  0  0  0
 21 19  1  0  0  0  0
 21 20  2  0  0  0  0
 24 21  1  0  0  0  0
 25 23  2  0  0  0  0
 25 24  1  0  0  0  0
 26 25  1  0  0  0  0
 27 26  1  0  0  0  0
 27 29  1  0  0  0  0
 28 29  1  0  0  0  0
 30 31  2  0  0  0  0
 32 38  1  0  0  0  0
 33 36  1  0  0  0  0
 33 37  1  0  0  0  0
 34 33  2  0  0  0  0
 35 32  2  0  0  0  0
 35 34  1  0  0  0  0
 38 36  2  0  0  0  0
 38 30  1  0  0  0  0
 39 40  2  0  0  0  0
 40 41  2  0  0  0  0
 40 34  1  0  0  0  0
M  END
>  <MODEL>
6

>  <REMARK>
 VINA RESULT:      -7.4      2.526      3.983
  Name = 
  8 active torsions:
  status: ('A' for Active; 'I' for Inactive)
    1  A    between atoms: N_4  and  C_19
    2  A    between atoms: N_5  and  C_15
    3  A    between atoms: N_12  and  C_35
    4  A    between atoms: C_17  and  C_40
    5  A    between atoms: O_18  and  N_21
    6  A    between atoms: N_21  and  N_41
    7  A    between atoms: N_25  and  C_32
    8  A    between atoms: C_35  and  C_38
                            x       y       z     vdW  Elec       q    Type
                         _______ _______ _______ _____ _____    ______ ____

>  <TORSDO>
F 8

$$$$
=
 OpenBabel10232411593D

 41 44  0  0  1  0  0  0  0  0999 V2000
  191.9990  175.7940  136.7540 N   0  0  0  0  0  0  0  0  0  0  0  0
  192.9730  176.8300  138.6030 O   0  0  0  0  0  1  0  0  0  0  0  0
  191.8670  176.0930  138.1720 C   0  0  1  0  0  3  0  0  0  0  0  0
  190.2070  177.4110  139.3680 N   0  0  0  0  0  0  0  0  0  0  0  0
  190.6520  176.9350  138.2410 C   0  0  0  0  0  0  0  0  0  0  0  0
  190.9590  176.4100  135.9350 C   0  0  0  0  0  2  0  0  0  0  0  0
  190.0160  177.1250  136.8970 C   0  0  1  0  0  3  0  0  0  0  0  0
  187.5080  177.2580  136.3830 C   0  0  0  0  0  0  0  0  0  0  0  0
  184.8950  174.7050  136.6730 F   0  0  0  0  0  0  0  0  0  0  0  0
  187.6180  178.5610  136.0200 F   0  0  0  0  0  0  0  0  0  0  0  0
  185.1720  177.3390  135.8990 F   0  0  0  0  0  0  0  0  0  0  0  0
  186.1090  175.3040  136.7190 C   0  0  0  0  0  0  0  0  0  0  0  0
  186.2520  176.6410  136.3300 C   0  0  0  0  0  0  0  0  0  0  0  0
  188.6370  176.5250  136.8080 C   0  0  0  0  0  0  0  0  0  0  0  0
  187.2210  174.5840  137.1600 C   0  0  0  0  0  3  0  0  0  0  0  0
  188.4770  175.1940  137.2080 C   0  0  0  0  0  3  0  0  0  0  0  0
  192.9760  174.8850  136.2180 C   0  0  0  0  0  0  0  0  0  0  0  0
  193.5330  172.9710  134.8270 C   0  0  0  0  0  3  0  0  0  0  0  0
  194.3320  175.0060  136.5640 C   0  0  0  0  0  3  0  0  0  0  0  0
  194.8780  173.1040  135.1780 C   0  0  0  0  0  3  0  0  0  0  0  0
  195.2870  174.1260  136.0480 C   0  0  0  0  0  0  0  0  0  0  0  0
  192.5870  173.8580  135.3440 C   0  0  0  0  0  3  0  0  0  0  0  0
  197.3130  175.8900  134.8450 O   0  0  0  0  0  0  0  0  0  0  0  0
  196.6580  174.2900  136.4350 N   0  0  0  0  0  2  0  0  0  0  0  0
  197.6270  175.1500  135.8160 C   0  0  0  0  0  0  0  0  0  0  0  0
  198.9700  175.1650  136.2900 N   0  0  0  0  0  2  0  0  0  0  0  0
  199.3760  174.3360  137.3440 N   0  0  0  0  0  2  0  0  0  0  0  0
  198.8950  175.0370  139.3430 C   0  0  0  0  0  1  0  0  0  0  0  0
  199.8370  175.1490  138.3220 O   0  0  0  0  0  0  0  0  0  0  0  0
  189.0940  178.3020  139.5380 C   0  0  0  0  0  0  0  0  0  0  0  0
  188.8240  179.1650  138.6580 O   0  0  0  0  0  0  0  0  0  0  0  0
  188.8720  177.8590  141.9800 C   0  0  0  0  0  3  0  0  0  0  0  0
  186.1360  178.4540  141.8910 C   0  0  0  0  0  0  0  0  0  0  0  0
  186.7310  178.0800  143.1230 C   0  0  0  0  0  0  0  0  0  0  0  0
  188.1020  177.7830  143.1420 C   0  0  0  0  0  3  0  0  0  0  0  0
  186.9170  178.5290  140.7350 C   0  0  0  0  0  3  0  0  0  0  0  0
  184.6840  178.7660  141.7540 C   0  0  0  0  0  1  0  0  0  0  0  0
  188.2860  178.2360  140.7690 C   0  0  0  0  0  0  0  0  0  0  0  0
  186.3210  177.0190  145.2800 O   0  0  0  0  0  0  0  0  0  0  0  0
  185.9900  177.9850  144.3560 N   0  0  0  0  0  0  0  0  0  0  0  0
  185.0910  178.8020  144.6450 O   0  0  0  0  0  0  0  0  0  0  0  0
  1  3  1  0  0  0  0
  3  5  1  0  0  0  0
  3  2  1  6  0  0  0
  4 30  1  0  0  0  0
  5  4  2  0  0  0  0
  6  1  1  0  0  0  0
  6  7  1  0  0  0  0
  7 14  1  1  0  0  0
  7  5  1  0  0  0  0
  8 14  1  0  0  0  0
  9 12  1  0  0  0  0
 10  8  1  0  0  0  0
 11 13  1  0  0  0  0
 12 15  2  0  0  0  0
 13  8  2  0  0  0  0
 13 12  1  0  0  0  0
 14 16  2  0  0  0  0
 15 16  1  0  0  0  0
 17 19  1  0  0  0  0
 17  1  1  0  0  0  0
 18 20  2  0  0  0  0
 18 22  1  0  0  0  0
 20 21  1  0  0  0  0
 21 24  1  0  0  0  0
 21 19  2  0  0  0  0
 22 17  2  0  0  0  0
 23 25  2  0  0  0  0
 25 26  1  0  0  0  0
 25 24  1  0  0  0  0
 26 27  1  0  0  0  0
 27 29  1  0  0  0  0
 29 28  1  0  0  0  0
 30 38  1  0  0  0  0
 31 30  2  0  0  0  0
 32 35  1  0  0  0  0
 33 34  1  0  0  0  0
 34 35  2  0  0  0  0
 34 40  1  0  0  0  0
 36 38  1  0  0  0  0
 36 33  2  0  0  0  0
 37 33  1  0  0  0  0
 38 32  2  0  0  0  0
 40 41  2  0  0  0  0
 40 39  2  0  0  0  0
M  END
>  <MODEL>
7

>  <REMARK>
 VINA RESULT:      -7.3      3.444      5.005
  Name = 
  8 active torsions:
  status: ('A' for Active; 'I' for Inactive)
    1  A    between atoms: N_4  and  C_19
    2  A    between atoms: N_5  and  C_15
    3  A    between atoms: N_12  and  C_35
    4  A    between atoms: C_17  and  C_40
    5  A    between atoms: O_18  and  N_21
    6  A    between atoms: N_21  and  N_41
    7  A    between atoms: N_25  and  C_32
    8  A    between atoms: C_35  and  C_38
                            x       y       z     vdW  Elec       q    Type
                         _______ _______ _______ _____ _____    ______ ____

>  <TORSDO>
F 8

$$$$
=
 OpenBabel10232411593D

 41 44  0  0  1  0  0  0  0  0999 V2000
  190.1740  176.9930  141.4190 N   0  0  0  0  0  0  0  0  0  0  0  0
  192.4500  176.9820  141.9310 O   0  0  0  0  0  1  0  0  0  0  0  0
  191.4930  177.4810  141.0440 C   0  0  1  0  0  3  0  0  0  0  0  0
  192.8060  177.1140  139.0280 N   0  0  0  0  0  0  0  0  0  0  0  0
  191.7110  176.9010  139.7000 C   0  0  0  0  0  0  0  0  0  0  0  0
  189.5670  176.1330  140.4080 C   0  0  0  0  0  2  0  0  0  0  0  0
  190.5350  176.1000  139.2300 C   0  0  1  0  0  3  0  0  0  0  0  0
  189.3360  177.9840  137.9720 C   0  0  0  0  0  0  0  0  0  0  0  0
  188.0610  178.0990  134.5380 F   0  0  0  0  0  0  0  0  0  0  0  0
  189.3890  178.7890  139.0620 F   0  0  0  0  0  0  0  0  0  0  0  0
  188.2320  179.7210  136.7630 F   0  0  0  0  0  0  0  0  0  0  0  0
  188.6480  177.6410  135.6710 C   0  0  0  0  0  0  0  0  0  0  0  0
  188.7330  178.4610  136.8020 C   0  0  0  0  0  0  0  0  0  0  0  0
  189.8790  176.6810  138.0050 C   0  0  0  0  0  0  0  0  0  0  0  0
  189.1650  176.3450  135.7090 C   0  0  0  0  0  3  0  0  0  0  0  0
  189.7730  175.8670  136.8720 C   0  0  0  0  0  3  0  0  0  0  0  0
  189.4770  177.4090  142.6070 C   0  0  0  0  0  0  0  0  0  0  0  0
  189.5040  178.0320  144.9560 C   0  0  0  0  0  3  0  0  0  0  0  0
  188.0840  177.5890  142.5930 C   0  0  0  0  0  3  0  0  0  0  0  0
  188.1190  178.2090  144.9280 C   0  0  0  0  0  3  0  0  0  0  0  0
  187.4000  177.9910  143.7430 C   0  0  0  0  0  0  0  0  0  0  0  0
  190.1800  177.6350  143.8010 C   0  0  0  0  0  3  0  0  0  0  0  0
  185.8420  179.5340  141.7800 O   0  0  0  0  0  0  0  0  0  0  0  0
  185.9770  178.1580  143.6770 N   0  0  0  0  0  2  0  0  0  0  0  0
  185.2470  178.9320  142.7130 C   0  0  0  0  0  0  0  0  0  0  0  0
  183.8300  179.0380  142.8120 N   0  0  0  0  0  2  0  0  0  0  0  0
  183.1280  178.4140  143.8510 N   0  0  0  0  0  2  0  0  0  0  0  0
  181.5330  178.8390  142.4380 C   0  0  0  0  0  1  0  0  0  0  0  0
  181.8570  178.8740  143.7930 O   0  0  0  0  0  0  0  0  0  0  0  0
  193.1550  176.5360  137.7610 C   0  0  0  0  0  0  0  0  0  0  0  0
  192.9190  177.1550  136.6880 O   0  0  0  0  0  0  0  0  0  0  0  0
  194.8700  174.8820  138.4940 C   0  0  0  0  0  3  0  0  0  0  0  0
  193.7930  172.9350  136.7910 C   0  0  0  0  0  0  0  0  0  0  0  0
  194.9200  172.6200  137.5920 C   0  0  0  0  0  0  0  0  0  0  0  0
  195.4450  173.6120  138.4340 C   0  0  0  0  0  3  0  0  0  0  0  0
  193.2250  174.2100  136.8620 C   0  0  0  0  0  3  0  0  0  0  0  0
  193.1730  171.9640  135.8460 C   0  0  0  0  0  1  0  0  0  0  0  0
  193.7530  175.1900  137.7110 C   0  0  0  0  0  0  0  0  0  0  0  0
  196.4650  171.0230  136.5860 O   0  0  0  0  0  0  0  0  0  0  0  0
  195.5580  171.3260  137.5760 N   0  0  0  0  0  0  0  0  0  0  0  0
  195.3600  170.4870  138.4790 O   0  0  0  0  0  0  0  0  0  0  0  0
  1 17  1  0  0  0  0
  3  1  1  0  0  0  0
  3  2  1  1  0  0  0
  4  5  2  0  0  0  0
  5  3  1  0  0  0  0
  6  1  1  0  0  0  0
  7 14  1  6  0  0  0
  7  5  1  0  0  0  0
  7  6  1  0  0  0  0
  8 14  1  0  0  0  0
  8 10  1  0  0  0  0
  9 12  1  0  0  0  0
 11 13  1  0  0  0  0
 12 15  2  0  0  0  0
 12 13  1  0  0  0  0
 13  8  2  0  0  0  0
 15 16  1  0  0  0  0
 16 14  2  0  0  0  0
 17 22  1  0  0  0  0
 19 17  2  0  0  0  0
 19 21  1  0  0  0  0
 20 18  1  0  0  0  0
 21 20  2  0  0  0  0
 22 18  2  0  0  0  0
 23 25  2  0  0  0  0
 24 21  1  0  0  0  0
 25 26  1  0  0  0  0
 25 24  1  0  0  0  0
 26 27  1  0  0  0  0
 28 29  1  0  0  0  0
 29 27  1  0  0  0  0
 30  4  1  0  0  0  0
 31 30  2  0  0  0  0
 33 36  2  0  0  0  0
 33 34  1  0  0  0  0
 34 35  2  0  0  0  0
 35 32  1  0  0  0  0
 36 38  1  0  0  0  0
 37 33  1  0  0  0  0
 38 30  1  0  0  0  0
 38 32  2  0  0  0  0
 39 40  2  0  0  0  0
 40 34  1  0  0  0  0
 40 41  2  0  0  0  0
M  END
>  <MODEL>
8

>  <REMARK>
 VINA RESULT:      -6.9      3.053     10.545
  Name = 
  8 active torsions:
  status: ('A' for Active; 'I' for Inactive)
    1  A    between atoms: N_4  and  C_19
    2  A    between atoms: N_5  and  C_15
    3  A    between atoms: N_12  and  C_35
    4  A    between atoms: C_17  and  C_40
    5  A    between atoms: O_18  and  N_21
    6  A    between atoms: N_21  and  N_41
    7  A    between atoms: N_25  and  C_32
    8  A    between atoms: C_35  and  C_38
                            x       y       z     vdW  Elec       q    Type
                         _______ _______ _______ _____ _____    ______ ____

>  <TORSDO>
F 8

$$$$
=
 OpenBabel10232411593D

 41 44  0  0  1  0  0  0  0  0999 V2000
  184.9170  178.2210  141.8290 N   0  0  0  0  0  0  0  0  0  0  0  0
  187.2030  178.0490  141.3960 O   0  0  0  0  0  1  0  0  0  0  0  0
  186.0360  178.7380  141.0560 C   0  0  1  0  0  3  0  0  0  0  0  0
  186.4400  178.7410  138.6560 N   0  0  0  0  0  0  0  0  0  0  0  0
  185.6680  178.4290  139.6560 C   0  0  0  0  0  0  0  0  0  0  0  0
  183.8880  177.5930  141.0060 C   0  0  0  0  0  2  0  0  0  0  0  0
  184.3270  177.7670  139.5550 C   0  0  1  0  0  3  0  0  0  0  0  0
  182.5190  178.0760  137.7630 C   0  0  0  0  0  0  0  0  0  0  0  0
  180.6080  181.0560  136.8210 F   0  0  0  0  0  0  0  0  0  0  0  0
  182.6260  176.7770  137.3860 F   0  0  0  0  0  0  0  0  0  0  0  0
  180.8220  178.3970  136.1160 F   0  0  0  0  0  0  0  0  0  0  0  0
  181.4900  180.2520  137.4600 C   0  0  0  0  0  0  0  0  0  0  0  0
  181.6030  178.9040  137.1030 C   0  0  0  0  0  0  0  0  0  0  0  0
  183.3160  178.5960  138.8060 C   0  0  0  0  0  0  0  0  0  0  0  0
  182.2920  180.7730  138.4770 C   0  0  0  0  0  3  0  0  0  0  0  0
  183.2030  179.9490  139.1430 C   0  0  0  0  0  3  0  0  0  0  0  0
  184.7700  178.4120  143.2470 C   0  0  0  0  0  0  0  0  0  0  0  0
  183.4490  179.1570  145.1470 C   0  0  0  0  0  3  0  0  0  0  0  0
  185.8050  178.0580  144.1280 C   0  0  0  0  0  3  0  0  0  0  0  0
  184.4850  178.7970  146.0110 C   0  0  0  0  0  3  0  0  0  0  0  0
  185.6700  178.2420  145.5070 C   0  0  0  0  0  0  0  0  0  0  0  0
  183.5910  178.9640  143.7710 C   0  0  0  0  0  3  0  0  0  0  0  0
  186.5490  179.5370  148.0000 O   0  0  0  0  0  0  0  0  0  0  0  0
  186.7570  177.8660  146.3640 N   0  0  0  0  0  2  0  0  0  0  0  0
  187.1700  178.5290  147.5680 C   0  0  0  0  0  0  0  0  0  0  0  0
  188.3060  178.0570  148.2860 N   0  0  0  0  0  2  0  0  0  0  0  0
  189.0490  176.9620  147.8280 N   0  0  0  0  0  2  0  0  0  0  0  0
  191.0440  176.4720  147.1230 C   0  0  0  0  0  1  0  0  0  0  0  0
  190.0640  177.4620  147.0870 O   0  0  0  0  0  0  0  0  0  0  0  0
  186.2210  178.4160  137.2750 C   0  0  0  0  0  0  0  0  0  0  0  0
  185.9990  179.3250  136.4300 O   0  0  0  0  0  0  0  0  0  0  0  0
  187.1530  176.1060  137.3570 C   0  0  0  0  0  3  0  0  0  0  0  0
  185.2640  175.2220  135.4860 C   0  0  0  0  0  0  0  0  0  0  0  0
  186.2130  174.3070  136.0080 C   0  0  0  0  0  0  0  0  0  0  0  0
  187.1530  174.7740  136.9410 C   0  0  0  0  0  3  0  0  0  0  0  0
  185.2730  176.5540  135.9130 C   0  0  0  0  0  3  0  0  0  0  0  0
  184.2390  174.8380  134.4740 C   0  0  0  0  0  1  0  0  0  0  0  0
  186.2110  177.0050  136.8490 C   0  0  0  0  0  0  0  0  0  0  0  0
  187.1520  172.5120  134.6500 O   0  0  0  0  0  0  0  0  0  0  0  0
  186.2630  172.9200  135.6190 N   0  0  0  0  0  0  0  0  0  0  0  0
  185.5630  172.0550  136.1860 O   0  0  0  0  0  0  0  0  0  0  0  0
  1 17  1  0  0  0  0
  3  2  1  1  0  0  0
  3  1  1  0  0  0  0
  4  5  2  0  0  0  0
  5  3  1  0  0  0  0
  6  1  1  0  0  0  0
  7 14  1  6  0  0  0
  7  5  1  0  0  0  0
  7  6  1  0  0  0  0
  8 14  1  0  0  0  0
  9 12  1  0  0  0  0
 10  8  1  0  0  0  0
 11 13  1  0  0  0  0
 12 15  2  0  0  0  0
 13 12  1  0  0  0  0
 13  8  2  0  0  0  0
 14 16  2  0  0  0  0
 15 16  1  0  0  0  0
 17 22  2  0  0  0  0
 17 19  1  0  0  0  0
 18 20  2  0  0  0  0
 19 21  2  0  0  0  0
 21 20  1  0  0  0  0
 21 24  1  0  0  0  0
 22 18  1  0  0  0  0
 24 25  1  0  0  0  0
 25 23  2  0  0  0  0
 25 26  1  0  0  0  0
 27 26  1  0  0  0  0
 29 28  1  0  0  0  0
 29 27  1  0  0  0  0
 30  4  1  0  0  0  0
 31 30  2  0  0  0  0
 33 36  2  0  0  0  0
 33 34  1  0  0  0  0
 34 35  2  0  0  0  0
 35 32  1  0  0  0  0
 36 38  1  0  0  0  0
 37 33  1  0  0  0  0
 38 30  1  0  0  0  0
 38 32  2  0  0  0  0
 39 40  2  0  0  0  0
 40 34  1  0  0  0  0
 40 41  2  0  0  0  0
M  END
>  <MODEL>
9

>  <REMARK>
 VINA RESULT:      -6.8      6.187      9.711
  Name = 
  8 active torsions:
  status: ('A' for Active; 'I' for Inactive)
    1  A    between atoms: N_4  and  C_19
    2  A    between atoms: N_5  and  C_15
    3  A    between atoms: N_12  and  C_35
    4  A    between atoms: C_17  and  C_40
    5  A    between atoms: O_18  and  N_21
    6  A    between atoms: N_21  and  N_41
    7  A    between atoms: N_25  and  C_32
    8  A    between atoms: C_35  and  C_38
                            x       y       z     vdW  Elec       q    Type
                         _______ _______ _______ _____ _____    ______ ____

>  <TORSDO>
F 8

$$$$
