=
 OpenBabel10232410473D

 35 39  0  0  1  0  0  0  0  0999 V2000
  192.2060  175.7160  135.9800 N   0  0  0  0  0  0  0  0  0  0  0  0
  189.3580  177.9650  137.6540 C   0  0  0  0  0  2  0  0  0  0  0  0
  183.8610  176.4700  137.1490 N   0  0  0  0  0  1  0  0  0  0  0  0
  189.9650  175.6080  136.9500 C   0  0  2  0  0  3  0  0  0  0  0  0
  186.8420  177.2760  135.4910 C   0  0  0  0  0  3  0  0  0  0  0  0
  190.4180  176.5150  134.6450 N   0  0  0  0  0  2  0  0  0  0  0  0
  192.7600  175.2170  137.2050 C   0  0  0  0  0  3  0  0  0  0  0  0
  184.3810  179.6030  139.9530 N   0  0  0  0  0  0  0  0  0  0  0  0
  185.0670  178.1850  138.5030 C   0  0  0  0  0  0  0  0  0  0  0  0
  190.6540  175.4300  138.2270 N   0  0  0  0  0  2  0  0  0  0  0  0
  185.6670  179.4830  140.1160 O   0  0  0  0  0  0  0  0  0  0  0  0
  186.1410  178.6130  139.2570 C   0  0  0  0  0  0  0  0  0  0  0  0
  190.9360  175.9550  135.8540 C   0  0  0  0  0  0  0  0  0  0  0  0
  192.0180  175.1010  138.2650 N   0  0  0  0  0  0  0  0  0  0  0  0
  185.0460  177.2180  137.3910 C   0  0  0  0  0  0  0  0  0  0  0  0
  183.9720  178.8120  138.9720 N   0  0  0  0  0  0  0  0  0  0  0  0
  189.0380  176.8950  134.5650 C   0  0  0  0  0  3  0  0  0  0  0  0
  188.8480  176.6580  137.0300 C   0  0  2  0  0  3  0  0  0  0  0  0
  188.2550  178.8210  138.0840 N   0  0  0  0  0  2  0  0  0  0  0  0
  188.2580  176.9210  135.6580 C   0  0  0  0  0  0  0  0  0  0  0  0
  187.5620  178.1550  139.1780 C   0  0  1  0  0  3  0  0  0  0  0  0
  185.9680  177.2440  136.4640 C   0  0  0  0  0  0  0  0  0  0  0  0
  188.3010  178.3590  140.4970 C   0  0  0  0  0  2  0  0  0  0  0  0
  188.9800  177.0670  140.9280 C   0  0  0  0  0  2  0  0  0  0  0  0
  189.8980  177.3300  141.9490 O   0  0  0  0  0  0  0  0  0  0  0  0
  188.7600  177.6810  144.6050 C   0  0  1  0  0  3  0  0  0  0  0  0
  189.7930  176.2410  142.8210 C   0  0  1  0  0  3  0  0  0  0  0  0
  191.1930  177.1170  144.7430 C   0  0  0  0  0  3  0  0  0  0  0  0
  191.0740  176.0890  143.6480 C   0  0  0  0  0  2  0  0  0  0  0  0
  190.1380  177.8040  145.2080 C   0  0  0  0  0  3  0  0  0  0  0  0
  188.5930  176.4190  143.7520 C   0  0  0  0  0  2  0  0  0  0  0  0
  186.4500  178.3590  145.3440 N   0  0  0  0  0  2  0  0  0  0  0  0
  185.3780  178.4590  146.3210 C   0  0  0  0  0  1  0  0  0  0  0  0
  187.7100  177.7630  145.6600 C   0  0  0  0  0  0  0  0  0  0  0  0
  187.9330  177.3150  146.8180 O   0  0  0  0  0  0  0  0  0  0  0  0
  1  7  1  0  0  0  0
  2 19  1  0  0  0  0
  3 15  1  0  0  0  0
  4 13  1  6  0  0  0
  4 18  1  0  0  0  0
  4 10  1  0  0  0  0
  5 20  1  0  0  0  0
  5 22  2  0  0  0  0
  6 13  1  0  0  0  0
  7 14  2  0  0  0  0
  8 11  1  0  0  0  0
  9 16  1  0  0  0  0
  9 12  2  0  0  0  0
 10 14  1  0  0  0  0
 12 11  1  0  0  0  0
 13  1  2  0  0  0  0
 15  9  1  0  0  0  0
 16  8  2  0  0  0  0
 17  6  1  0  0  0  0
 17 20  2  0  0  0  0
 18  2  1  6  0  0  0
 19 21  1  0  0  0  0
 20 18  1  0  0  0  0
 21 12  1  0  0  0  0
 21 23  1  1  0  0  0
 22 15  2  0  0  0  0
 23 24  1  0  0  0  0
 24 25  1  0  0  0  0
 26 30  1  0  0  0  0
 26 34  1  1  0  0  0
 27 25  1  6  0  0  0
 27 29  1  0  0  0  0
 27 31  1  0  0  0  0
 28 30  2  0  0  0  0
 29 28  1  0  0  0  0
 31 26  1  0  0  0  0
 32 34  1  0  0  0  0
 32 33  1  0  0  0  0
 34 35  2  0  0  0  0
M  END
>  <MODEL>
1

>  <REMARK>
 VINA RESULT:      -9.3      0.000      0.000
  Name = 
  5 active torsions:
  status: ('A' for Active; 'I' for Inactive)
    1  A    between atoms: C_2  and  C_22
    2  A    between atoms: C_6  and  O_20
    3  A    between atoms: C_18  and  O_20
    4  A    between atoms: C_18  and  C_24
    5  A    between atoms: C_24  and  C_34
                            x       y       z     vdW  Elec       q    Type
                         _______ _______ _______ _____ _____    ______ ____

>  <TORSDO>
F 5

$$$$
=
 OpenBabel10232410473D

 35 39  0  0  1  0  0  0  0  0999 V2000
  191.3360  177.4200  144.5550 N   0  0  0  0  0  0  0  0  0  0  0  0
  189.1000  178.5380  141.4380 C   0  0  0  0  0  2  0  0  0  0  0  0
  188.5560  175.0810  136.9150 N   0  0  0  0  0  1  0  0  0  0  0  0
  189.9510  176.5410  142.7430 C   0  0  2  0  0  3  0  0  0  0  0  0
  190.7450  176.8430  139.0090 C   0  0  0  0  0  3  0  0  0  0  0  0
  192.2830  177.4210  142.3830 N   0  0  0  0  0  2  0  0  0  0  0  0
  190.2500  177.2320  145.4740 C   0  0  0  0  0  3  0  0  0  0  0  0
  185.8480  178.3350  136.7340 N   0  0  0  0  0  0  0  0  0  0  0  0
  187.4300  177.1940  137.6190 C   0  0  0  0  0  0  0  0  0  0  0  0
  188.8360  176.7040  143.6730 N   0  0  0  0  0  2  0  0  0  0  0  0
  185.9400  178.7120  137.9770 O   0  0  0  0  0  0  0  0  0  0  0  0
  186.8910  178.0340  138.5740 C   0  0  0  0  0  0  0  0  0  0  0  0
  191.2080  177.1620  143.2890 C   0  0  0  0  0  0  0  0  0  0  0  0
  189.0690  176.9090  145.0430 N   0  0  0  0  0  0  0  0  0  0  0  0
  188.5340  176.2290  137.7550 C   0  0  0  0  0  0  0  0  0  0  0  0
  186.7460  177.3950  136.4760 N   0  0  0  0  0  0  0  0  0  0  0  0
  192.0860  177.2550  140.9720 C   0  0  0  0  0  3  0  0  0  0  0  0
  189.6370  177.1040  141.3490 C   0  0  2  0  0  3  0  0  0  0  0  0
  188.4470  178.9460  140.1960 N   0  0  0  0  0  2  0  0  0  0  0  0
  190.8630  177.0510  140.4590 C   0  0  0  0  0  0  0  0  0  0  0  0
  187.2530  178.1320  140.0210 C   0  0  1  0  0  3  0  0  0  0  0  0
  189.6220  176.5440  138.4090 C   0  0  0  0  0  0  0  0  0  0  0  0
  186.0980  178.6700  140.8610 C   0  0  0  0  0  2  0  0  0  0  0  0
  186.0990  178.0210  142.2380 C   0  0  0  0  0  2  0  0  0  0  0  0
  184.8050  178.0250  142.7660 O   0  0  0  0  0  0  0  0  0  0  0  0
  185.2860  178.5140  145.5950 C   0  0  1  0  0  3  0  0  0  0  0  0
  184.6350  179.3070  143.3000 C   0  0  1  0  0  3  0  0  0  0  0  0
  182.8640  178.7970  145.0400 C   0  0  0  0  0  3  0  0  0  0  0  0
  183.1850  179.5130  143.7530 C   0  0  0  0  0  2  0  0  0  0  0  0
  183.8120  178.3860  145.8950 C   0  0  0  0  0  3  0  0  0  0  0  0
  185.5820  179.5230  144.4800 C   0  0  0  0  0  2  0  0  0  0  0  0
  187.0710  177.9360  147.2750 N   0  0  0  0  0  2  0  0  0  0  0  0
  187.8650  178.1950  148.4650 C   0  0  0  0  0  1  0  0  0  0  0  0
  186.0540  178.8360  146.8320 C   0  0  0  0  0  0  0  0  0  0  0  0
  185.8040  179.8890  147.4810 O   0  0  0  0  0  0  0  0  0  0  0  0
  1  7  1  0  0  0  0
  3 15  1  0  0  0  0
  4 13  1  1  0  0  0
  4 10  1  0  0  0  0
  5 20  1  0  0  0  0
  6 13  1  0  0  0  0
  8 11  1  0  0  0  0
  9 15  1  0  0  0  0
  9 12  2  0  0  0  0
 10 14  1  0  0  0  0
 11 12  1  0  0  0  0
 12 21  1  0  0  0  0
 13  1  2  0  0  0  0
 14  7  2  0  0  0  0
 15 22  2  0  0  0  0
 16  8  2  0  0  0  0
 16  9  1  0  0  0  0
 17  6  1  0  0  0  0
 18  2  1  1  0  0  0
 18  4  1  0  0  0  0
 19  2  1  0  0  0  0
 20 17  2  0  0  0  0
 20 18  1  0  0  0  0
 21 19  1  0  0  0  0
 21 23  1  1  0  0  0
 22  5  2  0  0  0  0
 23 24  1  0  0  0  0
 24 25  1  0  0  0  0
 26 30  1  0  0  0  0
 26 34  1  1  0  0  0
 27 25  1  1  0  0  0
 27 29  1  0  0  0  0
 27 31  1  0  0  0  0
 28 30  2  0  0  0  0
 29 28  1  0  0  0  0
 31 26  1  0  0  0  0
 32 33  1  0  0  0  0
 34 32  1  0  0  0  0
 34 35  2  0  0  0  0
M  END
>  <MODEL>
2

>  <REMARK>
 VINA RESULT:      -8.3      2.464      5.296
  Name = 
  5 active torsions:
  status: ('A' for Active; 'I' for Inactive)
    1  A    between atoms: C_2  and  C_22
    2  A    between atoms: C_6  and  O_20
    3  A    between atoms: C_18  and  O_20
    4  A    between atoms: C_18  and  C_24
    5  A    between atoms: C_24  and  C_34
                            x       y       z     vdW  Elec       q    Type
                         _______ _______ _______ _____ _____    ______ ____

>  <TORSDO>
F 5

$$$$
=
 OpenBabel10232410473D

 35 39  0  0  1  0  0  0  0  0999 V2000
  189.3020  177.3370  136.6810 N   0  0  0  0  0  0  0  0  0  0  0  0
  188.6900  176.7770  140.5900 C   0  0  0  0  0  2  0  0  0  0  0  0
  191.9850  179.4600  144.4190 N   0  0  0  0  0  1  0  0  0  0  0  0
  189.5240  178.4260  138.8580 C   0  0  2  0  0  3  0  0  0  0  0  0
  191.8600  177.2880  141.6700 C   0  0  0  0  0  3  0  0  0  0  0  0
  191.1020  176.6360  138.0530 N   0  0  0  0  0  2  0  0  0  0  0  0
  188.0990  178.0790  136.4330 C   0  0  0  0  0  3  0  0  0  0  0  0
  188.6550  177.5900  146.2540 N   0  0  0  0  0  0  0  0  0  0  0  0
  189.8920  178.1090  144.5850 C   0  0  0  0  0  0  0  0  0  0  0  0
  188.1470  178.8650  138.6480 N   0  0  0  0  0  2  0  0  0  0  0  0
  187.9460  177.3950  145.1790 O   0  0  0  0  0  0  0  0  0  0  0  0
  188.6550  177.7090  144.1210 C   0  0  0  0  0  0  0  0  0  0  0  0
  189.9440  177.4360  137.8050 C   0  0  0  0  0  0  0  0  0  0  0  0
  187.5550  178.7860  137.3770 N   0  0  0  0  0  0  0  0  0  0  0  0
  191.0670  178.5540  143.8160 C   0  0  0  0  0  0  0  0  0  0  0  0
  189.8590  178.0390  145.9290 N   0  0  0  0  0  0  0  0  0  0  0  0
  191.7260  176.6600  139.3440 C   0  0  0  0  0  3  0  0  0  0  0  0
  189.7440  177.8420  140.2600 C   0  0  2  0  0  3  0  0  0  0  0  0
  188.6430  176.4920  142.0220 N   0  0  0  0  0  2  0  0  0  0  0  0
  191.1400  177.2640  140.3900 C   0  0  0  0  0  0  0  0  0  0  0  0
  188.1660  177.6840  142.7080 C   0  0  1  0  0  3  0  0  0  0  0  0
  191.4330  177.9250  142.7300 C   0  0  0  0  0  0  0  0  0  0  0  0
  186.6460  177.7880  142.6300 C   0  0  0  0  0  2  0  0  0  0  0  0
  186.2410  179.0260  141.8430 C   0  0  0  0  0  2  0  0  0  0  0  0
  184.9300  179.3870  142.1660 O   0  0  0  0  0  0  0  0  0  0  0  0
  182.2530  178.7160  141.2390 C   0  0  1  0  0  3  0  0  0  0  0  0
  184.3170  178.1990  142.5790 C   0  0  1  0  0  3  0  0  0  0  0  0
  182.2600  179.1660  143.6990 C   0  0  0  0  0  3  0  0  0  0  0  0
  183.5530  178.4150  143.8890 C   0  0  0  0  0  2  0  0  0  0  0  0
  181.6480  179.2620  142.5090 C   0  0  0  0  0  3  0  0  0  0  0  0
  183.3610  177.6900  141.5000 C   0  0  0  0  0  2  0  0  0  0  0  0
  181.3400  176.8240  139.8500 N   0  0  0  0  0  2  0  0  0  0  0  0
  180.3430  176.2130  138.9870 C   0  0  0  0  0  1  0  0  0  0  0  0
  181.1990  178.1570  140.3460 C   0  0  0  0  0  0  0  0  0  0  0  0
  180.1950  178.8540  140.0300 O   0  0  0  0  0  0  0  0  0  0  0  0
  1 13  2  0  0  0  0
  2 19  1  0  0  0  0
  4 13  1  6  0  0  0
  4 18  1  0  0  0  0
  5 22  2  0  0  0  0
  6 17  1  0  0  0  0
  7  1  1  0  0  0  0
  7 14  2  0  0  0  0
  9 16  1  0  0  0  0
 10  4  1  0  0  0  0
 11  8  1  0  0  0  0
 12  9  2  0  0  0  0
 12 11  1  0  0  0  0
 13  6  1  0  0  0  0
 14 10  1  0  0  0  0
 15  3  1  0  0  0  0
 15  9  1  0  0  0  0
 16  8  2  0  0  0  0
 17 20  2  0  0  0  0
 18 20  1  0  0  0  0
 18  2  1  6  0  0  0
 19 21  1  0  0  0  0
 20  5  1  0  0  0  0
 21 23  1  1  0  0  0
 21 12  1  0  0  0  0
 22 15  2  0  0  0  0
 24 25  1  0  0  0  0
 24 23  1  0  0  0  0
 26 34  1  6  0  0  0
 26 31  1  0  0  0  0
 26 30  1  0  0  0  0
 27 25  1  6  0  0  0
 27 29  1  0  0  0  0
 28 29  1  0  0  0  0
 30 28  2  0  0  0  0
 31 27  1  0  0  0  0
 32 34  1  0  0  0  0
 33 32  1  0  0  0  0
 35 34  2  0  0  0  0
M  END
>  <MODEL>
3

>  <REMARK>
 VINA RESULT:      -8.1      3.019      6.714
  Name = 
  5 active torsions:
  status: ('A' for Active; 'I' for Inactive)
    1  A    between atoms: C_2  and  C_22
    2  A    between atoms: C_6  and  O_20
    3  A    between atoms: C_18  and  O_20
    4  A    between atoms: C_18  and  C_24
    5  A    between atoms: C_24  and  C_34
                            x       y       z     vdW  Elec       q    Type
                         _______ _______ _______ _____ _____    ______ ____

>  <TORSDO>
F 5

$$$$
=
 OpenBabel10232410473D

 35 39  0  0  1  0  0  0  0  0999 V2000
  185.6780  176.9380  136.9870 N   0  0  0  0  0  0  0  0  0  0  0  0
  189.3720  175.8920  138.0950 C   0  0  0  0  0  2  0  0  0  0  0  0
  193.6810  176.1930  134.3460 N   0  0  0  0  0  1  0  0  0  0  0  0
  188.0400  177.3820  136.5390 C   0  0  2  0  0  3  0  0  0  0  0  0
  190.5240  174.8590  135.0810 C   0  0  0  0  0  3  0  0  0  0  0  0
  186.8560  175.3130  135.7270 N   0  0  0  0  0  2  0  0  0  0  0  0
  185.6040  178.1330  137.7770 C   0  0  0  0  0  3  0  0  0  0  0  0
  195.0770  175.4850  138.2840 N   0  0  0  0  0  0  0  0  0  0  0  0
  193.5570  175.7910  136.8060 C   0  0  0  0  0  0  0  0  0  0  0  0
  187.9370  178.3690  137.6110 N   0  0  0  0  0  2  0  0  0  0  0  0
  193.9880  175.8120  138.9190 O   0  0  0  0  0  0  0  0  0  0  0  0
  193.0220  176.0230  138.0580 C   0  0  0  0  0  0  0  0  0  0  0  0
  186.7940  176.5420  136.4540 C   0  0  0  0  0  0  0  0  0  0  0  0
  186.6820  178.7920  138.0780 N   0  0  0  0  0  0  0  0  0  0  0  0
  192.8990  175.8730  135.4910 C   0  0  0  0  0  0  0  0  0  0  0  0
  194.8530  175.4690  136.9770 N   0  0  0  0  0  0  0  0  0  0  0  0
  188.1170  174.8230  135.2540 C   0  0  0  0  0  3  0  0  0  0  0  0
  189.2790  176.4870  136.6840 C   0  0  2  0  0  3  0  0  0  0  0  0
  190.7070  175.3650  138.3700 N   0  0  0  0  0  2  0  0  0  0  0  0
  189.2730  175.3860  135.6420 C   0  0  0  0  0  0  0  0  0  0  0  0
  191.6400  176.4830  138.3970 C   0  0  1  0  0  3  0  0  0  0  0  0
  191.6990  175.3850  135.3110 C   0  0  0  0  0  0  0  0  0  0  0  0
  191.5930  177.2010  139.7420 C   0  0  0  0  0  2  0  0  0  0  0  0
  190.4200  176.6960  140.5700 C   0  0  0  0  0  2  0  0  0  0  0  0
  190.4640  177.2590  141.8490 O   0  0  0  0  0  0  0  0  0  0  0  0
  189.0860  177.6070  144.3890 C   0  0  1  0  0  3  0  0  0  0  0  0
  190.3170  176.1790  142.7260 C   0  0  1  0  0  3  0  0  0  0  0  0
  191.5140  177.1260  144.7490 C   0  0  0  0  0  3  0  0  0  0  0  0
  191.5250  176.0800  143.6640 C   0  0  0  0  0  2  0  0  0  0  0  0
  190.4010  177.7840  145.1080 C   0  0  0  0  0  3  0  0  0  0  0  0
  189.0350  176.3290  143.5460 C   0  0  0  0  0  2  0  0  0  0  0  0
  186.7070  178.2390  144.9210 N   0  0  0  0  0  2  0  0  0  0  0  0
  185.5510  178.3180  145.7990 C   0  0  0  0  0  1  0  0  0  0  0  0
  187.9450  177.6680  145.3470 C   0  0  0  0  0  0  0  0  0  0  0  0
  188.0730  177.2220  146.5200 O   0  0  0  0  0  0  0  0  0  0  0  0
  1  7  1  0  0  0  0
  2 19  1  0  0  0  0
  3 15  1  0  0  0  0
  4 13  1  1  0  0  0
  4 18  1  0  0  0  0
  4 10  1  0  0  0  0
  5 22  2  0  0  0  0
  5 20  1  0  0  0  0
  6 13  1  0  0  0  0
  7 14  2  0  0  0  0
  8 11  1  0  0  0  0
  9 16  1  0  0  0  0
  9 12  2  0  0  0  0
 10 14  1  0  0  0  0
 12 21  1  0  0  0  0
 12 11  1  0  0  0  0
 13  1  2  0  0  0  0
 15  9  1  0  0  0  0
 16  8  2  0  0  0  0
 17 20  2  0  0  0  0
 17  6  1  0  0  0  0
 18  2  1  1  0  0  0
 19 21  1  0  0  0  0
 20 18  1  0  0  0  0
 21 23  1  1  0  0  0
 22 15  2  0  0  0  0
 23 24  1  0  0  0  0
 24 25  1  0  0  0  0
 26 30  1  0  0  0  0
 26 34  1  1  0  0  0
 27 25  1  6  0  0  0
 27 31  1  0  0  0  0
 27 29  1  0  0  0  0
 28 30  2  0  0  0  0
 29 28  1  0  0  0  0
 31 26  1  0  0  0  0
 32 34  1  0  0  0  0
 32 33  1  0  0  0  0
 34 35  2  0  0  0  0
M  END
>  <MODEL>
4

>  <REMARK>
 VINA RESULT:      -8.1      1.756      5.318
  Name = 
  5 active torsions:
  status: ('A' for Active; 'I' for Inactive)
    1  A    between atoms: C_2  and  C_22
    2  A    between atoms: C_6  and  O_20
    3  A    between atoms: C_18  and  O_20
    4  A    between atoms: C_18  and  C_24
    5  A    between atoms: C_24  and  C_34
                            x       y       z     vdW  Elec       q    Type
                         _______ _______ _______ _____ _____    ______ ____

>  <TORSDO>
F 5

$$$$
=
 OpenBabel10232410473D

 35 39  0  0  1  0  0  0  0  0999 V2000
  191.8110  177.4770  140.7360 N   0  0  0  0  0  0  0  0  0  0  0  0
  188.2200  178.4480  139.2750 C   0  0  0  0  0  2  0  0  0  0  0  0
  185.0860  174.5260  136.5370 N   0  0  0  0  0  1  0  0  0  0  0  0
  189.6140  176.5480  140.2050 C   0  0  2  0  0  3  0  0  0  0  0  0
  188.1260  176.2630  136.6880 C   0  0  0  0  0  3  0  0  0  0  0  0
  191.3380  177.0800  138.4480 N   0  0  0  0  0  2  0  0  0  0  0  0
  191.4460  177.5460  142.1220 C   0  0  0  0  0  3  0  0  0  0  0  0
  182.8520  178.0370  137.3360 N   0  0  0  0  0  0  0  0  0  0  0  0
  184.6250  176.8350  137.3640 C   0  0  0  0  0  0  0  0  0  0  0  0
  189.2400  176.9660  141.5540 N   0  0  0  0  0  2  0  0  0  0  0  0
  183.6520  178.5570  138.2230 O   0  0  0  0  0  0  0  0  0  0  0  0
  184.7550  177.8510  138.2910 C   0  0  0  0  0  0  0  0  0  0  0  0
  190.9720  177.0760  139.8300 C   0  0  0  0  0  0  0  0  0  0  0  0
  190.2240  177.3170  142.4940 N   0  0  0  0  0  0  0  0  0  0  0  0
  185.5810  175.7670  137.0250 C   0  0  0  0  0  0  0  0  0  0  0  0
  183.4140  176.9680  136.7900 N   0  0  0  0  0  0  0  0  0  0  0  0
  190.3630  176.7580  137.4480 C   0  0  0  0  0  3  0  0  0  0  0  0
  188.5710  176.9590  139.1560 C   0  0  2  0  0  3  0  0  0  0  0  0
  186.9840  178.7680  138.5660 N   0  0  0  0  0  2  0  0  0  0  0  0
  189.0610  176.6410  137.7570 C   0  0  0  0  0  0  0  0  0  0  0  0
  185.8850  178.0920  139.2400 C   0  0  1  0  0  3  0  0  0  0  0  0
  186.8550  176.0280  136.8870 C   0  0  0  0  0  0  0  0  0  0  0  0
  185.4370  178.8720  140.4720 C   0  0  0  0  0  2  0  0  0  0  0  0
  184.4510  178.0490  141.2890 C   0  0  0  0  0  2  0  0  0  0  0  0
  185.0350  177.6720  142.5010 O   0  0  0  0  0  0  0  0  0  0  0  0
  186.4750  177.6300  145.0310 C   0  0  1  0  0  3  0  0  0  0  0  0
  185.5490  178.8560  143.0400 C   0  0  1  0  0  3  0  0  0  0  0  0
  184.3140  178.8690  145.2540 C   0  0  0  0  0  3  0  0  0  0  0  0
  184.5000  179.5460  143.9200 C   0  0  0  0  0  2  0  0  0  0  0  0
  185.2290  178.0390  145.7770 C   0  0  0  0  0  3  0  0  0  0  0  0
  186.8040  178.5660  143.8630 C   0  0  0  0  0  2  0  0  0  0  0  0
  187.5270  178.0290  147.2840 N   0  0  0  0  0  2  0  0  0  0  0  0
  188.6120  177.9250  148.2450 C   0  0  0  0  0  1  0  0  0  0  0  0
  187.6320  177.4990  145.9610 C   0  0  0  0  0  0  0  0  0  0  0  0
  188.6930  176.9310  145.5830 O   0  0  0  0  0  0  0  0  0  0  0  0
  1  7  1  0  0  0  0
  3 15  1  0  0  0  0
  4 13  1  6  0  0  0
  4 10  1  0  0  0  0
  5 22  2  0  0  0  0
  5 20  1  0  0  0  0
  6 13  1  0  0  0  0
  7 14  2  0  0  0  0
  8 11  1  0  0  0  0
  9 12  2  0  0  0  0
 10 14  1  0  0  0  0
 11 12  1  0  0  0  0
 12 21  1  0  0  0  0
 13  1  2  0  0  0  0
 15  9  1  0  0  0  0
 16  8  2  0  0  0  0
 16  9  1  0  0  0  0
 17 20  2  0  0  0  0
 17  6  1  0  0  0  0
 18  2  1  6  0  0  0
 18  4  1  0  0  0  0
 19 21  1  0  0  0  0
 19  2  1  0  0  0  0
 20 18  1  0  0  0  0
 21 23  1  1  0  0  0
 22 15  2  0  0  0  0
 23 24  1  0  0  0  0
 24 25  1  0  0  0  0
 26 30  1  0  0  0  0
 26 34  1  1  0  0  0
 27 25  1  1  0  0  0
 27 31  1  0  0  0  0
 27 29  1  0  0  0  0
 28 30  2  0  0  0  0
 29 28  1  0  0  0  0
 31 26  1  0  0  0  0
 32 33  1  0  0  0  0
 34 32  1  0  0  0  0
 35 34  2  0  0  0  0
M  END
>  <MODEL>
5

>  <REMARK>
 VINA RESULT:      -8.0      2.120      3.650
  Name = 
  5 active torsions:
  status: ('A' for Active; 'I' for Inactive)
    1  A    between atoms: C_2  and  C_22
    2  A    between atoms: C_6  and  O_20
    3  A    between atoms: C_18  and  O_20
    4  A    between atoms: C_18  and  C_24
    5  A    between atoms: C_24  and  C_34
                            x       y       z     vdW  Elec       q    Type
                         _______ _______ _______ _____ _____    ______ ____

>  <TORSDO>
F 5

$$$$
=
 OpenBabel10232410473D

 35 39  0  0  1  0  0  0  0  0999 V2000
  192.2890  176.4070  143.4400 N   0  0  0  0  0  0  0  0  0  0  0  0
  188.3140  176.7070  143.7300 C   0  0  0  0  0  2  0  0  0  0  0  0
  185.9810  180.2890  147.5290 N   0  0  0  0  0  1  0  0  0  0  0  0
  190.4950  177.9590  144.0310 C   0  0  2  0  0  3  0  0  0  0  0  0
  188.1150  177.5580  147.0030 C   0  0  0  0  0  3  0  0  0  0  0  0
  191.2470  176.0930  145.5450 N   0  0  0  0  0  2  0  0  0  0  0  0
  192.4050  177.0320  142.1540 C   0  0  0  0  0  3  0  0  0  0  0  0
  183.0870  178.7550  144.8400 N   0  0  0  0  0  0  0  0  0  0  0  0
  185.0650  178.9340  145.6430 C   0  0  0  0  0  0  0  0  0  0  0  0
  190.4730  178.2910  142.6080 N   0  0  0  0  0  2  0  0  0  0  0  0
  183.9080  178.3000  143.9370 O   0  0  0  0  0  0  0  0  0  0  0  0
  185.1410  178.3970  144.3730 C   0  0  0  0  0  0  0  0  0  0  0  0
  191.3860  176.7760  144.2980 C   0  0  0  0  0  0  0  0  0  0  0  0
  191.5310  177.9100  141.7670 N   0  0  0  0  0  0  0  0  0  0  0  0
  186.1560  179.2400  146.5840 C   0  0  0  0  0  0  0  0  0  0  0  0
  183.7640  179.1630  145.9040 N   0  0  0  0  0  0  0  0  0  0  0  0
  190.1660  176.4250  146.4270 C   0  0  0  0  0  3  0  0  0  0  0  0
  189.0900  177.7090  144.5950 C   0  0  2  0  0  3  0  0  0  0  0  0
  186.8820  176.7450  144.0150 N   0  0  0  0  0  2  0  0  0  0  0  0
  189.1640  177.2250  146.0300 C   0  0  0  0  0  0  0  0  0  0  0  0
  186.3690  178.0420  143.5970 C   0  0  1  0  0  3  0  0  0  0  0  0
  187.1420  178.3990  146.7610 C   0  0  0  0  0  0  0  0  0  0  0  0
  186.1200  178.0710  142.0920 C   0  0  0  0  0  2  0  0  0  0  0  0
  186.7880  179.2890  141.4690 C   0  0  0  0  0  2  0  0  0  0  0  0
  187.9140  178.8930  140.7430 O   0  0  0  0  0  0  0  0  0  0  0  0
  189.7840  177.4960  139.0030 C   0  0  1  0  0  3  0  0  0  0  0  0
  187.4750  177.8360  139.9390 C   0  0  1  0  0  3  0  0  0  0  0  0
  188.0960  178.7650  137.6630 C   0  0  0  0  0  3  0  0  0  0  0  0
  186.9760  178.3600  138.5870 C   0  0  0  0  0  2  0  0  0  0  0  0
  189.3570  178.3370  137.8250 C   0  0  0  0  0  3  0  0  0  0  0  0
  188.6040  176.8290  139.7180 C   0  0  0  0  0  2  0  0  0  0  0  0
  192.1510  176.9160  138.3700 N   0  0  0  0  0  2  0  0  0  0  0  0
  193.1990  175.9860  137.9830 C   0  0  0  0  0  1  0  0  0  0  0  0
  190.8060  176.4900  138.5950 C   0  0  0  0  0  0  0  0  0  0  0  0
  190.4850  175.2790  138.4470 O   0  0  0  0  0  0  0  0  0  0  0  0
  1 13  2  0  0  0  0
  2 19  1  0  0  0  0
  4 10  1  6  0  0  0
  4 13  1  0  0  0  0
  4 18  1  0  0  0  0
  6 17  1  0  0  0  0
  7  1  1  0  0  0  0
  8 16  2  0  0  0  0
  9 16  1  0  0  0  0
  9 15  1  0  0  0  0
 11 12  1  0  0  0  0
 11  8  1  0  0  0  0
 12  9  2  0  0  0  0
 13  6  1  0  0  0  0
 14  7  2  0  0  0  0
 14 10  1  0  0  0  0
 15 22  2  0  0  0  0
 15  3  1  0  0  0  0
 18  2  1  6  0  0  0
 18 20  1  0  0  0  0
 20 17  2  0  0  0  0
 20  5  1  0  0  0  0
 21 23  1  6  0  0  0
 21 19  1  0  0  0  0
 21 12  1  0  0  0  0
 22  5  2  0  0  0  0
 24 23  1  0  0  0  0
 25 24  1  0  0  0  0
 26 34  1  6  0  0  0
 26 31  1  0  0  0  0
 27 25  1  1  0  0  0
 28 30  2  0  0  0  0
 28 29  1  0  0  0  0
 29 27  1  0  0  0  0
 30 26  1  0  0  0  0
 31 27  1  0  0  0  0
 32 34  1  0  0  0  0
 33 32  1  0  0  0  0
 35 34  2  0  0  0  0
M  END
>  <MODEL>
6

>  <REMARK>
 VINA RESULT:      -7.8      2.874      7.635
  Name = 
  5 active torsions:
  status: ('A' for Active; 'I' for Inactive)
    1  A    between atoms: C_2  and  C_22
    2  A    between atoms: C_6  and  O_20
    3  A    between atoms: C_18  and  O_20
    4  A    between atoms: C_18  and  C_24
    5  A    between atoms: C_24  and  C_34
                            x       y       z     vdW  Elec       q    Type
                         _______ _______ _______ _____ _____    ______ ____

>  <TORSDO>
F 5

$$$$
=
 OpenBabel10232410473D

 35 39  0  0  1  0  0  0  0  0999 V2000
  189.5180  177.9910  144.3200 N   0  0  0  0  0  0  0  0  0  0  0  0
  188.8540  178.5730  140.4230 C   0  0  0  0  0  2  0  0  0  0  0  0
  190.1010  174.4530  136.6580 N   0  0  0  0  0  1  0  0  0  0  0  0
  188.9840  176.8170  142.2440 C   0  0  2  0  0  3  0  0  0  0  0  0
  191.2860  176.5590  139.1960 C   0  0  0  0  0  3  0  0  0  0  0  0
  191.2890  177.6780  142.7770 N   0  0  0  0  0  2  0  0  0  0  0  0
  188.1390  177.9250  144.7120 C   0  0  0  0  0  3  0  0  0  0  0  0
  187.8750  177.5850  134.8720 N   0  0  0  0  0  0  0  0  0  0  0  0
  188.8840  176.6260  136.5000 C   0  0  0  0  0  0  0  0  0  0  0  0
  187.5900  177.0980  142.5810 N   0  0  0  0  0  2  0  0  0  0  0  0
  187.4530  178.1490  135.9670 O   0  0  0  0  0  0  0  0  0  0  0  0
  188.0330  177.5900  137.0030 C   0  0  0  0  0  0  0  0  0  0  0  0
  189.9220  177.5400  143.1720 C   0  0  0  0  0  0  0  0  0  0  0  0
  187.2350  177.5150  143.8740 N   0  0  0  0  0  0  0  0  0  0  0  0
  189.7820  175.7150  137.2310 C   0  0  0  0  0  0  0  0  0  0  0  0
  188.7530  176.6350  135.1600 N   0  0  0  0  0  0  0  0  0  0  0  0
  191.6960  177.2940  141.4580 C   0  0  0  0  0  3  0  0  0  0  0  0
  189.3110  177.1530  140.7820 C   0  0  2  0  0  3  0  0  0  0  0  0
  188.8040  178.7720  138.9760 N   0  0  0  0  0  2  0  0  0  0  0  0
  190.7940  176.9890  140.5120 C   0  0  0  0  0  0  0  0  0  0  0  0
  187.7570  177.9170  138.4360 C   0  0  1  0  0  3  0  0  0  0  0  0
  190.5070  176.1490  138.2290 C   0  0  0  0  0  0  0  0  0  0  0  0
  186.3820  178.5540  138.6200 C   0  0  0  0  0  2  0  0  0  0  0  0
  185.2910  177.5950  138.1660 C   0  0  0  0  0  2  0  0  0  0  0  0
  184.1550  177.7560  138.9650 O   0  0  0  0  0  0  0  0  0  0  0  0
  182.9460  178.5290  141.4970 C   0  0  1  0  0  3  0  0  0  0  0  0
  184.1940  179.0880  139.3870 C   0  0  1  0  0  3  0  0  0  0  0  0
  181.7050  179.5340  139.5720 C   0  0  0  0  0  3  0  0  0  0  0  0
  182.9850  179.8600  138.8460 C   0  0  0  0  0  2  0  0  0  0  0  0
  181.6880  178.9740  140.7910 C   0  0  0  0  0  3  0  0  0  0  0  0
  184.2130  179.1630  140.9140 C   0  0  0  0  0  2  0  0  0  0  0  0
  183.9930  178.5570  143.7870 N   0  0  0  0  0  2  0  0  0  0  0  0
  183.9680  178.7890  145.2220 C   0  0  0  0  0  1  0  0  0  0  0  0
  182.8450  178.7730  142.9640 C   0  0  0  0  0  0  0  0  0  0  0  0
  181.7580  179.1630  143.4730 O   0  0  0  0  0  0  0  0  0  0  0  0
  1  7  1  0  0  0  0
  3 15  1  0  0  0  0
  4 10  1  1  0  0  0
  4 13  1  0  0  0  0
  5 20  1  0  0  0  0
  6 13  1  0  0  0  0
  8 16  2  0  0  0  0
  8 11  1  0  0  0  0
  9 12  2  0  0  0  0
  9 15  1  0  0  0  0
 10 14  1  0  0  0  0
 11 12  1  0  0  0  0
 12 21  1  0  0  0  0
 13  1  2  0  0  0  0
 14  7  2  0  0  0  0
 15 22  2  0  0  0  0
 16  9  1  0  0  0  0
 17  6  1  0  0  0  0
 18  2  1  1  0  0  0
 18  4  1  0  0  0  0
 19  2  1  0  0  0  0
 20 18  1  0  0  0  0
 20 17  2  0  0  0  0
 21 23  1  6  0  0  0
 21 19  1  0  0  0  0
 22  5  2  0  0  0  0
 24 23  1  0  0  0  0
 24 25  1  0  0  0  0
 26 34  1  1  0  0  0
 27 25  1  1  0  0  0
 27 31  1  0  0  0  0
 28 30  2  0  0  0  0
 29 27  1  0  0  0  0
 29 28  1  0  0  0  0
 30 26  1  0  0  0  0
 31 26  1  0  0  0  0
 32 33  1  0  0  0  0
 34 35  2  0  0  0  0
 34 32  1  0  0  0  0
M  END
>  <MODEL>
7

>  <REMARK>
 VINA RESULT:      -7.8      2.621      6.330
  Name = 
  5 active torsions:
  status: ('A' for Active; 'I' for Inactive)
    1  A    between atoms: C_2  and  C_22
    2  A    between atoms: C_6  and  O_20
    3  A    between atoms: C_18  and  O_20
    4  A    between atoms: C_18  and  C_24
    5  A    between atoms: C_24  and  C_34
                            x       y       z     vdW  Elec       q    Type
                         _______ _______ _______ _____ _____    ______ ____

>  <TORSDO>
F 5

$$$$
=
 OpenBabel10232410473D

 35 39  0  0  1  0  0  0  0  0999 V2000
  193.4800  176.8540  138.5150 N   0  0  0  0  0  0  0  0  0  0  0  0
  189.7330  178.2180  138.2570 C   0  0  0  0  0  2  0  0  0  0  0  0
  185.4690  174.6480  136.9210 N   0  0  0  0  0  1  0  0  0  0  0  0
  191.1450  176.1830  138.7850 C   0  0  2  0  0  3  0  0  0  0  0  0
  188.5540  176.0140  135.9710 C   0  0  0  0  0  3  0  0  0  0  0  0
  192.2350  176.4750  136.5340 N   0  0  0  0  0  2  0  0  0  0  0  0
  193.6050  176.9900  139.9370 C   0  0  0  0  0  3  0  0  0  0  0  0
  184.0140  178.4130  138.2090 N   0  0  0  0  0  0  0  0  0  0  0  0
  185.5570  177.0100  137.7230 C   0  0  0  0  0  0  0  0  0  0  0  0
  191.2870  176.6670  140.1560 N   0  0  0  0  0  2  0  0  0  0  0  0
  185.1130  178.8510  138.7540 O   0  0  0  0  0  0  0  0  0  0  0  0
  186.0940  178.0200  138.4970 C   0  0  0  0  0  0  0  0  0  0  0  0
  192.3510  176.5380  137.9570 C   0  0  0  0  0  0  0  0  0  0  0  0
  192.5580  176.9150  140.7010 N   0  0  0  0  0  0  0  0  0  0  0  0
  186.2280  175.8300  137.1500 C   0  0  0  0  0  0  0  0  0  0  0  0
  184.2460  177.2760  137.5700 N   0  0  0  0  0  0  0  0  0  0  0  0
  190.9550  176.2520  135.9280 C   0  0  0  0  0  3  0  0  0  0  0  0
  189.8640  176.6960  138.1130 C   0  0  2  0  0  3  0  0  0  0  0  0
  188.3720  178.6700  137.9750 N   0  0  0  0  0  2  0  0  0  0  0  0
  189.8250  176.2970  136.6510 C   0  0  0  0  0  0  0  0  0  0  0  0
  187.4940  178.1410  139.0080 C   0  0  1  0  0  3  0  0  0  0  0  0
  187.4040  175.9360  136.5880 C   0  0  0  0  0  0  0  0  0  0  0  0
  187.5660  178.9910  140.2740 C   0  0  0  0  0  2  0  0  0  0  0  0
  187.4150  178.1150  141.5080 C   0  0  0  0  0  2  0  0  0  0  0  0
  188.6760  177.7570  141.9940 O   0  0  0  0  0  0  0  0  0  0  0  0
  188.5330  177.7370  144.9020 C   0  0  1  0  0  3  0  0  0  0  0  0
  188.4740  176.5570  142.6820 C   0  0  1  0  0  3  0  0  0  0  0  0
  190.5750  176.5350  144.1000 C   0  0  0  0  0  3  0  0  0  0  0  0
  189.8130  175.8740  142.9790 C   0  0  0  0  0  2  0  0  0  0  0  0
  189.9860  177.3400  144.9970 C   0  0  0  0  0  3  0  0  0  0  0  0
  187.7210  176.8110  143.9890 C   0  0  0  0  0  2  0  0  0  0  0  0
  188.7680  177.8810  147.4050 N   0  0  0  0  0  2  0  0  0  0  0  0
  188.2350  177.9870  148.7530 C   0  0  0  0  0  1  0  0  0  0  0  0
  187.9190  177.8320  146.2560 C   0  0  0  0  0  0  0  0  0  0  0  0
  186.6640  177.8660  146.3870 O   0  0  0  0  0  0  0  0  0  0  0  0
  1  7  1  0  0  0  0
  3 15  1  0  0  0  0
  4 13  1  6  0  0  0
  4 10  1  0  0  0  0
  5 22  2  0  0  0  0
  5 20  1  0  0  0  0
  6 13  1  0  0  0  0
  7 14  2  0  0  0  0
  8 11  1  0  0  0  0
  9 12  2  0  0  0  0
 10 14  1  0  0  0  0
 12 11  1  0  0  0  0
 12 21  1  0  0  0  0
 13  1  2  0  0  0  0
 15  9  1  0  0  0  0
 16  9  1  0  0  0  0
 16  8  2  0  0  0  0
 17  6  1  0  0  0  0
 17 20  2  0  0  0  0
 18  2  1  6  0  0  0
 18  4  1  0  0  0  0
 19  2  1  0  0  0  0
 19 21  1  0  0  0  0
 20 18  1  0  0  0  0
 21 23  1  1  0  0  0
 22 15  2  0  0  0  0
 23 24  1  0  0  0  0
 24 25  1  0  0  0  0
 26 30  1  0  0  0  0
 26 34  1  1  0  0  0
 27 25  1  1  0  0  0
 27 29  1  0  0  0  0
 27 31  1  0  0  0  0
 28 30  2  0  0  0  0
 29 28  1  0  0  0  0
 31 26  1  0  0  0  0
 32 33  1  0  0  0  0
 34 35  2  0  0  0  0
 34 32  1  0  0  0  0
M  END
>  <MODEL>
8

>  <REMARK>
 VINA RESULT:      -7.8      1.617      1.996
  Name = 
  5 active torsions:
  status: ('A' for Active; 'I' for Inactive)
    1  A    between atoms: C_2  and  C_22
    2  A    between atoms: C_6  and  O_20
    3  A    between atoms: C_18  and  O_20
    4  A    between atoms: C_18  and  C_24
    5  A    between atoms: C_24  and  C_34
                            x       y       z     vdW  Elec       q    Type
                         _______ _______ _______ _____ _____    ______ ____

>  <TORSDO>
F 5

$$$$
=
 OpenBabel10232410473D

 35 39  0  0  1  0  0  0  0  0999 V2000
  192.2050  176.3630  143.4440 N   0  0  0  0  0  0  0  0  0  0  0  0
  188.2280  176.6670  143.6910 C   0  0  0  0  0  2  0  0  0  0  0  0
  185.8570  180.2250  147.4890 N   0  0  0  0  0  1  0  0  0  0  0  0
  190.4070  177.9140  144.0260 C   0  0  2  0  0  3  0  0  0  0  0  0
  187.9930  177.4950  146.9680 C   0  0  0  0  0  3  0  0  0  0  0  0
  191.1390  176.0360  145.5350 N   0  0  0  0  0  2  0  0  0  0  0  0
  192.3370  176.9970  142.1640 C   0  0  0  0  0  3  0  0  0  0  0  0
  182.9920  178.7150  144.7570 N   0  0  0  0  0  0  0  0  0  0  0  0
  184.9610  178.8860  145.5830 C   0  0  0  0  0  0  0  0  0  0  0  0
  190.4020  178.2560  142.6050 N   0  0  0  0  0  2  0  0  0  0  0  0
  183.8220  178.2660  143.8600 O   0  0  0  0  0  0  0  0  0  0  0  0
  185.0510  178.3580  144.3110 C   0  0  0  0  0  0  0  0  0  0  0  0
  191.2940  176.7280  144.2940 C   0  0  0  0  0  0  0  0  0  0  0  0
  191.4690  177.8800  141.7730 N   0  0  0  0  0  0  0  0  0  0  0  0
  186.0420  179.1830  146.5380 C   0  0  0  0  0  0  0  0  0  0  0  0
  183.6570  179.1140  145.8310 N   0  0  0  0  0  0  0  0  0  0  0  0
  190.0490  176.3630  146.4070 C   0  0  0  0  0  3  0  0  0  0  0  0
  188.9950  177.6620  144.5720 C   0  0  2  0  0  3  0  0  0  0  0  0
  186.7920  176.7050  143.9600 N   0  0  0  0  0  2  0  0  0  0  0  0
  189.0520  177.1680  146.0040 C   0  0  0  0  0  0  0  0  0  0  0  0
  186.2870  178.0060  143.5460 C   0  0  1  0  0  3  0  0  0  0  0  0
  187.0240  178.3390  146.7200 C   0  0  0  0  0  0  0  0  0  0  0  0
  186.0540  178.0470  142.0380 C   0  0  0  0  0  2  0  0  0  0  0  0
  187.2610  178.6480  141.3340 C   0  0  0  0  0  2  0  0  0  0  0  0
  187.7960  177.7220  140.4330 O   0  0  0  0  0  0  0  0  0  0  0  0
  187.2670  176.7090  137.7560 C   0  0  1  0  0  3  0  0  0  0  0  0
  188.1570  178.4740  139.3110 C   0  0  1  0  0  3  0  0  0  0  0  0
  189.7260  176.8240  138.1970 C   0  0  0  0  0  3  0  0  0  0  0  0
  189.5960  178.1560  138.8900 C   0  0  0  0  0  2  0  0  0  0  0  0
  188.6800  176.1920  137.6440 C   0  0  0  0  0  3  0  0  0  0  0  0
  187.2040  178.1890  138.1490 C   0  0  0  0  0  2  0  0  0  0  0  0
  185.2360  177.0800  136.3130 N   0  0  0  0  0  2  0  0  0  0  0  0
  184.4490  176.8830  135.1070 C   0  0  0  0  0  1  0  0  0  0  0  0
  186.5060  176.4520  136.5000 C   0  0  0  0  0  0  0  0  0  0  0  0
  186.9770  175.6850  135.6150 O   0  0  0  0  0  0  0  0  0  0  0  0
  1 13  2  0  0  0  0
  2 19  1  0  0  0  0
  4 10  1  6  0  0  0
  4 13  1  0  0  0  0
  4 18  1  0  0  0  0
  6 17  1  0  0  0  0
  7  1  1  0  0  0  0
  8 16  2  0  0  0  0
  9 16  1  0  0  0  0
  9 15  1  0  0  0  0
 11 12  1  0  0  0  0
 11  8  1  0  0  0  0
 12  9  2  0  0  0  0
 13  6  1  0  0  0  0
 14  7  2  0  0  0  0
 14 10  1  0  0  0  0
 15 22  2  0  0  0  0
 15  3  1  0  0  0  0
 18  2  1  6  0  0  0
 18 20  1  0  0  0  0
 20 17  2  0  0  0  0
 20  5  1  0  0  0  0
 21 23  1  6  0  0  0
 21 19  1  0  0  0  0
 21 12  1  0  0  0  0
 22  5  2  0  0  0  0
 24 23  1  0  0  0  0
 25 24  1  0  0  0  0
 26 34  1  6  0  0  0
 26 31  1  0  0  0  0
 27 25  1  1  0  0  0
 28 29  1  0  0  0  0
 29 27  1  0  0  0  0
 30 26  1  0  0  0  0
 30 28  2  0  0  0  0
 31 27  1  0  0  0  0
 32 34  1  0  0  0  0
 33 32  1  0  0  0  0
 35 34  2  0  0  0  0
M  END
>  <MODEL>
9

>  <REMARK>
 VINA RESULT:      -7.8      2.796      7.752
  Name = 
  5 active torsions:
  status: ('A' for Active; 'I' for Inactive)
    1  A    between atoms: C_2  and  C_22
    2  A    between atoms: C_6  and  O_20
    3  A    between atoms: C_18  and  O_20
    4  A    between atoms: C_18  and  C_24
    5  A    between atoms: C_24  and  C_34
                            x       y       z     vdW  Elec       q    Type
                         _______ _______ _______ _____ _____    ______ ____

>  <TORSDO>
F 5

$$$$
