=
 OpenBabel10232409363D

 33 36  0  0  1  0  0  0  0  0999 V2000
  189.3350  176.6850  143.9390 C   0  0  2  0  0  3  0  0  0  0  0  0
  184.5810  178.3920  143.7120 C   0  0  0  0  0  3  0  0  0  0  0  0
  188.1680  177.5440  144.1600 N   0  0  0  0  0  0  0  0  0  0  0  0
  185.3770  178.5340  146.3970 C   0  0  0  0  0  3  0  0  0  0  0  0
  188.3570  177.7420  146.5200 O   0  0  0  0  0  0  0  0  0  0  0  0
  183.6760  178.7360  144.7290 C   0  0  0  0  0  0  0  0  0  0  0  0
  187.0540  177.7180  143.2070 C   0  0  1  0  0  3  0  0  0  0  0  0
  184.0890  178.7990  146.0340 N   0  0  0  0  0  0  0  0  0  0  0  0
  186.2840  178.2000  145.3980 C   0  0  0  0  0  0  0  0  0  0  0  0
  182.3200  179.0180  144.4030 N   0  0  0  0  0  1  0  0  0  0  0  0
  185.9000  178.1300  144.0810 C   0  0  0  0  0  0  0  0  0  0  0  0
  187.6730  177.8350  145.4660 C   0  0  0  0  0  0  0  0  0  0  0  0
  186.8150  178.7720  140.9640 C   0  0  0  0  0  2  0  0  0  0  0  0
  187.3720  178.7670  142.1770 C   0  0  0  0  0  3  0  0  0  0  0  0
  190.6610  177.4500  144.0850 C   0  0  1  0  0  3  0  0  0  0  0  0
  190.3960  178.9220  144.3520 C   0  0  0  0  0  1  0  0  0  0  0  0
  191.4990  176.9050  145.1990 C   0  0  0  0  0  0  0  0  0  0  0  0
  191.6920  177.5990  146.2310 O   0  0  0  0  0  1  0  0  0  0  0  0
  192.0470  175.6310  145.1100 O   0  0  0  0  0  0  0  0  0  0  0  0
  189.2070  175.8890  142.6320 C   0  0  0  0  0  2  0  0  0  0  0  0
  189.9860  176.4890  141.5060 C   0  0  0  0  0  0  0  0  0  0  0  0
  190.9930  177.2780  140.0920 C   0  0  1  0  0  3  0  0  0  0  0  0
  189.6360  177.0380  140.3330 N   0  0  0  0  0  0  0  0  0  0  0  0
  191.4290  176.6940  141.2640 N   0  0  0  0  0  2  0  0  0  0  0  0
  191.4690  176.4870  138.9140 C   0  0  0  0  0  3  0  0  0  0  0  0
  192.7260  176.5900  138.4950 C   0  0  0  0  0  3  0  0  0  0  0  0
  195.1550  175.1020  138.6530 O   0  0  0  0  0  1  0  0  0  0  0  0
  194.9410  174.4110  136.3590 C   0  0  0  0  0  3  0  0  0  0  0  0
  194.4480  175.1190  137.4560 C   0  0  0  0  0  0  0  0  0  0  0  0
  193.0730  175.1290  135.0570 N   0  0  0  0  0  0  0  0  0  0  0  0
  193.2480  175.8380  137.3410 C   0  0  0  0  0  0  0  0  0  0  0  0
  194.2350  174.4280  135.1560 C   0  0  0  0  0  3  0  0  0  0  0  0
  192.5710  175.8260  136.1110 C   0  0  0  0  0  3  0  0  0  0  0  0
  1 20  1  6  0  0  0
  1 15  1  0  0  0  0
  1  3  1  0  0  0  0
  2 11  2  0  0  0  0
  2  6  1  0  0  0  0
  3 12  1  0  0  0  0
  6  8  2  0  0  0  0
  7 14  1  6  0  0  0
  7 11  1  0  0  0  0
  7  3  1  0  0  0  0
  8  4  1  0  0  0  0
  9 12  1  0  0  0  0
  9  4  2  0  0  0  0
 10  6  1  0  0  0  0
 11  9  1  0  0  0  0
 12  5  2  0  0  0  0
 13 14  2  0  0  0  0
 15 16  1  1  0  0  0
 15 17  1  0  0  0  0
 17 18  1  0  0  0  0
 19 17  2  0  0  0  0
 21 20  1  0  0  0  0
 22 25  1  6  0  0  0
 22 23  1  0  0  0  0
 22 24  1  0  0  0  0
 23 21  2  0  0  0  0
 24 21  1  0  0  0  0
 26 25  2  0  0  0  0
 28 29  1  0  0  0  0
 29 27  1  0  0  0  0
 30 32  1  0  0  0  0
 30 33  2  0  0  0  0
 31 29  2  0  0  0  0
 31 26  1  0  0  0  0
 32 28  2  0  0  0  0
 33 31  1  0  0  0  0
M  END
>  <MODEL>
1

>  <REMARK>
 VINA RESULT:      -8.3      0.000      0.000
  Name = 
  8 active torsions:
  status: ('A' for Active; 'I' for Inactive)
    1  A    between atoms: N_5  and  C_21
    2  A    between atoms: C_7  and  C_20
    3  A    between atoms: C_10  and  C_13
    4  A    between atoms: C_11  and  C_26
    5  A    between atoms: C_13  and  C_21
    6  A    between atoms: C_14  and  C_19
    7  A    between atoms: C_16  and  C_17
    8  A    between atoms: C_16  and  C_21
                            x       y       z     vdW  Elec       q    Type
                         _______ _______ _______ _____ _____    ______ ____

>  <TORSDO>
F 8

$$$$
=
 OpenBabel10232409363D

 33 36  0  0  1  0  0  0  0  0999 V2000
  189.7780  176.6440  139.0150 C   0  0  2  0  0  3  0  0  0  0  0  0
  191.6890  173.0960  135.9610 C   0  0  0  0  0  3  0  0  0  0  0  0
  190.0100  175.8440  137.8080 N   0  0  0  0  0  0  0  0  0  0  0  0
  188.9040  173.0460  135.6370 C   0  0  0  0  0  3  0  0  0  0  0  0
  187.7390  175.3720  137.2950 O   0  0  0  0  0  0  0  0  0  0  0  0
  191.0570  172.1090  135.1870 C   0  0  0  0  0  0  0  0  0  0  0  0
  191.2910  175.2040  137.4520 C   0  0  1  0  0  3  0  0  0  0  0  0
  189.6960  172.1050  135.0430 N   0  0  0  0  0  0  0  0  0  0  0  0
  189.5190  174.0330  136.3990 C   0  0  0  0  0  0  0  0  0  0  0  0
  191.8380  171.1040  134.5510 N   0  0  0  0  0  1  0  0  0  0  0  0
  190.8820  174.0630  136.5610 C   0  0  0  0  0  0  0  0  0  0  0  0
  188.9660  175.1160  137.1660 C   0  0  0  0  0  0  0  0  0  0  0  0
  193.4510  176.4090  137.1570 C   0  0  0  0  0  2  0  0  0  0  0  0
  192.2060  176.1640  136.7410 C   0  0  0  0  0  3  0  0  0  0  0  0
  189.3450  178.0830  138.6900 C   0  0  1  0  0  3  0  0  0  0  0  0
  189.4120  178.3300  137.1930 C   0  0  0  0  0  1  0  0  0  0  0  0
  187.9520  178.3650  139.1590 C   0  0  0  0  0  0  0  0  0  0  0  0
  187.0210  178.4740  138.3180 O   0  0  0  0  0  0  0  0  0  0  0  0
  187.6760  178.4860  140.5160 O   0  0  0  0  0  1  0  0  0  0  0  0
  190.9620  176.5470  139.9900 C   0  0  0  0  0  2  0  0  0  0  0  0
  190.5610  176.7510  141.4140 C   0  0  0  0  0  0  0  0  0  0  0  0
  190.0820  177.0160  143.2420 C   0  0  1  0  0  3  0  0  0  0  0  0
  189.8950  175.9960  142.3020 N   0  0  0  0  0  0  0  0  0  0  0  0
  190.7410  177.8610  142.3730 N   0  0  0  0  0  2  0  0  0  0  0  0
  188.7690  177.6110  143.6440 C   0  0  0  0  0  3  0  0  0  0  0  0
  188.1460  177.1910  144.7400 C   0  0  0  0  0  3  0  0  0  0  0  0
  187.5980  177.6990  147.4930 O   0  0  0  0  0  1  0  0  0  0  0  0
  185.3890  178.4880  146.9620 C   0  0  0  0  0  3  0  0  0  0  0  0
  186.6180  177.9730  146.5460 C   0  0  0  0  0  0  0  0  0  0  0  0
  184.6410  178.5300  144.6950 N   0  0  0  0  0  0  0  0  0  0  0  0
  186.8520  177.7380  145.1820 C   0  0  0  0  0  0  0  0  0  0  0  0
  184.4020  178.7620  146.0140 C   0  0  0  0  0  3  0  0  0  0  0  0
  185.8300  178.0300  144.2640 C   0  0  0  0  0  3  0  0  0  0  0  0
  1 20  1  6  0  0  0
  2 11  1  0  0  0  0
  3  1  1  0  0  0  0
  4  9  1  0  0  0  0
  6  2  2  0  0  0  0
  7 14  1  6  0  0  0
  7  3  1  0  0  0  0
  8  6  1  0  0  0  0
  8  4  2  0  0  0  0
  9 11  2  0  0  0  0
  9 12  1  0  0  0  0
 10  6  1  0  0  0  0
 11  7  1  0  0  0  0
 12  5  2  0  0  0  0
 12  3  1  0  0  0  0
 14 13  2  0  0  0  0
 15 16  1  6  0  0  0
 15  1  1  0  0  0  0
 15 17  1  0  0  0  0
 17 19  1  0  0  0  0
 18 17  2  0  0  0  0
 20 21  1  0  0  0  0
 21 23  2  0  0  0  0
 21 24  1  0  0  0  0
 22 25  1  6  0  0  0
 23 22  1  0  0  0  0
 24 22  1  0  0  0  0
 25 26  2  0  0  0  0
 26 31  1  0  0  0  0
 29 28  1  0  0  0  0
 29 27  1  0  0  0  0
 30 32  1  0  0  0  0
 31 29  2  0  0  0  0
 32 28  2  0  0  0  0
 33 30  2  0  0  0  0
 33 31  1  0  0  0  0
M  END
>  <MODEL>
2

>  <REMARK>
 VINA RESULT:      -8.1      3.173      9.688
  Name = 
  8 active torsions:
  status: ('A' for Active; 'I' for Inactive)
    1  A    between atoms: N_5  and  C_21
    2  A    between atoms: C_7  and  C_20
    3  A    between atoms: C_10  and  C_13
    4  A    between atoms: C_11  and  C_26
    5  A    between atoms: C_13  and  C_21
    6  A    between atoms: C_14  and  C_19
    7  A    between atoms: C_16  and  C_17
    8  A    between atoms: C_16  and  C_21
                            x       y       z     vdW  Elec       q    Type
                         _______ _______ _______ _____ _____    ______ ____

>  <TORSDO>
F 8

$$$$
=
 OpenBabel10232409363D

 33 36  0  0  1  0  0  0  0  0999 V2000
  189.9730  177.0030  145.7410 C   0  0  2  0  0  3  0  0  0  0  0  0
  185.4540  179.2150  145.2420 C   0  0  0  0  0  3  0  0  0  0  0  0
  188.5330  177.1590  145.5100 N   0  0  0  0  0  0  0  0  0  0  0  0
  185.7620  177.4770  143.0620 C   0  0  0  0  0  3  0  0  0  0  0  0
  188.3970  175.9280  143.4840 O   0  0  0  0  0  0  0  0  0  0  0  0
  184.5230  179.1820  144.1910 C   0  0  0  0  0  0  0  0  0  0  0  0
  187.6850  178.1910  146.1370 C   0  0  1  0  0  3  0  0  0  0  0  0
  184.6950  178.3250  143.1370 N   0  0  0  0  0  0  0  0  0  0  0  0
  186.6860  177.4950  144.1020 C   0  0  0  0  0  0  0  0  0  0  0  0
  183.3950  180.0490  144.2200 N   0  0  0  0  0  1  0  0  0  0  0  0
  186.5400  178.3430  145.1720 C   0  0  0  0  0  0  0  0  0  0  0  0
  187.9110  176.7660  144.2890 C   0  0  0  0  0  0  0  0  0  0  0  0
  187.5380  178.4190  148.6120 C   0  0  0  0  0  2  0  0  0  0  0  0
  187.2100  177.7610  147.4980 C   0  0  0  0  0  3  0  0  0  0  0  0
  190.3050  176.7500  147.2200 C   0  0  1  0  0  3  0  0  0  0  0  0
  189.4820  175.5920  147.7570 C   0  0  0  0  0  1  0  0  0  0  0  0
  191.7550  176.4400  147.4210 C   0  0  0  0  0  0  0  0  0  0  0  0
  192.4030  177.0390  148.3200 O   0  0  0  0  0  1  0  0  0  0  0  0
  192.3870  175.4820  146.6350 O   0  0  0  0  0  0  0  0  0  0  0  0
  190.7720  178.1490  145.1020 C   0  0  0  0  0  2  0  0  0  0  0  0
  191.1350  177.8820  143.6770 C   0  0  0  0  0  0  0  0  0  0  0  0
  191.6310  177.5360  141.8680 C   0  0  1  0  0  3  0  0  0  0  0  0
  191.0400  178.6050  142.5510 N   0  0  0  0  0  0  0  0  0  0  0  0
  191.7240  176.7220  142.9790 N   0  0  0  0  0  2  0  0  0  0  0  0
  190.6740  176.9480  140.8780 C   0  0  0  0  0  3  0  0  0  0  0  0
  190.7090  177.3240  139.6030 C   0  0  0  0  0  3  0  0  0  0  0  0
  188.2430  178.6130  138.9710 O   0  0  0  0  0  1  0  0  0  0  0  0
  187.7170  176.9230  137.3420 C   0  0  0  0  0  3  0  0  0  0  0  0
  188.5860  177.4420  138.3040 C   0  0  0  0  0  0  0  0  0  0  0  0
  189.2290  175.1170  136.9550 N   0  0  0  0  0  0  0  0  0  0  0  0
  189.7920  176.7820  138.5860 C   0  0  0  0  0  0  0  0  0  0  0  0
  188.0580  175.7480  136.6720 C   0  0  0  0  0  3  0  0  0  0  0  0
  190.0930  175.6030  137.8860 C   0  0  0  0  0  3  0  0  0  0  0  0
  1 20  1  1  0  0  0
  1 15  1  0  0  0  0
  3  1  1  0  0  0  0
  3  7  1  0  0  0  0
  4  8  2  0  0  0  0
  4  9  1  0  0  0  0
  5 12  2  0  0  0  0
  6 10  1  0  0  0  0
  6  2  2  0  0  0  0
  7 14  1  1  0  0  0
  8  6  1  0  0  0  0
  9 12  1  0  0  0  0
  9 11  2  0  0  0  0
 11  2  1  0  0  0  0
 11  7  1  0  0  0  0
 12  3  1  0  0  0  0
 14 13  2  0  0  0  0
 15 17  1  0  0  0  0
 15 16  1  6  0  0  0
 17 18  1  0  0  0  0
 19 17  2  0  0  0  0
 21 20  1  0  0  0  0
 22 25  1  6  0  0  0
 22 23  1  0  0  0  0
 22 24  1  0  0  0  0
 23 21  2  0  0  0  0
 24 21  1  0  0  0  0
 26 25  2  0  0  0  0
 28 29  1  0  0  0  0
 29 31  2  0  0  0  0
 29 27  1  0  0  0  0
 30 33  2  0  0  0  0
 31 26  1  0  0  0  0
 32 30  1  0  0  0  0
 32 28  2  0  0  0  0
 33 31  1  0  0  0  0
M  END
>  <MODEL>
3

>  <REMARK>
 VINA RESULT:      -8.1      2.764      3.856
  Name = 
  8 active torsions:
  status: ('A' for Active; 'I' for Inactive)
    1  A    between atoms: N_5  and  C_21
    2  A    between atoms: C_7  and  C_20
    3  A    between atoms: C_10  and  C_13
    4  A    between atoms: C_11  and  C_26
    5  A    between atoms: C_13  and  C_21
    6  A    between atoms: C_14  and  C_19
    7  A    between atoms: C_16  and  C_17
    8  A    between atoms: C_16  and  C_21
                            x       y       z     vdW  Elec       q    Type
                         _______ _______ _______ _____ _____    ______ ____

>  <TORSDO>
F 8

$$$$
=
 OpenBabel10232409363D

 33 36  0  0  1  0  0  0  0  0999 V2000
  186.1910  176.6770  137.5690 C   0  0  2  0  0  3  0  0  0  0  0  0
  191.1790  176.5800  138.3930 C   0  0  0  0  0  3  0  0  0  0  0  0
  187.6170  176.9890  137.4290 N   0  0  0  0  0  0  0  0  0  0  0  0
  190.8010  176.3820  135.6220 C   0  0  0  0  0  3  0  0  0  0  0  0
  187.7810  176.6990  135.0770 O   0  0  0  0  0  0  0  0  0  0  0  0
  192.2530  176.3380  137.5210 C   0  0  0  0  0  0  0  0  0  0  0  0
  188.5990  176.9660  138.5310 C   0  0  1  0  0  3  0  0  0  0  0  0
  192.0430  176.2460  136.1710 N   0  0  0  0  0  0  0  0  0  0  0  0
  189.7320  176.6300  136.4750 C   0  0  0  0  0  0  0  0  0  0  0  0
  193.5670  176.1840  138.0440 N   0  0  0  0  0  1  0  0  0  0  0  0
  189.9110  176.7290  137.8330 C   0  0  0  0  0  0  0  0  0  0  0  0
  188.3260  176.7790  136.2100 C   0  0  0  0  0  0  0  0  0  0  0  0
  188.5720  178.3140  140.6250 C   0  0  0  0  0  2  0  0  0  0  0  0
  188.6010  178.2650  139.2910 C   0  0  0  0  0  3  0  0  0  0  0  0
  185.7350  175.5790  136.5950 C   0  0  1  0  0  3  0  0  0  0  0  0
  186.2050  174.2170  137.0750 C   0  0  0  0  0  1  0  0  0  0  0  0
  184.2460  175.5470  136.4510 C   0  0  0  0  0  0  0  0  0  0  0  0
  183.7180  175.8650  135.3520 O   0  0  0  0  0  0  0  0  0  0  0  0
  183.4420  175.1490  137.5130 O   0  0  0  0  0  1  0  0  0  0  0  0
  185.3320  177.9500  137.5320 C   0  0  0  0  0  2  0  0  0  0  0  0
  184.8970  178.3980  138.8890 C   0  0  0  0  0  0  0  0  0  0  0  0
  184.3090  178.9660  140.6130 C   0  0  1  0  0  3  0  0  0  0  0  0
  185.1030  179.5170  139.6010 N   0  0  0  0  0  0  0  0  0  0  0  0
  184.0870  177.7740  139.9550 N   0  0  0  0  0  2  0  0  0  0  0  0
  185.1190  178.7290  141.8490 C   0  0  0  0  0  3  0  0  0  0  0  0
  184.5250  178.6250  143.0340 C   0  0  0  0  0  3  0  0  0  0  0  0
  183.3940  179.2210  145.5840 O   0  0  0  0  0  1  0  0  0  0  0  0
  185.3940  178.4860  146.7010 C   0  0  0  0  0  3  0  0  0  0  0  0
  184.6820  178.7020  145.5200 C   0  0  0  0  0  0  0  0  0  0  0  0
  187.2470  177.6730  145.4340 N   0  0  0  0  0  0  0  0  0  0  0  0
  185.2710  178.3940  144.2830 C   0  0  0  0  0  0  0  0  0  0  0  0
  186.6880  177.9670  146.6390 C   0  0  0  0  0  3  0  0  0  0  0  0
  186.5740  177.8740  144.2690 C   0  0  0  0  0  3  0  0  0  0  0  0
  1 20  1  6  0  0  0
  3  1  1  0  0  0  0
  3  7  1  0  0  0  0
  4  8  2  0  0  0  0
  4  9  1  0  0  0  0
  5 12  2  0  0  0  0
  6 10  1  0  0  0  0
  6  2  2  0  0  0  0
  7 14  1  6  0  0  0
  8  6  1  0  0  0  0
  9 11  2  0  0  0  0
 11  2  1  0  0  0  0
 11  7  1  0  0  0  0
 12  9  1  0  0  0  0
 12  3  1  0  0  0  0
 14 13  2  0  0  0  0
 15 16  1  1  0  0  0
 15  1  1  0  0  0  0
 17 15  1  0  0  0  0
 17 19  1  0  0  0  0
 18 17  2  0  0  0  0
 20 21  1  0  0  0  0
 21 23  2  0  0  0  0
 21 24  1  0  0  0  0
 22 25  1  1  0  0  0
 23 22  1  0  0  0  0
 24 22  1  0  0  0  0
 25 26  2  0  0  0  0
 26 31  1  0  0  0  0
 29 27  1  0  0  0  0
 29 28  2  0  0  0  0
 30 32  2  0  0  0  0
 31 29  1  0  0  0  0
 32 28  1  0  0  0  0
 33 31  2  0  0  0  0
 33 30  1  0  0  0  0
M  END
>  <MODEL>
4

>  <REMARK>
 VINA RESULT:      -8.0      4.415     10.081
  Name = 
  8 active torsions:
  status: ('A' for Active; 'I' for Inactive)
    1  A    between atoms: N_5  and  C_21
    2  A    between atoms: C_7  and  C_20
    3  A    between atoms: C_10  and  C_13
    4  A    between atoms: C_11  and  C_26
    5  A    between atoms: C_13  and  C_21
    6  A    between atoms: C_14  and  C_19
    7  A    between atoms: C_16  and  C_17
    8  A    between atoms: C_16  and  C_21
                            x       y       z     vdW  Elec       q    Type
                         _______ _______ _______ _____ _____    ______ ____

>  <TORSDO>
F 8

$$$$
=
 OpenBabel10232409363D

 33 36  0  0  1  0  0  0  0  0999 V2000
  183.9520  176.9300  137.7290 C   0  0  2  0  0  3  0  0  0  0  0  0
  188.4230  174.8890  136.5380 C   0  0  0  0  0  3  0  0  0  0  0  0
  184.9380  176.0260  137.1280 N   0  0  0  0  0  0  0  0  0  0  0  0
  186.7330  172.7820  137.2940 C   0  0  0  0  0  3  0  0  0  0  0  0
  183.9290  173.9750  137.7760 O   0  0  0  0  0  0  0  0  0  0  0  0
  188.9020  173.5760  136.6750 C   0  0  0  0  0  0  0  0  0  0  0  0
  186.3070  176.4100  136.7350 C   0  0  1  0  0  3  0  0  0  0  0  0
  188.0580  172.5640  137.0450 N   0  0  0  0  0  0  0  0  0  0  0  0
  186.2460  174.0770  137.1530 C   0  0  0  0  0  0  0  0  0  0  0  0
  190.2760  173.2970  136.4310 N   0  0  0  0  0  1  0  0  0  0  0  0
  187.0680  175.1120  136.7830 C   0  0  0  0  0  0  0  0  0  0  0  0
  184.9340  174.6220  137.3780 C   0  0  0  0  0  0  0  0  0  0  0  0
  187.0690  178.0920  135.0640 C   0  0  0  0  0  2  0  0  0  0  0  0
  186.3330  177.0180  135.3590 C   0  0  0  0  0  3  0  0  0  0  0  0
  182.6930  177.0830  136.8610 C   0  0  1  0  0  3  0  0  0  0  0  0
  182.9280  176.4980  135.4800 C   0  0  0  0  0  1  0  0  0  0  0  0
  181.5090  176.4020  137.4740 C   0  0  0  0  0  0  0  0  0  0  0  0
  181.4710  176.2150  138.7180 O   0  0  0  0  0  1  0  0  0  0  0  0
  180.4420  175.9930  136.6810 O   0  0  0  0  0  0  0  0  0  0  0  0
  184.5940  178.2610  138.1490 C   0  0  0  0  0  2  0  0  0  0  0  0
  184.4780  178.5260  139.6150 C   0  0  0  0  0  0  0  0  0  0  0  0
  184.2960  178.8600  141.4840 C   0  0  1  0  0  3  0  0  0  0  0  0
  184.8590  179.5440  140.4010 N   0  0  0  0  0  0  0  0  0  0  0  0
  183.9090  177.7620  140.7450 N   0  0  0  0  0  2  0  0  0  0  0  0
  185.3530  178.4710  142.4710 C   0  0  0  0  0  3  0  0  0  0  0  0
  185.1100  178.5280  143.7760 C   0  0  0  0  0  3  0  0  0  0  0  0
  184.6600  178.9810  146.5570 O   0  0  0  0  0  1  0  0  0  0  0  0
  186.8090  178.0540  147.1090 C   0  0  0  0  0  3  0  0  0  0  0  0
  185.8560  178.4000  146.1500 C   0  0  0  0  0  0  0  0  0  0  0  0
  188.2480  177.2450  145.3840 N   0  0  0  0  0  0  0  0  0  0  0  0
  186.1120  178.1600  144.7910 C   0  0  0  0  0  0  0  0  0  0  0  0
  188.0120  177.4720  146.7040 C   0  0  0  0  0  3  0  0  0  0  0  0
  187.3340  177.5720  144.4310 C   0  0  0  0  0  3  0  0  0  0  0  0
  1 20  1  6  0  0  0
  2  6  2  0  0  0  0
  2 11  1  0  0  0  0
  3 12  1  0  0  0  0
  3  1  1  0  0  0  0
  6  8  1  0  0  0  0
  7 14  1  6  0  0  0
  7 11  1  0  0  0  0
  7  3  1  0  0  0  0
  8  4  2  0  0  0  0
  9  4  1  0  0  0  0
  9 12  1  0  0  0  0
 10  6  1  0  0  0  0
 11  9  2  0  0  0  0
 12  5  2  0  0  0  0
 13 14  2  0  0  0  0
 15 16  1  6  0  0  0
 15 17  1  0  0  0  0
 15  1  1  0  0  0  0
 17 18  1  0  0  0  0
 19 17  2  0  0  0  0
 20 21  1  0  0  0  0
 21 23  2  0  0  0  0
 21 24  1  0  0  0  0
 22 25  1  1  0  0  0
 23 22  1  0  0  0  0
 24 22  1  0  0  0  0
 25 26  2  0  0  0  0
 26 31  1  0  0  0  0
 29 27  1  0  0  0  0
 29 28  2  0  0  0  0
 30 32  2  0  0  0  0
 31 29  1  0  0  0  0
 32 28  1  0  0  0  0
 33 31  2  0  0  0  0
 33 30  1  0  0  0  0
M  END
>  <MODEL>
5

>  <REMARK>
 VINA RESULT:      -7.6      5.434     10.198
  Name = 
  8 active torsions:
  status: ('A' for Active; 'I' for Inactive)
    1  A    between atoms: N_5  and  C_21
    2  A    between atoms: C_7  and  C_20
    3  A    between atoms: C_10  and  C_13
    4  A    between atoms: C_11  and  C_26
    5  A    between atoms: C_13  and  C_21
    6  A    between atoms: C_14  and  C_19
    7  A    between atoms: C_16  and  C_17
    8  A    between atoms: C_16  and  C_21
                            x       y       z     vdW  Elec       q    Type
                         _______ _______ _______ _____ _____    ______ ____

>  <TORSDO>
F 8

$$$$
=
 OpenBabel10232409363D

 33 36  0  0  1  0  0  0  0  0999 V2000
  191.0300  176.2450  136.9890 C   0  0  2  0  0  3  0  0  0  0  0  0
  186.0830  175.1990  136.9750 C   0  0  0  0  0  3  0  0  0  0  0  0
  189.6090  176.3090  136.6330 N   0  0  0  0  0  0  0  0  0  0  0  0
  186.3320  177.9910  137.0850 C   0  0  0  0  0  3  0  0  0  0  0  0
  189.3330  178.6600  136.8340 O   0  0  0  0  0  0  0  0  0  0  0  0
  184.9650  176.0300  137.1560 C   0  0  0  0  0  0  0  0  0  0  0  0
  188.6760  175.1650  136.6670 C   0  0  1  0  0  3  0  0  0  0  0  0
  185.1120  177.3910  137.2060 N   0  0  0  0  0  0  0  0  0  0  0  0
  187.4450  177.1780  136.8980 C   0  0  0  0  0  0  0  0  0  0  0  0
  183.6710  175.4540  137.2910 N   0  0  0  0  0  1  0  0  0  0  0  0
  187.3290  175.8110  136.8420 C   0  0  0  0  0  0  0  0  0  0  0  0
  188.8410  177.5010  136.7790 C   0  0  0  0  0  0  0  0  0  0  0  0
  189.1970  173.1060  135.3680 C   0  0  0  0  0  2  0  0  0  0  0  0
  188.7460  174.3620  135.3970 C   0  0  0  0  0  3  0  0  0  0  0  0
  191.8910  175.6630  135.8570 C   0  0  1  0  0  3  0  0  0  0  0  0
  191.6890  176.4540  134.5770 C   0  0  0  0  0  1  0  0  0  0  0  0
  193.3470  175.6760  136.2020 C   0  0  0  0  0  0  0  0  0  0  0  0
  194.0180  174.6130  136.1220 O   0  0  0  0  0  0  0  0  0  0  0  0
  193.9690  176.8570  136.5910 O   0  0  0  0  0  1  0  0  0  0  0  0
  191.2370  175.5660  138.3520 C   0  0  0  0  0  2  0  0  0  0  0  0
  190.9460  176.4720  139.5040 C   0  0  0  0  0  0  0  0  0  0  0  0
  190.5510  177.6450  140.9550 C   0  0  1  0  0  3  0  0  0  0  0  0
  191.6930  177.3360  140.2080 N   0  0  0  0  0  0  0  0  0  0  0  0
  189.7320  176.7480  140.3000 N   0  0  0  0  0  2  0  0  0  0  0  0
  190.7270  177.2330  142.3840 C   0  0  0  0  0  3  0  0  0  0  0  0
  190.1420  177.9200  143.3600 C   0  0  0  0  0  3  0  0  0  0  0  0
  187.9040  177.9150  145.1300 O   0  0  0  0  0  1  0  0  0  0  0  0
  189.2950  177.2380  146.9710 C   0  0  0  0  0  3  0  0  0  0  0  0
  189.1580  177.5730  145.6230 C   0  0  0  0  0  0  0  0  0  0  0  0
  191.6350  176.8900  146.6450 N   0  0  0  0  0  0  0  0  0  0  0  0
  190.2820  177.5620  144.7820 C   0  0  0  0  0  0  0  0  0  0  0  0
  190.5540  176.8970  147.4700 C   0  0  0  0  0  3  0  0  0  0  0  0
  191.5270  177.2120  145.3280 C   0  0  0  0  0  3  0  0  0  0  0  0
  1 20  1  1  0  0  0
  2  6  1  0  0  0  0
  3  7  1  0  0  0  0
  3 12  1  0  0  0  0
  3  1  1  0  0  0  0
  4  8  1  0  0  0  0
  6  8  2  0  0  0  0
  6 10  1  0  0  0  0
  7 14  1  6  0  0  0
  7 11  1  0  0  0  0
  9  4  2  0  0  0  0
 11  9  1  0  0  0  0
 11  2  2  0  0  0  0
 12  5  2  0  0  0  0
 12  9  1  0  0  0  0
 13 14  2  0  0  0  0
 15 16  1  6  0  0  0
 15 17  1  0  0  0  0
 15  1  1  0  0  0  0
 17 19  1  0  0  0  0
 18 17  2  0  0  0  0
 20 21  1  0  0  0  0
 21 23  2  0  0  0  0
 21 24  1  0  0  0  0
 22 25  1  1  0  0  0
 23 22  1  0  0  0  0
 24 22  1  0  0  0  0
 25 26  2  0  0  0  0
 26 31  1  0  0  0  0
 27 29  1  0  0  0  0
 28 32  1  0  0  0  0
 29 28  2  0  0  0  0
 30 32  2  0  0  0  0
 31 33  2  0  0  0  0
 31 29  1  0  0  0  0
 33 30  1  0  0  0  0
M  END
>  <MODEL>
6

>  <REMARK>
 VINA RESULT:      -7.5      3.415      8.393
  Name = 
  8 active torsions:
  status: ('A' for Active; 'I' for Inactive)
    1  A    between atoms: N_5  and  C_21
    2  A    between atoms: C_7  and  C_20
    3  A    between atoms: C_10  and  C_13
    4  A    between atoms: C_11  and  C_26
    5  A    between atoms: C_13  and  C_21
    6  A    between atoms: C_14  and  C_19
    7  A    between atoms: C_16  and  C_17
    8  A    between atoms: C_16  and  C_21
                            x       y       z     vdW  Elec       q    Type
                         _______ _______ _______ _____ _____    ______ ____

>  <TORSDO>
F 8

$$$$
=
 OpenBabel10232409363D

 33 36  0  0  1  0  0  0  0  0999 V2000
  188.7210  176.3030  137.3700 C   0  0  2  0  0  3  0  0  0  0  0  0
  188.3540  171.6320  135.4680 C   0  0  0  0  0  3  0  0  0  0  0  0
  188.2790  175.1910  136.5220 N   0  0  0  0  0  0  0  0  0  0  0  0
  185.7400  172.5680  135.8560 C   0  0  0  0  0  3  0  0  0  0  0  0
  185.9380  175.5080  136.7720 O   0  0  0  0  0  0  0  0  0  0  0  0
  187.2400  170.7970  135.2830 C   0  0  0  0  0  0  0  0  0  0  0  0
  189.1180  174.0410  136.1320 C   0  0  1  0  0  3  0  0  0  0  0  0
  185.9730  171.2770  135.4790 N   0  0  0  0  0  0  0  0  0  0  0  0
  186.8350  173.4060  136.0340 C   0  0  0  0  0  0  0  0  0  0  0  0
  187.4300  169.4420  134.8930 N   0  0  0  0  0  1  0  0  0  0  0  0
  188.1170  172.9540  135.8450 C   0  0  0  0  0  0  0  0  0  0  0  0
  186.9160  174.7780  136.4590 C   0  0  0  0  0  0  0  0  0  0  0  0
  191.2890  174.4080  134.9700 C   0  0  0  0  0  2  0  0  0  0  0  0
  189.9560  174.3570  134.9230 C   0  0  0  0  0  3  0  0  0  0  0  0
  188.9520  177.5940  136.5680 C   0  0  1  0  0  3  0  0  0  0  0  0
  188.4200  177.4420  135.1540 C   0  0  0  0  0  1  0  0  0  0  0  0
  188.2840  178.7720  137.2060 C   0  0  0  0  0  0  0  0  0  0  0  0
  188.9790  179.7450  137.6010 O   0  0  0  0  0  1  0  0  0  0  0  0
  186.9010  178.8080  137.3460 O   0  0  0  0  0  0  0  0  0  0  0  0
  189.9040  175.8940  138.2600 C   0  0  0  0  0  2  0  0  0  0  0  0
  190.0240  176.7340  139.4900 C   0  0  0  0  0  0  0  0  0  0  0  0
  190.1570  177.8290  141.0460 C   0  0  1  0  0  3  0  0  0  0  0  0
  191.0660  177.2730  140.1400 N   0  0  0  0  0  0  0  0  0  0  0  0
  189.0420  177.2750  140.4520 N   0  0  0  0  0  2  0  0  0  0  0  0
  190.3530  177.2530  142.4130 C   0  0  0  0  0  3  0  0  0  0  0  0
  190.1780  178.0060  143.4940 C   0  0  0  0  0  3  0  0  0  0  0  0
  188.0180  177.9130  145.3550 O   0  0  0  0  0  1  0  0  0  0  0  0
  189.4490  176.9820  147.0500 C   0  0  0  0  0  3  0  0  0  0  0  0
  189.2730  177.4650  145.7520 C   0  0  0  0  0  0  0  0  0  0  0  0
  191.7530  176.5670  146.5800 N   0  0  0  0  0  0  0  0  0  0  0  0
  190.3590  177.4930  144.8630 C   0  0  0  0  0  0  0  0  0  0  0  0
  190.7080  176.5340  147.4510 C   0  0  0  0  0  3  0  0  0  0  0  0
  191.6070  177.0320  145.3110 C   0  0  0  0  0  3  0  0  0  0  0  0
  1 20  1  6  0  0  0
  2 11  1  0  0  0  0
  3  1  1  0  0  0  0
  4  9  1  0  0  0  0
  6  2  2  0  0  0  0
  6  8  1  0  0  0  0
  7 14  1  6  0  0  0
  7  3  1  0  0  0  0
  8  4  2  0  0  0  0
  9 12  1  0  0  0  0
 10  6  1  0  0  0  0
 11  9  2  0  0  0  0
 11  7  1  0  0  0  0
 12  3  1  0  0  0  0
 12  5  2  0  0  0  0
 14 13  2  0  0  0  0
 15 16  1  6  0  0  0
 15 17  1  0  0  0  0
 15  1  1  0  0  0  0
 17 19  2  0  0  0  0
 17 18  1  0  0  0  0
 20 21  1  0  0  0  0
 21 23  2  0  0  0  0
 21 24  1  0  0  0  0
 22 25  1  1  0  0  0
 23 22  1  0  0  0  0
 24 22  1  0  0  0  0
 25 26  2  0  0  0  0
 26 31  1  0  0  0  0
 27 29  1  0  0  0  0
 28 32  1  0  0  0  0
 29 28  2  0  0  0  0
 30 32  2  0  0  0  0
 31 33  2  0  0  0  0
 31 29  1  0  0  0  0
 33 30  1  0  0  0  0
M  END
>  <MODEL>
7

>  <REMARK>
 VINA RESULT:      -7.5      4.816      9.317
  Name = 
  8 active torsions:
  status: ('A' for Active; 'I' for Inactive)
    1  A    between atoms: N_5  and  C_21
    2  A    between atoms: C_7  and  C_20
    3  A    between atoms: C_10  and  C_13
    4  A    between atoms: C_11  and  C_26
    5  A    between atoms: C_13  and  C_21
    6  A    between atoms: C_14  and  C_19
    7  A    between atoms: C_16  and  C_17
    8  A    between atoms: C_16  and  C_21
                            x       y       z     vdW  Elec       q    Type
                         _______ _______ _______ _____ _____    ______ ____

>  <TORSDO>
F 8

$$$$
=
 OpenBabel10232409363D

 33 36  0  0  1  0  0  0  0  0999 V2000
  189.6330  178.0170  143.7700 C   0  0  2  0  0  3  0  0  0  0  0  0
  188.9800  178.6480  138.7960 C   0  0  0  0  0  3  0  0  0  0  0  0
  189.2870  177.7180  142.3770 N   0  0  0  0  0  0  0  0  0  0  0  0
  190.3030  176.2000  139.1470 C   0  0  0  0  0  3  0  0  0  0  0  0
  190.4810  175.6740  142.1810 O   0  0  0  0  0  0  0  0  0  0  0  0
  189.4620  177.9110  137.7020 C   0  0  0  0  0  0  0  0  0  0  0  0
  188.7850  178.7040  141.4010 C   0  0  1  0  0  3  0  0  0  0  0  0
  190.1050  176.7180  137.8990 N   0  0  0  0  0  0  0  0  0  0  0  0
  189.8230  176.9180  140.2360 C   0  0  0  0  0  0  0  0  0  0  0  0
  189.2850  178.4080  136.3820 N   0  0  0  0  0  1  0  0  0  0  0  0
  189.1740  178.1170  140.0710 C   0  0  0  0  0  0  0  0  0  0  0  0
  189.9090  176.6620  141.6490 C   0  0  0  0  0  0  0  0  0  0  0  0
  186.4460  178.4160  140.5980 C   0  0  0  0  0  2  0  0  0  0  0  0
  187.2960  178.8820  141.5160 C   0  0  0  0  0  3  0  0  0  0  0  0
  191.1520  178.0060  144.0110 C   0  0  1  0  0  3  0  0  0  0  0  0
  191.6620  179.4170  144.2430 C   0  0  0  0  0  1  0  0  0  0  0  0
  191.5220  177.1630  145.1910 C   0  0  0  0  0  0  0  0  0  0  0  0
  191.4940  177.6620  146.3470 O   0  0  0  0  0  1  0  0  0  0  0  0
  191.8760  175.8290  145.0230 O   0  0  0  0  0  0  0  0  0  0  0  0
  188.8330  177.1430  144.7480 C   0  0  0  0  0  2  0  0  0  0  0  0
  187.4060  177.5660  144.8720 C   0  0  0  0  0  0  0  0  0  0  0  0
  185.5930  178.1300  145.0540 C   0  0  1  0  0  3  0  0  0  0  0  0
  186.2730  176.9130  145.1710 N   0  0  0  0  0  0  0  0  0  0  0  0
  186.7100  178.8590  144.7040 N   0  0  0  0  0  2  0  0  0  0  0  0
  184.6260  178.0880  143.9130 C   0  0  0  0  0  3  0  0  0  0  0  0
  183.5030  178.7980  143.9530 C   0  0  0  0  0  3  0  0  0  0  0  0
  180.6980  178.7890  144.4720 O   0  0  0  0  0  1  0  0  0  0  0  0
  180.2090  178.7790  142.1160 C   0  0  0  0  0  3  0  0  0  0  0  0
  181.1430  178.7870  143.1550 C   0  0  0  0  0  0  0  0  0  0  0  0
  181.9860  178.7800  140.5220 N   0  0  0  0  0  0  0  0  0  0  0  0
  182.5150  178.7940  142.8610 C   0  0  0  0  0  0  0  0  0  0  0  0
  180.6540  178.7740  140.7930 C   0  0  0  0  0  3  0  0  0  0  0  0
  182.9150  178.7900  141.5150 C   0  0  0  0  0  3  0  0  0  0  0  0
  1 15  1  0  0  0  0
  1 20  1  1  0  0  0
  2 11  1  0  0  0  0
  3  1  1  0  0  0  0
  4  9  1  0  0  0  0
  6  8  1  0  0  0  0
  6  2  2  0  0  0  0
  7 14  1  6  0  0  0
  7  3  1  0  0  0  0
  8  4  2  0  0  0  0
  9 12  1  0  0  0  0
 10  6  1  0  0  0  0
 11  9  2  0  0  0  0
 11  7  1  0  0  0  0
 12  5  2  0  0  0  0
 12  3  1  0  0  0  0
 13 14  2  0  0  0  0
 15 16  1  1  0  0  0
 15 17  1  0  0  0  0
 17 18  1  0  0  0  0
 19 17  2  0  0  0  0
 20 21  1  0  0  0  0
 21 23  2  0  0  0  0
 22 25  1  6  0  0  0
 22 23  1  0  0  0  0
 24 21  1  0  0  0  0
 24 22  1  0  0  0  0
 25 26  2  0  0  0  0
 28 29  1  0  0  0  0
 29 27  1  0  0  0  0
 30 32  1  0  0  0  0
 30 33  2  0  0  0  0
 31 29  2  0  0  0  0
 31 26  1  0  0  0  0
 32 28  2  0  0  0  0
 33 31  1  0  0  0  0
M  END
>  <MODEL>
8

>  <REMARK>
 VINA RESULT:      -7.5      2.708      8.431
  Name = 
  8 active torsions:
  status: ('A' for Active; 'I' for Inactive)
    1  A    between atoms: N_5  and  C_21
    2  A    between atoms: C_7  and  C_20
    3  A    between atoms: C_10  and  C_13
    4  A    between atoms: C_11  and  C_26
    5  A    between atoms: C_13  and  C_21
    6  A    between atoms: C_14  and  C_19
    7  A    between atoms: C_16  and  C_17
    8  A    between atoms: C_16  and  C_21
                            x       y       z     vdW  Elec       q    Type
                         _______ _______ _______ _____ _____    ______ ____

>  <TORSDO>
F 8

$$$$
=
 OpenBabel10232409363D

 33 36  0  0  1  0  0  0  0  0999 V2000
  191.0910  176.5120  138.1370 C   0  0  2  0  0  3  0  0  0  0  0  0
  195.5270  174.2810  137.1790 C   0  0  0  0  0  3  0  0  0  0  0  0
  192.0980  175.6720  137.4790 N   0  0  0  0  0  0  0  0  0  0  0  0
  193.5580  172.2900  137.0330 C   0  0  0  0  0  3  0  0  0  0  0  0
  190.8200  173.6740  137.3580 O   0  0  0  0  0  0  0  0  0  0  0  0
  195.8630  172.9260  137.0240 C   0  0  0  0  0  0  0  0  0  0  0  0
  193.5440  175.9630  137.4390 C   0  0  1  0  0  3  0  0  0  0  0  0
  194.8830  171.9720  136.9550 N   0  0  0  0  0  0  0  0  0  0  0  0
  193.2140  173.6290  137.1780 C   0  0  0  0  0  0  0  0  0  0  0  0
  197.2300  172.5430  136.9420 N   0  0  0  0  0  1  0  0  0  0  0  0
  194.1730  174.6090  137.2500 C   0  0  0  0  0  0  0  0  0  0  0  0
  191.9320  174.2640  137.3260 C   0  0  0  0  0  0  0  0  0  0  0  0
  193.7920  176.5350  135.0280 C   0  0  0  0  0  2  0  0  0  0  0  0
  193.8860  176.8960  136.3090 C   0  0  0  0  0  3  0  0  0  0  0  0
  190.2990  177.3680  137.1350 C   0  0  1  0  0  3  0  0  0  0  0  0
  189.8090  176.5140  135.9790 C   0  0  0  0  0  1  0  0  0  0  0  0
  189.1190  178.0270  137.7780 C   0  0  0  0  0  0  0  0  0  0  0  0
  188.2590  177.3250  138.3720 O   0  0  0  0  0  1  0  0  0  0  0  0
  188.9760  179.4090  137.7400 O   0  0  0  0  0  0  0  0  0  0  0  0
  191.6970  177.3050  139.3050 C   0  0  0  0  0  2  0  0  0  0  0  0
  191.0730  176.9720  140.6200 C   0  0  0  0  0  0  0  0  0  0  0  0
  190.3060  176.5380  142.3130 C   0  0  1  0  0  3  0  0  0  0  0  0
  190.1080  176.1170  140.9930 N   0  0  0  0  0  0  0  0  0  0  0  0
  191.2790  177.4650  141.9980 N   0  0  0  0  0  2  0  0  0  0  0  0
  189.0860  177.2290  142.8360 C   0  0  0  0  0  3  0  0  0  0  0  0
  188.5900  176.9110  144.0270 C   0  0  0  0  0  3  0  0  0  0  0  0
  188.3260  177.3910  146.8270 O   0  0  0  0  0  1  0  0  0  0  0  0
  186.1570  178.3810  146.5060 C   0  0  0  0  0  3  0  0  0  0  0  0
  187.2960  177.7730  145.9750 C   0  0  0  0  0  0  0  0  0  0  0  0
  185.2260  178.5470  144.3140 N   0  0  0  0  0  0  0  0  0  0  0  0
  187.3920  177.5560  144.5910 C   0  0  0  0  0  0  0  0  0  0  0  0
  185.1220  178.7640  145.6530 C   0  0  0  0  0  3  0  0  0  0  0  0
  186.3260  177.9580  143.7720 C   0  0  0  0  0  3  0  0  0  0  0  0
  1 20  1  1  0  0  0
  2 11  1  0  0  0  0
  3  1  1  0  0  0  0
  4  9  1  0  0  0  0
  6  2  2  0  0  0  0
  7 14  1  6  0  0  0
  7  3  1  0  0  0  0
  8  6  1  0  0  0  0
  8  4  2  0  0  0  0
  9 11  2  0  0  0  0
  9 12  1  0  0  0  0
 10  6  1  0  0  0  0
 11  7  1  0  0  0  0
 12  5  2  0  0  0  0
 12  3  1  0  0  0  0
 13 14  2  0  0  0  0
 15 16  1  6  0  0  0
 15 17  1  0  0  0  0
 15  1  1  0  0  0  0
 17 18  1  0  0  0  0
 19 17  2  0  0  0  0
 20 21  1  0  0  0  0
 21 23  2  0  0  0  0
 21 24  1  0  0  0  0
 22 25  1  6  0  0  0
 23 22  1  0  0  0  0
 24 22  1  0  0  0  0
 25 26  2  0  0  0  0
 26 31  1  0  0  0  0
 29 28  1  0  0  0  0
 29 27  1  0  0  0  0
 30 32  1  0  0  0  0
 31 29  2  0  0  0  0
 32 28  2  0  0  0  0
 33 30  2  0  0  0  0
 33 31  1  0  0  0  0
M  END
>  <MODEL>
9

>  <REMARK>
 VINA RESULT:      -7.4      2.739     10.213
  Name = 
  8 active torsions:
  status: ('A' for Active; 'I' for Inactive)
    1  A    between atoms: N_5  and  C_21
    2  A    between atoms: C_7  and  C_20
    3  A    between atoms: C_10  and  C_13
    4  A    between atoms: C_11  and  C_26
    5  A    between atoms: C_13  and  C_21
    6  A    between atoms: C_14  and  C_19
    7  A    between atoms: C_16  and  C_17
    8  A    between atoms: C_16  and  C_21
                            x       y       z     vdW  Elec       q    Type
                         _______ _______ _______ _____ _____    ______ ____

>  <TORSDO>
F 8

$$$$
