=
 OpenBabel10232411513D

 31 36  0  0  1  0  0  0  0  0999 V2000
  190.5420  176.9450  143.4500 N   0  0  2  0  0  0  0  0  0  0  0  0
  186.2760  178.1950  147.0630 O   0  0  0  0  0  0  0  0  0  0  0  0
  187.0610  177.4050  144.3180 C   0  0  1  0  0  3  0  0  0  0  0  0
  190.7790  176.0660  144.6200 C   0  0  2  0  0  3  0  0  0  0  0  0
  190.0070  176.1040  142.3570 C   0  0  1  0  0  3  0  0  0  0  0  0
  192.2140  177.5930  145.7670 O   0  0  0  0  0  1  0  0  0  0  0  0
  185.2070  178.2910  143.5370 C   0  0  0  0  0  0  0  0  0  0  0  0
  184.2180  178.9560  146.0200 C   0  0  0  0  0  3  0  0  0  0  0  0
  188.1970  177.8400  142.2420 N   0  0  0  0  0  2  0  0  0  0  0  0
  185.4960  178.3840  145.9230 C   0  0  0  0  0  0  0  0  0  0  0  0
  190.9300  177.8190  140.0940 C   0  0  1  0  0  3  0  0  0  0  0  0
  187.6720  178.4750  147.0480 C   0  0  0  0  0  2  0  0  0  0  0  0
  191.0050  176.9030  145.8990 C   0  0  1  0  0  0  0  0  0  0  0  0
  185.9640  178.0520  144.6510 C   0  0  0  0  0  0  0  0  0  0  0  0
  189.8860  177.9430  146.0920 C   0  0  0  0  0  2  0  0  0  0  0  0
  187.9300  176.7500  145.2440 N   0  0  0  0  0  2  0  0  0  0  0  0
  188.9520  176.8430  141.4940 C   0  0  1  0  0  3  0  0  0  0  0  0
  187.0630  177.1560  142.8440 C   0  0  2  0  0  3  0  0  0  0  0  0
  185.7740  177.8240  142.4360 C   0  0  0  0  0  2  0  0  0  0  0  0
  189.4900  177.4270  140.2180 C   0  0  0  0  0  0  0  0  0  0  0  0
  188.5180  177.3560  146.4380 C   0  0  2  0  0  3  0  0  0  0  0  0
  191.5880  177.9050  141.4660 C   0  0  0  0  0  2  0  0  0  0  0  0
  183.4730  179.1970  144.8470 C   0  0  0  0  0  3  0  0  0  0  0  0
  191.6750  176.8470  139.1940 C   0  0  0  0  0  1  0  0  0  0  0  0
  188.7350  177.6030  139.2750 O   0  0  0  0  0  0  0  0  0  0  0  0
  191.8900  175.0090  144.4470 C   0  0  0  0  0  1  0  0  0  0  0  0
  183.9790  178.8640  143.6220 N   0  0  0  0  0  0  0  0  0  0  0  0
  191.3940  176.6270  142.2850 C   0  0  1  0  0  3  0  0  0  0  0  0
  191.0820  175.9710  147.1220 C   0  0  0  0  0  2  0  0  0  0  0  0
  192.7130  176.7090  148.7140 O   0  0  0  0  0  1  0  0  0  0  0  0
  192.4950  175.8060  147.6730 C   0  0  0  0  0  2  0  0  0  0  0  0
  1  4  1  0  0  0  0
  3 14  1  0  0  0  0
  3 16  1  0  0  0  0
  4 13  1  0  0  0  0
  5  1  1  0  0  0  0
  6 13  1  0  0  0  0
  7 27  2  0  0  0  0
  7 14  1  0  0  0  0
  9 18  1  0  0  0  0
 10  8  1  0  0  0  0
 10  2  1  0  0  0  0
 11 20  1  0  0  0  0
 11 22  1  0  0  0  0
 12  2  1  0  0  0  0
 13 15  1  0  0  0  0
 13 29  1  0  0  0  0
 14 10  2  0  0  0  0
 15 21  1  0  0  0  0
 16 21  1  0  0  0  0
 17  9  1  0  0  0  0
 17  5  1  0  0  0  0
 18  3  1  0  0  0  0
 19 18  1  0  0  0  0
 19  7  1  0  0  0  0
 20 17  1  0  0  0  0
 21 12  1  0  0  0  0
 22 28  1  0  0  0  0
 23  8  2  0  0  0  0
 24 11  1  0  0  0  0
 25 20  2  0  0  0  0
 26  4  1  0  0  0  0
 27 23  1  0  0  0  0
 28  5  1  0  0  0  0
 28  1  1  0  0  0  0
 29 31  1  0  0  0  0
 31 30  1  0  0  0  0
M  END
>  <MODEL>
1

>  <REMARK>
 VINA RESULT:      -8.7      0.000      0.000
  Name = 
  2 active torsions:
  status: ('A' for Active; 'I' for Inactive)
    1  A    between atoms: C_14  and  C_24
    2  A    between atoms: C_19  and  C_24
                            x       y       z     vdW  Elec       q    Type
                         _______ _______ _______ _____ _____    ______ ____

>  <TORSDO>
F 2

$$$$
=
 OpenBabel10232411513D

 31 36  0  0  1  0  0  0  0  0999 V2000
  190.0600  176.8680  140.8570 N   0  0  2  0  0  0  0  0  0  0  0  0
  185.6810  177.9640  137.3310 O   0  0  0  0  0  0  0  0  0  0  0  0
  186.9220  178.4370  139.9790 C   0  0  1  0  0  3  0  0  0  0  0  0
  190.7020  177.3110  139.5960 C   0  0  2  0  0  3  0  0  0  0  0  0
  190.1730  177.9750  141.8320 C   0  0  1  0  0  3  0  0  0  0  0  0
  190.9180  175.1200  138.6670 O   0  0  0  0  0  1  0  0  0  0  0  0
  184.9420  178.8910  140.8210 C   0  0  0  0  0  0  0  0  0  0  0  0
  183.6230  178.6660  138.4150 C   0  0  0  0  0  3  0  0  0  0  0  0
  187.7000  177.6470  142.1140 N   0  0  0  0  0  2  0  0  0  0  0  0
  184.9980  178.3910  138.4700 C   0  0  0  0  0  0  0  0  0  0  0  0
  190.0430  176.2990  144.3000 C   0  0  1  0  0  3  0  0  0  0  0  0
  186.6510  176.9250  137.4080 C   0  0  0  0  0  2  0  0  0  0  0  0
  190.3310  176.3670  138.4300 C   0  0  1  0  0  0  0  0  0  0  0  0
  185.6380  178.5210  139.7030 C   0  0  0  0  0  0  0  0  0  0  0  0
  188.8080  176.1640  138.3380 C   0  0  0  0  0  2  0  0  0  0  0  0
  187.9590  178.3560  139.0000 N   0  0  0  0  0  2  0  0  0  0  0  0
  188.9320  178.0890  142.7550 C   0  0  1  0  0  3  0  0  0  0  0  0
  187.1460  178.7950  141.4130 C   0  0  2  0  0  3  0  0  0  0  0  0
  185.7330  179.0540  141.8710 C   0  0  0  0  0  2  0  0  0  0  0  0
  189.0950  177.4420  144.1010 C   0  0  0  0  0  0  0  0  0  0  0  0
  188.0210  177.3970  137.8980 C   0  0  2  0  0  3  0  0  0  0  0  0
  190.4540  175.6990  142.9610 C   0  0  0  0  0  2  0  0  0  0  0  0
  182.9400  179.0340  139.5920 C   0  0  0  0  0  3  0  0  0  0  0  0
  191.2600  176.7430  145.0940 C   0  0  0  0  0  1  0  0  0  0  0  0
  188.4300  177.8430  145.0430 O   0  0  0  0  0  0  0  0  0  0  0  0
  192.2280  177.5310  139.6660 C   0  0  0  0  0  1  0  0  0  0  0  0
  183.6080  179.1380  140.7800 N   0  0  0  0  0  0  0  0  0  0  0  0
  190.9970  176.7510  141.9930 C   0  0  1  0  0  3  0  0  0  0  0  0
  190.8720  176.9410  137.1070 C   0  0  0  0  0  2  0  0  0  0  0  0
  193.0180  176.1920  136.3480 O   0  0  0  0  0  1  0  0  0  0  0  0
  191.6500  175.9250  136.2770 C   0  0  0  0  0  2  0  0  0  0  0  0
  1  5  1  0  0  0  0
  1 28  1  0  0  0  0
  2 12  1  0  0  0  0
  2 10  1  0  0  0  0
  3 18  1  0  0  0  0
  4 26  1  0  0  0  0
  4  1  1  0  0  0  0
  5 28  1  0  0  0  0
  5 17  1  0  0  0  0
  7 19  1  0  0  0  0
  8 10  2  0  0  0  0
  8 23  1  0  0  0  0
  9 17  1  0  0  0  0
 10 14  1  0  0  0  0
 11 24  1  0  0  0  0
 12 21  1  0  0  0  0
 13  6  1  0  0  0  0
 13  4  1  0  0  0  0
 14  3  1  0  0  0  0
 14  7  2  0  0  0  0
 15 13  1  0  0  0  0
 16  3  1  0  0  0  0
 17 20  1  0  0  0  0
 18 19  1  0  0  0  0
 18  9  1  0  0  0  0
 20 11  1  0  0  0  0
 20 25  2  0  0  0  0
 21 15  1  0  0  0  0
 21 16  1  0  0  0  0
 22 11  1  0  0  0  0
 23 27  2  0  0  0  0
 27  7  1  0  0  0  0
 28 22  1  0  0  0  0
 29 13  1  0  0  0  0
 31 30  1  0  0  0  0
 31 29  1  0  0  0  0
M  END
>  <MODEL>
2

>  <REMARK>
 VINA RESULT:      -8.3      2.720      6.384
  Name = 
  2 active torsions:
  status: ('A' for Active; 'I' for Inactive)
    1  A    between atoms: C_14  and  C_24
    2  A    between atoms: C_19  and  C_24
                            x       y       z     vdW  Elec       q    Type
                         _______ _______ _______ _____ _____    ______ ____

>  <TORSDO>
F 2

$$$$
=
 OpenBabel10232411513D

 31 36  0  0  1  0  0  0  0  0999 V2000
  188.2430  177.7250  139.2920 N   0  0  2  0  0  0  0  0  0  0  0  0
  182.5460  178.2550  139.0250 O   0  0  0  0  0  0  0  0  0  0  0  0
  185.0270  178.8000  140.5490 C   0  0  1  0  0  3  0  0  0  0  0  0
  187.9900  178.3250  137.9600 C   0  0  2  0  0  3  0  0  0  0  0  0
  188.7790  178.7880  140.1700 C   0  0  1  0  0  3  0  0  0  0  0  0
  187.8630  176.2440  136.7920 O   0  0  0  0  0  1  0  0  0  0  0  0
  183.8610  178.8850  142.4110 C   0  0  0  0  0  0  0  0  0  0  0  0
  181.4280  178.5610  141.1610 C   0  0  0  0  0  3  0  0  0  0  0  0
  186.9730  178.0490  141.7490 N   0  0  0  0  0  2  0  0  0  0  0  0
  182.6030  178.5110  140.3960 C   0  0  0  0  0  0  0  0  0  0  0  0
  190.2750  177.0000  142.0350 C   0  0  1  0  0  3  0  0  0  0  0  0
  183.4870  177.3860  138.4050 C   0  0  0  0  0  2  0  0  0  0  0  0
  187.1180  177.3890  137.0930 C   0  0  1  0  0  0  0  0  0  0  0  0
  183.8190  178.6860  141.0580 C   0  0  0  0  0  0  0  0  0  0  0  0
  185.8520  176.9440  137.8490 C   0  0  0  0  0  2  0  0  0  0  0  0
  185.3120  178.9360  139.1560 N   0  0  0  0  0  2  0  0  0  0  0  0
  188.2930  178.6560  141.6360 C   0  0  1  0  0  3  0  0  0  0  0  0
  185.9970  179.1220  141.6410 C   0  0  2  0  0  3  0  0  0  0  0  0
  185.0890  179.1260  142.8440 C   0  0  0  0  0  2  0  0  0  0  0  0
  189.2710  177.9810  142.5570 C   0  0  0  0  0  0  0  0  0  0  0  0
  184.8300  178.0520  138.0960 C   0  0  2  0  0  3  0  0  0  0  0  0
  189.9010  176.5380  140.6320 C   0  0  0  0  0  2  0  0  0  0  0  0
  181.5140  178.7560  142.5550 C   0  0  0  0  0  3  0  0  0  0  0  0
  191.6720  177.5990  142.0560 C   0  0  0  0  0  1  0  0  0  0  0  0
  189.2320  178.2240  143.7530 O   0  0  0  0  0  0  0  0  0  0  0  0
  189.2420  178.7880  137.1870 C   0  0  0  0  0  1  0  0  0  0  0  0
  182.7300  178.9130  143.1610 N   0  0  0  0  0  0  0  0  0  0  0  0
  189.6700  177.7100  139.6750 C   0  0  1  0  0  3  0  0  0  0  0  0
  186.7320  178.1040  135.7850 C   0  0  0  0  0  2  0  0  0  0  0  0
  184.9270  177.2890  134.4370 O   0  0  0  0  0  1  0  0  0  0  0  0
  186.2950  177.1510  134.6770 C   0  0  0  0  0  2  0  0  0  0  0  0
  1 28  1  0  0  0  0
  1  5  1  0  0  0  0
  2 10  1  0  0  0  0
  3 14  1  0  0  0  0
  3 18  1  0  0  0  0
  4  1  1  0  0  0  0
  5 17  1  0  0  0  0
  6 13  1  0  0  0  0
  7 19  1  0  0  0  0
  7 27  1  0  0  0  0
  8 23  1  0  0  0  0
 10 14  1  0  0  0  0
 10  8  2  0  0  0  0
 11 24  1  0  0  0  0
 11 20  1  0  0  0  0
 12  2  1  0  0  0  0
 13 15  1  0  0  0  0
 13  4  1  0  0  0  0
 14  7  2  0  0  0  0
 15 21  1  0  0  0  0
 16  3  1  0  0  0  0
 17  9  1  0  0  0  0
 17 20  1  0  0  0  0
 18  9  1  0  0  0  0
 18 19  1  0  0  0  0
 20 25  2  0  0  0  0
 21 12  1  0  0  0  0
 21 16  1  0  0  0  0
 22 11  1  0  0  0  0
 23 27  2  0  0  0  0
 26  4  1  0  0  0  0
 28  5  1  0  0  0  0
 28 22  1  0  0  0  0
 29 13  1  0  0  0  0
 30 31  1  0  0  0  0
 31 29  1  0  0  0  0
M  END
>  <MODEL>
3

>  <REMARK>
 VINA RESULT:      -8.1      3.438      7.120
  Name = 
  2 active torsions:
  status: ('A' for Active; 'I' for Inactive)
    1  A    between atoms: C_14  and  C_24
    2  A    between atoms: C_19  and  C_24
                            x       y       z     vdW  Elec       q    Type
                         _______ _______ _______ _____ _____    ______ ____

>  <TORSDO>
F 2

$$$$
=
 OpenBabel10232411513D

 31 36  0  0  1  0  0  0  0  0999 V2000
  188.0220  177.7070  140.2830 N   0  0  2  0  0  0  0  0  0  0  0  0
  182.4830  178.7150  139.2290 O   0  0  0  0  0  0  0  0  0  0  0  0
  184.7230  178.9020  141.1580 C   0  0  1  0  0  3  0  0  0  0  0  0
  188.0190  178.4570  139.0040 C   0  0  2  0  0  3  0  0  0  0  0  0
  188.4790  178.6290  141.3450 C   0  0  1  0  0  3  0  0  0  0  0  0
  187.9470  176.5230  137.6030 O   0  0  0  0  0  1  0  0  0  0  0  0
  183.2850  178.8900  142.8220 C   0  0  0  0  0  0  0  0  0  0  0  0
  181.0640  178.8900  141.1940 C   0  0  0  0  0  3  0  0  0  0  0  0
  186.4040  177.8800  142.5430 N   0  0  0  0  0  2  0  0  0  0  0  0
  182.3400  178.8240  140.6120 C   0  0  0  0  0  0  0  0  0  0  0  0
  189.5460  176.5470  143.2000 C   0  0  1  0  0  3  0  0  0  0  0  0
  183.4530  177.8410  138.6620 C   0  0  0  0  0  2  0  0  0  0  0  0
  187.2370  177.6870  137.9170 C   0  0  1  0  0  0  0  0  0  0  0  0
  183.4440  178.8340  141.4650 C   0  0  0  0  0  0  0  0  0  0  0  0
  185.8430  177.2700  138.4200 C   0  0  0  0  0  2  0  0  0  0  0  0
  185.2310  179.1550  139.8480 N   0  0  0  0  0  2  0  0  0  0  0  0
  187.7610  178.3880  142.6980 C   0  0  1  0  0  3  0  0  0  0  0  0
  185.5270  179.0340  142.4120 C   0  0  2  0  0  3  0  0  0  0  0  0
  184.4430  178.9870  143.4580 C   0  0  0  0  0  2  0  0  0  0  0  0
  188.5370  177.5480  143.6730 C   0  0  0  0  0  0  0  0  0  0  0  0
  184.8660  178.4250  138.6340 C   0  0  2  0  0  3  0  0  0  0  0  0
  189.3700  176.2620  141.7140 C   0  0  0  0  0  2  0  0  0  0  0  0
  180.9420  178.9350  142.5980 C   0  0  0  0  0  3  0  0  0  0  0  0
  190.9580  177.0280  143.4970 C   0  0  0  0  0  1  0  0  0  0  0  0
  188.3260  177.6700  144.8690 O   0  0  0  0  0  0  0  0  0  0  0  0
  189.4050  178.8950  138.4840 C   0  0  0  0  0  1  0  0  0  0  0  0
  182.0540  178.9320  143.3930 N   0  0  0  0  0  0  0  0  0  0  0  0
  189.3670  177.5390  140.8710 C   0  0  1  0  0  3  0  0  0  0  0  0
  187.1080  178.5600  136.6550 C   0  0  0  0  0  2  0  0  0  0  0  0
  185.9730  177.4510  134.8600 O   0  0  0  0  0  1  0  0  0  0  0  0
  187.2370  177.7720  135.3550 C   0  0  0  0  0  2  0  0  0  0  0  0
  1 28  1  0  0  0  0
  1  5  1  0  0  0  0
  2 10  1  0  0  0  0
  3 14  1  0  0  0  0
  3 18  1  0  0  0  0
  4  1  1  0  0  0  0
  5 17  1  0  0  0  0
  6 13  1  0  0  0  0
  7 27  1  0  0  0  0
  7 19  1  0  0  0  0
  8 23  1  0  0  0  0
  9 17  1  0  0  0  0
 10  8  2  0  0  0  0
 10 14  1  0  0  0  0
 11 24  1  0  0  0  0
 11 20  1  0  0  0  0
 12  2  1  0  0  0  0
 13 15  1  0  0  0  0
 13  4  1  0  0  0  0
 14  7  2  0  0  0  0
 15 21  1  0  0  0  0
 16  3  1  0  0  0  0
 17 20  1  0  0  0  0
 18  9  1  0  0  0  0
 18 19  1  0  0  0  0
 20 25  2  0  0  0  0
 21 12  1  0  0  0  0
 21 16  1  0  0  0  0
 22 11  1  0  0  0  0
 23 27  2  0  0  0  0
 26  4  1  0  0  0  0
 28  5  1  0  0  0  0
 28 22  1  0  0  0  0
 29 13  1  0  0  0  0
 30 31  1  0  0  0  0
 31 29  1  0  0  0  0
M  END
>  <MODEL>
4

>  <REMARK>
 VINA RESULT:      -7.8      3.140      6.816
  Name = 
  2 active torsions:
  status: ('A' for Active; 'I' for Inactive)
    1  A    between atoms: C_14  and  C_24
    2  A    between atoms: C_19  and  C_24
                            x       y       z     vdW  Elec       q    Type
                         _______ _______ _______ _____ _____    ______ ____

>  <TORSDO>
F 2

$$$$
=
 OpenBabel10232411513D

 31 36  0  0  1  0  0  0  0  0999 V2000
  185.6110  178.1860  142.8200 N   0  0  2  0  0  0  0  0  0  0  0  0
  191.0130  176.6580  141.6850 O   0  0  0  0  0  0  0  0  0  0  0  0
  188.5700  178.0460  140.7460 C   0  0  1  0  0  3  0  0  0  0  0  0
  186.3830  178.6590  143.9940 C   0  0  2  0  0  3  0  0  0  0  0  0
  185.2690  179.3690  142.0000 C   0  0  1  0  0  3  0  0  0  0  0  0
  186.0800  176.6710  145.2850 O   0  0  0  0  0  1  0  0  0  0  0  0
  189.1830  177.7070  138.6620 C   0  0  0  0  0  0  0  0  0  0  0  0
  191.5880  176.5420  139.3260 C   0  0  0  0  0  3  0  0  0  0  0  0
  186.2480  178.0330  140.1130 N   0  0  0  0  0  2  0  0  0  0  0  0
  190.7020  176.9140  140.3490 C   0  0  0  0  0  0  0  0  0  0  0  0
  182.8300  178.2250  140.7120 C   0  0  1  0  0  3  0  0  0  0  0  0
  190.0210  176.1810  142.5870 C   0  0  0  0  0  2  0  0  0  0  0  0
  187.0700  177.4760  144.7120 C   0  0  1  0  0  0  0  0  0  0  0  0
  189.4950  177.5090  139.9780 C   0  0  0  0  0  0  0  0  0  0  0  0
  187.8700  176.6090  143.7230 C   0  0  0  0  0  2  0  0  0  0  0  0
  188.7120  178.2760  142.1480 N   0  0  0  0  0  2  0  0  0  0  0  0
  185.2920  179.0690  140.4790 C   0  0  1  0  0  3  0  0  0  0  0  0
  187.5270  178.6900  139.8900 C   0  0  2  0  0  3  0  0  0  0  0  0
  188.0450  178.3680  138.5110 C   0  0  0  0  0  2  0  0  0  0  0  0
  183.9430  178.7850  139.8800 C   0  0  0  0  0  0  0  0  0  0  0  0
  189.1130  177.2810  143.1410 C   0  0  2  0  0  3  0  0  0  0  0  0
  183.3650  177.6630  142.0240 C   0  0  0  0  0  2  0  0  0  0  0  0
  191.2240  176.7530  137.9800 C   0  0  0  0  0  3  0  0  0  0  0  0
  181.7670  179.2820  140.9670 C   0  0  0  0  0  1  0  0  0  0  0  0
  183.7590  178.9960  138.6920 O   0  0  0  0  0  0  0  0  0  0  0  0
  185.6050  179.5380  144.9950 C   0  0  0  0  0  1  0  0  0  0  0  0
  190.0250  177.3300  137.6660 N   0  0  0  0  0  0  0  0  0  0  0  0
  184.2180  178.6780  142.7870 C   0  0  1  0  0  3  0  0  0  0  0  0
  187.9960  178.0100  145.8210 C   0  0  0  0  0  2  0  0  0  0  0  0
  188.9890  176.5840  147.4710 O   0  0  0  0  0  1  0  0  0  0  0  0
  187.8270  177.2880  147.1540 C   0  0  0  0  0  2  0  0  0  0  0  0
  1  4  1  0  0  0  0
  2 12  1  0  0  0  0
  3 16  1  0  0  0  0
  4 13  1  0  0  0  0
  4 26  1  0  0  0  0
  5 28  1  0  0  0  0
  5  1  1  0  0  0  0
  7 14  1  0  0  0  0
  8 10  1  0  0  0  0
  9 17  1  0  0  0  0
 10  2  1  0  0  0  0
 11 24  1  0  0  0  0
 11 22  1  0  0  0  0
 12 21  1  0  0  0  0
 13  6  1  0  0  0  0
 13 29  1  0  0  0  0
 14 10  2  0  0  0  0
 14  3  1  0  0  0  0
 15 13  1  0  0  0  0
 16 21  1  0  0  0  0
 17  5  1  0  0  0  0
 18  9  1  0  0  0  0
 18  3  1  0  0  0  0
 19  7  1  0  0  0  0
 19 18  1  0  0  0  0
 20 17  1  0  0  0  0
 20 11  1  0  0  0  0
 21 15  1  0  0  0  0
 22 28  1  0  0  0  0
 23  8  2  0  0  0  0
 25 20  2  0  0  0  0
 27 23  1  0  0  0  0
 27  7  2  0  0  0  0
 28  1  1  0  0  0  0
 29 31  1  0  0  0  0
 31 30  1  0  0  0  0
M  END
>  <MODEL>
5

>  <REMARK>
 VINA RESULT:      -7.3      2.387      6.316
  Name = 
  2 active torsions:
  status: ('A' for Active; 'I' for Inactive)
    1  A    between atoms: C_14  and  C_24
    2  A    between atoms: C_19  and  C_24
                            x       y       z     vdW  Elec       q    Type
                         _______ _______ _______ _____ _____    ______ ____

>  <TORSDO>
F 2

$$$$
=
 OpenBabel10232411513D

 31 36  0  0  1  0  0  0  0  0999 V2000
  185.1820  178.0380  139.1150 N   0  0  2  0  0  0  0  0  0  0  0  0
  188.0890  178.0380  144.0510 O   0  0  0  0  0  0  0  0  0  0  0  0
  188.2010  178.2290  141.0970 C   0  0  1  0  0  3  0  0  0  0  0  0
  184.5020  179.0620  139.9450 C   0  0  2  0  0  3  0  0  0  0  0  0
  185.9820  178.7480  138.0930 C   0  0  1  0  0  3  0  0  0  0  0  0
  182.8910  177.5650  140.8800 O   0  0  0  0  0  1  0  0  0  0  0  0
  190.2730  177.4930  141.1310 C   0  0  0  0  0  0  0  0  0  0  0  0
  190.4300  177.4090  143.8790 C   0  0  0  0  0  3  0  0  0  0  0  0
  187.8570  177.2910  138.9080 N   0  0  0  0  0  2  0  0  0  0  0  0
  189.2170  177.7690  143.2740 C   0  0  0  0  0  0  0  0  0  0  0  0
  185.9990  176.5590  136.0630 C   0  0  1  0  0  3  0  0  0  0  0  0
  186.8040  177.5650  143.6610 C   0  0  0  0  0  2  0  0  0  0  0  0
  183.9300  178.4320  141.2350 C   0  0  1  0  0  0  0  0  0  0  0  0
  189.1730  177.8100  141.8800 C   0  0  0  0  0  0  0  0  0  0  0  0
  184.9990  177.6090  141.9770 C   0  0  0  0  0  2  0  0  0  0  0  0
  187.0260  178.9030  141.5500 N   0  0  0  0  0  2  0  0  0  0  0  0
  187.3180  178.0290  137.7730 C   0  0  1  0  0  3  0  0  0  0  0  0
  188.6700  178.2210  139.6770 C   0  0  2  0  0  3  0  0  0  0  0  0
  190.0690  177.6820  139.8370 C   0  0  0  0  0  2  0  0  0  0  0  0
  187.2820  177.1650  136.5440 C   0  0  0  0  0  0  0  0  0  0  0  0
  186.1240  178.4330  142.6010 C   0  0  2  0  0  3  0  0  0  0  0  0
  184.9320  176.6160  137.1490 C   0  0  0  0  0  2  0  0  0  0  0  0
  191.5390  177.0790  143.0730 C   0  0  0  0  0  3  0  0  0  0  0  0
  185.5220  177.2470  134.7950 C   0  0  0  0  0  1  0  0  0  0  0  0
  188.3180  176.9400  135.9400 O   0  0  0  0  0  0  0  0  0  0  0  0
  183.4330  179.9060  139.2210 C   0  0  0  0  0  1  0  0  0  0  0  0
  191.4440  177.1230  141.7100 N   0  0  0  0  0  0  0  0  0  0  0  0
  184.7430  178.0290  137.7050 C   0  0  1  0  0  3  0  0  0  0  0  0
  183.3790  179.5380  142.1530 C   0  0  0  0  0  2  0  0  0  0  0  0
  183.1850  179.1630  144.5110 O   0  0  0  0  0  1  0  0  0  0  0  0
  182.5180  179.0080  143.2950 C   0  0  0  0  0  2  0  0  0  0  0  0
  1  4  1  0  0  0  0
  3 16  1  0  0  0  0
  3 14  1  0  0  0  0
  4 13  1  0  0  0  0
  5  1  1  0  0  0  0
  6 13  1  0  0  0  0
  7 27  2  0  0  0  0
  7 14  1  0  0  0  0
  9 18  1  0  0  0  0
 10  8  1  0  0  0  0
 10  2  1  0  0  0  0
 11 20  1  0  0  0  0
 11 22  1  0  0  0  0
 12  2  1  0  0  0  0
 13 15  1  0  0  0  0
 13 29  1  0  0  0  0
 14 10  2  0  0  0  0
 15 21  1  0  0  0  0
 16 21  1  0  0  0  0
 17  5  1  0  0  0  0
 17  9  1  0  0  0  0
 18 19  1  0  0  0  0
 18  3  1  0  0  0  0
 19  7  1  0  0  0  0
 20 17  1  0  0  0  0
 21 12  1  0  0  0  0
 22 28  1  0  0  0  0
 23  8  2  0  0  0  0
 24 11  1  0  0  0  0
 25 20  2  0  0  0  0
 26  4  1  0  0  0  0
 27 23  1  0  0  0  0
 28  5  1  0  0  0  0
 28  1  1  0  0  0  0
 29 31  1  0  0  0  0
 31 30  1  0  0  0  0
M  END
>  <MODEL>
6

>  <REMARK>
 VINA RESULT:      -7.0      3.378      6.978
  Name = 
  2 active torsions:
  status: ('A' for Active; 'I' for Inactive)
    1  A    between atoms: C_14  and  C_24
    2  A    between atoms: C_19  and  C_24
                            x       y       z     vdW  Elec       q    Type
                         _______ _______ _______ _____ _____    ______ ____

>  <TORSDO>
F 2

$$$$
=
 OpenBabel10232411513D

 31 36  0  0  1  0  0  0  0  0999 V2000
  188.2990  176.8070  137.0830 N   0  0  2  0  0  0  0  0  0  0  0  0
  183.4010  178.1830  139.7130 O   0  0  0  0  0  0  0  0  0  0  0  0
  186.3580  178.3590  139.7090 C   0  0  1  0  0  3  0  0  0  0  0  0
  187.4720  177.4300  136.0220 C   0  0  2  0  0  3  0  0  0  0  0  0
  189.3390  177.7840  137.4740 C   0  0  1  0  0  3  0  0  0  0  0  0
  186.5010  175.3840  135.2570 O   0  0  0  0  0  1  0  0  0  0  0  0
  186.3410  178.6290  141.8920 C   0  0  0  0  0  0  0  0  0  0  0  0
  183.5940  178.6660  142.0870 C   0  0  0  0  0  3  0  0  0  0  0  0
  188.5320  177.3330  139.8080 N   0  0  0  0  0  2  0  0  0  0  0  0
  184.1880  178.4350  140.8370 C   0  0  0  0  0  0  0  0  0  0  0  0
  191.3460  175.8030  138.4570 C   0  0  1  0  0  3  0  0  0  0  0  0
  183.7690  177.1790  138.7740 C   0  0  0  0  0  2  0  0  0  0  0  0
  186.1690  176.6300  135.8010 C   0  0  1  0  0  0  0  0  0  0  0  0
  185.5820  178.4310  140.7710 C   0  0  0  0  0  0  0  0  0  0  0  0
  185.4310  176.3840  137.1300 C   0  0  0  0  0  2  0  0  0  0  0  0
  185.8970  178.4420  138.3600 N   0  0  0  0  0  2  0  0  0  0  0  0
  189.6680  177.7340  138.9880 C   0  0  1  0  0  3  0  0  0  0  0  0
  187.7830  178.5400  140.1230 C   0  0  2  0  0  3  0  0  0  0  0  0
  187.6350  178.6870  141.6170 C   0  0  0  0  0  2  0  0  0  0  0  0
  190.8870  176.9270  139.3350 C   0  0  0  0  0  0  0  0  0  0  0  0
  184.8300  177.6340  137.7710 C   0  0  2  0  0  3  0  0  0  0  0  0
  190.2470  175.3940  137.4840 C   0  0  0  0  0  2  0  0  0  0  0  0
  184.4110  178.8550  143.2210 C   0  0  0  0  0  3  0  0  0  0  0  0
  192.6150  176.1860  137.7140 C   0  0  0  0  0  1  0  0  0  0  0  0
  191.5020  177.1800  140.3580 O   0  0  0  0  0  0  0  0  0  0  0  0
  188.1920  177.6950  134.6830 C   0  0  0  0  0  1  0  0  0  0  0  0
  185.7730  178.8310  143.1080 N   0  0  0  0  0  0  0  0  0  0  0  0
  189.7040  176.5800  136.6850 C   0  0  1  0  0  3  0  0  0  0  0  0
  185.2560  177.3860  134.8180 C   0  0  0  0  0  2  0  0  0  0  0  0
  182.8710  177.1590  134.7790 O   0  0  0  0  0  1  0  0  0  0  0  0
  184.0590  176.5670  134.3470 C   0  0  0  0  0  2  0  0  0  0  0  0
  1  5  1  0  0  0  0
  2 10  1  0  0  0  0
  3 18  1  0  0  0  0
  3 14  1  0  0  0  0
  4  1  1  0  0  0  0
  5 17  1  0  0  0  0
  6 13  1  0  0  0  0
  7 27  1  0  0  0  0
  8 23  1  0  0  0  0
  9 18  1  0  0  0  0
 10  8  2  0  0  0  0
 11 20  1  0  0  0  0
 12  2  1  0  0  0  0
 13  4  1  0  0  0  0
 13 15  1  0  0  0  0
 14 10  1  0  0  0  0
 14  7  2  0  0  0  0
 15 21  1  0  0  0  0
 16  3  1  0  0  0  0
 17 20  1  0  0  0  0
 17  9  1  0  0  0  0
 18 19  1  0  0  0  0
 19  7  1  0  0  0  0
 20 25  2  0  0  0  0
 21 16  1  0  0  0  0
 21 12  1  0  0  0  0
 22 11  1  0  0  0  0
 24 11  1  0  0  0  0
 26  4  1  0  0  0  0
 27 23  2  0  0  0  0
 28  1  1  0  0  0  0
 28  5  1  0  0  0  0
 28 22  1  0  0  0  0
 29 13  1  0  0  0  0
 31 30  1  0  0  0  0
 31 29  1  0  0  0  0
M  END
>  <MODEL>
7

>  <REMARK>
 VINA RESULT:      -7.0      4.294      7.772
  Name = 
  2 active torsions:
  status: ('A' for Active; 'I' for Inactive)
    1  A    between atoms: C_14  and  C_24
    2  A    between atoms: C_19  and  C_24
                            x       y       z     vdW  Elec       q    Type
                         _______ _______ _______ _____ _____    ______ ____

>  <TORSDO>
F 2

$$$$
=
 OpenBabel10232411513D

 31 36  0  0  1  0  0  0  0  0999 V2000
  189.2730  177.6410  144.0180 N   0  0  2  0  0  0  0  0  0  0  0  0
  187.1650  178.1390  138.7150 O   0  0  0  0  0  0  0  0  0  0  0  0
  186.8030  178.7050  141.6000 C   0  0  1  0  0  3  0  0  0  0  0  0
  190.3830  178.2320  143.2330 C   0  0  2  0  0  3  0  0  0  0  0  0
  188.6970  178.7120  144.8600 C   0  0  1  0  0  3  0  0  0  0  0  0
  191.3890  176.1440  142.6500 O   0  0  0  0  0  1  0  0  0  0  0  0
  184.6260  178.7940  141.3050 C   0  0  0  0  0  0  0  0  0  0  0  0
  184.7590  178.4500  138.5770 C   0  0  0  0  0  3  0  0  0  0  0  0
  186.5120  177.9710  143.8730 N   0  0  0  0  0  2  0  0  0  0  0  0
  185.9410  178.4020  139.3310 C   0  0  0  0  0  0  0  0  0  0  0  0
  187.6110  176.9420  147.0050 C   0  0  1  0  0  3  0  0  0  0  0  0
  188.1170  177.2710  139.3220 C   0  0  0  0  0  2  0  0  0  0  0  0
  190.8100  177.2870  142.0870 C   0  0  1  0  0  0  0  0  0  0  0  0
  185.8400  178.5870  140.7100 C   0  0  0  0  0  0  0  0  0  0  0  0
  189.5980  176.8390  141.2500 C   0  0  0  0  0  2  0  0  0  0  0  0
  188.1900  178.8350  141.2830 N   0  0  0  0  0  2  0  0  0  0  0  0
  187.1610  178.5850  145.0240 C   0  0  1  0  0  3  0  0  0  0  0  0
  186.2100  179.0390  142.9310 C   0  0  2  0  0  3  0  0  0  0  0  0
  184.7390  179.0440  142.6010 C   0  0  0  0  0  2  0  0  0  0  0  0
  186.7240  177.9210  146.3000 C   0  0  0  0  0  0  0  0  0  0  0  0
  188.9540  177.9430  140.4130 C   0  0  2  0  0  3  0  0  0  0  0  0
  188.7330  176.4710  146.0890 C   0  0  0  0  0  2  0  0  0  0  0  0
  183.5260  178.6530  139.2290 C   0  0  0  0  0  3  0  0  0  0  0  0
  188.1700  177.5490  148.2820 C   0  0  0  0  0  1  0  0  0  0  0  0
  185.6200  178.1700  146.7560 O   0  0  0  0  0  0  0  0  0  0  0  0
  191.6060  178.6980  144.0510 C   0  0  0  0  0  1  0  0  0  0  0  0
  183.4760  178.8200  140.5850 N   0  0  0  0  0  0  0  0  0  0  0  0
  189.5130  177.6350  145.4760 C   0  0  1  0  0  3  0  0  0  0  0  0
  191.8440  177.9930  141.1910 C   0  0  0  0  0  2  0  0  0  0  0  0
  193.7060  177.2470  139.8800 O   0  0  0  0  0  1  0  0  0  0  0  0
  192.3230  177.1350  140.0240 C   0  0  0  0  0  2  0  0  0  0  0  0
  1  5  1  0  0  0  0
  1 28  1  0  0  0  0
  2 12  1  0  0  0  0
  2 10  1  0  0  0  0
  3 18  1  0  0  0  0
  4  1  1  0  0  0  0
  4 26  1  0  0  0  0
  5 17  1  0  0  0  0
  5 28  1  0  0  0  0
  7 19  1  0  0  0  0
  8 23  2  0  0  0  0
  8 10  1  0  0  0  0
  9 17  1  0  0  0  0
 10 14  2  0  0  0  0
 11 24  1  0  0  0  0
 12 21  1  0  0  0  0
 13  6  1  0  0  0  0
 13  4  1  0  0  0  0
 14  7  1  0  0  0  0
 14  3  1  0  0  0  0
 15 13  1  0  0  0  0
 16  3  1  0  0  0  0
 17 20  1  0  0  0  0
 18  9  1  0  0  0  0
 19 18  1  0  0  0  0
 20 25  2  0  0  0  0
 20 11  1  0  0  0  0
 21 15  1  0  0  0  0
 21 16  1  0  0  0  0
 22 11  1  0  0  0  0
 23 27  1  0  0  0  0
 27  7  2  0  0  0  0
 28 22  1  0  0  0  0
 29 13  1  0  0  0  0
 30 31  1  0  0  0  0
 31 29  1  0  0  0  0
M  END
>  <MODEL>
8

>  <REMARK>
 VINA RESULT:      -6.9      2.215      5.601
  Name = 
  2 active torsions:
  status: ('A' for Active; 'I' for Inactive)
    1  A    between atoms: C_14  and  C_24
    2  A    between atoms: C_19  and  C_24
                            x       y       z     vdW  Elec       q    Type
                         _______ _______ _______ _____ _____    ______ ____

>  <TORSDO>
F 2

$$$$
=
 OpenBabel10232411513D

 31 36  0  0  1  0  0  0  0  0999 V2000
  186.0530  178.5300  139.5020 N   0  0  2  0  0  0  0  0  0  0  0  0
  189.3260  177.7250  144.1330 O   0  0  0  0  0  0  0  0  0  0  0  0
  186.5950  177.7300  142.9870 C   0  0  1  0  0  3  0  0  0  0  0  0
  187.0910  177.5680  139.0580 C   0  0  2  0  0  3  0  0  0  0  0  0
  184.7900  177.7790  139.6770 C   0  0  1  0  0  3  0  0  0  0  0  0
  188.6120  179.2270  138.2560 O   0  0  0  0  0  1  0  0  0  0  0  0
  185.7620  178.1300  144.9820 C   0  0  0  0  0  0  0  0  0  0  0  0
  188.1940  177.9930  146.2670 C   0  0  0  0  0  3  0  0  0  0  0  0
  184.7490  178.8650  141.9400 N   0  0  0  0  0  2  0  0  0  0  0  0
  188.1500  177.8700  144.8700 C   0  0  0  0  0  0  0  0  0  0  0  0
  182.9370  180.0780  139.2330 C   0  0  1  0  0  3  0  0  0  0  0  0
  189.5080  178.4200  142.9040 C   0  0  0  0  0  2  0  0  0  0  0  0
  188.5010  178.1860  139.1840 C   0  0  1  0  0  0  0  0  0  0  0  0
  186.9010  177.9370  144.2510 C   0  0  0  0  0  0  0  0  0  0  0  0
  188.7300  178.7780  140.5880 C   0  0  0  0  0  2  0  0  0  0  0  0
  187.4970  177.2170  142.0060 N   0  0  0  0  0  2  0  0  0  0  0  0
  183.9420  178.3020  140.8650 C   0  0  1  0  0  3  0  0  0  0  0  0
  185.1090  177.7670  142.8250 C   0  0  2  0  0  3  0  0  0  0  0  0
  184.6700  178.0690  144.2360 C   0  0  0  0  0  2  0  0  0  0  0  0
  182.8400  179.2460  140.4750 C   0  0  0  0  0  0  0  0  0  0  0  0
  188.8280  177.7460  141.7100 C   0  0  2  0  0  3  0  0  0  0  0  0
  184.3690  180.1100  138.7140 C   0  0  0  0  0  2  0  0  0  0  0  0
  186.9990  178.2030  146.9840 C   0  0  0  0  0  3  0  0  0  0  0  0
  181.9840  179.5640  138.1660 C   0  0  0  0  0  1  0  0  0  0  0  0
  181.8590  179.3500  141.1930 O   0  0  0  0  0  0  0  0  0  0  0  0
  186.8790  176.9540  137.6590 C   0  0  0  0  0  1  0  0  0  0  0  0
  185.7990  178.2720  146.3320 N   0  0  0  0  0  0  0  0  0  0  0  0
  184.9540  178.7080  138.5310 C   0  0  1  0  0  3  0  0  0  0  0  0
  189.5660  177.1160  138.8790 C   0  0  0  0  0  2  0  0  0  0  0  0
  191.5490  176.7000  137.6000 O   0  0  0  0  0  1  0  0  0  0  0  0
  190.3230  177.3660  137.5780 C   0  0  0  0  0  2  0  0  0  0  0  0
  1  5  1  0  0  0  0
  2 10  1  0  0  0  0
  3 14  1  0  0  0  0
  4 13  1  0  0  0  0
  4  1  1  0  0  0  0
  5 17  1  0  0  0  0
  6 13  1  0  0  0  0
  7 27  1  0  0  0  0
  8 23  1  0  0  0  0
  9 18  1  0  0  0  0
 10  8  2  0  0  0  0
 11 20  1  0  0  0  0
 12  2  1  0  0  0  0
 13 15  1  0  0  0  0
 14 10  1  0  0  0  0
 14  7  2  0  0  0  0
 15 21  1  0  0  0  0
 16  3  1  0  0  0  0
 17  9  1  0  0  0  0
 18  3  1  0  0  0  0
 18 19  1  0  0  0  0
 19  7  1  0  0  0  0
 20 17  1  0  0  0  0
 20 25  2  0  0  0  0
 21 16  1  0  0  0  0
 21 12  1  0  0  0  0
 22 11  1  0  0  0  0
 24 11  1  0  0  0  0
 26  4  1  0  0  0  0
 27 23  2  0  0  0  0
 28 22  1  0  0  0  0
 28  1  1  0  0  0  0
 28  5  1  0  0  0  0
 29 13  1  0  0  0  0
 31 30  1  0  0  0  0
 31 29  1  0  0  0  0
M  END
>  <MODEL>
9

>  <REMARK>
 VINA RESULT:      -6.8      2.976      6.323
  Name = 
  2 active torsions:
  status: ('A' for Active; 'I' for Inactive)
    1  A    between atoms: C_14  and  C_24
    2  A    between atoms: C_19  and  C_24
                            x       y       z     vdW  Elec       q    Type
                         _______ _______ _______ _____ _____    ______ ____

>  <TORSDO>
F 2

$$$$
