=
 OpenBabel10232409403D

 58 69  0  0  1  0  0  0  0  0999 V2000
  191.5880  177.7700  143.0710 C   0  0  0  0  0  3  0  0  0  0  0  0
  187.9010  179.1950  137.7080 C   0  0  0  0  0  2  0  0  0  0  0  0
  187.8780  178.2410  139.8830 C   0  0  0  0  0  2  0  0  0  0  0  0
  189.2890  176.6970  137.8750 O   0  0  0  0  0  0  0  0  0  0  0  0
  187.8090  177.4070  148.3520 O   0  0  0  0  0  0  0  0  0  0  0  0
  189.2840  177.6300  143.8390 C   0  0  0  0  0  0  0  0  0  0  0  0
  189.7760  177.7040  141.4590 C   0  0  0  0  0  0  0  0  0  0  0  0
  189.6730  176.5260  139.2240 C   0  0  1  0  0  3  0  0  0  0  0  0
  191.1150  176.0430  139.2300 C   0  0  2  0  0  3  0  0  0  0  0  0
  187.8800  176.7170  137.8370 C   0  0  2  0  0  3  0  0  0  0  0  0
  188.8470  177.6310  142.5110 C   0  0  0  0  0  3  0  0  0  0  0  0
  193.5790  176.2960  139.4020 C   0  0  0  0  0  2  0  0  0  0  0  0
  192.1790  176.6960  139.7690 C   0  0  2  0  0  3  0  0  0  0  0  0
  186.4410  177.3570  146.3240 C   0  0  2  0  0  3  0  0  0  0  0  0
  190.2000  177.6710  146.5130 C   0  0  0  0  0  3  0  0  0  0  0  0
  191.1430  177.7370  141.7430 C   0  0  0  0  0  0  0  0  0  0  0  0
  191.9060  175.1190  137.0580 C   0  0  0  0  0  2  0  0  0  0  0  0
  187.7190  177.4690  147.0970 C   0  0  0  0  0  0  0  0  0  0  0  0
  187.3260  177.1080  136.5220 N   0  0  0  0  0  0  0  0  0  0  0  0
  193.8430  176.5290  137.9200 C   0  0  0  0  0  2  0  0  0  0  0  0
  188.8400  177.5820  146.2030 C   0  0  0  0  0  0  0  0  0  0  0  0
  193.4250  175.3150  137.0930 C   0  0  2  0  0  3  0  0  0  0  0  0
  186.8950  177.4330  144.8470 C   0  0  0  0  0  2  0  0  0  0  0  0
  187.3790  177.9800  138.4730 C   0  0  2  0  0  0  0  0  0  0  0  0
  188.3840  177.5600  144.9090 C   0  0  0  0  0  0  0  0  0  0  0  0
  192.0820  177.7280  140.7120 O   0  0  0  0  0  0  0  0  0  0  0  0
  191.1190  177.7420  145.4550 C   0  0  0  0  0  3  0  0  0  0  0  0
  190.6710  177.7220  144.1220 C   0  0  0  0  0  0  0  0  0  0  0  0
  186.8120  178.3600  137.1150 C   0  0  1  0  0  3  0  0  0  0  0  0
  191.3450  174.7880  138.4340 C   0  0  0  0  0  2  0  0  0  0  0  0
  189.3570  177.8120  140.0260 C   0  0  1  0  0  3  0  0  0  0  0  0
  194.0110  175.3970  135.6800 C   0  0  1  0  0  3  0  0  0  0  0  0
  193.9070  176.6990  135.1850 O   0  0  0  0  0  1  0  0  0  0  0  0
  199.3430  172.9090  135.6990 N   0  0  0  0  0  0  0  0  0  0  0  0
  199.7520  174.0990  135.1540 C   0  0  0  0  0  3  0  0  0  0  0  0
  196.4440  175.6800  135.1100 N   0  0  0  0  0  0  0  0  0  0  0  0
  197.5020  174.8700  135.2460 C   0  0  0  0  0  0  0  0  0  0  0  0
  198.8250  175.1300  134.9100 C   0  0  0  0  0  3  0  0  0  0  0  0
  197.1190  173.6870  135.7870 C   0  0  0  0  0  0  0  0  0  0  0  0
  198.0380  172.6740  136.0260 C   0  0  0  0  0  3  0  0  0  0  0  0
  195.8010  173.6830  136.0240 N   0  0  0  0  0  2  0  0  0  0  0  0
  195.4280  174.9160  135.5930 C   0  0  0  0  0  0  0  0  0  0  0  0
  188.3540  177.4080  135.5180 C   0  0  0  0  0  2  0  0  0  0  0  0
  188.3390  174.9440  135.0930 C   0  0  0  0  0  3  0  0  0  0  0  0
  191.0320  175.0060  134.3460 C   0  0  0  0  0  3  0  0  0  0  0  0
  188.9860  173.7630  134.7200 C   0  0  0  0  0  3  0  0  0  0  0  0
  189.0380  176.1560  135.0960 C   0  0  0  0  0  0  0  0  0  0  0  0
  190.3870  176.1850  134.7230 C   0  0  0  0  0  3  0  0  0  0  0  0
  190.3320  173.7930  134.3460 C   0  0  0  0  0  3  0  0  0  0  0  0
  185.4800  178.5100  146.6510 C   0  0  1  0  0  3  0  0  0  0  0  0
  186.1180  179.7740  146.6580 O   0  0  0  0  0  0  0  0  0  0  0  0
  185.9660  180.3590  147.9300 C   0  0  0  0  0  1  0  0  0  0  0  0
  184.3110  178.4980  145.7710 N   0  0  0  0  0  2  0  0  0  0  0  0
  184.4360  179.9590  143.9870 C   0  0  0  0  0  2  0  0  0  0  0  0
  184.7800  178.5990  144.4500 N   0  0  0  0  0  0  0  0  0  0  0  0
  183.9370  178.3850  142.1080 C   0  0  0  0  0  1  0  0  0  0  0  0
  182.2320  178.7320  144.0760 C   0  0  0  0  0  1  0  0  0  0  0  0
  183.6490  178.8320  143.5240 C   0  0  0  0  0  0  0  0  0  0  0  0
  1 28  1  0  0  0  0
  6 28  2  0  0  0  0
  6 25  1  0  0  0  0
  7 16  1  0  0  0  0
  7 11  2  0  0  0  0
  8  4  1  6  0  0  0
  8  9  1  0  0  0  0
  8 31  1  0  0  0  0
  9 30  1  6  0  0  0
  9 13  1  0  0  0  0
 10  4  1  6  0  0  0
 10 24  1  0  0  0  0
 11  6  1  0  0  0  0
 13 12  1  1  0  0  0
 13 26  1  0  0  0  0
 14 50  1  1  0  0  0
 14 18  1  0  0  0  0
 16  1  2  0  0  0  0
 17 22  1  0  0  0  0
 17 30  1  0  0  0  0
 18  5  2  0  0  0  0
 19 29  1  0  0  0  0
 19 10  1  0  0  0  0
 20 12  1  0  0  0  0
 21 15  1  0  0  0  0
 21 18  1  0  0  0  0
 22 32  1  6  0  0  0
 22 20  1  0  0  0  0
 23 25  1  0  0  0  0
 23 14  1  0  0  0  0
 24  2  1  6  0  0  0
 24  3  1  0  0  0  0
 25 21  2  0  0  0  0
 26 16  1  0  0  0  0
 27 15  2  0  0  0  0
 28 27  1  0  0  0  0
 29  2  1  6  0  0  0
 29 24  1  0  0  0  0
 31  3  1  1  0  0  0
 31  7  1  0  0  0  0
 32 33  1  1  0  0  0
 34 40  1  0  0  0  0
 35 34  2  0  0  0  0
 36 37  1  0  0  0  0
 36 42  2  0  0  0  0
 37 39  1  0  0  0  0
 38 35  1  0  0  0  0
 38 37  2  0  0  0  0
 39 41  1  0  0  0  0
 39 40  2  0  0  0  0
 42 32  1  0  0  0  0
 42 41  1  0  0  0  0
 43 19  1  0  0  0  0
 44 47  1  0  0  0  0
 45 48  1  0  0  0  0
 46 44  2  0  0  0  0
 47 43  1  0  0  0  0
 48 47  2  0  0  0  0
 49 45  2  0  0  0  0
 49 46  1  0  0  0  0
 50 53  1  6  0  0  0
 50 51  1  0  0  0  0
 51 52  1  0  0  0  0
 54 55  1  0  0  0  0
 55 53  1  0  0  0  0
 56 58  1  0  0  0  0
 58 54  1  0  0  0  0
 58 57  1  0  0  0  0
 58 55  1  0  0  0  0
M  END
>  <MODEL>
1

>  <REMARK>
 VINA RESULT:      -7.8      0.000      0.000
  Name = 
  8 active torsions:
  status: ('A' for Active; 'I' for Inactive)
    1  A    between atoms: C_5  and  N_34
    2  A    between atoms: C_5  and  C_36
    3  A    between atoms: O_8  and  C_37
    4  A    between atoms: C_21  and  C_40
    5  A    between atoms: C_21  and  C_58
    6  A    between atoms: N_26  and  N_54
    7  A    between atoms: C_27  and  C_37
    8  A    between atoms: C_37  and  N_54
                            x       y       z     vdW  Elec       q    Type
                         _______ _______ _______ _____ _____    ______ ____

>  <TORSDO>
F 8

$$$$
=
 OpenBabel10232409403D

 58 69  0  0  1  0  0  0  0  0999 V2000
  192.3160  175.5260  138.3740 C   0  0  0  0  0  3  0  0  0  0  0  0
  187.0570  171.7560  136.7890 C   0  0  0  0  0  2  0  0  0  0  0  0
  189.2240  172.4520  136.1080 C   0  0  0  0  0  2  0  0  0  0  0  0
  187.1690  174.4910  135.9520 O   0  0  0  0  0  0  0  0  0  0  0  0
  197.6850  173.1790  135.5500 O   0  0  0  0  0  0  0  0  0  0  0  0
  193.1390  173.9810  136.6850 C   0  0  0  0  0  0  0  0  0  0  0  0
  190.7490  174.2280  137.0540 C   0  0  0  0  0  0  0  0  0  0  0  0
  188.5070  174.9180  136.1090 C   0  0  1  0  0  3  0  0  0  0  0  0
  188.4740  176.2910  136.7600 C   0  0  2  0  0  3  0  0  0  0  0  0
  187.1660  173.4610  134.9900 C   0  0  2  0  0  3  0  0  0  0  0  0
  191.8220  173.6340  136.3680 C   0  0  0  0  0  3  0  0  0  0  0  0
  188.5870  177.8960  138.6520 C   0  0  0  0  0  2  0  0  0  0  0  0
  188.9920  176.6180  137.9750 C   0  0  2  0  0  3  0  0  0  0  0  0
  195.6900  172.1810  134.5440 C   0  0  2  0  0  3  0  0  0  0  0  0
  195.7900  174.6760  137.3770 C   0  0  0  0  0  3  0  0  0  0  0  0
  191.0000  175.1970  138.0280 C   0  0  0  0  0  0  0  0  0  0  0  0
  186.2750  177.4510  136.6200 C   0  0  0  0  0  2  0  0  0  0  0  0
  196.4330  173.0420  135.5180 C   0  0  0  0  0  0  0  0  0  0  0  0
  185.8680  172.7600  134.8740 N   0  0  0  0  0  0  0  0  0  0  0  0
  187.1010  177.8890  138.9880 C   0  0  0  0  0  2  0  0  0  0  0  0
  195.5130  173.7500  136.3680 C   0  0  0  0  0  0  0  0  0  0  0  0
  186.2750  178.4100  137.8130 C   0  0  2  0  0  3  0  0  0  0  0  0
  194.2040  172.4200  134.8980 C   0  0  0  0  0  2  0  0  0  0  0  0
  187.8240  172.2400  135.5590 C   0  0  2  0  0  0  0  0  0  0  0  0
  194.2300  173.4070  136.0220 C   0  0  0  0  0  0  0  0  0  0  0  0
  189.9460  175.8560  138.6610 O   0  0  0  0  0  0  0  0  0  0  0  0
  194.7110  175.2640  138.0540 C   0  0  0  0  0  3  0  0  0  0  0  0
  193.3890  174.9240  137.7150 C   0  0  0  0  0  0  0  0  0  0  0  0
  186.4840  171.5360  135.4260 C   0  0  1  0  0  3  0  0  0  0  0  0
  187.6610  177.3080  136.0070 C   0  0  0  0  0  2  0  0  0  0  0  0
  189.3270  173.8180  136.8250 C   0  0  1  0  0  3  0  0  0  0  0  0
  184.8490  178.7420  138.2640 C   0  0  1  0  0  3  0  0  0  0  0  0
  183.9380  177.8470  137.6970 O   0  0  0  0  0  1  0  0  0  0  0  0
  183.5070  178.7200  143.9940 N   0  0  0  0  0  0  0  0  0  0  0  0
  184.7930  179.1640  144.1580 C   0  0  0  0  0  3  0  0  0  0  0  0
  185.6750  179.1760  140.6000 N   0  0  0  0  0  0  0  0  0  0  0  0
  185.0870  179.0750  141.7980 C   0  0  0  0  0  0  0  0  0  0  0  0
  185.6320  179.3580  143.0440 C   0  0  0  0  0  3  0  0  0  0  0  0
  183.8100  178.6390  141.6560 C   0  0  0  0  0  0  0  0  0  0  0  0
  182.9870  178.4510  142.7600 C   0  0  0  0  0  3  0  0  0  0  0  0
  183.5200  178.4420  140.3640 N   0  0  0  0  0  2  0  0  0  0  0  0
  184.6870  178.7780  139.7540 C   0  0  0  0  0  0  0  0  0  0  0  0
  184.8420  173.2690  135.7910 C   0  0  0  0  0  2  0  0  0  0  0  0
  183.2150  171.3950  136.0920 C   0  0  0  0  0  3  0  0  0  0  0  0
  181.4050  172.6210  134.3500 C   0  0  0  0  0  3  0  0  0  0  0  0
  181.9950  170.7760  135.8060 C   0  0  0  0  0  3  0  0  0  0  0  0
  183.5330  172.6250  135.5050 C   0  0  0  0  0  0  0  0  0  0  0  0
  182.6250  173.2360  134.6320 C   0  0  0  0  0  3  0  0  0  0  0  0
  181.0890  171.3890  134.9350 C   0  0  0  0  0  3  0  0  0  0  0  0
  196.0510  170.6970  134.7120 C   0  0  1  0  0  3  0  0  0  0  0  0
  197.3090  170.5020  135.3330 O   0  0  0  0  0  0  0  0  0  0  0  0
  198.2620  170.1800  134.3480 C   0  0  0  0  0  1  0  0  0  0  0  0
  194.9880  169.9630  135.4000 N   0  0  0  0  0  2  0  0  0  0  0  0
  195.5570  168.0480  136.5590 C   0  0  0  0  0  2  0  0  0  0  0  0
  195.5090  169.5230  136.6290 N   0  0  0  0  0  0  0  0  0  0  0  0
  194.7160  168.6580  138.8340 C   0  0  0  0  0  1  0  0  0  0  0  0
  193.1040  168.6050  136.7610 C   0  0  0  0  0  1  0  0  0  0  0  0
  194.5130  168.6880  137.3360 C   0  0  0  0  0  0  0  0  0  0  0  0
  6 28  1  0  0  0  0
  7 16  2  0  0  0  0
  8  4  1  1  0  0  0
  8  9  1  0  0  0  0
  8 31  1  0  0  0  0
  9 30  1  1  0  0  0
  9 13  1  0  0  0  0
 10 24  1  0  0  0  0
 10  4  1  1  0  0  0
 11  6  2  0  0  0  0
 11  7  1  0  0  0  0
 12 20  1  0  0  0  0
 13 12  1  6  0  0  0
 13 26  1  0  0  0  0
 14 50  1  1  0  0  0
 14 23  1  0  0  0  0
 14 18  1  0  0  0  0
 15 27  2  0  0  0  0
 16  1  1  0  0  0  0
 16 26  1  0  0  0  0
 17 22  1  0  0  0  0
 18  5  2  0  0  0  0
 18 21  1  0  0  0  0
 19 10  1  0  0  0  0
 19 29  1  0  0  0  0
 19 43  1  0  0  0  0
 21 15  1  0  0  0  0
 22 32  1  1  0  0  0
 22 20  1  0  0  0  0
 23 25  1  0  0  0  0
 24  3  1  6  0  0  0
 24  2  1  0  0  0  0
 25 21  2  0  0  0  0
 25  6  1  0  0  0  0
 28 27  1  0  0  0  0
 28  1  2  0  0  0  0
 29 24  1  0  0  0  0
 29  2  1  1  0  0  0
 30 17  1  0  0  0  0
 31  3  1  6  0  0  0
 31  7  1  0  0  0  0
 32 33  1  6  0  0  0
 32 42  1  0  0  0  0
 34 35  1  0  0  0  0
 36 37  1  0  0  0  0
 37 38  1  0  0  0  0
 38 35  2  0  0  0  0
 39 37  2  0  0  0  0
 39 40  1  0  0  0  0
 40 34  2  0  0  0  0
 41 39  1  0  0  0  0
 42 41  1  0  0  0  0
 42 36  2  0  0  0  0
 45 48  2  0  0  0  0
 45 49  1  0  0  0  0
 46 44  1  0  0  0  0
 47 43  1  0  0  0  0
 47 44  2  0  0  0  0
 48 47  1  0  0  0  0
 49 46  2  0  0  0  0
 50 51  1  1  0  0  0
 50 53  1  0  0  0  0
 52 51  1  0  0  0  0
 53 55  1  0  0  0  0
 54 55  1  0  0  0  0
 54 58  1  0  0  0  0
 55 58  1  0  0  0  0
 57 58  1  0  0  0  0
 58 56  1  0  0  0  0
M  END
>  <MODEL>
2

>  <REMARK>
 VINA RESULT:      -7.4      3.635     11.590
  Name = 
  8 active torsions:
  status: ('A' for Active; 'I' for Inactive)
    1  A    between atoms: C_5  and  N_34
    2  A    between atoms: C_5  and  C_36
    3  A    between atoms: O_8  and  C_37
    4  A    between atoms: C_21  and  C_40
    5  A    between atoms: C_21  and  C_58
    6  A    between atoms: N_26  and  N_54
    7  A    between atoms: C_27  and  C_37
    8  A    between atoms: C_37  and  N_54
                            x       y       z     vdW  Elec       q    Type
                         _______ _______ _______ _____ _____    ______ ____

>  <TORSDO>
F 8

$$$$
=
 OpenBabel10232409403D

 58 69  0  0  1  0  0  0  0  0999 V2000
  190.5030  177.9520  142.8760 C   0  0  0  0  0  3  0  0  0  0  0  0
  188.3420  179.2350  136.7060 C   0  0  0  0  0  2  0  0  0  0  0  0
  187.7280  178.4080  138.8470 C   0  0  0  0  0  2  0  0  0  0  0  0
  189.4980  176.6900  137.3240 O   0  0  0  0  0  0  0  0  0  0  0  0
  185.5240  178.0640  147.0600 O   0  0  0  0  0  0  0  0  0  0  0  0
  188.0760  177.9610  143.0510 C   0  0  0  0  0  0  0  0  0  0  0  0
  189.1440  177.8770  140.8680 C   0  0  0  0  0  0  0  0  0  0  0  0
  189.5270  176.5790  138.7320 C   0  0  1  0  0  3  0  0  0  0  0  0
  190.8910  176.0320  139.1190 C   0  0  2  0  0  3  0  0  0  0  0  0
  188.1450  176.7730  136.9350 C   0  0  2  0  0  3  0  0  0  0  0  0
  187.9810  177.9060  141.6570 C   0  0  0  0  0  3  0  0  0  0  0  0
  193.2480  176.1810  139.8880 C   0  0  0  0  0  2  0  0  0  0  0  0
  191.8270  176.6650  139.8770 C   0  0  2  0  0  3  0  0  0  0  0  0
  184.6980  177.9600  144.7590 C   0  0  2  0  0  3  0  0  0  0  0  0
  188.3060  178.1130  145.8650 C   0  0  0  0  0  3  0  0  0  0  0  0
  190.3980  177.8630  141.4830 C   0  0  0  0  0  0  0  0  0  0  0  0
  192.1380  174.9500  137.2550 C   0  0  0  0  0  2  0  0  0  0  0  0
  185.7500  178.0580  145.8210 C   0  0  0  0  0  0  0  0  0  0  0  0
  187.9570  177.1130  135.5070 N   0  0  0  0  0  0  0  0  0  0  0  0
  193.8820  176.3170  138.5090 C   0  0  0  0  0  2  0  0  0  0  0  0
  187.0610  178.0690  145.2300 C   0  0  0  0  0  0  0  0  0  0  0  0
  193.6100  175.0780  137.6590 C   0  0  2  0  0  3  0  0  0  0  0  0
  185.5060  177.9310  143.4400 C   0  0  0  0  0  2  0  0  0  0  0  0
  187.5770  178.0910  137.3690 C   0  0  2  0  0  0  0  0  0  0  0  0
  186.9390  177.9930  143.8650 C   0  0  0  0  0  0  0  0  0  0  0  0
  191.5600  177.7530  140.7190 O   0  0  0  0  0  0  0  0  0  0  0  0
  189.4600  178.0810  145.0670 C   0  0  0  0  0  3  0  0  0  0  0  0
  189.3540  178.0050  143.6660 C   0  0  0  0  0  0  0  0  0  0  0  0
  187.3860  178.4190  135.8980 C   0  0  1  0  0  3  0  0  0  0  0  0
  191.2370  174.7240  138.4610 C   0  0  0  0  0  2  0  0  0  0  0  0
  189.0980  177.9210  139.3730 C   0  0  1  0  0  3  0  0  0  0  0  0
  194.5300  175.0530  136.4340 C   0  0  1  0  0  3  0  0  0  0  0  0
  195.3780  176.1630  136.4390 O   0  0  0  0  0  1  0  0  0  0  0  0
  197.4540  169.9500  136.6450 N   0  0  0  0  0  0  0  0  0  0  0  0
  197.9100  170.3160  135.4060 C   0  0  0  0  0  3  0  0  0  0  0  0
  196.0930  173.4960  135.2270 N   0  0  0  0  0  0  0  0  0  0  0  0
  196.6240  172.3120  135.5620 C   0  0  0  0  0  0  0  0  0  0  0  0
  197.5010  171.5300  134.8220 C   0  0  0  0  0  3  0  0  0  0  0  0
  196.1860  171.9340  136.7880 C   0  0  0  0  0  0  0  0  0  0  0  0
  196.5940  170.7350  137.3600 C   0  0  0  0  0  3  0  0  0  0  0  0
  195.3570  172.8540  137.2970 N   0  0  0  0  0  2  0  0  0  0  0  0
  195.3260  173.7880  136.3110 C   0  0  0  0  0  0  0  0  0  0  0  0
  189.2160  177.3070  134.7800 C   0  0  0  0  0  2  0  0  0  0  0  0
  191.3300  175.9960  134.5270 C   0  0  0  0  0  3  0  0  0  0  0  0
  189.8940  173.5980  134.4660 C   0  0  0  0  0  3  0  0  0  0  0  0
  192.0060  174.7820  134.3760 C   0  0  0  0  0  3  0  0  0  0  0  0
  189.9350  176.0120  134.6450 C   0  0  0  0  0  0  0  0  0  0  0  0
  189.2180  174.8100  134.6120 C   0  0  0  0  0  3  0  0  0  0  0  0
  191.2890  173.5830  134.3460 C   0  0  0  0  0  3  0  0  0  0  0  0
  183.7550  179.1730  144.7850 C   0  0  1  0  0  3  0  0  0  0  0  0
  184.1600  180.2060  143.9060 O   0  0  0  0  0  0  0  0  0  0  0  0
  185.1010  181.0240  144.5590 C   0  0  0  0  0  1  0  0  0  0  0  0
  182.3660  178.7750  144.5510 N   0  0  0  0  0  2  0  0  0  0  0  0
  180.9810  179.7890  143.0050 C   0  0  0  0  0  2  0  0  0  0  0  0
  182.1300  178.8740  143.1690 N   0  0  0  0  0  0  0  0  0  0  0  0
  180.6490  177.8870  141.4140 C   0  0  0  0  0  1  0  0  0  0  0  0
  179.9870  177.6700  143.9470 C   0  0  0  0  0  1  0  0  0  0  0  0
  180.7790  178.3620  142.8450 C   0  0  0  0  0  0  0  0  0  0  0  0
  1 28  1  0  0  0  0
  6 28  2  0  0  0  0
  6 25  1  0  0  0  0
  7 16  1  0  0  0  0
  7 11  2  0  0  0  0
  8  4  1  6  0  0  0
  8  9  1  0  0  0  0
  8 31  1  0  0  0  0
  9 30  1  6  0  0  0
  9 13  1  0  0  0  0
 10  4  1  6  0  0  0
 10 24  1  0  0  0  0
 11  6  1  0  0  0  0
 13 12  1  1  0  0  0
 13 26  1  0  0  0  0
 14 50  1  6  0  0  0
 14 18  1  0  0  0  0
 16  1  2  0  0  0  0
 17 22  1  0  0  0  0
 17 30  1  0  0  0  0
 18  5  2  0  0  0  0
 19 29  1  0  0  0  0
 19 10  1  0  0  0  0
 20 12  1  0  0  0  0
 21 18  1  0  0  0  0
 21 15  1  0  0  0  0
 22 32  1  6  0  0  0
 22 20  1  0  0  0  0
 23 25  1  0  0  0  0
 23 14  1  0  0  0  0
 24  2  1  6  0  0  0
 24  3  1  0  0  0  0
 25 21  2  0  0  0  0
 26 16  1  0  0  0  0
 27 15  2  0  0  0  0
 28 27  1  0  0  0  0
 29  2  1  6  0  0  0
 29 24  1  0  0  0  0
 31  3  1  1  0  0  0
 31  7  1  0  0  0  0
 32 33  1  1  0  0  0
 34 40  1  0  0  0  0
 35 34  2  0  0  0  0
 36 37  1  0  0  0  0
 36 42  2  0  0  0  0
 37 39  1  0  0  0  0
 38 35  1  0  0  0  0
 38 37  2  0  0  0  0
 39 41  1  0  0  0  0
 39 40  2  0  0  0  0
 42 32  1  0  0  0  0
 42 41  1  0  0  0  0
 43 19  1  0  0  0  0
 44 47  1  0  0  0  0
 45 48  1  0  0  0  0
 46 44  2  0  0  0  0
 47 43  1  0  0  0  0
 48 47  2  0  0  0  0
 49 46  1  0  0  0  0
 49 45  2  0  0  0  0
 50 51  1  6  0  0  0
 51 52  1  0  0  0  0
 53 50  1  0  0  0  0
 54 55  1  0  0  0  0
 55 53  1  0  0  0  0
 56 58  1  0  0  0  0
 58 54  1  0  0  0  0
 58 55  1  0  0  0  0
 58 57  1  0  0  0  0
M  END
>  <MODEL>
3

>  <REMARK>
 VINA RESULT:      -6.8      1.533      2.085
  Name = 
  8 active torsions:
  status: ('A' for Active; 'I' for Inactive)
    1  A    between atoms: C_5  and  N_34
    2  A    between atoms: C_5  and  C_36
    3  A    between atoms: O_8  and  C_37
    4  A    between atoms: C_21  and  C_40
    5  A    between atoms: C_21  and  C_58
    6  A    between atoms: N_26  and  N_54
    7  A    between atoms: C_27  and  C_37
    8  A    between atoms: C_37  and  N_54
                            x       y       z     vdW  Elec       q    Type
                         _______ _______ _______ _____ _____    ______ ____

>  <TORSDO>
F 8

$$$$
=
 OpenBabel10232409403D

 58 69  0  0  1  0  0  0  0  0999 V2000
  191.5390  176.5620  135.7390 C   0  0  0  0  0  3  0  0  0  0  0  0
  191.2000  178.0520  142.2240 C   0  0  0  0  0  2  0  0  0  0  0  0
  191.7320  176.3590  140.6450 C   0  0  0  0  0  2  0  0  0  0  0  0
  188.9120  176.9890  140.8730 O   0  0  0  0  0  0  0  0  0  0  0  0
  195.8440  171.7850  134.7620 O   0  0  0  0  0  0  0  0  0  0  0  0
  192.8680  174.8520  136.8460 C   0  0  0  0  0  0  0  0  0  0  0  0
  191.3930  176.2820  138.1450 C   0  0  0  0  0  0  0  0  0  0  0  0
  189.3670  176.4490  139.6490 C   0  0  1  0  0  3  0  0  0  0  0  0
  188.3980  176.8940  138.5650 C   0  0  2  0  0  3  0  0  0  0  0  0
  189.5200  176.2530  141.9100 C   0  0  2  0  0  3  0  0  0  0  0  0
  192.3270  175.2340  138.0770 C   0  0  0  0  0  3  0  0  0  0  0  0
  187.5980  178.3320  136.7060 C   0  0  0  0  0  2  0  0  0  0  0  0
  188.6960  177.6780  137.4930 C   0  0  2  0  0  3  0  0  0  0  0  0
  195.2850  171.9530  137.1380 C   0  0  2  0  0  3  0  0  0  0  0  0
  193.9740  174.1300  134.3460 C   0  0  0  0  0  3  0  0  0  0  0  0
  190.9770  176.9170  136.9720 C   0  0  0  0  0  0  0  0  0  0  0  0
  186.1980  177.6960  139.4100 C   0  0  0  0  0  2  0  0  0  0  0  0
  195.2350  172.3650  135.7000 C   0  0  0  0  0  0  0  0  0  0  0  0
  189.3130  176.8380  143.2540 N   0  0  0  0  0  0  0  0  0  0  0  0
  186.8310  179.3310  137.5630 C   0  0  0  0  0  2  0  0  0  0  0  0
  194.3330  173.4720  135.5250 C   0  0  0  0  0  0  0  0  0  0  0  0
  185.6940  178.6420  138.3170 C   0  0  2  0  0  3  0  0  0  0  0  0
  194.3270  172.9420  137.8410 C   0  0  0  0  0  2  0  0  0  0  0  0
  190.9860  176.5630  141.9530 C   0  0  2  0  0  0  0  0  0  0  0  0
  193.8010  173.8130  136.7440 C   0  0  0  0  0  0  0  0  0  0  0  0
  189.9920  177.9030  137.0110 O   0  0  0  0  0  0  0  0  0  0  0  0
  193.0390  175.1740  134.4250 C   0  0  0  0  0  3  0  0  0  0  0  0
  192.4840  175.5380  135.6660 C   0  0  0  0  0  0  0  0  0  0  0  0
  190.7550  177.1540  143.3330 C   0  0  1  0  0  3  0  0  0  0  0  0
  186.9670  176.5170  138.8290 C   0  0  0  0  0  2  0  0  0  0  0  0
  190.8610  176.7980  139.4460 C   0  0  1  0  0  3  0  0  0  0  0  0
  184.7170  179.6790  138.8810 C   0  0  1  0  0  3  0  0  0  0  0  0
  184.2630  180.5250  137.8660 O   0  0  0  0  0  1  0  0  0  0  0  0
  180.0290  176.9260  141.1310 N   0  0  0  0  0  0  0  0  0  0  0  0
  180.2450  177.7340  142.2170 C   0  0  0  0  0  3  0  0  0  0  0  0
  183.1790  179.4620  140.8590 N   0  0  0  0  0  0  0  0  0  0  0  0
  182.1130  178.6850  141.0910 C   0  0  0  0  0  0  0  0  0  0  0  0
  181.3110  178.6530  142.2250 C   0  0  0  0  0  3  0  0  0  0  0  0
  181.8810  177.8800  140.0250 C   0  0  0  0  0  0  0  0  0  0  0  0
  180.8260  176.9760  140.0230 C   0  0  0  0  0  3  0  0  0  0  0  0
  182.7830  178.1010  139.0620 N   0  0  0  0  0  2  0  0  0  0  0  0
  183.5590  179.0720  139.6130 C   0  0  0  0  0  0  0  0  0  0  0  0
  188.5240  178.0750  143.2400 C   0  0  0  0  0  2  0  0  0  0  0  0
  186.1940  178.3940  144.0880 C   0  0  0  0  0  3  0  0  0  0  0  0
  186.9970  177.7430  146.6850 C   0  0  0  0  0  3  0  0  0  0  0  0
  185.2610  178.4040  145.1290 C   0  0  0  0  0  3  0  0  0  0  0  0
  187.5290  178.0610  144.3450 C   0  0  0  0  0  0  0  0  0  0  0  0
  187.9290  177.7370  145.6460 C   0  0  0  0  0  3  0  0  0  0  0  0
  185.6630  178.0790  146.4280 C   0  0  0  0  0  3  0  0  0  0  0  0
  196.7050  172.0800  137.7130 C   0  0  1  0  0  3  0  0  0  0  0  0
  197.5740  171.0550  137.2660 O   0  0  0  0  0  0  0  0  0  0  0  0
  197.0980  169.8140  137.7290 C   0  0  0  0  0  1  0  0  0  0  0  0
  197.2640  173.4100  137.4680 N   0  0  0  0  0  2  0  0  0  0  0  0
  199.2950  174.3560  136.9080 C   0  0  0  0  0  2  0  0  0  0  0  0
  198.3610  173.2510  136.6050 N   0  0  0  0  0  0  0  0  0  0  0  0
  199.2070  174.1160  134.4190 C   0  0  0  0  0  1  0  0  0  0  0  0
  197.3580  175.4540  135.7190 C   0  0  0  0  0  1  0  0  0  0  0  0
  198.4800  174.4230  135.7090 C   0  0  0  0  0  0  0  0  0  0  0  0
  1 16  1  0  0  0  0
  5 18  2  0  0  0  0
  6 11  2  0  0  0  0
  7 31  1  0  0  0  0
  8  4  1  1  0  0  0
  9 30  1  1  0  0  0
  9  8  1  0  0  0  0
 10  4  1  6  0  0  0
 10 24  1  0  0  0  0
 10 19  1  0  0  0  0
 11  7  1  0  0  0  0
 12 20  1  0  0  0  0
 13 12  1  6  0  0  0
 13  9  1  0  0  0  0
 14 50  1  1  0  0  0
 14 23  1  0  0  0  0
 15 27  2  0  0  0  0
 15 21  1  0  0  0  0
 16 26  1  0  0  0  0
 16  7  2  0  0  0  0
 18 14  1  0  0  0  0
 19 29  1  0  0  0  0
 20 22  1  0  0  0  0
 21 18  1  0  0  0  0
 21 25  2  0  0  0  0
 22 32  1  1  0  0  0
 22 17  1  0  0  0  0
 24  3  1  6  0  0  0
 24  2  1  0  0  0  0
 24 29  1  0  0  0  0
 25  6  1  0  0  0  0
 25 23  1  0  0  0  0
 26 13  1  0  0  0  0
 27 28  1  0  0  0  0
 28  1  2  0  0  0  0
 28  6  1  0  0  0  0
 29  2  1  6  0  0  0
 30 17  1  0  0  0  0
 31  8  1  0  0  0  0
 31  3  1  1  0  0  0
 32 33  1  6  0  0  0
 32 42  1  0  0  0  0
 34 35  1  0  0  0  0
 35 38  2  0  0  0  0
 36 37  1  0  0  0  0
 37 38  1  0  0  0  0
 39 37  2  0  0  0  0
 40 39  1  0  0  0  0
 40 34  2  0  0  0  0
 41 42  1  0  0  0  0
 41 39  1  0  0  0  0
 42 36  2  0  0  0  0
 43 19  1  0  0  0  0
 43 47  1  0  0  0  0
 44 47  2  0  0  0  0
 44 46  1  0  0  0  0
 46 49  2  0  0  0  0
 47 48  1  0  0  0  0
 48 45  2  0  0  0  0
 49 45  1  0  0  0  0
 50 51  1  6  0  0  0
 51 52  1  0  0  0  0
 53 50  1  0  0  0  0
 55 54  1  0  0  0  0
 55 53  1  0  0  0  0
 56 58  1  0  0  0  0
 58 57  1  0  0  0  0
 58 55  1  0  0  0  0
 58 54  1  0  0  0  0
M  END
>  <MODEL>
4

>  <REMARK>
 VINA RESULT:      -5.5      2.604     12.207
  Name = 
  8 active torsions:
  status: ('A' for Active; 'I' for Inactive)
    1  A    between atoms: C_5  and  N_34
    2  A    between atoms: C_5  and  C_36
    3  A    between atoms: O_8  and  C_37
    4  A    between atoms: C_21  and  C_40
    5  A    between atoms: C_21  and  C_58
    6  A    between atoms: N_26  and  N_54
    7  A    between atoms: C_27  and  C_37
    8  A    between atoms: C_37  and  N_54
                            x       y       z     vdW  Elec       q    Type
                         _______ _______ _______ _____ _____    ______ ____

>  <TORSDO>
F 8

$$$$
