=
 OpenBabel10232408273D

 45 49  0  0  1  0  0  0  0  0999 V2000
  186.7880  178.8540  141.5450 C   0  0  0  0  0  2  0  0  0  0  0  0
  187.0170  177.5290  143.7550 C   0  0  2  0  0  3  0  0  0  0  0  0
  186.1840  178.4490  142.8990 C   0  0  2  0  0  3  0  0  0  0  0  0
  184.6840  178.1990  142.9390 C   0  0  0  0  0  2  0  0  0  0  0  0
  188.0990  176.9870  145.9790 C   0  0  1  0  0  3  0  0  0  0  0  0
  186.3740  177.8900  147.2550 N   0  0  0  0  0  0  0  0  0  0  0  0
  184.6270  179.8800  144.8170 C   0  0  0  0  0  2  0  0  0  0  0  0
  187.5410  177.1700  147.2710 O   0  0  0  0  0  0  0  0  0  0  0  0
  187.0500  177.6260  145.1040 C   0  0  2  0  0  3  0  0  0  0  0  0
  183.9900  179.4340  143.5030 C   0  0  0  0  0  2  0  0  0  0  0  0
  186.0610  178.2100  146.0480 C   0  0  0  0  0  0  0  0  0  0  0  0
  184.6730  178.7120  145.7820 C   0  0  0  0  0  2  0  0  0  0  0  0
  189.3950  177.7900  145.9280 C   0  0  1  0  0  3  0  0  0  0  0  0
  190.3050  177.3090  147.0420 C   0  0  0  0  0  2  0  0  0  0  0  0
  190.5860  176.9090  145.6110 C   0  0  2  0  0  3  0  0  0  0  0  0
  191.7280  177.7640  145.0920 C   0  0  0  0  0  2  0  0  0  0  0  0
  191.3140  180.0570  144.2670 C   0  0  0  0  0  1  0  0  0  0  0  0
  191.2810  178.5880  143.9020 C   0  0  0  0  0  2  0  0  0  0  0  0
  187.8550  176.4760  143.0860 C   0  0  0  0  0  2  0  0  0  0  0  0
  189.0110  177.0430  142.4880 O   0  0  0  0  0  0  0  0  0  0  0  0
  190.4200  175.2450  142.6600 O   0  0  0  0  0  0  0  0  0  0  0  0
  190.0650  176.2620  142.0130 C   0  0  0  0  0  0  0  0  0  0  0  0
  190.7840  176.6060  140.7520 C   0  0  0  0  0  1  0  0  0  0  0  0
  186.1860  178.1390  140.3340 C   0  0  2  0  0  3  0  0  0  0  0  0
  187.2590  177.8370  139.2800 C   0  0  2  0  0  3  0  0  0  0  0  0
  188.5130  178.6550  139.5500 C   0  0  0  0  0  1  0  0  0  0  0  0
  186.7610  178.1610  137.9050 C   0  0  0  0  0  3  0  0  0  0  0  0
  187.8730  176.3020  136.9370 O   0  0  0  0  0  1  0  0  0  0  0  0
  187.0670  177.4310  136.8360 C   0  0  0  0  0  3  0  0  0  0  0  0
  185.1520  178.9910  139.7630 N   0  0  0  0  0  2  0  0  0  0  0  0
  182.7450  179.4130  139.8690 C   0  0  1  0  0  3  0  0  0  0  0  0
  183.5920  177.2220  139.1500 C   0  0  0  0  0  2  0  0  0  0  0  0
  182.1600  177.3860  138.6870 C   0  0  1  0  0  3  0  0  0  0  0  0
  183.8590  178.3930  140.0700 C   0  0  1  0  0  3  0  0  0  0  0  0
  182.6360  179.7980  138.4500 N   0  0  0  0  0  0  0  0  0  0  0  0
  181.9190  181.0600  138.4190 C   0  0  0  0  0  1  0  0  0  0  0  0
  181.7140  178.8030  139.0280 C   0  0  2  0  0  3  0  0  0  0  0  0
  182.0440  177.1220  137.1910 C   0  0  0  0  0  2  0  0  0  0  0  0
  184.1030  176.5000  135.3590 O   0  0  0  0  0  0  0  0  0  0  0  0
  183.5420  175.5330  135.9460 C   0  0  0  0  0  0  0  0  0  0  0  0
  181.8780  174.7280  137.5030 O   0  0  0  0  0  1  0  0  0  0  0  0
  182.4800  175.7690  136.8800 N   0  0  0  0  0  0  0  0  0  0  0  0
  184.0240  174.1450  135.6820 C   0  0  0  0  0  2  0  0  0  0  0  0
  185.3010  173.8570  136.4550 C   0  0  0  0  0  2  0  0  0  0  0  0
  184.9970  173.0360  137.6950 C   0  0  0  0  0  1  0  0  0  0  0  0
  2 19  1  6  0  0  0
  2  9  1  0  0  0  0
  3  1  1  6  0  0  0
  3  4  1  0  0  0  0
  3  2  1  0  0  0  0
  4 10  1  0  0  0  0
  5  8  1  1  0  0  0
  6  8  1  0  0  0  0
  7 12  1  0  0  0  0
  9  5  1  0  0  0  0
  9 11  1  1  0  0  0
 10  7  1  0  0  0  0
 11  6  2  0  0  0  0
 12 11  1  0  0  0  0
 13  5  1  0  0  0  0
 13 14  1  1  0  0  0
 15 16  1  6  0  0  0
 15 13  1  0  0  0  0
 15 14  1  0  0  0  0
 18 17  1  0  0  0  0
 18 16  1  0  0  0  0
 20 19  1  0  0  0  0
 22 20  1  0  0  0  0
 22 21  2  0  0  0  0
 23 22  1  0  0  0  0
 24  1  1  1  0  0  0
 25 26  1  1  0  0  0
 25 24  1  0  0  0  0
 27 25  1  0  0  0  0
 29 28  1  0  0  0  0
 29 27  2  0  0  0  0
 30 24  1  0  0  0  0
 31 35  1  6  0  0  0
 31 34  1  0  0  0  0
 32 34  1  0  0  0  0
 33 38  1  6  0  0  0
 33 37  1  0  0  0  0
 33 32  1  0  0  0  0
 34 30  1  6  0  0  0
 36 35  1  0  0  0  0
 37 35  1  6  0  0  0
 37 31  1  0  0  0  0
 39 40  2  0  0  0  0
 40 42  1  0  0  0  0
 42 38  1  0  0  0  0
 42 41  1  0  0  0  0
 43 40  1  0  0  0  0
 43 44  1  0  0  0  0
 44 45  1  0  0  0  0
M  END
>  <MODEL>
1

>  <REMARK>
 VINA RESULT:      -7.7      0.000      0.000
  Name = 
  16 active torsions:
  status: ('A' for Active; 'I' for Inactive)
    1  A    between atoms: C_1  and  C_19
    2  A    between atoms: N_2  and  C_22
    3  A    between atoms: N_2  and  C_27
    4  A    between atoms: C_3  and  C_5
    5  A    between atoms: C_5  and  C_33
    6  A    between atoms: C_7  and  C_16
    7  A    between atoms: C_8  and  C_11
    8  A    between atoms: C_9  and  O_38
    9  A    between atoms: C_11  and  O_38
   10  A    between atoms: C_13  and  C_40
   11  A    between atoms: C_19  and  C_22
   12  A    between atoms: C_22  and  C_40
   13  A    between atoms: C_23  and  C_26
   14  A    between atoms: C_26  and  N_45
   15  A    between atoms: C_28  and  C_43
   16  A    between atoms: C_29  and  C_43
                            x       y       z     vdW  Elec       q    Type
                         _______ _______ _______ _____ _____    ______ ____

>  <TORSDO>
F 16

$$$$
=
 OpenBabel10232408273D

 45 49  0  0  1  0  0  0  0  0999 V2000
  188.7290  178.3990  141.0420 C   0  0  0  0  0  2  0  0  0  0  0  0
  187.6700  177.2840  143.1220 C   0  0  2  0  0  3  0  0  0  0  0  0
  187.4820  178.1570  141.9080 C   0  0  2  0  0  3  0  0  0  0  0  0
  186.1570  177.9880  141.1790 C   0  0  0  0  0  2  0  0  0  0  0  0
  187.4040  176.9060  145.6110 C   0  0  1  0  0  3  0  0  0  0  0  0
  185.3620  178.0130  145.7560 N   0  0  0  0  0  0  0  0  0  0  0  0
  185.3040  179.8440  142.6570 C   0  0  0  0  0  2  0  0  0  0  0  0
  186.2840  177.2400  146.4150 O   0  0  0  0  0  0  0  0  0  0  0  0
  187.0160  177.5090  144.2850 C   0  0  2  0  0  3  0  0  0  0  0  0
  185.3920  179.3060  141.2310 C   0  0  0  0  0  2  0  0  0  0  0  0
  185.7430  178.2310  144.5450 C   0  0  0  0  0  0  0  0  0  0  0  0
  184.7410  178.7740  143.5710 C   0  0  0  0  0  2  0  0  0  0  0  0
  188.6110  177.6330  146.1940 C   0  0  1  0  0  3  0  0  0  0  0  0
  188.3390  177.9290  147.6560 C   0  0  0  0  0  2  0  0  0  0  0  0
  189.2880  176.8160  147.2760 C   0  0  2  0  0  3  0  0  0  0  0  0
  190.7080  177.3110  147.4750 C   0  0  0  0  0  2  0  0  0  0  0  0
  192.5860  175.8440  148.1340 C   0  0  0  0  0  1  0  0  0  0  0  0
  191.7080  176.2850  146.9820 C   0  0  0  0  0  2  0  0  0  0  0  0
  188.6290  176.1300  143.0450 C   0  0  0  0  0  2  0  0  0  0  0  0
  189.6630  176.2560  144.0100 O   0  0  0  0  0  0  0  0  0  0  0  0
  191.8420  176.0400  143.3350 O   0  0  0  0  0  0  0  0  0  0  0  0
  190.9100  176.8000  143.7010 C   0  0  0  0  0  0  0  0  0  0  0  0
  191.1670  178.2670  143.7950 C   0  0  0  0  0  1  0  0  0  0  0  0
  188.7530  177.6240  139.7220 C   0  0  2  0  0  3  0  0  0  0  0  0
  190.0700  176.8540  139.5570 C   0  0  2  0  0  3  0  0  0  0  0  0
  191.1690  177.4950  140.3940 C   0  0  0  0  0  1  0  0  0  0  0  0
  190.5040  176.8430  138.1250 C   0  0  0  0  0  3  0  0  0  0  0  0
  191.1840  174.5720  138.2270 O   0  0  0  0  0  1  0  0  0  0  0  0
  191.0220  175.7680  137.5350 C   0  0  0  0  0  3  0  0  0  0  0  0
  188.5900  178.5720  138.6290 N   0  0  0  0  0  2  0  0  0  0  0  0
  187.5460  178.4060  136.4230 C   0  0  1  0  0  3  0  0  0  0  0  0
  186.9830  176.7930  138.1890 C   0  0  0  0  0  2  0  0  0  0  0  0
  186.6020  176.2190  136.8410 C   0  0  1  0  0  3  0  0  0  0  0  0
  187.3590  178.2350  137.9260 C   0  0  1  0  0  3  0  0  0  0  0  0
  188.5330  177.4410  135.9050 N   0  0  0  0  0  0  0  0  0  0  0  0
  188.9880  177.9610  134.6280 C   0  0  0  0  0  1  0  0  0  0  0  0
  187.0880  177.1820  135.7640 C   0  0  2  0  0  3  0  0  0  0  0  0
  187.2110  174.8360  136.6530 C   0  0  0  0  0  2  0  0  0  0  0  0
  185.7800  172.8410  138.0510 O   0  0  0  0  0  0  0  0  0  0  0  0
  185.5500  172.9550  136.8160 C   0  0  0  0  0  0  0  0  0  0  0  0
  186.0000  174.0520  134.7100 O   0  0  0  0  0  1  0  0  0  0  0  0
  186.2470  173.9370  136.0360 N   0  0  0  0  0  0  0  0  0  0  0  0
  184.5170  172.0820  136.1850 C   0  0  0  0  0  2  0  0  0  0  0  0
  183.3860  171.7870  137.1570 C   0  0  0  0  0  2  0  0  0  0  0  0
  182.0640  171.6880  136.4190 C   0  0  0  0  0  1  0  0  0  0  0  0
  2 19  1  1  0  0  0
  2  9  1  0  0  0  0
  3  1  1  6  0  0  0
  3  2  1  0  0  0  0
  4 10  1  0  0  0  0
  4  3  1  0  0  0  0
  5 13  1  0  0  0  0
  5  8  1  1  0  0  0
  6  8  1  0  0  0  0
  7 12  1  0  0  0  0
  9 11  1  6  0  0  0
  9  5  1  0  0  0  0
 10  7  1  0  0  0  0
 11  6  2  0  0  0  0
 12 11  1  0  0  0  0
 13 15  1  0  0  0  0
 13 14  1  1  0  0  0
 15 16  1  1  0  0  0
 15 14  1  0  0  0  0
 18 16  1  0  0  0  0
 18 17  1  0  0  0  0
 19 20  1  0  0  0  0
 21 22  2  0  0  0  0
 22 23  1  0  0  0  0
 22 20  1  0  0  0  0
 24  1  1  1  0  0  0
 25 24  1  0  0  0  0
 25 26  1  1  0  0  0
 27 25  1  0  0  0  0
 29 27  2  0  0  0  0
 29 28  1  0  0  0  0
 30 24  1  0  0  0  0
 31 35  1  1  0  0  0
 31 34  1  0  0  0  0
 33 38  1  6  0  0  0
 33 32  1  0  0  0  0
 34 32  1  0  0  0  0
 34 30  1  1  0  0  0
 36 35  1  0  0  0  0
 37 35  1  1  0  0  0
 37 31  1  0  0  0  0
 37 33  1  0  0  0  0
 40 39  2  0  0  0  0
 41 42  1  0  0  0  0
 42 38  1  0  0  0  0
 42 40  1  0  0  0  0
 43 40  1  0  0  0  0
 43 44  1  0  0  0  0
 45 44  1  0  0  0  0
M  END
>  <MODEL>
2

>  <REMARK>
 VINA RESULT:      -7.7      2.518      3.671
  Name = 
  16 active torsions:
  status: ('A' for Active; 'I' for Inactive)
    1  A    between atoms: C_1  and  C_19
    2  A    between atoms: N_2  and  C_22
    3  A    between atoms: N_2  and  C_27
    4  A    between atoms: C_3  and  C_5
    5  A    between atoms: C_5  and  C_33
    6  A    between atoms: C_7  and  C_16
    7  A    between atoms: C_8  and  C_11
    8  A    between atoms: C_9  and  O_38
    9  A    between atoms: C_11  and  O_38
   10  A    between atoms: C_13  and  C_40
   11  A    between atoms: C_19  and  C_22
   12  A    between atoms: C_22  and  C_40
   13  A    between atoms: C_23  and  C_26
   14  A    between atoms: C_26  and  N_45
   15  A    between atoms: C_28  and  C_43
   16  A    between atoms: C_29  and  C_43
                            x       y       z     vdW  Elec       q    Type
                         _______ _______ _______ _____ _____    ______ ____

>  <TORSDO>
F 16

$$$$
=
 OpenBabel10232408273D

 45 49  0  0  1  0  0  0  0  0999 V2000
  186.2840  178.6000  142.5990 C   0  0  0  0  0  2  0  0  0  0  0  0
  184.1600  178.8220  141.1390 C   0  0  2  0  0  3  0  0  0  0  0  0
  184.7910  178.9550  142.5020 C   0  0  2  0  0  3  0  0  0  0  0  0
  184.3050  180.1290  143.3370 C   0  0  0  0  0  2  0  0  0  0  0  0
  182.3150  177.9230  139.6570 C   0  0  1  0  0  3  0  0  0  0  0  0
  180.6510  178.1400  141.2700 N   0  0  0  0  0  0  0  0  0  0  0  0
  182.5940  178.5330  144.2750 C   0  0  0  0  0  2  0  0  0  0  0  0
  180.9310  177.8510  139.9580 O   0  0  0  0  0  0  0  0  0  0  0  0
  182.8860  178.4000  140.9690 C   0  0  2  0  0  3  0  0  0  0  0  0
  183.6390  179.5960  144.6010 C   0  0  0  0  0  2  0  0  0  0  0  0
  181.7330  178.4260  141.9070 C   0  0  0  0  0  0  0  0  0  0  0  0
  181.6160  179.0770  143.2530 C   0  0  0  0  0  2  0  0  0  0  0  0
  182.7860  176.5030  139.3570 C   0  0  1  0  0  3  0  0  0  0  0  0
  181.7000  175.7870  138.5780 C   0  0  0  0  0  2  0  0  0  0  0  0
  182.9440  176.2690  137.8680 C   0  0  2  0  0  3  0  0  0  0  0  0
  183.8520  175.0750  137.6340 C   0  0  0  0  0  2  0  0  0  0  0  0
  184.1480  175.8560  135.3070 C   0  0  0  0  0  1  0  0  0  0  0  0
  183.8250  174.6600  136.1780 C   0  0  0  0  0  2  0  0  0  0  0  0
  184.9790  179.1580  139.9250 C   0  0  0  0  0  2  0  0  0  0  0  0
  185.6140  178.0010  139.3990 O   0  0  0  0  0  0  0  0  0  0  0  0
  186.4800  179.1090  137.5900 O   0  0  0  0  0  0  0  0  0  0  0  0
  186.3160  178.0180  138.1940 C   0  0  0  0  0  0  0  0  0  0  0  0
  186.8770  176.7700  137.6000 C   0  0  0  0  0  1  0  0  0  0  0  0
  186.6070  177.4400  143.5450 C   0  0  2  0  0  3  0  0  0  0  0  0
  186.8820  177.9470  144.9670 C   0  0  2  0  0  3  0  0  0  0  0  0
  188.2180  177.4190  145.4700 C   0  0  0  0  0  1  0  0  0  0  0  0
  185.8060  177.5020  145.9080 C   0  0  0  0  0  3  0  0  0  0  0  0
  185.9360  179.4960  147.1860 O   0  0  0  0  0  1  0  0  0  0  0  0
  185.3900  178.2420  146.9320 C   0  0  0  0  0  3  0  0  0  0  0  0
  187.7760  176.7390  143.0310 N   0  0  0  0  0  2  0  0  0  0  0  0
  189.9940  177.7570  142.8740 C   0  0  1  0  0  3  0  0  0  0  0  0
  188.6940  177.2910  140.8410 C   0  0  0  0  0  2  0  0  0  0  0  0
  190.1550  177.4580  140.4790 C   0  0  1  0  0  3  0  0  0  0  0  0
  188.5860  177.7000  142.2950 C   0  0  1  0  0  3  0  0  0  0  0  0
  190.6930  176.4740  142.6800 N   0  0  0  0  0  0  0  0  0  0  0  0
  191.7870  176.4510  143.6340 C   0  0  0  0  0  1  0  0  0  0  0  0
  190.9470  177.6080  141.7730 C   0  0  2  0  0  3  0  0  0  0  0  0
  190.6490  176.2650  139.6710 C   0  0  0  0  0  2  0  0  0  0  0  0
  190.6130  174.2010  137.7430 O   0  0  0  0  0  0  0  0  0  0  0  0
  190.3850  175.3730  137.3360 C   0  0  0  0  0  0  0  0  0  0  0  0
  190.1600  177.7320  137.8100 O   0  0  0  0  0  1  0  0  0  0  0  0
  190.3990  176.4750  138.2530 N   0  0  0  0  0  0  0  0  0  0  0  0
  190.0650  175.5920  135.8940 C   0  0  0  0  0  2  0  0  0  0  0  0
  189.2510  174.4350  135.3360 C   0  0  0  0  0  2  0  0  0  0  0  0
  188.0230  174.9530  134.6100 C   0  0  0  0  0  1  0  0  0  0  0  0
  2 19  1  6  0  0  0
  2  3  1  0  0  0  0
  3  1  1  6  0  0  0
  3  4  1  0  0  0  0
  4 10  1  0  0  0  0
  5  8  1  1  0  0  0
  5  9  1  0  0  0  0
  6 11  2  0  0  0  0
  7 10  1  0  0  0  0
  8  6  1  0  0  0  0
  9  2  1  0  0  0  0
  9 11  1  6  0  0  0
 11 12  1  0  0  0  0
 12  7  1  0  0  0  0
 13 14  1  6  0  0  0
 13  5  1  0  0  0  0
 15 16  1  1  0  0  0
 15 14  1  0  0  0  0
 15 13  1  0  0  0  0
 17 18  1  0  0  0  0
 18 16  1  0  0  0  0
 20 19  1  0  0  0  0
 21 22  2  0  0  0  0
 22 20  1  0  0  0  0
 23 22  1  0  0  0  0
 24  1  1  6  0  0  0
 24 25  1  0  0  0  0
 25 26  1  1  0  0  0
 25 27  1  0  0  0  0
 27 29  2  0  0  0  0
 29 28  1  0  0  0  0
 30 24  1  0  0  0  0
 31 35  1  1  0  0  0
 32 34  1  0  0  0  0
 33 38  1  1  0  0  0
 33 32  1  0  0  0  0
 33 37  1  0  0  0  0
 34 31  1  0  0  0  0
 34 30  1  1  0  0  0
 35 36  1  0  0  0  0
 37 35  1  1  0  0  0
 37 31  1  0  0  0  0
 40 39  2  0  0  0  0
 40 42  1  0  0  0  0
 41 42  1  0  0  0  0
 42 38  1  0  0  0  0
 43 40  1  0  0  0  0
 44 43  1  0  0  0  0
 45 44  1  0  0  0  0
M  END
>  <MODEL>
3

>  <REMARK>
 VINA RESULT:      -7.4      2.557      7.599
  Name = 
  16 active torsions:
  status: ('A' for Active; 'I' for Inactive)
    1  A    between atoms: C_1  and  C_19
    2  A    between atoms: N_2  and  C_22
    3  A    between atoms: N_2  and  C_27
    4  A    between atoms: C_3  and  C_5
    5  A    between atoms: C_5  and  C_33
    6  A    between atoms: C_7  and  C_16
    7  A    between atoms: C_8  and  C_11
    8  A    between atoms: C_9  and  O_38
    9  A    between atoms: C_11  and  O_38
   10  A    between atoms: C_13  and  C_40
   11  A    between atoms: C_19  and  C_22
   12  A    between atoms: C_22  and  C_40
   13  A    between atoms: C_23  and  C_26
   14  A    between atoms: C_26  and  N_45
   15  A    between atoms: C_28  and  C_43
   16  A    between atoms: C_29  and  C_43
                            x       y       z     vdW  Elec       q    Type
                         _______ _______ _______ _____ _____    ______ ____

>  <TORSDO>
F 16

$$$$
=
 OpenBabel10232408273D

 45 49  0  0  1  0  0  0  0  0999 V2000
  186.3480  177.0410  137.6710 C   0  0  0  0  0  2  0  0  0  0  0  0
  183.7810  176.7730  137.5100 C   0  0  2  0  0  3  0  0  0  0  0  0
  184.9530  177.4540  138.1670 C   0  0  2  0  0  3  0  0  0  0  0  0
  184.7490  178.9220  138.5100 C   0  0  0  0  0  2  0  0  0  0  0  0
  181.6140  175.4760  137.6950 C   0  0  1  0  0  3  0  0  0  0  0  0
  180.9000  176.5700  139.6210 N   0  0  0  0  0  0  0  0  0  0  0  0
  183.9490  178.1090  140.7580 C   0  0  0  0  0  2  0  0  0  0  0  0
  180.5660  175.6850  138.6280 O   0  0  0  0  0  0  0  0  0  0  0  0
  182.6580  176.4450  138.1900 C   0  0  2  0  0  3  0  0  0  0  0  0
  184.8500  179.0960  140.0220 C   0  0  0  0  0  2  0  0  0  0  0  0
  182.0980  177.0100  139.4460 C   0  0  0  0  0  0  0  0  0  0  0  0
  182.5350  178.2140  140.2250 C   0  0  0  0  0  2  0  0  0  0  0  0
  182.0950  174.0390  137.8710 C   0  0  1  0  0  3  0  0  0  0  0  0
  181.0920  173.1090  137.2150 C   0  0  0  0  0  2  0  0  0  0  0  0
  182.4150  173.3890  136.5400 C   0  0  2  0  0  3  0  0  0  0  0  0
  183.3250  172.1960  136.7620 C   0  0  0  0  0  2  0  0  0  0  0  0
  183.6110  169.8650  135.9880 C   0  0  0  0  0  1  0  0  0  0  0  0
  183.3210  171.2850  135.5510 C   0  0  0  0  0  2  0  0  0  0  0  0
  183.8660  176.4310  136.0490 C   0  0  0  0  0  2  0  0  0  0  0  0
  183.4300  177.5160  135.2420 O   0  0  0  0  0  0  0  0  0  0  0  0
  181.5770  176.5100  134.3460 O   0  0  0  0  0  0  0  0  0  0  0  0
  182.1470  177.5740  134.6980 C   0  0  0  0  0  0  0  0  0  0  0  0
  181.4330  178.8710  134.5200 C   0  0  0  0  0  1  0  0  0  0  0  0
  187.1770  178.1770  137.0670 C   0  0  2  0  0  3  0  0  0  0  0  0
  187.6530  177.8230  135.6520 C   0  0  2  0  0  3  0  0  0  0  0  0
  186.7450  178.4610  134.6110 C   0  0  0  0  0  1  0  0  0  0  0  0
  187.6520  176.3400  135.4460 C   0  0  0  0  0  3  0  0  0  0  0  0
  189.9020  176.3250  134.6940 O   0  0  0  0  0  1  0  0  0  0  0  0
  188.7110  175.6720  134.9960 C   0  0  0  0  0  3  0  0  0  0  0  0
  188.3230  178.4220  137.9320 N   0  0  0  0  0  2  0  0  0  0  0  0
  189.6900  176.4330  138.3290 C   0  0  1  0  0  3  0  0  0  0  0  0
  188.7430  177.6870  140.2180 C   0  0  0  0  0  2  0  0  0  0  0  0
  189.8930  176.8320  140.7060 C   0  0  1  0  0  3  0  0  0  0  0  0
  188.4930  177.2560  138.7890 C   0  0  1  0  0  3  0  0  0  0  0  0
  190.9430  177.1910  138.5000 N   0  0  0  0  0  0  0  0  0  0  0  0
  191.9270  176.5630  137.6370 C   0  0  0  0  0  1  0  0  0  0  0  0
  190.5420  176.1770  139.4920 C   0  0  2  0  0  3  0  0  0  0  0  0
  190.9010  177.6750  141.4760 C   0  0  0  0  0  2  0  0  0  0  0  0
  190.2920  179.2420  143.7460 O   0  0  0  0  0  0  0  0  0  0  0  0
  190.6720  178.0570  143.9510 C   0  0  0  0  0  0  0  0  0  0  0  0
  191.4240  175.9340  143.0740 O   0  0  0  0  0  1  0  0  0  0  0  0
  191.0120  177.2040  142.8490 N   0  0  0  0  0  0  0  0  0  0  0  0
  190.7280  177.5430  145.3510 C   0  0  0  0  0  2  0  0  0  0  0  0
  189.3710  177.6540  146.0270 C   0  0  0  0  0  2  0  0  0  0  0  0
  189.4790  177.2980  147.4980 C   0  0  0  0  0  1  0  0  0  0  0  0
  2 19  1  1  0  0  0
  2  3  1  0  0  0  0
  2  9  1  0  0  0  0
  3  1  1  6  0  0  0
  3  4  1  0  0  0  0
  4 10  1  0  0  0  0
  5 13  1  0  0  0  0
  5  9  1  0  0  0  0
  5  8  1  1  0  0  0
  8  6  1  0  0  0  0
  9 11  1  6  0  0  0
 10  7  1  0  0  0  0
 11  6  2  0  0  0  0
 11 12  1  0  0  0  0
 12  7  1  0  0  0  0
 13 14  1  6  0  0  0
 15 16  1  1  0  0  0
 15 14  1  0  0  0  0
 15 13  1  0  0  0  0
 18 17  1  0  0  0  0
 18 16  1  0  0  0  0
 20 19  1  0  0  0  0
 21 22  2  0  0  0  0
 22 20  1  0  0  0  0
 23 22  1  0  0  0  0
 24  1  1  1  0  0  0
 24 30  1  0  0  0  0
 25 26  1  6  0  0  0
 25 24  1  0  0  0  0
 27 25  1  0  0  0  0
 28 29  1  0  0  0  0
 29 27  2  0  0  0  0
 31 35  1  6  0  0  0
 31 34  1  0  0  0  0
 31 37  1  0  0  0  0
 32 33  1  0  0  0  0
 33 38  1  6  0  0  0
 34 30  1  6  0  0  0
 34 32  1  0  0  0  0
 36 35  1  0  0  0  0
 37 35  1  6  0  0  0
 37 33  1  0  0  0  0
 38 42  1  0  0  0  0
 39 40  2  0  0  0  0
 40 43  1  0  0  0  0
 42 41  1  0  0  0  0
 42 40  1  0  0  0  0
 43 44  1  0  0  0  0
 44 45  1  0  0  0  0
M  END
>  <MODEL>
4

>  <REMARK>
 VINA RESULT:      -6.7      2.574      9.187
  Name = 
  16 active torsions:
  status: ('A' for Active; 'I' for Inactive)
    1  A    between atoms: C_1  and  C_19
    2  A    between atoms: N_2  and  C_22
    3  A    between atoms: N_2  and  C_27
    4  A    between atoms: C_3  and  C_5
    5  A    between atoms: C_5  and  C_33
    6  A    between atoms: C_7  and  C_16
    7  A    between atoms: C_8  and  C_11
    8  A    between atoms: C_9  and  O_38
    9  A    between atoms: C_11  and  O_38
   10  A    between atoms: C_13  and  C_40
   11  A    between atoms: C_19  and  C_22
   12  A    between atoms: C_22  and  C_40
   13  A    between atoms: C_23  and  C_26
   14  A    between atoms: C_26  and  N_45
   15  A    between atoms: C_28  and  C_43
   16  A    between atoms: C_29  and  C_43
                            x       y       z     vdW  Elec       q    Type
                         _______ _______ _______ _____ _____    ______ ____

>  <TORSDO>
F 16

$$$$
=
 OpenBabel10232408273D

 45 49  0  0  1  0  0  0  0  0999 V2000
  187.4420  176.6010  137.5840 C   0  0  0  0  0  2  0  0  0  0  0  0
  185.1090  176.0550  136.6070 C   0  0  2  0  0  3  0  0  0  0  0  0
  185.9440  176.9360  137.5010 C   0  0  2  0  0  3  0  0  0  0  0  0
  185.5650  178.4100  137.5070 C   0  0  0  0  0  2  0  0  0  0  0  0
  183.0780  174.5850  136.2570 C   0  0  1  0  0  3  0  0  0  0  0  0
  181.6830  175.8590  137.6180 N   0  0  0  0  0  0  0  0  0  0  0  0
  184.0650  177.8400  139.4510 C   0  0  0  0  0  2  0  0  0  0  0  0
  181.7600  174.8150  136.7310 O   0  0  0  0  0  0  0  0  0  0  0  0
  183.8360  175.7130  136.9100 C   0  0  2  0  0  3  0  0  0  0  0  0
  185.1200  178.8010  138.9120 C   0  0  0  0  0  2  0  0  0  0  0  0
  182.8450  176.3880  137.7890 C   0  0  0  0  0  0  0  0  0  0  0  0
  182.9240  177.7270  138.4600 C   0  0  0  0  0  2  0  0  0  0  0  0
  183.5320  173.2420  136.8210 C   0  0  1  0  0  3  0  0  0  0  0  0
  182.3430  172.3020  136.8490 C   0  0  0  0  0  2  0  0  0  0  0  0
  183.4130  172.1350  135.7940 C   0  0  2  0  0  3  0  0  0  0  0  0
  184.3010  170.9710  136.1950 C   0  0  0  0  0  2  0  0  0  0  0  0
  184.5230  168.9440  134.7980 C   0  0  0  0  0  1  0  0  0  0  0  0
  184.9830  170.3750  134.9810 C   0  0  0  0  0  2  0  0  0  0  0  0
  185.7170  175.5250  135.3400 C   0  0  0  0  0  2  0  0  0  0  0  0
  185.8450  174.1110  135.3840 O   0  0  0  0  0  0  0  0  0  0  0  0
  187.8970  173.3400  134.7180 O   0  0  0  0  0  0  0  0  0  0  0  0
  187.0610  173.4790  135.6460 C   0  0  0  0  0  0  0  0  0  0  0  0
  187.3940  172.9600  137.0050 C   0  0  0  0  0  1  0  0  0  0  0  0
  188.3780  177.7500  137.2030 C   0  0  2  0  0  3  0  0  0  0  0  0
  189.4010  177.3030  136.1500 C   0  0  2  0  0  3  0  0  0  0  0  0
  188.8840  177.5950  134.7490 C   0  0  0  0  0  1  0  0  0  0  0  0
  189.6770  175.8360  136.2640 C   0  0  0  0  0  3  0  0  0  0  0  0
  191.9990  176.1790  136.6040 O   0  0  0  0  0  1  0  0  0  0  0  0
  190.8950  175.3430  136.4710 C   0  0  0  0  0  3  0  0  0  0  0  0
  189.0640  178.2020  138.4050 N   0  0  0  0  0  2  0  0  0  0  0  0
  190.3450  176.6360  139.7800 C   0  0  1  0  0  3  0  0  0  0  0  0
  188.2990  177.6770  140.6590 C   0  0  0  0  0  2  0  0  0  0  0  0
  189.1350  177.1560  141.8090 C   0  0  1  0  0  3  0  0  0  0  0  0
  188.9590  177.1470  139.4040 C   0  0  1  0  0  3  0  0  0  0  0  0
  191.1270  177.6900  140.4510 N   0  0  0  0  0  0  0  0  0  0  0  0
  192.5210  177.2990  140.3460 C   0  0  0  0  0  1  0  0  0  0  0  0
  190.4530  176.6430  141.2390 C   0  0  2  0  0  3  0  0  0  0  0  0
  189.3740  178.2510  142.8400 C   0  0  0  0  0  2  0  0  0  0  0  0
  191.7970  178.1340  144.2890 O   0  0  0  0  0  0  0  0  0  0  0  0
  190.7690  177.6630  144.8480 C   0  0  0  0  0  0  0  0  0  0  0  0
  188.4050  177.1640  144.7720 O   0  0  0  0  0  1  0  0  0  0  0  0
  189.5050  177.6750  144.1700 N   0  0  0  0  0  0  0  0  0  0  0  0
  190.8780  177.1280  146.2370 C   0  0  0  0  0  2  0  0  0  0  0  0
  191.9490  176.0530  146.3240 C   0  0  0  0  0  2  0  0  0  0  0  0
  192.3230  175.7920  147.7710 C   0  0  0  0  0  1  0  0  0  0  0  0
  2 19  1  1  0  0  0
  2  9  1  0  0  0  0
  2  3  1  0  0  0  0
  3  4  1  0  0  0  0
  3  1  1  6  0  0  0
  4 10  1  0  0  0  0
  5  8  1  1  0  0  0
  5 13  1  0  0  0  0
  5  9  1  0  0  0  0
  6 11  2  0  0  0  0
  8  6  1  0  0  0  0
  9 11  1  6  0  0  0
 10  7  1  0  0  0  0
 11 12  1  0  0  0  0
 12  7  1  0  0  0  0
 13 14  1  1  0  0  0
 15 16  1  1  0  0  0
 15 13  1  0  0  0  0
 15 14  1  0  0  0  0
 17 18  1  0  0  0  0
 18 16  1  0  0  0  0
 19 20  1  0  0  0  0
 20 22  1  0  0  0  0
 21 22  2  0  0  0  0
 22 23  1  0  0  0  0
 24  1  1  1  0  0  0
 24 30  1  0  0  0  0
 25 26  1  6  0  0  0
 25 27  1  0  0  0  0
 25 24  1  0  0  0  0
 27 29  2  0  0  0  0
 29 28  1  0  0  0  0
 31 35  1  6  0  0  0
 31 37  1  0  0  0  0
 32 33  1  0  0  0  0
 33 38  1  1  0  0  0
 34 30  1  6  0  0  0
 34 31  1  0  0  0  0
 34 32  1  0  0  0  0
 36 35  1  0  0  0  0
 37 35  1  6  0  0  0
 37 33  1  0  0  0  0
 38 42  1  0  0  0  0
 39 40  2  0  0  0  0
 40 43  1  0  0  0  0
 42 41  1  0  0  0  0
 42 40  1  0  0  0  0
 43 44  1  0  0  0  0
 44 45  1  0  0  0  0
M  END
>  <MODEL>
5

>  <REMARK>
 VINA RESULT:      -6.7      2.653      9.296
  Name = 
  16 active torsions:
  status: ('A' for Active; 'I' for Inactive)
    1  A    between atoms: C_1  and  C_19
    2  A    between atoms: N_2  and  C_22
    3  A    between atoms: N_2  and  C_27
    4  A    between atoms: C_3  and  C_5
    5  A    between atoms: C_5  and  C_33
    6  A    between atoms: C_7  and  C_16
    7  A    between atoms: C_8  and  C_11
    8  A    between atoms: C_9  and  O_38
    9  A    between atoms: C_11  and  O_38
   10  A    between atoms: C_13  and  C_40
   11  A    between atoms: C_19  and  C_22
   12  A    between atoms: C_22  and  C_40
   13  A    between atoms: C_23  and  C_26
   14  A    between atoms: C_26  and  N_45
   15  A    between atoms: C_28  and  C_43
   16  A    between atoms: C_29  and  C_43
                            x       y       z     vdW  Elec       q    Type
                         _______ _______ _______ _____ _____    ______ ____

>  <TORSDO>
F 16

$$$$
=
 OpenBabel10232408273D

 45 49  0  0  1  0  0  0  0  0999 V2000
  187.3260  176.6260  137.7060 C   0  0  0  0  0  2  0  0  0  0  0  0
  184.9360  176.1480  136.8410 C   0  0  2  0  0  3  0  0  0  0  0  0
  185.8310  176.9820  137.7220 C   0  0  2  0  0  3  0  0  0  0  0  0
  185.4730  178.4580  137.8070 C   0  0  0  0  0  2  0  0  0  0  0  0
  182.8690  174.7160  136.5480 C   0  0  1  0  0  3  0  0  0  0  0  0
  181.5690  175.9500  138.0340 N   0  0  0  0  0  0  0  0  0  0  0  0
  184.0760  177.8280  139.8080 C   0  0  0  0  0  2  0  0  0  0  0  0
  181.5830  174.9420  137.1030 O   0  0  0  0  0  0  0  0  0  0  0  0
  183.6770  175.8090  137.2010 C   0  0  2  0  0  3  0  0  0  0  0  0
  185.1130  178.7980  139.2490 C   0  0  0  0  0  2  0  0  0  0  0  0
  182.7460  176.4590  138.1610 C   0  0  0  0  0  0  0  0  0  0  0  0
  182.8810  177.7680  138.8780 C   0  0  0  0  0  2  0  0  0  0  0  0
  183.3350  173.3470  137.0310 C   0  0  1  0  0  3  0  0  0  0  0  0
  182.1830  172.3690  136.9000 C   0  0  0  0  0  2  0  0  0  0  0  0
  183.3270  172.3260  135.9120 C   0  0  2  0  0  3  0  0  0  0  0  0
  184.2290  171.1620  136.2780 C   0  0  0  0  0  2  0  0  0  0  0  0
  184.0340  168.7390  135.8270 C   0  0  0  0  0  1  0  0  0  0  0  0
  184.2060  170.1040  135.1940 C   0  0  0  0  0  2  0  0  0  0  0  0
  185.4650  175.6620  135.5220 C   0  0  0  0  0  2  0  0  0  0  0  0
  186.7350  175.0440  135.6740 O   0  0  0  0  0  0  0  0  0  0  0  0
  186.7130  173.0370  134.5690 O   0  0  0  0  0  0  0  0  0  0  0  0
  186.9000  173.6590  135.6450 C   0  0  0  0  0  0  0  0  0  0  0  0
  187.2920  172.8940  136.8650 C   0  0  0  0  0  1  0  0  0  0  0  0
  188.2150  177.5570  138.5340 C   0  0  2  0  0  3  0  0  0  0  0  0
  189.4170  178.0470  137.7150 C   0  0  2  0  0  3  0  0  0  0  0  0
  188.9950  179.1590  136.7650 C   0  0  0  0  0  1  0  0  0  0  0  0
  190.0050  176.9280  136.9130 C   0  0  0  0  0  3  0  0  0  0  0  0
  191.9450  176.8160  138.2740 O   0  0  0  0  0  1  0  0  0  0  0  0
  191.1840  176.3790  137.1940 C   0  0  0  0  0  3  0  0  0  0  0  0
  188.6760  176.8300  139.7090 N   0  0  0  0  0  2  0  0  0  0  0  0
  188.3540  178.4760  141.4890 C   0  0  1  0  0  3  0  0  0  0  0  0
  190.3570  177.0530  141.4600 C   0  0  0  0  0  2  0  0  0  0  0  0
  190.1580  177.6160  142.8510 C   0  0  1  0  0  3  0  0  0  0  0  0
  189.3580  177.7760  140.5820 C   0  0  1  0  0  3  0  0  0  0  0  0
  187.7290  177.5160  142.4170 N   0  0  0  0  0  0  0  0  0  0  0  0
  186.5030  178.1350  142.8890 C   0  0  0  0  0  1  0  0  0  0  0  0
  188.8370  178.3770  142.8670 C   0  0  2  0  0  3  0  0  0  0  0  0
  190.1580  176.5000  143.8880 C   0  0  0  0  0  2  0  0  0  0  0  0
  188.1140  176.8330  145.8100 O   0  0  0  0  0  0  0  0  0  0  0  0
  189.2810  177.1730  146.1460 C   0  0  0  0  0  0  0  0  0  0  0  0
  191.6190  177.4170  145.5840 O   0  0  0  0  0  1  0  0  0  0  0  0
  190.3690  177.0460  145.2200 N   0  0  0  0  0  0  0  0  0  0  0  0
  189.5210  177.6740  147.5320 C   0  0  0  0  0  2  0  0  0  0  0  0
  188.2350  177.6700  148.3430 C   0  0  0  0  0  2  0  0  0  0  0  0
  187.3260  178.8030  147.9020 C   0  0  0  0  0  1  0  0  0  0  0  0
  2 19  1  1  0  0  0
  2  9  1  0  0  0  0
  2  3  1  0  0  0  0
  3  1  1  6  0  0  0
  3  4  1  0  0  0  0
  4 10  1  0  0  0  0
  5 13  1  0  0  0  0
  5  8  1  1  0  0  0
  5  9  1  0  0  0  0
  6 11  2  0  0  0  0
  8  6  1  0  0  0  0
  9 11  1  6  0  0  0
 10  7  1  0  0  0  0
 11 12  1  0  0  0  0
 12  7  1  0  0  0  0
 13 14  1  1  0  0  0
 15 16  1  1  0  0  0
 15 14  1  0  0  0  0
 15 13  1  0  0  0  0
 18 17  1  0  0  0  0
 18 16  1  0  0  0  0
 19 20  1  0  0  0  0
 21 22  2  0  0  0  0
 22 20  1  0  0  0  0
 22 23  1  0  0  0  0
 24  1  1  6  0  0  0
 24 30  1  0  0  0  0
 25 26  1  6  0  0  0
 25 24  1  0  0  0  0
 27 29  2  0  0  0  0
 27 25  1  0  0  0  0
 29 28  1  0  0  0  0
 31 35  1  1  0  0  0
 31 37  1  0  0  0  0
 32 33  1  0  0  0  0
 33 37  1  0  0  0  0
 33 38  1  1  0  0  0
 34 30  1  6  0  0  0
 34 32  1  0  0  0  0
 34 31  1  0  0  0  0
 35 36  1  0  0  0  0
 37 35  1  1  0  0  0
 38 42  1  0  0  0  0
 39 40  2  0  0  0  0
 40 43  1  0  0  0  0
 42 41  1  0  0  0  0
 42 40  1  0  0  0  0
 43 44  1  0  0  0  0
 45 44  1  0  0  0  0
M  END
>  <MODEL>
6

>  <REMARK>
 VINA RESULT:      -6.6      2.435      9.196
  Name = 
  16 active torsions:
  status: ('A' for Active; 'I' for Inactive)
    1  A    between atoms: C_1  and  C_19
    2  A    between atoms: N_2  and  C_22
    3  A    between atoms: N_2  and  C_27
    4  A    between atoms: C_3  and  C_5
    5  A    between atoms: C_5  and  C_33
    6  A    between atoms: C_7  and  C_16
    7  A    between atoms: C_8  and  C_11
    8  A    between atoms: C_9  and  O_38
    9  A    between atoms: C_11  and  O_38
   10  A    between atoms: C_13  and  C_40
   11  A    between atoms: C_19  and  C_22
   12  A    between atoms: C_22  and  C_40
   13  A    between atoms: C_23  and  C_26
   14  A    between atoms: C_26  and  N_45
   15  A    between atoms: C_28  and  C_43
   16  A    between atoms: C_29  and  C_43
                            x       y       z     vdW  Elec       q    Type
                         _______ _______ _______ _____ _____    ______ ____

>  <TORSDO>
F 16

$$$$
=
 OpenBabel10232408273D

 45 49  0  0  1  0  0  0  0  0999 V2000
  187.5110  176.5130  138.0510 C   0  0  0  0  0  2  0  0  0  0  0  0
  188.9280  177.7270  139.8430 C   0  0  2  0  0  3  0  0  0  0  0  0
  188.8970  176.9590  138.5460 C   0  0  2  0  0  3  0  0  0  0  0  0
  189.8930  177.4150  137.4900 C   0  0  0  0  0  2  0  0  0  0  0  0
  189.8520  178.0470  142.1780 C   0  0  1  0  0  3  0  0  0  0  0  0
  192.0070  177.3580  141.6270 N   0  0  0  0  0  0  0  0  0  0  0  0
  191.4600  175.7050  138.4760 C   0  0  0  0  0  2  0  0  0  0  0  0
  191.2020  177.9060  142.5930 O   0  0  0  0  0  0  0  0  0  0  0  0
  189.9280  177.5870  140.7440 C   0  0  2  0  0  3  0  0  0  0  0  0
  190.8590  176.2730  137.1940 C   0  0  0  0  0  2  0  0  0  0  0  0
  191.3270  177.1200  140.5590 C   0  0  0  0  0  0  0  0  0  0  0  0
  192.0730  176.8260  139.2920 C   0  0  0  0  0  2  0  0  0  0  0  0
  189.0210  177.0730  143.0060 C   0  0  1  0  0  3  0  0  0  0  0  0
  189.5070  177.1210  144.4420 C   0  0  0  0  0  2  0  0  0  0  0  0
  188.2060  177.7910  144.0630 C   0  0  2  0  0  3  0  0  0  0  0  0
  187.0620  176.9010  144.5150 C   0  0  0  0  0  2  0  0  0  0  0  0
  185.8910  178.8150  145.5540 C   0  0  0  0  0  1  0  0  0  0  0  0
  186.4480  177.4280  145.7960 C   0  0  0  0  0  2  0  0  0  0  0  0
  187.8020  178.6720  140.1540 C   0  0  0  0  0  2  0  0  0  0  0  0
  186.7560  178.0110  140.8510 O   0  0  0  0  0  0  0  0  0  0  0  0
  185.9250  179.9110  141.8250 O   0  0  0  0  0  0  0  0  0  0  0  0
  185.7440  178.7070  141.5120 C   0  0  0  0  0  0  0  0  0  0  0  0
  184.4470  178.0560  141.8600 C   0  0  0  0  0  1  0  0  0  0  0  0
  187.3210  176.5770  136.5340 C   0  0  2  0  0  3  0  0  0  0  0  0
  186.3240  177.6770  136.1480 C   0  0  2  0  0  3  0  0  0  0  0  0
  186.9750  179.0490  136.2680 C   0  0  0  0  0  1  0  0  0  0  0  0
  185.1190  177.6390  137.0350 C   0  0  0  0  0  3  0  0  0  0  0  0
  183.7170  176.8480  135.2920 O   0  0  0  0  0  1  0  0  0  0  0  0
  183.9200  177.2530  136.6080 C   0  0  0  0  0  3  0  0  0  0  0  0
  186.8360  175.2820  136.0760 N   0  0  0  0  0  2  0  0  0  0  0  0
  186.8500  172.9580  136.8380 C   0  0  1  0  0  3  0  0  0  0  0  0
  188.8760  173.9630  135.8770 C   0  0  0  0  0  2  0  0  0  0  0  0
  188.9870  172.4540  135.8230 C   0  0  1  0  0  3  0  0  0  0  0  0
  187.6460  174.2510  136.7110 C   0  0  1  0  0  3  0  0  0  0  0  0
  186.5380  172.4020  135.5080 N   0  0  0  0  0  0  0  0  0  0  0  0
  185.4270  171.4870  135.6940 C   0  0  0  0  0  1  0  0  0  0  0  0
  187.6630  171.8670  136.2970 C   0  0  2  0  0  3  0  0  0  0  0  0
  189.3160  171.9900  134.4100 C   0  0  0  0  0  2  0  0  0  0  0  0
  191.9710  172.9540  134.3460 O   0  0  0  0  0  0  0  0  0  0  0  0
  191.8140  171.7040  134.3970 C   0  0  0  0  0  0  0  0  0  0  0  0
  190.3340  169.7950  134.4680 O   0  0  0  0  0  1  0  0  0  0  0  0
  190.4970  171.1380  134.4190 N   0  0  0  0  0  0  0  0  0  0  0  0
  193.0170  170.8230  134.4710 C   0  0  0  0  0  2  0  0  0  0  0  0
  193.6860  170.9280  135.8320 C   0  0  0  0  0  2  0  0  0  0  0  0
  195.1940  170.8470  135.6900 C   0  0  0  0  0  1  0  0  0  0  0  0
  2 19  1  1  0  0  0
  2  9  1  0  0  0  0
  3  1  1  6  0  0  0
  3  2  1  0  0  0  0
  4  3  1  0  0  0  0
  5  8  1  1  0  0  0
  5 13  1  0  0  0  0
  6  8  1  0  0  0  0
  7 12  1  0  0  0  0
  9 11  1  6  0  0  0
  9  5  1  0  0  0  0
 10  4  1  0  0  0  0
 10  7  1  0  0  0  0
 11  6  2  0  0  0  0
 12 11  1  0  0  0  0
 13 15  1  0  0  0  0
 13 14  1  1  0  0  0
 15 14  1  0  0  0  0
 15 16  1  1  0  0  0
 16 18  1  0  0  0  0
 17 18  1  0  0  0  0
 19 20  1  0  0  0  0
 20 22  1  0  0  0  0
 22 21  2  0  0  0  0
 22 23  1  0  0  0  0
 24  1  1  1  0  0  0
 25 26  1  1  0  0  0
 25 24  1  0  0  0  0
 25 27  1  0  0  0  0
 28 29  1  0  0  0  0
 29 27  2  0  0  0  0
 30 24  1  0  0  0  0
 31 35  1  6  0  0  0
 32 34  1  0  0  0  0
 33 38  1  6  0  0  0
 33 32  1  0  0  0  0
 33 37  1  0  0  0  0
 34 30  1  6  0  0  0
 34 31  1  0  0  0  0
 35 36  1  0  0  0  0
 37 35  1  6  0  0  0
 37 31  1  0  0  0  0
 38 42  1  0  0  0  0
 39 40  2  0  0  0  0
 40 42  1  0  0  0  0
 40 43  1  0  0  0  0
 42 41  1  0  0  0  0
 43 44  1  0  0  0  0
 45 44  1  0  0  0  0
M  END
>  <MODEL>
7

>  <REMARK>
 VINA RESULT:      -6.6      4.024      7.037
  Name = 
  16 active torsions:
  status: ('A' for Active; 'I' for Inactive)
    1  A    between atoms: C_1  and  C_19
    2  A    between atoms: N_2  and  C_22
    3  A    between atoms: N_2  and  C_27
    4  A    between atoms: C_3  and  C_5
    5  A    between atoms: C_5  and  C_33
    6  A    between atoms: C_7  and  C_16
    7  A    between atoms: C_8  and  C_11
    8  A    between atoms: C_9  and  O_38
    9  A    between atoms: C_11  and  O_38
   10  A    between atoms: C_13  and  C_40
   11  A    between atoms: C_19  and  C_22
   12  A    between atoms: C_22  and  C_40
   13  A    between atoms: C_23  and  C_26
   14  A    between atoms: C_26  and  N_45
   15  A    between atoms: C_28  and  C_43
   16  A    between atoms: C_29  and  C_43
                            x       y       z     vdW  Elec       q    Type
                         _______ _______ _______ _____ _____    ______ ____

>  <TORSDO>
F 16

$$$$
=
 OpenBabel10232408273D

 45 49  0  0  1  0  0  0  0  0999 V2000
  189.8600  176.4750  139.1790 C   0  0  0  0  0  2  0  0  0  0  0  0
  189.0010  175.5290  136.9300 C   0  0  2  0  0  3  0  0  0  0  0  0
  189.2220  176.7360  137.8060 C   0  0  2  0  0  3  0  0  0  0  0  0
  189.6430  178.0040  137.0770 C   0  0  0  0  0  2  0  0  0  0  0  0
  187.4690  174.1120  135.4970 C   0  0  1  0  0  3  0  0  0  0  0  0
  186.2780  175.9210  134.6440 N   0  0  0  0  0  0  0  0  0  0  0  0
  187.1840  178.5390  136.9430 C   0  0  0  0  0  2  0  0  0  0  0  0
  186.4950  174.5690  134.5720 O   0  0  0  0  0  0  0  0  0  0  0  0
  187.9240  175.4070  136.1210 C   0  0  2  0  0  3  0  0  0  0  0  0
  188.5740  179.0710  137.2810 C   0  0  0  0  0  2  0  0  0  0  0  0
  187.0400  176.4510  135.5370 C   0  0  0  0  0  0  0  0  0  0  0  0
  187.1930  177.9420  135.5500 C   0  0  0  0  0  2  0  0  0  0  0  0
  186.7450  173.2500  136.5270 C   0  0  1  0  0  3  0  0  0  0  0  0
  185.7990  174.1330  137.3170 C   0  0  0  0  0  2  0  0  0  0  0  0
  185.2540  173.1970  136.2620 C   0  0  2  0  0  3  0  0  0  0  0  0
  184.6570  171.9890  136.9600 C   0  0  0  0  0  2  0  0  0  0  0  0
  183.1590  170.2090  136.1200 C   0  0  0  0  0  1  0  0  0  0  0  0
  183.2720  171.6890  136.4210 C   0  0  0  0  0  2  0  0  0  0  0  0
  190.0060  174.4120  136.9680 C   0  0  0  0  0  2  0  0  0  0  0  0
  191.2240  174.7970  136.3470 O   0  0  0  0  0  0  0  0  0  0  0  0
  192.8370  173.8900  137.6970 O   0  0  0  0  0  0  0  0  0  0  0  0
  192.4250  174.8860  137.0500 C   0  0  0  0  0  0  0  0  0  0  0  0
  193.2350  176.1390  137.0560 C   0  0  0  0  0  1  0  0  0  0  0  0
  189.5570  177.5370  140.2390 C   0  0  2  0  0  3  0  0  0  0  0  0
  190.5920  177.4990  141.3710 C   0  0  2  0  0  3  0  0  0  0  0  0
  192.0010  177.6170  140.8070 C   0  0  0  0  0  1  0  0  0  0  0  0
  190.4900  176.2200  142.1430 C   0  0  0  0  0  3  0  0  0  0  0  0
  190.8140  177.3130  144.2240 O   0  0  0  0  0  1  0  0  0  0  0  0
  190.6010  176.1650  143.4680 C   0  0  0  0  0  3  0  0  0  0  0  0
  188.2250  177.2880  140.7730 N   0  0  0  0  0  2  0  0  0  0  0  0
  186.4010  178.9120  140.9110 C   0  0  1  0  0  3  0  0  0  0  0  0
  187.6560  178.2780  142.9260 C   0  0  0  0  0  2  0  0  0  0  0  0
  186.3320  178.8910  143.3290 C   0  0  1  0  0  3  0  0  0  0  0  0
  187.7740  178.5040  141.4340 C   0  0  1  0  0  3  0  0  0  0  0  0
  185.3840  177.9080  141.2710 N   0  0  0  0  0  0  0  0  0  0  0  0
  184.2640  178.1140  140.3710 C   0  0  0  0  0  1  0  0  0  0  0  0
  185.5260  179.1450  142.0600 C   0  0  2  0  0  3  0  0  0  0  0  0
  185.5790  177.9700  144.2800 C   0  0  0  0  0  2  0  0  0  0  0  0
  187.5100  176.9550  146.0750 O   0  0  0  0  0  0  0  0  0  0  0  0
  186.7500  177.8660  146.5020 C   0  0  0  0  0  0  0  0  0  0  0  0
  184.9200  179.3980  146.1190 O   0  0  0  0  0  1  0  0  0  0  0  0
  185.7360  178.4230  145.6540 N   0  0  0  0  0  0  0  0  0  0  0  0
  186.9440  178.3830  147.8890 C   0  0  0  0  0  2  0  0  0  0  0  0
  188.0510  177.6240  148.6030 C   0  0  0  0  0  2  0  0  0  0  0  0
  189.4110  178.1560  148.1880 C   0  0  0  0  0  1  0  0  0  0  0  0
  2 19  1  1  0  0  0
  2  3  1  0  0  0  0
  3  1  1  1  0  0  0
  4 10  1  0  0  0  0
  4  3  1  0  0  0  0
  5  8  1  6  0  0  0
  5  9  1  0  0  0  0
  5 13  1  0  0  0  0
  6 11  2  0  0  0  0
  7 10  1  0  0  0  0
  8  6  1  0  0  0  0
  9 11  1  6  0  0  0
  9  2  1  0  0  0  0
 11 12  1  0  0  0  0
 12  7  1  0  0  0  0
 13 14  1  1  0  0  0
 15 13  1  0  0  0  0
 15 16  1  1  0  0  0
 15 14  1  0  0  0  0
 17 18  1  0  0  0  0
 18 16  1  0  0  0  0
 20 19  1  0  0  0  0
 20 22  1  0  0  0  0
 22 23  1  0  0  0  0
 22 21  2  0  0  0  0
 24  1  1  6  0  0  0
 24 30  1  0  0  0  0
 24 25  1  0  0  0  0
 25 26  1  6  0  0  0
 25 27  1  0  0  0  0
 27 29  2  0  0  0  0
 29 28  1  0  0  0  0
 31 35  1  6  0  0  0
 31 34  1  0  0  0  0
 31 37  1  0  0  0  0
 32 33  1  0  0  0  0
 33 38  1  1  0  0  0
 34 30  1  6  0  0  0
 34 32  1  0  0  0  0
 36 35  1  0  0  0  0
 37 35  1  6  0  0  0
 37 33  1  0  0  0  0
 38 42  1  0  0  0  0
 39 40  2  0  0  0  0
 40 43  1  0  0  0  0
 42 41  1  0  0  0  0
 42 40  1  0  0  0  0
 43 44  1  0  0  0  0
 45 44  1  0  0  0  0
M  END
>  <MODEL>
8

>  <REMARK>
 VINA RESULT:      -6.5      2.476      8.891
  Name = 
  16 active torsions:
  status: ('A' for Active; 'I' for Inactive)
    1  A    between atoms: C_1  and  C_19
    2  A    between atoms: N_2  and  C_22
    3  A    between atoms: N_2  and  C_27
    4  A    between atoms: C_3  and  C_5
    5  A    between atoms: C_5  and  C_33
    6  A    between atoms: C_7  and  C_16
    7  A    between atoms: C_8  and  C_11
    8  A    between atoms: C_9  and  O_38
    9  A    between atoms: C_11  and  O_38
   10  A    between atoms: C_13  and  C_40
   11  A    between atoms: C_19  and  C_22
   12  A    between atoms: C_22  and  C_40
   13  A    between atoms: C_23  and  C_26
   14  A    between atoms: C_26  and  N_45
   15  A    between atoms: C_28  and  C_43
   16  A    between atoms: C_29  and  C_43
                            x       y       z     vdW  Elec       q    Type
                         _______ _______ _______ _____ _____    ______ ____

>  <TORSDO>
F 16

$$$$
=
 OpenBabel10232408273D

 45 49  0  0  1  0  0  0  0  0999 V2000
  189.0440  178.3590  141.0500 C   0  0  0  0  0  2  0  0  0  0  0  0
  187.8960  177.2810  143.1020 C   0  0  2  0  0  3  0  0  0  0  0  0
  187.7670  178.1570  141.8820 C   0  0  2  0  0  3  0  0  0  0  0  0
  186.4580  178.0280  141.1190 C   0  0  0  0  0  2  0  0  0  0  0  0
  187.5530  176.9150  145.5830 C   0  0  1  0  0  3  0  0  0  0  0  0
  185.5430  178.0850  145.6730 N   0  0  0  0  0  0  0  0  0  0  0  0
  185.6220  179.9110  142.5720 C   0  0  0  0  0  2  0  0  0  0  0  0
  186.4230  177.2850  146.3570 O   0  0  0  0  0  0  0  0  0  0  0  0
  187.2190  177.5270  144.2470 C   0  0  2  0  0  3  0  0  0  0  0  0
  185.7310  179.3680  141.1500 C   0  0  0  0  0  2  0  0  0  0  0  0
  185.9620  178.2890  144.4730 C   0  0  0  0  0  0  0  0  0  0  0  0
  185.0030  178.8600  143.4720 C   0  0  0  0  0  2  0  0  0  0  0  0
  188.7670  177.6060  146.1970 C   0  0  1  0  0  3  0  0  0  0  0  0
  188.4660  177.9100  147.6520 C   0  0  0  0  0  2  0  0  0  0  0  0
  189.3920  176.7690  147.2950 C   0  0  2  0  0  3  0  0  0  0  0  0
  190.8200  177.2230  147.5300 C   0  0  0  0  0  2  0  0  0  0  0  0
  192.7190  175.7970  148.2200 C   0  0  0  0  0  1  0  0  0  0  0  0
  191.8020  176.1630  147.0720 C   0  0  0  0  0  2  0  0  0  0  0  0
  188.8220  176.0980  143.0510 C   0  0  0  0  0  2  0  0  0  0  0  0
  189.8260  176.1890  144.0510 O   0  0  0  0  0  0  0  0  0  0  0  0
  191.9910  175.7780  143.4230 O   0  0  0  0  0  0  0  0  0  0  0  0
  191.1230  176.6190  143.7690 C   0  0  0  0  0  0  0  0  0  0  0  0
  191.5080  178.0570  143.8700 C   0  0  0  0  0  1  0  0  0  0  0  0
  189.1280  177.5000  139.7860 C   0  0  2  0  0  3  0  0  0  0  0  0
  190.5860  177.2810  139.3630 C   0  0  2  0  0  3  0  0  0  0  0  0
  190.7980  175.8430  138.9100 C   0  0  0  0  0  1  0  0  0  0  0  0
  191.5190  177.5690  140.4980 C   0  0  0  0  0  3  0  0  0  0  0  0
  193.4450  177.2640  139.1460 O   0  0  0  0  0  1  0  0  0  0  0  0
  192.8430  177.5500  140.3670 C   0  0  0  0  0  3  0  0  0  0  0  0
  188.3950  178.1720  138.7220 N   0  0  0  0  0  2  0  0  0  0  0  0
  186.6100  177.8840  137.0750 C   0  0  1  0  0  3  0  0  0  0  0  0
  188.1580  176.0400  137.5650 C   0  0  0  0  0  2  0  0  0  0  0  0
  187.4870  175.7940  136.2300 C   0  0  1  0  0  3  0  0  0  0  0  0
  187.4360  177.2240  138.1720 C   0  0  1  0  0  3  0  0  0  0  0  0
  187.4590  178.2450  135.9250 N   0  0  0  0  0  0  0  0  0  0  0  0
  186.7300  179.2490  135.1720 C   0  0  0  0  0  1  0  0  0  0  0  0
  186.6420  177.0180  135.8950 C   0  0  2  0  0  3  0  0  0  0  0  0
  188.5240  175.5330  135.1460 C   0  0  0  0  0  2  0  0  0  0  0  0
  191.3330  175.3870  134.8820 O   0  0  0  0  0  0  0  0  0  0  0  0
  190.7430  174.3640  135.3260 C   0  0  0  0  0  0  0  0  0  0  0  0
  188.6870  173.2560  135.9480 O   0  0  0  0  0  1  0  0  0  0  0  0
  189.3170  174.3570  135.4760 N   0  0  0  0  0  0  0  0  0  0  0  0
  191.5520  173.1750  135.7280 C   0  0  0  0  0  2  0  0  0  0  0  0
  192.5060  173.5230  136.8590 C   0  0  0  0  0  2  0  0  0  0  0  0
  193.9010  173.0090  136.5530 C   0  0  0  0  0  1  0  0  0  0  0  0
  2 19  1  1  0  0  0
  2  9  1  0  0  0  0
  3  1  1  6  0  0  0
  3  2  1  0  0  0  0
  4 10  1  0  0  0  0
  4  3  1  0  0  0  0
  5 13  1  0  0  0  0
  5  8  1  1  0  0  0
  6  8  1  0  0  0  0
  7 12  1  0  0  0  0
  9 11  1  6  0  0  0
  9  5  1  0  0  0  0
 10  7  1  0  0  0  0
 11  6  2  0  0  0  0
 12 11  1  0  0  0  0
 13 15  1  0  0  0  0
 13 14  1  1  0  0  0
 15 16  1  1  0  0  0
 15 14  1  0  0  0  0
 18 16  1  0  0  0  0
 18 17  1  0  0  0  0
 19 20  1  0  0  0  0
 21 22  2  0  0  0  0
 22 23  1  0  0  0  0
 22 20  1  0  0  0  0
 24  1  1  1  0  0  0
 25 26  1  1  0  0  0
 25 24  1  0  0  0  0
 25 27  1  0  0  0  0
 28 29  1  0  0  0  0
 29 27  2  0  0  0  0
 30 24  1  0  0  0  0
 31 35  1  6  0  0  0
 31 34  1  0  0  0  0
 32 34  1  0  0  0  0
 33 38  1  6  0  0  0
 33 32  1  0  0  0  0
 34 30  1  6  0  0  0
 36 35  1  0  0  0  0
 37 35  1  6  0  0  0
 37 33  1  0  0  0  0
 37 31  1  0  0  0  0
 38 42  1  0  0  0  0
 39 40  2  0  0  0  0
 40 42  1  0  0  0  0
 40 43  1  0  0  0  0
 42 41  1  0  0  0  0
 43 44  1  0  0  0  0
 45 44  1  0  0  0  0
M  END
>  <MODEL>
9

>  <REMARK>
 VINA RESULT:      -6.2      2.941      4.611
  Name = 
  16 active torsions:
  status: ('A' for Active; 'I' for Inactive)
    1  A    between atoms: C_1  and  C_19
    2  A    between atoms: N_2  and  C_22
    3  A    between atoms: N_2  and  C_27
    4  A    between atoms: C_3  and  C_5
    5  A    between atoms: C_5  and  C_33
    6  A    between atoms: C_7  and  C_16
    7  A    between atoms: C_8  and  C_11
    8  A    between atoms: C_9  and  O_38
    9  A    between atoms: C_11  and  O_38
   10  A    between atoms: C_13  and  C_40
   11  A    between atoms: C_19  and  C_22
   12  A    between atoms: C_22  and  C_40
   13  A    between atoms: C_23  and  C_26
   14  A    between atoms: C_26  and  N_45
   15  A    between atoms: C_28  and  C_43
   16  A    between atoms: C_29  and  C_43
                            x       y       z     vdW  Elec       q    Type
                         _______ _______ _______ _____ _____    ______ ____

>  <TORSDO>
F 16

$$$$
