=
 OpenBabel10232409453D

 25 29  0  0  1  0  0  0  0  0999 V2000
  186.9390  178.6040  147.6260 C   0  0  0  0  0  2  0  0  0  0  0  0
  191.2470  176.4920  148.0520 C   0  0  0  0  0  3  0  0  0  0  0  0
  190.4570  177.3800  145.7620 C   0  0  2  0  0  3  0  0  0  0  0  0
  183.0190  179.5920  144.9310 N   0  0  0  0  0  1  0  0  0  0  0  0
  190.9300  177.2840  141.2940 O   0  0  0  0  0  0  0  0  0  0  0  0
  184.7750  178.1320  143.8440 C   0  0  0  0  0  2  0  0  0  0  0  0
  187.9750  176.8130  145.3280 C   0  0  0  0  0  2  0  0  0  0  0  0
  189.2890  177.9490  143.4030 C   0  0  2  0  0  3  0  0  0  0  0  0
  192.1900  175.7760  147.4400 C   0  0  0  0  0  3  0  0  0  0  0  0
  186.2970  178.1180  143.8800 C   0  0  1  0  0  3  0  0  0  0  0  0
  192.0100  178.9390  143.0870 N   0  0  0  0  0  1  0  0  0  0  0  0
  191.3910  176.3280  145.1760 C   0  0  0  0  0  0  0  0  0  0  0  0
  189.0530  177.4020  147.8070 C   0  0  0  0  0  0  0  0  0  0  0  0
  190.9540  177.5780  142.7760 P   0  0  2  0  0  0  0  0  0  0  0  0
  191.5480  176.1320  143.6970 C   0  0  0  0  0  2  0  0  0  0  0  0
  190.2280  177.1950  147.2650 C   0  0  0  0  0  0  0  0  0  0  0  0
  184.2750  178.9310  145.0190 C   0  0  0  0  0  0  0  0  0  0  0  0
  186.2210  178.3150  146.3160 C   0  0  1  0  0  3  0  0  0  0  0  0
  189.1760  177.6480  144.9250 C   0  0  2  0  0  3  0  0  0  0  0  0
  192.2200  175.6430  145.9720 C   0  0  0  0  0  3  0  0  0  0  0  0
  188.2390  177.2690  142.5370 C   0  0  0  0  0  3  0  0  0  0  0  0
  184.9590  178.9860  146.1280 N   0  0  0  0  0  0  0  0  0  0  0  0
  186.7780  177.6950  145.2470 C   0  0  2  0  0  3  0  0  0  0  0  0
  186.9090  177.3440  142.7400 C   0  0  0  0  0  3  0  0  0  0  0  0
  187.8230  177.5510  148.2240 C   0  0  0  0  0  3  0  0  0  0  0  0
  1 25  1  0  0  0  0
  3 12  1  6  0  0  0
  3 16  1  0  0  0  0
  4 17  1  0  0  0  0
  6 10  1  0  0  0  0
  6 17  1  0  0  0  0
  8 21  1  6  0  0  0
  8 19  1  0  0  0  0
  9  2  2  0  0  0  0
 10 24  1  6  0  0  0
 10 23  1  0  0  0  0
 12 20  2  0  0  0  0
 13 25  2  0  0  0  0
 14  5  2  6  0  0  0
 14 11  1  0  0  0  0
 14  8  1  0  0  0  0
 14 15  1  0  0  0  0
 15 12  1  0  0  0  0
 16 13  2  0  0  0  0
 16  2  1  0  0  0  0
 17 22  2  0  0  0  0
 18  1  1  6  0  0  0
 19  7  1  6  0  0  0
 19  3  1  0  0  0  0
 20  9  1  0  0  0  0
 21 24  2  0  0  0  0
 22 18  1  0  0  0  0
 23  7  1  6  0  0  0
 23 18  1  0  0  0  0
M  END
>  <MODEL>
1

>  <REMARK>
 VINA RESULT:     -10.6      0.000      0.000
  Name = 
  0 active torsions:
  status: ('A' for Active; 'I' for Inactive)
                            x       y       z     vdW  Elec       q    Type
                         _______ _______ _______ _____ _____    ______ ____

>  <TORSDO>
F 0

$$$$
=
 OpenBabel10232409453D

 25 29  0  0  1  0  0  0  0  0999 V2000
  185.0770  179.3400  143.9790 C   0  0  0  0  0  2  0  0  0  0  0  0
  187.7220  177.5190  147.5710 C   0  0  0  0  0  3  0  0  0  0  0  0
  188.8200  178.0780  145.3020 C   0  0  2  0  0  3  0  0  0  0  0  0
  184.2480  179.7860  139.2130 N   0  0  0  0  0  1  0  0  0  0  0  0
  192.2960  177.4570  142.5230 O   0  0  0  0  0  0  0  0  0  0  0  0
  186.1830  178.2960  139.8690 C   0  0  0  0  0  2  0  0  0  0  0  0
  187.3390  177.3340  143.3220 C   0  0  0  0  0  2  0  0  0  0  0  0
  189.6820  178.2910  142.7600 C   0  0  2  0  0  3  0  0  0  0  0  0
  188.7850  176.7830  147.8950 C   0  0  0  0  0  3  0  0  0  0  0  0
  187.2350  178.3640  140.9670 C   0  0  1  0  0  3  0  0  0  0  0  0
  191.8820  179.3740  144.3330 N   0  0  0  0  0  1  0  0  0  0  0  0
  189.8410  177.0110  145.6800 C   0  0  0  0  0  0  0  0  0  0  0  0
  186.3870  178.2790  145.7420 C   0  0  0  0  0  0  0  0  0  0  0  0
  191.2840  177.9320  143.5400 P   0  0  2  0  0  0  0  0  0  0  0  0
  190.9840  176.6430  144.7800 C   0  0  0  0  0  2  0  0  0  0  0  0
  187.5900  178.0670  146.2150 C   0  0  0  0  0  0  0  0  0  0  0  0
  185.0430  179.2060  140.2400 C   0  0  0  0  0  0  0  0  0  0  0  0
  185.4770  178.8550  142.5930 C   0  0  1  0  0  3  0  0  0  0  0  0
  188.5150  178.1750  143.7830 C   0  0  2  0  0  3  0  0  0  0  0  0
  189.8330  176.4720  146.9050 C   0  0  0  0  0  3  0  0  0  0  0  0
  189.5140  177.4570  141.4990 C   0  0  0  0  0  3  0  0  0  0  0  0
  184.7490  179.4320  141.4900 N   0  0  0  0  0  0  0  0  0  0  0  0
  186.5920  178.1370  142.3140 C   0  0  2  0  0  3  0  0  0  0  0  0
  188.4320  177.4890  140.6960 C   0  0  0  0  0  3  0  0  0  0  0  0
  185.2300  178.4150  145.1500 C   0  0  0  0  0  3  0  0  0  0  0  0
  1 25  1  0  0  0  0
  2  9  2  0  0  0  0
  3 12  1  6  0  0  0
  3 16  1  0  0  0  0
  4 17  1  0  0  0  0
  6 17  1  0  0  0  0
  8 21  1  6  0  0  0
  8 14  1  0  0  0  0
  8 19  1  0  0  0  0
 10  6  1  6  0  0  0
 10 23  1  0  0  0  0
 12 20  2  0  0  0  0
 13 16  2  0  0  0  0
 14  5  2  6  0  0  0
 14 11  1  0  0  0  0
 14 15  1  0  0  0  0
 15 12  1  0  0  0  0
 16  2  1  0  0  0  0
 17 22  2  0  0  0  0
 18  1  1  1  0  0  0
 19  7  1  6  0  0  0
 19  3  1  0  0  0  0
 20  9  1  0  0  0  0
 22 18  1  0  0  0  0
 23 18  1  0  0  0  0
 23  7  1  1  0  0  0
 24 10  1  0  0  0  0
 24 21  2  0  0  0  0
 25 13  2  0  0  0  0
M  END
>  <MODEL>
2

>  <REMARK>
 VINA RESULT:     -10.6      2.019      3.163
  Name = 
  0 active torsions:
  status: ('A' for Active; 'I' for Inactive)
                            x       y       z     vdW  Elec       q    Type
                         _______ _______ _______ _____ _____    ______ ____

>  <TORSDO>
F 0

$$$$
=
 OpenBabel10232409453D

 25 29  0  0  1  0  0  0  0  0999 V2000
  190.4190  177.9730  142.8880 C   0  0  0  0  0  2  0  0  0  0  0  0
  186.7920  178.4130  139.7490 C   0  0  0  0  0  3  0  0  0  0  0  0
  186.3880  178.8170  142.2660 C   0  0  2  0  0  3  0  0  0  0  0  0
  191.9660  176.8370  147.3510 N   0  0  0  0  0  1  0  0  0  0  0  0
  183.4190  179.1000  145.6270 O   0  0  0  0  0  0  0  0  0  0  0  0
  189.4910  176.5390  146.9240 C   0  0  0  0  0  2  0  0  0  0  0  0
  187.5860  177.0480  143.7160 C   0  0  0  0  0  2  0  0  0  0  0  0
  186.0630  178.7540  144.9380 C   0  0  2  0  0  3  0  0  0  0  0  0
  185.4760  178.3120  139.5620 C   0  0  0  0  0  3  0  0  0  0  0  0
  188.4640  177.3220  146.1180 C   0  0  1  0  0  3  0  0  0  0  0  0
  184.4490  181.0280  144.0960 N   0  0  0  0  0  1  0  0  0  0  0  0
  184.9460  178.4240  141.9650 C   0  0  0  0  0  0  0  0  0  0  0  0
  188.5510  178.0490  141.3230 C   0  0  0  0  0  0  0  0  0  0  0  0
  184.3960  179.3240  144.4950 P   0  0  2  0  0  0  0  0  0  0  0  0
  183.8910  178.3790  143.0310 C   0  0  0  0  0  2  0  0  0  0  0  0
  187.3390  178.5000  141.1080 C   0  0  0  0  0  0  0  0  0  0  0  0
  190.8670  176.9280  146.4530 C   0  0  0  0  0  0  0  0  0  0  0  0
  190.0210  177.3860  144.2340 C   0  0  1  0  0  3  0  0  0  0  0  0
  186.8950  178.3980  143.6720 C   0  0  2  0  0  3  0  0  0  0  0  0
  184.5420  178.2530  140.7020 C   0  0  0  0  0  3  0  0  0  0  0  0
  185.9790  177.6480  145.9800 C   0  0  0  0  0  3  0  0  0  0  0  0
  191.0700  177.3030  145.2200 N   0  0  0  0  0  0  0  0  0  0  0  0
  188.7450  177.1760  144.6420 C   0  0  2  0  0  3  0  0  0  0  0  0
  187.0420  177.0120  146.5120 C   0  0  0  0  0  3  0  0  0  0  0  0
  189.7010  177.5220  141.6520 C   0  0  0  0  0  3  0  0  0  0  0  0
  2 16  1  0  0  0  0
  3 16  1  6  0  0  0
  3 19  1  0  0  0  0
  8 21  1  1  0  0  0
  9  2  2  0  0  0  0
  9 20  1  0  0  0  0
 10 24  1  6  0  0  0
 10  6  1  0  0  0  0
 12  3  1  0  0  0  0
 12 15  1  0  0  0  0
 13 25  2  0  0  0  0
 14 11  1  6  0  0  0
 14  8  1  0  0  0  0
 14  5  2  0  0  0  0
 15 14  1  0  0  0  0
 16 13  2  0  0  0  0
 17  6  1  0  0  0  0
 17  4  1  0  0  0  0
 18  1  1  1  0  0  0
 18 23  1  0  0  0  0
 18 22  1  0  0  0  0
 19  7  1  6  0  0  0
 19  8  1  0  0  0  0
 20 12  2  0  0  0  0
 21 24  2  0  0  0  0
 22 17  2  0  0  0  0
 23  7  1  6  0  0  0
 23 10  1  0  0  0  0
 25  1  1  0  0  0  0
M  END
>  <MODEL>
3

>  <REMARK>
 VINA RESULT:      -8.0      3.007      6.696
  Name = 
  0 active torsions:
  status: ('A' for Active; 'I' for Inactive)
                            x       y       z     vdW  Elec       q    Type
                         _______ _______ _______ _____ _____    ______ ____

>  <TORSDO>
F 0

$$$$
=
 OpenBabel10232409453D

 25 29  0  0  1  0  0  0  0  0999 V2000
  187.7220  178.7880  141.0450 C   0  0  0  0  0  2  0  0  0  0  0  0
  183.3330  179.1340  143.0010 C   0  0  0  0  0  3  0  0  0  0  0  0
  185.4220  179.0070  144.5120 C   0  0  2  0  0  3  0  0  0  0  0  0
  192.2950  177.1680  141.3040 N   0  0  0  0  0  1  0  0  0  0  0  0
  187.0980  178.1610  148.5940 O   0  0  0  0  0  0  0  0  0  0  0  0
  190.7770  176.5200  143.2200 C   0  0  0  0  0  2  0  0  0  0  0  0
  187.1070  177.2470  143.6560 C   0  0  0  0  0  2  0  0  0  0  0  0
  187.6470  178.4130  145.9070 C   0  0  2  0  0  3  0  0  0  0  0  0
  182.5670  178.8380  144.0510 C   0  0  0  0  0  3  0  0  0  0  0  0
  189.6610  177.2400  143.9650 C   0  0  1  0  0  3  0  0  0  0  0  0
  186.3570  180.4810  147.5030 N   0  0  0  0  0  1  0  0  0  0  0  0
  184.4740  178.4260  145.5540 C   0  0  0  0  0  0  0  0  0  0  0  0
  185.4950  178.8110  142.0390 C   0  0  0  0  0  0  0  0  0  0  0  0
  186.5490  178.7510  147.3150 P   0  0  2  0  0  0  0  0  0  0  0  0
  184.9440  178.0070  146.9160 C   0  0  0  0  0  2  0  0  0  0  0  0
  184.7950  179.0730  143.1160 C   0  0  0  0  0  0  0  0  0  0  0  0
  191.0090  177.2220  141.9090 C   0  0  0  0  0  0  0  0  0  0  0  0
  188.6920  177.9110  141.8230 C   0  0  1  0  0  3  0  0  0  0  0  0
  186.8670  178.4410  144.5610 C   0  0  2  0  0  3  0  0  0  0  0  0
  183.1550  178.4130  145.3350 C   0  0  0  0  0  3  0  0  0  0  0  0
  188.4460  177.1430  146.1590 C   0  0  0  0  0  3  0  0  0  0  0  0
  190.0340  177.8400  141.3010 N   0  0  0  0  0  0  0  0  0  0  0  0
  188.4630  177.4110  143.0620 C   0  0  2  0  0  3  0  0  0  0  0  0
  189.3460  176.6200  145.3020 C   0  0  0  0  0  3  0  0  0  0  0  0
  186.2620  178.4450  141.0460 C   0  0  0  0  0  3  0  0  0  0  0  0
  1 25  1  0  0  0  0
  2 16  1  0  0  0  0
  2  9  2  0  0  0  0
  3 16  1  6  0  0  0
  3 19  1  0  0  0  0
  3 12  1  0  0  0  0
  4 17  1  0  0  0  0
  8 21  1  1  0  0  0
  8 14  1  0  0  0  0
  9 20  1  0  0  0  0
 10  6  1  6  0  0  0
 10 24  1  0  0  0  0
 12 15  1  0  0  0  0
 13 16  2  0  0  0  0
 14 11  1  1  0  0  0
 14  5  2  0  0  0  0
 15 14  1  0  0  0  0
 17  6  1  0  0  0  0
 18  1  1  1  0  0  0
 18 23  1  0  0  0  0
 19  7  1  1  0  0  0
 19  8  1  0  0  0  0
 20 12  2  0  0  0  0
 22 18  1  0  0  0  0
 22 17  2  0  0  0  0
 23  7  1  1  0  0  0
 23 10  1  0  0  0  0
 24 21  2  0  0  0  0
 25 13  2  0  0  0  0
M  END
>  <MODEL>
4

>  <REMARK>
 VINA RESULT:      -7.7      2.891      6.762
  Name = 
  0 active torsions:
  status: ('A' for Active; 'I' for Inactive)
                            x       y       z     vdW  Elec       q    Type
                         _______ _______ _______ _____ _____    ______ ____

>  <TORSDO>
F 0

$$$$
=
 OpenBabel10232409453D

 25 29  0  0  1  0  0  0  0  0999 V2000
  186.4260  177.9170  142.5330 C   0  0  0  0  0  2  0  0  0  0  0  0
  186.1520  178.5050  137.7600 C   0  0  0  0  0  3  0  0  0  0  0  0
  188.2000  177.3380  138.8090 C   0  0  2  0  0  3  0  0  0  0  0  0
  189.1350  177.5910  146.5530 N   0  0  0  0  0  1  0  0  0  0  0  0
  192.4760  176.0400  138.3330 O   0  0  0  0  0  0  0  0  0  0  0  0
  190.3890  178.0250  144.4010 C   0  0  0  0  0  2  0  0  0  0  0  0
  188.9990  178.5570  140.9410 C   0  0  0  0  0  2  0  0  0  0  0  0
  190.4330  176.5660  140.1030 C   0  0  2  0  0  3  0  0  0  0  0  0
  186.8360  178.6680  136.6270 C   0  0  0  0  0  3  0  0  0  0  0  0
  190.2140  177.5400  142.9680 C   0  0  1  0  0  3  0  0  0  0  0  0
  190.2230  174.6800  137.8930 N   0  0  0  0  0  1  0  0  0  0  0  0
  188.9460  177.8150  137.5690 C   0  0  0  0  0  0  0  0  0  0  0  0
  186.3610  178.3470  140.1340 C   0  0  0  0  0  0  0  0  0  0  0  0
  190.9730  176.1740  138.4120 P   0  0  2  0  0  0  0  0  0  0  0  0
  190.4040  177.5330  137.3540 C   0  0  0  0  0  2  0  0  0  0  0  0
  186.8250  177.9940  138.9600 C   0  0  0  0  0  0  0  0  0  0  0  0
  189.1020  177.7930  145.1460 C   0  0  0  0  0  0  0  0  0  0  0  0
  187.8280  178.0570  143.1070 C   0  0  1  0  0  3  0  0  0  0  0  0
  189.0570  177.2930  140.1040 C   0  0  2  0  0  3  0  0  0  0  0  0
  188.2790  178.3750  136.5540 C   0  0  0  0  0  3  0  0  0  0  0  0
  191.5400  177.2910  140.8520 C   0  0  0  0  0  3  0  0  0  0  0  0
  187.9560  177.8200  144.5230 N   0  0  0  0  0  0  0  0  0  0  0  0
  188.9630  178.1380  142.3700 C   0  0  2  0  0  3  0  0  0  0  0  0
  191.4510  177.7220  142.1260 C   0  0  0  0  0  3  0  0  0  0  0  0
  186.0390  178.7370  141.3390 C   0  0  0  0  0  3  0  0  0  0  0  0
  2 16  1  0  0  0  0
  3 12  1  6  0  0  0
  3 16  1  0  0  0  0
  3 19  1  0  0  0  0
  5 14  2  0  0  0  0
  6 17  1  0  0  0  0
  8 19  1  0  0  0  0
  8 21  1  6  0  0  0
  9  2  2  0  0  0  0
 10 24  1  6  0  0  0
 10  6  1  0  0  0  0
 13 25  2  0  0  0  0
 14 11  1  6  0  0  0
 14  8  1  0  0  0  0
 15 12  1  0  0  0  0
 15 14  1  0  0  0  0
 16 13  2  0  0  0  0
 17  4  1  0  0  0  0
 18  1  1  6  0  0  0
 18 22  1  0  0  0  0
 19  7  1  6  0  0  0
 20  9  1  0  0  0  0
 20 12  2  0  0  0  0
 21 24  2  0  0  0  0
 22 17  2  0  0  0  0
 23  7  1  6  0  0  0
 23 10  1  0  0  0  0
 23 18  1  0  0  0  0
 25  1  1  0  0  0  0
M  END
>  <MODEL>
5

>  <REMARK>
 VINA RESULT:      -7.7      3.788      6.709
  Name = 
  0 active torsions:
  status: ('A' for Active; 'I' for Inactive)
                            x       y       z     vdW  Elec       q    Type
                         _______ _______ _______ _____ _____    ______ ____

>  <TORSDO>
F 0

$$$$
