=
 OpenBabel10232410233D

 42 45  0  0  1  0  0  0  0  0999 V2000
  190.5330  177.9740  141.2240 C   0  0  0  0  0  2  0  0  0  0  0  0
  190.0010  177.7260  139.8230 C   0  0  2  0  0  3  0  0  0  0  0  0
  193.0310  176.1420  136.3280 C   0  0  0  0  0  0  0  0  0  0  0  0
  183.5080  179.1350  139.6880 O   0  0  0  0  0  0  0  0  0  0  0  0
  184.1210  178.5270  140.6050 C   0  0  0  0  0  0  0  0  0  0  0  0
  190.7860  176.1700  135.5140 C   0  0  0  0  0  0  0  0  0  0  0  0
  186.2490  178.3170  139.2210 C   0  0  0  0  0  0  0  0  0  0  0  0
  185.4740  178.1080  140.4100 N   0  0  0  0  0  2  0  0  0  0  0  0
  192.5160  175.9580  137.7420 C   0  0  1  0  0  3  0  0  0  0  0  0
  188.5240  177.6300  140.0060 C   0  0  2  0  0  3  0  0  0  0  0  0
  186.8180  179.0330  137.2190 N   0  0  0  0  0  2  0  0  0  0  0  0
  193.4380  176.4450  138.6730 O   0  0  0  0  0  1  0  0  0  0  0  0
  191.1750  176.6730  137.9130 C   0  0  2  0  0  3  0  0  0  0  0  0
  190.0230  176.0440  134.5200 O   0  0  0  0  0  0  0  0  0  0  0  0
  187.6340  177.8860  139.0290 C   0  0  2  0  0  3  0  0  0  0  0  0
  185.8230  178.9800  138.2030 N   0  0  0  0  0  0  0  0  0  0  0  0
  190.5910  176.4300  139.3000 C   0  0  0  0  0  2  0  0  0  0  0  0
  192.2040  176.1980  135.3240 N   0  0  0  0  0  0  0  0  0  0  0  0
  189.4670  177.4750  142.1880 C   0  0  0  0  0  2  0  0  0  0  0  0
  188.1480  177.5450  141.4430 C   0  0  0  0  0  2  0  0  0  0  0  0
  187.9570  178.2050  137.5960 C   0  0  1  0  0  3  0  0  0  0  0  0
  188.8800  175.8660  137.1210 C   0  0  0  0  0  2  0  0  0  0  0  0
  190.2510  176.2800  136.8400 N   0  0  0  0  0  0  0  0  0  0  0  0
  187.8930  176.9500  136.7200 C   0  0  0  0  0  2  0  0  0  0  0  0
  184.0140  178.3810  143.0760 C   0  0  0  0  0  3  0  0  0  0  0  0
  183.5060  178.2840  141.8780 N   0  0  0  0  0  0  0  0  0  0  0  0
  185.5500  180.3310  143.6120 C   0  0  0  0  0  1  0  0  0  0  0  0
  185.4020  178.8290  143.4370 C   0  0  1  0  0  3  0  0  0  0  0  0
  186.5210  176.9010  144.2530 O   0  0  0  0  0  0  0  0  0  0  0  0
  186.0580  178.0030  144.5070 C   0  0  0  0  0  0  0  0  0  0  0  0
  187.2890  177.9170  146.6550 C   0  0  0  0  0  1  0  0  0  0  0  0
  186.1390  178.5540  145.8970 C   0  0  0  0  0  3  0  0  0  0  0  0
  184.8400  178.3270  146.6460 C   0  0  0  0  0  1  0  0  0  0  0  0
  194.4990  176.2140  136.0560 C   0  0  0  0  0  2  0  0  0  0  0  0
  195.2000  175.0290  136.6330 C   0  0  0  0  0  3  0  0  0  0  0  0
  196.4760  175.0650  136.8450 N   0  0  0  0  0  0  0  0  0  0  0  0
  197.1920  173.9590  137.3950 C   0  0  0  0  0  0  0  0  0  0  0  0
  196.3940  172.5390  137.5800 S   0  0  0  0  0  0  0  0  0  0  0  0
  198.9010  174.9640  139.0380 C   0  0  0  0  0  0  0  0  0  0  0  0
  197.9330  175.4840  139.9430 N   0  0  0  0  0  1  0  0  0  0  0  0
  198.5190  174.1510  137.9190 N   0  0  0  0  0  2  0  0  0  0  0  0
  200.1210  175.1940  139.2430 O   0  0  0  0  0  0  0  0  0  0  0  0
  1 19  1  0  0  0  0
  2 17  1  1  0  0  0
  2 10  1  0  0  0  0
  2  1  1  0  0  0  0
  3  9  1  0  0  0  0
  4  5  2  0  0  0  0
  5 26  1  0  0  0  0
  6 23  1  0  0  0  0
  7  8  1  0  0  0  0
  8  5  1  0  0  0  0
  9 13  1  0  0  0  0
  9 12  1  1  0  0  0
 10 20  1  1  0  0  0
 11 21  1  0  0  0  0
 11 16  1  0  0  0  0
 13 17  1  1  0  0  0
 14  6  2  0  0  0  0
 15  7  1  1  0  0  0
 15 10  1  0  0  0  0
 16  7  2  0  0  0  0
 18  6  1  0  0  0  0
 18  3  2  0  0  0  0
 20 19  1  0  0  0  0
 21 24  1  6  0  0  0
 21 15  1  0  0  0  0
 23 22  1  0  0  0  0
 23 13  1  0  0  0  0
 24 22  1  0  0  0  0
 25 28  1  0  0  0  0
 26 25  2  0  0  0  0
 28 27  1  1  0  0  0
 28 30  1  0  0  0  0
 29 30  2  0  0  0  0
 30 32  1  0  0  0  0
 32 33  1  0  0  0  0
 32 31  1  0  0  0  0
 34  3  1  0  0  0  0
 34 35  1  0  0  0  0
 35 36  2  0  0  0  0
 36 37  1  0  0  0  0
 37 38  2  0  0  0  0
 37 41  1  0  0  0  0
 39 42  2  0  0  0  0
 39 40  1  0  0  0  0
 41 39  1  0  0  0  0
M  END
>  <MODEL>
1

>  <REMARK>
 VINA RESULT:      -7.8      0.000      0.000
  Name = 
  8 active torsions:
  status: ('A' for Active; 'I' for Inactive)
    1  A    between atoms: C_3  and  C_13
    2  A    between atoms: C_6  and  C_25
    3  A    between atoms: C_8  and  N_33
    4  A    between atoms: C_11  and  C_14
    5  A    between atoms: C_11  and  C_25
    6  A    between atoms: C_13  and  C_15
    7  A    between atoms: N_20  and  C_21
    8  A    between atoms: C_21  and  N_24
                            x       y       z     vdW  Elec       q    Type
                         _______ _______ _______ _____ _____    ______ ____

>  <TORSDO>
F 8

$$$$
=
 OpenBabel10232410233D

 42 45  0  0  1  0  0  0  0  0999 V2000
  190.6200  177.8820  141.2580 C   0  0  0  0  0  2  0  0  0  0  0  0
  190.1160  177.6540  139.8440 C   0  0  2  0  0  3  0  0  0  0  0  0
  193.2110  176.1090  136.3890 C   0  0  0  0  0  0  0  0  0  0  0  0
  183.6290  179.0780  139.5990 O   0  0  0  0  0  0  0  0  0  0  0  0
  184.2230  178.4570  140.5200 C   0  0  0  0  0  0  0  0  0  0  0  0
  190.9840  176.1530  135.5310 C   0  0  0  0  0  0  0  0  0  0  0  0
  186.3770  178.2610  139.1760 C   0  0  0  0  0  0  0  0  0  0  0  0
  185.5790  178.0370  140.3460 N   0  0  0  0  0  2  0  0  0  0  0  0
  192.6680  175.9080  137.7900 C   0  0  1  0  0  3  0  0  0  0  0  0
  188.6350  177.5590  139.9970 C   0  0  2  0  0  3  0  0  0  0  0  0
  186.9870  179.0010  137.1940 N   0  0  0  0  0  2  0  0  0  0  0  0
  193.5730  176.3810  138.7450 O   0  0  0  0  0  1  0  0  0  0  0  0
  191.3250  176.6240  137.9440 C   0  0  2  0  0  3  0  0  0  0  0  0
  190.2400  176.0410  134.5210 O   0  0  0  0  0  0  0  0  0  0  0  0
  187.7650  177.8290  139.0050 C   0  0  2  0  0  3  0  0  0  0  0  0
  185.9730  178.9380  138.1580 N   0  0  0  0  0  0  0  0  0  0  0  0
  190.7140  176.3640  139.3160 C   0  0  0  0  0  2  0  0  0  0  0  0
  192.4050  176.1800  135.3690 N   0  0  0  0  0  0  0  0  0  0  0  0
  189.5340  177.3730  142.1940 C   0  0  0  0  0  2  0  0  0  0  0  0
  188.2310  177.4550  141.4250 C   0  0  0  0  0  2  0  0  0  0  0  0
  188.1170  178.1660  137.5830 C   0  0  1  0  0  3  0  0  0  0  0  0
  189.0450  175.8320  137.0960 C   0  0  0  0  0  2  0  0  0  0  0  0
  190.4230  176.2470  136.8480 N   0  0  0  0  0  0  0  0  0  0  0  0
  188.0680  176.9230  136.6900 C   0  0  0  0  0  2  0  0  0  0  0  0
  184.0510  178.3260  142.9870 C   0  0  0  0  0  3  0  0  0  0  0  0
  183.5820  178.1980  141.7770 N   0  0  0  0  0  0  0  0  0  0  0  0
  185.4660  180.3330  143.6370 C   0  0  0  0  0  1  0  0  0  0  0  0
  185.4070  178.8370  143.3840 C   0  0  1  0  0  3  0  0  0  0  0  0
  186.5660  176.9010  144.1260 O   0  0  0  0  0  0  0  0  0  0  0  0
  186.1060  177.9960  144.4150 C   0  0  0  0  0  0  0  0  0  0  0  0
  187.4130  177.8830  146.5160 C   0  0  0  0  0  1  0  0  0  0  0  0
  186.2320  178.5230  145.8120 C   0  0  0  0  0  3  0  0  0  0  0  0
  184.9620  178.2720  146.6020 C   0  0  0  0  0  1  0  0  0  0  0  0
  194.6850  176.1830  136.1480 C   0  0  0  0  0  2  0  0  0  0  0  0
  195.3430  174.8960  136.5210 C   0  0  0  0  0  3  0  0  0  0  0  0
  196.3520  174.8910  137.3310 N   0  0  0  0  0  0  0  0  0  0  0  0
  197.0160  173.6870  137.7200 C   0  0  0  0  0  0  0  0  0  0  0  0
  198.6050  173.5310  137.3500 S   0  0  0  0  0  0  0  0  0  0  0  0
  195.8390  171.4010  137.5870 C   0  0  0  0  0  0  0  0  0  0  0  0
  196.3710  171.0460  136.3150 N   0  0  0  0  0  1  0  0  0  0  0  0
  196.2590  172.5930  138.2670 N   0  0  0  0  0  2  0  0  0  0  0  0
  195.0070  170.6380  138.1410 O   0  0  0  0  0  0  0  0  0  0  0  0
  1 19  1  0  0  0  0
  2 17  1  1  0  0  0
  2 10  1  0  0  0  0
  2  1  1  0  0  0  0
  3  9  1  0  0  0  0
  4  5  2  0  0  0  0
  5 26  1  0  0  0  0
  6 23  1  0  0  0  0
  7  8  1  0  0  0  0
  8  5  1  0  0  0  0
  9 13  1  0  0  0  0
  9 12  1  1  0  0  0
 10 20  1  1  0  0  0
 11 21  1  0  0  0  0
 11 16  1  0  0  0  0
 13 17  1  1  0  0  0
 14  6  2  0  0  0  0
 15  7  1  1  0  0  0
 15 10  1  0  0  0  0
 16  7  2  0  0  0  0
 18  6  1  0  0  0  0
 18  3  2  0  0  0  0
 20 19  1  0  0  0  0
 21 24  1  6  0  0  0
 21 15  1  0  0  0  0
 23 22  1  0  0  0  0
 23 13  1  0  0  0  0
 24 22  1  0  0  0  0
 25 28  1  0  0  0  0
 26 25  2  0  0  0  0
 28 27  1  1  0  0  0
 28 30  1  0  0  0  0
 29 30  2  0  0  0  0
 30 32  1  0  0  0  0
 32 31  1  0  0  0  0
 32 33  1  0  0  0  0
 34  3  1  0  0  0  0
 34 35  1  0  0  0  0
 35 36  2  0  0  0  0
 36 37  1  0  0  0  0
 37 41  1  0  0  0  0
 38 37  2  0  0  0  0
 39 42  2  0  0  0  0
 39 41  1  0  0  0  0
 40 39  1  0  0  0  0
M  END
>  <MODEL>
2

>  <REMARK>
 VINA RESULT:      -7.5      1.348      1.708
  Name = 
  8 active torsions:
  status: ('A' for Active; 'I' for Inactive)
    1  A    between atoms: C_3  and  C_13
    2  A    between atoms: C_6  and  C_25
    3  A    between atoms: C_8  and  N_33
    4  A    between atoms: C_11  and  C_14
    5  A    between atoms: C_11  and  C_25
    6  A    between atoms: C_13  and  C_15
    7  A    between atoms: N_20  and  C_21
    8  A    between atoms: C_21  and  N_24
                            x       y       z     vdW  Elec       q    Type
                         _______ _______ _______ _____ _____    ______ ____

>  <TORSDO>
F 8

$$$$
=
 OpenBabel10232410233D

 42 45  0  0  1  0  0  0  0  0999 V2000
  185.0130  178.0370  140.6990 C   0  0  0  0  0  2  0  0  0  0  0  0
  185.9800  177.7250  139.5710 C   0  0  2  0  0  3  0  0  0  0  0  0
  184.3030  177.2650  135.0010 C   0  0  0  0  0  0  0  0  0  0  0  0
  192.1240  177.2240  142.0550 O   0  0  0  0  0  0  0  0  0  0  0  0
  191.2580  178.0840  142.3700 C   0  0  0  0  0  0  0  0  0  0  0  0
  186.6880  177.1730  135.0090 C   0  0  0  0  0  0  0  0  0  0  0  0
  189.7070  177.4110  140.4660 C   0  0  0  0  0  0  0  0  0  0  0  0
  190.0540  178.2050  141.6080 N   0  0  0  0  0  2  0  0  0  0  0  0
  184.3300  178.1000  136.2660 C   0  0  1  0  0  3  0  0  0  0  0  0
  187.3180  178.0750  140.1300 C   0  0  2  0  0  3  0  0  0  0  0  0
  189.8090  175.8410  138.9250 N   0  0  0  0  0  2  0  0  0  0  0  0
  183.1420  177.9460  136.9870 O   0  0  0  0  0  1  0  0  0  0  0  0
  185.5240  177.7020  137.1360 C   0  0  2  0  0  3  0  0  0  0  0  0
  187.7380  176.9570  134.3480 O   0  0  0  0  0  0  0  0  0  0  0  0
  188.4730  177.5410  139.6910 C   0  0  2  0  0  3  0  0  0  0  0  0
  190.4270  176.4350  140.0330 N   0  0  0  0  0  0  0  0  0  0  0  0
  185.6260  178.5870  138.3730 C   0  0  0  0  0  2  0  0  0  0  0  0
  185.4110  176.8880  134.4310 N   0  0  0  0  0  0  0  0  0  0  0  0
  185.7160  179.0300  141.6120 C   0  0  0  0  0  2  0  0  0  0  0  0
  187.2040  178.8150  141.4160 C   0  0  0  0  0  2  0  0  0  0  0  0
  188.6300  176.6000  138.5280 C   0  0  1  0  0  3  0  0  0  0  0  0
  187.9700  178.3730  136.8060 C   0  0  0  0  0  2  0  0  0  0  0  0
  186.7560  177.7100  136.3380 N   0  0  0  0  0  0  0  0  0  0  0  0
  189.0070  177.3570  137.2510 C   0  0  0  0  0  2  0  0  0  0  0  0
  191.0920  178.7050  144.7630 C   0  0  0  0  0  3  0  0  0  0  0  0
  191.4280  178.9240  143.5210 N   0  0  0  0  0  0  0  0  0  0  0  0
  191.3350  176.7160  146.3220 C   0  0  0  0  0  1  0  0  0  0  0  0
  190.4650  177.4620  145.3260 C   0  0  1  0  0  3  0  0  0  0  0  0
  188.7330  177.7800  146.9190 O   0  0  0  0  0  0  0  0  0  0  0  0
  189.0310  177.6290  145.7440 C   0  0  0  0  0  0  0  0  0  0  0  0
  186.5890  177.6270  145.3290 C   0  0  0  0  0  1  0  0  0  0  0  0
  187.9650  177.6110  144.6920 C   0  0  0  0  0  3  0  0  0  0  0  0
  188.1070  176.3920  143.8000 C   0  0  0  0  0  1  0  0  0  0  0  0
  183.0030  176.8980  134.3590 C   0  0  0  0  0  2  0  0  0  0  0  0
  182.7480  175.4340  134.4880 C   0  0  0  0  0  3  0  0  0  0  0  0
  182.8270  174.8570  135.6430 N   0  0  0  0  0  0  0  0  0  0  0  0
  182.5910  173.4600  135.8210 C   0  0  0  0  0  0  0  0  0  0  0  0
  181.1560  172.9960  136.4640 S   0  0  0  0  0  0  0  0  0  0  0  0
  184.8050  172.2900  136.4200 C   0  0  0  0  0  0  0  0  0  0  0  0
  184.8870  172.8170  137.7390 N   0  0  0  0  0  1  0  0  0  0  0  0
  183.6540  172.5160  135.5930 N   0  0  0  0  0  2  0  0  0  0  0  0
  185.7470  171.5820  135.9800 O   0  0  0  0  0  0  0  0  0  0  0  0
  1 19  1  0  0  0  0
  2 17  1  6  0  0  0
  2 10  1  0  0  0  0
  2  1  1  0  0  0  0
  3  9  1  0  0  0  0
  4  5  2  0  0  0  0
  5 26  1  0  0  0  0
  6 23  1  0  0  0  0
  7  8  1  0  0  0  0
  8  5  1  0  0  0  0
  9 12  1  1  0  0  0
  9 13  1  0  0  0  0
 10 20  1  1  0  0  0
 11 16  1  0  0  0  0
 13 17  1  1  0  0  0
 14  6  2  0  0  0  0
 15 10  1  0  0  0  0
 15  7  1  1  0  0  0
 16  7  2  0  0  0  0
 18  3  2  0  0  0  0
 18  6  1  0  0  0  0
 20 19  1  0  0  0  0
 21 24  1  6  0  0  0
 21 11  1  0  0  0  0
 21 15  1  0  0  0  0
 22 24  1  0  0  0  0
 23 22  1  0  0  0  0
 23 13  1  0  0  0  0
 25 28  1  0  0  0  0
 26 25  2  0  0  0  0
 28 30  1  0  0  0  0
 28 27  1  1  0  0  0
 30 29  2  0  0  0  0
 32 31  1  0  0  0  0
 32 30  1  0  0  0  0
 33 32  1  0  0  0  0
 34 35  1  0  0  0  0
 34  3  1  0  0  0  0
 35 36  2  0  0  0  0
 36 37  1  0  0  0  0
 37 38  2  0  0  0  0
 39 40  1  0  0  0  0
 41 37  1  0  0  0  0
 41 39  1  0  0  0  0
 42 39  2  0  0  0  0
M  END
>  <MODEL>
3

>  <REMARK>
 VINA RESULT:      -7.0      4.748      8.118
  Name = 
  8 active torsions:
  status: ('A' for Active; 'I' for Inactive)
    1  A    between atoms: C_3  and  C_13
    2  A    between atoms: C_6  and  C_25
    3  A    between atoms: C_8  and  N_33
    4  A    between atoms: C_11  and  C_14
    5  A    between atoms: C_11  and  C_25
    6  A    between atoms: C_13  and  C_15
    7  A    between atoms: N_20  and  C_21
    8  A    between atoms: C_21  and  N_24
                            x       y       z     vdW  Elec       q    Type
                         _______ _______ _______ _____ _____    ______ ____

>  <TORSDO>
F 8

$$$$
=
 OpenBabel10232410233D

 42 45  0  0  1  0  0  0  0  0999 V2000
  187.5450  178.9140  138.6950 C   0  0  0  0  0  2  0  0  0  0  0  0
  188.1540  178.3980  139.9870 C   0  0  2  0  0  3  0  0  0  0  0  0
  185.5630  178.5890  144.1290 C   0  0  0  0  0  0  0  0  0  0  0  0
  194.2900  176.1630  138.7550 O   0  0  0  0  0  0  0  0  0  0  0  0
  193.2720  175.9870  138.0340 C   0  0  0  0  0  0  0  0  0  0  0  0
  187.6080  177.4140  144.4980 C   0  0  0  0  0  0  0  0  0  0  0  0
  191.6950  176.9070  139.8090 C   0  0  0  0  0  0  0  0  0  0  0  0
  191.9750  176.3420  138.5210 N   0  0  0  0  0  2  0  0  0  0  0  0
  185.5940  178.1870  142.6680 C   0  0  1  0  0  3  0  0  0  0  0  0
  189.2880  177.5400  139.5390 C   0  0  2  0  0  3  0  0  0  0  0  0
  192.0200  177.7800  141.8040 N   0  0  0  0  0  2  0  0  0  0  0  0
  184.8870  179.1040  141.8860 O   0  0  0  0  0  1  0  0  0  0  0  0
  187.0400  178.0890  142.1780 C   0  0  2  0  0  3  0  0  0  0  0  0
  188.3850  176.8860  145.3370 O   0  0  0  0  0  0  0  0  0  0  0  0
  190.3650  177.2690  140.3000 C   0  0  2  0  0  3  0  0  0  0  0  0
  192.6070  177.2270  140.6600 N   0  0  0  0  0  0  0  0  0  0  0  0
  187.1030  177.5990  140.7360 C   0  0  0  0  0  2  0  0  0  0  0  0
  186.4890  178.1820  144.9490 N   0  0  0  0  0  0  0  0  0  0  0  0
  187.9650  177.9440  137.6000 C   0  0  0  0  0  2  0  0  0  0  0  0
  189.2510  177.2940  138.0720 C   0  0  0  0  0  2  0  0  0  0  0  0
  190.5660  177.6850  141.7310 C   0  0  1  0  0  3  0  0  0  0  0  0
  188.6890  176.1780  142.5960 C   0  0  0  0  0  2  0  0  0  0  0  0
  187.8270  177.2480  143.0900 N   0  0  0  0  0  0  0  0  0  0  0  0
  190.1530  176.5700  142.6960 C   0  0  0  0  0  2  0  0  0  0  0  0
  193.7320  174.2880  136.2910 C   0  0  0  0  0  3  0  0  0  0  0  0
  193.3860  175.4790  136.6980 N   0  0  0  0  0  0  0  0  0  0  0  0
  193.7280  171.7590  136.5180 C   0  0  0  0  0  1  0  0  0  0  0  0
  194.0630  173.0990  137.1480 C   0  0  1  0  0  3  0  0  0  0  0  0
  195.5250  173.1170  139.0190 O   0  0  0  0  0  0  0  0  0  0  0  0
  195.4130  173.1670  137.8030 C   0  0  0  0  0  0  0  0  0  0  0  0
  197.5700  172.1290  137.1660 C   0  0  0  0  0  1  0  0  0  0  0  0
  196.6300  173.2970  136.9380 C   0  0  0  0  0  3  0  0  0  0  0  0
  197.3520  174.6020  137.2130 C   0  0  0  0  0  1  0  0  0  0  0  0
  184.4420  179.4220  144.6650 C   0  0  0  0  0  2  0  0  0  0  0  0
  183.1280  178.9160  144.1700 C   0  0  0  0  0  3  0  0  0  0  0  0
  182.3110  179.7120  143.5590 N   0  0  0  0  0  0  0  0  0  0  0  0
  181.0430  179.2770  143.0650 C   0  0  0  0  0  0  0  0  0  0  0  0
  180.1330  178.3100  144.0260 S   0  0  0  0  0  0  0  0  0  0  0  0
  181.2200  178.9610  140.5160 C   0  0  0  0  0  0  0  0  0  0  0  0
  182.0480  177.8040  140.5780 N   0  0  0  0  0  1  0  0  0  0  0  0
  180.6700  179.5520  141.7030 N   0  0  0  0  0  2  0  0  0  0  0  0
  180.9360  179.4560  139.3950 O   0  0  0  0  0  0  0  0  0  0  0  0
  2  1  1  6  0  0  0
  2 17  1  0  0  0  0
  3 34  1  0  0  0  0
  3 18  2  0  0  0  0
  5  8  1  0  0  0  0
  5  4  2  0  0  0  0
  6 18  1  0  0  0  0
  6 14  2  0  0  0  0
  7 16  2  0  0  0  0
  8  7  1  0  0  0  0
  9 12  1  6  0  0  0
  9  3  1  0  0  0  0
 10 20  1  6  0  0  0
 10  2  1  0  0  0  0
 10 15  1  0  0  0  0
 13 17  1  6  0  0  0
 13  9  1  0  0  0  0
 13 23  1  0  0  0  0
 15  7  1  6  0  0  0
 15 21  1  0  0  0  0
 16 11  1  0  0  0  0
 19 20  1  0  0  0  0
 19  1  1  0  0  0  0
 21 11  1  0  0  0  0
 21 24  1  1  0  0  0
 22 24  1  0  0  0  0
 22 23  1  0  0  0  0
 23  6  1  0  0  0  0
 25 26  2  0  0  0  0
 25 28  1  0  0  0  0
 26  5  1  0  0  0  0
 28 27  1  6  0  0  0
 28 30  1  0  0  0  0
 30 29  2  0  0  0  0
 32 31  1  0  0  0  0
 32 33  1  0  0  0  0
 32 30  1  0  0  0  0
 35 34  1  0  0  0  0
 36 35  2  0  0  0  0
 37 36  1  0  0  0  0
 37 38  2  0  0  0  0
 39 40  1  0  0  0  0
 39 41  1  0  0  0  0
 41 37  1  0  0  0  0
 42 39  2  0  0  0  0
M  END
>  <MODEL>
4

>  <REMARK>
 VINA RESULT:      -7.0      3.901     11.529
  Name = 
  8 active torsions:
  status: ('A' for Active; 'I' for Inactive)
    1  A    between atoms: C_3  and  C_13
    2  A    between atoms: C_6  and  C_25
    3  A    between atoms: C_8  and  N_33
    4  A    between atoms: C_11  and  C_14
    5  A    between atoms: C_11  and  C_25
    6  A    between atoms: C_13  and  C_15
    7  A    between atoms: N_20  and  C_21
    8  A    between atoms: C_21  and  N_24
                            x       y       z     vdW  Elec       q    Type
                         _______ _______ _______ _____ _____    ______ ____

>  <TORSDO>
F 8

$$$$
=
 OpenBabel10232410233D

 42 45  0  0  1  0  0  0  0  0999 V2000
  191.5510  177.6340  141.0030 C   0  0  0  0  0  2  0  0  0  0  0  0
  191.1510  177.3860  139.5600 C   0  0  2  0  0  3  0  0  0  0  0  0
  194.3500  175.3450  136.4770 C   0  0  0  0  0  0  0  0  0  0  0  0
  184.9050  179.4650  138.6520 O   0  0  0  0  0  0  0  0  0  0  0  0
  185.3440  178.8350  139.6500 C   0  0  0  0  0  0  0  0  0  0  0  0
  192.2250  175.5760  135.4150 C   0  0  0  0  0  0  0  0  0  0  0  0
  187.5740  178.3430  138.5220 C   0  0  0  0  0  0  0  0  0  0  0  0
  186.6560  178.2670  139.6210 N   0  0  0  0  0  2  0  0  0  0  0  0
  193.6680  175.2750  137.8290 C   0  0  1  0  0  3  0  0  0  0  0  0
  189.6610  177.4540  139.5780 C   0  0  2  0  0  3  0  0  0  0  0  0
  188.4320  178.9100  136.5750 N   0  0  0  0  0  2  0  0  0  0  0  0
  194.5310  175.7020  138.8430 O   0  0  0  0  0  1  0  0  0  0  0  0
  192.4020  176.1350  137.8260 C   0  0  2  0  0  3  0  0  0  0  0  0
  191.5650  175.4890  134.3460 O   0  0  0  0  0  0  0  0  0  0  0  0
  188.9150  177.7600  138.5000 C   0  0  2  0  0  3  0  0  0  0  0  0
  187.3370  179.0040  137.4420 N   0  0  0  0  0  0  0  0  0  0  0  0
  191.6490  176.0130  139.1460 C   0  0  0  0  0  2  0  0  0  0  0  0
  193.6490  175.4450  135.3850 N   0  0  0  0  0  0  0  0  0  0  0  0
  190.3380  177.2910  141.8560 C   0  0  0  0  0  2  0  0  0  0  0  0
  189.1240  177.4680  140.9660 C   0  0  0  0  0  2  0  0  0  0  0  0
  189.4260  177.9830  137.1030 C   0  0  1  0  0  3  0  0  0  0  0  0
  190.1330  175.5430  136.8060 C   0  0  0  0  0  2  0  0  0  0  0  0
  191.5640  175.7970  136.6690 N   0  0  0  0  0  0  0  0  0  0  0  0
  189.3200  176.7060  136.2640 C   0  0  0  0  0  2  0  0  0  0  0  0
  183.3320  178.3310  141.0050 C   0  0  0  0  0  3  0  0  0  0  0  0
  184.5710  178.7120  140.8520 N   0  0  0  0  0  0  0  0  0  0  0  0
  182.0960  176.3770  139.9560 C   0  0  0  0  0  1  0  0  0  0  0  0
  182.3890  177.8670  139.9320 C   0  0  1  0  0  3  0  0  0  0  0  0
  180.3230  178.8160  140.6160 O   0  0  0  0  0  0  0  0  0  0  0  0
  181.1820  178.7430  139.7500 C   0  0  0  0  0  0  0  0  0  0  0  0
  181.6710  178.7840  137.3220 C   0  0  0  0  0  1  0  0  0  0  0  0
  181.0470  179.5330  138.4840 C   0  0  0  0  0  3  0  0  0  0  0  0
  181.6950  180.8970  138.6270 C   0  0  0  0  0  1  0  0  0  0  0  0
  195.8390  175.2500  136.3710 C   0  0  0  0  0  2  0  0  0  0  0  0
  196.2620  173.8350  136.1630 C   0  0  0  0  0  3  0  0  0  0  0  0
  195.6510  172.8740  136.7780 N   0  0  0  0  0  0  0  0  0  0  0  0
  196.0160  171.5030  136.6120 C   0  0  0  0  0  0  0  0  0  0  0  0
  196.2190  170.9390  135.0870 S   0  0  0  0  0  0  0  0  0  0  0  0
  195.0200  169.6880  138.1430 C   0  0  0  0  0  0  0  0  0  0  0  0
  193.9540  169.3380  137.2660 N   0  0  0  0  0  1  0  0  0  0  0  0
  196.0360  170.6220  137.7500 N   0  0  0  0  0  2  0  0  0  0  0  0
  195.0910  169.1420  139.2740 O   0  0  0  0  0  0  0  0  0  0  0  0
  1 19  1  0  0  0  0
  2 17  1  1  0  0  0
  2 10  1  0  0  0  0
  2  1  1  0  0  0  0
  3  9  1  0  0  0  0
  4  5  2  0  0  0  0
  5 26  1  0  0  0  0
  6 23  1  0  0  0  0
  7  8  1  0  0  0  0
  8  5  1  0  0  0  0
  9 12  1  1  0  0  0
 10 20  1  1  0  0  0
 11 21  1  0  0  0  0
 11 16  1  0  0  0  0
 13  9  1  0  0  0  0
 13 17  1  1  0  0  0
 14  6  2  0  0  0  0
 15  7  1  1  0  0  0
 15 10  1  0  0  0  0
 16  7  2  0  0  0  0
 18  6  1  0  0  0  0
 18  3  2  0  0  0  0
 20 19  1  0  0  0  0
 21 24  1  6  0  0  0
 21 15  1  0  0  0  0
 23 22  1  0  0  0  0
 23 13  1  0  0  0  0
 24 22  1  0  0  0  0
 26 25  2  0  0  0  0
 28 27  1  1  0  0  0
 28 25  1  0  0  0  0
 30 28  1  0  0  0  0
 30 29  2  0  0  0  0
 31 32  1  0  0  0  0
 32 33  1  0  0  0  0
 32 30  1  0  0  0  0
 34  3  1  0  0  0  0
 35 34  1  0  0  0  0
 35 36  2  0  0  0  0
 37 36  1  0  0  0  0
 37 41  1  0  0  0  0
 38 37  2  0  0  0  0
 39 42  2  0  0  0  0
 40 39  1  0  0  0  0
 41 39  1  0  0  0  0
M  END
>  <MODEL>
5

>  <REMARK>
 VINA RESULT:      -6.8      2.794      4.132
  Name = 
  8 active torsions:
  status: ('A' for Active; 'I' for Inactive)
    1  A    between atoms: C_3  and  C_13
    2  A    between atoms: C_6  and  C_25
    3  A    between atoms: C_8  and  N_33
    4  A    between atoms: C_11  and  C_14
    5  A    between atoms: C_11  and  C_25
    6  A    between atoms: C_13  and  C_15
    7  A    between atoms: N_20  and  C_21
    8  A    between atoms: C_21  and  N_24
                            x       y       z     vdW  Elec       q    Type
                         _______ _______ _______ _____ _____    ______ ____

>  <TORSDO>
F 8

$$$$
=
 OpenBabel10232410233D

 42 45  0  0  1  0  0  0  0  0999 V2000
  188.2430  178.2160  138.6580 C   0  0  0  0  0  2  0  0  0  0  0  0
  187.1090  177.3320  138.1720 C   0  0  2  0  0  3  0  0  0  0  0  0
  182.4770  178.6880  138.9540 C   0  0  0  0  0  0  0  0  0  0  0  0
  189.6620  171.9750  135.1800 O   0  0  0  0  0  0  0  0  0  0  0  0
  190.0730  173.1610  135.0670 C   0  0  0  0  0  0  0  0  0  0  0  0
  182.5370  176.7320  137.5870 C   0  0  0  0  0  0  0  0  0  0  0  0
  188.0510  174.1160  136.2850 C   0  0  0  0  0  0  0  0  0  0  0  0
  189.3040  174.2420  135.5990 N   0  0  0  0  0  2  0  0  0  0  0  0
  183.8480  179.0860  138.4460 C   0  0  1  0  0  3  0  0  0  0  0  0
  187.7490  176.4410  137.1620 C   0  0  2  0  0  3  0  0  0  0  0  0
  186.3060  173.1910  137.2590 N   0  0  0  0  0  2  0  0  0  0  0  0
  184.5080  179.8930  139.3770 O   0  0  0  0  0  1  0  0  0  0  0  0
  184.6840  177.8400  138.1510 C   0  0  2  0  0  3  0  0  0  0  0  0
  181.8800  175.8080  137.0380 O   0  0  0  0  0  0  0  0  0  0  0  0
  187.2690  175.2270  136.8280 C   0  0  2  0  0  3  0  0  0  0  0  0
  187.5020  172.9840  136.5620 N   0  0  0  0  0  0  0  0  0  0  0  0
  186.0370  178.2100  137.5530 C   0  0  0  0  0  2  0  0  0  0  0  0
  181.8890  177.6160  138.5070 N   0  0  0  0  0  0  0  0  0  0  0  0
  189.3070  178.1940  137.5700 C   0  0  0  0  0  2  0  0  0  0  0  0
  189.1230  176.8920  136.8160 C   0  0  0  0  0  2  0  0  0  0  0  0
  185.9890  174.6130  137.3220 C   0  0  1  0  0  3  0  0  0  0  0  0
  184.5200  176.3160  136.1020 C   0  0  0  0  0  2  0  0  0  0  0  0
  183.9290  176.9140  137.2960 N   0  0  0  0  0  0  0  0  0  0  0  0
  184.8430  174.8490  136.3340 C   0  0  0  0  0  2  0  0  0  0  0  0
  192.5200  173.5380  134.9940 C   0  0  0  0  0  3  0  0  0  0  0  0
  191.3350  173.4560  134.4530 N   0  0  0  0  0  0  0  0  0  0  0  0
  194.2440  172.6580  136.6380 C   0  0  0  0  0  1  0  0  0  0  0  0
  192.8790  173.2910  136.4310 C   0  0  1  0  0  3  0  0  0  0  0  0
  191.5280  174.4760  137.9840 O   0  0  0  0  0  0  0  0  0  0  0  0
  192.5720  174.4410  137.3500 C   0  0  0  0  0  0  0  0  0  0  0  0
  193.1230  176.5500  138.5260 C   0  0  0  0  0  1  0  0  0  0  0  0
  193.5710  175.5490  137.4780 C   0  0  0  0  0  3  0  0  0  0  0  0
  193.7760  176.2500  136.1490 C   0  0  0  0  0  1  0  0  0  0  0  0
  181.7540  179.5450  139.9440 C   0  0  0  0  0  2  0  0  0  0  0  0
  181.6630  178.8590  141.2660 C   0  0  0  0  0  3  0  0  0  0  0  0
  181.8170  179.5300  142.3610 N   0  0  0  0  0  0  0  0  0  0  0  0
  181.7390  178.9210  143.6510 C   0  0  0  0  0  0  0  0  0  0  0  0
  180.3210  178.2240  144.0880 S   0  0  0  0  0  0  0  0  0  0  0  0
  184.1980  178.7150  144.3850 C   0  0  0  0  0  0  0  0  0  0  0  0
  184.7010  178.3970  143.0920 N   0  0  0  0  0  1  0  0  0  0  0  0
  182.8230  179.0730  144.5850 N   0  0  0  0  0  2  0  0  0  0  0  0
  184.9830  178.7160  145.3680 O   0  0  0  0  0  0  0  0  0  0  0  0
  2 17  1  6  0  0  0
  2  1  1  0  0  0  0
  3 34  1  0  0  0  0
  5  4  2  0  0  0  0
  5  8  1  0  0  0  0
  6 18  1  0  0  0  0
  7 16  2  0  0  0  0
  8  7  1  0  0  0  0
  9  3  1  0  0  0  0
  9 12  1  1  0  0  0
 10 20  1  1  0  0  0
 10  2  1  0  0  0  0
 11 21  1  0  0  0  0
 13 17  1  6  0  0  0
 13  9  1  0  0  0  0
 14  6  2  0  0  0  0
 15  7  1  1  0  0  0
 15 10  1  0  0  0  0
 15 21  1  0  0  0  0
 16 11  1  0  0  0  0
 18  3  2  0  0  0  0
 19  1  1  0  0  0  0
 20 19  1  0  0  0  0
 21 24  1  6  0  0  0
 22 24  1  0  0  0  0
 22 23  1  0  0  0  0
 23  6  1  0  0  0  0
 23 13  1  0  0  0  0
 25 28  1  0  0  0  0
 26 25  2  0  0  0  0
 26  5  1  0  0  0  0
 28 27  1  6  0  0  0
 28 30  1  0  0  0  0
 30 32  1  0  0  0  0
 30 29  2  0  0  0  0
 32 31  1  0  0  0  0
 33 32  1  0  0  0  0
 34 35  1  0  0  0  0
 35 36  2  0  0  0  0
 36 37  1  0  0  0  0
 37 38  2  0  0  0  0
 37 41  1  0  0  0  0
 39 41  1  0  0  0  0
 39 42  2  0  0  0  0
 40 39  1  0  0  0  0
M  END
>  <MODEL>
6

>  <REMARK>
 VINA RESULT:      -6.8      4.431     10.650
  Name = 
  8 active torsions:
  status: ('A' for Active; 'I' for Inactive)
    1  A    between atoms: C_3  and  C_13
    2  A    between atoms: C_6  and  C_25
    3  A    between atoms: C_8  and  N_33
    4  A    between atoms: C_11  and  C_14
    5  A    between atoms: C_11  and  C_25
    6  A    between atoms: C_13  and  C_15
    7  A    between atoms: N_20  and  C_21
    8  A    between atoms: C_21  and  N_24
                            x       y       z     vdW  Elec       q    Type
                         _______ _______ _______ _____ _____    ______ ____

>  <TORSDO>
F 8

$$$$
=
 OpenBabel10232410233D

 42 45  0  0  1  0  0  0  0  0999 V2000
  187.2630  178.8140  138.9820 C   0  0  0  0  0  2  0  0  0  0  0  0
  187.9210  178.3410  140.2660 C   0  0  2  0  0  3  0  0  0  0  0  0
  185.4180  178.4770  144.4640 C   0  0  0  0  0  0  0  0  0  0  0  0
  194.1170  176.3490  138.9190 O   0  0  0  0  0  0  0  0  0  0  0  0
  193.0910  176.1210  138.2240 C   0  0  0  0  0  0  0  0  0  0  0  0
  187.5190  177.3930  144.7990 C   0  0  0  0  0  0  0  0  0  0  0  0
  191.5170  176.9980  140.0230 C   0  0  0  0  0  0  0  0  0  0  0  0
  191.7920  176.4280  138.7370 N   0  0  0  0  0  2  0  0  0  0  0  0
  185.4330  178.0580  143.0070 C   0  0  1  0  0  3  0  0  0  0  0  0
  189.0800  177.5250  139.8010 C   0  0  2  0  0  3  0  0  0  0  0  0
  191.8500  177.9090  142.0000 N   0  0  0  0  0  2  0  0  0  0  0  0
  184.6710  178.9350  142.2300 O   0  0  0  0  0  1  0  0  0  0  0  0
  186.8710  178.0140  142.4850 C   0  0  2  0  0  3  0  0  0  0  0  0
  188.3360  176.9090  145.6260 O   0  0  0  0  0  0  0  0  0  0  0  0
  190.1840  177.3090  140.5410 C   0  0  2  0  0  3  0  0  0  0  0  0
  192.4340  177.3660  140.8490 N   0  0  0  0  0  0  0  0  0  0  0  0
  186.9220  177.5090  141.0480 C   0  0  0  0  0  2  0  0  0  0  0  0
  186.3790  178.1200  145.2670 N   0  0  0  0  0  0  0  0  0  0  0  0
  187.6980  177.8490  137.8890 C   0  0  0  0  0  2  0  0  0  0  0  0
  189.0200  177.2590  138.3380 C   0  0  0  0  0  2  0  0  0  0  0  0
  190.4010  177.7520  141.9620 C   0  0  1  0  0  3  0  0  0  0  0  0
  188.6080  176.1790  142.8880 C   0  0  0  0  0  2  0  0  0  0  0  0
  187.7130  177.2190  143.3880 N   0  0  0  0  0  0  0  0  0  0  0  0
  190.0560  176.6330  142.9490 C   0  0  0  0  0  2  0  0  0  0  0  0
  192.2540  175.3380  136.0280 C   0  0  0  0  0  3  0  0  0  0  0  0
  193.1970  175.6010  136.8910 N   0  0  0  0  0  0  0  0  0  0  0  0
  190.1580  176.4730  135.1530 C   0  0  0  0  0  1  0  0  0  0  0  0
  190.7790  175.5660  136.2000 C   0  0  1  0  0  3  0  0  0  0  0  0
  190.3640  173.5370  137.3620 O   0  0  0  0  0  0  0  0  0  0  0  0
  189.9940  174.3200  136.5000 C   0  0  0  0  0  0  0  0  0  0  0  0
  187.5180  174.3210  136.5800 C   0  0  0  0  0  1  0  0  0  0  0  0
  188.7410  174.0520  135.7240 C   0  0  0  0  0  3  0  0  0  0  0  0
  188.7130  172.6220  135.2190 C   0  0  0  0  0  1  0  0  0  0  0  0
  184.2760  179.2690  145.0150 C   0  0  0  0  0  2  0  0  0  0  0  0
  182.9820  178.7880  144.4500 C   0  0  0  0  0  3  0  0  0  0  0  0
  182.2050  179.6030  143.8120 N   0  0  0  0  0  0  0  0  0  0  0  0
  180.9580  179.1930  143.2510 C   0  0  0  0  0  0  0  0  0  0  0  0
  180.0510  178.1170  144.0920 S   0  0  0  0  0  0  0  0  0  0  0  0
  181.1100  179.0520  140.6840 C   0  0  0  0  0  0  0  0  0  0  0  0
  181.8530  177.8380  140.6570 N   0  0  0  0  0  1  0  0  0  0  0  0
  180.6040  179.5920  141.9140 N   0  0  0  0  0  2  0  0  0  0  0  0
  180.8620  179.6460  139.6040 O   0  0  0  0  0  0  0  0  0  0  0  0
  2  1  1  6  0  0  0
  2 17  1  0  0  0  0
  3 34  1  0  0  0  0
  3 18  2  0  0  0  0
  5  8  1  0  0  0  0
  5  4  2  0  0  0  0
  6 18  1  0  0  0  0
  6 14  2  0  0  0  0
  7 16  2  0  0  0  0
  8  7  1  0  0  0  0
  9 12  1  6  0  0  0
  9  3  1  0  0  0  0
 10 20  1  6  0  0  0
 10  2  1  0  0  0  0
 10 15  1  0  0  0  0
 13 17  1  6  0  0  0
 13  9  1  0  0  0  0
 13 23  1  0  0  0  0
 15  7  1  6  0  0  0
 15 21  1  0  0  0  0
 16 11  1  0  0  0  0
 19 20  1  0  0  0  0
 19  1  1  0  0  0  0
 21 11  1  0  0  0  0
 21 24  1  1  0  0  0
 22 24  1  0  0  0  0
 22 23  1  0  0  0  0
 23  6  1  0  0  0  0
 25 28  1  0  0  0  0
 25 26  2  0  0  0  0
 26  5  1  0  0  0  0
 28 27  1  6  0  0  0
 28 30  1  0  0  0  0
 30 29  2  0  0  0  0
 32 30  1  0  0  0  0
 32 31  1  0  0  0  0
 33 32  1  0  0  0  0
 35 34  1  0  0  0  0
 36 35  2  0  0  0  0
 37 36  1  0  0  0  0
 37 38  2  0  0  0  0
 39 41  1  0  0  0  0
 40 39  1  0  0  0  0
 41 37  1  0  0  0  0
 42 39  2  0  0  0  0
M  END
>  <MODEL>
7

>  <REMARK>
 VINA RESULT:      -6.8      4.032     11.011
  Name = 
  8 active torsions:
  status: ('A' for Active; 'I' for Inactive)
    1  A    between atoms: C_3  and  C_13
    2  A    between atoms: C_6  and  C_25
    3  A    between atoms: C_8  and  N_33
    4  A    between atoms: C_11  and  C_14
    5  A    between atoms: C_11  and  C_25
    6  A    between atoms: C_13  and  C_15
    7  A    between atoms: N_20  and  C_21
    8  A    between atoms: C_21  and  N_24
                            x       y       z     vdW  Elec       q    Type
                         _______ _______ _______ _____ _____    ______ ____

>  <TORSDO>
F 8

$$$$
=
 OpenBabel10232410233D

 42 45  0  0  1  0  0  0  0  0999 V2000
  185.4500  179.1740  141.4710 C   0  0  0  0  0  2  0  0  0  0  0  0
  186.6300  178.6900  140.6480 C   0  0  2  0  0  3  0  0  0  0  0  0
  191.0140  178.1980  142.7550 C   0  0  0  0  0  0  0  0  0  0  0  0
  184.6160  177.5880  134.4110 O   0  0  0  0  0  0  0  0  0  0  0  0
  183.9900  177.2880  135.4620 C   0  0  0  0  0  0  0  0  0  0  0  0
  191.0820  177.3600  140.5210 C   0  0  0  0  0  0  0  0  0  0  0  0
  185.9800  177.8240  136.9570 C   0  0  0  0  0  0  0  0  0  0  0  0
  184.6310  177.3920  136.7360 N   0  0  0  0  0  2  0  0  0  0  0  0
  189.5310  177.8940  142.8240 C   0  0  1  0  0  3  0  0  0  0  0  0
  186.0040  178.0620  139.4490 C   0  0  2  0  0  3  0  0  0  0  0  0
  187.9940  178.6170  136.5540 N   0  0  0  0  0  2  0  0  0  0  0  0
  188.8970  178.7270  143.7520 O   0  0  0  0  0  1  0  0  0  0  0  0
  188.8910  178.0690  141.4450 C   0  0  2  0  0  3  0  0  0  0  0  0
  191.7950  176.9200  139.5800 O   0  0  0  0  0  0  0  0  0  0  0  0
  186.6300  177.9290  138.2640 C   0  0  2  0  0  3  0  0  0  0  0  0
  186.7570  178.2400  136.0180 N   0  0  0  0  0  0  0  0  0  0  0  0
  187.4170  177.6840  141.4670 C   0  0  0  0  0  2  0  0  0  0  0  0
  191.7020  177.9030  141.6900 N   0  0  0  0  0  0  0  0  0  0  0  0
  184.2460  178.3550  141.0280 C   0  0  0  0  0  2  0  0  0  0  0  0
  184.5330  177.9020  139.6110 C   0  0  0  0  0  2  0  0  0  0  0  0
  188.0610  178.2860  137.9720 C   0  0  1  0  0  3  0  0  0  0  0  0
  188.9910  176.4380  139.4770 C   0  0  0  0  0  2  0  0  0  0  0  0
  189.6510  177.3180  140.4370 N   0  0  0  0  0  0  0  0  0  0  0  0
  188.9730  177.0610  138.0920 C   0  0  0  0  0  2  0  0  0  0  0  0
  181.5610  177.4810  135.9140 C   0  0  0  0  0  3  0  0  0  0  0  0
  182.6130  176.8870  135.4190 N   0  0  0  0  0  0  0  0  0  0  0  0
  180.8110  179.9070  135.8780 C   0  0  0  0  0  1  0  0  0  0  0  0
  181.5200  178.7980  136.6350 C   0  0  1  0  0  3  0  0  0  0  0  0
  180.8990  177.6120  138.5970 O   0  0  0  0  0  0  0  0  0  0  0  0
  181.1530  178.6940  138.0890 C   0  0  0  0  0  0  0  0  0  0  0  0
  182.4320  180.6760  138.8440 C   0  0  0  0  0  1  0  0  0  0  0  0
  181.1060  179.9440  138.9130 C   0  0  0  0  0  3  0  0  0  0  0  0
  180.7650  179.6280  140.3560 C   0  0  0  0  0  1  0  0  0  0  0  0
  191.7240  178.7980  143.9270 C   0  0  0  0  0  2  0  0  0  0  0  0
  191.2090  178.2220  145.2040 C   0  0  0  0  0  3  0  0  0  0  0  0
  191.6860  177.1070  145.6550 N   0  0  0  0  0  0  0  0  0  0  0  0
  191.2290  176.5140  146.8720 C   0  0  0  0  0  0  0  0  0  0  0  0
  192.3360  175.7860  147.8370 S   0  0  0  0  0  0  0  0  0  0  0  0
  189.0410  177.2730  147.9970 C   0  0  0  0  0  0  0  0  0  0  0  0
  189.5580  178.5050  148.4870 N   0  0  0  0  0  1  0  0  0  0  0  0
  189.8180  176.4220  147.1420 N   0  0  0  0  0  2  0  0  0  0  0  0
  187.8650  176.9380  148.2920 O   0  0  0  0  0  0  0  0  0  0  0  0
  2 17  1  1  0  0  0
  2  1  1  0  0  0  0
  3  9  1  0  0  0  0
  3 34  1  0  0  0  0
  4  5  2  0  0  0  0
  5  8  1  0  0  0  0
  6 18  1  0  0  0  0
  8  7  1  0  0  0  0
  9 12  1  1  0  0  0
 10 20  1  6  0  0  0
 10  2  1  0  0  0  0
 11 21  1  0  0  0  0
 13 17  1  1  0  0  0
 13  9  1  0  0  0  0
 14  6  2  0  0  0  0
 15  7  1  6  0  0  0
 15 10  1  0  0  0  0
 16 11  1  0  0  0  0
 16  7  2  0  0  0  0
 18  3  2  0  0  0  0
 19  1  1  0  0  0  0
 20 19  1  0  0  0  0
 21 24  1  6  0  0  0
 21 15  1  0  0  0  0
 22 23  1  0  0  0  0
 23  6  1  0  0  0  0
 23 13  1  0  0  0  0
 24 22  1  0  0  0  0
 25 28  1  0  0  0  0
 26  5  1  0  0  0  0
 26 25  2  0  0  0  0
 28 27  1  6  0  0  0
 28 30  1  0  0  0  0
 30 29  2  0  0  0  0
 30 32  1  0  0  0  0
 31 32  1  0  0  0  0
 32 33  1  0  0  0  0
 34 35  1  0  0  0  0
 35 36  2  0  0  0  0
 36 37  1  0  0  0  0
 37 41  1  0  0  0  0
 37 38  2  0  0  0  0
 39 42  2  0  0  0  0
 39 40  1  0  0  0  0
 41 39  1  0  0  0  0
M  END
>  <MODEL>
8

>  <REMARK>
 VINA RESULT:      -6.8      4.496      7.503
  Name = 
  8 active torsions:
  status: ('A' for Active; 'I' for Inactive)
    1  A    between atoms: C_3  and  C_13
    2  A    between atoms: C_6  and  C_25
    3  A    between atoms: C_8  and  N_33
    4  A    between atoms: C_11  and  C_14
    5  A    between atoms: C_11  and  C_25
    6  A    between atoms: C_13  and  C_15
    7  A    between atoms: N_20  and  C_21
    8  A    between atoms: C_21  and  N_24
                            x       y       z     vdW  Elec       q    Type
                         _______ _______ _______ _____ _____    ______ ____

>  <TORSDO>
F 8

$$$$
=
 OpenBabel10232410233D

 42 45  0  0  1  0  0  0  0  0999 V2000
  187.2620  174.2020  136.3300 C   0  0  0  0  0  2  0  0  0  0  0  0
  188.3590  174.9590  137.0550 C   0  0  2  0  0  3  0  0  0  0  0  0
  193.0390  173.7660  136.2880 C   0  0  0  0  0  0  0  0  0  0  0  0
  185.5980  179.5920  140.9380 O   0  0  0  0  0  0  0  0  0  0  0  0
  185.2480  179.2950  139.7650 C   0  0  0  0  0  0  0  0  0  0  0  0
  192.9060  175.7160  137.6580 C   0  0  0  0  0  0  0  0  0  0  0  0
  187.2930  177.8260  139.3860 C   0  0  0  0  0  0  0  0  0  0  0  0
  186.0600  178.4270  138.9700 N   0  0  0  0  0  2  0  0  0  0  0  0
  191.6980  174.1080  135.6700 C   0  0  1  0  0  3  0  0  0  0  0  0
  187.6940  176.2120  137.5160 C   0  0  2  0  0  3  0  0  0  0  0  0
  188.9740  177.2260  140.6760 N   0  0  0  0  0  2  0  0  0  0  0  0
  191.0620  172.9580  135.1940 O   0  0  0  0  0  1  0  0  0  0  0  0
  190.8060  174.8090  136.6970 C   0  0  2  0  0  3  0  0  0  0  0  0
  193.5260  176.5470  138.3740 O   0  0  0  0  0  0  0  0  0  0  0  0
  188.1190  176.9380  138.5670 C   0  0  2  0  0  3  0  0  0  0  0  0
  187.7810  177.9510  140.5720 N   0  0  0  0  0  0  0  0  0  0  0  0
  189.4840  175.2440  136.0760 C   0  0  0  0  0  2  0  0  0  0  0  0
  193.5800  174.5510  137.1740 N   0  0  0  0  0  0  0  0  0  0  0  0
  186.2170  175.2320  135.9260 C   0  0  0  0  0  2  0  0  0  0  0  0
  186.3500  176.3830  136.9030 C   0  0  0  0  0  2  0  0  0  0  0  0
  189.3590  176.6830  139.3790 C   0  0  1  0  0  3  0  0  0  0  0  0
  190.9310  177.2530  137.4420 C   0  0  0  0  0  2  0  0  0  0  0  0
  191.5290  175.9270  137.3150 N   0  0  0  0  0  0  0  0  0  0  0  0
  190.5320  177.5330  138.8810 C   0  0  0  0  0  2  0  0  0  0  0  0
  182.7930  179.3630  139.4370 C   0  0  0  0  0  3  0  0  0  0  0  0
  184.0120  179.7720  139.2140 N   0  0  0  0  0  0  0  0  0  0  0  0
  182.0100  178.7860  141.7830 C   0  0  0  0  0  1  0  0  0  0  0  0
  182.3600  178.2870  140.3920 C   0  0  1  0  0  3  0  0  0  0  0  0
  180.2480  177.6470  139.5150 O   0  0  0  0  0  0  0  0  0  0  0  0
  181.3820  177.3040  139.8110 C   0  0  0  0  0  0  0  0  0  0  0  0
  182.9870  175.8370  138.6240 C   0  0  0  0  0  1  0  0  0  0  0  0
  181.8240  175.8890  139.5960 C   0  0  0  0  0  3  0  0  0  0  0  0
  180.6790  175.0390  139.0760 C   0  0  0  0  0  1  0  0  0  0  0  0
  193.7850  172.5440  135.8560 C   0  0  0  0  0  2  0  0  0  0  0  0
  195.2370  172.8470  135.6910 C   0  0  0  0  0  3  0  0  0  0  0  0
  196.1210  172.2000  136.3800 N   0  0  0  0  0  0  0  0  0  0  0  0
  197.5220  172.4510  136.2580 C   0  0  0  0  0  0  0  0  0  0  0  0
  198.2920  171.8900  134.9250 S   0  0  0  0  0  0  0  0  0  0  0  0
  198.4020  174.4260  137.6570 C   0  0  0  0  0  0  0  0  0  0  0  0
  197.6060  175.4150  137.0150 N   0  0  0  0  0  1  0  0  0  0  0  0
  198.2470  173.0310  137.3580 N   0  0  0  0  0  2  0  0  0  0  0  0
  199.2360  174.7780  138.5310 O   0  0  0  0  0  0  0  0  0  0  0  0
  1  2  1  0  0  0  0
  2 17  1  6  0  0  0
  2 10  1  0  0  0  0
  3 18  2  0  0  0  0
  5  4  2  0  0  0  0
  6 14  2  0  0  0  0
  7 16  2  0  0  0  0
  8  7  1  0  0  0  0
  8  5  1  0  0  0  0
  9 12  1  1  0  0  0
  9  3  1  0  0  0  0
  9 13  1  0  0  0  0
 10 20  1  1  0  0  0
 10 15  1  0  0  0  0
 13 17  1  6  0  0  0
 13 23  1  0  0  0  0
 15 21  1  0  0  0  0
 15  7  1  1  0  0  0
 16 11  1  0  0  0  0
 18  6  1  0  0  0  0
 19  1  1  0  0  0  0
 19 20  1  0  0  0  0
 21 24  1  6  0  0  0
 21 11  1  0  0  0  0
 22 24  1  0  0  0  0
 23 22  1  0  0  0  0
 23  6  1  0  0  0  0
 25 28  1  0  0  0  0
 26 25  2  0  0  0  0
 26  5  1  0  0  0  0
 28 27  1  1  0  0  0
 29 30  2  0  0  0  0
 30 28  1  0  0  0  0
 31 32  1  0  0  0  0
 32 30  1  0  0  0  0
 33 32  1  0  0  0  0
 34  3  1  0  0  0  0
 35 34  1  0  0  0  0
 35 36  2  0  0  0  0
 37 36  1  0  0  0  0
 37 41  1  0  0  0  0
 38 37  2  0  0  0  0
 39 42  2  0  0  0  0
 40 39  1  0  0  0  0
 41 39  1  0  0  0  0
M  END
>  <MODEL>
9

>  <REMARK>
 VINA RESULT:      -6.7      2.744      4.362
  Name = 
  8 active torsions:
  status: ('A' for Active; 'I' for Inactive)
    1  A    between atoms: C_3  and  C_13
    2  A    between atoms: C_6  and  C_25
    3  A    between atoms: C_8  and  N_33
    4  A    between atoms: C_11  and  C_14
    5  A    between atoms: C_11  and  C_25
    6  A    between atoms: C_13  and  C_15
    7  A    between atoms: N_20  and  C_21
    8  A    between atoms: C_21  and  N_24
                            x       y       z     vdW  Elec       q    Type
                         _______ _______ _______ _____ _____    ______ ____

>  <TORSDO>
F 8

$$$$
