=
 OpenBabel10232410363D

 50 51  0  0  1  0  0  0  0  0999 V2000
  185.1700  179.2120  142.0860 C   0  0  1  0  0  3  0  0  0  0  0  0
  184.6550  179.3110  143.5330 C   0  0  1  0  0  3  0  0  0  0  0  0
  183.1320  179.3340  143.6030 C   0  0  0  0  0  1  0  0  0  0  0  0
  185.1320  178.1210  144.3630 C   0  0  0  0  0  2  0  0  0  0  0  0
  185.6570  179.8710  145.8900 F   0  0  0  0  0  0  0  0  0  0  0  0
  184.9380  177.9090  146.7420 F   0  0  0  0  0  0  0  0  0  0  0  0
  185.6850  178.4980  145.7350 C   0  0  0  0  0  0  0  0  0  0  0  0
  187.1320  178.0430  145.8430 C   0  0  0  0  0  2  0  0  0  0  0  0
  187.5330  177.9130  147.2370 N   0  0  0  0  0  2  0  0  0  0  0  0
  188.4710  176.8770  147.2930 N   0  0  0  0  0  2  0  0  0  0  0  0
  189.7770  177.4950  147.4390 C   0  0  0  0  0  2  0  0  0  0  0  0
  191.9180  176.9620  146.5630 O   0  0  0  0  0  0  0  0  0  0  0  0
  190.6790  177.0450  146.3500 C   0  0  0  0  0  0  0  0  0  0  0  0
  190.1360  176.7150  145.0700 N   0  0  0  0  0  2  0  0  0  0  0  0
  190.1880  175.4100  142.7800 O   0  0  0  0  0  0  0  0  0  0  0  0
  191.0990  176.0420  143.7950 S   0  0  0  0  0  0  0  0  0  0  0  0
  192.1890  174.8010  144.4600 C   0  0  0  0  0  1  0  0  0  0  0  0
  191.9060  177.1280  143.1260 O   0  0  0  0  0  0  0  0  0  0  0  0
  186.2880  178.1730  141.9610 C   0  0  0  0  0  2  0  0  0  0  0  0
  187.6200  178.8330  141.6530 C   0  0  0  0  0  2  0  0  0  0  0  0
  188.5700  177.8040  141.0560 C   0  0  0  0  0  2  0  0  0  0  0  0
  188.4440  177.7700  139.5640 C   0  0  0  0  0  3  0  0  0  0  0  0
  188.9960  178.7110  138.7990 C   0  0  0  0  0  3  0  0  0  0  0  0
  188.8410  178.6550  137.3170 C   0  0  0  0  0  2  0  0  0  0  0  0
  189.6120  177.4820  136.7340 C   0  0  0  0  0  2  0  0  0  0  0  0
  189.3670  177.3500  135.2380 C   0  0  0  0  0  2  0  0  0  0  0  0
  188.4860  176.1490  134.9410 C   0  0  0  0  0  2  0  0  0  0  0  0
  188.8020  173.6740  135.0600 C   0  0  0  0  0  0  0  0  0  0  0  0
  189.9020  172.6740  135.1560 C   0  0  0  0  0  3  0  0  0  0  0  0
  190.6770  174.8800  135.0080 O   0  0  0  0  0  0  0  0  0  0  0  0
  191.1620  173.5470  135.0970 C   0  0  0  0  0  3  0  0  0  0  0  0
  189.2940  174.8950  135.0030 C   0  0  0  0  0  0  0  0  0  0  0  0
  187.3510  173.3380  135.1490 C   0  0  0  0  0  2  0  0  0  0  0  0
  187.0690  172.6690  136.4110 N   0  0  0  0  0  2  0  0  0  0  0  0
  185.6760  172.2580  136.3700 C   0  0  0  0  0  2  0  0  0  0  0  0
  184.7970  173.4170  135.9200 C   0  0  0  0  0  2  0  0  0  0  0  0
  184.3000  174.1840  137.1340 C   0  0  0  0  0  2  0  0  0  0  0  0
  185.4730  177.2900  136.6530 C   0  0  0  0  0  2  0  0  0  0  0  0
  184.2670  175.7130  135.3520 C   0  0  0  0  0  2  0  0  0  0  0  0
  183.8430  175.5080  136.7340 N   0  0  0  0  0  0  0  0  0  0  0  0
  184.5590  176.4840  137.5520 C   0  0  0  0  0  2  0  0  0  0  0  0
  184.9390  177.0620  135.2690 C   0  0  0  0  0  2  0  0  0  0  0  0
  184.0880  178.8380  141.2370 O   0  0  0  0  0  0  0  0  0  0  0  0
  184.9400  179.8060  139.3140 O   0  0  0  0  0  0  0  0  0  0  0  0
  183.9650  179.2810  139.9180 C   0  0  0  0  0  0  0  0  0  0  0  0
  182.6510  179.1520  139.2320 C   0  0  0  0  0  2  0  0  0  0  0  0
  182.1600  180.5170  138.7920 C   0  0  0  0  0  2  0  0  0  0  0  0
  180.2610  179.4200  137.8840 O   0  0  0  0  0  1  0  0  0  0  0  0
  180.9770  181.2660  136.7340 O   0  0  0  0  0  0  0  0  0  0  0  0
  181.0760  180.3700  137.7880 C   0  0  0  0  0  0  0  0  0  0  0  0
  1 19  1  1  0  0  0
  1  2  1  0  0  0  0
  2  3  1  6  0  0  0
  2  4  1  0  0  0  0
  4  7  1  0  0  0  0
  7  8  1  0  0  0  0
  7  5  1  0  0  0  0
  7  6  1  0  0  0  0
  8  9  1  0  0  0  0
  9 10  1  0  0  0  0
 10 11  1  0  0  0  0
 13 12  2  0  0  0  0
 13 11  1  0  0  0  0
 14 13  1  0  0  0  0
 15 16  2  0  0  0  0
 16 17  1  0  0  0  0
 16 14  1  0  0  0  0
 18 16  2  0  0  0  0
 20 19  1  0  0  0  0
 21 20  1  0  0  0  0
 22 21  1  0  0  0  0
 23 22  2  0  0  0  0
 24 23  1  0  0  0  0
 25 24  1  0  0  0  0
 26 25  1  0  0  0  0
 27 32  1  0  0  0  0
 27 26  1  0  0  0  0
 28 33  1  0  0  0  0
 28 29  1  0  0  0  0
 30 31  1  0  0  0  0
 31 29  2  0  0  0  0
 32 30  1  0  0  0  0
 32 28  2  0  0  0  0
 33 34  1  0  0  0  0
 35 34  1  0  0  0  0
 36 35  1  0  0  0  0
 36 37  1  0  0  0  0
 38 41  1  0  0  0  0
 39 40  1  0  0  0  0
 40 37  1  0  0  0  0
 40 41  1  0  0  0  0
 42 39  1  0  0  0  0
 42 38  1  0  0  0  0
 43  1  1  0  0  0  0
 44 45  2  0  0  0  0
 45 43  1  0  0  0  0
 46 45  1  0  0  0  0
 47 46  1  0  0  0  0
 49 50  2  0  0  0  0
 50 48  1  0  0  0  0
 50 47  1  0  0  0  0
M  END
>  <MODEL>
1

>  <REMARK>
 VINA RESULT:      -5.8      0.000      0.000
  Name = 
  29 active torsions:
  status: ('A' for Active; 'I' for Inactive)
    1  A    between atoms: C_2  and  N_22
    2  A    between atoms: C_2  and  C_46
    3  A    between atoms: N_3  and  C_10
    4  A    between atoms: N_3  and  N_27
    5  A    between atoms: C_5  and  C_14
    6  A    between atoms: C_10  and  C_50
    7  A    between atoms: C_11  and  C_30
    8  A    between atoms: C_11  and  C_41
    9  A    between atoms: C_12  and  C_20
   10  A    between atoms: C_13  and  C_17
   11  A    between atoms: C_13  and  C_47
   12  A    between atoms: C_14  and  C_48
   13  A    between atoms: C_15  and  C_30
   14  A    between atoms: C_15  and  C_35
   15  A    between atoms: C_17  and  C_36
   16  A    between atoms: O_18  and  C_19
   17  A    between atoms: O_18  and  C_36
   18  A    between atoms: C_19  and  C_21
   19  A    between atoms: C_19  and  C_28
   20  A    between atoms: C_20  and  N_22
   21  A    between atoms: C_21  and  C_43
   22  A    between atoms: C_26  and  N_29
   23  A    between atoms: C_26  and  C_46
   24  A    between atoms: N_27  and  C_37
   25  A    between atoms: C_28  and  C_48
   26  A    between atoms: C_32  and  C_35
   27  A    between atoms: S_33  and  N_44
   28  A    between atoms: C_37  and  C_42
   29  A    between atoms: C_43  and  C_50
                            x       y       z     vdW  Elec       q    Type
                         _______ _______ _______ _____ _____    ______ ____

>  <TORSDO>
F 29

$$$$
=
 OpenBabel10232410363D

 50 51  0  0  1  0  0  0  0  0999 V2000
  187.1690  177.5300  145.5940 C   0  0  1  0  0  3  0  0  0  0  0  0
  185.7080  177.9820  145.4220 C   0  0  1  0  0  3  0  0  0  0  0  0
  185.0510  178.3290  146.7520 C   0  0  0  0  0  1  0  0  0  0  0  0
  185.6240  179.2230  144.5340 C   0  0  0  0  0  2  0  0  0  0  0  0
  183.9350  177.9070  143.4900 F   0  0  0  0  0  0  0  0  0  0  0  0
  183.5930  180.1330  143.6450 F   0  0  0  0  0  0  0  0  0  0  0  0
  184.5470  179.1470  143.4550 C   0  0  0  0  0  0  0  0  0  0  0  0
  185.1860  179.3150  142.0840 C   0  0  0  0  0  2  0  0  0  0  0  0
  184.2350  179.0040  141.0270 N   0  0  0  0  0  2  0  0  0  0  0  0
  184.7030  179.6280  139.8660 N   0  0  0  0  0  2  0  0  0  0  0  0
  184.7580  178.6130  138.8300 C   0  0  0  0  0  2  0  0  0  0  0  0
  182.5460  179.0190  138.0690 O   0  0  0  0  0  0  0  0  0  0  0  0
  183.3860  178.1720  138.4740 C   0  0  0  0  0  0  0  0  0  0  0  0
  183.0300  176.7930  138.5970 N   0  0  0  0  0  2  0  0  0  0  0  0
  181.5320  174.6730  138.1360 O   0  0  0  0  0  0  0  0  0  0  0  0
  181.5010  176.1750  138.0620 S   0  0  0  0  0  0  0  0  0  0  0  0
  181.2100  176.6740  136.3770 C   0  0  0  0  0  1  0  0  0  0  0  0
  180.3940  176.6900  138.9480 O   0  0  0  0  0  0  0  0  0  0  0  0
  188.0090  177.8730  144.3610 C   0  0  0  0  0  2  0  0  0  0  0  0
  188.6340  176.6290  143.7570 C   0  0  0  0  0  2  0  0  0  0  0  0
  189.8440  177.0220  142.9210 C   0  0  0  0  0  2  0  0  0  0  0  0
  189.5160  176.9770  141.4610 C   0  0  0  0  0  3  0  0  0  0  0  0
  188.5990  177.7850  140.9300 C   0  0  0  0  0  3  0  0  0  0  0  0
  188.2870  177.7060  139.4740 C   0  0  0  0  0  2  0  0  0  0  0  0
  189.2860  178.5120  138.6590 C   0  0  0  0  0  2  0  0  0  0  0  0
  189.7230  177.7530  137.4160 C   0  0  0  0  0  2  0  0  0  0  0  0
  190.8750  176.8150  137.7350 C   0  0  0  0  0  2  0  0  0  0  0  0
  191.3740  174.7560  136.4110 C   0  0  0  0  0  0  0  0  0  0  0  0
  190.7390  173.4580  136.0490 C   0  0  0  0  0  3  0  0  0  0  0  0
  189.4240  174.7520  137.4940 O   0  0  0  0  0  0  0  0  0  0  0  0
  189.4180  173.4960  136.8290 C   0  0  0  0  0  3  0  0  0  0  0  0
  190.5820  175.4500  137.2040 C   0  0  0  0  0  0  0  0  0  0  0  0
  192.6640  175.2460  135.8460 C   0  0  0  0  0  2  0  0  0  0  0  0
  193.7580  174.9400  136.7560 N   0  0  0  0  0  2  0  0  0  0  0  0
  194.3190  173.6680  136.3320 C   0  0  0  0  0  2  0  0  0  0  0  0
  195.3280  173.1700  137.3550 C   0  0  0  0  0  2  0  0  0  0  0  0
  196.2300  172.1260  136.7180 C   0  0  0  0  0  2  0  0  0  0  0  0
  195.9940  168.8380  137.3410 C   0  0  0  0  0  2  0  0  0  0  0  0
  197.7670  170.4060  137.1610 C   0  0  0  0  0  2  0  0  0  0  0  0
  196.6310  171.1390  137.7130 N   0  0  0  0  0  0  0  0  0  0  0  0
  195.5320  170.1860  137.8510 C   0  0  0  0  0  2  0  0  0  0  0  0
  197.4920  168.9310  137.3300 C   0  0  0  0  0  2  0  0  0  0  0  0
  187.7210  178.1840  146.7330 O   0  0  0  0  0  0  0  0  0  0  0  0
  188.0790  177.7250  148.9740 O   0  0  0  0  0  0  0  0  0  0  0  0
  188.3650  177.5010  147.7670 C   0  0  0  0  0  0  0  0  0  0  0  0
  189.4250  176.5120  147.4290 C   0  0  0  0  0  2  0  0  0  0  0  0
  190.7820  177.1890  147.4220 C   0  0  0  0  0  2  0  0  0  0  0  0
  191.8970  176.0650  145.6540 O   0  0  0  0  0  0  0  0  0  0  0  0
  192.6640  175.5950  147.7600 O   0  0  0  0  0  1  0  0  0  0  0  0
  191.8120  176.2610  146.8910 C   0  0  0  0  0  0  0  0  0  0  0  0
  1 19  1  6  0  0  0
  1 43  1  0  0  0  0
  2  1  1  0  0  0  0
  2  3  1  1  0  0  0
  4  2  1  0  0  0  0
  7  5  1  0  0  0  0
  7  6  1  0  0  0  0
  7  4  1  0  0  0  0
  8  7  1  0  0  0  0
  9  8  1  0  0  0  0
 10  9  1  0  0  0  0
 11 10  1  0  0  0  0
 12 13  2  0  0  0  0
 13 14  1  0  0  0  0
 13 11  1  0  0  0  0
 16 15  2  0  0  0  0
 16 14  1  0  0  0  0
 16 18  2  0  0  0  0
 17 16  1  0  0  0  0
 20 19  1  0  0  0  0
 21 20  1  0  0  0  0
 22 21  1  0  0  0  0
 23 22  2  0  0  0  0
 24 23  1  0  0  0  0
 25 24  1  0  0  0  0
 26 27  1  0  0  0  0
 26 25  1  0  0  0  0
 28 32  2  0  0  0  0
 29 28  1  0  0  0  0
 29 31  2  0  0  0  0
 31 30  1  0  0  0  0
 32 30  1  0  0  0  0
 32 27  1  0  0  0  0
 33 28  1  0  0  0  0
 33 34  1  0  0  0  0
 35 34  1  0  0  0  0
 35 36  1  0  0  0  0
 37 36  1  0  0  0  0
 37 40  1  0  0  0  0
 38 41  1  0  0  0  0
 39 42  1  0  0  0  0
 39 40  1  0  0  0  0
 40 41  1  0  0  0  0
 42 38  1  0  0  0  0
 43 45  1  0  0  0  0
 45 44  2  0  0  0  0
 46 45  1  0  0  0  0
 47 46  1  0  0  0  0
 48 50  2  0  0  0  0
 50 47  1  0  0  0  0
 50 49  1  0  0  0  0
M  END
>  <MODEL>
2

>  <REMARK>
 VINA RESULT:      -5.7      3.980      8.913
  Name = 
  29 active torsions:
  status: ('A' for Active; 'I' for Inactive)
    1  A    between atoms: C_2  and  N_22
    2  A    between atoms: C_2  and  C_46
    3  A    between atoms: N_3  and  C_10
    4  A    between atoms: N_3  and  N_27
    5  A    between atoms: C_5  and  C_14
    6  A    between atoms: C_10  and  C_50
    7  A    between atoms: C_11  and  C_30
    8  A    between atoms: C_11  and  C_41
    9  A    between atoms: C_12  and  C_20
   10  A    between atoms: C_13  and  C_17
   11  A    between atoms: C_13  and  C_47
   12  A    between atoms: C_14  and  C_48
   13  A    between atoms: C_15  and  C_30
   14  A    between atoms: C_15  and  C_35
   15  A    between atoms: C_17  and  C_36
   16  A    between atoms: O_18  and  C_19
   17  A    between atoms: O_18  and  C_36
   18  A    between atoms: C_19  and  C_21
   19  A    between atoms: C_19  and  C_28
   20  A    between atoms: C_20  and  N_22
   21  A    between atoms: C_21  and  C_43
   22  A    between atoms: C_26  and  N_29
   23  A    between atoms: C_26  and  C_46
   24  A    between atoms: N_27  and  C_37
   25  A    between atoms: C_28  and  C_48
   26  A    between atoms: C_32  and  C_35
   27  A    between atoms: S_33  and  N_44
   28  A    between atoms: C_37  and  C_42
   29  A    between atoms: C_43  and  C_50
                            x       y       z     vdW  Elec       q    Type
                         _______ _______ _______ _____ _____    ______ ____

>  <TORSDO>
F 29

$$$$
=
 OpenBabel10232410363D

 50 51  0  0  1  0  0  0  0  0999 V2000
  186.6340  178.7100  141.7090 C   0  0  1  0  0  3  0  0  0  0  0  0
  186.4610  177.8080  142.9440 C   0  0  1  0  0  3  0  0  0  0  0  0
  187.5390  176.7330  143.0280 C   0  0  0  0  0  1  0  0  0  0  0  0
  186.5340  178.6280  144.2310 C   0  0  0  0  0  2  0  0  0  0  0  0
  184.8470  180.1750  144.8920 F   0  0  0  0  0  0  0  0  0  0  0  0
  184.1970  178.1020  144.2820 F   0  0  0  0  0  0  0  0  0  0  0  0
  185.1850  178.8350  144.9160 C   0  0  0  0  0  0  0  0  0  0  0  0
  185.2830  178.4030  146.3720 C   0  0  0  0  0  2  0  0  0  0  0  0
  186.3730  177.4580  146.5610 N   0  0  0  0  0  2  0  0  0  0  0  0
  187.3470  178.1120  147.3230 N   0  0  0  0  0  2  0  0  0  0  0  0
  188.2780  177.0970  147.7840 C   0  0  0  0  0  2  0  0  0  0  0  0
  190.4990  176.4210  147.2860 O   0  0  0  0  0  0  0  0  0  0  0  0
  189.4970  177.1010  146.9370 C   0  0  0  0  0  0  0  0  0  0  0  0
  189.5260  177.8780  145.7380 N   0  0  0  0  0  2  0  0  0  0  0  0
  190.6610  178.8950  143.5870 O   0  0  0  0  0  0  0  0  0  0  0  0
  190.8510  177.8200  144.6210 S   0  0  0  0  0  0  0  0  0  0  0  0
  190.8860  176.2310  143.8180 C   0  0  0  0  0  1  0  0  0  0  0  0
  192.1510  178.0570  145.3480 O   0  0  0  0  0  0  0  0  0  0  0  0
  188.0930  178.7540  141.2480 C   0  0  0  0  0  2  0  0  0  0  0  0
  188.2350  178.2590  139.8210 C   0  0  0  0  0  2  0  0  0  0  0  0
  189.6400  177.7120  139.6100 C   0  0  0  0  0  2  0  0  0  0  0  0
  189.8850  177.4240  138.1610 C   0  0  0  0  0  3  0  0  0  0  0  0
  189.2440  178.0920  137.2030 C   0  0  0  0  0  3  0  0  0  0  0  0
  189.5010  177.7720  135.7690 C   0  0  0  0  0  2  0  0  0  0  0  0
  188.5020  176.7500  135.2530 C   0  0  0  0  0  2  0  0  0  0  0  0
  187.0900  177.0740  135.7190 C   0  0  0  0  0  2  0  0  0  0  0  0
  186.0970  176.0660  135.1680 C   0  0  0  0  0  2  0  0  0  0  0  0
  184.9650  174.5180  136.7690 C   0  0  0  0  0  0  0  0  0  0  0  0
  183.8390  174.5190  137.7450 C   0  0  0  0  0  3  0  0  0  0  0  0
  184.1850  176.6070  136.7390 O   0  0  0  0  0  0  0  0  0  0  0  0
  183.3520  175.9730  137.7010 C   0  0  0  0  0  3  0  0  0  0  0  0
  185.0980  175.7080  136.2190 C   0  0  0  0  0  0  0  0  0  0  0  0
  185.7390  173.3030  136.3810 C   0  0  0  0  0  2  0  0  0  0  0  0
  186.5300  172.8320  137.5090 N   0  0  0  0  0  2  0  0  0  0  0  0
  187.7600  172.2840  136.9640 C   0  0  0  0  0  2  0  0  0  0  0  0
  188.7940  173.3860  136.7830 C   0  0  0  0  0  2  0  0  0  0  0  0
  189.5790  173.1460  135.5040 C   0  0  0  0  0  2  0  0  0  0  0  0
  192.1320  175.3180  135.3690 C   0  0  0  0  0  2  0  0  0  0  0  0
  191.1720  173.9310  137.0390 C   0  0  0  0  0  2  0  0  0  0  0  0
  191.0080  173.2180  135.7760 N   0  0  0  0  0  0  0  0  0  0  0  0
  191.6110  174.0460  134.7340 C   0  0  0  0  0  2  0  0  0  0  0  0
  192.2160  175.0020  136.8340 C   0  0  0  0  0  2  0  0  0  0  0  0
  185.8250  178.2010  140.6520 O   0  0  0  0  0  0  0  0  0  0  0  0
  184.4620  179.8620  139.7890 O   0  0  0  0  0  0  0  0  0  0  0  0
  184.5720  178.7280  140.3290 C   0  0  0  0  0  0  0  0  0  0  0  0
  183.3510  177.9420  140.6560 C   0  0  0  0  0  2  0  0  0  0  0  0
  182.4900  178.7100  141.6400 C   0  0  0  0  0  2  0  0  0  0  0  0
  180.2180  178.0640  141.4040 O   0  0  0  0  0  1  0  0  0  0  0  0
  180.8410  179.9250  140.2230 O   0  0  0  0  0  0  0  0  0  0  0  0
  181.1190  178.8800  141.0930 C   0  0  0  0  0  0  0  0  0  0  0  0
  1 19  1  6  0  0  0
  1  2  1  0  0  0  0
  2  3  1  1  0  0  0
  2  4  1  0  0  0  0
  4  7  1  0  0  0  0
  5  7  1  0  0  0  0
  6  7  1  0  0  0  0
  7  8  1  0  0  0  0
  8  9  1  0  0  0  0
  9 10  1  0  0  0  0
 10 11  1  0  0  0  0
 13 12  2  0  0  0  0
 13 11  1  0  0  0  0
 14 13  1  0  0  0  0
 15 16  2  0  0  0  0
 16 18  2  0  0  0  0
 16 14  1  0  0  0  0
 17 16  1  0  0  0  0
 20 19  1  0  0  0  0
 21 20  1  0  0  0  0
 22 21  1  0  0  0  0
 23 22  2  0  0  0  0
 24 23  1  0  0  0  0
 25 26  1  0  0  0  0
 25 24  1  0  0  0  0
 27 26  1  0  0  0  0
 27 32  1  0  0  0  0
 28 29  1  0  0  0  0
 30 31  1  0  0  0  0
 31 29  2  0  0  0  0
 32 30  1  0  0  0  0
 32 28  2  0  0  0  0
 33 28  1  0  0  0  0
 33 34  1  0  0  0  0
 35 34  1  0  0  0  0
 36 35  1  0  0  0  0
 37 40  1  0  0  0  0
 37 36  1  0  0  0  0
 38 42  1  0  0  0  0
 40 39  1  0  0  0  0
 41 38  1  0  0  0  0
 41 40  1  0  0  0  0
 42 39  1  0  0  0  0
 43  1  1  0  0  0  0
 44 45  2  0  0  0  0
 45 43  1  0  0  0  0
 45 46  1  0  0  0  0
 46 47  1  0  0  0  0
 49 50  2  0  0  0  0
 50 48  1  0  0  0  0
 50 47  1  0  0  0  0
M  END
>  <MODEL>
3

>  <REMARK>
 VINA RESULT:      -5.7      2.007      3.848
  Name = 
  29 active torsions:
  status: ('A' for Active; 'I' for Inactive)
    1  A    between atoms: C_2  and  N_22
    2  A    between atoms: C_2  and  C_46
    3  A    between atoms: N_3  and  C_10
    4  A    between atoms: N_3  and  N_27
    5  A    between atoms: C_5  and  C_14
    6  A    between atoms: C_10  and  C_50
    7  A    between atoms: C_11  and  C_30
    8  A    between atoms: C_11  and  C_41
    9  A    between atoms: C_12  and  C_20
   10  A    between atoms: C_13  and  C_17
   11  A    between atoms: C_13  and  C_47
   12  A    between atoms: C_14  and  C_48
   13  A    between atoms: C_15  and  C_30
   14  A    between atoms: C_15  and  C_35
   15  A    between atoms: C_17  and  C_36
   16  A    between atoms: O_18  and  C_19
   17  A    between atoms: O_18  and  C_36
   18  A    between atoms: C_19  and  C_21
   19  A    between atoms: C_19  and  C_28
   20  A    between atoms: C_20  and  N_22
   21  A    between atoms: C_21  and  C_43
   22  A    between atoms: C_26  and  N_29
   23  A    between atoms: C_26  and  C_46
   24  A    between atoms: N_27  and  C_37
   25  A    between atoms: C_28  and  C_48
   26  A    between atoms: C_32  and  C_35
   27  A    between atoms: S_33  and  N_44
   28  A    between atoms: C_37  and  C_42
   29  A    between atoms: C_43  and  C_50
                            x       y       z     vdW  Elec       q    Type
                         _______ _______ _______ _____ _____    ______ ____

>  <TORSDO>
F 29

$$$$
=
 OpenBabel10232410363D

 50 51  0  0  1  0  0  0  0  0999 V2000
  185.1250  179.2500  142.1240 C   0  0  1  0  0  3  0  0  0  0  0  0
  184.7440  179.3080  143.6140 C   0  0  1  0  0  3  0  0  0  0  0  0
  183.2340  179.3400  143.8220 C   0  0  0  0  0  1  0  0  0  0  0  0
  185.2810  178.0870  144.3590 C   0  0  0  0  0  2  0  0  0  0  0  0
  185.8490  179.7650  145.9520 F   0  0  0  0  0  0  0  0  0  0  0  0
  185.0560  177.8000  146.7280 F   0  0  0  0  0  0  0  0  0  0  0  0
  185.8320  178.3970  145.7490 C   0  0  0  0  0  0  0  0  0  0  0  0
  187.2620  177.8900  145.8550 C   0  0  0  0  0  2  0  0  0  0  0  0
  187.6910  177.8330  147.2450 N   0  0  0  0  0  2  0  0  0  0  0  0
  188.5550  176.7400  147.3570 N   0  0  0  0  0  2  0  0  0  0  0  0
  189.9040  177.2710  147.4400 C   0  0  0  0  0  2  0  0  0  0  0  0
  191.8470  176.1980  146.5950 O   0  0  0  0  0  0  0  0  0  0  0  0
  190.7350  176.7310  146.3340 C   0  0  0  0  0  0  0  0  0  0  0  0
  190.2680  176.8230  144.9870 N   0  0  0  0  0  2  0  0  0  0  0  0
  192.1730  175.1780  144.2020 O   0  0  0  0  0  0  0  0  0  0  0  0
  191.1060  176.0860  143.6590 S   0  0  0  0  0  0  0  0  0  0  0  0
  191.8620  177.3480  142.6560 C   0  0  0  0  0  1  0  0  0  0  0  0
  190.1450  175.2750  142.8260 O   0  0  0  0  0  0  0  0  0  0  0  0
  186.2580  178.2500  141.8750 C   0  0  0  0  0  2  0  0  0  0  0  0
  187.5950  178.9560  141.7410 C   0  0  0  0  0  2  0  0  0  0  0  0
  188.6190  177.9970  141.1510 C   0  0  0  0  0  2  0  0  0  0  0  0
  188.4580  177.8980  139.6650 C   0  0  0  0  0  3  0  0  0  0  0  0
  189.1300  178.6990  138.8400 C   0  0  0  0  0  3  0  0  0  0  0  0
  188.9370  178.5840  137.3650 C   0  0  0  0  0  2  0  0  0  0  0  0
  189.5470  177.2960  136.8370 C   0  0  0  0  0  2  0  0  0  0  0  0
  189.2300  177.1000  135.3620 C   0  0  0  0  0  2  0  0  0  0  0  0
  188.1970  176.0030  135.1750 C   0  0  0  0  0  2  0  0  0  0  0  0
  188.2530  173.5070  135.2720 C   0  0  0  0  0  0  0  0  0  0  0  0
  189.2420  172.3930  135.2620 C   0  0  0  0  0  3  0  0  0  0  0  0
  190.2330  174.5040  135.0280 O   0  0  0  0  0  0  0  0  0  0  0  0
  190.5780  173.1260  135.0740 C   0  0  0  0  0  3  0  0  0  0  0  0
  188.8670  174.6680  135.1610 C   0  0  0  0  0  0  0  0  0  0  0  0
  186.7910  173.3300  135.5070 C   0  0  0  0  0  2  0  0  0  0  0  0
  186.4800  173.5420  136.9130 N   0  0  0  0  0  2  0  0  0  0  0  0
  185.0730  173.2240  137.0890 C   0  0  0  0  0  2  0  0  0  0  0  0
  184.7100  171.9800  136.2900 C   0  0  0  0  0  2  0  0  0  0  0  0
  183.4680  171.3360  136.8820 C   0  0  0  0  0  2  0  0  0  0  0  0
  180.2980  170.6560  136.0190 C   0  0  0  0  0  2  0  0  0  0  0  0
  181.3630  172.1680  137.5070 C   0  0  0  0  0  2  0  0  0  0  0  0
  182.2730  172.0010  136.3770 N   0  0  0  0  0  0  0  0  0  0  0  0
  181.6280  171.0870  135.4380 C   0  0  0  0  0  2  0  0  0  0  0  0
  180.0010  171.6750  137.0800 C   0  0  0  0  0  2  0  0  0  0  0  0
  183.9800  178.8580  141.3710 O   0  0  0  0  0  0  0  0  0  0  0  0
  184.5390  179.9680  139.4180 O   0  0  0  0  0  0  0  0  0  0  0  0
  183.8580  179.0800  139.9980 C   0  0  0  0  0  0  0  0  0  0  0  0
  182.8840  178.2670  139.2180 C   0  0  0  0  0  2  0  0  0  0  0  0
  183.2130  176.7940  139.3540 C   0  0  0  0  0  2  0  0  0  0  0  0
  182.0050  175.7190  137.6180 O   0  0  0  0  0  0  0  0  0  0  0  0
  181.1170  175.5000  139.7170 O   0  0  0  0  0  1  0  0  0  0  0  0
  182.0870  175.9710  138.8440 C   0  0  0  0  0  0  0  0  0  0  0  0
  1 19  1  1  0  0  0
  1  2  1  0  0  0  0
  2  3  1  6  0  0  0
  2  4  1  0  0  0  0
  4  7  1  0  0  0  0
  7  8  1  0  0  0  0
  7  5  1  0  0  0  0
  7  6  1  0  0  0  0
  8  9  1  0  0  0  0
  9 10  1  0  0  0  0
 10 11  1  0  0  0  0
 13 12  2  0  0  0  0
 13 11  1  0  0  0  0
 14 13  1  0  0  0  0
 16 15  2  0  0  0  0
 16 14  1  0  0  0  0
 17 16  1  0  0  0  0
 18 16  2  0  0  0  0
 20 19  1  0  0  0  0
 21 20  1  0  0  0  0
 22 21  1  0  0  0  0
 23 22  2  0  0  0  0
 24 23  1  0  0  0  0
 25 24  1  0  0  0  0
 26 25  1  0  0  0  0
 27 26  1  0  0  0  0
 28 33  1  0  0  0  0
 29 28  1  0  0  0  0
 30 31  1  0  0  0  0
 30 32  1  0  0  0  0
 31 29  2  0  0  0  0
 32 27  1  0  0  0  0
 32 28  2  0  0  0  0
 33 34  1  0  0  0  0
 34 35  1  0  0  0  0
 36 37  1  0  0  0  0
 36 35  1  0  0  0  0
 38 42  1  0  0  0  0
 40 37  1  0  0  0  0
 40 39  1  0  0  0  0
 41 38  1  0  0  0  0
 41 40  1  0  0  0  0
 42 39  1  0  0  0  0
 43  1  1  0  0  0  0
 44 45  2  0  0  0  0
 45 43  1  0  0  0  0
 46 47  1  0  0  0  0
 46 45  1  0  0  0  0
 48 50  2  0  0  0  0
 50 47  1  0  0  0  0
 50 49  1  0  0  0  0
M  END
>  <MODEL>
4

>  <REMARK>
 VINA RESULT:      -5.6      1.873      2.639
  Name = 
  29 active torsions:
  status: ('A' for Active; 'I' for Inactive)
    1  A    between atoms: C_2  and  N_22
    2  A    between atoms: C_2  and  C_46
    3  A    between atoms: N_3  and  C_10
    4  A    between atoms: N_3  and  N_27
    5  A    between atoms: C_5  and  C_14
    6  A    between atoms: C_10  and  C_50
    7  A    between atoms: C_11  and  C_30
    8  A    between atoms: C_11  and  C_41
    9  A    between atoms: C_12  and  C_20
   10  A    between atoms: C_13  and  C_17
   11  A    between atoms: C_13  and  C_47
   12  A    between atoms: C_14  and  C_48
   13  A    between atoms: C_15  and  C_30
   14  A    between atoms: C_15  and  C_35
   15  A    between atoms: C_17  and  C_36
   16  A    between atoms: O_18  and  C_19
   17  A    between atoms: O_18  and  C_36
   18  A    between atoms: C_19  and  C_21
   19  A    between atoms: C_19  and  C_28
   20  A    between atoms: C_20  and  N_22
   21  A    between atoms: C_21  and  C_43
   22  A    between atoms: C_26  and  N_29
   23  A    between atoms: C_26  and  C_46
   24  A    between atoms: N_27  and  C_37
   25  A    between atoms: C_28  and  C_48
   26  A    between atoms: C_32  and  C_35
   27  A    between atoms: S_33  and  N_44
   28  A    between atoms: C_37  and  C_42
   29  A    between atoms: C_43  and  C_50
                            x       y       z     vdW  Elec       q    Type
                         _______ _______ _______ _____ _____    ______ ____

>  <TORSDO>
F 29

$$$$
=
 OpenBabel10232410363D

 50 51  0  0  1  0  0  0  0  0999 V2000
  189.8780  175.8030  137.5870 C   0  0  1  0  0  3  0  0  0  0  0  0
  190.5660  174.5270  137.0710 C   0  0  1  0  0  3  0  0  0  0  0  0
  189.5870  173.5830  136.3820 C   0  0  0  0  0  1  0  0  0  0  0  0
  191.6590  174.8700  136.0590 C   0  0  0  0  0  2  0  0  0  0  0  0
  193.0090  173.6060  137.5590 F   0  0  0  0  0  0  0  0  0  0  0  0
  193.8040  173.9740  135.4790 F   0  0  0  0  0  0  0  0  0  0  0  0
  193.0700  174.5170  136.5200 C   0  0  0  0  0  0  0  0  0  0  0  0
  193.7660  175.7680  137.0350 C   0  0  0  0  0  2  0  0  0  0  0  0
  195.2040  175.5580  137.1350 N   0  0  0  0  0  2  0  0  0  0  0  0
  195.4070  174.6520  138.1810 N   0  0  0  0  0  2  0  0  0  0  0  0
  196.7120  174.0500  137.9740 C   0  0  0  0  0  2  0  0  0  0  0  0
  197.1020  172.3440  136.3690 O   0  0  0  0  0  0  0  0  0  0  0  0
  196.5600  172.6660  137.4600 C   0  0  0  0  0  0  0  0  0  0  0  0
  195.7960  171.7130  138.2030 N   0  0  0  0  0  2  0  0  0  0  0  0
  194.8270  169.3220  138.7420 O   0  0  0  0  0  0  0  0  0  0  0  0
  195.6940  170.0430  137.7490 S   0  0  0  0  0  0  0  0  0  0  0  0
  197.3220  169.3210  137.7570 C   0  0  0  0  0  1  0  0  0  0  0  0
  195.0830  169.9150  136.3750 O   0  0  0  0  0  0  0  0  0  0  0  0
  190.5170  176.2940  138.8900 C   0  0  0  0  0  2  0  0  0  0  0  0
  189.4690  176.5140  139.9670 C   0  0  0  0  0  2  0  0  0  0  0  0
  189.4820  177.9740  140.3960 C   0  0  0  0  0  2  0  0  0  0  0  0
  189.9760  178.1090  141.8030 C   0  0  0  0  0  3  0  0  0  0  0  0
  191.1660  177.6340  142.1680 C   0  0  0  0  0  3  0  0  0  0  0  0
  191.6240  177.7730  143.5810 C   0  0  0  0  0  2  0  0  0  0  0  0
  190.8610  176.8290  144.4950 C   0  0  0  0  0  2  0  0  0  0  0  0
  189.7860  177.5670  145.2770 C   0  0  0  0  0  2  0  0  0  0  0  0
  188.4010  177.1310  144.8310 C   0  0  0  0  0  2  0  0  0  0  0  0
  186.1250  178.0000  145.3850 C   0  0  0  0  0  0  0  0  0  0  0  0
  185.3930  178.6190  146.5250 C   0  0  0  0  0  3  0  0  0  0  0  0
  187.6030  178.0480  147.0530 O   0  0  0  0  0  0  0  0  0  0  0  0
  186.4410  178.6120  147.6460 C   0  0  0  0  0  3  0  0  0  0  0  0
  187.3660  177.7220  145.7310 C   0  0  0  0  0  0  0  0  0  0  0  0
  185.5630  177.8420  144.0120 C   0  0  0  0  0  2  0  0  0  0  0  0
  185.1440  179.1350  143.4910 N   0  0  0  0  0  2  0  0  0  0  0  0
  184.4030  178.8790  142.2670 C   0  0  0  0  0  2  0  0  0  0  0  0
  182.9100  178.8280  142.5560 C   0  0  0  0  0  2  0  0  0  0  0  0
  182.1490  178.5450  141.2720 C   0  0  0  0  0  2  0  0  0  0  0  0
  182.2080  177.1100  138.2400 C   0  0  0  0  0  2  0  0  0  0  0  0
  182.8820  179.2000  139.1390 C   0  0  0  0  0  2  0  0  0  0  0  0
  183.0820  178.2180  140.2010 N   0  0  0  0  0  0  0  0  0  0  0  0
  182.6910  176.9180  139.6620 C   0  0  0  0  0  2  0  0  0  0  0  0
  182.7460  178.4510  137.8360 C   0  0  0  0  0  2  0  0  0  0  0  0
  189.9950  176.8210  136.5970 O   0  0  0  0  0  0  0  0  0  0  0  0
  189.3100  179.0160  136.8720 O   0  0  0  0  0  0  0  0  0  0  0  0
  189.0640  177.8530  136.4510 C   0  0  0  0  0  0  0  0  0  0  0  0
  187.7540  177.5580  135.8100 C   0  0  0  0  0  2  0  0  0  0  0  0
  186.6630  178.3890  136.4560 C   0  0  0  0  0  2  0  0  0  0  0  0
  185.9330  176.6400  137.8840 O   0  0  0  0  0  0  0  0  0  0  0  0
  186.3940  178.6290  138.9200 O   0  0  0  0  0  1  0  0  0  0  0  0
  186.3160  177.8310  137.7880 C   0  0  0  0  0  0  0  0  0  0  0  0
  1 19  1  1  0  0  0
  2  3  1  6  0  0  0
  2  1  1  0  0  0  0
  4  7  1  0  0  0  0
  4  2  1  0  0  0  0
  6  7  1  0  0  0  0
  7  8  1  0  0  0  0
  7  5  1  0  0  0  0
  8  9  1  0  0  0  0
  9 10  1  0  0  0  0
 11 10  1  0  0  0  0
 12 13  2  0  0  0  0
 13 11  1  0  0  0  0
 13 14  1  0  0  0  0
 16 17  1  0  0  0  0
 16 14  1  0  0  0  0
 16 15  2  0  0  0  0
 18 16  2  0  0  0  0
 19 20  1  0  0  0  0
 20 21  1  0  0  0  0
 21 22  1  0  0  0  0
 22 23  2  0  0  0  0
 23 24  1  0  0  0  0
 24 25  1  0  0  0  0
 25 26  1  0  0  0  0
 27 26  1  0  0  0  0
 27 32  1  0  0  0  0
 28 32  2  0  0  0  0
 28 29  1  0  0  0  0
 29 31  2  0  0  0  0
 30 31  1  0  0  0  0
 32 30  1  0  0  0  0
 33 28  1  0  0  0  0
 34 33  1  0  0  0  0
 35 36  1  0  0  0  0
 35 34  1  0  0  0  0
 37 36  1  0  0  0  0
 38 41  1  0  0  0  0
 39 40  1  0  0  0  0
 40 37  1  0  0  0  0
 41 40  1  0  0  0  0
 42 38  1  0  0  0  0
 42 39  1  0  0  0  0
 43  1  1  0  0  0  0
 45 43  1  0  0  0  0
 45 44  2  0  0  0  0
 46 45  1  0  0  0  0
 46 47  1  0  0  0  0
 47 50  1  0  0  0  0
 50 48  2  0  0  0  0
 50 49  1  0  0  0  0
M  END
>  <MODEL>
5

>  <REMARK>
 VINA RESULT:      -5.3      4.921      9.241
  Name = 
  29 active torsions:
  status: ('A' for Active; 'I' for Inactive)
    1  A    between atoms: C_2  and  N_22
    2  A    between atoms: C_2  and  C_46
    3  A    between atoms: N_3  and  C_10
    4  A    between atoms: N_3  and  N_27
    5  A    between atoms: C_5  and  C_14
    6  A    between atoms: C_10  and  C_50
    7  A    between atoms: C_11  and  C_30
    8  A    between atoms: C_11  and  C_41
    9  A    between atoms: C_12  and  C_20
   10  A    between atoms: C_13  and  C_17
   11  A    between atoms: C_13  and  C_47
   12  A    between atoms: C_14  and  C_48
   13  A    between atoms: C_15  and  C_30
   14  A    between atoms: C_15  and  C_35
   15  A    between atoms: C_17  and  C_36
   16  A    between atoms: O_18  and  C_19
   17  A    between atoms: O_18  and  C_36
   18  A    between atoms: C_19  and  C_21
   19  A    between atoms: C_19  and  C_28
   20  A    between atoms: C_20  and  N_22
   21  A    between atoms: C_21  and  C_43
   22  A    between atoms: C_26  and  N_29
   23  A    between atoms: C_26  and  C_46
   24  A    between atoms: N_27  and  C_37
   25  A    between atoms: C_28  and  C_48
   26  A    between atoms: C_32  and  C_35
   27  A    between atoms: S_33  and  N_44
   28  A    between atoms: C_37  and  C_42
   29  A    between atoms: C_43  and  C_50
                            x       y       z     vdW  Elec       q    Type
                         _______ _______ _______ _____ _____    ______ ____

>  <TORSDO>
F 29

$$$$
=
 OpenBabel10232410363D

 50 51  0  0  1  0  0  0  0  0999 V2000
  187.0190  177.7860  144.9810 C   0  0  1  0  0  3  0  0  0  0  0  0
  185.6850  178.3250  145.5290 C   0  0  1  0  0  3  0  0  0  0  0  0
  185.8350  178.9310  146.9190 C   0  0  0  0  0  1  0  0  0  0  0  0
  185.1220  179.4120  144.6150 C   0  0  0  0  0  2  0  0  0  0  0  0
  183.1020  178.1830  144.9020 F   0  0  0  0  0  0  0  0  0  0  0  0
  182.9530  180.2810  144.0820 F   0  0  0  0  0  0  0  0  0  0  0  0
  183.7150  179.1240  144.0960 C   0  0  0  0  0  0  0  0  0  0  0  0
  183.7980  178.5530  142.6890 C   0  0  0  0  0  2  0  0  0  0  0  0
  182.5110  178.6450  142.0150 N   0  0  0  0  0  2  0  0  0  0  0  0
  182.7390  178.3470  140.6680 N   0  0  0  0  0  2  0  0  0  0  0  0
  181.7010  177.4180  140.2560 C   0  0  0  0  0  2  0  0  0  0  0  0
  180.6910  177.5650  138.1130 O   0  0  0  0  0  0  0  0  0  0  0  0
  181.7140  177.2590  138.7800 C   0  0  0  0  0  0  0  0  0  0  0  0
  182.8850  176.7570  138.1320 N   0  0  0  0  0  2  0  0  0  0  0  0
  184.4730  176.9020  136.0330 O   0  0  0  0  0  0  0  0  0  0  0  0
  183.0330  176.6810  136.4060 S   0  0  0  0  0  0  0  0  0  0  0  0
  182.0330  177.9530  135.6640 C   0  0  0  0  0  1  0  0  0  0  0  0
  182.5960  175.3270  135.9070 O   0  0  0  0  0  0  0  0  0  0  0  0
  187.7170  176.8800  146.0000 C   0  0  0  0  0  2  0  0  0  0  0  0
  188.9560  177.5460  146.5710 C   0  0  0  0  0  2  0  0  0  0  0  0
  189.6180  178.3950  145.4950 C   0  0  0  0  0  2  0  0  0  0  0  0
  190.4100  177.5380  144.5570 C   0  0  0  0  0  3  0  0  0  0  0  0
  191.0120  178.0540  143.4860 C   0  0  0  0  0  3  0  0  0  0  0  0
  191.7820  177.1710  142.5640 C   0  0  0  0  0  2  0  0  0  0  0  0
  191.6840  177.6640  141.1300 C   0  0  0  0  0  2  0  0  0  0  0  0
  191.3800  176.5210  140.1730 C   0  0  0  0  0  2  0  0  0  0  0  0
  191.0290  177.0530  138.7940 C   0  0  0  0  0  2  0  0  0  0  0  0
  191.5890  176.0890  136.5580 C   0  0  0  0  0  0  0  0  0  0  0  0
  192.7510  175.5020  135.8340 C   0  0  0  0  0  3  0  0  0  0  0  0
  193.2890  176.2330  137.9940 O   0  0  0  0  0  0  0  0  0  0  0  0
  193.8920  175.6400  136.8520 C   0  0  0  0  0  3  0  0  0  0  0  0
  191.9440  176.4600  137.7720 C   0  0  0  0  0  0  0  0  0  0  0  0
  190.1980  176.1260  136.0220 C   0  0  0  0  0  2  0  0  0  0  0  0
  190.1330  175.4260  134.7480 N   0  0  0  0  0  2  0  0  0  0  0  0
  189.0210  174.4940  134.8330 C   0  0  0  0  0  2  0  0  0  0  0  0
  188.9950  173.8290  136.2020 C   0  0  0  0  0  2  0  0  0  0  0  0
  187.9240  172.7500  136.2270 C   0  0  0  0  0  2  0  0  0  0  0  0
  184.6860  172.1080  136.8200 C   0  0  0  0  0  2  0  0  0  0  0  0
  186.1880  173.8690  137.3430 C   0  0  0  0  0  2  0  0  0  0  0  0
  186.6090  173.3490  136.0450 N   0  0  0  0  0  0  0  0  0  0  0  0
  185.6840  172.2740  135.6930 C   0  0  0  0  0  2  0  0  0  0  0  0
  184.7820  173.3850  137.6020 C   0  0  0  0  0  2  0  0  0  0  0  0
  186.7620  177.0430  143.7940 O   0  0  0  0  0  0  0  0  0  0  0  0
  188.2950  176.3190  142.2170 O   0  0  0  0  0  0  0  0  0  0  0  0
  187.4960  177.2080  142.6160 C   0  0  0  0  0  0  0  0  0  0  0  0
  187.3450  178.4700  141.8420 C   0  0  0  0  0  2  0  0  0  0  0  0
  188.1450  178.3890  140.5570 C   0  0  0  0  0  2  0  0  0  0  0  0
  187.5880  177.5560  138.4060 O   0  0  0  0  0  0  0  0  0  0  0  0
  185.9980  178.8750  139.3940 O   0  0  0  0  0  1  0  0  0  0  0  0
  187.2320  178.2410  139.3960 C   0  0  0  0  0  0  0  0  0  0  0  0
  1  2  1  0  0  0  0
  1 19  1  1  0  0  0
  2  3  1  1  0  0  0
  4  2  1  0  0  0  0
  6  7  1  0  0  0  0
  7  4  1  0  0  0  0
  7  5  1  0  0  0  0
  8  7  1  0  0  0  0
  9  8  1  0  0  0  0
 10  9  1  0  0  0  0
 11 10  1  0  0  0  0
 12 13  2  0  0  0  0
 13 11  1  0  0  0  0
 14 13  1  0  0  0  0
 15 16  2  0  0  0  0
 16 14  1  0  0  0  0
 17 16  1  0  0  0  0
 18 16  2  0  0  0  0
 19 20  1  0  0  0  0
 21 20  1  0  0  0  0
 22 21  1  0  0  0  0
 23 22  2  0  0  0  0
 24 23  1  0  0  0  0
 25 24  1  0  0  0  0
 26 25  1  0  0  0  0
 27 26  1  0  0  0  0
 28 32  2  0  0  0  0
 29 28  1  0  0  0  0
 29 31  2  0  0  0  0
 31 30  1  0  0  0  0
 32 30  1  0  0  0  0
 32 27  1  0  0  0  0
 33 28  1  0  0  0  0
 34 35  1  0  0  0  0
 34 33  1  0  0  0  0
 35 36  1  0  0  0  0
 36 37  1  0  0  0  0
 38 42  1  0  0  0  0
 39 42  1  0  0  0  0
 40 37  1  0  0  0  0
 40 39  1  0  0  0  0
 41 40  1  0  0  0  0
 41 38  1  0  0  0  0
 43  1  1  0  0  0  0
 44 45  2  0  0  0  0
 45 43  1  0  0  0  0
 46 45  1  0  0  0  0
 47 46  1  0  0  0  0
 48 50  2  0  0  0  0
 49 50  1  0  0  0  0
 50 47  1  0  0  0  0
M  END
>  <MODEL>
6

>  <REMARK>
 VINA RESULT:      -5.3      3.364      6.481
  Name = 
  29 active torsions:
  status: ('A' for Active; 'I' for Inactive)
    1  A    between atoms: C_2  and  N_22
    2  A    between atoms: C_2  and  C_46
    3  A    between atoms: N_3  and  C_10
    4  A    between atoms: N_3  and  N_27
    5  A    between atoms: C_5  and  C_14
    6  A    between atoms: C_10  and  C_50
    7  A    between atoms: C_11  and  C_30
    8  A    between atoms: C_11  and  C_41
    9  A    between atoms: C_12  and  C_20
   10  A    between atoms: C_13  and  C_17
   11  A    between atoms: C_13  and  C_47
   12  A    between atoms: C_14  and  C_48
   13  A    between atoms: C_15  and  C_30
   14  A    between atoms: C_15  and  C_35
   15  A    between atoms: C_17  and  C_36
   16  A    between atoms: O_18  and  C_19
   17  A    between atoms: O_18  and  C_36
   18  A    between atoms: C_19  and  C_21
   19  A    between atoms: C_19  and  C_28
   20  A    between atoms: C_20  and  N_22
   21  A    between atoms: C_21  and  C_43
   22  A    between atoms: C_26  and  N_29
   23  A    between atoms: C_26  and  C_46
   24  A    between atoms: N_27  and  C_37
   25  A    between atoms: C_28  and  C_48
   26  A    between atoms: C_32  and  C_35
   27  A    between atoms: S_33  and  N_44
   28  A    between atoms: C_37  and  C_42
   29  A    between atoms: C_43  and  C_50
                            x       y       z     vdW  Elec       q    Type
                         _______ _______ _______ _____ _____    ______ ____

>  <TORSDO>
F 29

$$$$
=
 OpenBabel10232410363D

 50 51  0  0  1  0  0  0  0  0999 V2000
  183.2320  179.0820  140.4730 C   0  0  1  0  0  3  0  0  0  0  0  0
  182.7650  177.9690  139.5190 C   0  0  1  0  0  3  0  0  0  0  0  0
  182.8020  176.5930  140.1740 C   0  0  0  0  0  1  0  0  0  0  0  0
  181.3290  178.2160  139.0580 C   0  0  0  0  0  2  0  0  0  0  0  0
  180.1910  179.9580  137.8980 F   0  0  0  0  0  0  0  0  0  0  0  0
  182.4020  179.7070  137.5200 F   0  0  0  0  0  0  0  0  0  0  0  0
  181.2170  179.0390  137.7770 C   0  0  0  0  0  0  0  0  0  0  0  0
  180.8880  178.1210  136.6090 C   0  0  0  0  0  2  0  0  0  0  0  0
  181.4960  176.8110  136.7910 N   0  0  0  0  0  2  0  0  0  0  0  0
  181.7340  176.2950  135.5140 N   0  0  0  0  0  2  0  0  0  0  0  0
  181.0050  175.0420  135.4180 C   0  0  0  0  0  2  0  0  0  0  0  0
  181.9170  173.0000  134.6240 O   0  0  0  0  0  0  0  0  0  0  0  0
  181.9450  173.8970  135.5080 C   0  0  0  0  0  0  0  0  0  0  0  0
  182.8680  173.8200  136.5960 N   0  0  0  0  0  2  0  0  0  0  0  0
  184.9650  172.6870  135.4710 O   0  0  0  0  0  0  0  0  0  0  0  0
  184.0940  172.5980  136.6930 S   0  0  0  0  0  0  0  0  0  0  0  0
  183.3320  170.9900  136.7560 C   0  0  0  0  0  1  0  0  0  0  0  0
  184.9430  172.8120  137.9210 O   0  0  0  0  0  0  0  0  0  0  0  0
  183.4720  178.5430  141.8860 C   0  0  0  0  0  2  0  0  0  0  0  0
  182.2640  178.7750  142.7760 C   0  0  0  0  0  2  0  0  0  0  0  0
  182.7280  179.0960  144.1890 C   0  0  0  0  0  2  0  0  0  0  0  0
  184.1870  178.7990  144.3480 C   0  0  0  0  0  3  0  0  0  0  0  0
  184.7720  178.8170  145.5450 C   0  0  0  0  0  3  0  0  0  0  0  0
  186.2310  178.5300  145.6680 C   0  0  0  0  0  2  0  0  0  0  0  0
  186.5670  177.1650  145.0900 C   0  0  0  0  0  2  0  0  0  0  0  0
  187.6550  177.2660  144.0320 C   0  0  0  0  0  2  0  0  0  0  0  0
  188.7310  178.2500  144.4590 C   0  0  0  0  0  2  0  0  0  0  0  0
  191.0340  177.3600  144.8400 C   0  0  0  0  0  0  0  0  0  0  0  0
  191.7930  176.5730  145.8520 C   0  0  0  0  0  3  0  0  0  0  0  0
  189.5750  176.9840  146.4840 O   0  0  0  0  0  0  0  0  0  0  0  0
  190.7570  176.3580  146.9640 C   0  0  0  0  0  3  0  0  0  0  0  0
  189.7900  177.5400  145.2370 C   0  0  0  0  0  0  0  0  0  0  0  0
  191.5780  177.7670  143.5120 C   0  0  0  0  0  2  0  0  0  0  0  0
  191.2980  176.7390  142.5200 N   0  0  0  0  0  2  0  0  0  0  0  0
  190.5890  177.3850  141.4290 C   0  0  0  0  0  2  0  0  0  0  0  0
  191.4490  177.3960  140.1740 C   0  0  0  0  0  2  0  0  0  0  0  0
  191.0360  176.2550  139.2600 C   0  0  0  0  0  2  0  0  0  0  0  0
  193.4040  175.3280  137.0720 C   0  0  0  0  0  2  0  0  0  0  0  0
  191.0320  175.4040  137.0710 C   0  0  0  0  0  2  0  0  0  0  0  0
  191.4740  176.5250  137.8970 N   0  0  0  0  0  0  0  0  0  0  0  0
  192.9350  176.5090  137.8950 C   0  0  0  0  0  2  0  0  0  0  0  0
  192.2100  174.9420  136.2490 C   0  0  0  0  0  2  0  0  0  0  0  0
  184.4450  179.6370  139.9730 O   0  0  0  0  0  0  0  0  0  0  0  0
  186.5350  178.6990  140.3110 O   0  0  0  0  0  0  0  0  0  0  0  0
  185.5300  178.8560  139.5660 C   0  0  0  0  0  0  0  0  0  0  0  0
  185.5020  178.2270  138.2180 C   0  0  0  0  0  2  0  0  0  0  0  0
  186.9160  177.9730  137.7340 C   0  0  0  0  0  2  0  0  0  0  0  0
  186.0410  177.7300  135.5420 O   0  0  0  0  0  0  0  0  0  0  0  0
  187.7880  176.3460  136.0640 O   0  0  0  0  0  1  0  0  0  0  0  0
  186.8910  177.3530  136.3850 C   0  0  0  0  0  0  0  0  0  0  0  0
  1 19  1  1  0  0  0
  2  3  1  1  0  0  0
  2  1  1  0  0  0  0
  4  2  1  0  0  0  0
  6  7  1  0  0  0  0
  7  5  1  0  0  0  0
  7  4  1  0  0  0  0
  8  9  1  0  0  0  0
  8  7  1  0  0  0  0
 10  9  1  0  0  0  0
 11 13  1  0  0  0  0
 11 10  1  0  0  0  0
 12 13  2  0  0  0  0
 13 14  1  0  0  0  0
 14 16  1  0  0  0  0
 15 16  2  0  0  0  0
 16 17  1  0  0  0  0
 16 18  2  0  0  0  0
 19 20  1  0  0  0  0
 20 21  1  0  0  0  0
 21 22  1  0  0  0  0
 22 23  2  0  0  0  0
 23 24  1  0  0  0  0
 25 24  1  0  0  0  0
 26 27  1  0  0  0  0
 26 25  1  0  0  0  0
 27 32  1  0  0  0  0
 28 32  2  0  0  0  0
 28 29  1  0  0  0  0
 29 31  2  0  0  0  0
 30 31  1  0  0  0  0
 32 30  1  0  0  0  0
 33 28  1  0  0  0  0
 34 33  1  0  0  0  0
 35 34  1  0  0  0  0
 36 35  1  0  0  0  0
 37 36  1  0  0  0  0
 38 41  1  0  0  0  0
 39 40  1  0  0  0  0
 40 37  1  0  0  0  0
 41 40  1  0  0  0  0
 42 39  1  0  0  0  0
 42 38  1  0  0  0  0
 43  1  1  0  0  0  0
 45 43  1  0  0  0  0
 45 44  2  0  0  0  0
 46 45  1  0  0  0  0
 47 46  1  0  0  0  0
 48 50  2  0  0  0  0
 49 50  1  0  0  0  0
 50 47  1  0  0  0  0
M  END
>  <MODEL>
7

>  <REMARK>
 VINA RESULT:      -5.3      3.691      9.113
  Name = 
  29 active torsions:
  status: ('A' for Active; 'I' for Inactive)
    1  A    between atoms: C_2  and  N_22
    2  A    between atoms: C_2  and  C_46
    3  A    between atoms: N_3  and  C_10
    4  A    between atoms: N_3  and  N_27
    5  A    between atoms: C_5  and  C_14
    6  A    between atoms: C_10  and  C_50
    7  A    between atoms: C_11  and  C_30
    8  A    between atoms: C_11  and  C_41
    9  A    between atoms: C_12  and  C_20
   10  A    between atoms: C_13  and  C_17
   11  A    between atoms: C_13  and  C_47
   12  A    between atoms: C_14  and  C_48
   13  A    between atoms: C_15  and  C_30
   14  A    between atoms: C_15  and  C_35
   15  A    between atoms: C_17  and  C_36
   16  A    between atoms: O_18  and  C_19
   17  A    between atoms: O_18  and  C_36
   18  A    between atoms: C_19  and  C_21
   19  A    between atoms: C_19  and  C_28
   20  A    between atoms: C_20  and  N_22
   21  A    between atoms: C_21  and  C_43
   22  A    between atoms: C_26  and  N_29
   23  A    between atoms: C_26  and  C_46
   24  A    between atoms: N_27  and  C_37
   25  A    between atoms: C_28  and  C_48
   26  A    between atoms: C_32  and  C_35
   27  A    between atoms: S_33  and  N_44
   28  A    between atoms: C_37  and  C_42
   29  A    between atoms: C_43  and  C_50
                            x       y       z     vdW  Elec       q    Type
                         _______ _______ _______ _____ _____    ______ ____

>  <TORSDO>
F 29

$$$$
=
 OpenBabel10232410363D

 50 51  0  0  1  0  0  0  0  0999 V2000
  185.3180  179.2470  144.5200 C   0  0  1  0  0  3  0  0  0  0  0  0
  185.6670  178.9600  145.9910 C   0  0  1  0  0  3  0  0  0  0  0  0
  184.4920  178.3640  146.7570 C   0  0  0  0  0  1  0  0  0  0  0  0
  186.8270  177.9700  146.0920 C   0  0  0  0  0  2  0  0  0  0  0  0
  187.0560  179.0290  148.2130 F   0  0  0  0  0  0  0  0  0  0  0  0
  187.5530  176.8310  148.0710 F   0  0  0  0  0  0  0  0  0  0  0  0
  187.5990  178.0450  147.4060 C   0  0  0  0  0  0  0  0  0  0  0  0
  189.0480  178.4170  147.1260 C   0  0  0  0  0  2  0  0  0  0  0  0
  189.9580  177.5400  147.8500 N   0  0  0  0  0  2  0  0  0  0  0  0
  190.2470  176.4680  147.0000 N   0  0  0  0  0  2  0  0  0  0  0  0
  191.5410  176.7400  146.3990 C   0  0  0  0  0  2  0  0  0  0  0  0
  191.9740  175.4760  144.4370 O   0  0  0  0  0  0  0  0  0  0  0  0
  191.4770  176.5220  144.9320 C   0  0  0  0  0  0  0  0  0  0  0  0
  190.8590  177.5020  144.0950 N   0  0  0  0  0  2  0  0  0  0  0  0
  190.1910  175.8300  142.1700 O   0  0  0  0  0  0  0  0  0  0  0  0
  190.6120  177.2560  142.3970 S   0  0  0  0  0  0  0  0  0  0  0  0
  192.1310  177.5660  141.5210 C   0  0  0  0  0  1  0  0  0  0  0  0
  189.5300  178.1770  141.8910 O   0  0  0  0  0  0  0  0  0  0  0  0
  185.3310  177.9640  143.6820 C   0  0  0  0  0  2  0  0  0  0  0  0
  186.3630  178.0420  142.5720 C   0  0  0  0  0  2  0  0  0  0  0  0
  185.9640  179.1280  141.5830 C   0  0  0  0  0  2  0  0  0  0  0  0
  186.1280  178.6480  140.1740 C   0  0  0  0  0  3  0  0  0  0  0  0
  185.0790  178.4930  139.3680 C   0  0  0  0  0  3  0  0  0  0  0  0
  185.2760  178.0000  137.9740 C   0  0  0  0  0  2  0  0  0  0  0  0
  186.6850  178.2950  137.4860 C   0  0  0  0  0  2  0  0  0  0  0  0
  186.7760  178.2000  135.9710 C   0  0  0  0  0  2  0  0  0  0  0  0
  188.1310  177.6620  135.5460 C   0  0  0  0  0  2  0  0  0  0  0  0
  189.3440  175.7930  136.6760 C   0  0  0  0  0  0  0  0  0  0  0  0
  189.1790  174.3390  136.9580 C   0  0  0  0  0  3  0  0  0  0  0  0
  187.3430  175.2720  135.8410 O   0  0  0  0  0  0  0  0  0  0  0  0
  187.7880  174.0370  136.3840 C   0  0  0  0  0  3  0  0  0  0  0  0
  188.2950  176.2570  136.0270 C   0  0  0  0  0  0  0  0  0  0  0  0
  190.5810  176.5710  136.9730 C   0  0  0  0  0  2  0  0  0  0  0  0
  191.3330  175.9280  138.0410 N   0  0  0  0  0  2  0  0  0  0  0  0
  192.6690  176.4980  138.0210 C   0  0  0  0  0  2  0  0  0  0  0  0
  193.5920  175.6500  137.1580 C   0  0  0  0  0  2  0  0  0  0  0  0
  192.9520  174.2950  136.9020 C   0  0  0  0  0  2  0  0  0  0  0  0
  195.7620  172.4630  136.8640 C   0  0  0  0  0  2  0  0  0  0  0  0
  193.4990  172.1090  136.2420 C   0  0  0  0  0  2  0  0  0  0  0  0
  193.7760  173.5200  135.9840 N   0  0  0  0  0  0  0  0  0  0  0  0
  195.1720  173.7560  136.3420 C   0  0  0  0  0  2  0  0  0  0  0  0
  194.8230  171.3970  136.3830 C   0  0  0  0  0  2  0  0  0  0  0  0
  184.0200  179.8310  144.4600 O   0  0  0  0  0  0  0  0  0  0  0  0
  182.1890  178.4170  144.5640 O   0  0  0  0  0  0  0  0  0  0  0  0
  182.9200  179.1890  143.8860 C   0  0  0  0  0  0  0  0  0  0  0  0
  182.6310  179.4050  142.4420 C   0  0  0  0  0  2  0  0  0  0  0  0
  181.5180  178.4790  141.9930 C   0  0  0  0  0  2  0  0  0  0  0  0
  181.6050  179.2980  139.7670 O   0  0  0  0  0  0  0  0  0  0  0  0
  181.5620  177.0180  139.9770 O   0  0  0  0  0  1  0  0  0  0  0  0
  181.5710  178.2950  140.5200 C   0  0  0  0  0  0  0  0  0  0  0  0
  1 19  1  6  0  0  0
  1  2  1  0  0  0  0
  2  4  1  0  0  0  0
  2  3  1  1  0  0  0
  4  7  1  0  0  0  0
  7  6  1  0  0  0  0
  7  5  1  0  0  0  0
  8  7  1  0  0  0  0
  8  9  1  0  0  0  0
 10  9  1  0  0  0  0
 11 10  1  0  0  0  0
 12 13  2  0  0  0  0
 13 11  1  0  0  0  0
 14 13  1  0  0  0  0
 15 16  2  0  0  0  0
 16 14  1  0  0  0  0
 17 16  1  0  0  0  0
 18 16  2  0  0  0  0
 20 19  1  0  0  0  0
 21 20  1  0  0  0  0
 22 21  1  0  0  0  0
 23 22  2  0  0  0  0
 24 23  1  0  0  0  0
 25 24  1  0  0  0  0
 26 25  1  0  0  0  0
 27 26  1  0  0  0  0
 27 32  1  0  0  0  0
 28 29  1  0  0  0  0
 28 33  1  0  0  0  0
 30 32  1  0  0  0  0
 30 31  1  0  0  0  0
 31 29  2  0  0  0  0
 32 28  2  0  0  0  0
 33 34  1  0  0  0  0
 35 34  1  0  0  0  0
 36 35  1  0  0  0  0
 37 36  1  0  0  0  0
 39 42  1  0  0  0  0
 40 39  1  0  0  0  0
 40 41  1  0  0  0  0
 40 37  1  0  0  0  0
 41 38  1  0  0  0  0
 42 38  1  0  0  0  0
 43  1  1  0  0  0  0
 45 43  1  0  0  0  0
 45 44  2  0  0  0  0
 46 45  1  0  0  0  0
 47 46  1  0  0  0  0
 48 50  2  0  0  0  0
 49 50  1  0  0  0  0
 50 47  1  0  0  0  0
M  END
>  <MODEL>
8

>  <REMARK>
 VINA RESULT:      -5.0      2.633      4.974
  Name = 
  29 active torsions:
  status: ('A' for Active; 'I' for Inactive)
    1  A    between atoms: C_2  and  N_22
    2  A    between atoms: C_2  and  C_46
    3  A    between atoms: N_3  and  C_10
    4  A    between atoms: N_3  and  N_27
    5  A    between atoms: C_5  and  C_14
    6  A    between atoms: C_10  and  C_50
    7  A    between atoms: C_11  and  C_30
    8  A    between atoms: C_11  and  C_41
    9  A    between atoms: C_12  and  C_20
   10  A    between atoms: C_13  and  C_17
   11  A    between atoms: C_13  and  C_47
   12  A    between atoms: C_14  and  C_48
   13  A    between atoms: C_15  and  C_30
   14  A    between atoms: C_15  and  C_35
   15  A    between atoms: C_17  and  C_36
   16  A    between atoms: O_18  and  C_19
   17  A    between atoms: O_18  and  C_36
   18  A    between atoms: C_19  and  C_21
   19  A    between atoms: C_19  and  C_28
   20  A    between atoms: C_20  and  N_22
   21  A    between atoms: C_21  and  C_43
   22  A    between atoms: C_26  and  N_29
   23  A    between atoms: C_26  and  C_46
   24  A    between atoms: N_27  and  C_37
   25  A    between atoms: C_28  and  C_48
   26  A    between atoms: C_32  and  C_35
   27  A    between atoms: S_33  and  N_44
   28  A    between atoms: C_37  and  C_42
   29  A    between atoms: C_43  and  C_50
                            x       y       z     vdW  Elec       q    Type
                         _______ _______ _______ _____ _____    ______ ____

>  <TORSDO>
F 29

$$$$
=
 OpenBabel10232410363D

 50 51  0  0  1  0  0  0  0  0999 V2000
  188.5640  177.3220  145.5580 C   0  0  1  0  0  3  0  0  0  0  0  0
  187.5210  177.6350  146.6450 C   0  0  1  0  0  3  0  0  0  0  0  0
  188.1680  178.0310  147.9680 C   0  0  0  0  0  1  0  0  0  0  0  0
  186.6180  178.7900  146.2150 C   0  0  0  0  0  2  0  0  0  0  0  0
  185.2550  177.2530  145.0090 F   0  0  0  0  0  0  0  0  0  0  0  0
  184.4560  178.0680  146.9570 F   0  0  0  0  0  0  0  0  0  0  0  0
  185.2030  178.3650  145.8290 C   0  0  0  0  0  0  0  0  0  0  0  0
  184.5280  179.4870  145.0540 C   0  0  0  0  0  2  0  0  0  0  0  0
  184.0210  179.0050  143.7780 N   0  0  0  0  0  2  0  0  0  0  0  0
  184.8900  179.4820  142.7920 N   0  0  0  0  0  2  0  0  0  0  0  0
  185.0590  178.4160  141.8210 C   0  0  0  0  0  2  0  0  0  0  0  0
  183.2140  177.3590  140.7640 O   0  0  0  0  0  0  0  0  0  0  0  0
  183.9140  178.4010  140.8750 C   0  0  0  0  0  0  0  0  0  0  0  0
  183.6200  179.5640  140.0990 N   0  0  0  0  0  2  0  0  0  0  0  0
  182.3670  178.7160  137.9400 O   0  0  0  0  0  0  0  0  0  0  0  0
  182.2170  179.6770  139.0870 S   0  0  0  0  0  0  0  0  0  0  0  0
  182.0720  181.3340  138.4500 C   0  0  0  0  0  1  0  0  0  0  0  0
  180.9800  179.3190  139.8720 O   0  0  0  0  0  0  0  0  0  0  0  0
  188.3290  178.1620  144.2990 C   0  0  0  0  0  2  0  0  0  0  0  0
  188.4850  177.3260  143.0420 C   0  0  0  0  0  2  0  0  0  0  0  0
  189.7220  177.7800  142.2800 C   0  0  0  0  0  2  0  0  0  0  0  0
  189.4720  177.7610  140.8040 C   0  0  0  0  0  3  0  0  0  0  0  0
  188.2390  177.6610  140.3110 C   0  0  0  0  0  3  0  0  0  0  0  0
  188.0250  177.6320  138.8350 C   0  0  0  0  0  2  0  0  0  0  0  0
  188.9850  178.5750  138.1280 C   0  0  0  0  0  2  0  0  0  0  0  0
  189.6750  177.8860  136.9600 C   0  0  0  0  0  2  0  0  0  0  0  0
  190.2850  176.5660  137.3970 C   0  0  0  0  0  2  0  0  0  0  0  0
  190.3400  174.6490  135.7960 C   0  0  0  0  0  0  0  0  0  0  0  0
  191.1060  174.1870  134.6060 C   0  0  0  0  0  3  0  0  0  0  0  0
  191.8030  176.2810  135.3900 O   0  0  0  0  0  0  0  0  0  0  0  0
  192.0810  175.3460  134.3570 C   0  0  0  0  0  3  0  0  0  0  0  0
  190.7890  175.8180  136.2070 C   0  0  0  0  0  0  0  0  0  0  0  0
  189.3020  173.8360  136.4950 C   0  0  0  0  0  2  0  0  0  0  0  0
  187.9910  174.0950  135.9180 N   0  0  0  0  0  2  0  0  0  0  0  0
  187.0590  174.2210  137.0250 C   0  0  0  0  0  2  0  0  0  0  0  0
  185.6350  173.9830  136.5450 C   0  0  0  0  0  2  0  0  0  0  0  0
  185.6050  172.7910  135.6030 C   0  0  0  0  0  2  0  0  0  0  0  0
  182.6070  171.9280  136.8380 C   0  0  0  0  0  2  0  0  0  0  0  0
  184.1010  171.0270  135.2280 C   0  0  0  0  0  2  0  0  0  0  0  0
  184.9340  171.6660  136.2420 N   0  0  0  0  0  0  0  0  0  0  0  0
  184.0350  172.2110  137.2560 C   0  0  0  0  0  2  0  0  0  0  0  0
  182.7230  170.8370  135.8140 C   0  0  0  0  0  2  0  0  0  0  0  0
  189.8630  177.6020  146.0720 O   0  0  0  0  0  0  0  0  0  0  0  0
  191.5280  176.4670  144.9320 O   0  0  0  0  0  0  0  0  0  0  0  0
  190.9190  176.6900  146.0130 C   0  0  0  0  0  0  0  0  0  0  0  0
  191.3080  175.9550  147.2470 C   0  0  0  0  0  2  0  0  0  0  0  0
  191.9460  176.9080  148.2390 C   0  0  0  0  0  2  0  0  0  0  0  0
  193.7990  175.4280  148.1580 O   0  0  0  0  0  0  0  0  0  0  0  0
  193.6290  176.6910  150.0600 O   0  0  0  0  0  1  0  0  0  0  0  0
  193.1780  176.3040  148.8070 C   0  0  0  0  0  0  0  0  0  0  0  0
  1 19  1  6  0  0  0
  1 43  1  0  0  0  0
  1  2  1  0  0  0  0
  2  3  1  1  0  0  0
  4  2  1  0  0  0  0
  5  7  1  0  0  0  0
  7  4  1  0  0  0  0
  7  6  1  0  0  0  0
  8  7  1  0  0  0  0
  9  8  1  0  0  0  0
 10  9  1  0  0  0  0
 11 10  1  0  0  0  0
 12 13  2  0  0  0  0
 13 11  1  0  0  0  0
 14 13  1  0  0  0  0
 15 16  2  0  0  0  0
 16 18  2  0  0  0  0
 16 14  1  0  0  0  0
 17 16  1  0  0  0  0
 20 19  1  0  0  0  0
 21 20  1  0  0  0  0
 22 21  1  0  0  0  0
 23 22  2  0  0  0  0
 24 23  1  0  0  0  0
 25 24  1  0  0  0  0
 26 27  1  0  0  0  0
 26 25  1  0  0  0  0
 28 32  2  0  0  0  0
 28 33  1  0  0  0  0
 29 28  1  0  0  0  0
 30 32  1  0  0  0  0
 31 29  2  0  0  0  0
 31 30  1  0  0  0  0
 32 27  1  0  0  0  0
 34 33  1  0  0  0  0
 34 35  1  0  0  0  0
 36 35  1  0  0  0  0
 37 40  1  0  0  0  0
 37 36  1  0  0  0  0
 38 41  1  0  0  0  0
 39 42  1  0  0  0  0
 39 40  1  0  0  0  0
 40 41  1  0  0  0  0
 42 38  1  0  0  0  0
 44 45  2  0  0  0  0
 45 43  1  0  0  0  0
 45 46  1  0  0  0  0
 46 47  1  0  0  0  0
 47 50  1  0  0  0  0
 48 50  2  0  0  0  0
 50 49  1  0  0  0  0
M  END
>  <MODEL>
9

>  <REMARK>
 VINA RESULT:      -5.0      2.791      7.461
  Name = 
  29 active torsions:
  status: ('A' for Active; 'I' for Inactive)
    1  A    between atoms: C_2  and  N_22
    2  A    between atoms: C_2  and  C_46
    3  A    between atoms: N_3  and  C_10
    4  A    between atoms: N_3  and  N_27
    5  A    between atoms: C_5  and  C_14
    6  A    between atoms: C_10  and  C_50
    7  A    between atoms: C_11  and  C_30
    8  A    between atoms: C_11  and  C_41
    9  A    between atoms: C_12  and  C_20
   10  A    between atoms: C_13  and  C_17
   11  A    between atoms: C_13  and  C_47
   12  A    between atoms: C_14  and  C_48
   13  A    between atoms: C_15  and  C_30
   14  A    between atoms: C_15  and  C_35
   15  A    between atoms: C_17  and  C_36
   16  A    between atoms: O_18  and  C_19
   17  A    between atoms: O_18  and  C_36
   18  A    between atoms: C_19  and  C_21
   19  A    between atoms: C_19  and  C_28
   20  A    between atoms: C_20  and  N_22
   21  A    between atoms: C_21  and  C_43
   22  A    between atoms: C_26  and  N_29
   23  A    between atoms: C_26  and  C_46
   24  A    between atoms: N_27  and  C_37
   25  A    between atoms: C_28  and  C_48
   26  A    between atoms: C_32  and  C_35
   27  A    between atoms: S_33  and  N_44
   28  A    between atoms: C_37  and  C_42
   29  A    between atoms: C_43  and  C_50
                            x       y       z     vdW  Elec       q    Type
                         _______ _______ _______ _____ _____    ______ ____

>  <TORSDO>
F 29

$$$$
