=
 OpenBabel10232409463D

 25 26  0  0  1  0  0  0  0  0999 V2000
  190.2130  177.7330  144.6770 C   0  0  2  0  0  0  0  0  0  0  0  0
  190.0540  178.2220  143.2390 C   0  0  1  0  0  3  0  0  0  0  0  0
  191.1700  178.7640  144.1190 C   0  0  0  0  0  2  0  0  0  0  0  0
  190.8700  176.3730  144.9350 C   0  0  0  0  0  2  0  0  0  0  0  0
  191.9700  176.4560  145.9850 C   0  0  0  0  0  2  0  0  0  0  0  0
  192.7060  175.7280  148.2320 C   0  0  0  0  0  1  0  0  0  0  0  0
  191.5460  175.7530  147.2600 C   0  0  0  0  0  2  0  0  0  0  0  0
  190.6170  177.2720  142.2790 N   0  0  0  0  0  2  0  0  0  0  0  0
  190.1140  177.5310  140.9270 C   0  0  2  0  0  3  0  0  0  0  0  0
  188.5920  177.4650  140.8710 C   0  0  0  0  0  2  0  0  0  0  0  0
  188.1510  177.4910  138.4120 C   0  0  0  0  0  3  0  0  0  0  0  0
  189.2750  177.0000  137.8870 C   0  0  0  0  0  3  0  0  0  0  0  0
  188.0820  178.2690  139.6900 C   0  0  1  0  0  3  0  0  0  0  0  0
  190.7660  176.6050  139.9070 C   0  0  0  0  0  2  0  0  0  0  0  0
  190.5470  177.0600  138.5400 N   0  0  0  0  0  2  0  0  0  0  0  0
  186.7070  178.6650  139.9380 N   0  0  0  0  0  2  0  0  0  0  0  0
  185.3660  179.5080  141.7020 N   0  0  0  0  0  1  0  0  0  0  0  0
  186.5290  178.7020  141.3790 C   0  0  0  0  0  2  0  0  0  0  0  0
  189.2550  178.3360  145.7070 C   0  0  0  0  0  2  0  0  0  0  0  0
  188.1890  177.3690  146.2410 C   0  0  2  0  0  3  0  0  0  0  0  0
  186.4510  177.2480  144.6150 O   0  0  0  0  0  0  0  0  0  0  0  0
  185.9460  178.4730  146.4820 O   0  0  0  0  0  1  0  0  0  0  0  0
  186.8140  177.6820  145.7380 C   0  0  0  0  0  0  0  0  0  0  0  0
  188.2210  177.2140  147.7300 C   0  0  0  0  0  3  0  0  0  0  0  0
  188.8210  178.0790  148.4620 N   0  0  0  0  0  2  0  0  0  0  0  0
  1  4  1  1  0  0  0
  1 19  1  0  0  0  0
  2  8  1  6  0  0  0
  2  3  1  0  0  0  0
  2  1  1  0  0  0  0
  3  1  1  0  0  0  0
  4  5  1  0  0  0  0
  5  7  1  0  0  0  0
  7  6  1  0  0  0  0
  9  8  1  1  0  0  0
 10  9  1  0  0  0  0
 11 13  1  0  0  0  0
 12 11  2  0  0  0  0
 12 15  1  0  0  0  0
 13 16  1  1  0  0  0
 13 10  1  0  0  0  0
 14  9  1  0  0  0  0
 15 14  1  0  0  0  0
 16 18  1  0  0  0  0
 18 17  1  0  0  0  0
 20 19  1  1  0  0  0
 20 24  1  0  0  0  0
 21 23  2  0  0  0  0
 23 20  1  0  0  0  0
 23 22  1  0  0  0  0
 24 25  2  0  0  0  0
M  END
>  <MODEL>
1

>  <REMARK>
 VINA RESULT:      -6.7      0.000      0.000
  Name = 
  11 active torsions:
  status: ('A' for Active; 'I' for Inactive)
    1  A    between atoms: C_2  and  C_4
    2  A    between atoms: C_2  and  C_24
    3  A    between atoms: C_4  and  C_19
    4  A    between atoms: C_6  and  C_10
    5  A    between atoms: C_7  and  N_14
    6  A    between atoms: C_8  and  N_14
    7  A    between atoms: C_9  and  C_10
    8  A    between atoms: C_10  and  C_19
    9  A    between atoms: N_13  and  C_17
   10  A    between atoms: N_13  and  C_25
   11  A    between atoms: C_18  and  C_24
                            x       y       z     vdW  Elec       q    Type
                         _______ _______ _______ _____ _____    ______ ____

>  <TORSDO>
F 11

$$$$
=
 OpenBabel10232409463D

 25 26  0  0  1  0  0  0  0  0999 V2000
  188.2320  177.6900  144.4840 C   0  0  2  0  0  0  0  0  0  0  0  0
  187.4260  177.8890  143.2030 C   0  0  1  0  0  3  0  0  0  0  0  0
  187.9200  176.5050  143.5960 C   0  0  0  0  0  2  0  0  0  0  0  0
  187.4990  177.6480  145.8290 C   0  0  0  0  0  2  0  0  0  0  0  0
  188.2800  176.8830  146.8880 C   0  0  0  0  0  2  0  0  0  0  0  0
  189.2060  178.4420  148.5710 C   0  0  0  0  0  1  0  0  0  0  0  0
  188.0670  177.4960  148.2580 C   0  0  0  0  0  2  0  0  0  0  0  0
  185.9920  177.9840  143.4750 N   0  0  0  0  0  2  0  0  0  0  0  0
  185.2260  178.0870  142.2300 C   0  0  2  0  0  3  0  0  0  0  0  0
  186.0050  178.8320  141.1510 C   0  0  0  0  0  2  0  0  0  0  0  0
  184.2610  179.2030  139.4000 C   0  0  0  0  0  3  0  0  0  0  0  0
  183.1170  179.1800  140.0870 C   0  0  0  0  0  3  0  0  0  0  0  0
  185.4920  178.4390  139.7780 C   0  0  1  0  0  3  0  0  0  0  0  0
  183.8530  178.7010  142.4730 C   0  0  0  0  0  2  0  0  0  0  0  0
  182.9580  178.5030  141.3390 N   0  0  0  0  0  2  0  0  0  0  0  0
  186.5300  178.6830  138.7920 N   0  0  0  0  0  2  0  0  0  0  0  0
  188.8880  178.9110  138.8790 N   0  0  0  0  0  1  0  0  0  0  0  0
  187.7590  178.1140  139.3180 C   0  0  0  0  0  2  0  0  0  0  0  0
  189.7100  178.0810  144.4230 C   0  0  0  0  0  2  0  0  0  0  0  0
  190.6440  176.9930  143.8720 C   0  0  2  0  0  3  0  0  0  0  0  0
  192.0740  175.2900  144.7290 O   0  0  0  0  0  0  0  0  0  0  0  0
  191.7930  177.1020  146.1010 O   0  0  0  0  0  1  0  0  0  0  0  0
  191.5500  176.4190  144.9150 C   0  0  0  0  0  0  0  0  0  0  0  0
  191.3940  177.4190  142.6480 C   0  0  0  0  0  3  0  0  0  0  0  0
  190.8180  177.4330  141.5030 N   0  0  0  0  0  2  0  0  0  0  0  0
  1 19  1  1  0  0  0
  1  4  1  0  0  0  0
  2  8  1  1  0  0  0
  2  3  1  0  0  0  0
  2  1  1  0  0  0  0
  3  1  1  0  0  0  0
  4  5  1  0  0  0  0
  5  7  1  0  0  0  0
  7  6  1  0  0  0  0
  9 14  1  0  0  0  0
  9  8  1  1  0  0  0
 10  9  1  0  0  0  0
 11 13  1  0  0  0  0
 11 12  2  0  0  0  0
 12 15  1  0  0  0  0
 13 16  1  6  0  0  0
 13 10  1  0  0  0  0
 15 14  1  0  0  0  0
 16 18  1  0  0  0  0
 17 18  1  0  0  0  0
 20 24  1  6  0  0  0
 20 19  1  0  0  0  0
 20 23  1  0  0  0  0
 21 23  2  0  0  0  0
 23 22  1  0  0  0  0
 25 24  2  0  0  0  0
M  END
>  <MODEL>
2

>  <REMARK>
 VINA RESULT:      -6.7      2.584      4.799
  Name = 
  11 active torsions:
  status: ('A' for Active; 'I' for Inactive)
    1  A    between atoms: C_2  and  C_4
    2  A    between atoms: C_2  and  C_24
    3  A    between atoms: C_4  and  C_19
    4  A    between atoms: C_6  and  C_10
    5  A    between atoms: C_7  and  N_14
    6  A    between atoms: C_8  and  N_14
    7  A    between atoms: C_9  and  C_10
    8  A    between atoms: C_10  and  C_19
    9  A    between atoms: N_13  and  C_17
   10  A    between atoms: N_13  and  C_25
   11  A    between atoms: C_18  and  C_24
                            x       y       z     vdW  Elec       q    Type
                         _______ _______ _______ _____ _____    ______ ____

>  <TORSDO>
F 11

$$$$
=
 OpenBabel10232409463D

 25 26  0  0  1  0  0  0  0  0999 V2000
  189.7380  177.5930  143.4150 C   0  0  2  0  0  0  0  0  0  0  0  0
  188.2650  177.1950  143.4320 C   0  0  1  0  0  3  0  0  0  0  0  0
  189.3510  176.1300  143.4120 C   0  0  0  0  0  2  0  0  0  0  0  0
  190.4060  178.0400  144.7210 C   0  0  0  0  0  2  0  0  0  0  0  0
  191.3750  176.9970  145.2580 C   0  0  0  0  0  2  0  0  0  0  0  0
  192.1540  175.7800  147.2670 C   0  0  0  0  0  1  0  0  0  0  0  0
  191.0780  176.6890  146.7130 C   0  0  0  0  0  2  0  0  0  0  0  0
  187.6960  177.2770  144.7770 N   0  0  0  0  0  2  0  0  0  0  0  0
  186.2730  177.6240  144.7270 C   0  0  2  0  0  3  0  0  0  0  0  0
  185.9050  178.2950  143.4080 C   0  0  0  0  0  2  0  0  0  0  0  0
  183.5950  179.1300  143.8660 C   0  0  0  0  0  3  0  0  0  0  0  0
  183.5690  179.2670  145.1940 C   0  0  0  0  0  3  0  0  0  0  0  0
  184.4230  178.1190  143.1350 C   0  0  1  0  0  3  0  0  0  0  0  0
  185.8660  178.4650  145.9310 C   0  0  0  0  0  2  0  0  0  0  0  0
  184.4170  178.5330  146.0830 N   0  0  0  0  0  2  0  0  0  0  0  0
  184.1810  178.2430  141.7080 N   0  0  0  0  0  2  0  0  0  0  0  0
  184.8640  179.5370  139.8430 N   0  0  0  0  0  1  0  0  0  0  0  0
  185.2360  179.0840  141.1700 C   0  0  0  0  0  2  0  0  0  0  0  0
  190.3040  178.0420  142.0660 C   0  0  0  0  0  2  0  0  0  0  0  0
  189.7390  177.2960  140.8490 C   0  0  2  0  0  3  0  0  0  0  0  0
  190.5470  175.8420  139.1420 O   0  0  0  0  0  0  0  0  0  0  0  0
  192.0860  177.3280  139.9560 O   0  0  0  0  0  1  0  0  0  0  0  0
  190.8050  176.7890  139.9290 C   0  0  0  0  0  0  0  0  0  0  0  0
  188.6850  178.0680  140.1170 C   0  0  0  0  0  3  0  0  0  0  0  0
  188.9910  178.7800  139.0960 N   0  0  0  0  0  2  0  0  0  0  0  0
  1 19  1  6  0  0  0
  1  2  1  0  0  0  0
  1  4  1  0  0  0  0
  2  8  1  1  0  0  0
  3  1  1  0  0  0  0
  3  2  1  0  0  0  0
  4  5  1  0  0  0  0
  5  7  1  0  0  0  0
  7  6  1  0  0  0  0
  9  8  1  6  0  0  0
  9 14  1  0  0  0  0
 10  9  1  0  0  0  0
 11 12  2  0  0  0  0
 12 15  1  0  0  0  0
 13 16  1  6  0  0  0
 13 10  1  0  0  0  0
 13 11  1  0  0  0  0
 14 15  1  0  0  0  0
 17 18  1  0  0  0  0
 18 16  1  0  0  0  0
 20 24  1  6  0  0  0
 20 19  1  0  0  0  0
 21 23  2  0  0  0  0
 23 22  1  0  0  0  0
 23 20  1  0  0  0  0
 25 24  2  0  0  0  0
M  END
>  <MODEL>
3

>  <REMARK>
 VINA RESULT:      -6.7      2.911      5.661
  Name = 
  11 active torsions:
  status: ('A' for Active; 'I' for Inactive)
    1  A    between atoms: C_2  and  C_4
    2  A    between atoms: C_2  and  C_24
    3  A    between atoms: C_4  and  C_19
    4  A    between atoms: C_6  and  C_10
    5  A    between atoms: C_7  and  N_14
    6  A    between atoms: C_8  and  N_14
    7  A    between atoms: C_9  and  C_10
    8  A    between atoms: C_10  and  C_19
    9  A    between atoms: N_13  and  C_17
   10  A    between atoms: N_13  and  C_25
   11  A    between atoms: C_18  and  C_24
                            x       y       z     vdW  Elec       q    Type
                         _______ _______ _______ _____ _____    ______ ____

>  <TORSDO>
F 11

$$$$
=
 OpenBabel10232409463D

 25 26  0  0  1  0  0  0  0  0999 V2000
  188.8050  177.3820  144.1910 C   0  0  2  0  0  0  0  0  0  0  0  0
  189.4640  177.7040  142.8520 C   0  0  1  0  0  3  0  0  0  0  0  0
  189.7110  176.3650  143.5300 C   0  0  0  0  0  2  0  0  0  0  0  0
  187.3330  176.9560  144.2160 C   0  0  0  0  0  2  0  0  0  0  0  0
  186.4200  178.0720  144.7030 C   0  0  0  0  0  2  0  0  0  0  0  0
  184.0960  178.8740  144.4290 C   0  0  0  0  0  1  0  0  0  0  0  0
  185.3060  178.3260  143.7060 C   0  0  0  0  0  2  0  0  0  0  0  0
  188.5400  177.5140  141.7340 N   0  0  0  0  0  2  0  0  0  0  0  0
  189.2230  177.6930  140.4500 C   0  0  2  0  0  3  0  0  0  0  0  0
  188.2330  177.7620  139.2910 C   0  0  0  0  0  2  0  0  0  0  0  0
  189.7360  177.6040  137.3020 C   0  0  0  0  0  3  0  0  0  0  0  0
  190.8110  176.9650  137.7700 C   0  0  0  0  0  3  0  0  0  0  0  0
  188.8580  178.4980  138.1210 C   0  0  1  0  0  3  0  0  0  0  0  0
  190.2850  176.6220  140.2340 C   0  0  0  0  0  2  0  0  0  0  0  0
  191.1950  176.9680  139.1490 N   0  0  0  0  0  2  0  0  0  0  0  0
  187.8050  179.0390  137.2790 N   0  0  0  0  0  2  0  0  0  0  0  0
  186.2640  177.6330  136.1530 N   0  0  0  0  0  1  0  0  0  0  0  0
  186.6460  178.1780  137.4420 C   0  0  0  0  0  2  0  0  0  0  0  0
  189.4500  178.0060  145.4310 C   0  0  0  0  0  2  0  0  0  0  0  0
  189.3780  177.1440  146.6990 C   0  0  2  0  0  3  0  0  0  0  0  0
  189.3560  178.4470  148.6950 O   0  0  0  0  0  1  0  0  0  0  0  0
  187.2980  177.7670  147.9600 O   0  0  0  0  0  0  0  0  0  0  0  0
  188.6800  177.8310  147.8320 C   0  0  0  0  0  0  0  0  0  0  0  0
  190.7040  176.5850  147.1130 C   0  0  0  0  0  3  0  0  0  0  0  0
  191.7740  176.9240  146.4950 N   0  0  0  0  0  2  0  0  0  0  0  0
  1  4  1  1  0  0  0
  1 19  1  0  0  0  0
  2  8  1  6  0  0  0
  2  3  1  0  0  0  0
  2  1  1  0  0  0  0
  3  1  1  0  0  0  0
  4  5  1  0  0  0  0
  7  6  1  0  0  0  0
  7  5  1  0  0  0  0
  9  8  1  1  0  0  0
 10  9  1  0  0  0  0
 11 12  2  0  0  0  0
 11 13  1  0  0  0  0
 12 15  1  0  0  0  0
 13 16  1  6  0  0  0
 13 10  1  0  0  0  0
 14  9  1  0  0  0  0
 15 14  1  0  0  0  0
 16 18  1  0  0  0  0
 17 18  1  0  0  0  0
 20 19  1  6  0  0  0
 20 24  1  0  0  0  0
 20 23  1  0  0  0  0
 23 22  2  0  0  0  0
 23 21  1  0  0  0  0
 25 24  2  0  0  0  0
M  END
>  <MODEL>
4

>  <REMARK>
 VINA RESULT:      -6.7      2.065      3.775
  Name = 
  11 active torsions:
  status: ('A' for Active; 'I' for Inactive)
    1  A    between atoms: C_2  and  C_4
    2  A    between atoms: C_2  and  C_24
    3  A    between atoms: C_4  and  C_19
    4  A    between atoms: C_6  and  C_10
    5  A    between atoms: C_7  and  N_14
    6  A    between atoms: C_8  and  N_14
    7  A    between atoms: C_9  and  C_10
    8  A    between atoms: C_10  and  C_19
    9  A    between atoms: N_13  and  C_17
   10  A    between atoms: N_13  and  C_25
   11  A    between atoms: C_18  and  C_24
                            x       y       z     vdW  Elec       q    Type
                         _______ _______ _______ _____ _____    ______ ____

>  <TORSDO>
F 11

$$$$
=
 OpenBabel10232409463D

 25 26  0  0  1  0  0  0  0  0999 V2000
  188.1680  177.8270  144.1310 C   0  0  2  0  0  0  0  0  0  0  0  0
  186.7970  177.8920  143.4630 C   0  0  1  0  0  3  0  0  0  0  0  0
  187.4270  176.5490  143.8020 C   0  0  0  0  0  2  0  0  0  0  0  0
  188.2790  178.0930  145.6360 C   0  0  0  0  0  2  0  0  0  0  0  0
  189.0840  177.0180  146.3530 C   0  0  0  0  0  2  0  0  0  0  0  0
  188.0390  178.1930  148.2620 C   0  0  0  0  0  1  0  0  0  0  0  0
  189.2100  177.3390  147.8290 C   0  0  0  0  0  2  0  0  0  0  0  0
  185.7370  178.1840  144.4280 N   0  0  0  0  0  2  0  0  0  0  0  0
  184.4220  178.1780  143.7830 C   0  0  2  0  0  3  0  0  0  0  0  0
  184.5020  178.6610  142.3390 C   0  0  0  0  0  2  0  0  0  0  0  0
  182.0920  178.9480  141.7420 C   0  0  0  0  0  3  0  0  0  0  0  0
  181.5000  179.1550  142.9200 C   0  0  0  0  0  3  0  0  0  0  0  0
  183.3260  178.1210  141.5470 C   0  0  1  0  0  3  0  0  0  0  0  0
  183.4030  178.9690  144.5960 C   0  0  0  0  0  2  0  0  0  0  0  0
  182.0360  178.6990  144.1670 N   0  0  0  0  0  2  0  0  0  0  0  0
  183.6690  178.0970  140.1360 N   0  0  0  0  0  2  0  0  0  0  0  0
  184.3790  180.0970  139.0800 N   0  0  0  0  0  1  0  0  0  0  0  0
  184.7830  179.0130  139.9540 C   0  0  0  0  0  2  0  0  0  0  0  0
  189.3770  178.0410  143.2180 C   0  0  0  0  0  2  0  0  0  0  0  0
  190.1570  176.7650  142.8680 C   0  0  2  0  0  3  0  0  0  0  0  0
  191.8740  175.4370  143.8520 O   0  0  0  0  0  0  0  0  0  0  0  0
  191.9840  177.6730  144.3300 O   0  0  0  0  0  1  0  0  0  0  0  0
  191.3890  176.5880  143.6980 C   0  0  0  0  0  0  0  0  0  0  0  0
  190.4410  176.6260  141.4040 C   0  0  0  0  0  3  0  0  0  0  0  0
  189.6080  177.0680  140.5350 N   0  0  0  0  0  2  0  0  0  0  0  0
  1 19  1  6  0  0  0
  1  4  1  0  0  0  0
  2  3  1  0  0  0  0
  2  1  1  0  0  0  0
  2  8  1  1  0  0  0
  3  1  1  0  0  0  0
  4  5  1  0  0  0  0
  5  7  1  0  0  0  0
  7  6  1  0  0  0  0
  9  8  1  1  0  0  0
  9 14  1  0  0  0  0
 10  9  1  0  0  0  0
 11 12  2  0  0  0  0
 12 15  1  0  0  0  0
 13 16  1  6  0  0  0
 13 11  1  0  0  0  0
 13 10  1  0  0  0  0
 15 14  1  0  0  0  0
 17 18  1  0  0  0  0
 18 16  1  0  0  0  0
 20 24  1  6  0  0  0
 20 19  1  0  0  0  0
 20 23  1  0  0  0  0
 23 21  2  0  0  0  0
 23 22  1  0  0  0  0
 25 24  2  0  0  0  0
M  END
>  <MODEL>
5

>  <REMARK>
 VINA RESULT:      -6.6      3.021      5.624
  Name = 
  11 active torsions:
  status: ('A' for Active; 'I' for Inactive)
    1  A    between atoms: C_2  and  C_4
    2  A    between atoms: C_2  and  C_24
    3  A    between atoms: C_4  and  C_19
    4  A    between atoms: C_6  and  C_10
    5  A    between atoms: C_7  and  N_14
    6  A    between atoms: C_8  and  N_14
    7  A    between atoms: C_9  and  C_10
    8  A    between atoms: C_10  and  C_19
    9  A    between atoms: N_13  and  C_17
   10  A    between atoms: N_13  and  C_25
   11  A    between atoms: C_18  and  C_24
                            x       y       z     vdW  Elec       q    Type
                         _______ _______ _______ _____ _____    ______ ____

>  <TORSDO>
F 11

$$$$
=
 OpenBabel10232409463D

 25 26  0  0  1  0  0  0  0  0999 V2000
  190.2220  177.6820  144.5570 C   0  0  2  0  0  0  0  0  0  0  0  0
  189.9780  178.0140  143.0860 C   0  0  1  0  0  3  0  0  0  0  0  0
  191.1230  178.6690  143.8450 C   0  0  0  0  0  2  0  0  0  0  0  0
  190.9270  176.3700  144.9190 C   0  0  0  0  0  2  0  0  0  0  0  0
  191.9740  176.5610  146.0080 C   0  0  0  0  0  2  0  0  0  0  0  0
  192.7640  175.7880  148.2210 C   0  0  0  0  0  1  0  0  0  0  0  0
  191.6030  175.7750  147.2500 C   0  0  0  0  0  2  0  0  0  0  0  0
  190.5160  176.9810  142.2010 N   0  0  0  0  0  2  0  0  0  0  0  0
  189.9540  177.0980  140.8530 C   0  0  2  0  0  3  0  0  0  0  0  0
  191.0440  177.2950  139.8050 C   0  0  0  0  0  2  0  0  0  0  0  0
  189.7220  177.9010  137.7730 C   0  0  0  0  0  3  0  0  0  0  0  0
  188.5970  178.4160  138.2730 C   0  0  0  0  0  3  0  0  0  0  0  0
  190.5430  176.8440  138.4460 C   0  0  1  0  0  3  0  0  0  0  0  0
  188.8930  178.1900  140.7890 C   0  0  0  0  0  2  0  0  0  0  0  0
  188.0910  178.0990  139.5750 N   0  0  0  0  0  2  0  0  0  0  0  0
  191.6780  176.5090  137.6040 N   0  0  0  0  0  2  0  0  0  0  0  0
  193.9300  175.8010  137.8100 N   0  0  0  0  0  1  0  0  0  0  0  0
  192.8580  176.5390  138.4500 C   0  0  0  0  0  2  0  0  0  0  0  0
  189.3020  178.3690  145.5680 C   0  0  0  0  0  2  0  0  0  0  0  0
  188.1570  177.4950  146.0990 C   0  0  2  0  0  3  0  0  0  0  0  0
  186.3720  177.5570  144.5200 O   0  0  0  0  0  0  0  0  0  0  0  0
  186.0520  178.8310  146.3950 O   0  0  0  0  0  1  0  0  0  0  0  0
  186.8100  177.9510  145.6320 C   0  0  0  0  0  0  0  0  0  0  0  0
  188.2000  177.2970  147.5820 C   0  0  0  0  0  3  0  0  0  0  0  0
  188.9250  178.0550  148.3190 N   0  0  0  0  0  2  0  0  0  0  0  0
  1  4  1  1  0  0  0
  1 19  1  0  0  0  0
  2  8  1  6  0  0  0
  2  3  1  0  0  0  0
  2  1  1  0  0  0  0
  3  1  1  0  0  0  0
  4  5  1  0  0  0  0
  5  7  1  0  0  0  0
  7  6  1  0  0  0  0
  9  8  1  1  0  0  0
 10  9  1  0  0  0  0
 11 12  2  0  0  0  0
 11 13  1  0  0  0  0
 12 15  1  0  0  0  0
 13 16  1  6  0  0  0
 13 10  1  0  0  0  0
 14  9  1  0  0  0  0
 15 14  1  0  0  0  0
 16 18  1  0  0  0  0
 17 18  1  0  0  0  0
 20 19  1  1  0  0  0
 20 24  1  0  0  0  0
 21 23  2  0  0  0  0
 23 20  1  0  0  0  0
 23 22  1  0  0  0  0
 24 25  2  0  0  0  0
M  END
>  <MODEL>
6

>  <REMARK>
 VINA RESULT:      -6.5      1.116      3.025
  Name = 
  11 active torsions:
  status: ('A' for Active; 'I' for Inactive)
    1  A    between atoms: C_2  and  C_4
    2  A    between atoms: C_2  and  C_24
    3  A    between atoms: C_4  and  C_19
    4  A    between atoms: C_6  and  C_10
    5  A    between atoms: C_7  and  N_14
    6  A    between atoms: C_8  and  N_14
    7  A    between atoms: C_9  and  C_10
    8  A    between atoms: C_10  and  C_19
    9  A    between atoms: N_13  and  C_17
   10  A    between atoms: N_13  and  C_25
   11  A    between atoms: C_18  and  C_24
                            x       y       z     vdW  Elec       q    Type
                         _______ _______ _______ _____ _____    ______ ____

>  <TORSDO>
F 11

$$$$
=
 OpenBabel10232409463D

 25 26  0  0  1  0  0  0  0  0999 V2000
  188.3830  177.4720  144.4990 C   0  0  2  0  0  0  0  0  0  0  0  0
  188.7670  177.7190  143.0420 C   0  0  1  0  0  3  0  0  0  0  0  0
  188.9530  176.3440  143.6660 C   0  0  0  0  0  2  0  0  0  0  0  0
  186.9060  177.2730  144.8590 C   0  0  0  0  0  2  0  0  0  0  0  0
  186.2830  178.5300  145.4490 C   0  0  0  0  0  2  0  0  0  0  0  0
  184.7200  179.5780  143.8440 C   0  0  0  0  0  1  0  0  0  0  0  0
  184.8300  178.6520  145.0350 C   0  0  0  0  0  2  0  0  0  0  0  0
  187.5990  177.6950  142.1620 N   0  0  0  0  0  2  0  0  0  0  0  0
  188.0000  177.5670  140.7590 C   0  0  2  0  0  3  0  0  0  0  0  0
  189.5160  177.5970  140.6020 C   0  0  0  0  0  2  0  0  0  0  0  0
  189.7890  177.8190  138.1290 C   0  0  0  0  0  3  0  0  0  0  0  0
  188.6500  178.3940  137.7380 C   0  0  0  0  0  3  0  0  0  0  0  0
  189.9170  176.9090  139.3110 C   0  0  1  0  0  3  0  0  0  0  0  0
  187.3130  178.6130  139.8890 C   0  0  0  0  0  2  0  0  0  0  0  0
  187.4230  178.2990  138.4700 N   0  0  0  0  0  2  0  0  0  0  0  0
  191.2910  176.4520  139.4190 N   0  0  0  0  0  2  0  0  0  0  0  0
  193.4160  177.3890  139.8970 N   0  0  0  0  0  1  0  0  0  0  0  0
  192.0030  177.4310  140.2230 C   0  0  0  0  0  2  0  0  0  0  0  0
  189.3750  177.9650  145.5550 C   0  0  0  0  0  2  0  0  0  0  0  0
  189.5280  177.0480  146.7760 C   0  0  2  0  0  3  0  0  0  0  0  0
  187.7210  177.2060  148.3220 O   0  0  0  0  0  0  0  0  0  0  0  0
  189.5090  178.5610  148.7800 O   0  0  0  0  0  1  0  0  0  0  0  0
  188.8740  177.5980  148.0050 C   0  0  0  0  0  0  0  0  0  0  0  0
  190.9440  176.6320  147.0320 C   0  0  0  0  0  3  0  0  0  0  0  0
  191.8560  176.8570  146.1600 N   0  0  0  0  0  2  0  0  0  0  0  0
  1  4  1  1  0  0  0
  1 19  1  0  0  0  0
  2  8  1  6  0  0  0
  2  3  1  0  0  0  0
  2  1  1  0  0  0  0
  3  1  1  0  0  0  0
  4  5  1  0  0  0  0
  6  7  1  0  0  0  0
  7  5  1  0  0  0  0
  9  8  1  1  0  0  0
 10  9  1  0  0  0  0
 11 13  1  0  0  0  0
 12 11  2  0  0  0  0
 12 15  1  0  0  0  0
 13 16  1  1  0  0  0
 13 10  1  0  0  0  0
 14  9  1  0  0  0  0
 15 14  1  0  0  0  0
 16 18  1  0  0  0  0
 17 18  1  0  0  0  0
 20 19  1  6  0  0  0
 20 24  1  0  0  0  0
 20 23  1  0  0  0  0
 23 21  2  0  0  0  0
 23 22  1  0  0  0  0
 25 24  2  0  0  0  0
M  END
>  <MODEL>
7

>  <REMARK>
 VINA RESULT:      -6.5      2.022      4.381
  Name = 
  11 active torsions:
  status: ('A' for Active; 'I' for Inactive)
    1  A    between atoms: C_2  and  C_4
    2  A    between atoms: C_2  and  C_24
    3  A    between atoms: C_4  and  C_19
    4  A    between atoms: C_6  and  C_10
    5  A    between atoms: C_7  and  N_14
    6  A    between atoms: C_8  and  N_14
    7  A    between atoms: C_9  and  C_10
    8  A    between atoms: C_10  and  C_19
    9  A    between atoms: N_13  and  C_17
   10  A    between atoms: N_13  and  C_25
   11  A    between atoms: C_18  and  C_24
                            x       y       z     vdW  Elec       q    Type
                         _______ _______ _______ _____ _____    ______ ____

>  <TORSDO>
F 11

$$$$
=
 OpenBabel10232409463D

 25 26  0  0  1  0  0  0  0  0999 V2000
  189.1400  176.9740  142.2180 C   0  0  2  0  0  0  0  0  0  0  0  0
  188.1260  176.3030  143.1410 C   0  0  1  0  0  3  0  0  0  0  0  0
  189.5350  175.7450  143.0080 C   0  0  0  0  0  2  0  0  0  0  0  0
  189.8480  178.2500  142.6880 C   0  0  0  0  0  2  0  0  0  0  0  0
  191.2940  177.9920  143.0880 C   0  0  0  0  0  2  0  0  0  0  0  0
  191.5290  177.2460  145.4360 C   0  0  0  0  0  1  0  0  0  0  0  0
  191.5440  178.4450  144.5130 C   0  0  0  0  0  2  0  0  0  0  0  0
  188.0050  177.0080  144.4170 N   0  0  0  0  0  2  0  0  0  0  0  0
  186.6170  177.4010  144.6720 C   0  0  2  0  0  3  0  0  0  0  0  0
  186.0800  178.3130  143.5740 C   0  0  0  0  0  2  0  0  0  0  0  0
  183.9300  179.1190  144.5590 C   0  0  0  0  0  3  0  0  0  0  0  0
  184.1280  179.0110  145.8740 C   0  0  0  0  0  3  0  0  0  0  0  0
  184.5660  178.2340  143.5310 C   0  0  1  0  0  3  0  0  0  0  0  0
  186.4610  178.0180  146.0570 C   0  0  0  0  0  2  0  0  0  0  0  0
  185.0640  178.1010  146.4630 N   0  0  0  0  0  2  0  0  0  0  0  0
  184.1040  178.6240  142.2100 N   0  0  0  0  0  2  0  0  0  0  0  0
  184.9060  179.5450  140.1780 N   0  0  0  0  0  1  0  0  0  0  0  0
  185.2860  178.8590  141.3990 C   0  0  0  0  0  2  0  0  0  0  0  0
  188.9990  176.6750  140.7240 C   0  0  0  0  0  2  0  0  0  0  0  0
  189.6900  177.6840  139.7950 C   0  0  2  0  0  3  0  0  0  0  0  0
  189.1320  179.2940  138.1290 O   0  0  0  0  0  0  0  0  0  0  0  0
  187.4550  177.8280  138.6600 O   0  0  0  0  0  1  0  0  0  0  0  0
  188.7520  178.3060  138.8090 C   0  0  0  0  0  0  0  0  0  0  0  0
  190.9180  177.1380  139.1350 C   0  0  0  0  0  3  0  0  0  0  0  0
  190.9730  175.9070  138.7800 N   0  0  0  0  0  2  0  0  0  0  0  0
  1 19  1  6  0  0  0
  1  4  1  0  0  0  0
  1  3  1  0  0  0  0
  1  2  1  0  0  0  0
  2  8  1  1  0  0  0
  3  2  1  0  0  0  0
  4  5  1  0  0  0  0
  5  7  1  0  0  0  0
  7  6  1  0  0  0  0
  9  8  1  6  0  0  0
  9 14  1  0  0  0  0
 10  9  1  0  0  0  0
 11 12  2  0  0  0  0
 12 15  1  0  0  0  0
 13 16  1  6  0  0  0
 13 10  1  0  0  0  0
 13 11  1  0  0  0  0
 14 15  1  0  0  0  0
 17 18  1  0  0  0  0
 18 16  1  0  0  0  0
 20 24  1  6  0  0  0
 20 19  1  0  0  0  0
 21 23  2  0  0  0  0
 22 23  1  0  0  0  0
 23 20  1  0  0  0  0
 25 24  2  0  0  0  0
M  END
>  <MODEL>
8

>  <REMARK>
 VINA RESULT:      -6.5      2.741      6.002
  Name = 
  11 active torsions:
  status: ('A' for Active; 'I' for Inactive)
    1  A    between atoms: C_2  and  C_4
    2  A    between atoms: C_2  and  C_24
    3  A    between atoms: C_4  and  C_19
    4  A    between atoms: C_6  and  C_10
    5  A    between atoms: C_7  and  N_14
    6  A    between atoms: C_8  and  N_14
    7  A    between atoms: C_9  and  C_10
    8  A    between atoms: C_10  and  C_19
    9  A    between atoms: N_13  and  C_17
   10  A    between atoms: N_13  and  C_25
   11  A    between atoms: C_18  and  C_24
                            x       y       z     vdW  Elec       q    Type
                         _______ _______ _______ _____ _____    ______ ____

>  <TORSDO>
F 11

$$$$
=
 OpenBabel10232409463D

 25 26  0  0  1  0  0  0  0  0999 V2000
  188.3560  177.2570  144.5770 C   0  0  2  0  0  0  0  0  0  0  0  0
  189.0780  177.1830  143.2330 C   0  0  1  0  0  3  0  0  0  0  0  0
  187.8780  176.2900  143.5140 C   0  0  0  0  0  2  0  0  0  0  0  0
  187.3750  178.4060  144.8350 C   0  0  0  0  0  2  0  0  0  0  0  0
  185.9240  177.9570  144.7350 C   0  0  0  0  0  2  0  0  0  0  0  0
  183.6170  178.8230  144.9590 C   0  0  0  0  0  1  0  0  0  0  0  0
  185.0210  178.8890  145.5200 C   0  0  0  0  0  2  0  0  0  0  0  0
  188.6710  178.2680  142.3400 N   0  0  0  0  0  2  0  0  0  0  0  0
  189.3520  178.1670  141.0460 C   0  0  2  0  0  3  0  0  0  0  0  0
  188.3620  177.9580  139.9050 C   0  0  0  0  0  2  0  0  0  0  0  0
  189.8690  177.3840  137.9960 C   0  0  0  0  0  3  0  0  0  0  0  0
  190.9530  176.8850  138.5910 C   0  0  0  0  0  3  0  0  0  0  0  0
  188.9750  178.4240  138.5970 C   0  0  1  0  0  3  0  0  0  0  0  0
  190.4320  177.0920  141.0710 C   0  0  0  0  0  2  0  0  0  0  0  0
  191.3370  177.2020  139.9340 N   0  0  0  0  0  2  0  0  0  0  0  0
  187.9130  178.7450  137.6600 N   0  0  0  0  0  2  0  0  0  0  0  0
  185.5770  178.8060  138.0610 N   0  0  0  0  0  1  0  0  0  0  0  0
  186.7540  177.9580  138.0440 C   0  0  0  0  0  2  0  0  0  0  0  0
  189.0280  176.5370  145.7480 C   0  0  0  0  0  2  0  0  0  0  0  0
  189.9530  177.4170  146.6020 C   0  0  2  0  0  3  0  0  0  0  0  0
  191.9130  176.9290  147.8660 O   0  0  0  0  0  1  0  0  0  0  0  0
  191.9730  176.2430  145.6820 O   0  0  0  0  0  0  0  0  0  0  0  0
  191.3260  176.8420  146.7570 C   0  0  0  0  0  0  0  0  0  0  0  0
  189.3540  177.8040  147.9180 C   0  0  0  0  0  3  0  0  0  0  0  0
  188.2240  177.3220  148.2860 N   0  0  0  0  0  2  0  0  0  0  0  0
  1  4  1  1  0  0  0
  1 19  1  0  0  0  0
  2  8  1  6  0  0  0
  2  3  1  0  0  0  0
  2  1  1  0  0  0  0
  3  1  1  0  0  0  0
  5  4  1  0  0  0  0
  5  7  1  0  0  0  0
  6  7  1  0  0  0  0
  9 14  1  0  0  0  0
  9  8  1  1  0  0  0
 10  9  1  0  0  0  0
 11 12  2  0  0  0  0
 11 13  1  0  0  0  0
 12 15  1  0  0  0  0
 13 16  1  6  0  0  0
 13 10  1  0  0  0  0
 15 14  1  0  0  0  0
 16 18  1  0  0  0  0
 18 17  1  0  0  0  0
 20 19  1  1  0  0  0
 20 23  1  0  0  0  0
 20 24  1  0  0  0  0
 22 23  2  0  0  0  0
 23 21  1  0  0  0  0
 24 25  2  0  0  0  0
M  END
>  <MODEL>
9

>  <REMARK>
 VINA RESULT:      -6.3      2.386      4.019
  Name = 
  11 active torsions:
  status: ('A' for Active; 'I' for Inactive)
    1  A    between atoms: C_2  and  C_4
    2  A    between atoms: C_2  and  C_24
    3  A    between atoms: C_4  and  C_19
    4  A    between atoms: C_6  and  C_10
    5  A    between atoms: C_7  and  N_14
    6  A    between atoms: C_8  and  N_14
    7  A    between atoms: C_9  and  C_10
    8  A    between atoms: C_10  and  C_19
    9  A    between atoms: N_13  and  C_17
   10  A    between atoms: N_13  and  C_25
   11  A    between atoms: C_18  and  C_24
                            x       y       z     vdW  Elec       q    Type
                         _______ _______ _______ _____ _____    ______ ____

>  <TORSDO>
F 11

$$$$
