=
 OpenBabel10232409153D

 67 75  0  0  1  0  0  0  0  0999 V2000
  185.5750  177.8210  139.2300 C   0  0  1  0  0  3  0  0  0  0  0  0
  192.2860  176.3300  137.6710 N   0  0  0  0  0  0  0  0  0  0  0  0
  190.6510  176.0930  135.9460 C   0  0  0  0  0  3  0  0  0  0  0  0
  189.2860  178.2480  139.5800 C   0  0  1  0  0  3  0  0  0  0  0  0
  189.1150  177.5340  138.4890 C   0  0  1  0  0  3  0  0  0  0  0  0
  191.6970  175.8540  135.0400 C   0  0  0  0  0  3  0  0  0  0  0  0
  187.9490  178.5760  140.1570 C   0  0  1  0  0  3  0  0  0  0  0  0
  190.2130  176.6090  138.3570 C   0  0  1  0  0  3  0  0  0  0  0  0
  190.5810  177.9270  140.2880 C   0  0  0  0  0  2  0  0  0  0  0  0
  187.0730  177.9130  139.1200 C   0  0  0  0  0  0  0  0  0  0  0  0
  192.3780  176.7390  138.9300 N   0  0  0  0  0  2  0  0  0  0  0  0
  193.0370  175.8570  135.4720 C   0  0  0  0  0  0  0  0  0  0  0  0
  187.7510  177.2780  138.2130 N   0  0  0  0  0  0  0  0  0  0  0  0
  191.0000  176.2970  137.2760 C   0  0  2  0  0  3  0  0  0  0  0  0
  193.3230  176.1270  136.8230 C   0  0  0  0  0  3  0  0  0  0  0  0
  191.1040  176.8770  139.3610 C   0  0  2  0  0  3  0  0  0  0  0  0
  187.7880  177.9330  141.3870 O   0  0  0  0  0  0  0  0  0  0  0  0
  188.8020  178.4510  142.1970 C   0  0  0  0  0  1  0  0  0  0  0  0
  194.0820  175.5990  134.5290 N   0  0  0  0  0  2  0  0  0  0  0  0
  196.3280  176.1900  134.3970 O   0  0  0  0  0  1  0  0  0  0  0  0
  195.4400  175.2530  134.9280 C   0  0  2  0  0  3  0  0  0  0  0  0
  197.6090  172.6520  135.1950 C   0  0  0  0  0  2  0  0  0  0  0  0
  197.2070  173.7230  134.3510 O   0  0  0  0  0  0  0  0  0  0  0  0
  196.4480  172.1440  135.8930 N   0  0  0  0  0  0  0  0  0  0  0  0
  195.7960  173.8540  134.4330 C   0  0  1  0  0  3  0  0  0  0  0  0
  195.3370  172.8360  135.3970 C   0  0  0  0  0  0  0  0  0  0  0  0
  193.8190  172.2210  135.4030 S   0  0  0  0  0  0  0  0  0  0  0  0
  197.1340  169.8060  135.7680 C   0  0  0  0  0  1  0  0  0  0  0  0
  196.4090  170.8620  136.5820 C   0  0  0  0  0  2  0  0  0  0  0  0
  184.7450  177.9310  141.6080 N   0  0  0  0  0  2  0  0  0  0  0  0
  185.0710  178.6120  140.3980 C   0  0  0  0  0  0  0  0  0  0  0  0
  184.9530  179.8660  140.3180 O   0  0  0  0  0  0  0  0  0  0  0  0
  185.2440  179.3730  144.9210 C   0  0  0  0  0  2  0  0  0  0  0  0
  184.8820  178.1700  144.0760 C   0  0  2  0  0  0  0  0  0  0  0  0
  185.3160  179.4640  143.4120 C   0  0  1  0  0  3  0  0  0  0  0  0
  184.2210  178.6290  142.7770 C   0  0  1  0  0  3  0  0  0  0  0  0
  186.0460  177.1910  143.9330 C   0  0  0  0  0  2  0  0  0  0  0  0
  186.8970  177.2900  145.0360 O   0  0  0  0  0  0  0  0  0  0  0  0
  188.1780  177.0970  144.5170 C   0  0  0  0  0  2  0  0  0  0  0  0
  189.2060  177.0240  145.6470 C   0  0  1  0  0  3  0  0  0  0  0  0
  190.6720  176.9240  145.1380 C   0  0  0  0  0  0  0  0  0  0  0  0
  191.3730  178.2650  145.2880 C   0  0  0  0  0  1  0  0  0  0  0  0
  190.7350  176.5440  143.6540 C   0  0  0  0  0  2  0  0  0  0  0  0
  192.0550  176.4680  143.2000 O   0  0  0  0  0  1  0  0  0  0  0  0
  191.0170  175.8230  147.2710 O   0  0  0  0  0  1  0  0  0  0  0  0
  191.4730  175.9020  145.9520 C   0  0  0  0  0  2  0  0  0  0  0  0
  189.0050  178.2110  146.5890 C   0  0  0  0  0  2  0  0  0  0  0  0
  188.1170  178.7020  148.7560 O   0  0  0  0  0  1  0  0  0  0  0  0
  188.8330  177.7510  148.0270 C   0  0  0  0  0  2  0  0  0  0  0  0
  184.8760  178.2560  137.9430 C   0  0  0  0  0  2  0  0  0  0  0  0
  183.6010  177.4570  137.7070 C   0  0  1  0  0  3  0  0  0  0  0  0
  182.5390  178.3020  137.3740 O   0  0  0  0  0  1  0  0  0  0  0  0
  183.8150  176.4160  136.6140 C   0  0  0  0  0  2  0  0  0  0  0  0
  182.2450  175.8720  135.8630 S   0  0  0  0  0  0  0  0  0  0  0  0
  183.0920  175.1770  134.4200 C   0  0  0  0  0  2  0  0  0  0  0  0
  184.5960  175.2400  134.6350 C   0  0  0  0  0  2  0  0  0  0  0  0
  187.6890  172.0950  136.6030 C   0  0  2  0  0  3  0  0  0  0  0  0
  187.8550  170.8280  136.0310 O   0  0  0  0  0  1  0  0  0  0  0  0
  184.0440  172.5310  134.8480 S   0  0  0  0  0  0  0  0  0  0  0  0
  185.2490  173.8620  134.5350 C   0  0  2  0  0  3  0  0  0  0  0  0
  185.2570  171.6150  135.8570 C   0  0  0  0  0  2  0  0  0  0  0  0
  189.5150  172.5450  135.0490 O   0  0  0  0  0  1  0  0  0  0  0  0
  186.2440  172.6210  136.4280 C   0  0  2  0  0  3  0  0  0  0  0  0
  188.0290  174.9120  134.4070 O   0  0  0  0  0  0  0  0  0  0  0  0
  186.3230  173.7230  135.5010 N   0  0  0  0  0  0  0  0  0  0  0  0
  187.6760  174.0100  135.2140 C   0  0  0  0  0  0  0  0  0  0  0  0
  188.6180  173.1390  135.9430 C   0  0  1  0  0  3  0  0  0  0  0  0
  1 50  1  6  0  0  0
  1 31  1  0  0  0  0
  2 11  1  0  0  0  0
  3 14  1  0  0  0  0
  4  7  1  0  0  0  0
  4  9  1  1  0  0  0
  5 13  1  1  0  0  0
  5  4  1  0  0  0  0
  6 12  1  0  0  0  0
  6  3  2  0  0  0  0
  7 17  1  1  0  0  0
  8  5  1  0  0  0  0
  8 16  1  0  0  0  0
 10  1  1  0  0  0  0
 10  7  1  0  0  0  0
 11 16  1  0  0  0  0
 12 15  2  0  0  0  0
 13 10  2  0  0  0  0
 14  2  1  0  0  0  0
 14  8  1  0  0  0  0
 15  2  1  0  0  0  0
 16  9  1  0  0  0  0
 17 18  1  0  0  0  0
 19 21  1  0  0  0  0
 19 12  1  0  0  0  0
 20 21  1  0  0  0  0
 22 24  1  0  0  0  0
 23 25  1  0  0  0  0
 23 22  1  0  0  0  0
 24 29  1  0  0  0  0
 25 21  1  0  0  0  0
 25 26  1  0  0  0  0
 26 27  2  0  0  0  0
 26 24  1  0  0  0  0
 28 29  1  0  0  0  0
 30 36  1  0  0  0  0
 31 30  1  0  0  0  0
 32 31  2  0  0  0  0
 34 33  1  0  0  0  0
 35 34  1  0  0  0  0
 35 33  1  0  0  0  0
 36 35  1  0  0  0  0
 36 34  1  0  0  0  0
 37 34  1  0  0  0  0
 37 38  1  0  0  0  0
 39 38  1  0  0  0  0
 39 40  1  0  0  0  0
 40 47  1  0  0  0  0
 41 42  1  0  0  0  0
 41 40  1  0  0  0  0
 41 46  1  0  0  0  0
 43 41  1  0  0  0  0
 44 43  1  0  0  0  0
 46 45  1  0  0  0  0
 47 49  1  0  0  0  0
 49 48  1  0  0  0  0
 51 50  1  0  0  0  0
 52 51  1  0  0  0  0
 53 51  1  0  0  0  0
 54 53  1  0  0  0  0
 55 56  1  0  0  0  0
 55 54  1  0  0  0  0
 58 57  1  0  0  0  0
 59 61  1  0  0  0  0
 60 56  1  0  0  0  0
 60 59  1  0  0  0  0
 60 65  1  0  0  0  0
 61 63  1  0  0  0  0
 62 67  1  0  0  0  0
 63 57  1  0  0  0  0
 64 66  2  0  0  0  0
 65 63  1  0  0  0  0
 66 65  1  0  0  0  0
 66 67  1  0  0  0  0
 67 57  1  0  0  0  0
M  END
>  <MODEL>
1

>  <REMARK>
 VINA RESULT:      -5.8      0.000      0.000
  Name = 
  24 active torsions:
  status: ('A' for Active; 'I' for Inactive)
    1  A    between atoms: C_3  and  C_15
    2  A    between atoms: C_3  and  C_17
    3  A    between atoms: C_3  and  C_27
    4  A    between atoms: O_7  and  C_20
    5  A    between atoms: O_7  and  C_45
    6  A    between atoms: C_8  and  C_31
    7  A    between atoms: N_11  and  C_61
    8  A    between atoms: C_12  and  C_37
    9  A    between atoms: C_12  and  C_49
   10  A    between atoms: O_18  and  C_29
   11  A    between atoms: C_19  and  C_60
   12  A    between atoms: C_20  and  C_27
   13  A    between atoms: C_23  and  C_45
   14  A    between atoms: C_25  and  C_59
   15  A    between atoms: C_27  and  C_59
   16  A    between atoms: C_30  and  C_31
   17  A    between atoms: C_30  and  S_51
   18  A    between atoms: N_34  and  C_42
   19  A    between atoms: N_34  and  C_54
   20  A    between atoms: C_36  and  C_60
   21  A    between atoms: C_37  and  S_51
   22  A    between atoms: N_43  and  C_55
   23  A    between atoms: C_47  and  C_54
   24  A    between atoms: C_49  and  C_60
                            x       y       z     vdW  Elec       q    Type
                         _______ _______ _______ _____ _____    ______ ____

>  <TORSDO>
F 24

$$$$
=
 OpenBabel10232409153D

 67 75  0  0  1  0  0  0  0  0999 V2000
  191.0950  173.7650  136.3400 C   0  0  1  0  0  3  0  0  0  0  0  0
  188.8580  178.3440  141.2110 N   0  0  0  0  0  0  0  0  0  0  0  0
  189.9180  176.3370  141.9570 C   0  0  0  0  0  3  0  0  0  0  0  0
  190.3200  177.2050  137.6210 C   0  0  1  0  0  3  0  0  0  0  0  0
  190.2940  176.4220  138.6760 C   0  0  1  0  0  3  0  0  0  0  0  0
  189.8840  176.8490  143.2640 C   0  0  0  0  0  3  0  0  0  0  0  0
  190.6620  176.3860  136.4210 C   0  0  1  0  0  3  0  0  0  0  0  0
  189.2980  176.9110  139.5990 C   0  0  1  0  0  3  0  0  0  0  0  0
  189.3730  178.3760  137.7420 C   0  0  0  0  0  2  0  0  0  0  0  0
  190.8360  175.0430  137.0910 C   0  0  0  0  0  0  0  0  0  0  0  0
  188.5680  178.9770  140.0820 N   0  0  0  0  0  2  0  0  0  0  0  0
  189.3300  178.1170  143.5240 C   0  0  0  0  0  0  0  0  0  0  0  0
  190.5670  175.0700  138.3600 N   0  0  0  0  0  0  0  0  0  0  0  0
  189.3550  177.1200  140.9540 C   0  0  2  0  0  3  0  0  0  0  0  0
  188.8280  178.8810  142.4550 C   0  0  0  0  0  3  0  0  0  0  0  0
  188.8060  178.0850  139.0950 C   0  0  2  0  0  3  0  0  0  0  0  0
  189.5720  176.3370  135.5480 O   0  0  0  0  0  0  0  0  0  0  0  0
  190.0390  176.9080  134.3610 C   0  0  0  0  0  1  0  0  0  0  0  0
  189.2980  178.6080  144.8680 N   0  0  0  0  0  2  0  0  0  0  0  0
  190.0220  176.5620  145.7050 O   0  0  0  0  0  1  0  0  0  0  0  0
  189.3360  177.7330  146.0320 C   0  0  2  0  0  3  0  0  0  0  0  0
  186.3940  178.9830  147.1810 C   0  0  0  0  0  2  0  0  0  0  0  0
  187.5520  178.2530  147.5630 O   0  0  0  0  0  0  0  0  0  0  0  0
  186.0620  178.6530  145.8120 N   0  0  0  0  0  0  0  0  0  0  0  0
  187.9190  177.4000  146.4900 C   0  0  1  0  0  3  0  0  0  0  0  0
  186.9540  177.6550  145.4040 C   0  0  0  0  0  0  0  0  0  0  0  0
  186.6070  176.5650  144.2320 S   0  0  0  0  0  0  0  0  0  0  0  0
  184.9410  180.0060  144.1190 C   0  0  0  0  0  1  0  0  0  0  0  0
  184.7770  178.9460  145.1930 C   0  0  0  0  0  2  0  0  0  0  0  0
  188.5980  173.6710  136.0000 N   0  0  0  0  0  2  0  0  0  0  0  0
  189.9070  173.3730  135.5170 C   0  0  0  0  0  0  0  0  0  0  0  0
  190.0620  172.8030  134.4020 O   0  0  0  0  0  0  0  0  0  0  0  0
  185.3790  174.5570  134.5320 C   0  0  0  0  0  2  0  0  0  0  0  0
  186.1630  174.0700  135.7330 C   0  0  2  0  0  0  0  0  0  0  0  0
  186.8890  174.4760  134.4640 C   0  0  1  0  0  3  0  0  0  0  0  0
  187.3940  173.2940  135.2680 C   0  0  1  0  0  3  0  0  0  0  0  0
  186.4070  175.1790  136.7540 C   0  0  0  0  0  2  0  0  0  0  0  0
  185.2770  175.3560  137.5540 O   0  0  0  0  0  0  0  0  0  0  0  0
  184.7090  176.5530  137.1120 C   0  0  0  0  0  2  0  0  0  0  0  0
  183.7730  177.1250  138.1770 C   0  0  1  0  0  3  0  0  0  0  0  0
  184.3950  178.3100  138.9680 C   0  0  0  0  0  0  0  0  0  0  0  0
  185.6240  178.8370  138.2460 C   0  0  0  0  0  1  0  0  0  0  0  0
  184.8420  177.8850  140.3720 C   0  0  0  0  0  2  0  0  0  0  0  0
  183.7810  177.9170  141.2800 O   0  0  0  0  0  1  0  0  0  0  0  0
  184.0280  180.7040  138.8420 O   0  0  0  0  0  1  0  0  0  0  0  0
  183.4070  179.4760  139.0890 C   0  0  0  0  0  2  0  0  0  0  0  0
  182.4420  177.5060  137.5260 C   0  0  0  0  0  2  0  0  0  0  0  0
  180.6800  177.6100  139.1420 O   0  0  0  0  0  1  0  0  0  0  0  0
  181.2800  176.7860  138.1870 C   0  0  0  0  0  2  0  0  0  0  0  0
  192.3480  173.8530  135.4710 C   0  0  0  0  0  2  0  0  0  0  0  0
  193.2590  172.6520  135.6880 C   0  0  1  0  0  3  0  0  0  0  0  0
  193.8270  172.2330  134.4820 O   0  0  0  0  0  1  0  0  0  0  0  0
  194.3480  172.9800  136.7030 C   0  0  0  0  0  2  0  0  0  0  0  0
  194.5660  174.7780  136.9220 S   0  0  0  0  0  0  0  0  0  0  0  0
  196.3570  174.6630  136.6790 C   0  0  0  0  0  2  0  0  0  0  0  0
  196.9710  173.8400  137.8010 C   0  0  0  0  0  2  0  0  0  0  0  0
  198.6090  170.7790  134.4440 C   0  0  2  0  0  3  0  0  0  0  0  0
  199.9320  170.3230  134.5000 O   0  0  0  0  0  1  0  0  0  0  0  0
  199.5160  174.0290  136.7170 S   0  0  0  0  0  0  0  0  0  0  0  0
  198.1430  172.9900  137.3150 C   0  0  2  0  0  3  0  0  0  0  0  0
  199.7880  172.9210  135.2940 C   0  0  0  0  0  2  0  0  0  0  0  0
  198.3280  168.7660  135.7920 O   0  0  0  0  0  1  0  0  0  0  0  0
  198.4730  172.2210  134.9890 C   0  0  2  0  0  3  0  0  0  0  0  0
  196.6520  170.4190  137.4280 O   0  0  0  0  0  0  0  0  0  0  0  0
  197.7400  172.1200  136.2270 N   0  0  0  0  0  0  0  0  0  0  0  0
  197.2940  170.7920  136.4100 C   0  0  0  0  0  0  0  0  0  0  0  0
  197.6710  169.8970  135.2980 C   0  0  1  0  0  3  0  0  0  0  0  0
  1 50  1  6  0  0  0
  1 10  1  0  0  0  0
  2 15  1  0  0  0  0
  3  6  2  0  0  0  0
  4  9  1  6  0  0  0
  4  5  1  0  0  0  0
  5 13  1  6  0  0  0
  5  8  1  0  0  0  0
  6 12  1  0  0  0  0
  7 17  1  6  0  0  0
  7 10  1  0  0  0  0
  7  4  1  0  0  0  0
  8 14  1  0  0  0  0
  9 16  1  0  0  0  0
 10 13  2  0  0  0  0
 11  2  1  0  0  0  0
 12 19  1  0  0  0  0
 14  2  1  0  0  0  0
 14  3  1  0  0  0  0
 15 12  2  0  0  0  0
 16  8  1  0  0  0  0
 16 11  1  0  0  0  0
 18 17  1  0  0  0  0
 19 21  1  0  0  0  0
 20 21  1  0  0  0  0
 21 25  1  0  0  0  0
 22 23  1  0  0  0  0
 24 22  1  0  0  0  0
 25 23  1  0  0  0  0
 26 24  1  0  0  0  0
 26 25  1  0  0  0  0
 27 26  2  0  0  0  0
 28 29  1  0  0  0  0
 29 24  1  0  0  0  0
 31 30  1  0  0  0  0
 31  1  1  0  0  0  0
 32 31  2  0  0  0  0
 33 34  1  0  0  0  0
 34 37  1  0  0  0  0
 35 33  1  0  0  0  0
 35 36  1  0  0  0  0
 35 34  1  0  0  0  0
 36 34  1  0  0  0  0
 36 30  1  0  0  0  0
 37 38  1  0  0  0  0
 39 38  1  0  0  0  0
 39 40  1  0  0  0  0
 40 41  1  0  0  0  0
 41 46  1  0  0  0  0
 41 43  1  0  0  0  0
 42 41  1  0  0  0  0
 43 44  1  0  0  0  0
 45 46  1  0  0  0  0
 47 40  1  0  0  0  0
 47 49  1  0  0  0  0
 49 48  1  0  0  0  0
 50 51  1  0  0  0  0
 51 53  1  0  0  0  0
 52 51  1  0  0  0  0
 53 54  1  0  0  0  0
 55 54  1  0  0  0  0
 55 56  1  0  0  0  0
 57 58  1  0  0  0  0
 57 63  1  0  0  0  0
 57 67  1  0  0  0  0
 59 60  1  0  0  0  0
 60 56  1  0  0  0  0
 61 59  1  0  0  0  0
 63 61  1  0  0  0  0
 63 65  1  0  0  0  0
 65 66  1  0  0  0  0
 65 60  1  0  0  0  0
 66 64  2  0  0  0  0
 67 62  1  0  0  0  0
 67 66  1  0  0  0  0
M  END
>  <MODEL>
2

>  <REMARK>
 VINA RESULT:      -5.6      2.702     10.620
  Name = 
  24 active torsions:
  status: ('A' for Active; 'I' for Inactive)
    1  A    between atoms: C_3  and  C_15
    2  A    between atoms: C_3  and  C_17
    3  A    between atoms: C_3  and  C_27
    4  A    between atoms: O_7  and  C_20
    5  A    between atoms: O_7  and  C_45
    6  A    between atoms: C_8  and  C_31
    7  A    between atoms: N_11  and  C_61
    8  A    between atoms: C_12  and  C_37
    9  A    between atoms: C_12  and  C_49
   10  A    between atoms: O_18  and  C_29
   11  A    between atoms: C_19  and  C_60
   12  A    between atoms: C_20  and  C_27
   13  A    between atoms: C_23  and  C_45
   14  A    between atoms: C_25  and  C_59
   15  A    between atoms: C_27  and  C_59
   16  A    between atoms: C_30  and  C_31
   17  A    between atoms: C_30  and  S_51
   18  A    between atoms: N_34  and  C_42
   19  A    between atoms: N_34  and  C_54
   20  A    between atoms: C_36  and  C_60
   21  A    between atoms: C_37  and  S_51
   22  A    between atoms: N_43  and  C_55
   23  A    between atoms: C_47  and  C_54
   24  A    between atoms: C_49  and  C_60
                            x       y       z     vdW  Elec       q    Type
                         _______ _______ _______ _____ _____    ______ ____

>  <TORSDO>
F 24

$$$$
=
 OpenBabel10232409153D

 67 75  0  0  1  0  0  0  0  0999 V2000
  186.9640  177.3800  136.6740 C   0  0  1  0  0  3  0  0  0  0  0  0
  192.0590  172.9080  134.7430 N   0  0  0  0  0  0  0  0  0  0  0  0
  192.6780  175.1480  135.2970 C   0  0  0  0  0  3  0  0  0  0  0  0
  188.5400  173.9860  136.4100 C   0  0  1  0  0  3  0  0  0  0  0  0
  189.4900  174.8410  136.1000 C   0  0  1  0  0  3  0  0  0  0  0  0
  194.0240  174.7610  135.1930 C   0  0  0  0  0  3  0  0  0  0  0  0
  187.2980  174.7440  136.7410 C   0  0  1  0  0  3  0  0  0  0  0  0
  190.3490  174.2460  135.1060 C   0  0  1  0  0  3  0  0  0  0  0  0
  188.6920  172.6630  135.6960 C   0  0  0  0  0  2  0  0  0  0  0  0
  187.8240  176.1500  136.5690 C   0  0  0  0  0  0  0  0  0  0  0  0
  190.9860  172.1290  134.7270 N   0  0  0  0  0  2  0  0  0  0  0  0
  194.3680  173.4360  134.8620 C   0  0  0  0  0  0  0  0  0  0  0  0
  189.0510  176.1850  136.1490 N   0  0  0  0  0  0  0  0  0  0  0  0
  191.7180  174.1790  135.0260 C   0  0  2  0  0  3  0  0  0  0  0  0
  193.3450  172.4910  134.6570 C   0  0  0  0  0  3  0  0  0  0  0  0
  189.9330  172.9570  134.9150 C   0  0  2  0  0  3  0  0  0  0  0  0
  186.3120  174.4910  135.7830 O   0  0  0  0  0  0  0  0  0  0  0  0
  185.4620  173.5590  136.3830 C   0  0  0  0  0  1  0  0  0  0  0  0
  195.7470  173.0730  134.7520 N   0  0  0  0  0  2  0  0  0  0  0  0
  197.8650  174.0350  134.6900 O   0  0  0  0  0  1  0  0  0  0  0  0
  196.7990  173.7130  135.5320 C   0  0  2  0  0  3  0  0  0  0  0  0
  195.8520  171.4870  137.9160 C   0  0  0  0  0  2  0  0  0  0  0  0
  196.3370  172.8080  137.7140 O   0  0  0  0  0  0  0  0  0  0  0  0
  196.4220  170.6200  136.9090 N   0  0  0  0  0  0  0  0  0  0  0  0
  197.2710  172.7840  136.6460 C   0  0  1  0  0  3  0  0  0  0  0  0
  197.3230  171.3910  136.1660 C   0  0  0  0  0  0  0  0  0  0  0  0
  198.6100  170.7570  135.3760 S   0  0  0  0  0  0  0  0  0  0  0  0
  195.5360  168.7060  138.1360 C   0  0  0  0  0  1  0  0  0  0  0  0
  196.4180  169.1650  136.9900 C   0  0  0  0  0  2  0  0  0  0  0  0
  184.6380  177.3410  135.7000 N   0  0  0  0  0  2  0  0  0  0  0  0
  186.0420  177.4960  135.4990 C   0  0  0  0  0  0  0  0  0  0  0  0
  186.4990  177.7440  134.3500 O   0  0  0  0  0  0  0  0  0  0  0  0
  181.4490  178.4800  134.3460 C   0  0  0  0  0  2  0  0  0  0  0  0
  182.2330  177.4180  135.0870 C   0  0  2  0  0  0  0  0  0  0  0  0
  182.9090  178.7120  134.6720 C   0  0  1  0  0  3  0  0  0  0  0  0
  183.6820  177.4100  134.6010 C   0  0  1  0  0  3  0  0  0  0  0  0
  182.0270  177.4940  136.5980 C   0  0  0  0  0  2  0  0  0  0  0  0
  181.1520  178.5340  136.9140 O   0  0  0  0  0  0  0  0  0  0  0  0
  180.2400  177.9750  137.8110 C   0  0  0  0  0  2  0  0  0  0  0  0
  180.9630  177.4580  139.0560 C   0  0  1  0  0  3  0  0  0  0  0  0
  181.1250  178.5370  140.1630 C   0  0  0  0  0  0  0  0  0  0  0  0
  182.5270  179.1250  140.1250 C   0  0  0  0  0  1  0  0  0  0  0  0
  180.9190  177.9510  141.5650 C   0  0  0  0  0  2  0  0  0  0  0  0
  179.9820  178.6860  142.2960 O   0  0  0  0  0  1  0  0  0  0  0  0
  180.8110  180.9140  139.7980 O   0  0  0  0  0  1  0  0  0  0  0  0
  180.1430  179.6960  139.9560 C   0  0  0  0  0  2  0  0  0  0  0  0
  180.2480  176.2090  139.5710 C   0  0  0  0  0  2  0  0  0  0  0  0
  180.3900  174.1920  138.2920 O   0  0  0  0  0  1  0  0  0  0  0  0
  181.0440  174.9520  139.2630 C   0  0  0  0  0  2  0  0  0  0  0  0
  186.1760  177.4220  137.9830 C   0  0  0  0  0  2  0  0  0  0  0  0
  186.5700  178.6250  138.8290 C   0  0  1  0  0  3  0  0  0  0  0  0
  185.7250  178.7540  139.9340 O   0  0  0  0  0  1  0  0  0  0  0  0
  188.0220  178.5130  139.2790 C   0  0  0  0  0  2  0  0  0  0  0  0
  188.2150  178.8260  141.0660 S   0  0  0  0  0  0  0  0  0  0  0  0
  188.1130  177.0610  141.4600 C   0  0  0  0  0  2  0  0  0  0  0  0
  188.9980  176.7560  142.6580 C   0  0  0  0  0  2  0  0  0  0  0  0
  186.7050  177.7100  146.8000 C   0  0  2  0  0  3  0  0  0  0  0  0
  186.9860  178.8900  147.4990 O   0  0  0  0  0  1  0  0  0  0  0  0
  190.2700  177.8850  144.8480 S   0  0  0  0  0  0  0  0  0  0  0  0
  188.7860  177.7510  143.7980 C   0  0  2  0  0  3  0  0  0  0  0  0
  189.2490  177.8990  146.3590 C   0  0  0  0  0  2  0  0  0  0  0  0
  185.0490  179.2090  145.8220 O   0  0  0  0  0  1  0  0  0  0  0  0
  187.9480  177.1740  146.0510 C   0  0  2  0  0  3  0  0  0  0  0  0
  185.8650  178.0510  143.3300 O   0  0  0  0  0  0  0  0  0  0  0  0
  187.6800  177.3460  144.6450 N   0  0  0  0  0  0  0  0  0  0  0  0
  186.3520  177.7920  144.4630 C   0  0  0  0  0  0  0  0  0  0  0  0
  185.6110  177.9320  145.7320 C   0  0  1  0  0  3  0  0  0  0  0  0
  1 50  1  1  0  0  0
  2 14  1  0  0  0  0
  4  9  1  6  0  0  0
  4  7  1  0  0  0  0
  5 13  1  6  0  0  0
  5  4  1  0  0  0  0
  6  3  2  0  0  0  0
  7 17  1  6  0  0  0
  8  5  1  0  0  0  0
 10  1  1  0  0  0  0
 10  7  1  0  0  0  0
 11  2  1  0  0  0  0
 11 16  1  0  0  0  0
 12  6  1  0  0  0  0
 13 10  2  0  0  0  0
 14  8  1  0  0  0  0
 14  3  1  0  0  0  0
 15  2  1  0  0  0  0
 15 12  2  0  0  0  0
 16  8  1  0  0  0  0
 16  9  1  0  0  0  0
 17 18  1  0  0  0  0
 19 12  1  0  0  0  0
 19 21  1  0  0  0  0
 20 21  1  0  0  0  0
 21 25  1  0  0  0  0
 23 22  1  0  0  0  0
 24 29  1  0  0  0  0
 24 22  1  0  0  0  0
 25 23  1  0  0  0  0
 26 25  1  0  0  0  0
 26 24  1  0  0  0  0
 27 26  2  0  0  0  0
 29 28  1  0  0  0  0
 31 30  1  0  0  0  0
 31  1  1  0  0  0  0
 32 31  2  0  0  0  0
 33 35  1  0  0  0  0
 33 34  1  0  0  0  0
 34 37  1  0  0  0  0
 35 34  1  0  0  0  0
 36 35  1  0  0  0  0
 36 34  1  0  0  0  0
 36 30  1  0  0  0  0
 37 38  1  0  0  0  0
 38 39  1  0  0  0  0
 39 40  1  0  0  0  0
 40 47  1  0  0  0  0
 40 41  1  0  0  0  0
 41 43  1  0  0  0  0
 42 41  1  0  0  0  0
 43 44  1  0  0  0  0
 45 46  1  0  0  0  0
 46 41  1  0  0  0  0
 48 49  1  0  0  0  0
 49 47  1  0  0  0  0
 50 51  1  0  0  0  0
 51 53  1  0  0  0  0
 51 52  1  0  0  0  0
 53 54  1  0  0  0  0
 54 55  1  0  0  0  0
 55 56  1  0  0  0  0
 56 60  1  0  0  0  0
 57 58  1  0  0  0  0
 59 61  1  0  0  0  0
 60 65  1  0  0  0  0
 60 59  1  0  0  0  0
 63 61  1  0  0  0  0
 63 57  1  0  0  0  0
 64 66  2  0  0  0  0
 65 63  1  0  0  0  0
 66 65  1  0  0  0  0
 66 67  1  0  0  0  0
 67 62  1  0  0  0  0
 67 57  1  0  0  0  0
M  END
>  <MODEL>
3

>  <REMARK>
 VINA RESULT:      -5.3      3.139      8.185
  Name = 
  24 active torsions:
  status: ('A' for Active; 'I' for Inactive)
    1  A    between atoms: C_3  and  C_15
    2  A    between atoms: C_3  and  C_17
    3  A    between atoms: C_3  and  C_27
    4  A    between atoms: O_7  and  C_20
    5  A    between atoms: O_7  and  C_45
    6  A    between atoms: C_8  and  C_31
    7  A    between atoms: N_11  and  C_61
    8  A    between atoms: C_12  and  C_37
    9  A    between atoms: C_12  and  C_49
   10  A    between atoms: O_18  and  C_29
   11  A    between atoms: C_19  and  C_60
   12  A    between atoms: C_20  and  C_27
   13  A    between atoms: C_23  and  C_45
   14  A    between atoms: C_25  and  C_59
   15  A    between atoms: C_27  and  C_59
   16  A    between atoms: C_30  and  C_31
   17  A    between atoms: C_30  and  S_51
   18  A    between atoms: N_34  and  C_42
   19  A    between atoms: N_34  and  C_54
   20  A    between atoms: C_36  and  C_60
   21  A    between atoms: C_37  and  S_51
   22  A    between atoms: N_43  and  C_55
   23  A    between atoms: C_47  and  C_54
   24  A    between atoms: C_49  and  C_60
                            x       y       z     vdW  Elec       q    Type
                         _______ _______ _______ _____ _____    ______ ____

>  <TORSDO>
F 24

$$$$
=
 OpenBabel10232409153D

 67 75  0  0  1  0  0  0  0  0999 V2000
  187.1560  177.4700  139.2210 C   0  0  1  0  0  3  0  0  0  0  0  0
  192.4710  175.0870  135.2510 N   0  0  0  0  0  0  0  0  0  0  0  0
  192.5200  174.6210  137.5940 C   0  0  0  0  0  3  0  0  0  0  0  0
  188.6590  176.1680  136.0400 C   0  0  1  0  0  3  0  0  0  0  0  0
  189.5590  175.9450  136.9720 C   0  0  1  0  0  3  0  0  0  0  0  0
  193.6380  173.8010  137.3700 C   0  0  0  0  0  3  0  0  0  0  0  0
  187.4640  176.8050  136.6660 C   0  0  1  0  0  3  0  0  0  0  0  0
  190.8750  176.0800  136.3960 C   0  0  1  0  0  3  0  0  0  0  0  0
  189.2760  176.4170  134.6840 C   0  0  0  0  0  2  0  0  0  0  0  0
  187.9300  176.8250  138.1030 C   0  0  0  0  0  0  0  0  0  0  0  0
  191.6800  175.6480  134.3470 N   0  0  0  0  0  2  0  0  0  0  0  0
  194.1600  173.6370  136.0720 C   0  0  0  0  0  0  0  0  0  0  0  0
  189.1430  176.3880  138.2500 N   0  0  0  0  0  0  0  0  0  0  0  0
  191.9840  175.2770  136.4910 C   0  0  2  0  0  3  0  0  0  0  0  0
  193.5340  174.2870  134.9920 C   0  0  0  0  0  3  0  0  0  0  0  0
  190.7200  176.2870  135.0520 C   0  0  2  0  0  3  0  0  0  0  0  0
  187.3190  178.1140  136.2010 O   0  0  0  0  0  0  0  0  0  0  0  0
  186.5650  177.9970  135.0310 C   0  0  0  0  0  1  0  0  0  0  0  0
  195.3080  172.8060  135.8750 N   0  0  0  0  0  2  0  0  0  0  0  0
  194.0360  170.9740  136.5380 O   0  0  0  0  0  1  0  0  0  0  0  0
  195.2620  171.3540  135.9890 C   0  0  2  0  0  3  0  0  0  0  0  0
  198.2170  169.6820  136.0610 C   0  0  0  0  0  2  0  0  0  0  0  0
  196.8420  169.5870  136.4070 O   0  0  0  0  0  0  0  0  0  0  0  0
  198.6480  171.0530  136.2220 N   0  0  0  0  0  0  0  0  0  0  0  0
  196.4070  170.8560  136.8670 C   0  0  1  0  0  3  0  0  0  0  0  0
  197.5670  171.7610  136.7600 C   0  0  0  0  0  0  0  0  0  0  0  0
  197.7400  173.1160  137.6630 S   0  0  0  0  0  0  0  0  0  0  0  0
  200.2210  172.8070  135.5890 C   0  0  0  0  0  1  0  0  0  0  0  0
  200.0430  171.4670  136.2780 C   0  0  0  0  0  2  0  0  0  0  0  0
  189.1130  177.3980  140.8100 N   0  0  0  0  0  2  0  0  0  0  0  0
  188.0740  178.1520  140.1880 C   0  0  0  0  0  0  0  0  0  0  0  0
  187.9410  179.3820  140.4370 O   0  0  0  0  0  0  0  0  0  0  0  0
  191.1560  177.0990  143.8170 C   0  0  0  0  0  2  0  0  0  0  0  0
  189.8170  177.4280  143.1900 C   0  0  2  0  0  0  0  0  0  0  0  0
  190.9560  176.9200  142.3270 C   0  0  1  0  0  3  0  0  0  0  0  0
  190.0260  177.9860  141.7830 C   0  0  1  0  0  3  0  0  0  0  0  0
  188.8180  176.2810  143.3220 C   0  0  0  0  0  2  0  0  0  0  0  0
  187.8500  176.5910  144.2780 O   0  0  0  0  0  0  0  0  0  0  0  0
  187.1700  177.6920  143.7560 C   0  0  0  0  0  2  0  0  0  0  0  0
  186.3590  178.3890  144.8500 C   0  0  1  0  0  3  0  0  0  0  0  0
  184.9270  178.7850  144.3940 C   0  0  0  0  0  0  0  0  0  0  0  0
  183.9410  178.6010  145.5380 C   0  0  0  0  0  1  0  0  0  0  0  0
  184.4370  177.9150  143.2310 C   0  0  0  0  0  2  0  0  0  0  0  0
  183.3080  178.4650  142.6180 O   0  0  0  0  0  1  0  0  0  0  0  0
  183.6170  180.8210  144.2570 O   0  0  0  0  0  1  0  0  0  0  0  0
  184.8660  180.2590  143.9770 C   0  0  0  0  0  2  0  0  0  0  0  0
  186.3410  177.5090  146.1000 C   0  0  0  0  0  2  0  0  0  0  0  0
  187.3310  177.4070  148.2760 O   0  0  0  0  0  1  0  0  0  0  0  0
  187.5890  177.7210  146.9410 C   0  0  0  0  0  2  0  0  0  0  0  0
  186.0990  178.4440  138.7030 C   0  0  0  0  0  2  0  0  0  0  0  0
  184.9310  178.5620  139.6720 C   0  0  1  0  0  3  0  0  0  0  0  0
  184.5540  179.8970  139.8380 O   0  0  0  0  0  1  0  0  0  0  0  0
  183.7470  177.7320  139.1880 C   0  0  0  0  0  2  0  0  0  0  0  0
  183.5780  177.7640  137.3720 S   0  0  0  0  0  0  0  0  0  0  0  0
  182.4580  176.3410  137.3790 C   0  0  0  0  0  2  0  0  0  0  0  0
  182.8290  175.3970  136.2450 C   0  0  0  0  0  2  0  0  0  0  0  0
  182.7120  170.7100  135.0850 C   0  0  2  0  0  3  0  0  0  0  0  0
  183.0620  169.7460  136.0370 O   0  0  0  0  0  1  0  0  0  0  0  0
  184.7600  173.5970  137.0930 S   0  0  0  0  0  0  0  0  0  0  0  0
  183.0110  173.9600  136.7290 C   0  0  2  0  0  3  0  0  0  0  0  0
  184.6250  171.9560  136.3060 C   0  0  0  0  0  2  0  0  0  0  0  0
  180.5340  170.2660  136.0860 O   0  0  0  0  0  1  0  0  0  0  0  0
  183.5090  172.0230  135.2750 C   0  0  2  0  0  3  0  0  0  0  0  0
  180.2390  173.1170  136.0600 O   0  0  0  0  0  0  0  0  0  0  0  0
  182.5620  173.0120  135.7270 N   0  0  0  0  0  0  0  0  0  0  0  0
  181.2560  172.4730  135.6880 C   0  0  0  0  0  0  0  0  0  0  0  0
  181.2170  171.0860  135.1840 C   0  0  1  0  0  3  0  0  0  0  0  0
  1 50  1  6  0  0  0
  1 31  1  0  0  0  0
  2 14  1  0  0  0  0
  4  9  1  6  0  0  0
  4  7  1  0  0  0  0
  4  5  1  0  0  0  0
  5 13  1  1  0  0  0
  6  3  2  0  0  0  0
  7 17  1  6  0  0  0
  7 10  1  0  0  0  0
  8 14  1  0  0  0  0
  8  5  1  0  0  0  0
  9 16  1  0  0  0  0
 10 13  2  0  0  0  0
 10  1  1  0  0  0  0
 11 16  1  0  0  0  0
 11  2  1  0  0  0  0
 12  6  1  0  0  0  0
 14  3  1  0  0  0  0
 15  2  1  0  0  0  0
 15 12  2  0  0  0  0
 16  8  1  0  0  0  0
 18 17  1  0  0  0  0
 19 21  1  0  0  0  0
 19 12  1  0  0  0  0
 21 20  1  0  0  0  0
 21 25  1  0  0  0  0
 22 24  1  0  0  0  0
 22 23  1  0  0  0  0
 23 25  1  0  0  0  0
 24 29  1  0  0  0  0
 24 26  1  0  0  0  0
 26 25  1  0  0  0  0
 26 27  2  0  0  0  0
 28 29  1  0  0  0  0
 30 36  1  0  0  0  0
 31 32  2  0  0  0  0
 31 30  1  0  0  0  0
 34 37  1  0  0  0  0
 34 33  1  0  0  0  0
 35 34  1  0  0  0  0
 35 33  1  0  0  0  0
 36 35  1  0  0  0  0
 36 34  1  0  0  0  0
 37 38  1  0  0  0  0
 39 38  1  0  0  0  0
 39 40  1  0  0  0  0
 40 47  1  0  0  0  0
 41 40  1  0  0  0  0
 41 42  1  0  0  0  0
 43 41  1  0  0  0  0
 44 43  1  0  0  0  0
 46 45  1  0  0  0  0
 46 41  1  0  0  0  0
 47 49  1  0  0  0  0
 49 48  1  0  0  0  0
 50 51  1  0  0  0  0
 51 52  1  0  0  0  0
 53 51  1  0  0  0  0
 54 55  1  0  0  0  0
 54 53  1  0  0  0  0
 56 60  1  0  0  0  0
 56 55  1  0  0  0  0
 57 67  1  0  0  0  0
 57 63  1  0  0  0  0
 57 58  1  0  0  0  0
 60 59  1  0  0  0  0
 61 59  1  0  0  0  0
 63 65  1  0  0  0  0
 63 61  1  0  0  0  0
 65 60  1  0  0  0  0
 66 65  1  0  0  0  0
 66 64  2  0  0  0  0
 67 66  1  0  0  0  0
 67 62  1  0  0  0  0
M  END
>  <MODEL>
4

>  <REMARK>
 VINA RESULT:      -5.1      2.550      4.616
  Name = 
  24 active torsions:
  status: ('A' for Active; 'I' for Inactive)
    1  A    between atoms: C_3  and  C_15
    2  A    between atoms: C_3  and  C_17
    3  A    between atoms: C_3  and  C_27
    4  A    between atoms: O_7  and  C_20
    5  A    between atoms: O_7  and  C_45
    6  A    between atoms: C_8  and  C_31
    7  A    between atoms: N_11  and  C_61
    8  A    between atoms: C_12  and  C_37
    9  A    between atoms: C_12  and  C_49
   10  A    between atoms: O_18  and  C_29
   11  A    between atoms: C_19  and  C_60
   12  A    between atoms: C_20  and  C_27
   13  A    between atoms: C_23  and  C_45
   14  A    between atoms: C_25  and  C_59
   15  A    between atoms: C_27  and  C_59
   16  A    between atoms: C_30  and  C_31
   17  A    between atoms: C_30  and  S_51
   18  A    between atoms: N_34  and  C_42
   19  A    between atoms: N_34  and  C_54
   20  A    between atoms: C_36  and  C_60
   21  A    between atoms: C_37  and  S_51
   22  A    between atoms: N_43  and  C_55
   23  A    between atoms: C_47  and  C_54
   24  A    between atoms: C_49  and  C_60
                            x       y       z     vdW  Elec       q    Type
                         _______ _______ _______ _____ _____    ______ ____

>  <TORSDO>
F 24

$$$$
=
 OpenBabel10232409153D

 67 75  0  0  1  0  0  0  0  0999 V2000
  191.0800  175.8370  136.8040 C   0  0  1  0  0  3  0  0  0  0  0  0
  189.3940  177.7280  143.3820 N   0  0  0  0  0  0  0  0  0  0  0  0
  191.4950  176.6480  143.0250 C   0  0  0  0  0  3  0  0  0  0  0  0
  189.4170  178.0300  139.3530 C   0  0  1  0  0  3  0  0  0  0  0  0
  190.2520  177.2740  140.0300 C   0  0  1  0  0  3  0  0  0  0  0  0
  191.8130  176.9070  144.3680 C   0  0  0  0  0  3  0  0  0  0  0  0
  189.5260  177.6920  137.9040 C   0  0  1  0  0  3  0  0  0  0  0  0
  189.6860  176.9950  141.3270 C   0  0  1  0  0  3  0  0  0  0  0  0
  188.1960  178.4120  140.1570 C   0  0  0  0  0  2  0  0  0  0  0  0
  190.6070  176.6400  137.9850 C   0  0  0  0  0  0  0  0  0  0  0  0
  188.3610  178.1870  142.6880 N   0  0  0  0  0  2  0  0  0  0  0  0
  190.9030  177.5810  145.2060 C   0  0  0  0  0  0  0  0  0  0  0  0
  190.9670  176.3740  139.2040 N   0  0  0  0  0  0  0  0  0  0  0  0
  190.2410  177.0560  142.5810 C   0  0  2  0  0  3  0  0  0  0  0  0
  189.6740  178.0170  144.6760 C   0  0  0  0  0  3  0  0  0  0  0  0
  188.5230  177.7080  141.4350 C   0  0  2  0  0  3  0  0  0  0  0  0
  188.3370  177.1090  137.4560 O   0  0  0  0  0  0  0  0  0  0  0  0
  188.0950  177.6980  136.2130 C   0  0  0  0  0  1  0  0  0  0  0  0
  191.2490  177.8210  146.5730 N   0  0  0  0  0  2  0  0  0  0  0  0
  190.5290  175.6780  147.1220 O   0  0  0  0  0  1  0  0  0  0  0  0
  190.8660  176.9230  147.6550 C   0  0  2  0  0  3  0  0  0  0  0  0
  188.4120  179.2710  147.6840 C   0  0  0  0  0  2  0  0  0  0  0  0
  189.6550  178.9100  148.2710 O   0  0  0  0  0  0  0  0  0  0  0  0
  187.6680  178.0670  147.3850 N   0  0  0  0  0  0  0  0  0  0  0  0
  189.6850  177.5000  148.4290 C   0  0  1  0  0  3  0  0  0  0  0  0
  188.4140  176.9910  147.8810 C   0  0  0  0  0  0  0  0  0  0  0  0
  187.7440  175.5660  148.3320 S   0  0  0  0  0  0  0  0  0  0  0  0
  186.0200  177.7810  145.6090 C   0  0  0  0  0  1  0  0  0  0  0  0
  186.2430  178.0440  147.0860 C   0  0  0  0  0  2  0  0  0  0  0  0
  193.2070  175.1510  135.6360 N   0  0  0  0  0  2  0  0  0  0  0  0
  192.5710  175.8950  136.6740 C   0  0  0  0  0  0  0  0  0  0  0  0
  193.2530  176.6080  137.4600 O   0  0  0  0  0  0  0  0  0  0  0  0
  196.2680  173.3900  134.7250 C   0  0  0  0  0  2  0  0  0  0  0  0
  195.2670  173.7740  135.7940 C   0  0  2  0  0  0  0  0  0  0  0  0
  195.0320  174.1800  134.3510 C   0  0  1  0  0  3  0  0  0  0  0  0
  194.6550  175.1360  135.4660 C   0  0  1  0  0  3  0  0  0  0  0  0
  194.2840  172.6470  136.1000 C   0  0  0  0  0  2  0  0  0  0  0  0
  194.7790  171.8390  137.1250 O   0  0  0  0  0  0  0  0  0  0  0  0
  196.0960  171.5610  136.7570 C   0  0  0  0  0  2  0  0  0  0  0  0
  196.6900  170.4850  137.6680 C   0  0  1  0  0  3  0  0  0  0  0  0
  196.1480  169.0600  137.3670 C   0  0  0  0  0  0  0  0  0  0  0  0
  195.7140  168.9570  135.9130 C   0  0  0  0  0  1  0  0  0  0  0  0
  194.9260  168.7200  138.2290 C   0  0  0  0  0  2  0  0  0  0  0  0
  195.1020  169.1300  139.5530 O   0  0  0  0  0  1  0  0  0  0  0  0
  197.6000  167.9150  138.9370 O   0  0  0  0  0  1  0  0  0  0  0  0
  197.2300  167.9970  137.5910 C   0  0  0  0  0  2  0  0  0  0  0  0
  198.2150  170.5470  137.5930 C   0  0  0  0  0  2  0  0  0  0  0  0
  199.7400  171.7540  136.1990 O   0  0  0  0  0  1  0  0  0  0  0  0
  198.6880  171.9060  137.1040 C   0  0  0  0  0  2  0  0  0  0  0  0
  190.6010  174.3870  136.8650 C   0  0  0  0  0  2  0  0  0  0  0  0
  189.5110  174.1190  135.8370 C   0  0  1  0  0  3  0  0  0  0  0  0
  189.8280  174.7080  134.6100 O   0  0  0  0  0  1  0  0  0  0  0  0
  189.2900  172.6210  135.6660 C   0  0  0  0  0  2  0  0  0  0  0  0
  187.6830  172.0790  136.3370 S   0  0  0  0  0  0  0  0  0  0  0  0
  186.7750  173.2700  135.3170 C   0  0  0  0  0  2  0  0  0  0  0  0
  185.3270  172.8240  135.1820 C   0  0  0  0  0  2  0  0  0  0  0  0
  182.2600  175.3530  137.9240 C   0  0  2  0  0  3  0  0  0  0  0  0
  181.6270  176.4880  137.4000 O   0  0  0  0  0  1  0  0  0  0  0  0
  185.2300  175.5950  135.1530 S   0  0  0  0  0  0  0  0  0  0  0  0
  184.3540  173.9990  135.2530 C   0  0  2  0  0  3  0  0  0  0  0  0
  184.1740  176.3030  136.4620 C   0  0  0  0  0  2  0  0  0  0  0  0
  180.2330  174.3500  137.0110 O   0  0  0  0  0  1  0  0  0  0  0  0
  183.6750  175.1570  137.3290 C   0  0  2  0  0  3  0  0  0  0  0  0
  182.0060  172.3350  136.0030 O   0  0  0  0  0  0  0  0  0  0  0  0
  183.6070  173.9820  136.4970 N   0  0  0  0  0  0  0  0  0  0  0  0
  182.3440  173.3670  136.6420 C   0  0  0  0  0  0  0  0  0  0  0  0
  181.4680  174.0670  137.6030 C   0  0  1  0  0  3  0  0  0  0  0  0
  1 50  1  1  0  0  0
  1 10  1  0  0  0  0
  2 15  1  0  0  0  0
  3  6  2  0  0  0  0
  4  5  1  0  0  0  0
  4  9  1  1  0  0  0
  5 13  1  6  0  0  0
  5  8  1  0  0  0  0
  6 12  1  0  0  0  0
  7 17  1  1  0  0  0
  7 10  1  0  0  0  0
  7  4  1  0  0  0  0
  8 16  1  0  0  0  0
  8 14  1  0  0  0  0
  9 16  1  0  0  0  0
 10 13  2  0  0  0  0
 11  2  1  0  0  0  0
 12 19  1  0  0  0  0
 14  3  1  0  0  0  0
 14  2  1  0  0  0  0
 15 12  2  0  0  0  0
 16 11  1  0  0  0  0
 18 17  1  0  0  0  0
 19 21  1  0  0  0  0
 20 21  1  0  0  0  0
 21 25  1  0  0  0  0
 22 23  1  0  0  0  0
 23 25  1  0  0  0  0
 24 22  1  0  0  0  0
 24 26  1  0  0  0  0
 26 27  2  0  0  0  0
 26 25  1  0  0  0  0
 28 29  1  0  0  0  0
 29 24  1  0  0  0  0
 30 31  1  0  0  0  0
 31  1  1  0  0  0  0
 31 32  2  0  0  0  0
 33 34  1  0  0  0  0
 34 37  1  0  0  0  0
 35 33  1  0  0  0  0
 35 36  1  0  0  0  0
 35 34  1  0  0  0  0
 36 30  1  0  0  0  0
 36 34  1  0  0  0  0
 37 38  1  0  0  0  0
 39 38  1  0  0  0  0
 39 40  1  0  0  0  0
 41 46  1  0  0  0  0
 41 40  1  0  0  0  0
 41 43  1  0  0  0  0
 42 41  1  0  0  0  0
 43 44  1  0  0  0  0
 46 45  1  0  0  0  0
 47 40  1  0  0  0  0
 48 49  1  0  0  0  0
 49 47  1  0  0  0  0
 51 50  1  0  0  0  0
 52 51  1  0  0  0  0
 53 51  1  0  0  0  0
 53 54  1  0  0  0  0
 55 54  1  0  0  0  0
 56 60  1  0  0  0  0
 56 55  1  0  0  0  0
 58 57  1  0  0  0  0
 59 60  1  0  0  0  0
 59 61  1  0  0  0  0
 60 65  1  0  0  0  0
 61 63  1  0  0  0  0
 62 67  1  0  0  0  0
 63 57  1  0  0  0  0
 64 66  2  0  0  0  0
 65 66  1  0  0  0  0
 65 63  1  0  0  0  0
 66 67  1  0  0  0  0
 67 57  1  0  0  0  0
M  END
>  <MODEL>
5

>  <REMARK>
 VINA RESULT:      -4.4      3.284     10.416
  Name = 
  24 active torsions:
  status: ('A' for Active; 'I' for Inactive)
    1  A    between atoms: C_3  and  C_15
    2  A    between atoms: C_3  and  C_17
    3  A    between atoms: C_3  and  C_27
    4  A    between atoms: O_7  and  C_20
    5  A    between atoms: O_7  and  C_45
    6  A    between atoms: C_8  and  C_31
    7  A    between atoms: N_11  and  C_61
    8  A    between atoms: C_12  and  C_37
    9  A    between atoms: C_12  and  C_49
   10  A    between atoms: O_18  and  C_29
   11  A    between atoms: C_19  and  C_60
   12  A    between atoms: C_20  and  C_27
   13  A    between atoms: C_23  and  C_45
   14  A    between atoms: C_25  and  C_59
   15  A    between atoms: C_27  and  C_59
   16  A    between atoms: C_30  and  C_31
   17  A    between atoms: C_30  and  S_51
   18  A    between atoms: N_34  and  C_42
   19  A    between atoms: N_34  and  C_54
   20  A    between atoms: C_36  and  C_60
   21  A    between atoms: C_37  and  S_51
   22  A    between atoms: N_43  and  C_55
   23  A    between atoms: C_47  and  C_54
   24  A    between atoms: C_49  and  C_60
                            x       y       z     vdW  Elec       q    Type
                         _______ _______ _______ _____ _____    ______ ____

>  <TORSDO>
F 24

$$$$
=
 OpenBabel10232409153D

 67 75  0  0  1  0  0  0  0  0999 V2000
  190.3060  177.3700  139.7830 C   0  0  1  0  0  3  0  0  0  0  0  0
  184.1370  177.3100  136.3730 N   0  0  0  0  0  0  0  0  0  0  0  0
  184.1210  177.7650  138.7180 C   0  0  0  0  0  3  0  0  0  0  0  0
  188.1150  177.8850  136.7810 C   0  0  1  0  0  3  0  0  0  0  0  0
  187.2930  177.7430  137.7970 C   0  0  1  0  0  3  0  0  0  0  0  0
  182.7520  178.0560  138.6140 C   0  0  0  0  0  3  0  0  0  0  0  0
  189.5190  177.8010  137.2810 C   0  0  1  0  0  3  0  0  0  0  0  0
  186.0980  177.0740  137.3440 C   0  0  1  0  0  3  0  0  0  0  0  0
  187.5290  177.3790  135.4840 C   0  0  0  0  0  2  0  0  0  0  0  0
  189.2370  177.6220  138.7540 C   0  0  0  0  0  0  0  0  0  0  0  0
  185.0000  177.0990  135.3880 N   0  0  0  0  0  2  0  0  0  0  0  0
  182.0900  177.9670  137.3740 C   0  0  0  0  0  0  0  0  0  0  0  0
  187.9700  177.5330  139.0220 N   0  0  0  0  0  0  0  0  0  0  0  0
  184.7730  177.3600  137.5580 C   0  0  2  0  0  3  0  0  0  0  0  0
  182.8220  177.6050  136.2290 C   0  0  0  0  0  3  0  0  0  0  0  0
  186.1980  176.9200  135.9880 C   0  0  2  0  0  3  0  0  0  0  0  0
  190.1380  176.6520  136.7800 O   0  0  0  0  0  0  0  0  0  0  0  0
  189.2940  175.6020  137.1470 C   0  0  0  0  0  1  0  0  0  0  0  0
  180.6910  178.2570  137.3010 N   0  0  0  0  0  2  0  0  0  0  0  0
  179.9830  178.7950  135.1510 O   0  0  0  0  0  1  0  0  0  0  0  0
  180.1430  179.2990  136.4430 C   0  0  2  0  0  3  0  0  0  0  0  0
  180.6470  182.4260  135.2150 C   0  0  0  0  0  2  0  0  0  0  0  0
  181.0860  181.0780  135.1220 O   0  0  0  0  0  0  0  0  0  0  0  0
  180.2660  182.7020  136.5830 N   0  0  0  0  0  0  0  0  0  0  0  0
  181.0710  180.5100  136.4230 C   0  0  1  0  0  3  0  0  0  0  0  0
  180.5690  181.5580  137.3310 C   0  0  0  0  0  0  0  0  0  0  0  0
  180.8980  181.5940  138.9350 S   0  0  0  0  0  0  0  0  0  0  0  0
  180.6860  185.0720  136.1870 C   0  0  0  0  0  1  0  0  0  0  0  0
  180.0810  184.0420  137.1230 C   0  0  0  0  0  2  0  0  0  0  0  0
  188.5660  177.3490  141.6080 N   0  0  0  0  0  2  0  0  0  0  0  0
  189.7270  176.7620  141.0240 C   0  0  0  0  0  0  0  0  0  0  0  0
  190.2500  175.7340  141.5350 O   0  0  0  0  0  0  0  0  0  0  0  0
  187.5900  177.8000  145.0930 C   0  0  0  0  0  2  0  0  0  0  0  0
  188.6400  177.3730  144.0900 C   0  0  2  0  0  0  0  0  0  0  0  0
  187.3260  177.9630  143.6110 C   0  0  1  0  0  3  0  0  0  0  0  0
  187.9640  176.8310  142.8310 C   0  0  1  0  0  3  0  0  0  0  0  0
  189.7070  178.4450  143.8760 C   0  0  0  0  0  2  0  0  0  0  0  0
  190.9740  177.8610  143.8240 O   0  0  0  0  0  0  0  0  0  0  0  0
  191.4970  178.0250  145.1080 C   0  0  0  0  0  2  0  0  0  0  0  0
  191.9660  176.6830  145.6700 C   0  0  1  0  0  3  0  0  0  0  0  0
  191.5330  176.4500  147.1450 C   0  0  0  0  0  0  0  0  0  0  0  0
  191.2130  174.9810  147.3740 C   0  0  0  0  0  1  0  0  0  0  0  0
  190.2740  177.2480  147.5020 C   0  0  0  0  0  2  0  0  0  0  0  0
  189.2220  176.4070  147.8780 O   0  0  0  0  0  1  0  0  0  0  0  0
  192.8060  175.8660  149.1250 O   0  0  0  0  0  1  0  0  0  0  0  0
  192.6570  176.8250  148.1180 C   0  0  0  0  0  2  0  0  0  0  0  0
  191.4940  175.5580  144.7490 C   0  0  0  0  0  2  0  0  0  0  0  0
  191.7520  173.2060  144.3900 O   0  0  0  0  0  1  0  0  0  0  0  0
  192.4130  174.3500  144.8390 C   0  0  0  0  0  2  0  0  0  0  0  0
  191.4380  176.5030  139.2360 C   0  0  0  0  0  2  0  0  0  0  0  0
  192.6950  177.3250  138.9850 C   0  0  1  0  0  3  0  0  0  0  0  0
  193.5700  177.2410  140.0720 O   0  0  0  0  0  1  0  0  0  0  0  0
  193.3900  176.8700  137.7070 C   0  0  0  0  0  2  0  0  0  0  0  0
  193.3870  175.0540  137.5310 S   0  0  0  0  0  0  0  0  0  0  0  0
  194.1750  175.1380  135.9020 C   0  0  0  0  0  2  0  0  0  0  0  0
  194.3110  173.7360  135.3300 C   0  0  0  0  0  2  0  0  0  0  0  0
  196.3550  169.4010  135.9310 C   0  0  2  0  0  3  0  0  0  0  0  0
  196.9920  169.0910  137.1380 O   0  0  0  0  0  1  0  0  0  0  0  0
  196.7370  173.3920  136.6270 S   0  0  0  0  0  0  0  0  0  0  0  0
  195.0500  172.7960  136.2820 C   0  0  2  0  0  3  0  0  0  0  0  0
  197.4060  171.7000  136.4890 C   0  0  0  0  0  2  0  0  0  0  0  0
  194.4980  168.4270  137.1760 O   0  0  0  0  0  1  0  0  0  0  0  0
  196.4800  170.9040  135.5830 C   0  0  2  0  0  3  0  0  0  0  0  0
  192.9990  170.6470  136.1540 O   0  0  0  0  0  0  0  0  0  0  0  0
  195.1580  171.4640  135.7180 N   0  0  0  0  0  0  0  0  0  0  0  0
  194.2260  170.4310  135.9660 C   0  0  0  0  0  0  0  0  0  0  0  0
  194.8430  169.0900  135.9940 C   0  0  1  0  0  3  0  0  0  0  0  0
  1 50  1  6  0  0  0
  1 31  1  0  0  0  0
  2 14  1  0  0  0  0
  4  9  1  6  0  0  0
  4  7  1  0  0  0  0
  4  5  1  0  0  0  0
  5 13  1  1  0  0  0
  6  3  2  0  0  0  0
  7 17  1  6  0  0  0
  7 10  1  0  0  0  0
  8 14  1  0  0  0  0
  8  5  1  0  0  0  0
  9 16  1  0  0  0  0
 10 13  2  0  0  0  0
 10  1  1  0  0  0  0
 11 16  1  0  0  0  0
 11  2  1  0  0  0  0
 12  6  1  0  0  0  0
 14  3  1  0  0  0  0
 15  2  1  0  0  0  0
 15 12  2  0  0  0  0
 16  8  1  0  0  0  0
 17 18  1  0  0  0  0
 19 12  1  0  0  0  0
 20 21  1  0  0  0  0
 21 19  1  0  0  0  0
 22 24  1  0  0  0  0
 23 22  1  0  0  0  0
 23 25  1  0  0  0  0
 24 29  1  0  0  0  0
 24 26  1  0  0  0  0
 25 21  1  0  0  0  0
 25 26  1  0  0  0  0
 26 27  2  0  0  0  0
 28 29  1  0  0  0  0
 30 36  1  0  0  0  0
 31 32  2  0  0  0  0
 31 30  1  0  0  0  0
 34 33  1  0  0  0  0
 35 34  1  0  0  0  0
 35 33  1  0  0  0  0
 36 35  1  0  0  0  0
 36 34  1  0  0  0  0
 37 34  1  0  0  0  0
 38 37  1  0  0  0  0
 38 39  1  0  0  0  0
 39 40  1  0  0  0  0
 40 41  1  0  0  0  0
 41 42  1  0  0  0  0
 41 43  1  0  0  0  0
 41 46  1  0  0  0  0
 43 44  1  0  0  0  0
 46 45  1  0  0  0  0
 47 49  1  0  0  0  0
 47 40  1  0  0  0  0
 48 49  1  0  0  0  0
 51 50  1  0  0  0  0
 51 52  1  0  0  0  0
 53 51  1  0  0  0  0
 54 53  1  0  0  0  0
 55 54  1  0  0  0  0
 56 55  1  0  0  0  0
 56 60  1  0  0  0  0
 57 67  1  0  0  0  0
 57 58  1  0  0  0  0
 60 59  1  0  0  0  0
 61 59  1  0  0  0  0
 63 65  1  0  0  0  0
 63 57  1  0  0  0  0
 63 61  1  0  0  0  0
 65 66  1  0  0  0  0
 65 60  1  0  0  0  0
 66 67  1  0  0  0  0
 66 64  2  0  0  0  0
 67 62  1  0  0  0  0
M  END
>  <MODEL>
6

>  <REMARK>
 VINA RESULT:      -4.4      3.266      9.774
  Name = 
  24 active torsions:
  status: ('A' for Active; 'I' for Inactive)
    1  A    between atoms: C_3  and  C_15
    2  A    between atoms: C_3  and  C_17
    3  A    between atoms: C_3  and  C_27
    4  A    between atoms: O_7  and  C_20
    5  A    between atoms: O_7  and  C_45
    6  A    between atoms: C_8  and  C_31
    7  A    between atoms: N_11  and  C_61
    8  A    between atoms: C_12  and  C_37
    9  A    between atoms: C_12  and  C_49
   10  A    between atoms: O_18  and  C_29
   11  A    between atoms: C_19  and  C_60
   12  A    between atoms: C_20  and  C_27
   13  A    between atoms: C_23  and  C_45
   14  A    between atoms: C_25  and  C_59
   15  A    between atoms: C_27  and  C_59
   16  A    between atoms: C_30  and  C_31
   17  A    between atoms: C_30  and  S_51
   18  A    between atoms: N_34  and  C_42
   19  A    between atoms: N_34  and  C_54
   20  A    between atoms: C_36  and  C_60
   21  A    between atoms: C_37  and  S_51
   22  A    between atoms: N_43  and  C_55
   23  A    between atoms: C_47  and  C_54
   24  A    between atoms: C_49  and  C_60
                            x       y       z     vdW  Elec       q    Type
                         _______ _______ _______ _____ _____    ______ ____

>  <TORSDO>
F 24

$$$$
=
 OpenBabel10232409153D

 67 75  0  0  1  0  0  0  0  0999 V2000
  187.2130  177.5660  139.2900 C   0  0  1  0  0  3  0  0  0  0  0  0
  192.5050  175.3500  135.1940 N   0  0  0  0  0  0  0  0  0  0  0  0
  192.4430  174.5940  137.4590 C   0  0  0  0  0  3  0  0  0  0  0  0
  188.7420  176.5730  136.0110 C   0  0  1  0  0  3  0  0  0  0  0  0
  189.5930  176.1770  136.9310 C   0  0  1  0  0  3  0  0  0  0  0  0
  193.5150  173.7370  137.1630 C   0  0  0  0  0  3  0  0  0  0  0  0
  187.5670  177.2050  136.6800 C   0  0  1  0  0  3  0  0  0  0  0  0
  190.9340  176.2960  136.4110 C   0  0  1  0  0  3  0  0  0  0  0  0
  189.4190  176.9480  134.7140 C   0  0  0  0  0  2  0  0  0  0  0  0
  187.9830  177.0160  138.1200 C   0  0  0  0  0  0  0  0  0  0  0  0
  191.7820  176.0700  134.3470 N   0  0  0  0  0  2  0  0  0  0  0  0
  194.0710  173.7010  135.8690 C   0  0  0  0  0  0  0  0  0  0  0  0
  189.1610  176.4840  138.2430 N   0  0  0  0  0  0  0  0  0  0  0  0
  191.9870  175.4160  136.4350 C   0  0  2  0  0  3  0  0  0  0  0  0
  193.5240  174.5200  134.8640 C   0  0  0  0  0  3  0  0  0  0  0  0
  190.8390  176.6780  135.1010 C   0  0  2  0  0  3  0  0  0  0  0  0
  187.5210  178.5690  136.3810 O   0  0  0  0  0  0  0  0  0  0  0  0
  186.3950  178.7180  135.5670 C   0  0  0  0  0  1  0  0  0  0  0  0
  195.1700  172.8270  135.5990 N   0  0  0  0  0  2  0  0  0  0  0  0
  194.2030  171.2560  137.0160 O   0  0  0  0  0  1  0  0  0  0  0  0
  195.3490  171.5490  136.2750 C   0  0  2  0  0  3  0  0  0  0  0  0
  198.6790  172.1900  136.4790 C   0  0  0  0  0  2  0  0  0  0  0  0
  197.7140  171.1470  136.4860 O   0  0  0  0  0  0  0  0  0  0  0  0
  198.1110  173.3580  137.1160 N   0  0  0  0  0  0  0  0  0  0  0  0
  196.5680  171.6000  137.1910 C   0  0  1  0  0  3  0  0  0  0  0  0
  196.8490  172.9900  137.5950 C   0  0  0  0  0  0  0  0  0  0  0  0
  196.1220  173.7240  138.8660 S   0  0  0  0  0  0  0  0  0  0  0  0
  200.0720  174.0160  138.4110 C   0  0  0  0  0  1  0  0  0  0  0  0
  198.8960  174.4940  137.5790 C   0  0  0  0  0  2  0  0  0  0  0  0
  189.1990  177.4950  140.8420 N   0  0  0  0  0  2  0  0  0  0  0  0
  188.1260  178.2390  140.2680 C   0  0  0  0  0  0  0  0  0  0  0  0
  187.9580  179.4530  140.5680 O   0  0  0  0  0  0  0  0  0  0  0  0
  191.5020  177.0990  143.6430 C   0  0  0  0  0  2  0  0  0  0  0  0
  190.0860  177.3240  143.1540 C   0  0  2  0  0  0  0  0  0  0  0  0
  191.2050  177.0800  142.1580 C   0  0  1  0  0  3  0  0  0  0  0  0
  190.1100  178.0730  141.8230 C   0  0  1  0  0  3  0  0  0  0  0  0
  189.2490  176.0470  143.1970 C   0  0  0  0  0  2  0  0  0  0  0  0
  188.2620  176.1510  144.1790 O   0  0  0  0  0  0  0  0  0  0  0  0
  187.7210  177.4260  144.0100 C   0  0  0  0  0  2  0  0  0  0  0  0
  186.7340  177.7420  145.1340 C   0  0  1  0  0  3  0  0  0  0  0  0
  187.4180  177.9240  146.5180 C   0  0  0  0  0  0  0  0  0  0  0  0
  188.8420  178.4240  146.3390 C   0  0  0  0  0  1  0  0  0  0  0  0
  187.4960  176.6040  147.2940 C   0  0  0  0  0  2  0  0  0  0  0  0
  187.9550  176.8020  148.5990 O   0  0  0  0  0  1  0  0  0  0  0  0
  185.4510  178.4720  147.8270 O   0  0  0  0  0  1  0  0  0  0  0  0
  186.6780  178.9620  147.3700 C   0  0  0  0  0  2  0  0  0  0  0  0
  185.8970  178.9600  144.7430 C   0  0  0  0  0  2  0  0  0  0  0  0
  183.7910  179.4710  143.7270 O   0  0  0  0  0  1  0  0  0  0  0  0
  184.4260  178.6000  144.6150 C   0  0  0  0  0  2  0  0  0  0  0  0
  186.1000  178.5160  138.8500 C   0  0  0  0  0  2  0  0  0  0  0  0
  184.9930  178.5940  139.8930 C   0  0  1  0  0  3  0  0  0  0  0  0
  184.5780  179.9150  140.0820 O   0  0  0  0  0  1  0  0  0  0  0  0
  183.8130  177.7180  139.4890 C   0  0  0  0  0  2  0  0  0  0  0  0
  183.2210  178.0930  137.8050 S   0  0  0  0  0  0  0  0  0  0  0  0
  182.5730  176.4160  137.5810 C   0  0  0  0  0  2  0  0  0  0  0  0
  182.9330  175.9130  136.1920 C   0  0  0  0  0  2  0  0  0  0  0  0
  184.4010  171.5690  134.6760 C   0  0  2  0  0  3  0  0  0  0  0  0
  185.6680  171.0950  135.0370 O   0  0  0  0  0  1  0  0  0  0  0  0
  185.5290  175.4200  135.3530 S   0  0  0  0  0  0  0  0  0  0  0  0
  184.0340  174.8550  136.2310 C   0  0  2  0  0  3  0  0  0  0  0  0
  185.7510  173.7770  134.5910 C   0  0  0  0  0  2  0  0  0  0  0  0
  183.8610  170.3940  136.7430 O   0  0  0  0  0  1  0  0  0  0  0  0
  184.3870  173.1090  134.5170 C   0  0  2  0  0  3  0  0  0  0  0  0
  182.2900  172.7170  137.3380 O   0  0  0  0  0  0  0  0  0  0  0  0
  183.5940  173.6220  135.6060 N   0  0  0  0  0  0  0  0  0  0  0  0
  183.0100  172.5500  136.3170 C   0  0  0  0  0  0  0  0  0  0  0  0
  183.3430  171.2290  135.7490 C   0  0  1  0  0  3  0  0  0  0  0  0
  1 50  1  6  0  0  0
  1 31  1  0  0  0  0
  2 14  1  0  0  0  0
  4  9  1  6  0  0  0
  4  7  1  0  0  0  0
  4  5  1  0  0  0  0
  5 13  1  1  0  0  0
  6  3  2  0  0  0  0
  7 17  1  6  0  0  0
  7 10  1  0  0  0  0
  8 14  1  0  0  0  0
  8  5  1  0  0  0  0
  9 16  1  0  0  0  0
 10 13  2  0  0  0  0
 10  1  1  0  0  0  0
 11 16  1  0  0  0  0
 11  2  1  0  0  0  0
 12  6  1  0  0  0  0
 14  3  1  0  0  0  0
 15  2  1  0  0  0  0
 15 12  2  0  0  0  0
 16  8  1  0  0  0  0
 18 17  1  0  0  0  0
 19 12  1  0  0  0  0
 19 21  1  0  0  0  0
 21 20  1  0  0  0  0
 21 25  1  0  0  0  0
 22 23  1  0  0  0  0
 22 24  1  0  0  0  0
 23 25  1  0  0  0  0
 24 29  1  0  0  0  0
 24 26  1  0  0  0  0
 25 26  1  0  0  0  0
 26 27  2  0  0  0  0
 29 28  1  0  0  0  0
 30 36  1  0  0  0  0
 31 32  2  0  0  0  0
 31 30  1  0  0  0  0
 34 37  1  0  0  0  0
 34 33  1  0  0  0  0
 35 34  1  0  0  0  0
 35 33  1  0  0  0  0
 36 35  1  0  0  0  0
 36 34  1  0  0  0  0
 37 38  1  0  0  0  0
 39 38  1  0  0  0  0
 39 40  1  0  0  0  0
 40 41  1  0  0  0  0
 41 43  1  0  0  0  0
 41 46  1  0  0  0  0
 42 41  1  0  0  0  0
 43 44  1  0  0  0  0
 46 45  1  0  0  0  0
 47 40  1  0  0  0  0
 48 49  1  0  0  0  0
 49 47  1  0  0  0  0
 50 51  1  0  0  0  0
 51 52  1  0  0  0  0
 53 51  1  0  0  0  0
 54 53  1  0  0  0  0
 55 54  1  0  0  0  0
 56 60  1  0  0  0  0
 56 55  1  0  0  0  0
 57 58  1  0  0  0  0
 57 67  1  0  0  0  0
 59 60  1  0  0  0  0
 61 59  1  0  0  0  0
 63 61  1  0  0  0  0
 63 57  1  0  0  0  0
 63 65  1  0  0  0  0
 65 60  1  0  0  0  0
 65 66  1  0  0  0  0
 66 64  2  0  0  0  0
 67 66  1  0  0  0  0
 67 62  1  0  0  0  0
M  END
>  <MODEL>
7

>  <REMARK>
 VINA RESULT:      -4.3      2.298      4.132
  Name = 
  24 active torsions:
  status: ('A' for Active; 'I' for Inactive)
    1  A    between atoms: C_3  and  C_15
    2  A    between atoms: C_3  and  C_17
    3  A    between atoms: C_3  and  C_27
    4  A    between atoms: O_7  and  C_20
    5  A    between atoms: O_7  and  C_45
    6  A    between atoms: C_8  and  C_31
    7  A    between atoms: N_11  and  C_61
    8  A    between atoms: C_12  and  C_37
    9  A    between atoms: C_12  and  C_49
   10  A    between atoms: O_18  and  C_29
   11  A    between atoms: C_19  and  C_60
   12  A    between atoms: C_20  and  C_27
   13  A    between atoms: C_23  and  C_45
   14  A    between atoms: C_25  and  C_59
   15  A    between atoms: C_27  and  C_59
   16  A    between atoms: C_30  and  C_31
   17  A    between atoms: C_30  and  S_51
   18  A    between atoms: N_34  and  C_42
   19  A    between atoms: N_34  and  C_54
   20  A    between atoms: C_36  and  C_60
   21  A    between atoms: C_37  and  S_51
   22  A    between atoms: N_43  and  C_55
   23  A    between atoms: C_47  and  C_54
   24  A    between atoms: C_49  and  C_60
                            x       y       z     vdW  Elec       q    Type
                         _______ _______ _______ _____ _____    ______ ____

>  <TORSDO>
F 24

$$$$
=
 OpenBabel10232409153D

 67 75  0  0  1  0  0  0  0  0999 V2000
  191.0270  175.9700  136.6530 C   0  0  1  0  0  3  0  0  0  0  0  0
  187.3270  178.1550  142.2410 N   0  0  0  0  0  0  0  0  0  0  0  0
  189.4420  177.1150  142.6290 C   0  0  0  0  0  3  0  0  0  0  0  0
  188.6220  178.2470  138.4150 C   0  0  1  0  0  3  0  0  0  0  0  0
  189.2070  177.5500  139.3640 C   0  0  1  0  0  3  0  0  0  0  0  0
  189.3170  177.4510  143.9860 C   0  0  0  0  0  3  0  0  0  0  0  0
  189.1880  177.8370  137.0960 C   0  0  1  0  0  3  0  0  0  0  0  0
  188.2620  177.3230  140.4300 C   0  0  1  0  0  3  0  0  0  0  0  0
  187.2060  178.6370  138.7690 C   0  0  0  0  0  2  0  0  0  0  0  0
  190.1980  176.8210  137.5760 C   0  0  0  0  0  0  0  0  0  0  0  0
  186.5630  178.5490  141.2310 N   0  0  0  0  0  2  0  0  0  0  0  0
  188.1820  178.1430  144.4530 C   0  0  0  0  0  0  0  0  0  0  0  0
  190.1550  176.6280  138.8590 N   0  0  0  0  0  0  0  0  0  0  0  0
  188.3910  177.4650  141.7890 C   0  0  2  0  0  3  0  0  0  0  0  0
  187.1810  178.5170  143.5380 C   0  0  0  0  0  3  0  0  0  0  0  0
  187.1180  178.0090  140.1230 C   0  0  2  0  0  3  0  0  0  0  0  0
  188.2080  177.1990  136.3310 O   0  0  0  0  0  0  0  0  0  0  0  0
  188.4420  177.6260  135.0220 C   0  0  0  0  0  1  0  0  0  0  0  0
  188.0750  178.4630  145.8430 N   0  0  0  0  0  2  0  0  0  0  0  0
  186.4470  178.5460  147.5030 O   0  0  0  0  0  1  0  0  0  0  0  0
  187.2680  177.6840  146.7740 C   0  0  2  0  0  3  0  0  0  0  0  0
  190.0350  175.7310  147.0330 C   0  0  0  0  0  2  0  0  0  0  0  0
  188.6150  175.7110  147.0720 O   0  0  0  0  0  0  0  0  0  0  0  0
  190.5020  176.9830  147.5870 N   0  0  0  0  0  0  0  0  0  0  0  0
  188.1670  176.8920  147.7190 C   0  0  1  0  0  3  0  0  0  0  0  0
  189.3750  177.6700  148.0520 C   0  0  0  0  0  0  0  0  0  0  0  0
  189.4320  178.7750  149.2600 S   0  0  0  0  0  0  0  0  0  0  0  0
  192.6220  175.9110  148.1440 C   0  0  0  0  0  1  0  0  0  0  0  0
  191.8750  177.2250  148.0080 C   0  0  0  0  0  2  0  0  0  0  0  0
  193.4270  175.8750  135.8820 N   0  0  0  0  0  2  0  0  0  0  0  0
  192.4900  176.1510  136.9220 C   0  0  0  0  0  0  0  0  0  0  0  0
  192.8870  176.5590  138.0480 O   0  0  0  0  0  0  0  0  0  0  0  0
  196.8310  175.6110  134.5990 C   0  0  0  0  0  2  0  0  0  0  0  0
  195.6550  174.9540  135.2920 C   0  0  2  0  0  0  0  0  0  0  0  0
  195.5340  176.3740  134.7700 C   0  0  1  0  0  3  0  0  0  0  0  0
  194.8660  176.0000  136.0780 C   0  0  1  0  0  3  0  0  0  0  0  0
  194.8470  174.0680  134.3460 C   0  0  0  0  0  2  0  0  0  0  0  0
  195.0090  172.7240  134.6890 O   0  0  0  0  0  0  0  0  0  0  0  0
  196.2750  172.6530  135.2720 C   0  0  0  0  0  2  0  0  0  0  0  0
  196.2210  171.8440  136.5690 C   0  0  1  0  0  3  0  0  0  0  0  0
  196.6240  170.3540  136.3800 C   0  0  0  0  0  0  0  0  0  0  0  0
  196.5490  169.9710  134.9110 C   0  0  0  0  0  1  0  0  0  0  0  0
  195.6890  169.4090  137.1430 C   0  0  0  0  0  2  0  0  0  0  0  0
  194.4360  169.9890  137.3570 O   0  0  0  0  0  1  0  0  0  0  0  0
  198.6800  169.1010  136.0860 O   0  0  0  0  0  1  0  0  0  0  0  0
  198.0670  170.1090  136.8370 C   0  0  0  0  0  2  0  0  0  0  0  0
  197.0730  172.5380  137.6320 C   0  0  0  0  0  2  0  0  0  0  0  0
  195.0290  172.9130  138.8190 O   0  0  0  0  0  1  0  0  0  0  0  0
  196.2410  173.5050  138.4590 C   0  0  0  0  0  2  0  0  0  0  0  0
  190.6440  174.4930  136.7310 C   0  0  0  0  0  2  0  0  0  0  0  0
  189.9650  174.0280  135.4500 C   0  0  1  0  0  3  0  0  0  0  0  0
  190.1750  174.9430  134.4140 O   0  0  0  0  0  1  0  0  0  0  0  0
  190.4650  172.6460  135.0480 C   0  0  0  0  0  2  0  0  0  0  0  0
  189.1110  171.4310  134.9250 S   0  0  0  0  0  0  0  0  0  0  0  0
  187.8800  172.7250  134.6250 C   0  0  0  0  0  2  0  0  0  0  0  0
  186.4840  172.1250  134.6920 C   0  0  0  0  0  2  0  0  0  0  0  0
  183.4180  174.6670  137.4240 C   0  0  2  0  0  3  0  0  0  0  0  0
  182.6190  175.6580  136.8400 O   0  0  0  0  0  1  0  0  0  0  0  0
  186.0780  174.8470  134.3500 S   0  0  0  0  0  0  0  0  0  0  0  0
  185.3970  173.1980  134.7260 C   0  0  2  0  0  3  0  0  0  0  0  0
  185.0740  175.6070  135.6700 C   0  0  0  0  0  2  0  0  0  0  0  0
  181.4400  173.3610  136.8490 O   0  0  0  0  0  1  0  0  0  0  0  0
  184.7860  174.5380  136.7130 C   0  0  2  0  0  3  0  0  0  0  0  0
  183.3260  171.4190  135.9040 O   0  0  0  0  0  0  0  0  0  0  0  0
  184.7730  173.2650  136.0340 N   0  0  0  0  0  0  0  0  0  0  0  0
  183.6040  172.5530  136.3810 C   0  0  0  0  0  0  0  0  0  0  0  0
  182.7470  173.2780  137.3390 C   0  0  1  0  0  3  0  0  0  0  0  0
  1 50  1  1  0  0  0
  1 31  1  0  0  0  0
  1 10  1  0  0  0  0
  2 15  1  0  0  0  0
  3  6  2  0  0  0  0
  4  9  1  6  0  0  0
  4  5  1  0  0  0  0
  5 13  1  6  0  0  0
  5  8  1  0  0  0  0
  6 12  1  0  0  0  0
  7 17  1  6  0  0  0
  7 10  1  0  0  0  0
  7  4  1  0  0  0  0
  8 14  1  0  0  0  0
  9 16  1  0  0  0  0
 10 13  2  0  0  0  0
 11  2  1  0  0  0  0
 12 19  1  0  0  0  0
 14  2  1  0  0  0  0
 14  3  1  0  0  0  0
 15 12  2  0  0  0  0
 16  8  1  0  0  0  0
 16 11  1  0  0  0  0
 18 17  1  0  0  0  0
 19 21  1  0  0  0  0
 21 20  1  0  0  0  0
 21 25  1  0  0  0  0
 22 23  1  0  0  0  0
 22 24  1  0  0  0  0
 23 25  1  0  0  0  0
 24 29  1  0  0  0  0
 24 26  1  0  0  0  0
 25 26  1  0  0  0  0
 26 27  2  0  0  0  0
 29 28  1  0  0  0  0
 30 36  1  0  0  0  0
 30 31  1  0  0  0  0
 31 32  2  0  0  0  0
 33 35  1  0  0  0  0
 33 34  1  0  0  0  0
 34 36  1  0  0  0  0
 35 34  1  0  0  0  0
 35 36  1  0  0  0  0
 37 38  1  0  0  0  0
 37 34  1  0  0  0  0
 38 39  1  0  0  0  0
 39 40  1  0  0  0  0
 40 47  1  0  0  0  0
 41 40  1  0  0  0  0
 41 46  1  0  0  0  0
 41 43  1  0  0  0  0
 42 41  1  0  0  0  0
 43 44  1  0  0  0  0
 45 46  1  0  0  0  0
 47 49  1  0  0  0  0
 49 48  1  0  0  0  0
 51 50  1  0  0  0  0
 52 51  1  0  0  0  0
 53 51  1  0  0  0  0
 54 53  1  0  0  0  0
 55 56  1  0  0  0  0
 55 54  1  0  0  0  0
 56 60  1  0  0  0  0
 58 57  1  0  0  0  0
 59 60  1  0  0  0  0
 59 61  1  0  0  0  0
 60 65  1  0  0  0  0
 61 63  1  0  0  0  0
 62 67  1  0  0  0  0
 63 57  1  0  0  0  0
 64 66  2  0  0  0  0
 65 66  1  0  0  0  0
 65 63  1  0  0  0  0
 66 67  1  0  0  0  0
 67 57  1  0  0  0  0
M  END
>  <MODEL>
8

>  <REMARK>
 VINA RESULT:      -4.3      3.238     10.182
  Name = 
  24 active torsions:
  status: ('A' for Active; 'I' for Inactive)
    1  A    between atoms: C_3  and  C_15
    2  A    between atoms: C_3  and  C_17
    3  A    between atoms: C_3  and  C_27
    4  A    between atoms: O_7  and  C_20
    5  A    between atoms: O_7  and  C_45
    6  A    between atoms: C_8  and  C_31
    7  A    between atoms: N_11  and  C_61
    8  A    between atoms: C_12  and  C_37
    9  A    between atoms: C_12  and  C_49
   10  A    between atoms: O_18  and  C_29
   11  A    between atoms: C_19  and  C_60
   12  A    between atoms: C_20  and  C_27
   13  A    between atoms: C_23  and  C_45
   14  A    between atoms: C_25  and  C_59
   15  A    between atoms: C_27  and  C_59
   16  A    between atoms: C_30  and  C_31
   17  A    between atoms: C_30  and  S_51
   18  A    between atoms: N_34  and  C_42
   19  A    between atoms: N_34  and  C_54
   20  A    between atoms: C_36  and  C_60
   21  A    between atoms: C_37  and  S_51
   22  A    between atoms: N_43  and  C_55
   23  A    between atoms: C_47  and  C_54
   24  A    between atoms: C_49  and  C_60
                            x       y       z     vdW  Elec       q    Type
                         _______ _______ _______ _____ _____    ______ ____

>  <TORSDO>
F 24

$$$$
=
 OpenBabel10232409153D

 67 75  0  0  1  0  0  0  0  0999 V2000
  188.5950  177.2460  140.4080 C   0  0  1  0  0  3  0  0  0  0  0  0
  192.4450  174.8340  135.0170 N   0  0  0  0  0  0  0  0  0  0  0  0
  192.7330  173.8060  137.1540 C   0  0  0  0  0  3  0  0  0  0  0  0
  189.2060  176.4770  136.7870 C   0  0  1  0  0  3  0  0  0  0  0  0
  190.1510  175.8440  137.4450 C   0  0  1  0  0  3  0  0  0  0  0  0
  193.5560  172.8480  136.5400 C   0  0  0  0  0  3  0  0  0  0  0  0
  188.3240  177.1810  137.7640 C   0  0  1  0  0  3  0  0  0  0  0  0
  191.3520  175.8330  136.6460 C   0  0  1  0  0  3  0  0  0  0  0  0
  189.6490  176.9150  135.4110 C   0  0  0  0  0  2  0  0  0  0  0  0
  188.9960  176.7470  139.0460 C   0  0  0  0  0  0  0  0  0  0  0  0
  191.6950  175.7570  134.4310 N   0  0  0  0  0  2  0  0  0  0  0  0
  193.8120  172.9010  135.1570 C   0  0  0  0  0  0  0  0  0  0  0  0
  190.0640  176.0370  138.8450 N   0  0  0  0  0  0  0  0  0  0  0  0
  192.2200  174.8130  136.3440 C   0  0  2  0  0  3  0  0  0  0  0  0
  193.2140  173.9150  134.3850 C   0  0  0  0  0  3  0  0  0  0  0  0
  191.0500  176.3930  135.4350 C   0  0  2  0  0  3  0  0  0  0  0  0
  188.4510  178.5650  137.6140 O   0  0  0  0  0  0  0  0  0  0  0  0
  187.5110  178.9060  136.6390 C   0  0  0  0  0  1  0  0  0  0  0  0
  194.6630  171.9180  134.5600 N   0  0  0  0  0  2  0  0  0  0  0  0
  195.0930  170.2390  136.1110 O   0  0  0  0  0  1  0  0  0  0  0  0
  195.6940  171.2070  135.3050 C   0  0  2  0  0  3  0  0  0  0  0  0
  198.5270  171.6700  137.1200 C   0  0  0  0  0  2  0  0  0  0  0  0
  197.1230  171.4780  137.2230 O   0  0  0  0  0  0  0  0  0  0  0  0
  198.8080  172.4400  135.9280 N   0  0  0  0  0  0  0  0  0  0  0  0
  196.4950  172.1820  136.1630 C   0  0  1  0  0  3  0  0  0  0  0  0
  197.5750  172.7960  135.3700 C   0  0  0  0  0  0  0  0  0  0  0  0
  197.3630  174.1220  134.4320 S   0  0  0  0  0  0  0  0  0  0  0  0
  200.2240  174.3260  136.5520 C   0  0  0  0  0  1  0  0  0  0  0  0
  200.0790  173.1020  135.6670 C   0  0  0  0  0  2  0  0  0  0  0  0
  189.8770  178.2210  142.3480 N   0  0  0  0  0  2  0  0  0  0  0  0
  189.7500  177.1990  141.3600 C   0  0  0  0  0  0  0  0  0  0  0  0
  190.5900  176.2590  141.3020 O   0  0  0  0  0  0  0  0  0  0  0  0
  191.3450  177.2850  145.5530 C   0  0  0  0  0  2  0  0  0  0  0  0
  190.5230  178.2670  144.7440 C   0  0  2  0  0  0  0  0  0  0  0  0
  191.0180  176.9820  144.1060 C   0  0  1  0  0  3  0  0  0  0  0  0
  190.9900  178.2590  143.2890 C   0  0  1  0  0  3  0  0  0  0  0  0
  189.0240  178.0960  144.9750 C   0  0  0  0  0  2  0  0  0  0  0  0
  188.6480  176.7720  144.7400 O   0  0  0  0  0  0  0  0  0  0  0  0
  187.6540  176.5090  145.6840 C   0  0  0  0  0  2  0  0  0  0  0  0
  187.2180  177.8020  146.3750 C   0  0  1  0  0  3  0  0  0  0  0  0
  185.9420  178.4320  145.7500 C   0  0  0  0  0  0  0  0  0  0  0  0
  184.6950  177.8360  146.3850 C   0  0  0  0  0  1  0  0  0  0  0  0
  185.8530  178.1660  144.2440 C   0  0  0  0  0  2  0  0  0  0  0  0
  184.5280  178.0110  143.8260 O   0  0  0  0  0  1  0  0  0  0  0  0
  186.4670  180.2850  147.2240 O   0  0  0  0  0  1  0  0  0  0  0  0
  185.8930  179.9450  145.9960 C   0  0  0  0  0  2  0  0  0  0  0  0
  187.0550  177.5420  147.8730 C   0  0  0  0  0  2  0  0  0  0  0  0
  189.0730  178.7990  148.1420 O   0  0  0  0  0  1  0  0  0  0  0  0
  188.3810  177.6780  148.6030 C   0  0  0  0  0  2  0  0  0  0  0  0
  187.9980  178.6510  140.3530 C   0  0  0  0  0  2  0  0  0  0  0  0
  186.5460  178.6550  140.8110 C   0  0  1  0  0  3  0  0  0  0  0  0
  186.2270  179.8580  141.4460 O   0  0  0  0  0  1  0  0  0  0  0  0
  185.6110  178.4120  139.6320 C   0  0  0  0  0  2  0  0  0  0  0  0
  184.1760  179.5370  139.6470 S   0  0  0  0  0  0  0  0  0  0  0  0
  183.0470  178.2080  140.1360 C   0  0  0  0  0  2  0  0  0  0  0  0
  183.4510  176.9170  139.4420 C   0  0  0  0  0  2  0  0  0  0  0  0
  180.7630  173.4820  137.3670 C   0  0  2  0  0  3  0  0  0  0  0  0
  179.9830  173.7880  136.2460 O   0  0  0  0  0  1  0  0  0  0  0  0
  180.8940  177.3930  138.4810 S   0  0  0  0  0  0  0  0  0  0  0  0
  182.5030  176.5570  138.2990 C   0  0  2  0  0  3  0  0  0  0  0  0
  180.0050  175.8790  137.9860 C   0  0  0  0  0  2  0  0  0  0  0  0
  182.3430  172.9850  135.5770 O   0  0  0  0  0  1  0  0  0  0  0  0
  180.8860  174.6870  138.3300 C   0  0  2  0  0  3  0  0  0  0  0  0
  184.2290  174.3920  137.2140 O   0  0  0  0  0  0  0  0  0  0  0  0
  182.2570  175.1280  138.2570 N   0  0  0  0  0  0  0  0  0  0  0  0
  183.0060  174.2270  137.4660 C   0  0  0  0  0  0  0  0  0  0  0  0
  182.2030  173.0950  136.9630 C   0  0  1  0  0  3  0  0  0  0  0  0
  1 50  1  6  0  0  0
  1 31  1  0  0  0  0
  2 14  1  0  0  0  0
  4  9  1  6  0  0  0
  4  5  1  0  0  0  0
  4  7  1  0  0  0  0
  5 13  1  1  0  0  0
  6  3  2  0  0  0  0
  7 17  1  6  0  0  0
  7 10  1  0  0  0  0
  8  5  1  0  0  0  0
  9 16  1  0  0  0  0
 10  1  1  0  0  0  0
 11  2  1  0  0  0  0
 11 16  1  0  0  0  0
 12  6  1  0  0  0  0
 13 10  2  0  0  0  0
 14  8  1  0  0  0  0
 14  3  1  0  0  0  0
 15  2  1  0  0  0  0
 15 12  2  0  0  0  0
 16  8  1  0  0  0  0
 18 17  1  0  0  0  0
 19 12  1  0  0  0  0
 19 21  1  0  0  0  0
 21 20  1  0  0  0  0
 21 25  1  0  0  0  0
 22 23  1  0  0  0  0
 24 22  1  0  0  0  0
 25 23  1  0  0  0  0
 26 24  1  0  0  0  0
 26 25  1  0  0  0  0
 27 26  2  0  0  0  0
 29 24  1  0  0  0  0
 29 28  1  0  0  0  0
 30 36  1  0  0  0  0
 31 30  1  0  0  0  0
 32 31  2  0  0  0  0
 34 37  1  0  0  0  0
 34 33  1  0  0  0  0
 35 34  1  0  0  0  0
 35 33  1  0  0  0  0
 36 35  1  0  0  0  0
 36 34  1  0  0  0  0
 38 37  1  0  0  0  0
 38 39  1  0  0  0  0
 39 40  1  0  0  0  0
 40 47  1  0  0  0  0
 41 46  1  0  0  0  0
 41 40  1  0  0  0  0
 41 42  1  0  0  0  0
 43 41  1  0  0  0  0
 44 43  1  0  0  0  0
 46 45  1  0  0  0  0
 47 49  1  0  0  0  0
 48 49  1  0  0  0  0
 50 51  1  0  0  0  0
 51 52  1  0  0  0  0
 53 54  1  0  0  0  0
 53 51  1  0  0  0  0
 54 55  1  0  0  0  0
 56 55  1  0  0  0  0
 57 63  1  0  0  0  0
 58 57  1  0  0  0  0
 60 59  1  0  0  0  0
 60 56  1  0  0  0  0
 61 63  1  0  0  0  0
 61 59  1  0  0  0  0
 62 67  1  0  0  0  0
 64 66  2  0  0  0  0
 65 60  1  0  0  0  0
 65 63  1  0  0  0  0
 66 65  1  0  0  0  0
 67 57  1  0  0  0  0
 67 66  1  0  0  0  0
M  END
>  <MODEL>
9

>  <REMARK>
 VINA RESULT:      -4.3      2.790      4.834
  Name = 
  24 active torsions:
  status: ('A' for Active; 'I' for Inactive)
    1  A    between atoms: C_3  and  C_15
    2  A    between atoms: C_3  and  C_17
    3  A    between atoms: C_3  and  C_27
    4  A    between atoms: O_7  and  C_20
    5  A    between atoms: O_7  and  C_45
    6  A    between atoms: C_8  and  C_31
    7  A    between atoms: N_11  and  C_61
    8  A    between atoms: C_12  and  C_37
    9  A    between atoms: C_12  and  C_49
   10  A    between atoms: O_18  and  C_29
   11  A    between atoms: C_19  and  C_60
   12  A    between atoms: C_20  and  C_27
   13  A    between atoms: C_23  and  C_45
   14  A    between atoms: C_25  and  C_59
   15  A    between atoms: C_27  and  C_59
   16  A    between atoms: C_30  and  C_31
   17  A    between atoms: C_30  and  S_51
   18  A    between atoms: N_34  and  C_42
   19  A    between atoms: N_34  and  C_54
   20  A    between atoms: C_36  and  C_60
   21  A    between atoms: C_37  and  S_51
   22  A    between atoms: N_43  and  C_55
   23  A    between atoms: C_47  and  C_54
   24  A    between atoms: C_49  and  C_60
                            x       y       z     vdW  Elec       q    Type
                         _______ _______ _______ _____ _____    ______ ____

>  <TORSDO>
F 24

$$$$
