=
 OpenBabel10232411553D

 37 41  0  0  1  0  0  0  0  0999 V2000
  187.0060  178.0020  143.4210 C   0  0  0  0  0  0  0  0  0  0  0  0
  188.3270  177.6560  143.8010 C   0  0  0  0  0  0  0  0  0  0  0  0
  187.8530  177.3220  147.4470 N   0  0  0  0  0  0  0  0  0  0  0  0
  186.2780  177.8500  145.7340 C   0  0  0  0  0  3  0  0  0  0  0  0
  185.9980  178.0880  144.3880 C   0  0  0  0  0  3  0  0  0  0  0  0
  190.1150  176.8840  146.9830 C   0  0  0  0  0  0  0  0  0  0  0  0
  191.4760  176.5400  147.4720 C   0  0  0  0  0  1  0  0  0  0  0  0
  189.8890  177.0940  145.6210 C   0  0  0  0  0  3  0  0  0  0  0  0
  188.6060  177.4240  145.1720 C   0  0  0  0  0  0  0  0  0  0  0  0
  189.0850  177.0120  147.8610 N   0  0  0  0  0  0  0  0  0  0  0  0
  187.5740  177.5260  146.1300 C   0  0  0  0  0  0  0  0  0  0  0  0
  190.1110  176.2620  142.5850 C   0  0  0  0  0  2  0  0  0  0  0  0
  189.2140  176.8110  141.4870 C   0  0  1  0  0  3  0  0  0  0  0  0
  189.4360  177.6040  142.7710 C   0  0  1  0  0  0  0  0  0  0  0  0
  190.3160  178.6860  142.7120 O   0  0  0  0  0  1  0  0  0  0  0  0
  190.0800  177.3180  140.3400 C   0  0  0  0  0  2  0  0  0  0  0  0
  190.8610  175.6060  138.8480 O   0  0  0  0  0  1  0  0  0  0  0  0
  189.8410  176.5380  139.0460 C   0  0  2  0  0  3  0  0  0  0  0  0
  189.7330  177.4540  137.8300 C   0  0  0  0  0  2  0  0  0  0  0  0
  188.0550  175.9740  136.7290 N   0  0  0  0  0  2  0  0  0  0  0  0
  188.4750  177.2460  137.1340 N   0  0  0  0  0  0  0  0  0  0  0  0
  186.3590  177.6660  136.1960 C   0  0  0  0  0  2  0  0  0  0  0  0
  185.7130  175.2860  136.6400 C   0  0  0  0  0  1  0  0  0  0  0  0
  187.7430  179.4980  136.9710 N   0  0  0  0  0  2  0  0  0  0  0  0
  187.4940  178.2320  136.9260 C   0  0  0  0  0  0  0  0  0  0  0  0
  186.7730  176.1960  136.0460 C   0  0  2  0  0  3  0  0  0  0  0  0
  186.6430  178.3080  142.0050 C   0  0  0  0  0  2  0  0  0  0  0  0
  185.2010  178.4240  141.8830 N   0  0  0  0  0  2  0  0  0  0  0  0
  184.8140  178.4130  139.4830 C   0  0  0  0  0  2  0  0  0  0  0  0
  184.9430  179.2760  140.7270 C   0  0  1  0  0  3  0  0  0  0  0  0
  183.5650  179.0230  140.0930 C   0  0  2  0  0  3  0  0  0  0  0  0
  182.7380  177.9520  140.7990 C   0  0  2  0  0  3  0  0  0  0  0  0
  182.4250  176.9320  139.8990 O   0  0  0  0  0  1  0  0  0  0  0  0
  181.4820  179.1640  143.1190 C   0  0  0  0  0  1  0  0  0  0  0  0
  180.1220  177.6480  141.3790 O   0  0  0  0  0  0  0  0  0  0  0  0
  180.8410  179.8680  140.6160 O   0  0  0  0  0  0  0  0  0  0  0  0
  181.2280  178.6660  141.4340 S   0  0  0  0  0  0  0  0  0  0  0  0
  1  2  2  0  0  0  0
  1  5  1  0  0  0  0
  2  9  1  0  0  0  0
  3 10  1  0  0  0  0
  4 11  1  0  0  0  0
  5  4  2  0  0  0  0
  6  7  1  0  0  0  0
  6 10  2  0  0  0  0
  8  6  1  0  0  0  0
  9  8  2  0  0  0  0
  9 11  1  0  0  0  0
 11  3  2  0  0  0  0
 12 14  1  0  0  0  0
 13 16  1  6  0  0  0
 13 12  1  0  0  0  0
 13 14  1  0  0  0  0
 14 15  1  6  0  0  0
 14  2  1  0  0  0  0
 18 17  1  6  0  0  0
 18 16  1  0  0  0  0
 19 18  1  0  0  0  0
 20 21  1  0  0  0  0
 21 19  1  0  0  0  0
 22 25  1  0  0  0  0
 25 24  2  0  0  0  0
 25 21  1  0  0  0  0
 26 22  1  0  0  0  0
 26 23  1  1  0  0  0
 26 20  1  0  0  0  0
 27  1  1  0  0  0  0
 28 27  1  0  0  0  0
 29 31  1  0  0  0  0
 29 30  1  0  0  0  0
 30 28  1  1  0  0  0
 31 30  1  0  0  0  0
 31 32  1  1  0  0  0
 32 33  1  6  0  0  0
 32 37  1  0  0  0  0
 35 37  2  0  0  0  0
 36 37  2  0  0  0  0
 37 34  1  0  0  0  0
M  END
>  <MODEL>
1

>  <REMARK>
 VINA RESULT:      -8.5      0.000      0.000
  Name = 
  10 active torsions:
  status: ('A' for Active; 'I' for Inactive)
    1  A    between atoms: C_2  and  S_30
    2  A    between atoms: C_2  and  C_33
    3  A    between atoms: C_3  and  C_11
    4  A    between atoms: C_5  and  C_22
    5  A    between atoms: N_6  and  C_13
    6  A    between atoms: C_11  and  N_27
    7  A    between atoms: C_12  and  C_15
    8  A    between atoms: C_13  and  C_36
    9  A    between atoms: C_15  and  C_36
   10  A    between atoms: N_27  and  C_29
                            x       y       z     vdW  Elec       q    Type
                         _______ _______ _______ _____ _____    ______ ____

>  <TORSDO>
F 10

$$$$
=
 OpenBabel10232411553D

 37 41  0  0  1  0  0  0  0  0999 V2000
  185.8650  178.5210  142.4740 C   0  0  0  0  0  0  0  0  0  0  0  0
  186.8460  178.1890  143.4420 C   0  0  0  0  0  0  0  0  0  0  0  0
  184.8440  178.6040  146.5160 N   0  0  0  0  0  0  0  0  0  0  0  0
  184.2190  178.8640  144.2280 C   0  0  0  0  0  3  0  0  0  0  0  0
  184.5650  178.8470  142.8760 C   0  0  0  0  0  3  0  0  0  0  0  0
  187.0120  177.9670  147.1620 C   0  0  0  0  0  0  0  0  0  0  0  0
  187.9830  177.6580  148.2440 C   0  0  0  0  0  1  0  0  0  0  0  0
  187.4080  177.9170  145.8250 C   0  0  0  0  0  3  0  0  0  0  0  0
  186.4900  178.2180  144.8140 C   0  0  0  0  0  0  0  0  0  0  0  0
  185.7340  178.3180  147.4700 N   0  0  0  0  0  0  0  0  0  0  0  0
  185.1730  178.5590  145.1950 C   0  0  0  0  0  0  0  0  0  0  0  0
  188.8520  176.5890  143.5550 C   0  0  0  0  0  2  0  0  0  0  0  0
  188.5180  176.7090  142.0760 C   0  0  1  0  0  3  0  0  0  0  0  0
  188.2670  177.8790  143.0230 C   0  0  1  0  0  0  0  0  0  0  0  0
  189.1780  178.9360  142.9920 O   0  0  0  0  0  1  0  0  0  0  0  0
  189.8090  176.8770  141.2840 C   0  0  0  0  0  2  0  0  0  0  0  0
  190.7810  176.0360  139.2550 O   0  0  0  0  0  1  0  0  0  0  0  0
  189.6170  176.5880  139.7940 C   0  0  2  0  0  3  0  0  0  0  0  0
  189.2200  177.8340  139.0090 C   0  0  0  0  0  2  0  0  0  0  0  0
  187.8520  176.1920  137.7250 N   0  0  0  0  0  2  0  0  0  0  0  0
  188.3160  177.4970  137.9230 N   0  0  0  0  0  0  0  0  0  0  0  0
  186.8530  177.7330  136.0960 C   0  0  0  0  0  2  0  0  0  0  0  0
  185.6430  175.6630  136.8250 C   0  0  0  0  0  1  0  0  0  0  0  0
  188.1500  179.6220  136.8800 N   0  0  0  0  0  2  0  0  0  0  0  0
  187.7000  178.4270  137.0660 C   0  0  0  0  0  0  0  0  0  0  0  0
  187.0030  176.2670  136.5270 C   0  0  2  0  0  3  0  0  0  0  0  0
  186.1730  178.5600  141.0130 C   0  0  0  0  0  2  0  0  0  0  0  0
  185.1810  179.3640  140.3230 N   0  0  0  0  0  2  0  0  0  0  0  0
  183.8250  177.5540  139.4320 C   0  0  0  0  0  2  0  0  0  0  0  0
  184.8290  178.6450  139.1040 C   0  0  1  0  0  3  0  0  0  0  0  0
  183.3490  178.8070  138.7190 C   0  0  2  0  0  3  0  0  0  0  0  0
  182.5480  179.6910  139.6700 C   0  0  2  0  0  3  0  0  0  0  0  0
  181.7550  178.8930  140.4960 O   0  0  0  0  0  1  0  0  0  0  0  0
  181.0420  180.0240  137.2110 C   0  0  0  0  0  1  0  0  0  0  0  0
  182.2510  182.0740  138.4430 O   0  0  0  0  0  0  0  0  0  0  0  0
  180.2620  181.1240  139.5260 O   0  0  0  0  0  0  0  0  0  0  0  0
  181.5040  180.8020  138.7390 S   0  0  0  0  0  0  0  0  0  0  0  0
  1  5  2  0  0  0  0
  1  2  1  0  0  0  0
  2  9  2  0  0  0  0
  3 10  2  0  0  0  0
  4 11  2  0  0  0  0
  5  4  1  0  0  0  0
  6 10  1  0  0  0  0
  6  7  1  0  0  0  0
  8  6  2  0  0  0  0
  9 11  1  0  0  0  0
  9  8  1  0  0  0  0
 11  3  1  0  0  0  0
 13 16  1  6  0  0  0
 13 14  1  0  0  0  0
 13 12  1  0  0  0  0
 14 15  1  6  0  0  0
 14  2  1  0  0  0  0
 14 12  1  0  0  0  0
 18 17  1  6  0  0  0
 18 16  1  0  0  0  0
 19 18  1  0  0  0  0
 20 21  1  0  0  0  0
 21 19  1  0  0  0  0
 22 26  1  0  0  0  0
 22 25  1  0  0  0  0
 24 25  2  0  0  0  0
 25 21  1  0  0  0  0
 26 23  1  1  0  0  0
 26 20  1  0  0  0  0
 27  1  1  0  0  0  0
 28 27  1  0  0  0  0
 30 29  1  0  0  0  0
 30 28  1  1  0  0  0
 31 30  1  0  0  0  0
 31 29  1  0  0  0  0
 31 32  1  1  0  0  0
 32 33  1  1  0  0  0
 34 37  1  0  0  0  0
 35 37  2  0  0  0  0
 37 36  2  0  0  0  0
 37 32  1  0  0  0  0
M  END
>  <MODEL>
2

>  <REMARK>
 VINA RESULT:      -8.3      1.686      2.348
  Name = 
  10 active torsions:
  status: ('A' for Active; 'I' for Inactive)
    1  A    between atoms: C_2  and  S_30
    2  A    between atoms: C_2  and  C_33
    3  A    between atoms: C_3  and  C_11
    4  A    between atoms: C_5  and  C_22
    5  A    between atoms: N_6  and  C_13
    6  A    between atoms: C_11  and  N_27
    7  A    between atoms: C_12  and  C_15
    8  A    between atoms: C_13  and  C_36
    9  A    between atoms: C_15  and  C_36
   10  A    between atoms: N_27  and  C_29
                            x       y       z     vdW  Elec       q    Type
                         _______ _______ _______ _____ _____    ______ ____

>  <TORSDO>
F 10

$$$$
=
 OpenBabel10232411553D

 37 41  0  0  1  0  0  0  0  0999 V2000
  187.0020  178.0410  143.2770 C   0  0  0  0  0  0  0  0  0  0  0  0
  188.3110  177.7020  143.7030 C   0  0  0  0  0  0  0  0  0  0  0  0
  187.7020  177.3240  147.3250 N   0  0  0  0  0  0  0  0  0  0  0  0
  186.1880  177.8560  145.5600 C   0  0  0  0  0  3  0  0  0  0  0  0
  185.9570  178.1070  144.2060 C   0  0  0  0  0  3  0  0  0  0  0  0
  189.9840  176.9110  146.9430 C   0  0  0  0  0  0  0  0  0  0  0  0
  191.3290  176.5750  147.4800 C   0  0  0  0  0  1  0  0  0  0  0  0
  189.8070  177.1350  145.5760 C   0  0  0  0  0  3  0  0  0  0  0  0
  188.5400  177.4580  145.0820 C   0  0  0  0  0  0  0  0  0  0  0  0
  188.9200  177.0210  147.7830 N   0  0  0  0  0  0  0  0  0  0  0  0
  187.4700  177.5400  146.0010 C   0  0  0  0  0  0  0  0  0  0  0  0
  190.0460  176.3090  142.4190 C   0  0  0  0  0  2  0  0  0  0  0  0
  189.2390  177.0290  141.3500 C   0  0  1  0  0  3  0  0  0  0  0  0
  189.4580  177.6720  142.7160 C   0  0  1  0  0  0  0  0  0  0  0  0
  190.4130  178.6870  142.8020 O   0  0  0  0  0  1  0  0  0  0  0  0
  190.1890  177.5830  140.2950 C   0  0  0  0  0  2  0  0  0  0  0  0
  188.6530  178.9200  139.0230 O   0  0  0  0  0  1  0  0  0  0  0  0
  189.4940  177.8080  138.9510 C   0  0  2  0  0  3  0  0  0  0  0  0
  188.7020  176.5860  138.4970 C   0  0  0  0  0  2  0  0  0  0  0  0
  187.1590  176.9500  136.5720 N   0  0  0  0  0  2  0  0  0  0  0  0
  188.4300  176.6440  137.0710 N   0  0  0  0  0  0  0  0  0  0  0  0
  188.7700  176.6570  134.7430 C   0  0  0  0  0  2  0  0  0  0  0  0
  186.7800  178.1580  134.4820 C   0  0  0  0  0  1  0  0  0  0  0  0
  190.5670  176.0290  136.2420 N   0  0  0  0  0  2  0  0  0  0  0  0
  189.4020  176.5550  136.0590 C   0  0  0  0  0  0  0  0  0  0  0  0
  187.2960  176.8750  135.1110 C   0  0  2  0  0  3  0  0  0  0  0  0
  186.6890  178.3590  141.8520 C   0  0  0  0  0  2  0  0  0  0  0  0
  185.2510  178.4260  141.6690 N   0  0  0  0  0  2  0  0  0  0  0  0
  185.0380  178.3130  139.2490 C   0  0  0  0  0  2  0  0  0  0  0  0
  185.0160  179.2200  140.4680 C   0  0  1  0  0  3  0  0  0  0  0  0
  183.7080  178.8480  139.7500 C   0  0  2  0  0  3  0  0  0  0  0  0
  182.9120  177.7410  140.4350 C   0  0  2  0  0  3  0  0  0  0  0  0
  182.9250  176.5930  139.6410 O   0  0  0  0  0  1  0  0  0  0  0  0
  180.9630  179.8110  139.8470 C   0  0  0  0  0  1  0  0  0  0  0  0
  180.9610  178.4530  142.1570 O   0  0  0  0  0  0  0  0  0  0  0  0
  180.2740  177.2390  140.1360 O   0  0  0  0  0  0  0  0  0  0  0  0
  181.2230  178.2680  140.6860 S   0  0  0  0  0  0  0  0  0  0  0  0
  1  2  2  0  0  0  0
  1  5  1  0  0  0  0
  2  9  1  0  0  0  0
  3 10  1  0  0  0  0
  4 11  1  0  0  0  0
  5  4  2  0  0  0  0
  6  7  1  0  0  0  0
  6 10  2  0  0  0  0
  8  6  1  0  0  0  0
  9  8  2  0  0  0  0
  9 11  1  0  0  0  0
 11  3  2  0  0  0  0
 12 14  1  0  0  0  0
 13 16  1  6  0  0  0
 13 12  1  0  0  0  0
 13 14  1  0  0  0  0
 14 15  1  1  0  0  0
 14  2  1  0  0  0  0
 18 17  1  1  0  0  0
 18 16  1  0  0  0  0
 19 18  1  0  0  0  0
 20 21  1  0  0  0  0
 21 19  1  0  0  0  0
 22 26  1  0  0  0  0
 22 25  1  0  0  0  0
 25 24  2  0  0  0  0
 25 21  1  0  0  0  0
 26 23  1  6  0  0  0
 26 20  1  0  0  0  0
 27  1  1  0  0  0  0
 28 27  1  0  0  0  0
 29 31  1  0  0  0  0
 29 30  1  0  0  0  0
 30 28  1  1  0  0  0
 31 32  1  1  0  0  0
 31 30  1  0  0  0  0
 32 33  1  6  0  0  0
 32 37  1  0  0  0  0
 34 37  1  0  0  0  0
 36 37  2  0  0  0  0
 37 35  2  0  0  0  0
M  END
>  <MODEL>
3

>  <REMARK>
 VINA RESULT:      -8.0      1.310      1.623
  Name = 
  10 active torsions:
  status: ('A' for Active; 'I' for Inactive)
    1  A    between atoms: C_2  and  S_30
    2  A    between atoms: C_2  and  C_33
    3  A    between atoms: C_3  and  C_11
    4  A    between atoms: C_5  and  C_22
    5  A    between atoms: N_6  and  C_13
    6  A    between atoms: C_11  and  N_27
    7  A    between atoms: C_12  and  C_15
    8  A    between atoms: C_13  and  C_36
    9  A    between atoms: C_15  and  C_36
   10  A    between atoms: N_27  and  C_29
                            x       y       z     vdW  Elec       q    Type
                         _______ _______ _______ _____ _____    ______ ____

>  <TORSDO>
F 10

$$$$
=
 OpenBabel10232411553D

 37 41  0  0  1  0  0  0  0  0999 V2000
  188.5090  177.9290  140.2310 C   0  0  0  0  0  0  0  0  0  0  0  0
  189.7780  177.2980  140.2510 C   0  0  0  0  0  0  0  0  0  0  0  0
  190.3420  176.9310  136.6210 N   0  0  0  0  0  0  0  0  0  0  0  0
  188.5140  177.9100  137.8010 C   0  0  0  0  0  3  0  0  0  0  0  0
  187.8960  178.2330  139.0100 C   0  0  0  0  0  3  0  0  0  0  0  0
  192.2020  176.0110  137.7240 C   0  0  0  0  0  0  0  0  0  0  0  0
  193.5190  175.3260  137.6530 C   0  0  0  0  0  1  0  0  0  0  0  0
  191.6390  176.3270  138.9620 C   0  0  0  0  0  3  0  0  0  0  0  0
  190.3950  176.9640  139.0190 C   0  0  0  0  0  0  0  0  0  0  0  0
  191.5280  176.3180  136.5830 N   0  0  0  0  0  0  0  0  0  0  0  0
  189.7520  177.2730  137.8000 C   0  0  0  0  0  0  0  0  0  0  0  0
  191.8510  177.4050  141.7650 C   0  0  0  0  0  2  0  0  0  0  0  0
  190.7270  178.0210  142.5820 C   0  0  1  0  0  3  0  0  0  0  0  0
  190.4310  176.9230  141.5650 C   0  0  1  0  0  0  0  0  0  0  0  0
  190.2010  175.6380  142.0570 O   0  0  0  0  0  1  0  0  0  0  0  0
  190.7910  177.4830  144.0060 C   0  0  0  0  0  2  0  0  0  0  0  0
  190.2550  178.4450  146.1400 O   0  0  0  0  0  1  0  0  0  0  0  0
  189.7110  178.0920  144.9040 C   0  0  2  0  0  3  0  0  0  0  0  0
  188.5290  177.1490  145.1070 C   0  0  0  0  0  2  0  0  0  0  0  0
  186.4640  178.5320  144.9000 N   0  0  0  0  0  2  0  0  0  0  0  0
  187.3990  177.8520  145.6890 N   0  0  0  0  0  0  0  0  0  0  0  0
  185.8450  178.6320  147.2740 C   0  0  0  0  0  2  0  0  0  0  0  0
  184.0990  178.7360  145.4790 C   0  0  0  0  0  1  0  0  0  0  0  0
  187.8530  177.4800  147.9890 N   0  0  0  0  0  2  0  0  0  0  0  0
  187.0340  177.8110  147.0470 C   0  0  0  0  0  0  0  0  0  0  0  0
  185.5180  179.1240  145.8570 C   0  0  2  0  0  3  0  0  0  0  0  0
  187.7730  178.2700  141.4850 C   0  0  0  0  0  2  0  0  0  0  0  0
  186.5520  178.9850  141.1590 N   0  0  0  0  0  2  0  0  0  0  0  0
  184.2700  179.1990  141.9690 C   0  0  0  0  0  2  0  0  0  0  0  0
  185.4580  178.2660  141.8020 C   0  0  1  0  0  3  0  0  0  0  0  0
  184.2220  178.1240  140.8970 C   0  0  2  0  0  3  0  0  0  0  0  0
  184.3860  178.7430  139.5130 C   0  0  2  0  0  3  0  0  0  0  0  0
  183.7060  179.9610  139.4600 O   0  0  0  0  0  1  0  0  0  0  0  0
  182.8930  176.2930  139.0680 C   0  0  0  0  0  1  0  0  0  0  0  0
  184.8470  177.1020  137.4220 O   0  0  0  0  0  0  0  0  0  0  0  0
  182.7500  178.3790  137.3930 O   0  0  0  0  0  0  0  0  0  0  0  0
  183.7270  177.6430  138.2690 S   0  0  0  0  0  0  0  0  0  0  0  0
  1  2  1  0  0  0  0
  1 27  1  0  0  0  0
  2 14  1  0  0  0  0
  3 11  1  0  0  0  0
  4  5  1  0  0  0  0
  5  1  2  0  0  0  0
  6  8  2  0  0  0  0
  7  6  1  0  0  0  0
  8  9  1  0  0  0  0
  9  2  2  0  0  0  0
 10  3  2  0  0  0  0
 10  6  1  0  0  0  0
 11  4  2  0  0  0  0
 11  9  1  0  0  0  0
 12 13  1  0  0  0  0
 13 16  1  1  0  0  0
 14 12  1  0  0  0  0
 14 15  1  1  0  0  0
 14 13  1  0  0  0  0
 16 18  1  0  0  0  0
 18 19  1  0  0  0  0
 18 17  1  1  0  0  0
 19 21  1  0  0  0  0
 20 21  1  0  0  0  0
 20 26  1  0  0  0  0
 21 25  1  0  0  0  0
 25 22  1  0  0  0  0
 25 24  2  0  0  0  0
 26 23  1  6  0  0  0
 26 22  1  0  0  0  0
 28 27  1  0  0  0  0
 30 28  1  6  0  0  0
 30 29  1  0  0  0  0
 31 32  1  6  0  0  0
 31 30  1  0  0  0  0
 31 29  1  0  0  0  0
 32 33  1  1  0  0  0
 35 37  2  0  0  0  0
 36 37  2  0  0  0  0
 37 34  1  0  0  0  0
 37 32  1  0  0  0  0
M  END
>  <MODEL>
4

>  <REMARK>
 VINA RESULT:      -7.9      2.287      6.902
  Name = 
  10 active torsions:
  status: ('A' for Active; 'I' for Inactive)
    1  A    between atoms: C_2  and  S_30
    2  A    between atoms: C_2  and  C_33
    3  A    between atoms: C_3  and  C_11
    4  A    between atoms: C_5  and  C_22
    5  A    between atoms: N_6  and  C_13
    6  A    between atoms: C_11  and  N_27
    7  A    between atoms: C_12  and  C_15
    8  A    between atoms: C_13  and  C_36
    9  A    between atoms: C_15  and  C_36
   10  A    between atoms: N_27  and  C_29
                            x       y       z     vdW  Elec       q    Type
                         _______ _______ _______ _____ _____    ______ ____

>  <TORSDO>
F 10

$$$$
=
 OpenBabel10232411553D

 37 41  0  0  1  0  0  0  0  0999 V2000
  185.0900  178.4840  142.8440 C   0  0  0  0  0  0  0  0  0  0  0  0
  186.2510  178.0610  143.5380 C   0  0  0  0  0  0  0  0  0  0  0  0
  185.1980  178.7880  147.0020 N   0  0  0  0  0  0  0  0  0  0  0  0
  184.0180  179.0640  144.9460 C   0  0  0  0  0  3  0  0  0  0  0  0
  183.9870  178.9720  143.5540 C   0  0  0  0  0  3  0  0  0  0  0  0
  187.3780  177.9140  147.0920 C   0  0  0  0  0  0  0  0  0  0  0  0
  188.5630  177.5180  147.8970 C   0  0  0  0  0  1  0  0  0  0  0  0
  187.3960  177.7840  145.7020 C   0  0  0  0  0  3  0  0  0  0  0  0
  186.2790  178.1670  144.9520 C   0  0  0  0  0  0  0  0  0  0  0  0
  186.2750  178.4230  147.7030 N   0  0  0  0  0  0  0  0  0  0  0  0
  185.1570  178.6720  145.6450 C   0  0  0  0  0  0  0  0  0  0  0  0
  187.5840  178.0340  141.3420 C   0  0  0  0  0  2  0  0  0  0  0  0
  188.5450  178.5800  142.3870 C   0  0  1  0  0  3  0  0  0  0  0  0
  187.4670  177.5740  142.7800 C   0  0  1  0  0  0  0  0  0  0  0  0
  187.8660  176.2510  142.9780 O   0  0  0  0  0  1  0  0  0  0  0  0
  189.9070  177.9230  142.2070 C   0  0  0  0  0  2  0  0  0  0  0  0
  190.5300  175.7890  141.2960 O   0  0  0  0  0  1  0  0  0  0  0  0
  189.9550  177.0200  140.9720 C   0  0  2  0  0  3  0  0  0  0  0  0
  190.7180  177.6610  139.8160 C   0  0  0  0  0  2  0  0  0  0  0  0
  190.3080  176.0870  137.9260 N   0  0  0  0  0  2  0  0  0  0  0  0
  190.1040  177.3270  138.5420 N   0  0  0  0  0  0  0  0  0  0  0  0
  188.7500  177.4670  136.6240 C   0  0  0  0  0  2  0  0  0  0  0  0
  188.6250  174.9650  136.5550 C   0  0  0  0  0  1  0  0  0  0  0  0
  188.9950  179.3770  138.0950 N   0  0  0  0  0  2  0  0  0  0  0  0
  189.1500  178.1140  137.8740 C   0  0  0  0  0  0  0  0  0  0  0  0
  189.5550  176.1610  136.6660 C   0  0  2  0  0  3  0  0  0  0  0  0
  185.0000  178.4490  141.3540 C   0  0  0  0  0  2  0  0  0  0  0  0
  183.6950  177.9570  140.9520 N   0  0  0  0  0  2  0  0  0  0  0  0
  184.2100  179.1540  138.9000 C   0  0  0  0  0  2  0  0  0  0  0  0
  183.1680  178.9050  139.9770 C   0  0  1  0  0  3  0  0  0  0  0  0
  183.0020  178.2930  138.5760 C   0  0  2  0  0  3  0  0  0  0  0  0
  183.4030  176.8240  138.4830 C   0  0  2  0  0  3  0  0  0  0  0  0
  184.3710  176.6640  137.4900 O   0  0  0  0  0  1  0  0  0  0  0  0
  181.0070  175.5840  139.5550 C   0  0  0  0  0  1  0  0  0  0  0  0
  182.4210  174.4870  137.5610 O   0  0  0  0  0  0  0  0  0  0  0  0
  181.1350  176.5150  137.0470 O   0  0  0  0  0  0  0  0  0  0  0  0
  181.9760  175.8250  138.0870 S   0  0  0  0  0  0  0  0  0  0  0  0
  1  2  2  0  0  0  0
  1  5  1  0  0  0  0
  2  9  1  0  0  0  0
  3 10  1  0  0  0  0
  4 11  1  0  0  0  0
  5  4  2  0  0  0  0
  6 10  2  0  0  0  0
  6  7  1  0  0  0  0
  8  6  1  0  0  0  0
  9 11  1  0  0  0  0
  9  8  2  0  0  0  0
 11  3  2  0  0  0  0
 12 13  1  0  0  0  0
 12 14  1  0  0  0  0
 13 16  1  6  0  0  0
 13 14  1  0  0  0  0
 14 15  1  1  0  0  0
 14  2  1  0  0  0  0
 18 17  1  1  0  0  0
 18 16  1  0  0  0  0
 19 18  1  0  0  0  0
 20 21  1  0  0  0  0
 21 19  1  0  0  0  0
 22 26  1  0  0  0  0
 22 25  1  0  0  0  0
 25 24  2  0  0  0  0
 25 21  1  0  0  0  0
 26 23  1  1  0  0  0
 26 20  1  0  0  0  0
 27  1  1  0  0  0  0
 28 27  1  0  0  0  0
 29 30  1  0  0  0  0
 30 28  1  1  0  0  0
 31 32  1  1  0  0  0
 31 29  1  0  0  0  0
 31 30  1  0  0  0  0
 32 33  1  6  0  0  0
 35 37  2  0  0  0  0
 36 37  2  0  0  0  0
 37 32  1  0  0  0  0
 37 34  1  0  0  0  0
M  END
>  <MODEL>
5

>  <REMARK>
 VINA RESULT:      -7.5      2.268      2.851
  Name = 
  10 active torsions:
  status: ('A' for Active; 'I' for Inactive)
    1  A    between atoms: C_2  and  S_30
    2  A    between atoms: C_2  and  C_33
    3  A    between atoms: C_3  and  C_11
    4  A    between atoms: C_5  and  C_22
    5  A    between atoms: N_6  and  C_13
    6  A    between atoms: C_11  and  N_27
    7  A    between atoms: C_12  and  C_15
    8  A    between atoms: C_13  and  C_36
    9  A    between atoms: C_15  and  C_36
   10  A    between atoms: N_27  and  C_29
                            x       y       z     vdW  Elec       q    Type
                         _______ _______ _______ _____ _____    ______ ____

>  <TORSDO>
F 10

$$$$
=
 OpenBabel10232411553D

 37 41  0  0  1  0  0  0  0  0999 V2000
  186.6210  178.2740  143.0220 C   0  0  0  0  0  0  0  0  0  0  0  0
  187.8910  177.8870  143.5180 C   0  0  0  0  0  0  0  0  0  0  0  0
  187.0940  177.6110  147.1120 N   0  0  0  0  0  0  0  0  0  0  0  0
  185.6910  178.1720  145.2650 C   0  0  0  0  0  3  0  0  0  0  0  0
  185.5370  178.4050  143.8980 C   0  0  0  0  0  3  0  0  0  0  0  0
  189.3700  177.0900  146.8490 C   0  0  0  0  0  0  0  0  0  0  0  0
  190.6720  176.7060  147.4560 C   0  0  0  0  0  1  0  0  0  0  0  0
  189.2700  177.2930  145.4710 C   0  0  0  0  0  3  0  0  0  0  0  0
  188.0430  177.6620  144.9100 C   0  0  0  0  0  0  0  0  0  0  0  0
  188.2740  177.2630  147.6340 N   0  0  0  0  0  0  0  0  0  0  0  0
  186.9360  177.8090  145.7740 C   0  0  0  0  0  0  0  0  0  0  0  0
  189.7390  176.4260  142.4920 C   0  0  0  0  0  2  0  0  0  0  0  0
  188.9510  176.9660  141.3080 C   0  0  1  0  0  3  0  0  0  0  0  0
  189.0820  177.7860  142.5880 C   0  0  1  0  0  0  0  0  0  0  0  0
  189.9880  178.8470  142.5800 O   0  0  0  0  0  1  0  0  0  0  0  0
  189.9230  177.4250  140.2290 C   0  0  0  0  0  2  0  0  0  0  0  0
  188.1900  176.7780  138.6980 O   0  0  0  0  0  1  0  0  0  0  0  0
  189.2230  177.6970  138.8960 C   0  0  2  0  0  3  0  0  0  0  0  0
  190.1880  177.6560  137.7150 C   0  0  0  0  0  2  0  0  0  0  0  0
  190.1020  175.2180  137.1980 N   0  0  0  0  0  2  0  0  0  0  0  0
  190.8170  176.3520  137.6040 N   0  0  0  0  0  0  0  0  0  0  0  0
  192.4700  174.6790  137.5570 C   0  0  0  0  0  2  0  0  0  0  0  0
  191.0850  173.3860  135.9160 C   0  0  0  0  0  1  0  0  0  0  0  0
  193.0020  176.9070  138.3430 N   0  0  0  0  0  2  0  0  0  0  0  0
  192.1950  176.1040  137.7350 C   0  0  0  0  0  0  0  0  0  0  0  0
  191.0750  174.1180  137.2460 C   0  0  2  0  0  3  0  0  0  0  0  0
  186.3910  178.5760  141.5780 C   0  0  0  0  0  2  0  0  0  0  0  0
  185.0190  179.0060  141.3790 N   0  0  0  0  0  2  0  0  0  0  0  0
  185.0680  177.9600  139.1850 C   0  0  0  0  0  2  0  0  0  0  0  0
  184.8580  179.2550  139.9500 C   0  0  1  0  0  3  0  0  0  0  0  0
  183.6600  178.5060  139.3430 C   0  0  2  0  0  3  0  0  0  0  0  0
  182.8730  177.6680  140.3460 C   0  0  2  0  0  3  0  0  0  0  0  0
  182.6110  176.4100  139.8030 O   0  0  0  0  0  1  0  0  0  0  0  0
  181.1250  179.8890  139.6820 C   0  0  0  0  0  1  0  0  0  0  0  0
  181.3420  178.9290  142.1740 O   0  0  0  0  0  0  0  0  0  0  0  0
  180.1800  177.5290  140.5250 O   0  0  0  0  0  0  0  0  0  0  0  0
  181.3290  178.4770  140.7390 S   0  0  0  0  0  0  0  0  0  0  0  0
  1  2  2  0  0  0  0
  1  5  1  0  0  0  0
  2  9  1  0  0  0  0
  3 10  1  0  0  0  0
  4 11  1  0  0  0  0
  5  4  2  0  0  0  0
  6  7  1  0  0  0  0
  6 10  2  0  0  0  0
  8  6  1  0  0  0  0
  9  8  2  0  0  0  0
  9 11  1  0  0  0  0
 11  3  2  0  0  0  0
 12 14  1  0  0  0  0
 13 16  1  6  0  0  0
 13 12  1  0  0  0  0
 13 14  1  0  0  0  0
 14 15  1  6  0  0  0
 14  2  1  0  0  0  0
 18 17  1  6  0  0  0
 18 16  1  0  0  0  0
 19 18  1  0  0  0  0
 20 26  1  0  0  0  0
 20 21  1  0  0  0  0
 21 19  1  0  0  0  0
 21 25  1  0  0  0  0
 22 25  1  0  0  0  0
 25 24  2  0  0  0  0
 26 23  1  6  0  0  0
 26 22  1  0  0  0  0
 27  1  1  0  0  0  0
 28 27  1  0  0  0  0
 29 31  1  0  0  0  0
 29 30  1  0  0  0  0
 30 28  1  1  0  0  0
 31 30  1  0  0  0  0
 31 32  1  1  0  0  0
 32 33  1  6  0  0  0
 32 37  1  0  0  0  0
 34 37  1  0  0  0  0
 36 37  2  0  0  0  0
 37 35  2  0  0  0  0
M  END
>  <MODEL>
6

>  <REMARK>
 VINA RESULT:      -7.4      1.778      2.460
  Name = 
  10 active torsions:
  status: ('A' for Active; 'I' for Inactive)
    1  A    between atoms: C_2  and  S_30
    2  A    between atoms: C_2  and  C_33
    3  A    between atoms: C_3  and  C_11
    4  A    between atoms: C_5  and  C_22
    5  A    between atoms: N_6  and  C_13
    6  A    between atoms: C_11  and  N_27
    7  A    between atoms: C_12  and  C_15
    8  A    between atoms: C_13  and  C_36
    9  A    between atoms: C_15  and  C_36
   10  A    between atoms: N_27  and  C_29
                            x       y       z     vdW  Elec       q    Type
                         _______ _______ _______ _____ _____    ______ ____

>  <TORSDO>
F 10

$$$$
=
 OpenBabel10232411553D

 37 41  0  0  1  0  0  0  0  0999 V2000
  190.3350  177.3430  138.9550 C   0  0  0  0  0  0  0  0  0  0  0  0
  189.5320  177.4150  140.1200 C   0  0  0  0  0  0  0  0  0  0  0  0
  186.4360  178.7900  138.6520 N   0  0  0  0  0  0  0  0  0  0  0  0
  188.5010  178.2040  137.6120 C   0  0  0  0  0  3  0  0  0  0  0  0
  189.8100  177.7300  137.7160 C   0  0  0  0  0  3  0  0  0  0  0  0
  186.0680  178.5190  140.9570 C   0  0  0  0  0  0  0  0  0  0  0  0
  185.1660  178.6530  142.1310 C   0  0  0  0  0  1  0  0  0  0  0  0
  187.3620  178.0210  141.1180 C   0  0  0  0  0  3  0  0  0  0  0  0
  188.2060  177.9070  140.0080 C   0  0  0  0  0  0  0  0  0  0  0  0
  185.6430  178.8980  139.7220 N   0  0  0  0  0  0  0  0  0  0  0  0
  187.7030  178.3000  138.7490 C   0  0  0  0  0  0  0  0  0  0  0  0
  190.8980  178.1180  142.1790 C   0  0  0  0  0  2  0  0  0  0  0  0
  189.5360  177.7120  142.7220 C   0  0  1  0  0  3  0  0  0  0  0  0
  190.1020  177.0430  141.4720 C   0  0  1  0  0  0  0  0  0  0  0  0
  190.6380  175.7630  141.6180 O   0  0  0  0  0  1  0  0  0  0  0  0
  189.7290  176.8580  143.9690 C   0  0  0  0  0  2  0  0  0  0  0  0
  191.4750  177.7010  145.3860 O   0  0  0  0  0  1  0  0  0  0  0  0
  190.0920  177.6980  145.1950 C   0  0  2  0  0  3  0  0  0  0  0  0
  189.3940  177.2080  146.4600 C   0  0  0  0  0  2  0  0  0  0  0  0
  187.2910  178.1850  145.5440 N   0  0  0  0  0  2  0  0  0  0  0  0
  188.1110  177.8650  146.6330 N   0  0  0  0  0  0  0  0  0  0  0  0
  186.2070  178.7860  147.6640 C   0  0  0  0  0  2  0  0  0  0  0  0
  184.8500  178.1870  145.6440 C   0  0  0  0  0  1  0  0  0  0  0  0
  188.1330  178.1500  148.9890 N   0  0  0  0  0  2  0  0  0  0  0  0
  187.4900  178.1130  147.8700 C   0  0  0  0  0  0  0  0  0  0  0  0
  186.1230  178.8560  146.1320 C   0  0  2  0  0  3  0  0  0  0  0  0
  191.7540  176.8810  138.9970 C   0  0  0  0  0  2  0  0  0  0  0  0
  192.1420  176.3660  137.6960 N   0  0  0  0  0  2  0  0  0  0  0  0
  192.1970  174.3410  136.3520 C   0  0  0  0  0  2  0  0  0  0  0  0
  191.8680  174.9330  137.7120 C   0  0  1  0  0  3  0  0  0  0  0  0
  193.1330  174.0800  137.5190 C   0  0  2  0  0  3  0  0  0  0  0  0
  194.4170  174.8910  137.3650 C   0  0  2  0  0  3  0  0  0  0  0  0
  194.8690  174.8070  136.0480 O   0  0  0  0  0  1  0  0  0  0  0  0
  197.2460  174.2980  137.6390 C   0  0  0  0  0  1  0  0  0  0  0  0
  195.3500  172.8390  138.8460 O   0  0  0  0  0  0  0  0  0  0  0  0
  195.7470  175.1030  139.7080 O   0  0  0  0  0  0  0  0  0  0  0  0
  195.6740  174.2580  138.4650 S   0  0  0  0  0  0  0  0  0  0  0  0
  1 27  1  0  0  0  0
  1  2  1  0  0  0  0
  2 14  1  0  0  0  0
  3 11  1  0  0  0  0
  3 10  2  0  0  0  0
  4  5  1  0  0  0  0
  4 11  2  0  0  0  0
  5  1  2  0  0  0  0
  6  8  2  0  0  0  0
  6  7  1  0  0  0  0
  9  2  2  0  0  0  0
  9  8  1  0  0  0  0
 10  6  1  0  0  0  0
 11  9  1  0  0  0  0
 12 13  1  0  0  0  0
 13 16  1  1  0  0  0
 14 15  1  1  0  0  0
 14 12  1  0  0  0  0
 14 13  1  0  0  0  0
 16 18  1  0  0  0  0
 18 17  1  1  0  0  0
 18 19  1  0  0  0  0
 19 21  1  0  0  0  0
 20 26  1  0  0  0  0
 20 21  1  0  0  0  0
 21 25  1  0  0  0  0
 22 25  1  0  0  0  0
 25 24  2  0  0  0  0
 26 23  1  6  0  0  0
 26 22  1  0  0  0  0
 28 27  1  0  0  0  0
 29 31  1  0  0  0  0
 29 30  1  0  0  0  0
 30 28  1  6  0  0  0
 31 32  1  6  0  0  0
 31 30  1  0  0  0  0
 32 33  1  6  0  0  0
 32 37  1  0  0  0  0
 34 37  1  0  0  0  0
 37 35  2  0  0  0  0
 37 36  2  0  0  0  0
M  END
>  <MODEL>
7

>  <REMARK>
 VINA RESULT:      -7.4      4.326      9.456
  Name = 
  10 active torsions:
  status: ('A' for Active; 'I' for Inactive)
    1  A    between atoms: C_2  and  S_30
    2  A    between atoms: C_2  and  C_33
    3  A    between atoms: C_3  and  C_11
    4  A    between atoms: C_5  and  C_22
    5  A    between atoms: N_6  and  C_13
    6  A    between atoms: C_11  and  N_27
    7  A    between atoms: C_12  and  C_15
    8  A    between atoms: C_13  and  C_36
    9  A    between atoms: C_15  and  C_36
   10  A    between atoms: N_27  and  C_29
                            x       y       z     vdW  Elec       q    Type
                         _______ _______ _______ _____ _____    ______ ____

>  <TORSDO>
F 10

$$$$
=
 OpenBabel10232411553D

 37 41  0  0  1  0  0  0  0  0999 V2000
  187.8300  178.2570  141.5920 C   0  0  0  0  0  0  0  0  0  0  0  0
  188.5090  177.9650  142.8020 C   0  0  0  0  0  0  0  0  0  0  0  0
  185.6570  178.0340  145.1450 N   0  0  0  0  0  0  0  0  0  0  0  0
  185.7130  178.3570  142.7810 C   0  0  0  0  0  3  0  0  0  0  0  0
  186.4420  178.4420  141.5950 C   0  0  0  0  0  3  0  0  0  0  0  0
  187.5900  177.5640  146.3950 C   0  0  0  0  0  0  0  0  0  0  0  0
  188.2250  177.2870  147.7110 C   0  0  0  0  0  1  0  0  0  0  0  0
  188.3670  177.6200  145.2370 C   0  0  0  0  0  3  0  0  0  0  0  0
  187.7620  177.8890  144.0050 C   0  0  0  0  0  0  0  0  0  0  0  0
  186.2500  177.7810  146.3150 N   0  0  0  0  0  0  0  0  0  0  0  0
  186.3640  178.0890  143.9820 C   0  0  0  0  0  0  0  0  0  0  0  0
  190.5360  176.4140  143.0940 C   0  0  0  0  0  2  0  0  0  0  0  0
  190.6870  177.0130  141.7050 C   0  0  1  0  0  3  0  0  0  0  0  0
  190.0150  177.8080  142.8200 C   0  0  1  0  0  0  0  0  0  0  0  0
  190.7630  178.8150  143.4310 O   0  0  0  0  0  1  0  0  0  0  0  0
  192.1380  177.4300  141.4960 C   0  0  0  0  0  2  0  0  0  0  0  0
  193.9970  177.3730  139.9770 O   0  0  0  0  0  1  0  0  0  0  0  0
  192.7360  176.8260  140.2240 C   0  0  2  0  0  3  0  0  0  0  0  0
  191.8360  177.0250  139.0090 C   0  0  0  0  0  2  0  0  0  0  0  0
  191.1830  174.8020  138.0880 N   0  0  0  0  0  2  0  0  0  0  0  0
  191.9990  175.9390  138.0580 N   0  0  0  0  0  0  0  0  0  0  0  0
  192.7580  174.7010  136.2070 C   0  0  0  0  0  2  0  0  0  0  0  0
  190.5360  173.5480  136.0940 C   0  0  0  0  0  1  0  0  0  0  0  0
  193.8660  176.7590  136.8450 N   0  0  0  0  0  2  0  0  0  0  0  0
  192.8550  175.9620  136.9430 C   0  0  0  0  0  0  0  0  0  0  0  0
  191.6840  173.9460  137.0030 C   0  0  2  0  0  3  0  0  0  0  0  0
  188.5510  178.4010  140.2930 C   0  0  0  0  0  2  0  0  0  0  0  0
  187.7830  177.7690  139.2340 N   0  0  0  0  0  2  0  0  0  0  0  0
  188.9850  177.8110  137.1210 C   0  0  0  0  0  2  0  0  0  0  0  0
  188.0130  178.5510  138.0240 C   0  0  1  0  0  3  0  0  0  0  0  0
  187.5120  177.8460  136.7520 C   0  0  2  0  0  3  0  0  0  0  0  0
  186.8660  176.4860  137.0040 C   0  0  2  0  0  3  0  0  0  0  0  0
  187.5730  175.4980  136.3170 O   0  0  0  0  0  1  0  0  0  0  0  0
  185.0910  177.2840  134.8490 C   0  0  0  0  0  1  0  0  0  0  0  0
  184.3180  177.2700  137.4150 O   0  0  0  0  0  0  0  0  0  0  0  0
  184.6520  175.0940  136.3270 O   0  0  0  0  0  0  0  0  0  0  0  0
  185.1710  176.5020  136.4410 S   0  0  0  0  0  0  0  0  0  0  0  0
  1  5  2  0  0  0  0
  1  2  1  0  0  0  0
  2 14  1  0  0  0  0
  2  9  2  0  0  0  0
  3 10  2  0  0  0  0
  4 11  2  0  0  0  0
  5  4  1  0  0  0  0
  6  7  1  0  0  0  0
  8  6  2  0  0  0  0
  9  8  1  0  0  0  0
 10  6  1  0  0  0  0
 11  9  1  0  0  0  0
 11  3  1  0  0  0  0
 13 16  1  1  0  0  0
 13 14  1  0  0  0  0
 13 12  1  0  0  0  0
 14 12  1  0  0  0  0
 14 15  1  1  0  0  0
 18 17  1  6  0  0  0
 18 16  1  0  0  0  0
 19 18  1  0  0  0  0
 21 20  1  0  0  0  0
 21 19  1  0  0  0  0
 22 25  1  0  0  0  0
 22 26  1  0  0  0  0
 24 25  2  0  0  0  0
 25 21  1  0  0  0  0
 26 23  1  6  0  0  0
 26 20  1  0  0  0  0
 27  1  1  0  0  0  0
 28 27  1  0  0  0  0
 29 30  1  0  0  0  0
 30 28  1  1  0  0  0
 31 32  1  1  0  0  0
 31 29  1  0  0  0  0
 31 30  1  0  0  0  0
 32 33  1  6  0  0  0
 34 37  1  0  0  0  0
 36 37  2  0  0  0  0
 37 32  1  0  0  0  0
 37 35  2  0  0  0  0
M  END
>  <MODEL>
8

>  <REMARK>
 VINA RESULT:      -7.4      2.794      4.382
  Name = 
  10 active torsions:
  status: ('A' for Active; 'I' for Inactive)
    1  A    between atoms: C_2  and  S_30
    2  A    between atoms: C_2  and  C_33
    3  A    between atoms: C_3  and  C_11
    4  A    between atoms: C_5  and  C_22
    5  A    between atoms: N_6  and  C_13
    6  A    between atoms: C_11  and  N_27
    7  A    between atoms: C_12  and  C_15
    8  A    between atoms: C_13  and  C_36
    9  A    between atoms: C_15  and  C_36
   10  A    between atoms: N_27  and  C_29
                            x       y       z     vdW  Elec       q    Type
                         _______ _______ _______ _____ _____    ______ ____

>  <TORSDO>
F 10

$$$$
=
 OpenBabel10232411553D

 37 41  0  0  1  0  0  0  0  0999 V2000
  186.0170  178.5650  141.3340 C   0  0  0  0  0  0  0  0  0  0  0  0
  184.6550  178.8560  141.0720 C   0  0  0  0  0  0  0  0  0  0  0  0
  183.2790  178.4900  144.4780 N   0  0  0  0  0  0  0  0  0  0  0  0
  185.5220  178.2680  143.6950 C   0  0  0  0  0  3  0  0  0  0  0  0
  186.4350  178.2830  142.6400 C   0  0  0  0  0  3  0  0  0  0  0  0
  181.4970  179.0440  143.0500 C   0  0  0  0  0  0  0  0  0  0  0  0
  180.0470  179.3110  142.8610 C   0  0  0  0  0  1  0  0  0  0  0  0
  182.3690  179.0900  141.9610 C   0  0  0  0  0  3  0  0  0  0  0  0
  183.7310  178.8290  142.1470 C   0  0  0  0  0  0  0  0  0  0  0  0
  181.9810  178.7360  144.2830 N   0  0  0  0  0  0  0  0  0  0  0  0
  184.1760  178.5320  143.4540 C   0  0  0  0  0  0  0  0  0  0  0  0
  184.1440  177.9200  138.7350 C   0  0  0  0  0  2  0  0  0  0  0  0
  182.8410  178.5450  139.2100 C   0  0  1  0  0  3  0  0  0  0  0  0
  184.1820  179.1180  139.6580 C   0  0  1  0  0  0  0  0  0  0  0  0
  184.6190  180.2890  139.0370 O   0  0  0  0  0  1  0  0  0  0  0  0
  182.2260  179.3450  138.0690 C   0  0  0  0  0  2  0  0  0  0  0  0
  180.1330  178.8460  139.1370 O   0  0  0  0  0  1  0  0  0  0  0  0
  180.8060  179.8170  138.3930 C   0  0  2  0  0  3  0  0  0  0  0  0
  180.0090  180.1560  137.1370 C   0  0  0  0  0  2  0  0  0  0  0  0
  180.3010  182.5770  137.6580 N   0  0  0  0  0  2  0  0  0  0  0  0
  180.2400  181.5310  136.7300 N   0  0  0  0  0  0  0  0  0  0  0  0
  180.7370  183.3960  135.3850 C   0  0  0  0  0  2  0  0  0  0  0  0
  181.7160  184.5490  137.3830 C   0  0  0  0  0  1  0  0  0  0  0  0
  180.3300  181.2310  134.3780 N   0  0  0  0  0  2  0  0  0  0  0  0
  180.5710  181.9430  135.4270 C   0  0  0  0  0  0  0  0  0  0  0  0
  180.5140  183.7880  136.8530 C   0  0  2  0  0  3  0  0  0  0  0  0
  187.0430  178.5260  140.2490 C   0  0  0  0  0  2  0  0  0  0  0  0
  188.3560  178.2930  140.8240 N   0  0  0  0  0  2  0  0  0  0  0  0
  190.2530  177.5820  139.4790 C   0  0  0  0  0  2  0  0  0  0  0  0
  188.9350  177.1620  140.1080 C   0  0  1  0  0  3  0  0  0  0  0  0
  190.2700  176.6920  140.7100 C   0  0  2  0  0  3  0  0  0  0  0  0
  190.7160  177.4840  141.9350 C   0  0  2  0  0  3  0  0  0  0  0  0
  192.0840  177.7490  141.8490 O   0  0  0  0  0  1  0  0  0  0  0  0
  189.8810  177.6610  144.7100 C   0  0  0  0  0  1  0  0  0  0  0  0
  191.6300  175.8220  143.8520 O   0  0  0  0  0  0  0  0  0  0  0  0
  189.2880  175.5510  143.1690 O   0  0  0  0  0  0  0  0  0  0  0  0
  190.3860  176.5490  143.4210 S   0  0  0  0  0  0  0  0  0  0  0  0
  1  5  1  0  0  0  0
  2  1  2  0  0  0  0
  2  9  1  0  0  0  0
  5  4  2  0  0  0  0
  6 10  2  0  0  0  0
  7  6  1  0  0  0  0
  8  9  2  0  0  0  0
  8  6  1  0  0  0  0
  9 11  1  0  0  0  0
 10  3  1  0  0  0  0
 11  4  1  0  0  0  0
 11  3  2  0  0  0  0
 12 13  1  0  0  0  0
 12 14  1  0  0  0  0
 13 16  1  6  0  0  0
 13 14  1  0  0  0  0
 14 15  1  6  0  0  0
 14  2  1  0  0  0  0
 16 18  1  0  0  0  0
 18 17  1  6  0  0  0
 19 18  1  0  0  0  0
 21 19  1  0  0  0  0
 21 20  1  0  0  0  0
 22 25  1  0  0  0  0
 22 26  1  0  0  0  0
 24 25  2  0  0  0  0
 25 21  1  0  0  0  0
 26 23  1  1  0  0  0
 26 20  1  0  0  0  0
 27 28  1  0  0  0  0
 27  1  1  0  0  0  0
 29 30  1  0  0  0  0
 29 31  1  0  0  0  0
 30 31  1  0  0  0  0
 30 28  1  1  0  0  0
 31 32  1  1  0  0  0
 32 33  1  6  0  0  0
 32 37  1  0  0  0  0
 36 37  2  0  0  0  0
 37 35  2  0  0  0  0
 37 34  1  0  0  0  0
M  END
>  <MODEL>
9

>  <REMARK>
 VINA RESULT:      -7.4      4.033      7.999
  Name = 
  10 active torsions:
  status: ('A' for Active; 'I' for Inactive)
    1  A    between atoms: C_2  and  S_30
    2  A    between atoms: C_2  and  C_33
    3  A    between atoms: C_3  and  C_11
    4  A    between atoms: C_5  and  C_22
    5  A    between atoms: N_6  and  C_13
    6  A    between atoms: C_11  and  N_27
    7  A    between atoms: C_12  and  C_15
    8  A    between atoms: C_13  and  C_36
    9  A    between atoms: C_15  and  C_36
   10  A    between atoms: N_27  and  C_29
                            x       y       z     vdW  Elec       q    Type
                         _______ _______ _______ _____ _____    ______ ____

>  <TORSDO>
F 10

$$$$
