=
 OpenBabel10232407483D

 67 73  0  0  1  0  0  0  0  0999 V2000
  189.4530  177.0020  144.9240 C   0  0  1  0  0  3  0  0  0  0  0  0
  190.9070  176.8280  147.0140 N   0  0  0  0  0  1  0  0  0  0  0  0
  190.7900  177.0040  145.6000 C   0  0  0  0  0  0  0  0  0  0  0  0
  191.8300  177.1360  144.9100 O   0  0  0  0  0  0  0  0  0  0  0  0
  188.3340  177.3350  145.8550 C   0  0  0  0  0  3  0  0  0  0  0  0
  187.1220  177.5030  145.4030 C   0  0  0  0  0  0  0  0  0  0  0  0
  185.9020  177.6650  144.9720 C   0  0  0  0  0  3  0  0  0  0  0  0
  185.2070  178.9670  145.1730 C   0  0  2  0  0  3  0  0  0  0  0  0
  184.2540  178.8380  146.2610 N   0  0  0  0  0  1  0  0  0  0  0  0
  184.4870  179.3590  143.8950 C   0  0  0  0  0  2  0  0  0  0  0  0
  182.9840  179.1980  144.0660 C   0  0  0  0  0  2  0  0  0  0  0  0
  182.2590  179.5300  142.7700 C   0  0  0  0  0  2  0  0  0  0  0  0
  180.7640  179.3070  142.9260 C   0  0  0  0  0  2  0  0  0  0  0  0
  180.7390  177.6710  136.5410 C   0  0  0  0  0  2  0  0  0  0  0  0
  181.8340  175.7580  136.1560 C   0  0  2  0  0  0  0  0  0  0  0  0
  183.1340  175.9590  136.6740 O   0  0  0  0  0  0  0  0  0  0  0  0
  181.8930  174.8870  138.4110 O   0  0  0  0  0  1  0  0  0  0  0  0
  181.3140  176.8940  135.5140 O   0  0  0  0  0  0  0  0  0  0  0  0
  182.7770  180.4700  138.7230 O   0  0  0  0  0  1  0  0  0  0  0  0
  182.4270  178.2800  138.1580 O   0  0  0  0  0  0  0  0  0  0  0  0
  181.4080  177.3340  137.8680 C   0  0  1  0  0  0  0  0  0  0  0  0
  179.9830  176.0210  141.4710 O   0  0  0  0  0  0  0  0  0  0  0  0
  181.4700  179.1040  140.1710 C   0  0  0  0  0  2  0  0  0  0  0  0
  180.3910  177.2120  141.4730 C   0  0  0  0  0  0  0  0  0  0  0  0
  180.3380  177.1840  138.9740 C   0  0  0  0  0  2  0  0  0  0  0  0
  181.8530  179.4260  138.7380 C   0  0  1  0  0  3  0  0  0  0  0  0
  182.0510  176.0040  137.5820 C   0  0  2  0  0  0  0  0  0  0  0  0
  180.7410  177.8370  140.2250 N   0  0  0  0  0  0  0  0  0  0  0  0
  180.4500  177.8990  142.7330 N   0  0  0  0  0  2  0  0  0  0  0  0
  181.5510  174.3620  135.5660 C   0  0  1  0  0  3  0  0  0  0  0  0
  180.8790  174.4810  134.3480 O   0  0  0  0  0  1  0  0  0  0  0  0
  183.7970  173.8900  134.4820 N   0  0  0  0  0  2  0  0  0  0  0  0
  182.7660  173.5030  135.3810 C   0  0  0  0  0  0  0  0  0  0  0  0
  182.8490  172.3730  136.0020 N   0  0  0  0  0  1  0  0  0  0  0  0
  189.4620  177.9300  143.7990 N   0  0  0  0  0  2  0  0  0  0  0  0
  188.5910  178.3910  141.4400 C   0  0  2  0  0  3  0  0  0  0  0  0
  190.6040  175.5360  142.5530 O   0  0  0  0  0  1  0  0  0  0  0  0
  187.2030  178.7960  141.9330 C   0  0  0  0  0  2  0  0  0  0  0  0
  186.5170  179.6990  140.9250 C   0  0  0  0  0  2  0  0  0  0  0  0
  187.2730  176.9860  139.6950 C   0  0  0  0  0  2  0  0  0  0  0  0
  186.4580  178.0610  138.9950 C   0  0  0  0  0  2  0  0  0  0  0  0
  188.6240  177.5510  140.1390 C   0  0  2  0  0  3  0  0  0  0  0  0
  189.2860  177.5370  142.4330 C   0  0  0  0  0  0  0  0  0  0  0  0
  185.6410  178.8790  139.9850 C   0  0  0  0  0  2  0  0  0  0  0  0
  189.5850  176.3910  140.4100 C   0  0  2  0  0  3  0  0  0  0  0  0
  189.8270  176.4670  141.8710 C   0  0  0  0  0  0  0  0  0  0  0  0
  190.5150  174.9180  138.1510 O   0  0  0  0  0  0  0  0  0  0  0  0
  191.2000  175.9120  138.5170 C   0  0  0  0  0  0  0  0  0  0  0  0
  190.8360  176.6300  139.7000 N   0  0  0  0  0  2  0  0  0  0  0  0
  192.3520  176.3850  137.7260 C   0  0  0  0  0  3  0  0  0  0  0  0
  195.7540  173.9580  137.7150 C   0  0  0  0  0  3  0  0  0  0  0  0
  193.2760  175.6350  137.1150 C   0  0  0  0  0  0  0  0  0  0  0  0
  194.3320  176.3680  136.3460 C   0  0  0  0  0  2  0  0  0  0  0  0
  196.2550  174.8370  136.8320 C   0  0  0  0  0  0  0  0  0  0  0  0
  194.4120  173.5500  137.8380 O   0  0  0  0  0  0  0  0  0  0  0  0
  193.2630  174.1220  137.2070 C   0  0  2  0  0  3  0  0  0  0  0  0
  195.3730  175.4310  135.7640 C   0  0  2  0  0  3  0  0  0  0  0  0
  196.0910  176.0730  134.7570 O   0  0  0  0  0  1  0  0  0  0  0  0
  191.0200  172.6350  134.7560 C   0  0  0  0  0  2  0  0  0  0  0  0
  191.4070  173.0340  136.0480 O   0  0  0  0  0  0  0  0  0  0  0  0
  192.7810  173.3300  135.9860 C   0  0  2  0  0  3  0  0  0  0  0  0
  193.5960  172.0470  135.7790 C   0  0  0  0  0  2  0  0  0  0  0  0
  191.6320  171.2740  134.4240 C   0  0  0  0  0  2  0  0  0  0  0  0
  193.1540  171.3920  134.4720 C   0  0  0  0  0  2  0  0  0  0  0  0
  198.1470  175.6520  138.0310 O   0  0  0  0  0  1  0  0  0  0  0  0
  197.6940  175.1910  136.9520 C   0  0  0  0  0  0  0  0  0  0  0  0
  198.5620  175.0380  135.8810 O   0  0  0  0  0  0  0  0  0  0  0  0
  1  3  1  0  0  0  0
  1  5  1  1  0  0  0
  3  2  1  0  0  0  0
  4  3  2  0  0  0  0
  6  5  2  0  0  0  0
  7  8  1  0  0  0  0
  7  6  2  0  0  0  0
  8  9  1  1  0  0  0
 10 11  1  0  0  0  0
 10  8  1  0  0  0  0
 12 13  1  0  0  0  0
 12 11  1  0  0  0  0
 15 30  1  6  0  0  0
 15 16  1  0  0  0  0
 15 27  1  0  0  0  0
 16 27  1  0  0  0  0
 18 15  1  0  0  0  0
 18 14  1  0  0  0  0
 20 26  1  0  0  0  0
 21 14  1  6  0  0  0
 21 20  1  0  0  0  0
 21 25  1  0  0  0  0
 22 24  2  0  0  0  0
 23 28  1  0  0  0  0
 24 29  1  0  0  0  0
 25 28  1  0  0  0  0
 26 19  1  1  0  0  0
 26 23  1  0  0  0  0
 27 21  1  0  0  0  0
 27 17  1  1  0  0  0
 28 24  1  0  0  0  0
 29 13  1  0  0  0  0
 30 31  1  6  0  0  0
 32 33  2  0  0  0  0
 33 30  1  0  0  0  0
 33 34  1  0  0  0  0
 35  1  1  0  0  0  0
 36 38  1  1  0  0  0
 36 43  1  0  0  0  0
 39 38  1  0  0  0  0
 41 40  1  0  0  0  0
 41 44  1  0  0  0  0
 42 40  1  1  0  0  0
 42 45  1  0  0  0  0
 42 36  1  0  0  0  0
 43 35  1  0  0  0  0
 44 39  1  0  0  0  0
 45 49  1  6  0  0  0
 45 46  1  0  0  0  0
 46 43  2  0  0  0  0
 46 37  1  0  0  0  0
 47 48  2  0  0  0  0
 48 49  1  0  0  0  0
 50 48  1  0  0  0  0
 51 55  1  0  0  0  0
 52 50  2  0  0  0  0
 53 52  1  0  0  0  0
 54 66  1  0  0  0  0
 54 51  2  0  0  0  0
 56 52  1  6  0  0  0
 56 55  1  0  0  0  0
 57 58  1  6  0  0  0
 57 53  1  0  0  0  0
 57 54  1  0  0  0  0
 59 60  1  0  0  0  0
 61 62  1  1  0  0  0
 61 60  1  0  0  0  0
 61 56  1  0  0  0  0
 63 64  1  0  0  0  0
 63 59  1  0  0  0  0
 64 62  1  0  0  0  0
 66 65  1  0  0  0  0
 67 66  2  0  0  0  0
M  END
>  <MODEL>
1

>  <REMARK>
 VINA RESULT:      -6.3      0.000      0.000
  Name = 
  16 active torsions:
  status: ('A' for Active; 'I' for Inactive)
    1  A    between atoms: C_2  and  C_13
    2  A    between atoms: C_4  and  C_15
    3  A    between atoms: C_4  and  C_51
    4  A    between atoms: C_5  and  C_9
    5  A    between atoms: C_9  and  C_42
    6  A    between atoms: N_12  and  C_23
    7  A    between atoms: N_12  and  C_46
    8  A    between atoms: C_15  and  N_67
    9  A    between atoms: C_18  and  C_23
   10  A    between atoms: C_19  and  C_23
   11  A    between atoms: N_22  and  C_61
   12  A    between atoms: C_31  and  C_36
   13  A    between atoms: C_41  and  C_49
   14  A    between atoms: C_41  and  C_54
   15  A    between atoms: C_49  and  C_51
   16  A    between atoms: C_52  and  C_63
                            x       y       z     vdW  Elec       q    Type
                         _______ _______ _______ _____ _____    ______ ____

>  <TORSDO>
F 16

$$$$
=
 OpenBabel10232407483D

 67 73  0  0  1  0  0  0  0  0999 V2000
  186.2660  177.5140  136.2800 C   0  0  1  0  0  3  0  0  0  0  0  0
  187.6540  176.4410  134.4280 N   0  0  0  0  0  1  0  0  0  0  0  0
  187.0920  177.6070  135.0340 C   0  0  0  0  0  0  0  0  0  0  0  0
  187.2730  178.7260  134.4960 O   0  0  0  0  0  0  0  0  0  0  0  0
  184.9160  176.9230  136.0360 C   0  0  0  0  0  3  0  0  0  0  0  0
  183.8490  177.4760  136.5420 C   0  0  0  0  0  0  0  0  0  0  0  0
  182.7680  178.0180  137.0310 C   0  0  0  0  0  3  0  0  0  0  0  0
  181.9020  177.2450  137.9640 C   0  0  2  0  0  3  0  0  0  0  0  0
  180.9030  176.5190  137.1990 N   0  0  0  0  0  1  0  0  0  0  0  0
  181.2230  178.1990  138.9310 C   0  0  0  0  0  2  0  0  0  0  0  0
  182.2200  178.6990  139.9650 C   0  0  0  0  0  2  0  0  0  0  0  0
  183.5990  178.1070  139.7100 C   0  0  0  0  0  2  0  0  0  0  0  0
  184.6580  178.8720  140.4860 C   0  0  0  0  0  2  0  0  0  0  0  0
  190.0250  176.2430  143.2650 C   0  0  0  0  0  2  0  0  0  0  0  0
  190.5680  177.2620  145.1810 C   0  0  2  0  0  0  0  0  0  0  0  0
  190.7250  178.6280  144.8490 O   0  0  0  0  0  0  0  0  0  0  0  0
  188.4770  178.3930  145.6210 O   0  0  0  0  0  1  0  0  0  0  0  0
  191.0710  176.3940  144.1990 O   0  0  0  0  0  0  0  0  0  0  0  0
  189.4370  178.7090  140.0520 O   0  0  0  0  0  1  0  0  0  0  0  0
  189.4490  178.3900  142.3180 O   0  0  0  0  0  0  0  0  0  0  0  0
  189.1060  177.4560  143.3320 C   0  0  1  0  0  0  0  0  0  0  0  0
  185.0950  177.8980  144.0050 O   0  0  0  0  0  0  0  0  0  0  0  0
  187.3710  178.3230  141.1690 C   0  0  0  0  0  2  0  0  0  0  0  0
  185.4550  178.1340  142.8220 C   0  0  0  0  0  0  0  0  0  0  0  0
  187.6290  176.9990  143.3090 C   0  0  0  0  0  2  0  0  0  0  0  0
  188.8530  178.0050  141.1030 C   0  0  1  0  0  3  0  0  0  0  0  0
  189.4450  178.0510  144.6720 C   0  0  2  0  0  0  0  0  0  0  0  0
  186.8060  177.8330  142.4260 N   0  0  0  0  0  0  0  0  0  0  0  0
  184.4750  178.6610  141.9150 N   0  0  0  0  0  2  0  0  0  0  0  0
  190.7510  176.9040  146.6700 C   0  0  1  0  0  3  0  0  0  0  0  0
  189.5710  176.3630  147.1830 O   0  0  0  0  0  1  0  0  0  0  0  0
  192.1050  174.8230  146.1430 N   0  0  0  0  0  2  0  0  0  0  0  0
  191.8900  175.9720  146.9540 C   0  0  0  0  0  0  0  0  0  0  0  0
  192.6480  176.1830  147.9780 N   0  0  0  0  0  1  0  0  0  0  0  0
  186.9760  176.7410  137.2920 N   0  0  0  0  0  2  0  0  0  0  0  0
  187.1600  174.5500  135.9860 C   0  0  2  0  0  3  0  0  0  0  0  0
  189.4520  175.8110  138.5550 O   0  0  0  0  0  1  0  0  0  0  0  0
  185.6760  174.2250  136.1460 C   0  0  0  0  0  2  0  0  0  0  0  0
  185.2080  173.2950  135.0410 C   0  0  0  0  0  2  0  0  0  0  0  0
  187.5100  172.0670  136.6660 C   0  0  0  0  0  2  0  0  0  0  0  0
  186.7290  171.3440  135.5810 C   0  0  0  0  0  2  0  0  0  0  0  0
  188.1290  173.3490  136.1060 C   0  0  2  0  0  3  0  0  0  0  0  0
  187.6210  175.4870  137.0390 C   0  0  0  0  0  0  0  0  0  0  0  0
  185.2930  171.8420  135.4970 C   0  0  0  0  0  2  0  0  0  0  0  0
  189.2550  173.8070  137.0380 C   0  0  2  0  0  3  0  0  0  0  0  0
  188.7530  175.0860  137.5950 C   0  0  0  0  0  0  0  0  0  0  0  0
  191.9160  173.9190  138.0600 O   0  0  0  0  0  0  0  0  0  0  0  0
  191.7710  174.0130  136.8110 C   0  0  0  0  0  0  0  0  0  0  0  0
  190.4550  174.0600  136.2490 N   0  0  0  0  0  2  0  0  0  0  0  0
  192.9320  174.0320  135.9020 C   0  0  0  0  0  3  0  0  0  0  0  0
  196.7030  174.3730  137.6680 C   0  0  0  0  0  3  0  0  0  0  0  0
  194.1680  173.5920  136.1590 C   0  0  0  0  0  0  0  0  0  0  0  0
  195.1640  173.7000  135.0450 C   0  0  0  0  0  2  0  0  0  0  0  0
  197.1880  174.2260  136.4250 C   0  0  0  0  0  0  0  0  0  0  0  0
  195.5570  173.7620  138.2090 O   0  0  0  0  0  0  0  0  0  0  0  0
  194.5470  173.0270  137.5140 C   0  0  2  0  0  3  0  0  0  0  0  0
  196.5490  173.2520  135.4680 C   0  0  2  0  0  3  0  0  0  0  0  0
  197.3360  172.9920  134.3470 O   0  0  0  0  0  1  0  0  0  0  0  0
  196.1000  169.7720  138.0140 C   0  0  0  0  0  2  0  0  0  0  0  0
  196.0440  171.0960  137.5400 O   0  0  0  0  0  0  0  0  0  0  0  0
  194.7030  171.5060  137.6420 C   0  0  2  0  0  3  0  0  0  0  0  0
  193.8350  170.7550  136.6240 C   0  0  0  0  0  2  0  0  0  0  0  0
  195.3960  168.8360  137.0310 C   0  0  0  0  0  2  0  0  0  0  0  0
  193.9340  169.2580  136.9070 C   0  0  0  0  0  2  0  0  0  0  0  0
  199.4990  174.8050  136.5220 O   0  0  0  0  0  1  0  0  0  0  0  0
  198.3630  175.0530  136.0400 C   0  0  0  0  0  0  0  0  0  0  0  0
  198.2340  176.1180  135.1600 O   0  0  0  0  0  0  0  0  0  0  0  0
  1  5  1  6  0  0  0
  1 35  1  0  0  0  0
  2  3  1  0  0  0  0
  3  1  1  0  0  0  0
  4  3  2  0  0  0  0
  5  6  2  0  0  0  0
  6  7  2  0  0  0  0
  7  8  1  0  0  0  0
  8  9  1  6  0  0  0
  8 10  1  0  0  0  0
 10 11  1  0  0  0  0
 12 11  1  0  0  0  0
 12 13  1  0  0  0  0
 13 29  1  0  0  0  0
 14 18  1  0  0  0  0
 15 30  1  1  0  0  0
 16 15  1  0  0  0  0
 18 15  1  0  0  0  0
 20 21  1  0  0  0  0
 21 14  1  6  0  0  0
 21 27  1  0  0  0  0
 23 28  1  0  0  0  0
 24 22  2  0  0  0  0
 25 21  1  0  0  0  0
 26 19  1  6  0  0  0
 26 23  1  0  0  0  0
 26 20  1  0  0  0  0
 27 16  1  0  0  0  0
 27 15  1  0  0  0  0
 27 17  1  1  0  0  0
 28 24  1  0  0  0  0
 28 25  1  0  0  0  0
 29 24  1  0  0  0  0
 30 33  1  0  0  0  0
 30 31  1  6  0  0  0
 32 33  2  0  0  0  0
 33 34  1  0  0  0  0
 36 42  1  0  0  0  0
 36 38  1  1  0  0  0
 36 43  1  0  0  0  0
 39 44  1  0  0  0  0
 39 38  1  0  0  0  0
 41 40  1  0  0  0  0
 42 40  1  1  0  0  0
 42 45  1  0  0  0  0
 43 35  1  0  0  0  0
 43 46  2  0  0  0  0
 44 41  1  0  0  0  0
 45 49  1  6  0  0  0
 45 46  1  0  0  0  0
 46 37  1  0  0  0  0
 48 47  2  0  0  0  0
 49 48  1  0  0  0  0
 50 52  2  0  0  0  0
 50 48  1  0  0  0  0
 51 55  1  0  0  0  0
 53 57  1  0  0  0  0
 53 52  1  0  0  0  0
 54 51  2  0  0  0  0
 56 52  1  6  0  0  0
 56 61  1  0  0  0  0
 56 55  1  0  0  0  0
 57 58  1  6  0  0  0
 57 54  1  0  0  0  0
 60 61  1  0  0  0  0
 60 59  1  0  0  0  0
 61 62  1  6  0  0  0
 62 64  1  0  0  0  0
 63 59  1  0  0  0  0
 64 63  1  0  0  0  0
 66 54  1  0  0  0  0
 66 65  1  0  0  0  0
 67 66  2  0  0  0  0
M  END
>  <MODEL>
2

>  <REMARK>
 VINA RESULT:      -5.3      3.038      7.925
  Name = 
  16 active torsions:
  status: ('A' for Active; 'I' for Inactive)
    1  A    between atoms: C_2  and  C_13
    2  A    between atoms: C_4  and  C_15
    3  A    between atoms: C_4  and  C_51
    4  A    between atoms: C_5  and  C_9
    5  A    between atoms: C_9  and  C_42
    6  A    between atoms: N_12  and  C_23
    7  A    between atoms: N_12  and  C_46
    8  A    between atoms: C_15  and  N_67
    9  A    between atoms: C_18  and  C_23
   10  A    between atoms: C_19  and  C_23
   11  A    between atoms: N_22  and  C_61
   12  A    between atoms: C_31  and  C_36
   13  A    between atoms: C_41  and  C_49
   14  A    between atoms: C_41  and  C_54
   15  A    between atoms: C_49  and  C_51
   16  A    between atoms: C_52  and  C_63
                            x       y       z     vdW  Elec       q    Type
                         _______ _______ _______ _____ _____    ______ ____

>  <TORSDO>
F 16

$$$$
=
 OpenBabel10232407483D

 67 73  0  0  1  0  0  0  0  0999 V2000
  188.8500  177.5570  140.3000 C   0  0  1  0  0  3  0  0  0  0  0  0
  190.0600  175.9470  141.8660 N   0  0  0  0  0  1  0  0  0  0  0  0
  189.5050  177.2390  141.6090 C   0  0  0  0  0  0  0  0  0  0  0  0
  189.5930  178.1300  142.4880 O   0  0  0  0  0  0  0  0  0  0  0  0
  187.7950  178.6080  140.4220 C   0  0  0  0  0  3  0  0  0  0  0  0
  186.5820  178.2920  140.7830 C   0  0  0  0  0  0  0  0  0  0  0  0
  185.3660  177.9980  141.1510 C   0  0  0  0  0  3  0  0  0  0  0  0
  184.2220  178.2860  140.2430 C   0  0  2  0  0  3  0  0  0  0  0  0
  184.2170  179.6990  139.9100 N   0  0  0  0  0  1  0  0  0  0  0  0
  182.9220  177.9100  140.9310 C   0  0  0  0  0  2  0  0  0  0  0  0
  182.3190  179.1250  141.6190 C   0  0  0  0  0  2  0  0  0  0  0  0
  181.8910  178.7810  143.0380 C   0  0  0  0  0  2  0  0  0  0  0  0
  182.7470  179.5270  144.0470 C   0  0  0  0  0  2  0  0  0  0  0  0
  187.5630  178.6050  148.4520 C   0  0  0  0  0  2  0  0  0  0  0  0
  189.2820  177.4590  147.5950 C   0  0  2  0  0  0  0  0  0  0  0  0
  188.7260  176.2500  147.1150 O   0  0  0  0  0  0  0  0  0  0  0  0
  188.7910  177.7300  145.2430 O   0  0  0  0  0  1  0  0  0  0  0  0
  188.7200  177.8820  148.8090 O   0  0  0  0  0  0  0  0  0  0  0  0
  183.8710  176.9200  147.9210 O   0  0  0  0  0  1  0  0  0  0  0  0
  186.0400  177.1760  147.2370 O   0  0  0  0  0  0  0  0  0  0  0  0
  187.0740  178.1370  147.0870 C   0  0  1  0  0  0  0  0  0  0  0  0
  186.3490  180.0740  143.5560 O   0  0  0  0  0  0  0  0  0  0  0  0
  184.3440  178.4210  146.1350 C   0  0  0  0  0  2  0  0  0  0  0  0
  185.3170  179.6740  144.1550 C   0  0  0  0  0  0  0  0  0  0  0  0
  186.6920  179.3590  146.2180 C   0  0  0  0  0  2  0  0  0  0  0  0
  184.8140  177.8320  147.4520 C   0  0  1  0  0  3  0  0  0  0  0  0
  188.2890  177.4550  146.5190 C   0  0  2  0  0  0  0  0  0  0  0  0
  185.4370  179.1470  145.4880 N   0  0  0  0  0  0  0  0  0  0  0  0
  184.0570  179.8050  143.4780 N   0  0  0  0  0  2  0  0  0  0  0  0
  190.7940  177.6470  147.3560 C   0  0  1  0  0  3  0  0  0  0  0  0
  191.4260  178.0190  148.5440 O   0  0  0  0  0  1  0  0  0  0  0  0
  191.6720  176.3320  145.3710 N   0  0  0  0  0  2  0  0  0  0  0  0
  191.4890  176.4520  146.7760 C   0  0  0  0  0  0  0  0  0  0  0  0
  191.8740  175.4970  147.5560 N   0  0  0  0  0  1  0  0  0  0  0  0
  189.8550  177.9660  139.3270 N   0  0  0  0  0  2  0  0  0  0  0  0
  190.8510  176.2740  137.6880 C   0  0  2  0  0  3  0  0  0  0  0  0
  188.2310  178.7500  137.0170 O   0  0  0  0  0  1  0  0  0  0  0  0
  192.2850  176.5410  138.1420 C   0  0  0  0  0  2  0  0  0  0  0  0
  193.1730  175.3480  137.8430 C   0  0  0  0  0  2  0  0  0  0  0  0
  191.8530  176.4520  135.2970 C   0  0  0  0  0  2  0  0  0  0  0  0
  192.9000  175.3510  135.3260 C   0  0  0  0  0  2  0  0  0  0  0  0
  190.6550  176.0650  136.1660 C   0  0  2  0  0  3  0  0  0  0  0  0
  189.9650  177.4190  138.0070 C   0  0  0  0  0  0  0  0  0  0  0  0
  193.8610  175.5210  136.4930 C   0  0  0  0  0  2  0  0  0  0  0  0
  189.4540  176.9290  135.7730 C   0  0  2  0  0  3  0  0  0  0  0  0
  189.2090  177.7620  136.9750 C   0  0  0  0  0  0  0  0  0  0  0  0
  187.0940  177.6710  134.3510 O   0  0  0  0  0  0  0  0  0  0  0  0
  187.1860  176.4740  134.7370 C   0  0  0  0  0  0  0  0  0  0  0  0
  188.3010  176.0680  135.5380 N   0  0  0  0  0  2  0  0  0  0  0  0
  186.1870  175.4610  134.3460 C   0  0  0  0  0  3  0  0  0  0  0  0
  185.1470  172.6270  137.2340 C   0  0  0  0  0  3  0  0  0  0  0  0
  185.3080  174.8430  135.1420 C   0  0  0  0  0  0  0  0  0  0  0  0
  184.3770  173.8710  134.4850 C   0  0  0  0  0  2  0  0  0  0  0  0
  184.2510  172.1880  136.3360 C   0  0  0  0  0  0  0  0  0  0  0  0
  185.5510  173.9580  137.4480 O   0  0  0  0  0  0  0  0  0  0  0  0
  185.2670  175.0990  136.6350 C   0  0  2  0  0  3  0  0  0  0  0  0
  183.4820  173.1660  135.4860 C   0  0  2  0  0  3  0  0  0  0  0  0
  182.3930  172.5880  134.8360 O   0  0  0  0  0  1  0  0  0  0  0  0
  182.1180  176.0360  138.2030 C   0  0  0  0  0  2  0  0  0  0  0  0
  182.9480  175.2420  137.3900 O   0  0  0  0  0  0  0  0  0  0  0  0
  184.1320  175.9720  137.1850 C   0  0  2  0  0  3  0  0  0  0  0  0
  183.8620  177.1890  136.2910 C   0  0  0  0  0  2  0  0  0  0  0  0
  181.6210  177.2490  137.4150 C   0  0  0  0  0  2  0  0  0  0  0  0
  182.8250  178.0780  136.9740 C   0  0  0  0  0  2  0  0  0  0  0  0
  183.1090  170.1540  136.8290 O   0  0  0  0  0  1  0  0  0  0  0  0
  184.0530  170.7180  136.2190 C   0  0  0  0  0  0  0  0  0  0  0  0
  184.9090  169.9380  135.4550 O   0  0  0  0  0  0  0  0  0  0  0  0
  1  5  1  1  0  0  0
  1  3  1  0  0  0  0
  3  2  1  0  0  0  0
  3  4  2  0  0  0  0
  5  6  2  0  0  0  0
  6  7  2  0  0  0  0
  8  9  1  1  0  0  0
  8 10  1  0  0  0  0
  8  7  1  0  0  0  0
 10 11  1  0  0  0  0
 11 12  1  0  0  0  0
 12 13  1  0  0  0  0
 14 18  1  0  0  0  0
 15 30  1  6  0  0  0
 15 18  1  0  0  0  0
 16 15  1  0  0  0  0
 20 26  1  0  0  0  0
 21 25  1  6  0  0  0
 21 20  1  0  0  0  0
 21 14  1  0  0  0  0
 22 24  2  0  0  0  0
 23 26  1  0  0  0  0
 24 28  1  0  0  0  0
 26 19  1  6  0  0  0
 27 17  1  6  0  0  0
 27 21  1  0  0  0  0
 27 16  1  0  0  0  0
 27 15  1  0  0  0  0
 28 23  1  0  0  0  0
 28 25  1  0  0  0  0
 29 13  1  0  0  0  0
 29 24  1  0  0  0  0
 30 31  1  1  0  0  0
 32 33  2  0  0  0  0
 33 30  1  0  0  0  0
 33 34  1  0  0  0  0
 35  1  1  0  0  0  0
 36 43  1  0  0  0  0
 36 38  1  6  0  0  0
 39 38  1  0  0  0  0
 40 41  1  0  0  0  0
 41 44  1  0  0  0  0
 42 40  1  6  0  0  0
 42 36  1  0  0  0  0
 43 35  1  0  0  0  0
 44 39  1  0  0  0  0
 45 49  1  1  0  0  0
 45 42  1  0  0  0  0
 45 46  1  0  0  0  0
 46 37  1  0  0  0  0
 46 43  2  0  0  0  0
 47 48  2  0  0  0  0
 48 49  1  0  0  0  0
 50 48  1  0  0  0  0
 50 52  2  0  0  0  0
 51 55  1  0  0  0  0
 53 52  1  0  0  0  0
 53 57  1  0  0  0  0
 54 51  2  0  0  0  0
 56 52  1  6  0  0  0
 56 61  1  0  0  0  0
 56 55  1  0  0  0  0
 57 58  1  6  0  0  0
 57 54  1  0  0  0  0
 60 59  1  0  0  0  0
 61 62  1  6  0  0  0
 61 60  1  0  0  0  0
 62 64  1  0  0  0  0
 63 59  1  0  0  0  0
 64 63  1  0  0  0  0
 66 54  1  0  0  0  0
 66 65  1  0  0  0  0
 67 66  2  0  0  0  0
M  END
>  <MODEL>
3

>  <REMARK>
 VINA RESULT:      -4.9      3.469      9.495
  Name = 
  16 active torsions:
  status: ('A' for Active; 'I' for Inactive)
    1  A    between atoms: C_2  and  C_13
    2  A    between atoms: C_4  and  C_15
    3  A    between atoms: C_4  and  C_51
    4  A    between atoms: C_5  and  C_9
    5  A    between atoms: C_9  and  C_42
    6  A    between atoms: N_12  and  C_23
    7  A    between atoms: N_12  and  C_46
    8  A    between atoms: C_15  and  N_67
    9  A    between atoms: C_18  and  C_23
   10  A    between atoms: C_19  and  C_23
   11  A    between atoms: N_22  and  C_61
   12  A    between atoms: C_31  and  C_36
   13  A    between atoms: C_41  and  C_49
   14  A    between atoms: C_41  and  C_54
   15  A    between atoms: C_49  and  C_51
   16  A    between atoms: C_52  and  C_63
                            x       y       z     vdW  Elec       q    Type
                         _______ _______ _______ _____ _____    ______ ____

>  <TORSDO>
F 16

$$$$
=
 OpenBabel10232407483D

 67 73  0  0  1  0  0  0  0  0999 V2000
  185.2030  178.7900  142.2090 C   0  0  1  0  0  3  0  0  0  0  0  0
  184.2390  180.2330  144.0790 N   0  0  0  0  0  1  0  0  0  0  0  0
  184.0530  179.2690  143.0400 C   0  0  0  0  0  0  0  0  0  0  0  0
  182.8980  178.8370  142.8040 O   0  0  0  0  0  0  0  0  0  0  0  0
  186.2620  178.1190  143.0200 C   0  0  0  0  0  3  0  0  0  0  0  0
  186.0210  177.7430  144.2450 C   0  0  0  0  0  0  0  0  0  0  0  0
  185.7970  177.3510  145.4690 C   0  0  0  0  0  3  0  0  0  0  0  0
  186.6090  177.9030  146.5890 C   0  0  2  0  0  3  0  0  0  0  0  0
  186.0680  179.1920  146.9820 N   0  0  0  0  0  1  0  0  0  0  0  0
  188.0510  178.0600  146.1410 C   0  0  0  0  0  2  0  0  0  0  0  0
  188.9930  177.8670  147.3180 C   0  0  0  0  0  2  0  0  0  0  0  0
  189.7740  176.5690  147.1730 C   0  0  0  0  0  2  0  0  0  0  0  0
  191.2650  176.8520  147.0870 C   0  0  0  0  0  2  0  0  0  0  0  0
  190.6750  177.2940  140.5370 C   0  0  0  0  0  2  0  0  0  0  0  0
  192.6170  176.9270  139.4890 C   0  0  2  0  0  0  0  0  0  0  0  0
  193.5210  177.8700  140.0320 O   0  0  0  0  0  0  0  0  0  0  0  0
  193.8310  175.8630  141.2890 O   0  0  0  0  0  1  0  0  0  0  0  0
  191.3270  177.4470  139.2960 O   0  0  0  0  0  0  0  0  0  0  0  0
  190.7830  180.0630  143.5490 O   0  0  0  0  0  1  0  0  0  0  0  0
  191.8610  178.5190  142.2490 O   0  0  0  0  0  0  0  0  0  0  0  0
  191.7120  177.2390  141.6520 C   0  0  1  0  0  0  0  0  0  0  0  0
  192.5450  174.4960  144.5710 O   0  0  0  0  0  0  0  0  0  0  0  0
  191.1710  177.8870  144.4320 C   0  0  0  0  0  2  0  0  0  0  0  0
  192.0300  175.5660  144.9910 C   0  0  0  0  0  0  0  0  0  0  0  0
  191.3590  176.1070  142.6440 C   0  0  0  0  0  2  0  0  0  0  0  0
  190.8460  178.7150  143.2030 C   0  0  1  0  0  3  0  0  0  0  0  0
  192.9760  176.9020  140.9080 C   0  0  2  0  0  0  0  0  0  0  0  0
  191.5280  176.5230  144.0410 N   0  0  0  0  0  0  0  0  0  0  0  0
  191.9400  175.7540  146.4110 N   0  0  0  0  0  2  0  0  0  0  0  0
  193.2030  175.9540  138.4450 C   0  0  1  0  0  3  0  0  0  0  0  0
  192.4770  174.7620  138.4390 O   0  0  0  0  0  1  0  0  0  0  0  0
  192.1650  176.3800  136.1690 N   0  0  0  0  0  2  0  0  0  0  0  0
  193.2730  176.5010  137.0510 C   0  0  0  0  0  0  0  0  0  0  0  0
  194.3710  177.0350  136.6300 N   0  0  0  0  0  1  0  0  0  0  0  0
  184.7230  177.8890  141.1670 N   0  0  0  0  0  2  0  0  0  0  0  0
  186.0230  177.7740  138.9680 C   0  0  2  0  0  3  0  0  0  0  0  0
  182.5990  178.9850  139.4720 O   0  0  0  0  0  1  0  0  0  0  0  0
  187.3030  178.3270  139.5900 C   0  0  0  0  0  2  0  0  0  0  0  0
  188.5180  177.9000  138.7870 C   0  0  0  0  0  2  0  0  0  0  0  0
  186.5170  179.4810  137.0720 C   0  0  0  0  0  2  0  0  0  0  0  0
  187.8910  179.0280  136.6080 C   0  0  0  0  0  2  0  0  0  0  0  0
  185.6940  178.2800  137.5420 C   0  0  2  0  0  3  0  0  0  0  0  0
  184.8310  178.1540  139.7640 C   0  0  0  0  0  0  0  0  0  0  0  0
  188.8820  178.9690  137.7630 C   0  0  0  0  0  2  0  0  0  0  0  0
  184.2130  178.6670  137.5620 C   0  0  2  0  0  3  0  0  0  0  0  0
  183.8570  178.6260  139.0000 C   0  0  0  0  0  0  0  0  0  0  0  0
  185.0450  177.3340  135.1800 O   0  0  0  0  0  0  0  0  0  0  0  0
  183.9600  176.9600  135.7040 C   0  0  0  0  0  0  0  0  0  0  0  0
  183.4450  177.6560  136.8440 N   0  0  0  0  0  2  0  0  0  0  0  0
  183.2240  175.7870  135.1960 C   0  0  0  0  0  3  0  0  0  0  0  0
  184.0780  172.1080  136.9830 C   0  0  0  0  0  3  0  0  0  0  0  0
  182.8820  174.6900  135.8790 C   0  0  0  0  0  0  0  0  0  0  0  0
  182.1050  173.6500  135.1300 C   0  0  0  0  0  2  0  0  0  0  0  0
  183.0980  171.6170  136.2060 C   0  0  0  0  0  0  0  0  0  0  0  0
  184.1290  173.3810  137.5800 O   0  0  0  0  0  0  0  0  0  0  0  0
  183.2730  174.4990  137.3310 C   0  0  2  0  0  3  0  0  0  0  0  0
  181.8420  172.4150  135.9700 C   0  0  2  0  0  3  0  0  0  0  0  0
  180.8120  171.6610  135.4090 O   0  0  0  0  0  1  0  0  0  0  0  0
  179.9820  174.8270  138.8510 C   0  0  0  0  0  2  0  0  0  0  0  0
  180.9430  175.0270  137.8440 O   0  0  0  0  0  0  0  0  0  0  0  0
  182.1890  174.6860  138.3990 C   0  0  2  0  0  3  0  0  0  0  0  0
  182.6030  175.7170  139.4590 C   0  0  0  0  0  2  0  0  0  0  0  0
  180.1490  175.8790  139.9480 C   0  0  0  0  0  2  0  0  0  0  0  0
  181.5420  175.7410  140.5570 C   0  0  0  0  0  2  0  0  0  0  0  0
  182.3430  169.4710  135.4950 O   0  0  0  0  0  1  0  0  0  0  0  0
  183.3040  170.2750  135.6010 C   0  0  0  0  0  0  0  0  0  0  0  0
  184.5560  169.8730  135.1560 O   0  0  0  0  0  0  0  0  0  0  0  0
  1  5  1  1  0  0  0
  1  3  1  0  0  0  0
  3  2  1  0  0  0  0
  4  3  2  0  0  0  0
  5  6  2  0  0  0  0
  6  7  2  0  0  0  0
  7  8  1  0  0  0  0
  8  9  1  6  0  0  0
 10  8  1  0  0  0  0
 10 11  1  0  0  0  0
 12 11  1  0  0  0  0
 13 12  1  0  0  0  0
 15 30  1  6  0  0  0
 15 16  1  0  0  0  0
 15 27  1  0  0  0  0
 16 27  1  0  0  0  0
 18 15  1  0  0  0  0
 18 14  1  0  0  0  0
 20 26  1  0  0  0  0
 21 14  1  6  0  0  0
 21 20  1  0  0  0  0
 21 25  1  0  0  0  0
 22 24  2  0  0  0  0
 24 29  1  0  0  0  0
 25 28  1  0  0  0  0
 26 19  1  1  0  0  0
 26 23  1  0  0  0  0
 27 17  1  1  0  0  0
 27 21  1  0  0  0  0
 28 23  1  0  0  0  0
 28 24  1  0  0  0  0
 29 13  1  0  0  0  0
 30 31  1  6  0  0  0
 32 33  2  0  0  0  0
 33 30  1  0  0  0  0
 34 33  1  0  0  0  0
 35  1  1  0  0  0  0
 36 38  1  1  0  0  0
 36 43  1  0  0  0  0
 39 38  1  0  0  0  0
 41 40  1  0  0  0  0
 41 44  1  0  0  0  0
 42 40  1  1  0  0  0
 42 45  1  0  0  0  0
 42 36  1  0  0  0  0
 43 35  1  0  0  0  0
 44 39  1  0  0  0  0
 45 49  1  6  0  0  0
 45 46  1  0  0  0  0
 46 37  1  0  0  0  0
 46 43  2  0  0  0  0
 47 48  2  0  0  0  0
 48 49  1  0  0  0  0
 50 48  1  0  0  0  0
 50 52  2  0  0  0  0
 51 55  1  0  0  0  0
 53 52  1  0  0  0  0
 53 57  1  0  0  0  0
 54 51  2  0  0  0  0
 56 52  1  6  0  0  0
 56 55  1  0  0  0  0
 56 61  1  0  0  0  0
 57 58  1  6  0  0  0
 57 54  1  0  0  0  0
 59 63  1  0  0  0  0
 60 61  1  0  0  0  0
 60 59  1  0  0  0  0
 61 62  1  1  0  0  0
 62 64  1  0  0  0  0
 63 64  1  0  0  0  0
 65 66  1  0  0  0  0
 66 54  1  0  0  0  0
 67 66  2  0  0  0  0
M  END
>  <MODEL>
4

>  <REMARK>
 VINA RESULT:      -3.8      2.963     10.007
  Name = 
  16 active torsions:
  status: ('A' for Active; 'I' for Inactive)
    1  A    between atoms: C_2  and  C_13
    2  A    between atoms: C_4  and  C_15
    3  A    between atoms: C_4  and  C_51
    4  A    between atoms: C_5  and  C_9
    5  A    between atoms: C_9  and  C_42
    6  A    between atoms: N_12  and  C_23
    7  A    between atoms: N_12  and  C_46
    8  A    between atoms: C_15  and  N_67
    9  A    between atoms: C_18  and  C_23
   10  A    between atoms: C_19  and  C_23
   11  A    between atoms: N_22  and  C_61
   12  A    between atoms: C_31  and  C_36
   13  A    between atoms: C_41  and  C_49
   14  A    between atoms: C_41  and  C_54
   15  A    between atoms: C_49  and  C_51
   16  A    between atoms: C_52  and  C_63
                            x       y       z     vdW  Elec       q    Type
                         _______ _______ _______ _____ _____    ______ ____

>  <TORSDO>
F 16

$$$$
