=
 OpenBabel10232408383D

 28 29  0  0  1  0  0  0  0  0999 V2000
  188.9800  178.2040  138.8930 C   0  0  2  0  0  3  0  0  0  0  0  0
  189.0730  178.9730  137.5830 C   0  0  0  0  0  1  0  0  0  0  0  0
  188.2890  178.9230  139.9150 O   0  0  0  0  0  0  0  0  0  0  0  0
  187.1190  178.4980  140.5550 C   0  0  0  0  0  0  0  0  0  0  0  0
  186.0920  178.2680  139.8630 O   0  0  0  0  0  0  0  0  0  0  0  0
  187.0660  178.3520  141.9760 N   0  0  0  0  0  2  0  0  0  0  0  0
  184.6230  179.7600  143.8720 N   0  0  0  0  0  2  0  0  0  0  0  0
  184.8230  179.1880  142.5390 C   0  0  1  0  0  3  0  0  0  0  0  0
  185.4120  179.0140  144.7720 C   0  0  0  0  0  0  0  0  0  0  0  0
  185.5120  179.2080  146.1480 C   0  0  0  0  0  3  0  0  0  0  0  0
  187.0480  177.3220  146.1910 C   0  0  0  0  0  3  0  0  0  0  0  0
  186.3510  178.3430  146.8680 C   0  0  0  0  0  3  0  0  0  0  0  0
  186.9120  177.1760  144.8390 N   0  0  0  0  0  0  0  0  0  0  0  0
  185.8390  178.0250  142.6900 C   0  0  2  0  0  3  0  0  0  0  0  0
  183.5060  178.6540  142.0100 C   0  0  0  0  0  1  0  0  0  0  0  0
  186.1030  178.0210  144.1510 C   0  0  0  0  0  0  0  0  0  0  0  0
  190.3020  177.5920  139.3880 C   0  0  1  0  0  3  0  0  0  0  0  0
  191.9310  177.7240  141.7470 O   0  0  0  0  0  0  0  0  0  0  0  0
  190.6550  176.1630  142.9230 N   0  0  0  0  0  2  0  0  0  0  0  0
  190.9500  176.9300  141.7550 C   0  0  0  0  0  0  0  0  0  0  0  0
  190.1250  176.7870  140.5990 N   0  0  0  0  0  2  0  0  0  0  0  0
  191.4160  176.3050  144.1540 C   0  0  0  0  0  2  0  0  0  0  0  0
  190.1580  178.3870  144.7410 O   0  0  0  0  0  0  0  0  0  0  0  0
  190.5670  176.7840  146.3250 O   0  0  0  0  0  1  0  0  0  0  0  0
  190.6680  177.1510  145.1280 C   0  0  0  0  0  0  0  0  0  0  0  0
  191.0580  176.9310  138.3900 O   0  0  0  0  0  0  0  0  0  0  0  0
  191.6090  174.7740  137.5360 C   0  0  0  0  0  1  0  0  0  0  0  0
  190.5500  175.6360  138.1920 C   0  0  0  0  0  2  0  0  0  0  0  0
  1  2  1  6  0  0  0
  1 17  1  0  0  0  0
  1  3  1  0  0  0  0
  3  4  1  0  0  0  0
  4  6  1  0  0  0  0
  5  4  2  0  0  0  0
  7  9  1  0  0  0  0
  8 15  1  1  0  0  0
  8 14  1  0  0  0  0
  8  7  1  0  0  0  0
  9 10  1  0  0  0  0
 10 12  2  0  0  0  0
 11 12  1  0  0  0  0
 13 11  2  0  0  0  0
 14  6  1  6  0  0  0
 14 16  1  0  0  0  0
 16  9  2  0  0  0  0
 16 13  1  0  0  0  0
 17 26  1  6  0  0  0
 17 21  1  0  0  0  0
 18 20  2  0  0  0  0
 19 22  1  0  0  0  0
 20 19  1  0  0  0  0
 21 20  1  0  0  0  0
 22 25  1  0  0  0  0
 23 25  2  0  0  0  0
 25 24  1  0  0  0  0
 27 28  1  0  0  0  0
 28 26  1  0  0  0  0
M  END
>  <MODEL>
1

>  <REMARK>
 VINA RESULT:      -7.0      0.000      0.000
  Name = 
  9 active torsions:
  status: ('A' for Active; 'I' for Inactive)
    1  A    between atoms: C_1  and  O_6
    2  A    between atoms: C_1  and  C_12
    3  A    between atoms: C_2  and  O_6
    4  A    between atoms: N_7  and  C_28
    5  A    between atoms: N_8  and  C_22
    6  A    between atoms: C_12  and  N_19
    7  A    between atoms: C_12  and  O_24
    8  A    between atoms: C_14  and  C_28
    9  A    between atoms: C_23  and  O_24
                            x       y       z     vdW  Elec       q    Type
                         _______ _______ _______ _____ _____    ______ ____

>  <TORSDO>
F 9

$$$$
=
 OpenBabel10232408383D

 28 29  0  0  1  0  0  0  0  0999 V2000
  185.4540  178.4450  144.5520 C   0  0  2  0  0  3  0  0  0  0  0  0
  184.3740  178.8070  145.5620 C   0  0  0  0  0  1  0  0  0  0  0  0
  184.9240  177.9880  143.3080 O   0  0  0  0  0  0  0  0  0  0  0  0
  184.9760  178.6900  142.0980 C   0  0  0  0  0  0  0  0  0  0  0  0
  185.6150  179.7740  142.0470 O   0  0  0  0  0  0  0  0  0  0  0  0
  184.2930  178.2120  140.9370 N   0  0  0  0  0  2  0  0  0  0  0  0
  183.1660  178.0000  137.7380 N   0  0  0  0  0  2  0  0  0  0  0  0
  182.8690  178.6970  138.9920 C   0  0  1  0  0  3  0  0  0  0  0  0
  184.5670  177.8730  137.6500 C   0  0  0  0  0  0  0  0  0  0  0  0
  185.2840  177.2840  136.6120 C   0  0  0  0  0  3  0  0  0  0  0  0
  187.3090  177.8440  137.8390 C   0  0  0  0  0  3  0  0  0  0  0  0
  186.6850  177.2690  136.7140 C   0  0  0  0  0  3  0  0  0  0  0  0
  186.5560  178.4110  138.8290 N   0  0  0  0  0  0  0  0  0  0  0  0
  184.2250  178.9690  139.6940 C   0  0  2  0  0  3  0  0  0  0  0  0
  182.1730  180.0120  138.6930 C   0  0  0  0  0  1  0  0  0  0  0  0
  185.2020  178.4150  138.7240 C   0  0  0  0  0  0  0  0  0  0  0  0
  186.5750  177.5390  145.0890 C   0  0  1  0  0  3  0  0  0  0  0  0
  188.0670  175.8170  143.3430 O   0  0  0  0  0  0  0  0  0  0  0  0
  189.7740  177.3700  142.9900 N   0  0  0  0  0  2  0  0  0  0  0  0
  188.5480  176.9560  143.5950 C   0  0  0  0  0  0  0  0  0  0  0  0
  187.8750  177.8450  144.4890 N   0  0  0  0  0  2  0  0  0  0  0  0
  190.4770  176.5410  142.0240 C   0  0  0  0  0  2  0  0  0  0  0  0
  190.4870  176.1570  139.5510 O   0  0  0  0  0  0  0  0  0  0  0  0
  189.5360  178.0430  140.4370 O   0  0  0  0  0  1  0  0  0  0  0  0
  190.1130  176.9450  140.6350 C   0  0  0  0  0  0  0  0  0  0  0  0
  186.6280  177.4360  146.5000 O   0  0  0  0  0  0  0  0  0  0  0  0
  188.0490  178.0330  148.3200 C   0  0  0  0  0  1  0  0  0  0  0  0
  187.9670  177.4460  146.9260 C   0  0  0  0  0  2  0  0  0  0  0  0
  1 17  1  0  0  0  0
  1  2  1  1  0  0  0
  3  1  1  0  0  0  0
  4  3  1  0  0  0  0
  5  4  2  0  0  0  0
  6  4  1  0  0  0  0
  7  8  1  0  0  0  0
  8 15  1  6  0  0  0
  8 14  1  0  0  0  0
  9  7  1  0  0  0  0
  9 16  1  0  0  0  0
 10 12  1  0  0  0  0
 10  9  2  0  0  0  0
 11 13  1  0  0  0  0
 12 11  2  0  0  0  0
 14  6  1  1  0  0  0
 16 13  2  0  0  0  0
 16 14  1  0  0  0  0
 17 21  1  1  0  0  0
 17 26  1  0  0  0  0
 18 20  2  0  0  0  0
 19 20  1  0  0  0  0
 20 21  1  0  0  0  0
 22 19  1  0  0  0  0
 23 25  2  0  0  0  0
 24 25  1  0  0  0  0
 25 22  1  0  0  0  0
 26 28  1  0  0  0  0
 28 27  1  0  0  0  0
M  END
>  <MODEL>
2

>  <REMARK>
 VINA RESULT:      -7.0      2.765      6.439
  Name = 
  9 active torsions:
  status: ('A' for Active; 'I' for Inactive)
    1  A    between atoms: C_1  and  O_6
    2  A    between atoms: C_1  and  C_12
    3  A    between atoms: C_2  and  O_6
    4  A    between atoms: N_7  and  C_28
    5  A    between atoms: N_8  and  C_22
    6  A    between atoms: C_12  and  N_19
    7  A    between atoms: C_12  and  O_24
    8  A    between atoms: C_14  and  C_28
    9  A    between atoms: C_23  and  O_24
                            x       y       z     vdW  Elec       q    Type
                         _______ _______ _______ _____ _____    ______ ____

>  <TORSDO>
F 9

$$$$
=
 OpenBabel10232408383D

 28 29  0  0  1  0  0  0  0  0999 V2000
  188.1860  177.9020  140.6020 C   0  0  2  0  0  3  0  0  0  0  0  0
  187.8910  178.0900  139.1210 C   0  0  0  0  0  1  0  0  0  0  0  0
  187.3870  178.7390  141.4400 O   0  0  0  0  0  0  0  0  0  0  0  0
  186.5520  178.2910  142.4710 C   0  0  0  0  0  0  0  0  0  0  0  0
  185.3660  177.9640  142.2010 O   0  0  0  0  0  0  0  0  0  0  0  0
  187.0160  178.2300  143.8230 N   0  0  0  0  0  2  0  0  0  0  0  0
  185.6310  179.5370  146.6370 N   0  0  0  0  0  2  0  0  0  0  0  0
  185.2460  179.0940  145.2950 C   0  0  1  0  0  3  0  0  0  0  0  0
  186.6510  178.6730  147.0880 C   0  0  0  0  0  0  0  0  0  0  0  0
  187.2980  178.7240  148.3200 C   0  0  0  0  0  3  0  0  0  0  0  0
  188.5790  176.7840  147.6030 C   0  0  0  0  0  3  0  0  0  0  0  0
  188.2850  177.7580  148.5770 C   0  0  0  0  0  3  0  0  0  0  0  0
  187.9110  176.7790  146.4100 N   0  0  0  0  0  0  0  0  0  0  0  0
  186.1470  177.8820  144.9390 C   0  0  2  0  0  3  0  0  0  0  0  0
  183.7900  178.6690  145.2950 C   0  0  0  0  0  1  0  0  0  0  0  0
  186.9630  177.7210  146.1680 C   0  0  0  0  0  0  0  0  0  0  0  0
  189.6760  177.9320  140.9820 C   0  0  1  0  0  3  0  0  0  0  0  0
  191.1650  178.7020  143.3120 O   0  0  0  0  0  0  0  0  0  0  0  0
  190.8680  176.6530  144.3890 N   0  0  0  0  0  2  0  0  0  0  0  0
  190.6920  177.5330  143.2780 C   0  0  0  0  0  0  0  0  0  0  0  0
  189.9760  177.0750  142.1310 N   0  0  0  0  0  2  0  0  0  0  0  0
  191.5310  177.0760  145.6130 C   0  0  0  0  0  2  0  0  0  0  0  0
  192.4310  174.7430  145.6930 O   0  0  0  0  0  0  0  0  0  0  0  0
  191.9940  175.8940  147.6250 O   0  0  0  0  0  1  0  0  0  0  0  0
  192.0240  175.8900  146.3690 C   0  0  0  0  0  0  0  0  0  0  0  0
  190.5670  177.7370  139.8990 O   0  0  0  0  0  0  0  0  0  0  0  0
  191.1130  176.1130  138.2410 C   0  0  0  0  0  1  0  0  0  0  0  0
  190.7700  176.3620  139.6950 C   0  0  0  0  0  2  0  0  0  0  0  0
  1  2  1  6  0  0  0
  1 17  1  0  0  0  0
  1  3  1  0  0  0  0
  3  4  1  0  0  0  0
  4  6  1  0  0  0  0
  5  4  2  0  0  0  0
  7  9  1  0  0  0  0
  8 15  1  1  0  0  0
  8  7  1  0  0  0  0
  9 10  1  0  0  0  0
 10 12  2  0  0  0  0
 11 12  1  0  0  0  0
 13 11  2  0  0  0  0
 14  6  1  6  0  0  0
 14  8  1  0  0  0  0
 14 16  1  0  0  0  0
 16 13  1  0  0  0  0
 16  9  2  0  0  0  0
 17 26  1  6  0  0  0
 17 21  1  0  0  0  0
 19 22  1  0  0  0  0
 20 18  2  0  0  0  0
 20 19  1  0  0  0  0
 21 20  1  0  0  0  0
 22 25  1  0  0  0  0
 23 25  2  0  0  0  0
 25 24  1  0  0  0  0
 27 28  1  0  0  0  0
 28 26  1  0  0  0  0
M  END
>  <MODEL>
3

>  <REMARK>
 VINA RESULT:      -6.9      1.728      2.295
  Name = 
  9 active torsions:
  status: ('A' for Active; 'I' for Inactive)
    1  A    between atoms: C_1  and  O_6
    2  A    between atoms: C_1  and  C_12
    3  A    between atoms: C_2  and  O_6
    4  A    between atoms: N_7  and  C_28
    5  A    between atoms: N_8  and  C_22
    6  A    between atoms: C_12  and  N_19
    7  A    between atoms: C_12  and  O_24
    8  A    between atoms: C_14  and  C_28
    9  A    between atoms: C_23  and  O_24
                            x       y       z     vdW  Elec       q    Type
                         _______ _______ _______ _____ _____    ______ ____

>  <TORSDO>
F 9

$$$$
=
 OpenBabel10232408383D

 28 29  0  0  1  0  0  0  0  0999 V2000
  186.5500  178.1650  139.0060 C   0  0  2  0  0  3  0  0  0  0  0  0
  186.0010  178.1500  137.5870 C   0  0  0  0  0  1  0  0  0  0  0  0
  185.7610  178.9490  139.9010 O   0  0  0  0  0  0  0  0  0  0  0  0
  185.0170  178.4480  140.9760 C   0  0  0  0  0  0  0  0  0  0  0  0
  183.9130  177.8870  140.7470 O   0  0  0  0  0  0  0  0  0  0  0  0
  185.4760  178.5900  142.3220 N   0  0  0  0  0  2  0  0  0  0  0  0
  184.1350  179.8050  145.1980 N   0  0  0  0  0  2  0  0  0  0  0  0
  183.7210  179.3410  143.8720 C   0  0  1  0  0  3  0  0  0  0  0  0
  185.2240  179.0060  145.6020 C   0  0  0  0  0  0  0  0  0  0  0  0
  185.9190  179.0950  146.8050 C   0  0  0  0  0  3  0  0  0  0  0  0
  187.2860  177.2400  146.0270 C   0  0  0  0  0  3  0  0  0  0  0  0
  186.9740  178.1920  147.0170 C   0  0  0  0  0  3  0  0  0  0  0  0
  186.5690  177.1950  144.8640 N   0  0  0  0  0  0  0  0  0  0  0  0
  184.6790  178.1880  143.4740 C   0  0  2  0  0  3  0  0  0  0  0  0
  182.2950  178.8260  143.9330 C   0  0  0  0  0  1  0  0  0  0  0  0
  185.5560  178.0760  144.6660 C   0  0  0  0  0  0  0  0  0  0  0  0
  188.0540  178.4650  139.1220 C   0  0  1  0  0  3  0  0  0  0  0  0
  188.6420  178.4910  141.9310 O   0  0  0  0  0  0  0  0  0  0  0  0
  189.6410  176.3810  141.9160 N   0  0  0  0  0  2  0  0  0  0  0  0
  189.0020  177.4810  141.2660 C   0  0  0  0  0  0  0  0  0  0  0  0
  188.7750  177.4230  139.8570 N   0  0  0  0  0  2  0  0  0  0  0  0
  189.8450  176.3480  143.3560 C   0  0  0  0  0  2  0  0  0  0  0  0
  191.7410  176.5020  144.9820 O   0  0  0  0  0  1  0  0  0  0  0  0
  192.0210  177.1340  142.7980 O   0  0  0  0  0  0  0  0  0  0  0  0
  191.2680  176.6560  143.6820 C   0  0  0  0  0  0  0  0  0  0  0  0
  188.6830  178.8170  137.9030 O   0  0  0  0  0  0  0  0  0  0  0  0
  189.4520  177.3220  136.2120 C   0  0  0  0  0  1  0  0  0  0  0  0
  189.6860  177.8810  137.6000 C   0  0  0  0  0  2  0  0  0  0  0  0
  1  2  1  6  0  0  0
  1 17  1  0  0  0  0
  1  3  1  0  0  0  0
  3  4  1  0  0  0  0
  4  6  1  0  0  0  0
  5  4  2  0  0  0  0
  7  9  1  0  0  0  0
  8 15  1  1  0  0  0
  8  7  1  0  0  0  0
  9 10  1  0  0  0  0
 10 12  2  0  0  0  0
 11 12  1  0  0  0  0
 13 11  2  0  0  0  0
 14  6  1  6  0  0  0
 14  8  1  0  0  0  0
 14 16  1  0  0  0  0
 16 13  1  0  0  0  0
 16  9  2  0  0  0  0
 17 26  1  6  0  0  0
 17 21  1  0  0  0  0
 19 22  1  0  0  0  0
 20 19  1  0  0  0  0
 20 18  2  0  0  0  0
 21 20  1  0  0  0  0
 22 25  1  0  0  0  0
 24 25  2  0  0  0  0
 25 23  1  0  0  0  0
 27 28  1  0  0  0  0
 28 26  1  0  0  0  0
M  END
>  <MODEL>
4

>  <REMARK>
 VINA RESULT:      -6.9      1.676      2.169
  Name = 
  9 active torsions:
  status: ('A' for Active; 'I' for Inactive)
    1  A    between atoms: C_1  and  O_6
    2  A    between atoms: C_1  and  C_12
    3  A    between atoms: C_2  and  O_6
    4  A    between atoms: N_7  and  C_28
    5  A    between atoms: N_8  and  C_22
    6  A    between atoms: C_12  and  N_19
    7  A    between atoms: C_12  and  O_24
    8  A    between atoms: C_14  and  C_28
    9  A    between atoms: C_23  and  O_24
                            x       y       z     vdW  Elec       q    Type
                         _______ _______ _______ _____ _____    ______ ____

>  <TORSDO>
F 9

$$$$
=
 OpenBabel10232408383D

 28 29  0  0  1  0  0  0  0  0999 V2000
  191.5330  177.7640  143.9210 C   0  0  2  0  0  3  0  0  0  0  0  0
  191.0980  179.1510  143.4700 C   0  0  0  0  0  1  0  0  0  0  0  0
  191.4990  176.7980  142.8690 O   0  0  0  0  0  0  0  0  0  0  0  0
  191.5190  177.0920  141.5000 C   0  0  0  0  0  0  0  0  0  0  0  0
  192.5440  177.6300  141.0050 O   0  0  0  0  0  0  0  0  0  0  0  0
  190.3880  176.8180  140.6700 N   0  0  0  0  0  2  0  0  0  0  0  0
  188.4030  176.5980  137.9210 N   0  0  0  0  0  2  0  0  0  0  0  0
  188.8650  177.5860  138.9000 C   0  0  1  0  0  3  0  0  0  0  0  0
  189.4730  175.7120  137.6810 C   0  0  0  0  0  0  0  0  0  0  0  0
  189.4740  174.6280  136.8070 C   0  0  0  0  0  3  0  0  0  0  0  0
  191.7800  174.2330  137.4750 C   0  0  0  0  0  3  0  0  0  0  0  0
  190.6550  173.8730  136.7070 C   0  0  0  0  0  3  0  0  0  0  0  0
  191.7240  175.3090  138.3160 N   0  0  0  0  0  0  0  0  0  0  0  0
  190.3240  177.2120  139.2690 C   0  0  2  0  0  3  0  0  0  0  0  0
  188.8300  178.9710  138.2830 C   0  0  0  0  0  1  0  0  0  0  0  0
  190.5770  176.0290  138.4100 C   0  0  0  0  0  0  0  0  0  0  0  0
  190.8680  177.2580  145.2130 C   0  0  1  0  0  3  0  0  0  0  0  0
  188.7420  178.3050  146.8320 O   0  0  0  0  0  0  0  0  0  0  0  0
  187.0540  177.3170  145.5580 N   0  0  0  0  0  2  0  0  0  0  0  0
  188.4280  177.5710  145.8550 C   0  0  0  0  0  0  0  0  0  0  0  0
  189.4400  176.9860  145.0340 N   0  0  0  0  0  2  0  0  0  0  0  0
  185.9740  177.9310  146.3140 C   0  0  0  0  0  2  0  0  0  0  0  0
  183.7890  179.0530  145.8360 O   0  0  0  0  0  1  0  0  0  0  0  0
  185.3660  178.8210  144.1920 O   0  0  0  0  0  0  0  0  0  0  0  0
  185.0450  178.6500  145.3940 C   0  0  0  0  0  0  0  0  0  0  0  0
  191.5550  176.2010  145.8570 O   0  0  0  0  0  0  0  0  0  0  0  0
  192.6910  175.5480  147.8490 C   0  0  0  0  0  1  0  0  0  0  0  0
  191.6670  176.4770  147.2300 C   0  0  0  0  0  2  0  0  0  0  0  0
  1  2  1  6  0  0  0
  1 17  1  0  0  0  0
  3  1  1  0  0  0  0
  4  3  1  0  0  0  0
  5  4  2  0  0  0  0
  6  4  1  0  0  0  0
  7  8  1  0  0  0  0
  8 15  1  6  0  0  0
  8 14  1  0  0  0  0
  9  7  1  0  0  0  0
  9 16  1  0  0  0  0
 10  9  2  0  0  0  0
 11 13  1  0  0  0  0
 12 10  1  0  0  0  0
 12 11  2  0  0  0  0
 13 16  2  0  0  0  0
 14  6  1  1  0  0  0
 16 14  1  0  0  0  0
 17 21  1  6  0  0  0
 17 26  1  0  0  0  0
 19 20  1  0  0  0  0
 19 22  1  0  0  0  0
 20 18  2  0  0  0  0
 21 20  1  0  0  0  0
 24 25  2  0  0  0  0
 25 23  1  0  0  0  0
 25 22  1  0  0  0  0
 26 28  1  0  0  0  0
 28 27  1  0  0  0  0
M  END
>  <MODEL>
5

>  <REMARK>
 VINA RESULT:      -6.7      2.254      7.201
  Name = 
  9 active torsions:
  status: ('A' for Active; 'I' for Inactive)
    1  A    between atoms: C_1  and  O_6
    2  A    between atoms: C_1  and  C_12
    3  A    between atoms: C_2  and  O_6
    4  A    between atoms: N_7  and  C_28
    5  A    between atoms: N_8  and  C_22
    6  A    between atoms: C_12  and  N_19
    7  A    between atoms: C_12  and  O_24
    8  A    between atoms: C_14  and  C_28
    9  A    between atoms: C_23  and  O_24
                            x       y       z     vdW  Elec       q    Type
                         _______ _______ _______ _____ _____    ______ ____

>  <TORSDO>
F 9

$$$$
=
 OpenBabel10232408383D

 28 29  0  0  1  0  0  0  0  0999 V2000
  189.5650  177.4220  144.3380 C   0  0  2  0  0  3  0  0  0  0  0  0
  190.5340  178.5760  144.1240 C   0  0  0  0  0  1  0  0  0  0  0  0
  189.1130  176.8380  143.1160 O   0  0  0  0  0  0  0  0  0  0  0  0
  189.1940  177.4380  141.8530 C   0  0  0  0  0  0  0  0  0  0  0  0
  188.5330  178.4870  141.6310 O   0  0  0  0  0  0  0  0  0  0  0  0
  189.9860  176.8630  140.8120 N   0  0  0  0  0  2  0  0  0  0  0  0
  189.1580  176.0460  137.6190 N   0  0  0  0  0  2  0  0  0  0  0  0
  188.7270  176.9340  138.7010 C   0  0  1  0  0  3  0  0  0  0  0  0
  190.5660  175.9730  137.6710 C   0  0  0  0  0  0  0  0  0  0  0  0
  191.3920  175.2490  136.8160 C   0  0  0  0  0  3  0  0  0  0  0  0
  193.2790  176.1110  138.0870 C   0  0  0  0  0  3  0  0  0  0  0  0
  192.7780  175.3200  137.0340 C   0  0  0  0  0  3  0  0  0  0  0  0
  192.4220  176.8030  138.8960 N   0  0  0  0  0  0  0  0  0  0  0  0
  190.0050  177.3890  139.4530 C   0  0  2  0  0  3  0  0  0  0  0  0
  188.0170  178.1420  138.1180 C   0  0  0  0  0  1  0  0  0  0  0  0
  191.0830  176.7240  138.6810 C   0  0  0  0  0  0  0  0  0  0  0  0
  188.4160  177.7060  145.3210 C   0  0  1  0  0  3  0  0  0  0  0  0
  186.0420  179.0860  146.1570 O   0  0  0  0  0  0  0  0  0  0  0  0
  184.7440  178.2780  144.3930 N   0  0  0  0  0  2  0  0  0  0  0  0
  185.9670  178.3610  145.1260 C   0  0  0  0  0  0  0  0  0  0  0  0
  187.1010  177.6160  144.6810 N   0  0  0  0  0  2  0  0  0  0  0  0
  183.5710  179.0570  144.7550 C   0  0  0  0  0  2  0  0  0  0  0  0
  181.1800  178.7210  144.1000 O   0  0  0  0  0  1  0  0  0  0  0  0
  182.8220  178.8420  142.5070 O   0  0  0  0  0  0  0  0  0  0  0  0
  182.5080  178.8980  143.7220 C   0  0  0  0  0  0  0  0  0  0  0  0
  188.4880  176.9880  146.5390 O   0  0  0  0  0  0  0  0  0  0  0  0
  188.3380  178.0600  148.6630 C   0  0  0  0  0  1  0  0  0  0  0  0
  189.2240  177.7260  147.4810 C   0  0  0  0  0  2  0  0  0  0  0  0
  1  2  1  6  0  0  0
  1 17  1  0  0  0  0
  3  1  1  0  0  0  0
  4  3  1  0  0  0  0
  5  4  2  0  0  0  0
  6  4  1  0  0  0  0
  7  9  1  0  0  0  0
  7  8  1  0  0  0  0
  8 15  1  6  0  0  0
  8 14  1  0  0  0  0
  9 16  1  0  0  0  0
 10 12  1  0  0  0  0
 10  9  2  0  0  0  0
 11 13  1  0  0  0  0
 12 11  2  0  0  0  0
 14  6  1  1  0  0  0
 16 13  2  0  0  0  0
 16 14  1  0  0  0  0
 17 21  1  6  0  0  0
 17 26  1  0  0  0  0
 19 22  1  0  0  0  0
 19 20  1  0  0  0  0
 20 18  2  0  0  0  0
 21 20  1  0  0  0  0
 24 25  2  0  0  0  0
 25 23  1  0  0  0  0
 25 22  1  0  0  0  0
 26 28  1  0  0  0  0
 28 27  1  0  0  0  0
M  END
>  <MODEL>
6

>  <REMARK>
 VINA RESULT:      -6.6      2.398      7.800
  Name = 
  9 active torsions:
  status: ('A' for Active; 'I' for Inactive)
    1  A    between atoms: C_1  and  O_6
    2  A    between atoms: C_1  and  C_12
    3  A    between atoms: C_2  and  O_6
    4  A    between atoms: N_7  and  C_28
    5  A    between atoms: N_8  and  C_22
    6  A    between atoms: C_12  and  N_19
    7  A    between atoms: C_12  and  O_24
    8  A    between atoms: C_14  and  C_28
    9  A    between atoms: C_23  and  O_24
                            x       y       z     vdW  Elec       q    Type
                         _______ _______ _______ _____ _____    ______ ____

>  <TORSDO>
F 9

$$$$
=
 OpenBabel10232408383D

 28 29  0  0  1  0  0  0  0  0999 V2000
  188.7930  177.4860  140.5430 C   0  0  2  0  0  3  0  0  0  0  0  0
  188.6460  178.4030  139.3370 C   0  0  0  0  0  1  0  0  0  0  0  0
  188.5620  178.1550  141.7840 O   0  0  0  0  0  0  0  0  0  0  0  0
  187.8600  177.6220  142.8720 C   0  0  0  0  0  0  0  0  0  0  0  0
  187.8410  176.3740  143.0360 O   0  0  0  0  0  0  0  0  0  0  0  0
  187.1450  178.4690  143.7750 N   0  0  0  0  0  2  0  0  0  0  0  0
  185.6100  179.4080  146.6570 N   0  0  0  0  0  2  0  0  0  0  0  0
  185.2840  179.0310  145.2800 C   0  0  1  0  0  3  0  0  0  0  0  0
  186.7100  178.6230  147.0590 C   0  0  0  0  0  0  0  0  0  0  0  0
  187.3390  178.6470  148.3000 C   0  0  0  0  0  3  0  0  0  0  0  0
  188.8210  176.9100  147.4610 C   0  0  0  0  0  3  0  0  0  0  0  0
  188.4190  177.7720  148.5010 C   0  0  0  0  0  3  0  0  0  0  0  0
  188.1670  176.9270  146.2610 N   0  0  0  0  0  0  0  0  0  0  0  0
  186.3090  177.9500  144.8490 C   0  0  2  0  0  3  0  0  0  0  0  0
  183.8800  178.4580  145.2260 C   0  0  0  0  0  1  0  0  0  0  0  0
  187.1280  177.7810  146.0750 C   0  0  0  0  0  0  0  0  0  0  0  0
  190.0690  176.6280  140.5600 C   0  0  1  0  0  3  0  0  0  0  0  0
  190.8480  174.9670  138.3530 O   0  0  0  0  0  0  0  0  0  0  0  0
  192.1800  176.6090  137.3650 N   0  0  0  0  0  2  0  0  0  0  0  0
  191.3210  176.1360  138.4030 C   0  0  0  0  0  0  0  0  0  0  0  0
  191.0050  176.9980  139.4960 N   0  0  0  0  0  2  0  0  0  0  0  0
  192.4910  175.8060  136.1930 C   0  0  0  0  0  2  0  0  0  0  0  0
  194.6060  174.8300  135.2780 O   0  0  0  0  0  0  0  0  0  0  0  0
  194.5960  176.9150  136.2250 O   0  0  0  0  0  1  0  0  0  0  0  0
  193.9460  175.8990  135.8760 C   0  0  0  0  0  0  0  0  0  0  0  0
  190.6900  176.5160  141.8280 O   0  0  0  0  0  0  0  0  0  0  0  0
  191.6600  178.0560  143.3680 C   0  0  0  0  0  1  0  0  0  0  0  0
  191.6820  177.5030  141.9580 C   0  0  0  0  0  2  0  0  0  0  0  0
  1  2  1  6  0  0  0
  1 17  1  0  0  0  0
  1  3  1  0  0  0  0
  3  4  1  0  0  0  0
  4  5  2  0  0  0  0
  4  6  1  0  0  0  0
  7  9  1  0  0  0  0
  8 15  1  1  0  0  0
  8  7  1  0  0  0  0
  9 10  1  0  0  0  0
 10 12  2  0  0  0  0
 11 12  1  0  0  0  0
 13 11  2  0  0  0  0
 14  6  1  6  0  0  0
 14  8  1  0  0  0  0
 14 16  1  0  0  0  0
 16 13  1  0  0  0  0
 16  9  2  0  0  0  0
 17 21  1  6  0  0  0
 17 26  1  0  0  0  0
 18 20  2  0  0  0  0
 19 20  1  0  0  0  0
 20 21  1  0  0  0  0
 22 19  1  0  0  0  0
 23 25  2  0  0  0  0
 25 22  1  0  0  0  0
 25 24  1  0  0  0  0
 26 28  1  0  0  0  0
 28 27  1  0  0  0  0
M  END
>  <MODEL>
7

>  <REMARK>
 VINA RESULT:      -6.5      2.297      4.835
  Name = 
  9 active torsions:
  status: ('A' for Active; 'I' for Inactive)
    1  A    between atoms: C_1  and  O_6
    2  A    between atoms: C_1  and  C_12
    3  A    between atoms: C_2  and  O_6
    4  A    between atoms: N_7  and  C_28
    5  A    between atoms: N_8  and  C_22
    6  A    between atoms: C_12  and  N_19
    7  A    between atoms: C_12  and  O_24
    8  A    between atoms: C_14  and  C_28
    9  A    between atoms: C_23  and  O_24
                            x       y       z     vdW  Elec       q    Type
                         _______ _______ _______ _____ _____    ______ ____

>  <TORSDO>
F 9

$$$$
=
 OpenBabel10232408383D

 28 29  0  0  1  0  0  0  0  0999 V2000
  185.5290  177.9560  143.9420 C   0  0  2  0  0  3  0  0  0  0  0  0
  186.0250  178.5530  145.2510 C   0  0  0  0  0  1  0  0  0  0  0  0
  186.5610  177.3070  143.1980 O   0  0  0  0  0  0  0  0  0  0  0  0
  187.9160  177.6620  143.2130 C   0  0  0  0  0  0  0  0  0  0  0  0
  188.3590  178.4200  142.3090 O   0  0  0  0  0  0  0  0  0  0  0  0
  188.8010  177.1560  144.2140 N   0  0  0  0  0  2  0  0  0  0  0  0
  191.7870  175.5610  143.9200 N   0  0  0  0  0  2  0  0  0  0  0  0
  190.9160  176.4670  143.1680 C   0  0  1  0  0  3  0  0  0  0  0  0
  191.6840  175.9140  145.2820 C   0  0  0  0  0  0  0  0  0  0  0  0
  192.3540  175.3190  146.3470 C   0  0  0  0  0  3  0  0  0  0  0  0
  191.2300  176.9120  147.8010 C   0  0  0  0  0  3  0  0  0  0  0  0
  192.1170  175.8310  147.6340 C   0  0  0  0  0  3  0  0  0  0  0  0
  190.5990  177.4600  146.7200 N   0  0  0  0  0  0  0  0  0  0  0  0
  190.2360  177.4060  144.1980 C   0  0  2  0  0  3  0  0  0  0  0  0
  191.7470  177.2860  142.1980 C   0  0  0  0  0  1  0  0  0  0  0  0
  190.8310  176.9540  145.4810 C   0  0  0  0  0  0  0  0  0  0  0  0
  184.6760  178.8980  143.0750 C   0  0  1  0  0  3  0  0  0  0  0  0
  185.1930  179.8010  140.4000 O   0  0  0  0  0  0  0  0  0  0  0  0
  184.1030  177.9960  139.3980 N   0  0  0  0  0  2  0  0  0  0  0  0
  184.5330  178.7340  140.5420 C   0  0  0  0  0  0  0  0  0  0  0  0
  184.2070  178.2530  141.8470 N   0  0  0  0  0  2  0  0  0  0  0  0
  184.4540  178.3960  138.0440 C   0  0  0  0  0  2  0  0  0  0  0  0
  186.1130  176.6050  137.4970 O   0  0  0  0  0  0  0  0  0  0  0  0
  186.7790  178.7840  137.7230 O   0  0  0  0  0  1  0  0  0  0  0  0
  185.8390  177.9510  137.7180 C   0  0  0  0  0  0  0  0  0  0  0  0
  183.6450  179.5730  143.7740 O   0  0  0  0  0  0  0  0  0  0  0  0
  181.3290  179.1870  143.3610 C   0  0  0  0  0  1  0  0  0  0  0  0
  182.5890  178.6840  144.0340 C   0  0  0  0  0  2  0  0  0  0  0  0
  1  2  1  1  0  0  0
  3  4  1  0  0  0  0
  3  1  1  0  0  0  0
  4  6  1  0  0  0  0
  5  4  2  0  0  0  0
  7  9  1  0  0  0  0
  8 15  1  6  0  0  0
  8  7  1  0  0  0  0
  8 14  1  0  0  0  0
  9 16  2  0  0  0  0
  9 10  1  0  0  0  0
 10 12  2  0  0  0  0
 12 11  1  0  0  0  0
 13 11  2  0  0  0  0
 14  6  1  1  0  0  0
 14 16  1  0  0  0  0
 16 13  1  0  0  0  0
 17 21  1  6  0  0  0
 17 26  1  0  0  0  0
 17  1  1  0  0  0  0
 18 20  2  0  0  0  0
 19 20  1  0  0  0  0
 20 21  1  0  0  0  0
 22 19  1  0  0  0  0
 23 25  2  0  0  0  0
 25 24  1  0  0  0  0
 25 22  1  0  0  0  0
 26 28  1  0  0  0  0
 27 28  1  0  0  0  0
M  END
>  <MODEL>
8

>  <REMARK>
 VINA RESULT:      -6.5      2.791      7.326
  Name = 
  9 active torsions:
  status: ('A' for Active; 'I' for Inactive)
    1  A    between atoms: C_1  and  O_6
    2  A    between atoms: C_1  and  C_12
    3  A    between atoms: C_2  and  O_6
    4  A    between atoms: N_7  and  C_28
    5  A    between atoms: N_8  and  C_22
    6  A    between atoms: C_12  and  N_19
    7  A    between atoms: C_12  and  O_24
    8  A    between atoms: C_14  and  C_28
    9  A    between atoms: C_23  and  O_24
                            x       y       z     vdW  Elec       q    Type
                         _______ _______ _______ _____ _____    ______ ____

>  <TORSDO>
F 9

$$$$
=
 OpenBabel10232408383D

 28 29  0  0  1  0  0  0  0  0999 V2000
  190.7400  175.9980  138.1080 C   0  0  2  0  0  3  0  0  0  0  0  0
  191.5680  174.7880  137.7030 C   0  0  0  0  0  1  0  0  0  0  0  0
  190.2230  175.9020  139.4350 O   0  0  0  0  0  0  0  0  0  0  0  0
  190.2490  176.9240  140.3910 C   0  0  0  0  0  0  0  0  0  0  0  0
  190.9880  177.9260  140.1960 O   0  0  0  0  0  0  0  0  0  0  0  0
  189.4770  176.8330  141.5910 N   0  0  0  0  0  2  0  0  0  0  0  0
  189.9040  177.0930  144.9520 N   0  0  0  0  0  2  0  0  0  0  0  0
  190.6200  177.3620  143.7020 C   0  0  1  0  0  3  0  0  0  0  0  0
  188.5410  177.3780  144.7250 C   0  0  0  0  0  0  0  0  0  0  0  0
  187.5050  177.2730  145.6490 C   0  0  0  0  0  3  0  0  0  0  0  0
  186.0100  178.0540  143.8970 C   0  0  0  0  0  3  0  0  0  0  0  0
  186.2130  177.6170  145.2200 C   0  0  0  0  0  3  0  0  0  0  0  0
  187.0640  178.1410  143.0310 N   0  0  0  0  0  0  0  0  0  0  0  0
  189.5640  177.8180  142.6610 C   0  0  2  0  0  3  0  0  0  0  0  0
  191.6340  178.4680  143.9230 C   0  0  0  0  0  1  0  0  0  0  0  0
  188.3090  177.8000  143.4530 C   0  0  0  0  0  0  0  0  0  0  0  0
  189.6760  176.4340  137.0860 C   0  0  1  0  0  3  0  0  0  0  0  0
  186.8230  176.2980  137.3680 O   0  0  0  0  0  0  0  0  0  0  0  0
  186.6460  178.4130  138.3400 N   0  0  0  0  0  2  0  0  0  0  0  0
  187.4000  177.3530  137.7510 C   0  0  0  0  0  0  0  0  0  0  0  0
  188.8130  177.5000  137.6010 N   0  0  0  0  0  2  0  0  0  0  0  0
  185.2150  178.3040  138.5790 C   0  0  0  0  0  2  0  0  0  0  0  0
  185.0360  179.5370  140.7490 O   0  0  0  0  0  1  0  0  0  0  0  0
  183.9960  180.3260  138.8670 O   0  0  0  0  0  0  0  0  0  0  0  0
  184.7390  179.4600  139.3910 C   0  0  0  0  0  0  0  0  0  0  0  0
  190.1760  176.7060  135.7900 O   0  0  0  0  0  0  0  0  0  0  0  0
  189.0190  174.7620  135.0380 C   0  0  0  0  0  1  0  0  0  0  0  0
  189.2680  176.2410  134.8240 C   0  0  0  0  0  2  0  0  0  0  0  0
  1  2  1  6  0  0  0
  1  3  1  0  0  0  0
  3  4  1  0  0  0  0
  4  6  1  0  0  0  0
  5  4  2  0  0  0  0
  8 15  1  1  0  0  0
  8  7  1  0  0  0  0
  9  7  1  0  0  0  0
  9 10  1  0  0  0  0
 11 12  1  0  0  0  0
 12 10  2  0  0  0  0
 13 16  1  0  0  0  0
 13 11  2  0  0  0  0
 14  6  1  6  0  0  0
 14 16  1  0  0  0  0
 14  8  1  0  0  0  0
 16  9  2  0  0  0  0
 17 26  1  6  0  0  0
 17 21  1  0  0  0  0
 17  1  1  0  0  0  0
 18 20  2  0  0  0  0
 19 22  1  0  0  0  0
 20 19  1  0  0  0  0
 21 20  1  0  0  0  0
 22 25  1  0  0  0  0
 24 25  2  0  0  0  0
 25 23  1  0  0  0  0
 28 27  1  0  0  0  0
 28 26  1  0  0  0  0
M  END
>  <MODEL>
9

>  <REMARK>
 VINA RESULT:      -6.5      2.305      5.212
  Name = 
  9 active torsions:
  status: ('A' for Active; 'I' for Inactive)
    1  A    between atoms: C_1  and  O_6
    2  A    between atoms: C_1  and  C_12
    3  A    between atoms: C_2  and  O_6
    4  A    between atoms: N_7  and  C_28
    5  A    between atoms: N_8  and  C_22
    6  A    between atoms: C_12  and  N_19
    7  A    between atoms: C_12  and  O_24
    8  A    between atoms: C_14  and  C_28
    9  A    between atoms: C_23  and  O_24
                            x       y       z     vdW  Elec       q    Type
                         _______ _______ _______ _____ _____    ______ ____

>  <TORSDO>
F 9

$$$$
