=
 OpenBabel10232409353D

 33 38  0  0  1  0  0  0  0  0999 V2000
  188.7580  178.8320  140.2490 N   0  0  0  0  0  2  0  0  0  0  0  0
  190.8110  176.4830  144.4010 C   0  0  0  0  0  0  0  0  0  0  0  0
  187.6650  179.1890  136.9800 C   0  0  0  0  0  2  0  0  0  0  0  0
  190.8710  179.0000  144.3010 C   0  0  0  0  0  0  0  0  0  0  0  0
  188.9920  178.3220  138.9330 C   0  0  0  0  0  0  0  0  0  0  0  0
  188.9190  177.8350  143.1910 C   0  0  2  0  0  3  0  0  0  0  0  0
  191.7880  179.8070  143.7760 C   0  0  0  0  0  2  0  0  0  0  0  0
  187.2410  178.3880  136.0080 C   0  0  0  0  0  3  0  0  0  0  0  0
  189.4100  177.0930  141.9840 C   0  0  0  0  0  0  0  0  0  0  0  0
  189.8610  176.2680  137.2600 N   0  0  0  0  0  0  0  0  0  0  0  0
  189.5170  177.2030  139.4070 C   0  0  0  0  0  0  0  0  0  0  0  0
  190.0530  176.1400  138.5530 C   0  0  0  0  0  3  0  0  0  0  0  0
  189.2560  177.6160  140.7710 C   0  0  0  0  0  0  0  0  0  0  0  0
  189.9780  175.7130  142.1510 C   0  0  0  0  0  2  0  0  0  0  0  0
  188.9740  178.7020  137.4940 C   0  0  1  0  0  3  0  0  0  0  0  0
  188.1490  177.2520  135.8650 C   0  0  0  0  0  3  0  0  0  0  0  0
  189.1410  177.4110  136.7220 C   0  0  2  0  0  3  0  0  0  0  0  0
  189.9980  177.7490  144.2720 C   0  0  1  0  0  0  0  0  0  0  0  0
  189.8850  178.6080  145.4090 C   0  0  0  0  0  2  0  0  0  0  0  0
  190.8110  175.5840  143.4020 C   0  0  0  0  0  3  0  0  0  0  0  0
  186.6530  178.3120  144.0950 C   0  0  2  0  0  3  0  0  0  0  0  0
  187.6160  177.2130  143.6830 C   0  0  2  0  0  3  0  0  0  0  0  0
  187.4070  177.5310  145.1490 C   0  0  0  0  0  2  0  0  0  0  0  0
  185.2610  177.7860  143.9810 C   0  0  0  0  0  3  0  0  0  0  0  0
  184.4620  177.9940  142.9320 C   0  0  0  0  0  3  0  0  0  0  0  0
  184.1650  178.5250  140.5980 C   0  0  0  0  0  2  0  0  0  0  0  0
  185.7190  179.8220  141.7720 O   0  0  0  0  0  1  0  0  0  0  0  0
  184.7920  178.7880  141.7350 C   0  0  0  0  0  0  0  0  0  0  0  0
  191.5850  176.2810  145.5510 O   0  0  0  0  0  0  0  0  0  0  0  0
  191.0260  176.1660  146.8540 C   0  0  0  0  0  2  0  0  0  0  0  0
  192.9490  175.3330  147.9850 O   0  0  0  0  0  0  0  0  0  0  0  0
  192.1070  176.2640  147.8690 C   0  0  0  0  0  0  0  0  0  0  0  0
  192.2130  177.3990  148.6650 O   0  0  0  0  0  1  0  0  0  0  0  0
  1 13  1  0  0  0  0
  2 29  1  0  0  0  0
  4 19  1  0  0  0  0
  5 11  2  0  0  0  0
  5  1  1  0  0  0  0
  6  9  1  6  0  0  0
  6 22  1  0  0  0  0
  6 18  1  0  0  0  0
  7  4  2  0  0  0  0
  8  3  1  0  0  0  0
  9 14  1  0  0  0  0
 10 12  2  0  0  0  0
 11 13  1  0  0  0  0
 12 11  1  0  0  0  0
 13  9  2  0  0  0  0
 14 20  1  0  0  0  0
 15  3  1  6  0  0  0
 15  5  1  0  0  0  0
 16  8  2  0  0  0  0
 17 16  1  1  0  0  0
 17 10  1  0  0  0  0
 17 15  1  0  0  0  0
 18  4  1  0  0  0  0
 18  2  1  0  0  0  0
 18 19  1  1  0  0  0
 20  2  2  0  0  0  0
 21 24  1  1  0  0  0
 21 23  1  0  0  0  0
 22 21  1  0  0  0  0
 22 23  1  1  0  0  0
 25 24  2  0  0  0  0
 26 28  2  0  0  0  0
 28 27  1  0  0  0  0
 28 25  1  0  0  0  0
 29 30  1  0  0  0  0
 30 32  1  0  0  0  0
 32 31  2  0  0  0  0
 32 33  1  0  0  0  0
M  END
>  <MODEL>
1

>  <REMARK>
 VINA RESULT:      -7.9      0.000      0.000
  Name = 
  6 active torsions:
  status: ('A' for Active; 'I' for Inactive)
    1  A    between atoms: C_2  and  O_19
    2  A    between atoms: C_4  and  C_7
    3  A    between atoms: C_9  and  C_12
    4  A    between atoms: C_11  and  C_25
    5  A    between atoms: O_19  and  C_25
    6  A    between atoms: C_24  and  C_28
                            x       y       z     vdW  Elec       q    Type
                         _______ _______ _______ _____ _____    ______ ____

>  <TORSDO>
F 6

$$$$
=
 OpenBabel10232409353D

 33 38  0  0  1  0  0  0  0  0999 V2000
  184.4530  178.4170  138.2720 N   0  0  0  0  0  2  0  0  0  0  0  0
  188.1590  175.5710  136.0060 C   0  0  0  0  0  0  0  0  0  0  0  0
  181.5060  179.0790  139.9720 C   0  0  0  0  0  2  0  0  0  0  0  0
  187.8950  177.9740  135.2950 C   0  0  0  0  0  0  0  0  0  0  0  0
  183.1520  177.8690  138.5040 C   0  0  0  0  0  0  0  0  0  0  0  0
  187.3350  177.3990  137.6940 C   0  0  2  0  0  3  0  0  0  0  0  0
  187.1260  178.4990  134.3460 C   0  0  0  0  0  2  0  0  0  0  0  0
  180.7080  178.4300  140.8140 C   0  0  0  0  0  3  0  0  0  0  0  0
  186.0950  176.5570  137.7220 C   0  0  0  0  0  0  0  0  0  0  0  0
  181.4530  175.6620  138.6430 N   0  0  0  0  0  0  0  0  0  0  0  0
  183.5600  176.6450  138.2030 C   0  0  0  0  0  0  0  0  0  0  0  0
  182.6730  175.4800  138.1920 C   0  0  0  0  0  3  0  0  0  0  0  0
  184.9200  177.1070  138.0120 C   0  0  0  0  0  0  0  0  0  0  0  0
  186.2110  175.0720  137.5240 C   0  0  0  0  0  2  0  0  0  0  0  0
  181.7350  178.2460  138.7590 C   0  0  1  0  0  3  0  0  0  0  0  0
  180.4300  177.0890  140.3060 C   0  0  0  0  0  3  0  0  0  0  0  0
  181.0250  176.9630  139.1350 C   0  0  2  0  0  3  0  0  0  0  0  0
  188.1430  177.0130  136.4540 C   0  0  1  0  0  0  0  0  0  0  0  0
  189.2210  177.8640  136.0580 C   0  0  0  0  0  2  0  0  0  0  0  0
  187.2430  174.7130  136.4850 C   0  0  0  0  0  3  0  0  0  0  0  0
  188.0030  178.3500  139.8920 C   0  0  2  0  0  3  0  0  0  0  0  0
  188.1500  177.1600  138.9620 C   0  0  2  0  0  3  0  0  0  0  0  0
  189.2610  178.1830  139.0680 C   0  0  0  0  0  2  0  0  0  0  0  0
  188.2530  177.8900  141.2890 C   0  0  0  0  0  3  0  0  0  0  0  0
  187.3730  177.9980  142.2860 C   0  0  0  0  0  3  0  0  0  0  0  0
  185.1230  178.2880  143.1050 C   0  0  0  0  0  2  0  0  0  0  0  0
  185.7090  179.5260  141.2070 O   0  0  0  0  0  1  0  0  0  0  0  0
  186.0330  178.6070  142.1980 C   0  0  0  0  0  0  0  0  0  0  0  0
  189.1120  175.1580  135.0660 O   0  0  0  0  0  0  0  0  0  0  0  0
  190.0890  174.1610  135.3350 C   0  0  0  0  0  2  0  0  0  0  0  0
  192.0080  175.3310  136.1210 O   0  0  0  0  0  0  0  0  0  0  0  0
  190.9990  174.6350  136.4110 C   0  0  0  0  0  0  0  0  0  0  0  0
  190.7150  174.3420  137.7400 O   0  0  0  0  0  1  0  0  0  0  0  0
  1  5  1  0  0  0  0
  2 18  1  0  0  0  0
  2 20  2  0  0  0  0
  3  8  1  0  0  0  0
  4 19  1  0  0  0  0
  4 18  1  0  0  0  0
  5 15  1  0  0  0  0
  6  9  1  1  0  0  0
  6 22  1  0  0  0  0
  7  4  2  0  0  0  0
  9 13  2  0  0  0  0
 10 17  1  0  0  0  0
 11  5  2  0  0  0  0
 12 11  1  0  0  0  0
 12 10  2  0  0  0  0
 13 11  1  0  0  0  0
 13  1  1  0  0  0  0
 14  9  1  0  0  0  0
 15 17  1  0  0  0  0
 15  3  1  1  0  0  0
 16  8  2  0  0  0  0
 17 16  1  1  0  0  0
 18 19  1  1  0  0  0
 18  6  1  0  0  0  0
 20 14  1  0  0  0  0
 21 24  1  1  0  0  0
 22 23  1  6  0  0  0
 22 21  1  0  0  0  0
 23 21  1  0  0  0  0
 24 25  2  0  0  0  0
 27 28  1  0  0  0  0
 28 25  1  0  0  0  0
 28 26  2  0  0  0  0
 29 30  1  0  0  0  0
 29  2  1  0  0  0  0
 30 32  1  0  0  0  0
 31 32  2  0  0  0  0
 32 33  1  0  0  0  0
M  END
>  <MODEL>
2

>  <REMARK>
 VINA RESULT:      -6.4      4.209      7.672
  Name = 
  6 active torsions:
  status: ('A' for Active; 'I' for Inactive)
    1  A    between atoms: C_2  and  O_19
    2  A    between atoms: C_4  and  C_7
    3  A    between atoms: C_9  and  C_12
    4  A    between atoms: C_11  and  C_25
    5  A    between atoms: O_19  and  C_25
    6  A    between atoms: C_24  and  C_28
                            x       y       z     vdW  Elec       q    Type
                         _______ _______ _______ _____ _____    ______ ____

>  <TORSDO>
F 6

$$$$
=
 OpenBabel10232409353D

 33 38  0  0  1  0  0  0  0  0999 V2000
  188.2560  176.3400  141.1620 N   0  0  0  0  0  2  0  0  0  0  0  0
  189.4570  176.7950  136.1300 C   0  0  0  0  0  0  0  0  0  0  0  0
  188.4640  176.9120  144.5740 C   0  0  0  0  0  2  0  0  0  0  0  0
  188.2820  174.7000  136.8940 C   0  0  0  0  0  0  0  0  0  0  0  0
  189.1910  176.7260  142.1730 C   0  0  0  0  0  0  0  0  0  0  0  0
  187.7660  176.8450  138.1320 C   0  0  2  0  0  3  0  0  0  0  0  0
  188.7900  173.5590  137.3470 C   0  0  0  0  0  2  0  0  0  0  0  0
  188.9030  177.8840  145.3670 C   0  0  0  0  0  3  0  0  0  0  0  0
  188.9770  177.2680  138.9090 C   0  0  0  0  0  0  0  0  0  0  0  0
  191.5300  178.0500  142.9170 N   0  0  0  0  0  0  0  0  0  0  0  0
  189.9820  177.3130  141.2870 C   0  0  0  0  0  0  0  0  0  0  0  0
  191.2540  177.9480  141.6380 C   0  0  0  0  0  3  0  0  0  0  0  0
  189.0550  177.0180  140.2120 C   0  0  0  0  0  0  0  0  0  0  0  0
  190.0470  178.0680  138.2230 C   0  0  0  0  0  2  0  0  0  0  0  0
  189.5320  176.5330  143.6090 C   0  0  1  0  0  3  0  0  0  0  0  0
  190.2330  178.3140  144.9410 C   0  0  0  0  0  3  0  0  0  0  0  0
  190.6010  177.5580  143.9230 C   0  0  2  0  0  3  0  0  0  0  0  0
  188.2390  176.2240  136.8170 C   0  0  1  0  0  0  0  0  0  0  0  0
  187.2910  175.4960  136.0340 C   0  0  0  0  0  2  0  0  0  0  0  0
  190.2860  177.6080  136.8060 C   0  0  0  0  0  3  0  0  0  0  0  0
  185.4810  177.7880  138.4000 C   0  0  2  0  0  3  0  0  0  0  0  0
  186.8760  178.0550  137.8650 C   0  0  2  0  0  3  0  0  0  0  0  0
  185.7570  177.6790  136.9160 C   0  0  0  0  0  2  0  0  0  0  0  0
  184.8310  179.0980  138.6950 C   0  0  0  0  0  3  0  0  0  0  0  0
  184.4880  179.5080  139.9180 C   0  0  0  0  0  3  0  0  0  0  0  0
  185.7310  178.9700  141.9140 C   0  0  0  0  0  2  0  0  0  0  0  0
  183.7140  177.8250  141.6010 O   0  0  0  0  0  1  0  0  0  0  0  0
  184.6590  178.7470  141.1690 C   0  0  0  0  0  0  0  0  0  0  0  0
  189.7250  176.4360  134.8030 O   0  0  0  0  0  0  0  0  0  0  0  0
  191.0120  176.0350  134.3500 C   0  0  0  0  0  2  0  0  0  0  0  0
  190.7680  173.6660  134.3560 O   0  0  0  0  0  0  0  0  0  0  0  0
  191.3210  174.6760  134.8680 C   0  0  0  0  0  0  0  0  0  0  0  0
  192.2480  174.5170  135.8920 O   0  0  0  0  0  1  0  0  0  0  0  0
  1  5  1  0  0  0  0
  2 20  2  0  0  0  0
  2 18  1  0  0  0  0
  3  8  1  0  0  0  0
  4  7  2  0  0  0  0
  5 15  1  0  0  0  0
  6  9  1  1  0  0  0
  9 13  2  0  0  0  0
 10 17  1  0  0  0  0
 11 12  1  0  0  0  0
 11  5  2  0  0  0  0
 12 10  2  0  0  0  0
 13  1  1  0  0  0  0
 13 11  1  0  0  0  0
 14  9  1  0  0  0  0
 15 17  1  0  0  0  0
 15  3  1  1  0  0  0
 16  8  2  0  0  0  0
 17 16  1  6  0  0  0
 18 19  1  6  0  0  0
 18  4  1  0  0  0  0
 18  6  1  0  0  0  0
 19  4  1  0  0  0  0
 20 14  1  0  0  0  0
 21 24  1  6  0  0  0
 22 23  1  6  0  0  0
 22  6  1  0  0  0  0
 22 21  1  0  0  0  0
 23 21  1  0  0  0  0
 24 25  2  0  0  0  0
 25 28  1  0  0  0  0
 28 27  1  0  0  0  0
 28 26  2  0  0  0  0
 29  2  1  0  0  0  0
 30 29  1  0  0  0  0
 30 32  1  0  0  0  0
 31 32  2  0  0  0  0
 32 33  1  0  0  0  0
M  END
>  <MODEL>
3

>  <REMARK>
 VINA RESULT:      -6.3      3.670      7.653
  Name = 
  6 active torsions:
  status: ('A' for Active; 'I' for Inactive)
    1  A    between atoms: C_2  and  O_19
    2  A    between atoms: C_4  and  C_7
    3  A    between atoms: C_9  and  C_12
    4  A    between atoms: C_11  and  C_25
    5  A    between atoms: O_19  and  C_25
    6  A    between atoms: C_24  and  C_28
                            x       y       z     vdW  Elec       q    Type
                         _______ _______ _______ _____ _____    ______ ____

>  <TORSDO>
F 6

$$$$
=
 OpenBabel10232409353D

 33 38  0  0  1  0  0  0  0  0999 V2000
  193.1560  174.0820  137.6530 N   0  0  0  0  0  2  0  0  0  0  0  0
  188.9970  176.3230  135.4990 C   0  0  0  0  0  0  0  0  0  0  0  0
  196.5090  173.3820  138.1840 C   0  0  0  0  0  2  0  0  0  0  0  0
  188.6980  174.0960  136.6390 C   0  0  0  0  0  0  0  0  0  0  0  0
  194.4150  174.0760  136.9740 C   0  0  0  0  0  0  0  0  0  0  0  0
  190.4710  175.6490  137.5580 C   0  0  2  0  0  3  0  0  0  0  0  0
  188.8170  172.8680  136.1470 C   0  0  0  0  0  2  0  0  0  0  0  0
  197.6690  174.0010  137.9900 C   0  0  0  0  0  3  0  0  0  0  0  0
  191.5890  175.7610  136.5650 C   0  0  0  0  0  0  0  0  0  0  0  0
  196.0660  175.0370  134.9430 N   0  0  0  0  0  0  0  0  0  0  0  0
  193.9870  174.9420  136.0690 C   0  0  0  0  0  0  0  0  0  0  0  0
  194.8060  175.4060  134.9460 C   0  0  0  0  0  3  0  0  0  0  0  0
  192.7040  175.0570  136.7340 C   0  0  0  0  0  0  0  0  0  0  0  0
  191.4790  176.7540  135.4440 C   0  0  0  0  0  2  0  0  0  0  0  0
  195.7280  173.3760  136.9170 C   0  0  1  0  0  3  0  0  0  0  0  0
  197.7210  174.5540  136.6390 C   0  0  0  0  0  3  0  0  0  0  0  0
  196.6070  174.2170  136.0160 C   0  0  2  0  0  3  0  0  0  0  0  0
  189.1570  175.5440  136.7820 C   0  0  1  0  0  0  0  0  0  0  0  0
  187.9820  175.1500  137.4940 C   0  0  0  0  0  2  0  0  0  0  0  0
  190.0790  176.8360  134.8890 C   0  0  0  0  0  3  0  0  0  0  0  0
  190.5690  176.4350  139.9150 C   0  0  2  0  0  3  0  0  0  0  0  0
  190.4620  176.8750  138.4660 C   0  0  2  0  0  3  0  0  0  0  0  0
  189.2310  176.8620  139.3480 C   0  0  0  0  0  2  0  0  0  0  0  0
  191.1590  177.5550  140.7050 C   0  0  0  0  0  3  0  0  0  0  0  0
  191.2280  177.5800  142.0380 C   0  0  0  0  0  3  0  0  0  0  0  0
  191.5780  175.8580  143.6890 C   0  0  0  0  0  2  0  0  0  0  0  0
  189.3580  176.2850  143.0840 O   0  0  0  0  0  1  0  0  0  0  0  0
  190.7170  176.5430  142.9520 C   0  0  0  0  0  0  0  0  0  0  0  0
  187.7200  176.4680  134.9410 O   0  0  0  0  0  0  0  0  0  0  0  0
  187.0420  177.7160  134.8640 C   0  0  0  0  0  2  0  0  0  0  0  0
  185.8370  177.7720  136.9170 O   0  0  0  0  0  1  0  0  0  0  0  0
  186.7920  178.2320  136.2350 C   0  0  0  0  0  0  0  0  0  0  0  0
  187.6350  179.1940  136.7800 O   0  0  0  0  0  0  0  0  0  0  0  0
  2 18  1  0  0  0  0
  4 18  1  0  0  0  0
  4 19  1  0  0  0  0
  5  1  1  0  0  0  0
  6  9  1  6  0  0  0
  6 22  1  0  0  0  0
  7  4  2  0  0  0  0
  8  3  1  0  0  0  0
  9 13  2  0  0  0  0
 10 12  2  0  0  0  0
 10 17  1  0  0  0  0
 11 13  1  0  0  0  0
 11  5  2  0  0  0  0
 12 11  1  0  0  0  0
 13  1  1  0  0  0  0
 14  9  1  0  0  0  0
 15  5  1  0  0  0  0
 15  3  1  1  0  0  0
 16  8  2  0  0  0  0
 17 16  1  1  0  0  0
 17 15  1  0  0  0  0
 18 19  1  1  0  0  0
 18  6  1  0  0  0  0
 20 14  1  0  0  0  0
 20  2  2  0  0  0  0
 21 24  1  1  0  0  0
 22 23  1  1  0  0  0
 22 21  1  0  0  0  0
 23 21  1  0  0  0  0
 24 25  2  0  0  0  0
 25 28  1  0  0  0  0
 28 27  1  0  0  0  0
 28 26  2  0  0  0  0
 29  2  1  0  0  0  0
 30 29  1  0  0  0  0
 30 32  1  0  0  0  0
 32 33  2  0  0  0  0
 32 31  1  0  0  0  0
M  END
>  <MODEL>
4

>  <REMARK>
 VINA RESULT:      -6.2      4.382      8.712
  Name = 
  6 active torsions:
  status: ('A' for Active; 'I' for Inactive)
    1  A    between atoms: C_2  and  O_19
    2  A    between atoms: C_4  and  C_7
    3  A    between atoms: C_9  and  C_12
    4  A    between atoms: C_11  and  C_25
    5  A    between atoms: O_19  and  C_25
    6  A    between atoms: C_24  and  C_28
                            x       y       z     vdW  Elec       q    Type
                         _______ _______ _______ _____ _____    ______ ____

>  <TORSDO>
F 6

$$$$
=
 OpenBabel10232409353D

 33 38  0  0  1  0  0  0  0  0999 V2000
  185.7390  178.5140  137.8750 N   0  0  0  0  0  2  0  0  0  0  0  0
  189.1570  174.9820  136.2000 C   0  0  0  0  0  0  0  0  0  0  0  0
  182.7560  179.7430  139.1420 C   0  0  0  0  0  2  0  0  0  0  0  0
  189.4080  177.3590  135.4030 C   0  0  0  0  0  0  0  0  0  0  0  0
  184.3430  178.2050  137.9410 C   0  0  0  0  0  0  0  0  0  0  0  0
  188.4500  176.9990  137.7170 C   0  0  2  0  0  3  0  0  0  0  0  0
  188.8720  177.9620  134.3470 C   0  0  0  0  0  2  0  0  0  0  0  0
  181.7550  179.2790  139.8840 C   0  0  0  0  0  3  0  0  0  0  0  0
  187.0900  176.3800  137.5960 C   0  0  0  0  0  0  0  0  0  0  0  0
  182.2840  176.3270  137.9000 N   0  0  0  0  0  0  0  0  0  0  0  0
  184.5680  176.9180  137.7270 C   0  0  0  0  0  0  0  0  0  0  0  0
  183.5010  175.9200  137.6230 C   0  0  0  0  0  3  0  0  0  0  0  0
  186.0010  177.1350  137.7110 C   0  0  0  0  0  0  0  0  0  0  0  0
  186.9710  174.8900  137.4510 C   0  0  0  0  0  2  0  0  0  0  0  0
  182.9920  178.8280  137.9920 C   0  0  1  0  0  3  0  0  0  0  0  0
  181.3160  177.9810  139.3740 C   0  0  0  0  0  3  0  0  0  0  0  0
  182.0280  177.7020  138.2980 C   0  0  2  0  0  3  0  0  0  0  0  0
  189.3330  176.4250  136.6080 C   0  0  1  0  0  0  0  0  0  0  0  0
  190.5850  177.0620  136.3420 C   0  0  0  0  0  2  0  0  0  0  0  0
  188.0510  174.3130  136.5700 C   0  0  0  0  0  3  0  0  0  0  0  0
  188.7220  177.8170  140.0500 C   0  0  2  0  0  3  0  0  0  0  0  0
  189.0400  176.6850  139.0890 C   0  0  2  0  0  3  0  0  0  0  0  0
  190.1050  177.7020  139.4440 C   0  0  0  0  0  2  0  0  0  0  0  0
  188.7370  177.2730  141.4390 C   0  0  0  0  0  3  0  0  0  0  0  0
  187.7840  177.5020  142.3460 C   0  0  0  0  0  3  0  0  0  0  0  0
  185.6240  178.3000  143.0620 C   0  0  0  0  0  2  0  0  0  0  0  0
  186.4520  179.1880  141.0620 O   0  0  0  0  0  1  0  0  0  0  0  0
  186.5870  178.3390  142.1530 C   0  0  0  0  0  0  0  0  0  0  0  0
  190.1370  174.3710  135.4080 O   0  0  0  0  0  0  0  0  0  0  0  0
  190.8930  173.2450  135.8370 C   0  0  0  0  0  2  0  0  0  0  0  0
  193.2230  173.6720  136.0780 O   0  0  0  0  0  0  0  0  0  0  0  0
  192.0790  173.7070  136.6050 C   0  0  0  0  0  0  0  0  0  0  0  0
  191.9210  174.2120  137.8900 O   0  0  0  0  0  1  0  0  0  0  0  0
  1  5  1  0  0  0  0
  2 20  2  0  0  0  0
  2 18  1  0  0  0  0
  3  8  1  0  0  0  0
  4 19  1  0  0  0  0
  4 18  1  0  0  0  0
  5 15  1  0  0  0  0
  6  9  1  1  0  0  0
  6 22  1  0  0  0  0
  7  4  2  0  0  0  0
  9 13  2  0  0  0  0
 10 17  1  0  0  0  0
 11  5  2  0  0  0  0
 12 11  1  0  0  0  0
 12 10  2  0  0  0  0
 13 11  1  0  0  0  0
 13  1  1  0  0  0  0
 14  9  1  0  0  0  0
 15 17  1  0  0  0  0
 15  3  1  1  0  0  0
 16  8  2  0  0  0  0
 17 16  1  1  0  0  0
 18 19  1  1  0  0  0
 18  6  1  0  0  0  0
 20 14  1  0  0  0  0
 21 24  1  1  0  0  0
 22 23  1  6  0  0  0
 22 21  1  0  0  0  0
 23 21  1  0  0  0  0
 24 25  2  0  0  0  0
 27 28  1  0  0  0  0
 28 25  1  0  0  0  0
 28 26  2  0  0  0  0
 29 30  1  0  0  0  0
 29  2  1  0  0  0  0
 30 32  1  0  0  0  0
 31 32  2  0  0  0  0
 32 33  1  0  0  0  0
M  END
>  <MODEL>
5

>  <REMARK>
 VINA RESULT:      -6.1      3.944      7.236
  Name = 
  6 active torsions:
  status: ('A' for Active; 'I' for Inactive)
    1  A    between atoms: C_2  and  O_19
    2  A    between atoms: C_4  and  C_7
    3  A    between atoms: C_9  and  C_12
    4  A    between atoms: C_11  and  C_25
    5  A    between atoms: O_19  and  C_25
    6  A    between atoms: C_24  and  C_28
                            x       y       z     vdW  Elec       q    Type
                         _______ _______ _______ _____ _____    ______ ____

>  <TORSDO>
F 6

$$$$
=
 OpenBabel10232409353D

 33 38  0  0  1  0  0  0  0  0999 V2000
  183.1000  177.1990  140.3340 N   0  0  0  0  0  2  0  0  0  0  0  0
  185.4510  176.4680  135.7620 C   0  0  0  0  0  0  0  0  0  0  0  0
  182.4930  178.6140  143.4390 C   0  0  0  0  0  2  0  0  0  0  0  0
  184.1420  174.5550  136.7520 C   0  0  0  0  0  0  0  0  0  0  0  0
  183.7680  177.8860  141.3960 C   0  0  0  0  0  0  0  0  0  0  0  0
  183.3360  176.9020  137.2470 C   0  0  2  0  0  3  0  0  0  0  0  0
  184.5350  173.5990  137.5860 C   0  0  0  0  0  2  0  0  0  0  0  0
  182.7270  179.7790  144.0340 C   0  0  0  0  0  3  0  0  0  0  0  0
  184.3260  177.5840  138.1420 C   0  0  0  0  0  0  0  0  0  0  0  0
  185.8570  179.5050  142.2850 N   0  0  0  0  0  0  0  0  0  0  0  0
  184.7410  178.2850  140.5920 C   0  0  0  0  0  0  0  0  0  0  0  0
  185.8910  179.0700  141.0460 C   0  0  0  0  0  3  0  0  0  0  0  0
  184.0960  177.6710  139.4480 C   0  0  0  0  0  0  0  0  0  0  0  0
  185.5230  178.2580  137.5340 C   0  0  0  0  0  2  0  0  0  0  0  0
  183.7610  178.0790  142.8720 C   0  0  1  0  0  3  0  0  0  0  0  0
  184.1170  180.1770  143.8240 C   0  0  0  0  0  3  0  0  0  0  0  0
  184.7200  179.2180  143.1460 C   0  0  2  0  0  3  0  0  0  0  0  0
  184.1090  176.0060  136.2780 C   0  0  1  0  0  0  0  0  0  0  0  0
  183.3770  175.0450  135.5150 C   0  0  0  0  0  2  0  0  0  0  0  0
  186.0920  177.4770  136.3760 C   0  0  0  0  0  3  0  0  0  0  0  0
  181.1650  178.1090  137.1330 C   0  0  2  0  0  3  0  0  0  0  0  0
  182.5270  177.9450  136.4830 C   0  0  2  0  0  3  0  0  0  0  0  0
  181.3050  177.3040  135.8590 C   0  0  0  0  0  2  0  0  0  0  0  0
  180.6490  179.4710  136.8110 C   0  0  0  0  0  3  0  0  0  0  0  0
  180.8810  180.5570  137.5520 C   0  0  0  0  0  3  0  0  0  0  0  0
  181.0450  180.2560  139.9400 C   0  0  0  0  0  2  0  0  0  0  0  0
  182.9870  180.9660  138.8430 O   0  0  0  0  0  1  0  0  0  0  0  0
  181.6460  180.6010  138.8110 C   0  0  0  0  0  0  0  0  0  0  0  0
  186.0270  175.8080  134.6680 O   0  0  0  0  0  0  0  0  0  0  0  0
  187.3900  175.4020  134.6340 C   0  0  0  0  0  2  0  0  0  0  0  0
  187.2050  173.0760  135.1080 O   0  0  0  0  0  0  0  0  0  0  0  0
  187.5760  174.2120  135.5060 C   0  0  0  0  0  0  0  0  0  0  0  0
  188.1940  174.3480  136.7430 O   0  0  0  0  0  1  0  0  0  0  0  0
  1  5  1  0  0  0  0
  2 18  1  0  0  0  0
  2 20  2  0  0  0  0
  3  8  1  0  0  0  0
  4  7  2  0  0  0  0
  5 15  1  0  0  0  0
  6  9  1  1  0  0  0
  9 13  2  0  0  0  0
 10 17  1  0  0  0  0
 11 12  1  0  0  0  0
 11  5  2  0  0  0  0
 12 10  2  0  0  0  0
 13  1  1  0  0  0  0
 13 11  1  0  0  0  0
 14  9  1  0  0  0  0
 15 17  1  0  0  0  0
 15  3  1  6  0  0  0
 16  8  2  0  0  0  0
 17 16  1  6  0  0  0
 18 19  1  6  0  0  0
 18  4  1  0  0  0  0
 18  6  1  0  0  0  0
 19  4  1  0  0  0  0
 20 14  1  0  0  0  0
 21 24  1  6  0  0  0
 22 23  1  6  0  0  0
 22 21  1  0  0  0  0
 22  6  1  0  0  0  0
 23 21  1  0  0  0  0
 24 25  2  0  0  0  0
 25 28  1  0  0  0  0
 28 27  1  0  0  0  0
 28 26  2  0  0  0  0
 29  2  1  0  0  0  0
 30 29  1  0  0  0  0
 30 32  1  0  0  0  0
 31 32  2  0  0  0  0
 32 33  1  0  0  0  0
M  END
>  <MODEL>
6

>  <REMARK>
 VINA RESULT:      -6.1      5.675      9.094
  Name = 
  6 active torsions:
  status: ('A' for Active; 'I' for Inactive)
    1  A    between atoms: C_2  and  O_19
    2  A    between atoms: C_4  and  C_7
    3  A    between atoms: C_9  and  C_12
    4  A    between atoms: C_11  and  C_25
    5  A    between atoms: O_19  and  C_25
    6  A    between atoms: C_24  and  C_28
                            x       y       z     vdW  Elec       q    Type
                         _______ _______ _______ _____ _____    ______ ____

>  <TORSDO>
F 6

$$$$
=
 OpenBabel10232409353D

 33 38  0  0  1  0  0  0  0  0999 V2000
  183.7000  174.2430  137.7670 N   0  0  0  0  0  2  0  0  0  0  0  0
  182.5450  179.3010  137.9830 C   0  0  0  0  0  0  0  0  0  0  0  0
  183.6090  170.9790  136.6050 C   0  0  0  0  0  2  0  0  0  0  0  0
  183.3880  178.1780  140.0750 C   0  0  0  0  0  0  0  0  0  0  0  0
  182.8430  173.3280  137.0770 C   0  0  0  0  0  0  0  0  0  0  0  0
  184.2390  177.3050  137.8580 C   0  0  2  0  0  3  0  0  0  0  0  0
  182.7140  177.5500  141.0320 C   0  0  0  0  0  2  0  0  0  0  0  0
  183.3310  170.3670  135.4580 C   0  0  0  0  0  3  0  0  0  0  0  0
  183.1140  176.6320  137.1300 C   0  0  0  0  0  0  0  0  0  0  0  0
  180.7430  172.8590  135.3040 N   0  0  0  0  0  0  0  0  0  0  0  0
  182.1470  174.3140  136.5330 C   0  0  0  0  0  0  0  0  0  0  0  0
  180.9900  174.0980  135.6600 C   0  0  0  0  0  3  0  0  0  0  0  0
  183.0090  175.3070  137.1430 C   0  0  0  0  0  0  0  0  0  0  0  0
  182.1750  177.4620  136.3010 C   0  0  0  0  0  2  0  0  0  0  0  0
  182.4880  171.8870  136.9720 C   0  0  1  0  0  3  0  0  0  0  0  0
  182.0810  170.8840  134.9060 C   0  0  0  0  0  3  0  0  0  0  0  0
  181.5930  171.7680  135.7570 C   0  0  2  0  0  3  0  0  0  0  0  0
  183.6650  178.5070  138.6110 C   0  0  1  0  0  0  0  0  0  0  0  0
  184.4840  179.1400  139.5970 C   0  0  0  0  0  2  0  0  0  0  0  0
  181.8570  178.7860  136.9500 C   0  0  0  0  0  3  0  0  0  0  0  0
  186.4300  176.7380  136.8290 C   0  0  2  0  0  3  0  0  0  0  0  0
  185.3030  177.7540  136.8610 C   0  0  2  0  0  3  0  0  0  0  0  0
  186.6050  178.0390  137.5820 C   0  0  0  0  0  2  0  0  0  0  0  0
  187.1090  176.8300  135.5040 C   0  0  0  0  0  3  0  0  0  0  0  0
  187.1480  175.8410  134.6080 C   0  0  0  0  0  3  0  0  0  0  0  0
  185.3340  174.2740  134.3460 C   0  0  0  0  0  2  0  0  0  0  0  0
  187.2850  173.4510  135.3410 O   0  0  0  0  0  1  0  0  0  0  0  0
  186.5660  174.4970  134.7740 C   0  0  0  0  0  0  0  0  0  0  0  0
  182.2150  180.5550  138.5140 O   0  0  0  0  0  0  0  0  0  0  0  0
  180.9260  181.1410  138.3810 C   0  0  0  0  0  2  0  0  0  0  0  0
  181.2770  183.4030  137.7250 O   0  0  0  0  0  1  0  0  0  0  0  0
  180.9780  182.2310  137.3710 C   0  0  0  0  0  0  0  0  0  0  0  0
  180.7340  181.9500  136.0320 O   0  0  0  0  0  0  0  0  0  0  0  0
  2 29  1  0  0  0  0
  2 18  1  0  0  0  0
  4  7  2  0  0  0  0
  5  1  1  0  0  0  0
  6  9  1  6  0  0  0
  6 18  1  0  0  0  0
  8  3  1  0  0  0  0
  9 13  2  0  0  0  0
 10 12  2  0  0  0  0
 10 17  1  0  0  0  0
 11  5  2  0  0  0  0
 11 13  1  0  0  0  0
 12 11  1  0  0  0  0
 13  1  1  0  0  0  0
 14 20  1  0  0  0  0
 14  9  1  0  0  0  0
 15  3  1  6  0  0  0
 15  5  1  0  0  0  0
 16  8  2  0  0  0  0
 17 16  1  6  0  0  0
 17 15  1  0  0  0  0
 18 19  1  1  0  0  0
 18  4  1  0  0  0  0
 19  4  1  0  0  0  0
 20  2  2  0  0  0  0
 21 24  1  6  0  0  0
 21 22  1  0  0  0  0
 21 23  1  0  0  0  0
 22 23  1  1  0  0  0
 22  6  1  0  0  0  0
 25 28  1  0  0  0  0
 25 24  2  0  0  0  0
 26 28  2  0  0  0  0
 28 27  1  0  0  0  0
 30 29  1  0  0  0  0
 32 31  1  0  0  0  0
 32 30  1  0  0  0  0
 33 32  2  0  0  0  0
M  END
>  <MODEL>
7

>  <REMARK>
 VINA RESULT:      -6.0      6.887     10.161
  Name = 
  6 active torsions:
  status: ('A' for Active; 'I' for Inactive)
    1  A    between atoms: C_2  and  O_19
    2  A    between atoms: C_4  and  C_7
    3  A    between atoms: C_9  and  C_12
    4  A    between atoms: C_11  and  C_25
    5  A    between atoms: O_19  and  C_25
    6  A    between atoms: C_24  and  C_28
                            x       y       z     vdW  Elec       q    Type
                         _______ _______ _______ _____ _____    ______ ____

>  <TORSDO>
F 6

$$$$
=
 OpenBabel10232409353D

 33 38  0  0  1  0  0  0  0  0999 V2000
  185.3520  176.9220  135.3330 N   0  0  0  0  0  2  0  0  0  0  0  0
  181.5180  178.4180  138.4990 C   0  0  0  0  0  0  0  0  0  0  0  0
  188.5880  176.1670  134.3470 C   0  0  0  0  0  2  0  0  0  0  0  0
  181.1740  178.6500  136.0140 C   0  0  0  0  0  0  0  0  0  0  0  0
  186.7140  177.2450  135.6320 C   0  0  0  0  0  0  0  0  0  0  0  0
  182.6260  176.7400  136.8180 C   0  0  2  0  0  3  0  0  0  0  0  0
  181.4730  179.6620  135.2070 C   0  0  0  0  0  2  0  0  0  0  0  0
  189.7150  175.7850  134.9380 C   0  0  0  0  0  3  0  0  0  0  0  0
  183.8990  177.2940  137.3840 C   0  0  0  0  0  0  0  0  0  0  0  0
  188.6410  178.1330  137.4400 N   0  0  0  0  0  0  0  0  0  0  0  0
  186.4000  177.6500  136.8530 C   0  0  0  0  0  0  0  0  0  0  0  0
  187.3790  178.1940  137.7970 C   0  0  0  0  0  3  0  0  0  0  0  0
  185.0110  177.2890  136.6550 C   0  0  0  0  0  0  0  0  0  0  0  0
  183.9280  177.7530  138.8130 C   0  0  0  0  0  2  0  0  0  0  0  0
  188.0610  177.3870  135.0160 C   0  0  1  0  0  3  0  0  0  0  0  0
  189.9790  176.6280  136.1020 C   0  0  0  0  0  3  0  0  0  0  0  0
  189.0300  177.5420  136.1690 C   0  0  2  0  0  3  0  0  0  0  0  0
  181.4910  177.7040  137.1690 C   0  0  1  0  0  0  0  0  0  0  0  0
  180.2360  177.5400  136.5070 C   0  0  0  0  0  2  0  0  0  0  0  0
  182.6550  178.4550  139.2150 C   0  0  0  0  0  3  0  0  0  0  0  0
  182.9860  174.2970  136.5220 C   0  0  2  0  0  3  0  0  0  0  0  0
  182.3570  175.3580  137.4070 C   0  0  2  0  0  3  0  0  0  0  0  0
  181.4940  174.5470  136.4620 C   0  0  0  0  0  2  0  0  0  0  0  0
  183.2600  173.0910  137.3550 C   0  0  0  0  0  3  0  0  0  0  0  0
  184.4060  172.4060  137.3330 C   0  0  0  0  0  3  0  0  0  0  0  0
  186.3860  173.6830  136.8180 C   0  0  0  0  0  2  0  0  0  0  0  0
  185.8580  171.9390  135.3490 O   0  0  0  0  0  1  0  0  0  0  0  0
  185.5720  172.6940  136.4800 C   0  0  0  0  0  0  0  0  0  0  0  0
  180.3610  179.0650  138.9520 O   0  0  0  0  0  0  0  0  0  0  0  0
  180.3750  180.3570  139.5460 C   0  0  0  0  0  2  0  0  0  0  0  0
  182.0050  181.8230  138.6160 O   0  0  0  0  0  1  0  0  0  0  0  0
  180.8360  181.3590  138.5490 C   0  0  0  0  0  0  0  0  0  0  0  0
  179.9890  181.7530  137.5190 O   0  0  0  0  0  0  0  0  0  0  0  0
  1  5  1  0  0  0  0
  1 13  1  0  0  0  0
  2 29  1  0  0  0  0
  2 20  2  0  0  0  0
  3  8  1  0  0  0  0
  4 19  1  0  0  0  0
  4 18  1  0  0  0  0
  5 11  2  0  0  0  0
  6 18  1  0  0  0  0
  6  9  1  1  0  0  0
  6 22  1  0  0  0  0
  7  4  2  0  0  0  0
  8 16  2  0  0  0  0
  9 14  1  0  0  0  0
 10 12  2  0  0  0  0
 11 12  1  0  0  0  0
 13 11  1  0  0  0  0
 13  9  2  0  0  0  0
 14 20  1  0  0  0  0
 15  3  1  1  0  0  0
 15  5  1  0  0  0  0
 15 17  1  0  0  0  0
 17 16  1  1  0  0  0
 17 10  1  0  0  0  0
 18 19  1  1  0  0  0
 18  2  1  0  0  0  0
 21 24  1  1  0  0  0
 21 22  1  0  0  0  0
 22 23  1  6  0  0  0
 23 21  1  0  0  0  0
 25 24  2  0  0  0  0
 27 28  1  0  0  0  0
 28 26  2  0  0  0  0
 28 25  1  0  0  0  0
 29 30  1  0  0  0  0
 32 31  1  0  0  0  0
 32 30  1  0  0  0  0
 33 32  2  0  0  0  0
M  END
>  <MODEL>
8

>  <REMARK>
 VINA RESULT:      -5.8      6.771      9.494
  Name = 
  6 active torsions:
  status: ('A' for Active; 'I' for Inactive)
    1  A    between atoms: C_2  and  O_19
    2  A    between atoms: C_4  and  C_7
    3  A    between atoms: C_9  and  C_12
    4  A    between atoms: C_11  and  C_25
    5  A    between atoms: O_19  and  C_25
    6  A    between atoms: C_24  and  C_28
                            x       y       z     vdW  Elec       q    Type
                         _______ _______ _______ _____ _____    ______ ____

>  <TORSDO>
F 6

$$$$
=
 OpenBabel10232409353D

 33 38  0  0  1  0  0  0  0  0999 V2000
  190.7180  175.4900  135.2430 N   0  0  0  0  0  2  0  0  0  0  0  0
  186.6880  177.6820  137.6760 C   0  0  0  0  0  0  0  0  0  0  0  0
  193.9370  174.2780  134.8220 C   0  0  0  0  0  2  0  0  0  0  0  0
  186.7460  177.7540  135.1570 C   0  0  0  0  0  0  0  0  0  0  0  0
  192.0510  175.6710  135.7310 C   0  0  0  0  0  0  0  0  0  0  0  0
  187.8030  175.7550  136.2930 C   0  0  2  0  0  3  0  0  0  0  0  0
  187.2900  178.6550  134.3460 C   0  0  0  0  0  2  0  0  0  0  0  0
  194.9060  173.8130  135.6040 C   0  0  0  0  0  3  0  0  0  0  0  0
  189.0400  176.1960  137.0160 C   0  0  0  0  0  0  0  0  0  0  0  0
  193.7900  176.4660  137.7600 N   0  0  0  0  0  0  0  0  0  0  0  0
  191.6170  176.2080  136.8610 C   0  0  0  0  0  0  0  0  0  0  0  0
  192.5080  176.7050  137.9110 C   0  0  0  0  0  3  0  0  0  0  0  0
  190.2360  176.0000  136.4710 C   0  0  0  0  0  0  0  0  0  0  0  0
  188.9180  176.7620  138.4020 C   0  0  0  0  0  2  0  0  0  0  0  0
  193.4810  175.6030  135.3250 C   0  0  1  0  0  3  0  0  0  0  0  0
  195.1040  174.7090  136.7420 C   0  0  0  0  0  3  0  0  0  0  0  0
  194.2820  175.7330  136.6030 C   0  0  2  0  0  3  0  0  0  0  0  0
  186.7640  176.8730  136.4030 C   0  0  1  0  0  0  0  0  0  0  0  0
  185.6090  176.8070  135.5640 C   0  0  0  0  0  2  0  0  0  0  0  0
  187.7020  177.6410  138.5560 C   0  0  0  0  0  3  0  0  0  0  0  0
  187.6670  173.2840  136.0500 C   0  0  2  0  0  3  0  0  0  0  0  0
  187.2730  174.4670  136.9160 C   0  0  2  0  0  3  0  0  0  0  0  0
  186.2530  173.8240  135.9990 C   0  0  0  0  0  2  0  0  0  0  0  0
  187.7060  172.0650  136.9090 C   0  0  0  0  0  3  0  0  0  0  0  0
  187.6920  170.8150  136.4400 C   0  0  0  0  0  3  0  0  0  0  0  0
  188.7140  170.0760  134.3850 C   0  0  0  0  0  2  0  0  0  0  0  0
  186.3940  170.3720  134.3460 O   0  0  0  0  0  1  0  0  0  0  0  0
  187.6070  170.4200  135.0230 C   0  0  0  0  0  0  0  0  0  0  0  0
  185.5710  178.4980  137.9010 O   0  0  0  0  0  0  0  0  0  0  0  0
  184.6790  178.3100  138.9930 C   0  0  0  0  0  2  0  0  0  0  0  0
  184.0530  180.5950  139.2300 O   0  0  0  0  0  1  0  0  0  0  0  0
  183.6810  179.4110  139.0150 C   0  0  0  0  0  0  0  0  0  0  0  0
  182.3410  179.1390  138.7600 O   0  0  0  0  0  0  0  0  0  0  0  0
  1  5  1  0  0  0  0
  1 13  1  0  0  0  0
  2 29  1  0  0  0  0
  2 20  2  0  0  0  0
  3  8  1  0  0  0  0
  4 19  1  0  0  0  0
  4 18  1  0  0  0  0
  5 11  2  0  0  0  0
  6 18  1  0  0  0  0
  6 22  1  0  0  0  0
  6  9  1  1  0  0  0
  7  4  2  0  0  0  0
  8 16  2  0  0  0  0
  9 14  1  0  0  0  0
 10 12  2  0  0  0  0
 11 12  1  0  0  0  0
 13 11  1  0  0  0  0
 13  9  2  0  0  0  0
 14 20  1  0  0  0  0
 15  3  1  1  0  0  0
 15  5  1  0  0  0  0
 15 17  1  0  0  0  0
 17 16  1  1  0  0  0
 17 10  1  0  0  0  0
 18 19  1  6  0  0  0
 18  2  1  0  0  0  0
 21 24  1  1  0  0  0
 21 22  1  0  0  0  0
 22 23  1  6  0  0  0
 23 21  1  0  0  0  0
 25 24  2  0  0  0  0
 26 28  2  0  0  0  0
 27 28  1  0  0  0  0
 28 25  1  0  0  0  0
 29 30  1  0  0  0  0
 30 32  1  0  0  0  0
 32 31  1  0  0  0  0
 33 32  2  0  0  0  0
M  END
>  <MODEL>
9

>  <REMARK>
 VINA RESULT:      -5.7      5.855      8.830
  Name = 
  6 active torsions:
  status: ('A' for Active; 'I' for Inactive)
    1  A    between atoms: C_2  and  O_19
    2  A    between atoms: C_4  and  C_7
    3  A    between atoms: C_9  and  C_12
    4  A    between atoms: C_11  and  C_25
    5  A    between atoms: O_19  and  C_25
    6  A    between atoms: C_24  and  C_28
                            x       y       z     vdW  Elec       q    Type
                         _______ _______ _______ _____ _____    ______ ____

>  <TORSDO>
F 6

$$$$
