=
 OpenBabel10232410233D

 68 79  0  0  1  0  0  0  0  0999 V2000
  186.7760  178.3880  140.3620 S   0  0  0  0  0  0  0  0  0  0  0  0
  185.8510  178.5060  138.7660 C   0  0  1  0  0  3  0  0  0  0  0  0
  188.9680  177.5980  137.6380 C   0  0  0  0  0  0  0  0  0  0  0  0
  189.9730  173.6990  137.5810 C   0  0  0  0  0  1  0  0  0  0  0  0
  188.2950  178.9440  139.4840 C   0  0  0  0  0  2  0  0  0  0  0  0
  189.7540  176.5950  137.2440 C   0  0  0  0  0  0  0  0  0  0  0  0
  190.7580  175.9840  136.2010 N   0  0  0  0  0  0  0  0  0  0  0  0
  186.7670  178.4030  137.6680 N   0  0  0  0  0  2  0  0  0  0  0  0
  189.7930  175.2120  136.9400 C   0  0  1  0  0  0  0  0  0  0  0  0
  188.1370  178.4890  138.0810 C   0  0  0  0  0  0  0  0  0  0  0  0
  191.1960  175.8810  137.7390 C   0  0  1  0  0  0  0  0  0  0  0  0
  190.7600  175.7460  139.3380 C   0  0  0  0  0  1  0  0  0  0  0  0
  192.5880  175.1400  137.6800 C   0  0  2  0  0  3  0  0  0  0  0  0
  192.5350  176.6170  137.9620 C   0  0  0  0  0  2  0  0  0  0  0  0
  194.2280  175.9940  136.2170 C   0  0  0  0  0  2  0  0  0  0  0  0
  195.5200  172.2680  136.4930 N   0  0  0  0  0  0  0  0  0  0  0  0
  194.7760  173.4090  137.1100 C   0  0  2  0  0  3  0  0  0  0  0  0
  198.7620  173.2720  135.2720 C   0  0  0  0  0  2  0  0  0  0  0  0
  195.7380  171.0780  137.2360 C   0  0  0  0  0  0  0  0  0  0  0  0
  193.1380  175.0270  136.3080 N   0  0  1  0  0  0  0  0  0  0  0  0
  195.0760  170.8910  138.4490 O   0  0  0  0  0  1  0  0  0  0  0  0
  197.2970  173.7100  135.4250 C   0  0  2  0  0  3  0  0  0  0  0  0
  197.9580  174.0000  137.8090 N   0  0  0  0  0  2  0  0  0  0  0  0
  194.5600  174.5720  136.0930 C   0  0  2  0  0  0  0  0  0  0  0  0
  199.7010  174.2180  136.0170 C   0  0  0  0  0  2  0  0  0  0  0  0
  196.4240  170.1140  136.7750 O   0  0  0  0  0  0  0  0  0  0  0  0
  197.0870  174.5200  136.7360 C   0  0  2  0  0  3  0  0  0  0  0  0
  199.3680  174.2780  137.5210 C   0  0  0  0  0  2  0  0  0  0  0  0
  196.4100  172.5220  135.3800 C   0  0  0  0  0  0  0  0  0  0  0  0
  195.6010  174.6400  137.2370 C   0  0  2  0  0  3  0  0  0  0  0  0
  196.3480  171.7850  134.3590 O   0  0  0  0  0  0  0  0  0  0  0  0
  187.9790  176.2710  135.4010 C   0  0  1  0  0  3  0  0  0  0  0  0
  187.4340  175.6950  136.5950 O   0  0  0  0  0  0  0  0  0  0  0  0
  188.5200  174.9980  136.0150 C   0  0  2  0  0  3  0  0  0  0  0  0
  185.6370  177.9560  134.8330 O   0  0  0  0  0  0  0  0  0  0  0  0
  186.9430  176.0620  134.3640 N   0  0  0  0  0  2  0  0  0  0  0  0
  185.6890  176.7130  134.6030 C   0  0  0  0  0  0  0  0  0  0  0  0
  184.4290  175.8680  134.6910 C   0  0  0  0  0  2  0  0  0  0  0  0
  184.6290  174.6900  135.5090 N   0  0  0  0  0  2  0  0  0  0  0  0
  184.4480  173.4870  134.6710 C   0  0  1  0  0  3  0  0  0  0  0  0
  185.6010  172.6650  134.6750 O   0  0  0  0  0  1  0  0  0  0  0  0
  181.8980  173.7310  134.9400 C   0  0  0  0  0  2  0  0  0  0  0  0
  183.1180  172.7820  135.0490 C   0  0  2  0  0  3  0  0  0  0  0  0
  182.0420  171.7910  137.1510 C   0  0  0  0  0  2  0  0  0  0  0  0
  181.0200  172.9250  137.1840 C   0  0  2  0  0  3  0  0  0  0  0  0
  183.3370  172.2680  136.4900 C   0  0  0  0  0  2  0  0  0  0  0  0
  180.7000  173.2360  135.7150 C   0  0  0  0  0  2  0  0  0  0  0  0
  180.4730  174.9170  138.0590 C   0  0  0  0  0  1  0  0  0  0  0  0
  181.5400  174.0280  137.8600 O   0  0  0  0  0  0  0  0  0  0  0  0
  184.6590  177.6250  138.5980 C   0  0  0  0  0  0  0  0  0  0  0  0
  184.4180  177.0990  137.5150 O   0  0  0  0  0  0  0  0  0  0  0  0
  183.9980  177.1660  139.8610 C   0  0  0  0  0  2  0  0  0  0  0  0
  182.8860  177.9990  140.4040 C   0  0  0  0  0  0  0  0  0  0  0  0
  182.2200  178.7890  139.5980 C   0  0  0  0  0  2  0  0  0  0  0  0
  183.0500  178.4110  141.7770 N   0  0  0  0  0  2  0  0  0  0  0  0
  184.1850  178.0880  142.5550 N   0  0  0  0  0  2  0  0  0  0  0  0
  186.9390  177.4580  143.8030 C   0  0  0  0  0  2  0  0  0  0  0  0
  189.2770  177.2610  142.9720 C   0  0  0  0  0  1  0  0  0  0  0  0
  185.4640  180.2400  143.6050 S   0  0  0  0  0  0  0  0  0  0  0  0
  184.1740  178.9760  143.7290 C   0  0  2  0  0  3  0  0  0  0  0  0
  184.7340  178.2880  144.9620 C   0  0  1  0  0  0  0  0  0  0  0  0
  188.8370  177.8870  145.2540 O   0  0  0  0  0  0  0  0  0  0  0  0
  188.2430  177.3830  146.4430 C   0  0  0  0  0  2  0  0  0  0  0  0
  183.8690  178.2990  146.2190 C   0  0  0  0  0  1  0  0  0  0  0  0
  186.1980  177.9010  145.0630 C   0  0  1  0  0  0  0  0  0  0  0  0
  186.7030  177.3620  146.3820 C   0  0  0  0  0  2  0  0  0  0  0  0
  188.3710  177.0720  144.1820 C   0  0  1  0  0  3  0  0  0  0  0  0
  185.8340  179.3590  145.1530 C   0  0  1  0  0  3  0  0  0  0  0  0
  2 50  1  6  0  0  0
  2  1  1  0  0  0  0
  3 10  2  0  0  0  0
  5  1  1  0  0  0  0
  6  3  2  0  0  0  0
  7  9  1  0  0  0  0
  7  6  1  0  0  0  0
  7 11  1  0  0  0  0
  8 10  1  0  0  0  0
  8  2  1  0  0  0  0
  9  6  1  0  0  0  0
  9  4  1  1  0  0  0
 10  5  1  0  0  0  0
 11 14  1  0  0  0  0
 11 12  1  1  0  0  0
 13 11  1  0  0  0  0
 13 14  1  1  0  0  0
 16 19  1  0  0  0  0
 17 16  1  6  0  0  0
 17 30  1  0  0  0  0
 18 25  1  0  0  0  0
 19 21  1  0  0  0  0
 20 15  1  1  0  0  0
 20 13  1  0  0  0  0
 22 18  1  1  0  0  0
 22 27  1  0  0  0  0
 24 15  1  6  0  0  0
 24 20  1  0  0  0  0
 24 17  1  0  0  0  0
 24 30  1  0  0  0  0
 25 28  1  0  0  0  0
 26 19  2  0  0  0  0
 27 30  1  0  0  0  0
 27 23  1  1  0  0  0
 28 23  1  0  0  0  0
 29 22  1  0  0  0  0
 29 16  1  0  0  0  0
 31 29  2  0  0  0  0
 32 34  1  0  0  0  0
 32 33  1  0  0  0  0
 34 33  1  0  0  0  0
 34  9  1  0  0  0  0
 36 37  1  0  0  0  0
 36 32  1  0  0  0  0
 37 38  1  0  0  0  0
 37 35  2  0  0  0  0
 38 39  1  0  0  0  0
 40 41  1  0  0  0  0
 40 43  1  0  0  0  0
 40 39  1  0  0  0  0
 42 43  1  0  0  0  0
 42 47  1  0  0  0  0
 43 46  1  0  0  0  0
 44 45  1  0  0  0  0
 45 49  1  0  0  0  0
 46 44  1  0  0  0  0
 47 45  1  0  0  0  0
 49 48  1  0  0  0  0
 50 52  1  0  0  0  0
 51 50  2  0  0  0  0
 52 53  1  0  0  0  0
 53 55  1  0  0  0  0
 54 53  2  0  0  0  0
 55 56  1  0  0  0  0
 56 60  1  0  0  0  0
 57 67  1  0  0  0  0
 57 65  1  0  0  0  0
 58 67  1  0  0  0  0
 59 60  1  0  0  0  0
 59 68  1  0  0  0  0
 60 61  1  0  0  0  0
 61 65  1  0  0  0  0
 61 68  1  0  0  0  0
 61 64  1  0  0  0  0
 62 63  1  0  0  0  0
 65 68  1  0  0  0  0
 65 66  1  0  0  0  0
 66 63  1  0  0  0  0
 67 62  1  0  0  0  0
M  END
>  <MODEL>
1

>  <REMARK>
 VINA RESULT:      -5.7      0.000      0.000
  Name = 
  15 active torsions:
  status: ('A' for Active; 'I' for Inactive)
    1  A    between atoms: C_7  and  N_29
    2  A    between atoms: C_8  and  C_12
    3  A    between atoms: C_8  and  N_38
    4  A    between atoms: C_9  and  C_17
    5  A    between atoms: C_16  and  N_39
    6  A    between atoms: C_17  and  C_47
    7  A    between atoms: N_22  and  C_28
    8  A    between atoms: O_23  and  C_57
    9  A    between atoms: C_30  and  N_36
   10  A    between atoms: C_30  and  C_47
   11  A    between atoms: N_31  and  C_35
   12  A    between atoms: N_31  and  N_36
   13  A    between atoms: N_38  and  C_50
   14  A    between atoms: C_43  and  C_64
   15  A    between atoms: C_50  and  C_51
                            x       y       z     vdW  Elec       q    Type
                         _______ _______ _______ _____ _____    ______ ____

>  <TORSDO>
F 15

$$$$
=
 OpenBabel10232410233D

 68 79  0  0  1  0  0  0  0  0999 V2000
  188.6560  179.4800  137.9560 S   0  0  0  0  0  0  0  0  0  0  0  0
  187.2680  178.6240  137.0850 C   0  0  1  0  0  3  0  0  0  0  0  0
  189.9670  176.8840  135.8610 C   0  0  0  0  0  0  0  0  0  0  0  0
  191.4530  173.8130  137.9990 C   0  0  0  0  0  1  0  0  0  0  0  0
  189.7240  179.1680  136.4900 C   0  0  0  0  0  2  0  0  0  0  0  0
  190.7240  175.7910  135.9750 C   0  0  0  0  0  0  0  0  0  0  0  0
  191.4250  174.5490  135.3160 N   0  0  0  0  0  0  0  0  0  0  0  0
  187.7950  177.7360  136.0910 N   0  0  0  0  0  2  0  0  0  0  0  0
  190.8640  174.5500  136.6430 C   0  0  1  0  0  0  0  0  0  0  0  0
  189.1990  177.9280  135.8670 C   0  0  0  0  0  0  0  0  0  0  0  0
  192.3350  175.4280  136.2980 C   0  0  1  0  0  0  0  0  0  0  0  0
  192.4670  176.3440  137.6810 C   0  0  0  0  0  1  0  0  0  0  0  0
  193.7690  174.7820  136.1540 C   0  0  2  0  0  3  0  0  0  0  0  0
  193.4730  176.1070  135.5040 C   0  0  0  0  0  2  0  0  0  0  0  0
  195.1230  174.1070  134.3460 C   0  0  0  0  0  2  0  0  0  0  0  0
  195.3150  170.8180  136.5320 N   0  0  0  0  0  0  0  0  0  0  0  0
  195.1270  172.3000  136.4720 C   0  0  2  0  0  3  0  0  0  0  0  0
  198.2510  169.7550  134.7260 C   0  0  0  0  0  2  0  0  0  0  0  0
  195.3750  170.1600  137.7890 C   0  0  0  0  0  0  0  0  0  0  0  0
  193.8690  173.8160  135.0350 N   0  0  1  0  0  0  0  0  0  0  0  0
  195.0410  170.8590  138.9490 O   0  0  0  0  0  1  0  0  0  0  0  0
  197.0720  170.7400  134.7200 C   0  0  2  0  0  3  0  0  0  0  0  0
  198.4090  171.8670  136.4940 N   0  0  0  0  0  2  0  0  0  0  0  0
  194.9870  172.8030  135.0020 C   0  0  2  0  0  0  0  0  0  0  0  0
  199.5870  170.4930  134.7560 C   0  0  0  0  0  2  0  0  0  0  0  0
  195.6030  168.9150  137.8860 O   0  0  0  0  0  0  0  0  0  0  0  0
  197.4670  172.0930  135.3800 C   0  0  2  0  0  3  0  0  0  0  0  0
  199.7060  171.3980  135.9990 C   0  0  0  0  0  2  0  0  0  0  0  0
  195.9030  170.1320  135.4010 C   0  0  0  0  0  0  0  0  0  0  0  0
  196.2720  173.0060  135.8400 C   0  0  2  0  0  3  0  0  0  0  0  0
  195.3580  169.0840  134.9620 O   0  0  0  0  0  0  0  0  0  0  0  0
  188.5080  174.5640  135.5340 C   0  0  1  0  0  3  0  0  0  0  0  0
  188.4760  174.9200  136.9220 O   0  0  0  0  0  0  0  0  0  0  0  0
  189.4090  173.9190  136.5630 C   0  0  2  0  0  3  0  0  0  0  0  0
  186.0370  175.6290  134.3480 O   0  0  0  0  0  0  0  0  0  0  0  0
  187.2370  173.8450  135.2910 N   0  0  0  0  0  2  0  0  0  0  0  0
  186.0720  174.6710  135.1740 C   0  0  0  0  0  0  0  0  0  0  0  0
  184.9180  174.4510  136.1370 C   0  0  0  0  0  2  0  0  0  0  0  0
  184.7440  173.0500  136.4570 N   0  0  0  0  0  2  0  0  0  0  0  0
  183.7370  172.4700  135.5460 C   0  0  1  0  0  3  0  0  0  0  0  0
  183.7610  171.0540  135.5670 O   0  0  0  0  0  1  0  0  0  0  0  0
  182.0500  174.2790  134.8280 C   0  0  0  0  0  2  0  0  0  0  0  0
  182.3540  173.1230  135.8130 C   0  0  2  0  0  3  0  0  0  0  0  0
  181.2550  174.5240  137.6530 C   0  0  0  0  0  2  0  0  0  0  0  0
  181.2430  175.7460  136.7390 C   0  0  2  0  0  3  0  0  0  0  0  0
  182.4180  173.6000  137.2810 C   0  0  0  0  0  2  0  0  0  0  0  0
  180.9680  175.2060  135.3290 C   0  0  0  0  0  2  0  0  0  0  0  0
  182.1700  177.7860  136.6240 C   0  0  0  0  0  1  0  0  0  0  0  0
  182.4570  176.4270  136.8200 O   0  0  0  0  0  0  0  0  0  0  0  0
  186.2240  177.9770  137.9320 C   0  0  0  0  0  0  0  0  0  0  0  0
  186.0420  176.7630  137.8810 O   0  0  0  0  0  0  0  0  0  0  0  0
  185.6730  178.8090  139.0470 C   0  0  0  0  0  2  0  0  0  0  0  0
  186.0230  178.4170  140.4440 C   0  0  0  0  0  0  0  0  0  0  0  0
  185.0840  178.3790  141.3560 C   0  0  0  0  0  2  0  0  0  0  0  0
  187.3590  178.7720  140.8580 N   0  0  0  0  0  2  0  0  0  0  0  0
  187.8990  178.4330  142.1190 N   0  0  0  0  0  2  0  0  0  0  0  0
  189.0470  178.0560  144.9610 C   0  0  0  0  0  2  0  0  0  0  0  0
  188.1160  177.9510  147.2680 C   0  0  0  0  0  1  0  0  0  0  0  0
  188.2260  175.8440  142.8670 S   0  0  0  0  0  0  0  0  0  0  0  0
  188.7870  177.2770  141.9150 C   0  0  2  0  0  3  0  0  0  0  0  0
  190.1120  177.4500  142.6390 C   0  0  1  0  0  0  0  0  0  0  0  0
  190.1730  176.8260  146.7250 O   0  0  0  0  0  0  0  0  0  0  0  0
  191.4970  177.0970  146.2840 C   0  0  0  0  0  2  0  0  0  0  0  0
  191.3840  177.2810  141.8150 C   0  0  0  0  0  1  0  0  0  0  0  0
  190.1960  177.4560  144.1540 C   0  0  1  0  0  0  0  0  0  0  0  0
  191.5670  177.4770  144.7920 C   0  0  0  0  0  2  0  0  0  0  0  0
  189.4000  177.9910  146.4500 C   0  0  1  0  0  3  0  0  0  0  0  0
  189.9200  176.1500  143.4570 C   0  0  1  0  0  3  0  0  0  0  0  0
  2 50  1  1  0  0  0
  2  1  1  0  0  0  0
  3 10  2  0  0  0  0
  3  6  2  0  0  0  0
  5  1  1  0  0  0  0
  6  9  1  0  0  0  0
  7  6  1  0  0  0  0
  7 11  1  0  0  0  0
  7  9  1  0  0  0  0
  8  2  1  0  0  0  0
  9  4  1  1  0  0  0
 10  8  1  0  0  0  0
 10  5  1  0  0  0  0
 11 12  1  1  0  0  0
 13 14  1  6  0  0  0
 13 11  1  0  0  0  0
 14 11  1  0  0  0  0
 16 19  1  0  0  0  0
 17 16  1  6  0  0  0
 18 25  1  0  0  0  0
 19 26  2  0  0  0  0
 19 21  1  0  0  0  0
 20 15  1  6  0  0  0
 20 13  1  0  0  0  0
 22 18  1  1  0  0  0
 22 27  1  0  0  0  0
 22 29  1  0  0  0  0
 24 15  1  6  0  0  0
 24 20  1  0  0  0  0
 24 30  1  0  0  0  0
 24 17  1  0  0  0  0
 25 28  1  0  0  0  0
 27 30  1  0  0  0  0
 27 23  1  1  0  0  0
 28 23  1  0  0  0  0
 29 16  1  0  0  0  0
 30 17  1  0  0  0  0
 31 29  2  0  0  0  0
 32 34  1  0  0  0  0
 32 33  1  0  0  0  0
 34  9  1  0  0  0  0
 34 33  1  0  0  0  0
 35 37  2  0  0  0  0
 36 32  1  0  0  0  0
 37 36  1  0  0  0  0
 37 38  1  0  0  0  0
 38 39  1  0  0  0  0
 40 41  1  0  0  0  0
 40 43  1  0  0  0  0
 40 39  1  0  0  0  0
 42 47  1  0  0  0  0
 42 43  1  0  0  0  0
 43 46  1  0  0  0  0
 45 49  1  0  0  0  0
 45 44  1  0  0  0  0
 46 44  1  0  0  0  0
 47 45  1  0  0  0  0
 48 49  1  0  0  0  0
 50 52  1  0  0  0  0
 51 50  2  0  0  0  0
 52 53  1  0  0  0  0
 53 55  1  0  0  0  0
 53 54  2  0  0  0  0
 55 56  1  0  0  0  0
 57 67  1  0  0  0  0
 59 68  1  0  0  0  0
 60 56  1  0  0  0  0
 60 61  1  0  0  0  0
 60 59  1  0  0  0  0
 61 68  1  0  0  0  0
 61 65  1  0  0  0  0
 63 62  1  0  0  0  0
 64 61  1  0  0  0  0
 65 66  1  0  0  0  0
 65 57  1  0  0  0  0
 66 63  1  0  0  0  0
 67 62  1  0  0  0  0
 67 58  1  0  0  0  0
 68 65  1  0  0  0  0
M  END
>  <MODEL>
2

>  <REMARK>
 VINA RESULT:      -4.5      2.195      3.027
  Name = 
  15 active torsions:
  status: ('A' for Active; 'I' for Inactive)
    1  A    between atoms: C_7  and  N_29
    2  A    between atoms: C_8  and  C_12
    3  A    between atoms: C_8  and  N_38
    4  A    between atoms: C_9  and  C_17
    5  A    between atoms: C_16  and  N_39
    6  A    between atoms: C_17  and  C_47
    7  A    between atoms: N_22  and  C_28
    8  A    between atoms: O_23  and  C_57
    9  A    between atoms: C_30  and  N_36
   10  A    between atoms: C_30  and  C_47
   11  A    between atoms: N_31  and  C_35
   12  A    between atoms: N_31  and  N_36
   13  A    between atoms: N_38  and  C_50
   14  A    between atoms: C_43  and  C_64
   15  A    between atoms: C_50  and  C_51
                            x       y       z     vdW  Elec       q    Type
                         _______ _______ _______ _____ _____    ______ ____

>  <TORSDO>
F 15

$$$$
=
 OpenBabel10232410233D

 68 79  0  0  1  0  0  0  0  0999 V2000
  180.0750  177.2780  140.3630 S   0  0  0  0  0  0  0  0  0  0  0  0
  180.7160  178.6080  139.2490 C   0  0  1  0  0  3  0  0  0  0  0  0
  182.3280  179.3910  142.1810 C   0  0  0  0  0  0  0  0  0  0  0  0
  185.7740  177.5130  143.0860 C   0  0  0  0  0  1  0  0  0  0  0  0
  180.1760  178.4570  141.7720 C   0  0  0  0  0  2  0  0  0  0  0  0
  183.4530  179.2810  142.8900 C   0  0  0  0  0  0  0  0  0  0  0  0
  184.5930  179.9460  143.7430 N   0  0  0  0  0  0  0  0  0  0  0  0
  181.4420  179.5750  140.0190 N   0  0  0  0  0  2  0  0  0  0  0  0
  184.7940  178.8250  142.8600 C   0  0  1  0  0  0  0  0  0  0  0  0
  181.2700  179.3980  141.4310 C   0  0  0  0  0  0  0  0  0  0  0  0
  183.9290  178.6270  144.3660 C   0  0  1  0  0  0  0  0  0  0  0  0
  182.9680  177.2840  144.1650 C   0  0  0  0  0  1  0  0  0  0  0  0
  184.9730  178.1650  145.4560 C   0  0  2  0  0  3  0  0  0  0  0  0
  183.6850  178.8180  145.8790 C   0  0  0  0  0  2  0  0  0  0  0  0
  186.5160  178.9080  147.0770 C   0  0  0  0  0  2  0  0  0  0  0  0
  189.0600  177.7500  144.2820 N   0  0  0  0  0  0  0  0  0  0  0  0
  187.7140  177.6100  144.9180 C   0  0  2  0  0  3  0  0  0  0  0  0
  191.7220  177.6320  146.7120 C   0  0  0  0  0  2  0  0  0  0  0  0
  189.4480  176.8660  143.2400 C   0  0  0  0  0  0  0  0  0  0  0  0
  186.0260  179.1730  145.7270 N   0  0  1  0  0  0  0  0  0  0  0  0
  188.5000  176.0180  142.6670 O   0  0  0  0  0  0  0  0  0  0  0  0
  190.2950  178.1380  146.4500 C   0  0  2  0  0  3  0  0  0  0  0  0
  189.7190  175.7350  146.7670 N   0  0  0  0  0  2  0  0  0  0  0  0
  187.4520  178.7390  145.9620 C   0  0  2  0  0  0  0  0  0  0  0  0
  191.7560  176.6690  147.8960 C   0  0  0  0  0  2  0  0  0  0  0  0
  190.6060  176.9050  142.7220 O   0  0  0  0  0  1  0  0  0  0  0  0
  189.2350  177.1180  146.9560 C   0  0  2  0  0  3  0  0  0  0  0  0
  190.8460  175.4480  147.6590 C   0  0  0  0  0  2  0  0  0  0  0  0
  190.1190  178.4210  145.0040 C   0  0  0  0  0  0  0  0  0  0  0  0
  187.7860  177.2830  146.3660 C   0  0  2  0  0  3  0  0  0  0  0  0
  190.8090  179.2970  144.4170 O   0  0  0  0  0  0  0  0  0  0  0  0
  185.9600  178.3220  140.5870 C   0  0  1  0  0  3  0  0  0  0  0  0
  186.7430  179.1620  141.4450 O   0  0  0  0  0  0  0  0  0  0  0  0
  185.3450  179.3800  141.4780 C   0  0  2  0  0  3  0  0  0  0  0  0
  184.8740  177.2850  138.0590 O   0  0  0  0  0  0  0  0  0  0  0  0
  186.2690  178.7790  139.2130 N   0  0  0  0  0  2  0  0  0  0  0  0
  186.0110  177.8290  138.1720 C   0  0  0  0  0  0  0  0  0  0  0  0
  187.1560  177.3960  137.2740 C   0  0  0  0  0  2  0  0  0  0  0  0
  188.1820  176.6900  138.0140 N   0  0  0  0  0  2  0  0  0  0  0  0
  189.3240  177.5990  138.2380 C   0  0  1  0  0  3  0  0  0  0  0  0
  189.4860  177.9120  139.6100 O   0  0  0  0  0  1  0  0  0  0  0  0
  190.2540  176.4480  136.1300 C   0  0  0  0  0  2  0  0  0  0  0  0
  190.5840  177.0410  137.5220 C   0  0  2  0  0  3  0  0  0  0  0  0
  192.2390  175.1150  137.8490 C   0  0  0  0  0  2  0  0  0  0  0  0
  191.6790  174.4020  136.6210 C   0  0  2  0  0  3  0  0  0  0  0  0
  191.1550  175.9840  138.4930 C   0  0  0  0  0  2  0  0  0  0  0  0
  191.3260  175.5140  135.6220 C   0  0  0  0  0  2  0  0  0  0  0  0
  190.2220  172.8910  135.8290 C   0  0  0  0  0  1  0  0  0  0  0  0
  190.5710  173.6300  136.9690 O   0  0  0  0  0  0  0  0  0  0  0  0
  181.4550  178.1800  138.0270 C   0  0  0  0  0  0  0  0  0  0  0  0
  182.4600  178.7840  137.6600 O   0  0  0  0  0  0  0  0  0  0  0  0
  181.1150  176.8230  137.4940 C   0  0  0  0  0  2  0  0  0  0  0  0
  181.6140  176.4670  136.1330 C   0  0  0  0  0  0  0  0  0  0  0  0
  180.9570  176.8800  135.0780 C   0  0  0  0  0  2  0  0  0  0  0  0
  182.3060  175.2030  136.0530 N   0  0  0  0  0  2  0  0  0  0  0  0
  183.3730  174.8440  136.9070 N   0  0  0  0  0  2  0  0  0  0  0  0
  182.1710  172.1180  136.0910 C   0  0  0  0  0  2  0  0  0  0  0  0
  179.9820  171.3170  135.2160 C   0  0  0  0  0  1  0  0  0  0  0  0
  183.8920  174.1050  134.3460 S   0  0  0  0  0  0  0  0  0  0  0  0
  184.4460  174.3030  136.0580 C   0  0  2  0  0  3  0  0  0  0  0  0
  184.6880  172.8270  136.3260 C   0  0  1  0  0  0  0  0  0  0  0  0
  182.0090  170.1120  134.7330 O   0  0  0  0  0  0  0  0  0  0  0  0
  183.0510  169.3980  135.3840 C   0  0  0  0  0  2  0  0  0  0  0  0
  186.1170  172.4010  136.6460 C   0  0  0  0  0  1  0  0  0  0  0  0
  183.6540  171.7740  135.9730 C   0  0  1  0  0  0  0  0  0  0  0  0
  184.0360  170.3190  136.1300 C   0  0  0  0  0  2  0  0  0  0  0  0
  181.3450  170.8790  135.7340 C   0  0  1  0  0  3  0  0  0  0  0  0
  184.4120  172.4370  134.8540 C   0  0  1  0  0  3  0  0  0  0  0  0
  1  5  1  0  0  0  0
  2 50  1  6  0  0  0
  2  8  1  0  0  0  0
  2  1  1  0  0  0  0
  3  6  2  0  0  0  0
  6  7  1  0  0  0  0
  7 11  1  0  0  0  0
  8 10  1  0  0  0  0
  9  6  1  0  0  0  0
  9  4  1  1  0  0  0
  9  7  1  0  0  0  0
 10  5  1  0  0  0  0
 10  3  2  0  0  0  0
 11 12  1  6  0  0  0
 11 13  1  0  0  0  0
 11 14  1  0  0  0  0
 13 20  1  0  0  0  0
 13 14  1  1  0  0  0
 16 29  1  0  0  0  0
 17 16  1  1  0  0  0
 17 24  1  0  0  0  0
 17 30  1  0  0  0  0
 18 25  1  0  0  0  0
 19 16  1  0  0  0  0
 20 24  1  0  0  0  0
 20 15  1  1  0  0  0
 21 19  2  0  0  0  0
 22 18  1  6  0  0  0
 22 27  1  0  0  0  0
 23 28  1  0  0  0  0
 24 30  1  0  0  0  0
 24 15  1  1  0  0  0
 26 19  1  0  0  0  0
 27 23  1  6  0  0  0
 28 25  1  0  0  0  0
 29 22  1  0  0  0  0
 30 27  1  0  0  0  0
 31 29  2  0  0  0  0
 32 33  1  0  0  0  0
 32 34  1  0  0  0  0
 33 34  1  0  0  0  0
 34  9  1  0  0  0  0
 35 37  2  0  0  0  0
 36 32  1  0  0  0  0
 37 36  1  0  0  0  0
 38 39  1  0  0  0  0
 38 37  1  0  0  0  0
 39 40  1  0  0  0  0
 40 41  1  0  0  0  0
 42 43  1  0  0  0  0
 43 40  1  0  0  0  0
 43 46  1  0  0  0  0
 44 46  1  0  0  0  0
 45 49  1  0  0  0  0
 45 44  1  0  0  0  0
 47 42  1  0  0  0  0
 47 45  1  0  0  0  0
 48 49  1  0  0  0  0
 51 50  2  0  0  0  0
 52 50  1  0  0  0  0
 53 52  1  0  0  0  0
 54 53  2  0  0  0  0
 55 53  1  0  0  0  0
 55 56  1  0  0  0  0
 58 67  1  0  0  0  0
 59 68  1  0  0  0  0
 59 60  1  0  0  0  0
 60 61  1  0  0  0  0
 60 56  1  0  0  0  0
 61 64  1  0  0  0  0
 62 63  1  0  0  0  0
 62 67  1  0  0  0  0
 63 66  1  0  0  0  0
 65 57  1  0  0  0  0
 65 66  1  0  0  0  0
 65 61  1  0  0  0  0
 67 57  1  0  0  0  0
 68 65  1  0  0  0  0
 68 61  1  0  0  0  0
M  END
>  <MODEL>
3

>  <REMARK>
 VINA RESULT:      -4.5      3.725     10.029
  Name = 
  15 active torsions:
  status: ('A' for Active; 'I' for Inactive)
    1  A    between atoms: C_7  and  N_29
    2  A    between atoms: C_8  and  C_12
    3  A    between atoms: C_8  and  N_38
    4  A    between atoms: C_9  and  C_17
    5  A    between atoms: C_16  and  N_39
    6  A    between atoms: C_17  and  C_47
    7  A    between atoms: N_22  and  C_28
    8  A    between atoms: O_23  and  C_57
    9  A    between atoms: C_30  and  N_36
   10  A    between atoms: C_30  and  C_47
   11  A    between atoms: N_31  and  C_35
   12  A    between atoms: N_31  and  N_36
   13  A    between atoms: N_38  and  C_50
   14  A    between atoms: C_43  and  C_64
   15  A    between atoms: C_50  and  C_51
                            x       y       z     vdW  Elec       q    Type
                         _______ _______ _______ _____ _____    ______ ____

>  <TORSDO>
F 15

$$$$
=
 OpenBabel10232410233D

 68 79  0  0  1  0  0  0  0  0999 V2000
  189.2660  179.3490  141.3700 S   0  0  0  0  0  0  0  0  0  0  0  0
  189.9370  177.7270  141.9500 C   0  0  1  0  0  3  0  0  0  0  0  0
  188.2300  176.7470  139.1330 C   0  0  0  0  0  0  0  0  0  0  0  0
  190.0460  177.0140  135.5490 C   0  0  0  0  0  1  0  0  0  0  0  0
  187.7880  178.4660  140.7200 C   0  0  0  0  0  2  0  0  0  0  0  0
  188.3140  176.4490  137.8350 C   0  0  0  0  0  0  0  0  0  0  0  0
  187.9970  175.4800  136.6400 N   0  0  0  0  0  0  0  0  0  0  0  0
  189.3530  176.6620  141.1890 N   0  0  0  0  0  2  0  0  0  0  0  0
  189.2060  176.2540  136.7520 C   0  0  1  0  0  0  0  0  0  0  0  0
  188.2530  177.1000  140.3800 C   0  0  0  0  0  0  0  0  0  0  0  0
  187.6840  177.0320  136.3870 C   0  0  1  0  0  0  0  0  0  0  0  0
  188.2400  178.5560  136.0190 C   0  0  0  0  0  1  0  0  0  0  0  0
  186.2250  177.0240  135.7840 C   0  0  2  0  0  3  0  0  0  0  0  0
  186.4490  177.4660  137.2060 C   0  0  0  0  0  2  0  0  0  0  0  0
  185.3370  175.4640  137.3140 C   0  0  0  0  0  2  0  0  0  0  0  0
  182.0080  176.4450  135.4210 N   0  0  0  0  0  0  0  0  0  0  0  0
  183.3850  176.8270  135.8590 C   0  0  2  0  0  3  0  0  0  0  0  0
  180.0390  175.1310  138.1420 C   0  0  0  0  0  2  0  0  0  0  0  0
  181.1800  177.3980  134.7690 C   0  0  0  0  0  0  0  0  0  0  0  0
  185.5520  175.7080  135.8900 N   0  0  1  0  0  0  0  0  0  0  0  0
  181.7260  178.6100  134.3470 O   0  0  0  0  0  0  0  0  0  0  0  0
  181.4470  175.1700  137.5270 C   0  0  2  0  0  3  0  0  0  0  0  0
  181.4590  177.4740  138.4720 N   0  0  0  0  0  2  0  0  0  0  0  0
  184.1570  175.6100  136.4570 C   0  0  2  0  0  0  0  0  0  0  0  0
  180.0400  175.7110  139.5550 C   0  0  0  0  0  2  0  0  0  0  0  0
  179.9820  177.1360  134.4440 O   0  0  0  0  0  1  0  0  0  0  0  0
  182.3040  176.3050  138.1550 C   0  0  2  0  0  3  0  0  0  0  0  0
  180.5340  177.1710  139.5680 C   0  0  0  0  0  2  0  0  0  0  0  0
  181.3480  175.3240  136.0550 C   0  0  0  0  0  0  0  0  0  0  0  0
  183.5710  176.7440  137.3320 C   0  0  2  0  0  3  0  0  0  0  0  0
  180.7830  174.4540  135.3390 O   0  0  0  0  0  0  0  0  0  0  0  0
  191.5410  175.1370  136.4690 C   0  0  1  0  0  3  0  0  0  0  0  0
  190.4680  174.1880  136.5230 O   0  0  0  0  0  0  0  0  0  0  0  0
  190.3340  175.3190  137.3630 C   0  0  2  0  0  3  0  0  0  0  0  0
  193.7070  176.3630  138.0350 O   0  0  0  0  0  0  0  0  0  0  0  0
  192.6890  174.4590  137.1130 N   0  0  0  0  0  2  0  0  0  0  0  0
  193.8270  175.2880  137.3780 C   0  0  0  0  0  0  0  0  0  0  0  0
  195.1650  174.9160  136.7620 C   0  0  0  0  0  2  0  0  0  0  0  0
  195.0160  173.9370  135.7060 N   0  0  0  0  0  2  0  0  0  0  0  0
  196.0290  172.8770  135.8870 C   0  0  1  0  0  3  0  0  0  0  0  0
  196.6870  172.9860  137.1370 O   0  0  0  0  0  1  0  0  0  0  0  0
  194.2300  171.1520  136.5350 C   0  0  0  0  0  2  0  0  0  0  0  0
  195.3990  171.4930  135.5770 C   0  0  2  0  0  3  0  0  0  0  0  0
  196.0980  169.0330  135.7020 C   0  0  0  0  0  2  0  0  0  0  0  0
  195.1330  168.8000  136.8620 C   0  0  2  0  0  3  0  0  0  0  0  0
  196.5680  170.4900  135.6930 C   0  0  0  0  0  2  0  0  0  0  0  0
  193.9090  169.6770  136.5650 C   0  0  0  0  0  2  0  0  0  0  0  0
  197.0280  168.5720  138.0420 C   0  0  0  0  0  1  0  0  0  0  0  0
  195.7410  169.1290  138.0730 O   0  0  0  0  0  0  0  0  0  0  0  0
  191.4180  177.6000  142.0650 C   0  0  0  0  0  0  0  0  0  0  0  0
  192.1330  177.6950  141.0710 O   0  0  0  0  0  0  0  0  0  0  0  0
  191.9810  177.6910  143.4490 C   0  0  0  0  0  2  0  0  0  0  0  0
  191.7010  176.5650  144.3880 C   0  0  0  0  0  0  0  0  0  0  0  0
  191.8060  175.3310  143.9620 C   0  0  0  0  0  2  0  0  0  0  0  0
  190.7190  176.8530  145.4050 N   0  0  0  0  0  2  0  0  0  0  0  0
  190.8970  177.8390  146.4020 N   0  0  0  0  0  2  0  0  0  0  0  0
  187.9190  177.9220  145.5850 C   0  0  0  0  0  2  0  0  0  0  0  0
  186.5810  177.1820  143.6210 C   0  0  0  0  0  1  0  0  0  0  0  0
  189.4150  175.7620  147.3320 S   0  0  0  0  0  0  0  0  0  0  0  0
  190.2520  177.3390  147.6270 C   0  0  2  0  0  3  0  0  0  0  0  0
  189.0010  178.1300  147.9680 C   0  0  1  0  0  0  0  0  0  0  0  0
  185.5710  177.3460  145.7990 O   0  0  0  0  0  0  0  0  0  0  0  0
  185.2660  178.3030  146.8060 C   0  0  0  0  0  2  0  0  0  0  0  0
  188.9060  178.7140  149.3750 C   0  0  0  0  0  1  0  0  0  0  0  0
  187.7600  178.0730  147.0960 C   0  0  1  0  0  0  0  0  0  0  0  0
  186.5100  178.7670  147.5890 C   0  0  0  0  0  2  0  0  0  0  0  0
  186.5320  177.9480  144.9360 C   0  0  1  0  0  3  0  0  0  0  0  0
  188.1040  176.8700  147.9330 C   0  0  1  0  0  3  0  0  0  0  0  0
  1  2  1  0  0  0  0
  2 50  1  6  0  0  0
  3 10  2  0  0  0  0
  5  1  1  0  0  0  0
  6  3  2  0  0  0  0
  7  9  1  0  0  0  0
  7  6  1  0  0  0  0
  8  2  1  0  0  0  0
  9  4  1  6  0  0  0
  9 34  1  0  0  0  0
  9  6  1  0  0  0  0
 10  5  1  0  0  0  0
 10  8  1  0  0  0  0
 11 12  1  6  0  0  0
 11  7  1  0  0  0  0
 11 14  1  0  0  0  0
 13 20  1  0  0  0  0
 13 11  1  0  0  0  0
 13 14  1  1  0  0  0
 16 29  1  0  0  0  0
 17 16  1  1  0  0  0
 17 24  1  0  0  0  0
 17 30  1  0  0  0  0
 18 25  1  0  0  0  0
 19 16  1  0  0  0  0
 20 24  1  0  0  0  0
 20 15  1  1  0  0  0
 21 19  2  0  0  0  0
 22 18  1  1  0  0  0
 22 27  1  0  0  0  0
 23 28  1  0  0  0  0
 24 15  1  1  0  0  0
 24 30  1  0  0  0  0
 25 28  1  0  0  0  0
 26 19  1  0  0  0  0
 27 23  1  6  0  0  0
 29 22  1  0  0  0  0
 30 27  1  0  0  0  0
 31 29  2  0  0  0  0
 32 33  1  0  0  0  0
 32 36  1  0  0  0  0
 32 34  1  0  0  0  0
 33 34  1  0  0  0  0
 36 37  1  0  0  0  0
 37 35  2  0  0  0  0
 38 37  1  0  0  0  0
 39 40  1  0  0  0  0
 39 38  1  0  0  0  0
 40 41  1  0  0  0  0
 42 47  1  0  0  0  0
 43 46  1  0  0  0  0
 43 40  1  0  0  0  0
 43 42  1  0  0  0  0
 44 45  1  0  0  0  0
 45 49  1  0  0  0  0
 46 44  1  0  0  0  0
 47 45  1  0  0  0  0
 48 49  1  0  0  0  0
 50 52  1  0  0  0  0
 51 50  2  0  0  0  0
 52 53  1  0  0  0  0
 53 55  1  0  0  0  0
 54 53  2  0  0  0  0
 55 56  1  0  0  0  0
 56 60  1  0  0  0  0
 57 65  1  0  0  0  0
 58 67  1  0  0  0  0
 59 60  1  0  0  0  0
 59 68  1  0  0  0  0
 60 61  1  0  0  0  0
 61 64  1  0  0  0  0
 62 63  1  0  0  0  0
 63 66  1  0  0  0  0
 65 66  1  0  0  0  0
 65 68  1  0  0  0  0
 65 61  1  0  0  0  0
 67 57  1  0  0  0  0
 67 62  1  0  0  0  0
 68 61  1  0  0  0  0
M  END
>  <MODEL>
4

>  <REMARK>
 VINA RESULT:      -4.1      2.851     10.395
  Name = 
  15 active torsions:
  status: ('A' for Active; 'I' for Inactive)
    1  A    between atoms: C_7  and  N_29
    2  A    between atoms: C_8  and  C_12
    3  A    between atoms: C_8  and  N_38
    4  A    between atoms: C_9  and  C_17
    5  A    between atoms: C_16  and  N_39
    6  A    between atoms: C_17  and  C_47
    7  A    between atoms: N_22  and  C_28
    8  A    between atoms: O_23  and  C_57
    9  A    between atoms: C_30  and  N_36
   10  A    between atoms: C_30  and  C_47
   11  A    between atoms: N_31  and  C_35
   12  A    between atoms: N_31  and  N_36
   13  A    between atoms: N_38  and  C_50
   14  A    between atoms: C_43  and  C_64
   15  A    between atoms: C_50  and  C_51
                            x       y       z     vdW  Elec       q    Type
                         _______ _______ _______ _____ _____    ______ ____

>  <TORSDO>
F 15

$$$$
=
 OpenBabel10232410233D

 68 79  0  0  1  0  0  0  0  0999 V2000
  179.9820  177.2560  140.3470 S   0  0  0  0  0  0  0  0  0  0  0  0
  180.6000  178.5690  139.2000 C   0  0  1  0  0  3  0  0  0  0  0  0
  182.3320  179.3490  142.0640 C   0  0  0  0  0  0  0  0  0  0  0  0
  185.7810  177.4260  142.8540 C   0  0  0  0  0  1  0  0  0  0  0  0
  180.1530  178.4440  141.7430 C   0  0  0  0  0  2  0  0  0  0  0  0
  183.4810  179.2270  142.7310 C   0  0  0  0  0  0  0  0  0  0  0  0
  184.6610  179.8810  143.5360 N   0  0  0  0  0  0  0  0  0  0  0  0
  181.3680  179.5300  139.9350 N   0  0  0  0  0  2  0  0  0  0  0  0
  184.8130  178.7510  142.6550 C   0  0  1  0  0  0  0  0  0  0  0  0
  181.2470  179.3660  141.3540 C   0  0  0  0  0  0  0  0  0  0  0  0
  184.0020  178.5770  144.1930 C   0  0  1  0  0  0  0  0  0  0  0  0
  183.0360  177.2330  144.0310 C   0  0  0  0  0  1  0  0  0  0  0  0
  185.0590  178.1330  145.2780 C   0  0  2  0  0  3  0  0  0  0  0  0
  183.7790  178.7980  145.7060 C   0  0  0  0  0  2  0  0  0  0  0  0
  186.6010  178.9250  146.8770 C   0  0  0  0  0  2  0  0  0  0  0  0
  189.1470  177.6450  144.1370 N   0  0  0  0  0  0  0  0  0  0  0  0
  187.7980  177.5390  144.7720 C   0  0  2  0  0  3  0  0  0  0  0  0
  191.7990  177.6000  146.5810 C   0  0  0  0  0  2  0  0  0  0  0  0
  189.5330  176.7200  143.1310 C   0  0  0  0  0  0  0  0  0  0  0  0
  186.1180  179.1420  145.5160 N   0  0  1  0  0  0  0  0  0  0  0  0
  188.5810  175.8580  142.5860 O   0  0  0  0  0  0  0  0  0  0  0  0
  190.3770  178.1060  146.2940 C   0  0  2  0  0  3  0  0  0  0  0  0
  189.7830  175.7210  146.6990 N   0  0  0  0  0  2  0  0  0  0  0  0
  187.5400  178.7080  145.7730 C   0  0  2  0  0  0  0  0  0  0  0  0
  191.8220  176.6820  147.8010 C   0  0  0  0  0  2  0  0  0  0  0  0
  190.6930  176.7320  142.6170 O   0  0  0  0  0  1  0  0  0  0  0  0
  189.3080  177.1130  146.8340 C   0  0  2  0  0  3  0  0  0  0  0  0
  190.9040  175.4590  147.6060 C   0  0  0  0  0  2  0  0  0  0  0  0
  190.2080  178.3350  144.8390 C   0  0  0  0  0  0  0  0  0  0  0  0
  187.8630  177.2660  146.2320 C   0  0  2  0  0  3  0  0  0  0  0  0
  190.9070  179.1840  144.2220 O   0  0  0  0  0  0  0  0  0  0  0  0
  186.4030  178.4400  140.6160 C   0  0  1  0  0  3  0  0  0  0  0  0
  186.6890  179.6220  141.3750 O   0  0  0  0  0  0  0  0  0  0  0  0
  185.3200  179.2870  141.2490 C   0  0  2  0  0  3  0  0  0  0  0  0
  184.8510  177.8040  138.2010 O   0  0  0  0  0  0  0  0  0  0  0  0
  186.7220  178.7950  139.2150 N   0  0  0  0  0  2  0  0  0  0  0  0
  186.1050  177.9770  138.2140 C   0  0  0  0  0  0  0  0  0  0  0  0
  186.9880  177.2260  137.2330 C   0  0  0  0  0  2  0  0  0  0  0  0
  188.0130  176.4610  137.9110 N   0  0  0  0  0  2  0  0  0  0  0  0
  188.9770  175.9560  136.9110 C   0  0  1  0  0  3  0  0  0  0  0  0
  189.0490  176.8010  135.7770 O   0  0  0  0  0  1  0  0  0  0  0  0
  191.2100  176.9030  137.7740 C   0  0  0  0  0  2  0  0  0  0  0  0
  190.3300  175.6400  137.6030 C   0  0  2  0  0  3  0  0  0  0  0  0
  192.4650  174.3370  137.0590 C   0  0  0  0  0  2  0  0  0  0  0  0
  193.2520  175.6390  136.9410 C   0  0  2  0  0  3  0  0  0  0  0  0
  190.9950  174.5750  136.7040 C   0  0  0  0  0  2  0  0  0  0  0  0
  192.6660  176.5750  138.0090 C   0  0  0  0  0  2  0  0  0  0  0  0
  194.4260  176.1740  135.1060 C   0  0  0  0  0  1  0  0  0  0  0  0
  193.1350  176.1630  135.6540 O   0  0  0  0  0  0  0  0  0  0  0  0
  181.2860  178.1210  137.9550 C   0  0  0  0  0  0  0  0  0  0  0  0
  181.9000  178.9230  137.2560 O   0  0  0  0  0  0  0  0  0  0  0  0
  181.4650  176.6430  137.7970 C   0  0  0  0  0  2  0  0  0  0  0  0
  182.3430  176.1650  136.6890 C   0  0  0  0  0  0  0  0  0  0  0  0
  182.1890  176.6590  135.4860 C   0  0  0  0  0  2  0  0  0  0  0  0
  182.7820  174.7950  136.8110 N   0  0  0  0  0  2  0  0  0  0  0  0
  182.5530  173.8140  135.8210 N   0  0  0  0  0  2  0  0  0  0  0  0
  185.2170  172.4990  134.9790 C   0  0  0  0  0  2  0  0  0  0  0  0
  187.6080  173.1890  134.9020 C   0  0  0  0  0  1  0  0  0  0  0  0
  183.7480  172.3460  137.7670 S   0  0  0  0  0  0  0  0  0  0  0  0
  182.4580  172.5160  136.5080 C   0  0  2  0  0  3  0  0  0  0  0  0
  182.9350  171.3750  135.6260 C   0  0  1  0  0  0  0  0  0  0  0  0
  187.0100  170.8720  135.1540 O   0  0  0  0  0  0  0  0  0  0  0  0
  186.3380  169.8230  134.4690 C   0  0  0  0  0  2  0  0  0  0  0  0
  181.9860  170.1940  135.4400 C   0  0  0  0  0  1  0  0  0  0  0  0
  184.3900  171.2380  135.2180 C   0  0  1  0  0  0  0  0  0  0  0  0
  184.8060  169.9910  134.4690 C   0  0  0  0  0  2  0  0  0  0  0  0
  186.6220  172.0910  134.5260 C   0  0  1  0  0  3  0  0  0  0  0  0
  184.0150  170.9380  136.6450 C   0  0  1  0  0  3  0  0  0  0  0  0
  1  5  1  0  0  0  0
  2 50  1  6  0  0  0
  2  8  1  0  0  0  0
  2  1  1  0  0  0  0
  3  6  2  0  0  0  0
  6  7  1  0  0  0  0
  7 11  1  0  0  0  0
  8 10  1  0  0  0  0
  9  6  1  0  0  0  0
  9  4  1  1  0  0  0
  9  7  1  0  0  0  0
 10  5  1  0  0  0  0
 10  3  2  0  0  0  0
 11 12  1  6  0  0  0
 11 13  1  0  0  0  0
 11 14  1  0  0  0  0
 13 20  1  0  0  0  0
 13 14  1  1  0  0  0
 16 29  1  0  0  0  0
 17 16  1  6  0  0  0
 17 24  1  0  0  0  0
 17 30  1  0  0  0  0
 18 25  1  0  0  0  0
 19 16  1  0  0  0  0
 20 24  1  0  0  0  0
 20 15  1  1  0  0  0
 21 19  2  0  0  0  0
 22 18  1  6  0  0  0
 22 27  1  0  0  0  0
 23 28  1  0  0  0  0
 24 30  1  0  0  0  0
 24 15  1  1  0  0  0
 26 19  1  0  0  0  0
 27 23  1  6  0  0  0
 28 25  1  0  0  0  0
 29 22  1  0  0  0  0
 30 27  1  0  0  0  0
 31 29  2  0  0  0  0
 32 34  1  0  0  0  0
 32 33  1  0  0  0  0
 34 33  1  0  0  0  0
 34  9  1  0  0  0  0
 35 37  2  0  0  0  0
 36 32  1  0  0  0  0
 37 36  1  0  0  0  0
 38 39  1  0  0  0  0
 38 37  1  0  0  0  0
 40 43  1  0  0  0  0
 40 39  1  0  0  0  0
 41 40  1  0  0  0  0
 42 47  1  0  0  0  0
 43 42  1  0  0  0  0
 45 44  1  0  0  0  0
 45 47  1  0  0  0  0
 46 44  1  0  0  0  0
 46 43  1  0  0  0  0
 48 49  1  0  0  0  0
 49 45  1  0  0  0  0
 51 50  2  0  0  0  0
 52 50  1  0  0  0  0
 53 55  1  0  0  0  0
 53 52  1  0  0  0  0
 54 53  2  0  0  0  0
 56 60  1  0  0  0  0
 56 55  1  0  0  0  0
 57 65  1  0  0  0  0
 60 59  1  0  0  0  0
 61 60  1  0  0  0  0
 61 68  1  0  0  0  0
 63 62  1  0  0  0  0
 64 61  1  0  0  0  0
 65 61  1  0  0  0  0
 65 68  1  0  0  0  0
 66 63  1  0  0  0  0
 66 65  1  0  0  0  0
 67 58  1  0  0  0  0
 67 57  1  0  0  0  0
 67 62  1  0  0  0  0
 68 59  1  0  0  0  0
M  END
>  <MODEL>
5

>  <REMARK>
 VINA RESULT:      -3.7      3.418     10.030
  Name = 
  15 active torsions:
  status: ('A' for Active; 'I' for Inactive)
    1  A    between atoms: C_7  and  N_29
    2  A    between atoms: C_8  and  C_12
    3  A    between atoms: C_8  and  N_38
    4  A    between atoms: C_9  and  C_17
    5  A    between atoms: C_16  and  N_39
    6  A    between atoms: C_17  and  C_47
    7  A    between atoms: N_22  and  C_28
    8  A    between atoms: O_23  and  C_57
    9  A    between atoms: C_30  and  N_36
   10  A    between atoms: C_30  and  C_47
   11  A    between atoms: N_31  and  C_35
   12  A    between atoms: N_31  and  N_36
   13  A    between atoms: N_38  and  C_50
   14  A    between atoms: C_43  and  C_64
   15  A    between atoms: C_50  and  C_51
                            x       y       z     vdW  Elec       q    Type
                         _______ _______ _______ _____ _____    ______ ____

>  <TORSDO>
F 15

$$$$
=
 OpenBabel10232410233D

 68 79  0  0  1  0  0  0  0  0999 V2000
  189.3200  178.6610  146.5280 S   0  0  0  0  0  0  0  0  0  0  0  0
  190.0920  177.3130  145.5230 C   0  0  1  0  0  3  0  0  0  0  0  0
  186.8830  177.2780  144.2920 C   0  0  0  0  0  0  0  0  0  0  0  0
  185.8800  179.8520  141.3610 C   0  0  0  0  0  1  0  0  0  0  0  0
  187.7260  177.7430  146.4700 C   0  0  0  0  0  2  0  0  0  0  0  0
  186.0650  177.6910  143.3230 C   0  0  0  0  0  0  0  0  0  0  0  0
  184.9680  177.3750  142.2430 N   0  0  0  0  0  0  0  0  0  0  0  0
  189.0770  176.6180  144.7880 N   0  0  0  0  0  2  0  0  0  0  0  0
  185.9990  178.3680  142.0800 C   0  0  1  0  0  0  0  0  0  0  0  0
  187.7520  176.9710  145.2050 C   0  0  0  0  0  0  0  0  0  0  0  0
  184.6760  178.6330  143.1910 C   0  0  1  0  0  0  0  0  0  0  0  0
  185.2260  180.0200  143.9290 C   0  0  0  0  0  1  0  0  0  0  0  0
  183.1460  178.9360  142.9470 C   0  0  2  0  0  3  0  0  0  0  0  0
  183.5870  178.2780  144.2270 C   0  0  0  0  0  2  0  0  0  0  0  0
  181.1440  178.4110  141.8180 C   0  0  0  0  0  2  0  0  0  0  0  0
  183.6440  178.2600  138.7580 N   0  0  0  0  0  0  0  0  0  0  0  0
  183.3110  178.8130  140.1070 C   0  0  2  0  0  3  0  0  0  0  0  0
  180.8870  178.5710  136.4530 C   0  0  0  0  0  2  0  0  0  0  0  0
  184.7870  178.7310  138.0600 C   0  0  0  0  0  0  0  0  0  0  0  0
  182.4500  177.8720  142.1860 N   0  0  1  0  0  0  0  0  0  0  0  0
  185.7120  179.5410  138.7190 O   0  0  0  0  0  1  0  0  0  0  0  0
  181.2640  178.2780  137.9140 C   0  0  2  0  0  3  0  0  0  0  0  0
  181.6620  180.7360  137.9770 N   0  0  0  0  0  2  0  0  0  0  0  0
  182.0820  178.0880  140.7380 C   0  0  2  0  0  0  0  0  0  0  0  0
  179.9930  179.8050  136.3510 C   0  0  0  0  0  2  0  0  0  0  0  0
  185.0650  178.3400  136.8850 O   0  0  0  0  0  0  0  0  0  0  0  0
  181.2240  179.5730  138.7750 C   0  0  2  0  0  3  0  0  0  0  0  0
  180.6850  181.0540  136.9320 C   0  0  0  0  0  2  0  0  0  0  0  0
  182.6010  177.6390  137.9710 C   0  0  0  0  0  0  0  0  0  0  0  0
  182.0010  179.5140  140.1410 C   0  0  2  0  0  3  0  0  0  0  0  0
  182.8200  176.5230  137.4250 O   0  0  0  0  0  0  0  0  0  0  0  0
  187.8060  178.6520  140.2270 C   0  0  1  0  0  3  0  0  0  0  0  0
  186.7910  177.7020  139.8790 O   0  0  0  0  0  0  0  0  0  0  0  0
  187.1790  177.7190  141.2400 C   0  0  2  0  0  3  0  0  0  0  0  0
  188.8150  179.2000  137.5190 O   0  0  0  0  0  0  0  0  0  0  0  0
  189.0450  178.1390  139.6010 N   0  0  0  0  0  2  0  0  0  0  0  0
  189.0620  178.1420  138.1680 C   0  0  0  0  0  0  0  0  0  0  0  0
  189.2700  176.8290  137.4340 C   0  0  0  0  0  2  0  0  0  0  0  0
  188.0170  176.1410  137.2000 N   0  0  0  0  0  2  0  0  0  0  0  0
  187.6120  176.3470  135.7940 C   0  0  1  0  0  3  0  0  0  0  0  0
  188.6540  176.9190  135.0250 O   0  0  0  0  0  1  0  0  0  0  0  0
  185.4610  174.9870  135.4000 C   0  0  0  0  0  2  0  0  0  0  0  0
  187.0000  175.0370  135.2300 C   0  0  2  0  0  3  0  0  0  0  0  0
  187.0510  172.5390  135.7890 C   0  0  0  0  0  2  0  0  0  0  0  0
  185.5930  172.5910  136.2370 C   0  0  2  0  0  3  0  0  0  0  0  0
  187.7150  173.9030  135.9970 C   0  0  0  0  0  2  0  0  0  0  0  0
  184.9050  173.5870  135.2910 C   0  0  0  0  0  2  0  0  0  0  0  0
  184.2350  173.5490  137.7450 C   0  0  0  0  0  1  0  0  0  0  0  0
  185.5070  172.9820  137.5730 O   0  0  0  0  0  0  0  0  0  0  0  0
  191.2630  177.6770  144.6750 C   0  0  0  0  0  0  0  0  0  0  0  0
  191.9770  178.6320  144.9710 O   0  0  0  0  0  0  0  0  0  0  0  0
  191.7010  176.6470  143.6810 C   0  0  0  0  0  2  0  0  0  0  0  0
  191.2800  176.8300  142.2610 C   0  0  0  0  0  0  0  0  0  0  0  0
  190.1970  176.2320  141.8290 C   0  0  0  0  0  2  0  0  0  0  0  0
  192.3620  177.0360  141.3290 N   0  0  0  0  0  2  0  0  0  0  0  0
  192.3260  176.5970  139.9870 N   0  0  0  0  0  2  0  0  0  0  0  0
  192.2720  174.5260  137.6960 C   0  0  0  0  0  2  0  0  0  0  0  0
  190.7270  173.9670  135.8250 C   0  0  0  0  0  1  0  0  0  0  0  0
  193.6640  177.3570  137.7500 S   0  0  0  0  0  0  0  0  0  0  0  0
  193.6890  176.7330  139.4480 C   0  0  2  0  0  3  0  0  0  0  0  0
  194.3030  175.3830  139.1210 C   0  0  1  0  0  0  0  0  0  0  0  0
  193.0810  173.4970  135.6520 O   0  0  0  0  0  0  0  0  0  0  0  0
  194.0990  172.7150  136.2630 C   0  0  0  0  0  2  0  0  0  0  0  0
  195.6690  175.0730  139.7270 C   0  0  0  0  0  1  0  0  0  0  0  0
  193.7690  174.5170  137.9950 C   0  0  1  0  0  0  0  0  0  0  0  0
  194.5330  173.2620  137.6370 C   0  0  0  0  0  2  0  0  0  0  0  0
  191.9870  173.5350  136.5640 C   0  0  1  0  0  3  0  0  0  0  0  0
  194.5350  175.7630  137.6390 C   0  0  1  0  0  3  0  0  0  0  0  0
  2 50  1  6  0  0  0
  2  1  1  0  0  0  0
  3 10  2  0  0  0  0
  5  1  1  0  0  0  0
  6  3  2  0  0  0  0
  7 11  1  0  0  0  0
  7  6  1  0  0  0  0
  8 10  1  0  0  0  0
  8  2  1  0  0  0  0
  9  4  1  6  0  0  0
  9  7  1  0  0  0  0
  9  6  1  0  0  0  0
 10  5  1  0  0  0  0
 11 12  1  1  0  0  0
 11 14  1  0  0  0  0
 13 11  1  0  0  0  0
 13 14  1  1  0  0  0
 17 16  1  6  0  0  0
 17 30  1  0  0  0  0
 17 24  1  0  0  0  0
 19 21  1  0  0  0  0
 19 16  1  0  0  0  0
 20 15  1  1  0  0  0
 20 13  1  0  0  0  0
 22 18  1  6  0  0  0
 22 29  1  0  0  0  0
 22 27  1  0  0  0  0
 24 15  1  6  0  0  0
 24 20  1  0  0  0  0
 25 18  1  0  0  0  0
 25 28  1  0  0  0  0
 26 19  2  0  0  0  0
 27 23  1  6  0  0  0
 27 30  1  0  0  0  0
 28 23  1  0  0  0  0
 29 16  1  0  0  0  0
 30 24  1  0  0  0  0
 31 29  2  0  0  0  0
 32 34  1  0  0  0  0
 33 32  1  0  0  0  0
 33 34  1  0  0  0  0
 34  9  1  0  0  0  0
 35 37  2  0  0  0  0
 36 32  1  0  0  0  0
 37 36  1  0  0  0  0
 38 37  1  0  0  0  0
 39 38  1  0  0  0  0
 40 39  1  0  0  0  0
 41 40  1  0  0  0  0
 43 42  1  0  0  0  0
 43 40  1  0  0  0  0
 43 46  1  0  0  0  0
 44 46  1  0  0  0  0
 44 45  1  0  0  0  0
 45 49  1  0  0  0  0
 47 42  1  0  0  0  0
 47 45  1  0  0  0  0
 49 48  1  0  0  0  0
 50 51  2  0  0  0  0
 52 50  1  0  0  0  0
 53 52  1  0  0  0  0
 54 53  2  0  0  0  0
 55 53  1  0  0  0  0
 56 55  1  0  0  0  0
 57 65  1  0  0  0  0
 58 67  1  0  0  0  0
 59 60  1  0  0  0  0
 60 56  1  0  0  0  0
 61 60  1  0  0  0  0
 61 64  1  0  0  0  0
 62 63  1  0  0  0  0
 62 67  1  0  0  0  0
 63 66  1  0  0  0  0
 65 61  1  0  0  0  0
 66 65  1  0  0  0  0
 67 57  1  0  0  0  0
 68 59  1  0  0  0  0
 68 65  1  0  0  0  0
 68 61  1  0  0  0  0
M  END
>  <MODEL>
6

>  <REMARK>
 VINA RESULT:      -3.2      2.839     10.563
  Name = 
  15 active torsions:
  status: ('A' for Active; 'I' for Inactive)
    1  A    between atoms: C_7  and  N_29
    2  A    between atoms: C_8  and  C_12
    3  A    between atoms: C_8  and  N_38
    4  A    between atoms: C_9  and  C_17
    5  A    between atoms: C_16  and  N_39
    6  A    between atoms: C_17  and  C_47
    7  A    between atoms: N_22  and  C_28
    8  A    between atoms: O_23  and  C_57
    9  A    between atoms: C_30  and  N_36
   10  A    between atoms: C_30  and  C_47
   11  A    between atoms: N_31  and  C_35
   12  A    between atoms: N_31  and  N_36
   13  A    between atoms: N_38  and  C_50
   14  A    between atoms: C_43  and  C_64
   15  A    between atoms: C_50  and  C_51
                            x       y       z     vdW  Elec       q    Type
                         _______ _______ _______ _____ _____    ______ ____

>  <TORSDO>
F 15

$$$$
=
 OpenBabel10232410233D

 68 79  0  0  1  0  0  0  0  0999 V2000
  188.6770  179.1400  137.9560 S   0  0  0  0  0  0  0  0  0  0  0  0
  187.4000  178.2110  136.9950 C   0  0  1  0  0  3  0  0  0  0  0  0
  190.2850  176.8510  135.7150 C   0  0  0  0  0  0  0  0  0  0  0  0
  192.0510  173.8040  137.6670 C   0  0  0  0  0  1  0  0  0  0  0  0
  189.7940  179.0470  136.4970 C   0  0  0  0  0  2  0  0  0  0  0  0
  191.1500  175.8380  135.7700 C   0  0  0  0  0  0  0  0  0  0  0  0
  191.9880  174.7250  135.0420 N   0  0  0  0  0  0  0  0  0  0  0  0
  188.0330  177.4560  135.9540 N   0  0  0  0  0  2  0  0  0  0  0  0
  191.4090  174.5730  136.3520 C   0  0  1  0  0  0  0  0  0  0  0  0
  189.4120  177.8080  135.7770 C   0  0  0  0  0  0  0  0  0  0  0  0
  192.7850  175.6210  136.1050 C   0  0  1  0  0  0  0  0  0  0  0  0
  192.7870  176.4760  137.5310 C   0  0  0  0  0  1  0  0  0  0  0  0
  194.2680  175.0870  136.0020 C   0  0  2  0  0  3  0  0  0  0  0  0
  193.9040  176.4170  135.3970 C   0  0  0  0  0  2  0  0  0  0  0  0
  195.8380  174.4600  134.3580 C   0  0  0  0  0  2  0  0  0  0  0  0
  195.6050  171.0440  136.3330 N   0  0  0  0  0  0  0  0  0  0  0  0
  195.4800  172.5330  136.3430 C   0  0  2  0  0  3  0  0  0  0  0  0
  198.7250  169.9600  134.8840 C   0  0  0  0  0  2  0  0  0  0  0  0
  195.4650  170.3110  137.5420 C   0  0  0  0  0  0  0  0  0  0  0  0
  194.4900  174.1850  134.8470 N   0  0  1  0  0  0  0  0  0  0  0  0
  194.9970  170.9550  138.6880 O   0  0  0  0  0  1  0  0  0  0  0  0
  197.5950  170.9950  134.7790 C   0  0  2  0  0  3  0  0  0  0  0  0
  198.7090  171.9560  136.7890 N   0  0  0  0  0  2  0  0  0  0  0  0
  195.5650  173.1270  134.9030 C   0  0  2  0  0  0  0  0  0  0  0  0
  200.0690  170.6360  135.1450 C   0  0  0  0  0  2  0  0  0  0  0  0
  195.6330  169.0540  137.5890 O   0  0  0  0  0  0  0  0  0  0  0  0
  197.9410  172.2880  135.5720 C   0  0  2  0  0  3  0  0  0  0  0  0
  200.0450  171.4600  136.4470 C   0  0  0  0  0  2  0  0  0  0  0  0
  196.3210  170.4000  135.2530 C   0  0  0  0  0  0  0  0  0  0  0  0
  196.7260  173.2250  135.9210 C   0  0  2  0  0  3  0  0  0  0  0  0
  195.8060  169.4040  134.6760 O   0  0  0  0  0  0  0  0  0  0  0  0
  189.1100  174.3840  135.1440 C   0  0  1  0  0  3  0  0  0  0  0  0
  188.9870  174.6940  136.5380 O   0  0  0  0  0  0  0  0  0  0  0  0
  190.0300  173.8020  136.1950 C   0  0  2  0  0  3  0  0  0  0  0  0
  186.4250  175.2890  134.3560 O   0  0  0  0  0  0  0  0  0  0  0  0
  187.9290  173.5490  134.8290 N   0  0  0  0  0  2  0  0  0  0  0  0
  186.6590  174.2000  134.9570 C   0  0  0  0  0  0  0  0  0  0  0  0
  185.6330  173.6240  135.9180 C   0  0  0  0  0  2  0  0  0  0  0  0
  184.8680  172.5550  135.3100 N   0  0  0  0  0  2  0  0  0  0  0  0
  183.6180  172.3650  136.0720 C   0  0  1  0  0  3  0  0  0  0  0  0
  183.8650  171.8490  137.3680 O   0  0  0  0  0  1  0  0  0  0  0  0
  182.9710  174.5520  137.2670 C   0  0  0  0  0  2  0  0  0  0  0  0
  182.7680  173.6630  136.0150 C   0  0  2  0  0  3  0  0  0  0  0  0
  180.2890  174.2970  136.0770 C   0  0  0  0  0  2  0  0  0  0  0  0
  180.4630  174.9120  137.4630 C   0  0  2  0  0  3  0  0  0  0  0  0
  181.3100  173.1760  135.8660 C   0  0  0  0  0  2  0  0  0  0  0  0
  181.8570  175.5550  137.4590 C   0  0  0  0  0  2  0  0  0  0  0  0
  180.1190  174.6110  139.6600 C   0  0  0  0  0  1  0  0  0  0  0  0
  180.3310  173.9350  138.4490 O   0  0  0  0  0  0  0  0  0  0  0  0
  186.4160  177.4000  137.7700 C   0  0  0  0  0  0  0  0  0  0  0  0
  185.4570  176.8780  137.2080 O   0  0  0  0  0  0  0  0  0  0  0  0
  186.8390  176.9930  139.1470 C   0  0  0  0  0  2  0  0  0  0  0  0
  187.4440  178.0380  140.0240 C   0  0  0  0  0  0  0  0  0  0  0  0
  188.6890  177.9110  140.4120 C   0  0  0  0  0  2  0  0  0  0  0  0
  186.5180  178.6930  140.9160 N   0  0  0  0  0  2  0  0  0  0  0  0
  185.4390  178.0300  141.5420 N   0  0  0  0  0  2  0  0  0  0  0  0
  187.0680  177.5890  144.1290 C   0  0  0  0  0  2  0  0  0  0  0  0
  189.4810  177.4190  144.7170 C   0  0  0  0  0  1  0  0  0  0  0  0
  185.9590  180.2950  142.9440 S   0  0  0  0  0  0  0  0  0  0  0  0
  184.8000  178.9970  142.4480 C   0  0  2  0  0  3  0  0  0  0  0  0
  184.5940  178.4180  143.8370 C   0  0  1  0  0  0  0  0  0  0  0  0
  187.8770  178.1880  146.3380 O   0  0  0  0  0  0  0  0  0  0  0  0
  186.7280  177.7470  147.0500 C   0  0  0  0  0  2  0  0  0  0  0  0
  183.1850  178.4860  144.4190 C   0  0  0  0  0  1  0  0  0  0  0  0
  185.7650  178.0930  144.7460 C   0  0  1  0  0  0  0  0  0  0  0  0
  185.4680  177.6660  146.1660 C   0  0  0  0  0  2  0  0  0  0  0  0
  188.0620  177.2830  145.2530 C   0  0  1  0  0  3  0  0  0  0  0  0
  185.4220  179.5390  144.5090 C   0  0  1  0  0  3  0  0  0  0  0  0
  2 50  1  1  0  0  0
  2  1  1  0  0  0  0
  3  6  2  0  0  0  0
  3 10  2  0  0  0  0
  5  1  1  0  0  0  0
  6  9  1  0  0  0  0
  7  6  1  0  0  0  0
  7 11  1  0  0  0  0
  7  9  1  0  0  0  0
  8  2  1  0  0  0  0
  9  4  1  1  0  0  0
 10  8  1  0  0  0  0
 10  5  1  0  0  0  0
 11 12  1  1  0  0  0
 13 14  1  6  0  0  0
 13 11  1  0  0  0  0
 14 11  1  0  0  0  0
 16 19  1  0  0  0  0
 17 16  1  6  0  0  0
 18 25  1  0  0  0  0
 19 26  2  0  0  0  0
 19 21  1  0  0  0  0
 20 15  1  6  0  0  0
 20 24  1  0  0  0  0
 20 13  1  0  0  0  0
 22 18  1  1  0  0  0
 22 29  1  0  0  0  0
 22 27  1  0  0  0  0
 24 15  1  6  0  0  0
 24 30  1  0  0  0  0
 24 17  1  0  0  0  0
 25 28  1  0  0  0  0
 27 30  1  0  0  0  0
 27 23  1  1  0  0  0
 28 23  1  0  0  0  0
 29 16  1  0  0  0  0
 30 17  1  0  0  0  0
 31 29  2  0  0  0  0
 32 34  1  0  0  0  0
 32 33  1  0  0  0  0
 34  9  1  0  0  0  0
 34 33  1  0  0  0  0
 35 37  2  0  0  0  0
 36 37  1  0  0  0  0
 36 32  1  0  0  0  0
 37 38  1  0  0  0  0
 39 38  1  0  0  0  0
 39 40  1  0  0  0  0
 40 41  1  0  0  0  0
 42 47  1  0  0  0  0
 43 40  1  0  0  0  0
 43 42  1  0  0  0  0
 44 45  1  0  0  0  0
 45 49  1  0  0  0  0
 46 43  1  0  0  0  0
 46 44  1  0  0  0  0
 47 45  1  0  0  0  0
 49 48  1  0  0  0  0
 50 52  1  0  0  0  0
 51 50  2  0  0  0  0
 52 53  1  0  0  0  0
 53 54  2  0  0  0  0
 53 55  1  0  0  0  0
 55 56  1  0  0  0  0
 56 60  1  0  0  0  0
 57 65  1  0  0  0  0
 57 67  1  0  0  0  0
 58 67  1  0  0  0  0
 59 68  1  0  0  0  0
 60 59  1  0  0  0  0
 60 61  1  0  0  0  0
 61 64  1  0  0  0  0
 61 68  1  0  0  0  0
 61 65  1  0  0  0  0
 62 63  1  0  0  0  0
 65 66  1  0  0  0  0
 66 63  1  0  0  0  0
 67 62  1  0  0  0  0
 68 65  1  0  0  0  0
M  END
>  <MODEL>
7

>  <REMARK>
 VINA RESULT:      -3.0      1.811      2.437
  Name = 
  15 active torsions:
  status: ('A' for Active; 'I' for Inactive)
    1  A    between atoms: C_7  and  N_29
    2  A    between atoms: C_8  and  C_12
    3  A    between atoms: C_8  and  N_38
    4  A    between atoms: C_9  and  C_17
    5  A    between atoms: C_16  and  N_39
    6  A    between atoms: C_17  and  C_47
    7  A    between atoms: N_22  and  C_28
    8  A    between atoms: O_23  and  C_57
    9  A    between atoms: C_30  and  N_36
   10  A    between atoms: C_30  and  C_47
   11  A    between atoms: N_31  and  C_35
   12  A    between atoms: N_31  and  N_36
   13  A    between atoms: N_38  and  C_50
   14  A    between atoms: C_43  and  C_64
   15  A    between atoms: C_50  and  C_51
                            x       y       z     vdW  Elec       q    Type
                         _______ _______ _______ _____ _____    ______ ____

>  <TORSDO>
F 15

$$$$
=
 OpenBabel10232410233D

 68 79  0  0  1  0  0  0  0  0999 V2000
  187.8020  177.0440  146.2630 S   0  0  0  0  0  0  0  0  0  0  0  0
  186.8450  178.4760  145.5900 C   0  0  1  0  0  3  0  0  0  0  0  0
  189.4640  178.3520  143.3690 C   0  0  0  0  0  0  0  0  0  0  0  0
  189.2570  175.8350  140.2330 C   0  0  0  0  0  1  0  0  0  0  0  0
  189.3520  177.8580  145.6960 C   0  0  0  0  0  2  0  0  0  0  0  0
  189.8860  177.9250  142.1780 C   0  0  0  0  0  0  0  0  0  0  0  0
  190.5880  178.2120  140.8020 N   0  0  0  0  0  0  0  0  0  0  0  0
  187.6100  179.1330  144.5720 N   0  0  0  0  0  2  0  0  0  0  0  0
  189.4910  177.2940  140.9730 C   0  0  1  0  0  0  0  0  0  0  0  0
  188.9690  178.6790  144.5220 C   0  0  0  0  0  0  0  0  0  0  0  0
  191.0820  176.9010  141.5810 C   0  0  1  0  0  0  0  0  0  0  0  0
  190.7490  175.6660  142.6440 C   0  0  0  0  0  1  0  0  0  0  0  0
  192.1330  176.2560  140.5960 C   0  0  2  0  0  3  0  0  0  0  0  0
  192.6040  176.9730  141.8330 C   0  0  0  0  0  2  0  0  0  0  0  0
  193.9540  177.0400  139.3190 C   0  0  0  0  0  2  0  0  0  0  0  0
  191.9870  175.1120  136.4820 N   0  0  0  0  0  0  0  0  0  0  0  0
  192.3110  175.2600  137.9340 C   0  0  2  0  0  3  0  0  0  0  0  0
  194.9560  175.0350  134.4350 C   0  0  0  0  0  2  0  0  0  0  0  0
  191.1850  174.0270  136.0400 C   0  0  0  0  0  0  0  0  0  0  0  0
  192.5060  177.1450  139.4690 N   0  0  1  0  0  0  0  0  0  0  0  0
  190.5240  173.2320  136.9770 O   0  0  0  0  0  1  0  0  0  0  0  0
  194.3110  175.6790  135.6730 C   0  0  2  0  0  3  0  0  0  0  0  0
  194.7960  173.4580  136.6930 N   0  0  0  0  0  2  0  0  0  0  0  0
  193.1140  176.5680  138.2140 C   0  0  2  0  0  0  0  0  0  0  0  0
  196.2310  174.2820  134.8060 C   0  0  0  0  0  2  0  0  0  0  0  0
  190.9450  173.8260  134.8110 O   0  0  0  0  0  0  0  0  0  0  0  0
  194.6890  174.9050  136.9690 C   0  0  2  0  0  3  0  0  0  0  0  0
  195.9520  173.1710  135.8380 C   0  0  0  0  0  2  0  0  0  0  0  0
  192.8400  175.7440  135.4980 C   0  0  0  0  0  0  0  0  0  0  0  0
  193.7680  175.1660  138.2170 C   0  0  2  0  0  3  0  0  0  0  0  0
  192.3180  176.4120  134.5650 O   0  0  0  0  0  0  0  0  0  0  0  0
  187.8730  178.0860  139.0920 C   0  0  1  0  0  3  0  0  0  0  0  0
  188.4970  179.1720  139.7900 O   0  0  0  0  0  0  0  0  0  0  0  0
  188.1510  178.0500  140.5800 C   0  0  2  0  0  3  0  0  0  0  0  0
  185.5890  176.5260  138.0960 O   0  0  0  0  0  0  0  0  0  0  0  0
  186.5270  178.5830  138.7300 N   0  0  0  0  0  2  0  0  0  0  0  0
  185.7810  177.7500  137.8350 C   0  0  0  0  0  0  0  0  0  0  0  0
  185.3190  178.3270  136.5080 C   0  0  0  0  0  2  0  0  0  0  0  0
  185.6940  177.4810  135.3940 N   0  0  0  0  0  2  0  0  0  0  0  0
  184.8160  176.2930  135.3770 C   0  0  1  0  0  3  0  0  0  0  0  0
  183.5180  176.6050  134.9050 O   0  0  0  0  0  1  0  0  0  0  0  0
  184.6840  173.8300  134.6360 C   0  0  0  0  0  2  0  0  0  0  0  0
  185.5340  175.1250  134.6480 C   0  0  2  0  0  3  0  0  0  0  0  0
  187.5980  173.6570  135.0190 C   0  0  0  0  0  2  0  0  0  0  0  0
  186.7100  172.4480  135.2990 C   0  0  2  0  0  3  0  0  0  0  0  0
  186.8690  174.9470  135.4040 C   0  0  0  0  0  2  0  0  0  0  0  0
  185.5050  172.5930  134.3600 C   0  0  0  0  0  2  0  0  0  0  0  0
  187.4740  172.0340  137.3680 C   0  0  0  0  0  1  0  0  0  0  0  0
  186.3360  172.4200  136.6420 O   0  0  0  0  0  0  0  0  0  0  0  0
  185.4360  178.2220  145.1720 C   0  0  0  0  0  0  0  0  0  0  0  0
  184.8310  177.2350  145.5820 O   0  0  0  0  0  0  0  0  0  0  0  0
  184.7240  179.3710  144.5270 C   0  0  0  0  0  2  0  0  0  0  0  0
  183.4430  179.0830  143.8180 C   0  0  0  0  0  0  0  0  0  0  0  0
  182.4850  178.4530  144.4510 C   0  0  0  0  0  2  0  0  0  0  0  0
  183.5710  178.8750  142.3960 N   0  0  0  0  0  2  0  0  0  0  0  0
  182.7090  178.0380  141.6520 N   0  0  0  0  0  2  0  0  0  0  0  0
  181.8040  176.7700  138.9840 C   0  0  0  0  0  2  0  0  0  0  0  0
  181.5020  174.4580  138.1130 C   0  0  0  0  0  1  0  0  0  0  0  0
  180.0210  177.7530  141.3950 S   0  0  0  0  0  0  0  0  0  0  0  0
  181.4890  178.8110  141.3690 C   0  0  2  0  0  3  0  0  0  0  0  0
  181.3920  179.1950  139.9020 C   0  0  1  0  0  0  0  0  0  0  0  0
  180.2110  176.2810  137.2190 O   0  0  0  0  0  0  0  0  0  0  0  0
  180.3710  177.5090  136.5200 C   0  0  0  0  0  2  0  0  0  0  0  0
  181.1780  180.6710  139.5810 C   0  0  0  0  0  1  0  0  0  0  0  0
  181.1790  178.1540  138.8190 C   0  0  1  0  0  0  0  0  0  0  0  0
  180.9400  178.6350  137.4050 C   0  0  0  0  0  2  0  0  0  0  0  0
  181.4910  175.9340  137.7400 C   0  0  1  0  0  3  0  0  0  0  0  0
  180.0270  178.4860  139.7300 C   0  0  1  0  0  3  0  0  0  0  0  0
  2 50  1  6  0  0  0
  2  1  1  0  0  0  0
  3 10  2  0  0  0  0
  5  1  1  0  0  0  0
  6  3  2  0  0  0  0
  7  9  1  0  0  0  0
  7 11  1  0  0  0  0
  7  6  1  0  0  0  0
  8  2  1  0  0  0  0
  9  4  1  6  0  0  0
  9  6  1  0  0  0  0
 10  8  1  0  0  0  0
 10  5  1  0  0  0  0
 11 14  1  0  0  0  0
 11 12  1  1  0  0  0
 13 11  1  0  0  0  0
 13 14  1  1  0  0  0
 17 16  1  6  0  0  0
 17 24  1  0  0  0  0
 17 30  1  0  0  0  0
 18 25  1  0  0  0  0
 19 16  1  0  0  0  0
 19 21  1  0  0  0  0
 20 15  1  1  0  0  0
 20 13  1  0  0  0  0
 22 18  1  6  0  0  0
 22 27  1  0  0  0  0
 24 30  1  0  0  0  0
 24 15  1  6  0  0  0
 24 20  1  0  0  0  0
 25 28  1  0  0  0  0
 26 19  2  0  0  0  0
 27 23  1  6  0  0  0
 27 30  1  0  0  0  0
 28 23  1  0  0  0  0
 29 22  1  0  0  0  0
 29 16  1  0  0  0  0
 31 29  2  0  0  0  0
 32 33  1  0  0  0  0
 32 34  1  0  0  0  0
 33 34  1  0  0  0  0
 34  9  1  0  0  0  0
 36 32  1  0  0  0  0
 37 35  2  0  0  0  0
 37 36  1  0  0  0  0
 38 37  1  0  0  0  0
 39 38  1  0  0  0  0
 40 39  1  0  0  0  0
 41 40  1  0  0  0  0
 42 43  1  0  0  0  0
 43 40  1  0  0  0  0
 43 46  1  0  0  0  0
 44 45  1  0  0  0  0
 44 46  1  0  0  0  0
 45 49  1  0  0  0  0
 47 42  1  0  0  0  0
 47 45  1  0  0  0  0
 49 48  1  0  0  0  0
 50 51  2  0  0  0  0
 52 50  1  0  0  0  0
 53 54  2  0  0  0  0
 53 52  1  0  0  0  0
 55 53  1  0  0  0  0
 56 55  1  0  0  0  0
 60 59  1  0  0  0  0
 60 56  1  0  0  0  0
 61 60  1  0  0  0  0
 62 67  1  0  0  0  0
 63 62  1  0  0  0  0
 63 66  1  0  0  0  0
 64 61  1  0  0  0  0
 65 57  1  0  0  0  0
 65 68  1  0  0  0  0
 65 61  1  0  0  0  0
 66 65  1  0  0  0  0
 67 58  1  0  0  0  0
 67 57  1  0  0  0  0
 68 61  1  0  0  0  0
 68 59  1  0  0  0  0
M  END
>  <MODEL>
8

>  <REMARK>
 VINA RESULT:      -2.9      2.448      5.690
  Name = 
  15 active torsions:
  status: ('A' for Active; 'I' for Inactive)
    1  A    between atoms: C_7  and  N_29
    2  A    between atoms: C_8  and  C_12
    3  A    between atoms: C_8  and  N_38
    4  A    between atoms: C_9  and  C_17
    5  A    between atoms: C_16  and  N_39
    6  A    between atoms: C_17  and  C_47
    7  A    between atoms: N_22  and  C_28
    8  A    between atoms: O_23  and  C_57
    9  A    between atoms: C_30  and  N_36
   10  A    between atoms: C_30  and  C_47
   11  A    between atoms: N_31  and  C_35
   12  A    between atoms: N_31  and  N_36
   13  A    between atoms: N_38  and  C_50
   14  A    between atoms: C_43  and  C_64
   15  A    between atoms: C_50  and  C_51
                            x       y       z     vdW  Elec       q    Type
                         _______ _______ _______ _____ _____    ______ ____

>  <TORSDO>
F 15

$$$$
=
 OpenBabel10232410233D

 68 79  0  0  1  0  0  0  0  0999 V2000
  193.8770  177.7410  139.0700 S   0  0  0  0  0  0  0  0  0  0  0  0
  193.5720  176.0300  138.4400 C   0  0  1  0  0  3  0  0  0  0  0  0
  190.6130  176.6530  140.0730 C   0  0  0  0  0  0  0  0  0  0  0  0
  187.6910  178.6430  138.1450 C   0  0  0  0  0  1  0  0  0  0  0  0
  192.8420  177.3480  140.5400 C   0  0  0  0  0  2  0  0  0  0  0  0
  189.3450  177.0490  139.9540 C   0  0  0  0  0  0  0  0  0  0  0  0
  187.8170  176.8250  140.2480 N   0  0  0  0  0  0  0  0  0  0  0  0
  192.3650  175.5110  139.0150 N   0  0  0  0  0  2  0  0  0  0  0  0
  188.3290  177.4030  139.0320 C   0  0  1  0  0  0  0  0  0  0  0  0
  191.8680  176.3280  140.0840 C   0  0  0  0  0  0  0  0  0  0  0  0
  188.3770  178.3000  140.5310 C   0  0  1  0  0  0  0  0  0  0  0  0
  189.3080  179.5890  140.0410 C   0  0  0  0  0  1  0  0  0  0  0  0
  187.2220  178.9840  141.3610 C   0  0  2  0  0  3  0  0  0  0  0  0
  188.4850  178.5460  142.0520 C   0  0  0  0  0  2  0  0  0  0  0  0
  185.1570  178.8250  142.4890 C   0  0  0  0  0  2  0  0  0  0  0  0
  184.0130  177.5750  138.9170 N   0  0  0  0  0  0  0  0  0  0  0  0
  184.9560  178.3930  139.7400 C   0  0  2  0  0  3  0  0  0  0  0  0
  180.5680  178.2300  139.7590 C   0  0  0  0  0  2  0  0  0  0  0  0
  184.0810  177.6260  137.4990 C   0  0  0  0  0  0  0  0  0  0  0  0
  186.1820  178.0310  141.8170 N   0  0  1  0  0  0  0  0  0  0  0  0
  185.1590  178.2620  136.8830 O   0  0  0  0  0  1  0  0  0  0  0  0
  181.9840  178.0750  140.3350 C   0  0  2  0  0  3  0  0  0  0  0  0
  182.3040  180.3290  139.3230 N   0  0  0  0  0  2  0  0  0  0  0  0
  184.7800  178.1130  141.2650 C   0  0  2  0  0  0  0  0  0  0  0  0
  180.0060  179.6210  140.0420 C   0  0  0  0  0  2  0  0  0  0  0  0
  183.2550  177.0030  136.7650 O   0  0  0  0  0  0  0  0  0  0  0  0
  182.6990  179.4520  140.4440 C   0  0  2  0  0  3  0  0  0  0  0  0
  180.8970  180.7250  139.4370 C   0  0  0  0  0  2  0  0  0  0  0  0
  182.7660  177.1300  139.5010 C   0  0  0  0  0  0  0  0  0  0  0  0
  184.2650  179.4040  140.5840 C   0  0  2  0  0  3  0  0  0  0  0  0
  182.4160  175.9270  139.3670 O   0  0  0  0  0  0  0  0  0  0  0  0
  188.0560  176.7120  136.5360 C   0  0  1  0  0  3  0  0  0  0  0  0
  187.1080  176.0740  137.4010 O   0  0  0  0  0  0  0  0  0  0  0  0
  188.4050  176.2560  137.9360 C   0  0  2  0  0  3  0  0  0  0  0  0
  186.2830  175.8510  134.3530 O   0  0  0  0  0  0  0  0  0  0  0  0
  188.3410  175.7180  135.4760 N   0  0  0  0  0  2  0  0  0  0  0  0
  187.1920  175.1280  134.8570 C   0  0  0  0  0  0  0  0  0  0  0  0
  187.0210  173.6190  134.9140 C   0  0  0  0  0  2  0  0  0  0  0  0
  185.6570  173.2440  135.2250 N   0  0  0  0  0  2  0  0  0  0  0  0
  185.6490  172.4540  136.4730 C   0  0  1  0  0  3  0  0  0  0  0  0
  186.7210  172.8080  137.3270 O   0  0  0  0  0  1  0  0  0  0  0  0
  183.4370  171.1980  136.8740 C   0  0  0  0  0  2  0  0  0  0  0  0
  184.2350  172.5040  137.1130 C   0  0  2  0  0  3  0  0  0  0  0  0
  182.0520  173.7950  136.7620 C   0  0  0  0  0  2  0  0  0  0  0  0
  181.3680  172.5330  136.2430 C   0  0  2  0  0  3  0  0  0  0  0  0
  183.5550  173.7360  136.4750 C   0  0  0  0  0  2  0  0  0  0  0  0
  181.9490  171.3770  137.0700 C   0  0  0  0  0  2  0  0  0  0  0  0
  180.4790  171.7300  134.3460 C   0  0  0  0  0  1  0  0  0  0  0  0
  181.6040  172.3790  134.8770 O   0  0  0  0  0  0  0  0  0  0  0  0
  193.6350  175.8220  136.9650 C   0  0  0  0  0  0  0  0  0  0  0  0
  193.9620  176.7400  136.2170 O   0  0  0  0  0  0  0  0  0  0  0  0
  193.6130  174.3990  136.5000 C   0  0  0  0  0  2  0  0  0  0  0  0
  192.8520  174.0880  135.2540 C   0  0  0  0  0  0  0  0  0  0  0  0
  191.7310  174.7200  135.0100 C   0  0  0  0  0  2  0  0  0  0  0  0
  192.9810  172.7290  134.7870 N   0  0  0  0  0  2  0  0  0  0  0  0
  194.1170  171.9250  135.0370 N   0  0  0  0  0  2  0  0  0  0  0  0
  196.8520  170.5560  135.4670 C   0  0  0  0  0  2  0  0  0  0  0  0
  199.2400  171.2440  135.3210 C   0  0  0  0  0  1  0  0  0  0  0  0
  194.9830  171.9240  137.6100 S   0  0  0  0  0  0  0  0  0  0  0  0
  193.8970  171.2520  136.3280 C   0  0  2  0  0  3  0  0  0  0  0  0
  194.4780  169.8480  136.3370 C   0  0  1  0  0  0  0  0  0  0  0  0
  198.5680  169.4530  136.7830 O   0  0  0  0  0  0  0  0  0  0  0  0
  197.9860  168.1570  136.7450 C   0  0  0  0  0  2  0  0  0  0  0  0
  193.5450  168.7100  136.7420 C   0  0  0  0  0  1  0  0  0  0  0  0
  195.9750  169.6040  136.2780 C   0  0  1  0  0  0  0  0  0  0  0  0
  196.4730  168.1870  136.4470 C   0  0  0  0  0  2  0  0  0  0  0  0
  198.3000  170.0630  135.5220 C   0  0  1  0  0  3  0  0  0  0  0  0
  195.3870  170.1510  137.5520 C   0  0  1  0  0  3  0  0  0  0  0  0
  1  5  1  0  0  0  0
  2 50  1  6  0  0  0
  2  8  1  0  0  0  0
  2  1  1  0  0  0  0
  3 10  2  0  0  0  0
  6  3  2  0  0  0  0
  6  7  1  0  0  0  0
  7 11  1  0  0  0  0
  8 10  1  0  0  0  0
  9  4  1  6  0  0  0
  9  6  1  0  0  0  0
  9  7  1  0  0  0  0
 10  5  1  0  0  0  0
 11 12  1  6  0  0  0
 11 13  1  0  0  0  0
 11 14  1  0  0  0  0
 13 20  1  0  0  0  0
 13 14  1  1  0  0  0
 16 29  1  0  0  0  0
 17 16  1  6  0  0  0
 17 30  1  0  0  0  0
 17 24  1  0  0  0  0
 18 25  1  0  0  0  0
 19 16  1  0  0  0  0
 20 15  1  1  0  0  0
 21 19  1  0  0  0  0
 22 18  1  6  0  0  0
 22 27  1  0  0  0  0
 23 28  1  0  0  0  0
 24 20  1  0  0  0  0
 24 15  1  1  0  0  0
 26 19  2  0  0  0  0
 27 23  1  6  0  0  0
 27 30  1  0  0  0  0
 28 25  1  0  0  0  0
 29 22  1  0  0  0  0
 30 24  1  0  0  0  0
 31 29  2  0  0  0  0
 32 33  1  0  0  0  0
 32 34  1  0  0  0  0
 33 34  1  0  0  0  0
 34  9  1  0  0  0  0
 35 37  2  0  0  0  0
 36 32  1  0  0  0  0
 37 38  1  0  0  0  0
 37 36  1  0  0  0  0
 38 39  1  0  0  0  0
 39 40  1  0  0  0  0
 40 43  1  0  0  0  0
 40 41  1  0  0  0  0
 42 47  1  0  0  0  0
 42 43  1  0  0  0  0
 45 44  1  0  0  0  0
 45 47  1  0  0  0  0
 46 44  1  0  0  0  0
 46 43  1  0  0  0  0
 48 49  1  0  0  0  0
 49 45  1  0  0  0  0
 51 50  2  0  0  0  0
 52 50  1  0  0  0  0
 53 52  1  0  0  0  0
 54 53  2  0  0  0  0
 55 56  1  0  0  0  0
 55 53  1  0  0  0  0
 56 60  1  0  0  0  0
 57 67  1  0  0  0  0
 57 65  1  0  0  0  0
 58 67  1  0  0  0  0
 60 61  1  0  0  0  0
 60 59  1  0  0  0  0
 61 64  1  0  0  0  0
 61 68  1  0  0  0  0
 63 62  1  0  0  0  0
 65 61  1  0  0  0  0
 65 66  1  0  0  0  0
 65 68  1  0  0  0  0
 66 63  1  0  0  0  0
 67 62  1  0  0  0  0
 68 59  1  0  0  0  0
M  END
>  <MODEL>
9

>  <REMARK>
 VINA RESULT:      -2.9      2.951     10.930
  Name = 
  15 active torsions:
  status: ('A' for Active; 'I' for Inactive)
    1  A    between atoms: C_7  and  N_29
    2  A    between atoms: C_8  and  C_12
    3  A    between atoms: C_8  and  N_38
    4  A    between atoms: C_9  and  C_17
    5  A    between atoms: C_16  and  N_39
    6  A    between atoms: C_17  and  C_47
    7  A    between atoms: N_22  and  C_28
    8  A    between atoms: O_23  and  C_57
    9  A    between atoms: C_30  and  N_36
   10  A    between atoms: C_30  and  C_47
   11  A    between atoms: N_31  and  C_35
   12  A    between atoms: N_31  and  N_36
   13  A    between atoms: N_38  and  C_50
   14  A    between atoms: C_43  and  C_64
   15  A    between atoms: C_50  and  C_51
                            x       y       z     vdW  Elec       q    Type
                         _______ _______ _______ _____ _____    ______ ____

>  <TORSDO>
F 15

$$$$
