=
 OpenBabel10232411293D

 54 57  0  0  1  0  0  0  0  0999 V2000
  188.1990  177.9100  145.9470 C   0  0  0  0  0  0  0  0  0  0  0  0
  189.8120  176.9270  147.4360 C   0  0  0  0  0  0  0  0  0  0  0  0
  189.4090  177.4200  146.1000 C   0  0  0  0  0  0  0  0  0  0  0  0
  191.1030  176.2560  144.7460 C   0  0  0  0  0  3  0  0  0  0  0  0
  191.1600  176.5450  147.7470 N   0  0  0  0  0  0  0  0  0  0  0  0
  190.4590  177.5760  145.0290 C   0  0  1  0  0  3  0  0  0  0  0  0
  186.6010  179.3910  146.6760 F   0  0  0  0  0  0  0  0  0  0  0  0
  186.9990  178.4160  145.8180 C   0  0  0  0  0  0  0  0  0  0  0  0
  192.0710  176.0210  146.9750 C   0  0  0  0  0  0  0  0  0  0  0  0
  191.8140  175.6180  145.6210 N   0  0  0  0  0  0  0  0  0  0  0  0
  188.9640  176.9110  148.3680 O   0  0  0  0  0  0  0  0  0  0  0  0
  193.3200  175.6680  147.5540 N   0  0  0  0  0  1  0  0  0  0  0  0
  189.3230  177.6030  142.8420 C   0  0  0  0  0  0  0  0  0  0  0  0
  190.1840  179.7230  143.6110 C   0  0  0  0  0  1  0  0  0  0  0  0
  189.9980  178.2510  143.7580 C   0  0  0  0  0  0  0  0  0  0  0  0
  188.6680  176.9310  141.9380 C   0  0  0  0  0  3  0  0  0  0  0  0
  189.3900  176.3650  140.7670 C   0  0  0  0  0  2  0  0  0  0  0  0
  189.9180  177.4870  139.8780 C   0  0  2  0  0  3  0  0  0  0  0  0
  188.7760  178.1450  139.1110 C   0  0  0  0  0  2  0  0  0  0  0  0
  189.3140  178.8990  137.9100 C   0  0  0  0  0  2  0  0  0  0  0  0
  188.6570  178.3780  136.6510 C   0  0  0  0  0  1  0  0  0  0  0  0
  190.9930  176.9730  138.9250 C   0  0  0  0  0  2  0  0  0  0  0  0
  190.8510  175.5440  138.6900 N   0  0  0  0  0  2  0  0  0  0  0  0
  190.7810  175.3690  137.2500 C   0  0  0  0  0  2  0  0  0  0  0  0
  192.1830  175.3810  136.6600 C   0  0  0  0  0  2  0  0  0  0  0  0
  192.7570  173.9680  136.5760 C   0  0  0  0  0  2  0  0  0  0  0  0
  194.0120  173.7700  137.4350 C   0  0  2  0  0  3  0  0  0  0  0  0
  194.4550  175.0660  138.0970 C   0  0  0  0  0  1  0  0  0  0  0  0
  195.1620  173.1600  136.6460 C   0  0  0  0  0  2  0  0  0  0  0  0
  196.0900  172.3680  137.5560 C   0  0  0  0  0  2  0  0  0  0  0  0
  195.3440  171.6910  138.5230 O   0  0  0  0  0  1  0  0  0  0  0  0
  186.0800  177.9630  144.7630 C   0  0  0  0  0  0  0  0  0  0  0  0
  186.3310  176.9240  144.0920 O   0  0  0  0  0  0  0  0  0  0  0  0
  184.8900  178.7110  144.5140 N   0  0  0  0  0  2  0  0  0  0  0  0
  185.5660  179.0620  141.7800 C   0  0  0  0  0  3  0  0  0  0  0  0
  184.2610  178.5060  142.1980 C   0  0  0  0  0  0  0  0  0  0  0  0
  185.8330  179.2860  140.4920 C   0  0  0  0  0  3  0  0  0  0  0  0
  184.7940  179.0490  139.4290 C   0  0  2  0  0  3  0  0  0  0  0  0
  183.9600  178.3600  143.4870 C   0  0  0  0  0  3  0  0  0  0  0  0
  183.8950  177.8730  139.8080 C   0  0  0  0  0  2  0  0  0  0  0  0
  183.2330  178.1430  141.1620 C   0  0  0  0  0  2  0  0  0  0  0  0
  185.4180  178.7960  138.2060 O   0  0  0  0  0  0  0  0  0  0  0  0
  185.5580  177.4080  138.1470 C   0  0  0  0  0  2  0  0  0  0  0  0
  185.2110  176.9210  136.7560 C   0  0  0  0  0  2  0  0  0  0  0  0
  182.3950  175.1940  136.1000 O   0  0  0  0  0  0  0  0  0  0  0  0
  182.7940  174.2230  135.1650 C   0  0  0  0  0  2  0  0  0  0  0  0
  185.6590  175.4650  136.5890 C   0  0  2  0  0  3  0  0  0  0  0  0
  183.1970  174.9700  137.2290 C   0  0  0  0  0  2  0  0  0  0  0  0
  186.1220  175.1690  135.1720 C   0  0  2  0  0  3  0  0  0  0  0  0
  184.2670  173.9430  135.3650 C   0  0  2  0  0  3  0  0  0  0  0  0
  184.5430  174.4410  136.7570 C   0  0  1  0  0  0  0  0  0  0  0  0
  186.6790  176.2840  134.5450 O   0  0  0  0  0  1  0  0  0  0  0  0
  185.0170  174.7010  134.4460 O   0  0  0  0  0  0  0  0  0  0  0  0
  185.0040  173.3020  137.6480 C   0  0  0  0  0  1  0  0  0  0  0  0
  1  3  2  0  0  0  0
  2  5  1  0  0  0  0
  2 11  2  0  0  0  0
  3  2  1  0  0  0  0
  4  6  1  0  0  0  0
  4 10  2  0  0  0  0
  6 15  1  6  0  0  0
  6  3  1  0  0  0  0
  8  1  2  0  0  0  0
  8  7  1  0  0  0  0
  9 12  1  0  0  0  0
  9  5  2  0  0  0  0
 10  9  1  0  0  0  0
 13 15  2  0  0  0  0
 14 15  1  0  0  0  0
 16 13  2  0  0  0  0
 17 16  1  0  0  0  0
 18 22  1  6  0  0  0
 18 17  1  0  0  0  0
 19 18  1  0  0  0  0
 20 19  1  0  0  0  0
 21 20  1  0  0  0  0
 23 22  1  0  0  0  0
 24 23  1  0  0  0  0
 25 24  1  0  0  0  0
 26 25  1  0  0  0  0
 26 27  1  0  0  0  0
 27 28  1  6  0  0  0
 29 27  1  0  0  0  0
 29 30  1  0  0  0  0
 30 31  1  0  0  0  0
 32  8  1  0  0  0  0
 33 32  2  0  0  0  0
 34 32  1  0  0  0  0
 35 36  1  0  0  0  0
 36 39  2  0  0  0  0
 37 35  2  0  0  0  0
 38 42  1  6  0  0  0
 38 40  1  0  0  0  0
 38 37  1  0  0  0  0
 39 34  1  0  0  0  0
 40 41  1  0  0  0  0
 41 36  1  0  0  0  0
 43 42  1  0  0  0  0
 44 43  1  0  0  0  0
 45 48  1  0  0  0  0
 46 45  1  0  0  0  0
 47 44  1  6  0  0  0
 47 51  1  0  0  0  0
 49 52  1  6  0  0  0
 49 47  1  0  0  0  0
 50 46  1  6  0  0  0
 50 51  1  0  0  0  0
 51 48  1  0  0  0  0
 51 54  1  1  0  0  0
 53 49  1  0  0  0  0
 53 50  1  0  0  0  0
M  END
>  <MODEL>
1

>  <REMARK>
 VINA RESULT:      -6.7      0.000      0.000
  Name = 
  19 active torsions:
  status: ('A' for Active; 'I' for Inactive)
    1  A    between atoms: C_1  and  C_42
    2  A    between atoms: C_1  and  C_44
    3  A    between atoms: C_5  and  N_7
    4  A    between atoms: C_5  and  C_32
    5  A    between atoms: N_7  and  C_54
    6  A    between atoms: C_8  and  C_25
    7  A    between atoms: C_9  and  C_39
    8  A    between atoms: C_10  and  C_19
    9  A    between atoms: C_13  and  C_43
   10  A    between atoms: C_18  and  C_39
   11  A    between atoms: C_18  and  C_51
   12  A    between atoms: C_25  and  C_42
   13  A    between atoms: O_28  and  C_33
   14  A    between atoms: O_28  and  C_45
   15  A    between atoms: C_30  and  C_37
   16  A    between atoms: C_32  and  C_51
   17  A    between atoms: C_34  and  N_40
   18  A    between atoms: C_37  and  C_45
   19  A    between atoms: C_42  and  C_54
                            x       y       z     vdW  Elec       q    Type
                         _______ _______ _______ _____ _____    ______ ____

>  <TORSDO>
F 19

$$$$
=
 OpenBabel10232411293D

 54 57  0  0  1  0  0  0  0  0999 V2000
  188.1600  177.9910  146.0320 C   0  0  0  0  0  0  0  0  0  0  0  0
  189.7540  177.0630  147.5760 C   0  0  0  0  0  0  0  0  0  0  0  0
  189.3680  177.5070  146.2190 C   0  0  0  0  0  0  0  0  0  0  0  0
  191.0780  176.2960  144.9280 C   0  0  0  0  0  3  0  0  0  0  0  0
  191.0970  176.6930  147.9180 N   0  0  0  0  0  0  0  0  0  0  0  0
  190.4310  177.6240  145.1560 C   0  0  1  0  0  3  0  0  0  0  0  0
  186.5530  179.4970  146.6870 F   0  0  0  0  0  0  0  0  0  0  0  0
  186.9610  178.4920  145.8700 C   0  0  0  0  0  0  0  0  0  0  0  0
  192.0180  176.1420  147.1770 C   0  0  0  0  0  0  0  0  0  0  0  0
  191.7780  175.6890  145.8350 N   0  0  0  0  0  0  0  0  0  0  0  0
  188.8940  177.0810  148.4980 O   0  0  0  0  0  0  0  0  0  0  0  0
  193.2600  175.8100  147.7840 N   0  0  0  0  0  1  0  0  0  0  0  0
  189.3320  177.5690  142.9500 C   0  0  0  0  0  0  0  0  0  0  0  0
  190.1620  179.7210  143.6620 C   0  0  0  0  0  1  0  0  0  0  0  0
  189.9850  178.2540  143.8550 C   0  0  0  0  0  0  0  0  0  0  0  0
  188.6970  176.8620  142.0590 C   0  0  0  0  0  3  0  0  0  0  0  0
  189.4440  176.2630  140.9190 C   0  0  0  0  0  2  0  0  0  0  0  0
  190.0120  177.3610  140.0250 C   0  0  2  0  0  3  0  0  0  0  0  0
  188.9060  178.0060  139.1980 C   0  0  0  0  0  2  0  0  0  0  0  0
  189.4280  178.3900  137.8280 C   0  0  0  0  0  2  0  0  0  0  0  0
  188.5480  179.4670  137.2340 C   0  0  0  0  0  1  0  0  0  0  0  0
  191.1210  176.8180  139.1280 C   0  0  0  0  0  2  0  0  0  0  0  0
  190.9040  175.4150  138.8110 N   0  0  0  0  0  2  0  0  0  0  0  0
  191.9980  175.0150  137.9420 C   0  0  0  0  0  2  0  0  0  0  0  0
  191.5310  173.9180  136.9970 C   0  0  0  0  0  2  0  0  0  0  0  0
  191.9350  174.2260  135.5560 C   0  0  0  0  0  2  0  0  0  0  0  0
  192.4140  175.6690  135.3560 C   0  0  2  0  0  3  0  0  0  0  0  0
  191.3360  176.5430  134.7350 C   0  0  0  0  0  1  0  0  0  0  0  0
  193.6940  175.7440  134.5340 C   0  0  0  0  0  2  0  0  0  0  0  0
  194.7220  176.6450  135.2040 C   0  0  0  0  0  2  0  0  0  0  0  0
  194.3330  176.9150  136.5170 O   0  0  0  0  0  1  0  0  0  0  0  0
  186.0560  178.0010  144.8210 C   0  0  0  0  0  0  0  0  0  0  0  0
  186.2900  176.9130  144.2250 O   0  0  0  0  0  0  0  0  0  0  0  0
  184.8980  178.7680  144.4920 N   0  0  0  0  0  2  0  0  0  0  0  0
  185.6420  178.9590  141.7580 C   0  0  0  0  0  3  0  0  0  0  0  0
  184.3170  178.4520  142.1760 C   0  0  0  0  0  0  0  0  0  0  0  0
  185.9420  179.1080  140.4680 C   0  0  0  0  0  3  0  0  0  0  0  0
  184.9220  178.8340  139.3940 C   0  0  2  0  0  3  0  0  0  0  0  0
  183.9840  178.3810  143.4630 C   0  0  0  0  0  3  0  0  0  0  0  0
  183.9900  177.6990  139.8140 C   0  0  0  0  0  2  0  0  0  0  0  0
  183.3040  178.0530  141.1370 C   0  0  0  0  0  2  0  0  0  0  0  0
  185.5680  178.5040  138.2020 O   0  0  0  0  0  0  0  0  0  0  0  0
  184.6690  177.6860  137.5140 C   0  0  0  0  0  2  0  0  0  0  0  0
  185.3240  176.3540  137.2110 C   0  0  0  0  0  2  0  0  0  0  0  0
  187.8920  174.1870  136.9850 O   0  0  0  0  0  0  0  0  0  0  0  0
  187.6360  173.4680  135.8050 C   0  0  0  0  0  2  0  0  0  0  0  0
  185.6450  176.2630  135.7160 C   0  0  2  0  0  3  0  0  0  0  0  0
  187.9730  175.5300  136.5870 C   0  0  0  0  0  2  0  0  0  0  0  0
  184.7740  175.2410  135.0060 C   0  0  2  0  0  3  0  0  0  0  0  0
  186.8110  174.3390  134.8820 C   0  0  2  0  0  3  0  0  0  0  0  0
  187.0390  175.7320  135.4040 C   0  0  1  0  0  0  0  0  0  0  0  0
  183.5130  175.1090  135.5920 O   0  0  0  0  0  1  0  0  0  0  0  0
  185.4490  174.0120  135.0200 O   0  0  0  0  0  0  0  0  0  0  0  0
  187.7060  176.5940  134.3460 C   0  0  0  0  0  1  0  0  0  0  0  0
  1  3  2  0  0  0  0
  2  5  1  0  0  0  0
  2 11  2  0  0  0  0
  3  2  1  0  0  0  0
  4  6  1  0  0  0  0
  4 10  2  0  0  0  0
  6 15  1  6  0  0  0
  6  3  1  0  0  0  0
  8  1  2  0  0  0  0
  8  7  1  0  0  0  0
  9 12  1  0  0  0  0
  9  5  2  0  0  0  0
 10  9  1  0  0  0  0
 13 15  2  0  0  0  0
 14 15  1  0  0  0  0
 16 13  2  0  0  0  0
 17 16  1  0  0  0  0
 18 22  1  6  0  0  0
 18 17  1  0  0  0  0
 19 18  1  0  0  0  0
 20 19  1  0  0  0  0
 21 20  1  0  0  0  0
 23 22  1  0  0  0  0
 24 23  1  0  0  0  0
 25 24  1  0  0  0  0
 26 25  1  0  0  0  0
 27 28  1  6  0  0  0
 27 26  1  0  0  0  0
 29 30  1  0  0  0  0
 29 27  1  0  0  0  0
 30 31  1  0  0  0  0
 32  8  1  0  0  0  0
 33 32  2  0  0  0  0
 34 32  1  0  0  0  0
 35 36  1  0  0  0  0
 36 39  2  0  0  0  0
 37 35  2  0  0  0  0
 38 42  1  6  0  0  0
 38 40  1  0  0  0  0
 38 37  1  0  0  0  0
 39 34  1  0  0  0  0
 40 41  1  0  0  0  0
 41 36  1  0  0  0  0
 43 42  1  0  0  0  0
 44 43  1  0  0  0  0
 46 45  1  0  0  0  0
 47 44  1  1  0  0  0
 48 45  1  0  0  0  0
 49 53  1  0  0  0  0
 49 52  1  1  0  0  0
 49 47  1  0  0  0  0
 50 53  1  0  0  0  0
 50 51  1  0  0  0  0
 50 46  1  1  0  0  0
 51 54  1  6  0  0  0
 51 47  1  0  0  0  0
 51 48  1  0  0  0  0
M  END
>  <MODEL>
2

>  <REMARK>
 VINA RESULT:      -6.5      1.549      2.188
  Name = 
  19 active torsions:
  status: ('A' for Active; 'I' for Inactive)
    1  A    between atoms: C_1  and  C_42
    2  A    between atoms: C_1  and  C_44
    3  A    between atoms: C_5  and  N_7
    4  A    between atoms: C_5  and  C_32
    5  A    between atoms: N_7  and  C_54
    6  A    between atoms: C_8  and  C_25
    7  A    between atoms: C_9  and  C_39
    8  A    between atoms: C_10  and  C_19
    9  A    between atoms: C_13  and  C_43
   10  A    between atoms: C_18  and  C_39
   11  A    between atoms: C_18  and  C_51
   12  A    between atoms: C_25  and  C_42
   13  A    between atoms: O_28  and  C_33
   14  A    between atoms: O_28  and  C_45
   15  A    between atoms: C_30  and  C_37
   16  A    between atoms: C_32  and  C_51
   17  A    between atoms: C_34  and  N_40
   18  A    between atoms: C_37  and  C_45
   19  A    between atoms: C_42  and  C_54
                            x       y       z     vdW  Elec       q    Type
                         _______ _______ _______ _____ _____    ______ ____

>  <TORSDO>
F 19

$$$$
=
 OpenBabel10232411293D

 54 57  0  0  1  0  0  0  0  0999 V2000
  190.5930  176.8710  144.1620 C   0  0  0  0  0  0  0  0  0  0  0  0
  190.5370  177.2800  146.5310 C   0  0  0  0  0  0  0  0  0  0  0  0
  189.8610  177.1120  145.2260 C   0  0  0  0  0  0  0  0  0  0  0  0
  187.7190  178.1950  145.7740 C   0  0  0  0  0  3  0  0  0  0  0  0
  189.8200  177.3650  147.7710 N   0  0  0  0  0  0  0  0  0  0  0  0
  188.3590  176.9750  145.1920 C   0  0  1  0  0  3  0  0  0  0  0  0
  192.2180  175.5770  143.1790 F   0  0  0  0  0  0  0  0  0  0  0  0
  191.3360  176.6080  143.1160 C   0  0  0  0  0  0  0  0  0  0  0  0
  188.6370  177.8560  148.0110 C   0  0  0  0  0  0  0  0  0  0  0  0
  187.8530  178.5350  147.0170 N   0  0  0  0  0  0  0  0  0  0  0  0
  191.7970  177.2720  146.5770 O   0  0  0  0  0  0  0  0  0  0  0  0
  188.1790  177.8810  149.3560 N   0  0  0  0  0  1  0  0  0  0  0  0
  186.8620  177.3840  143.2770 C   0  0  0  0  0  0  0  0  0  0  0  0
  188.3350  175.4830  143.0770 C   0  0  0  0  0  1  0  0  0  0  0  0
  187.7680  176.6280  143.8440 C   0  0  0  0  0  0  0  0  0  0  0  0
  185.9490  178.1440  142.7410 C   0  0  0  0  0  3  0  0  0  0  0  0
  184.5100  177.7930  142.8900 C   0  0  0  0  0  2  0  0  0  0  0  0
  183.6340  178.9680  142.4680 C   0  0  2  0  0  3  0  0  0  0  0  0
  182.5480  179.2270  143.5070 C   0  0  0  0  0  2  0  0  0  0  0  0
  181.1760  179.0050  142.9010 C   0  0  0  0  0  2  0  0  0  0  0  0
  180.1630  178.7990  144.0050 C   0  0  0  0  0  1  0  0  0  0  0  0
  183.0260  178.7310  141.0880 C   0  0  0  0  0  2  0  0  0  0  0  0
  183.1220  177.3310  140.7030 N   0  0  0  0  0  2  0  0  0  0  0  0
  182.0630  177.0960  139.7350 C   0  0  0  0  0  2  0  0  0  0  0  0
  182.1360  178.1370  138.6280 C   0  0  0  0  0  2  0  0  0  0  0  0
  182.2330  177.4740  137.2560 C   0  0  0  0  0  2  0  0  0  0  0  0
  183.6070  177.6390  136.5970 C   0  0  2  0  0  3  0  0  0  0  0  0
  183.6070  177.1520  135.1560 C   0  0  0  0  0  1  0  0  0  0  0  0
  184.7130  176.9520  137.3870 C   0  0  0  0  0  2  0  0  0  0  0  0
  185.8460  177.9200  137.6970 C   0  0  0  0  0  2  0  0  0  0  0  0
  185.3810  178.9480  138.5200 O   0  0  0  0  0  1  0  0  0  0  0  0
  191.2300  177.3930  141.8780 C   0  0  0  0  0  0  0  0  0  0  0  0
  192.2510  177.9280  141.3640 O   0  0  0  0  0  0  0  0  0  0  0  0
  189.9530  177.5360  141.2560 N   0  0  0  0  0  2  0  0  0  0  0  0
  189.7600  176.2650  138.7240 C   0  0  0  0  0  3  0  0  0  0  0  0
  189.6500  177.7320  138.8750 C   0  0  0  0  0  0  0  0  0  0  0  0
  189.7400  175.6970  137.5180 C   0  0  0  0  0  3  0  0  0  0  0  0
  189.6760  176.5310  136.2660 C   0  0  2  0  0  3  0  0  0  0  0  0
  189.7550  178.3090  140.0700 C   0  0  0  0  0  3  0  0  0  0  0  0
  188.8570  177.7990  136.5050 C   0  0  0  0  0  2  0  0  0  0  0  0
  189.4670  178.6000  137.6590 C   0  0  0  0  0  2  0  0  0  0  0  0
  189.1090  175.7860  135.2300 O   0  0  0  0  0  0  0  0  0  0  0  0
  187.7770  175.5960  135.6030 C   0  0  0  0  0  2  0  0  0  0  0  0
  187.2950  174.2510  135.0980 C   0  0  0  0  0  2  0  0  0  0  0  0
  184.3540  172.7770  134.3770 O   0  0  0  0  0  0  0  0  0  0  0  0
  184.4960  171.4650  134.8610 C   0  0  0  0  0  2  0  0  0  0  0  0
  187.0060  173.3250  136.2840 C   0  0  2  0  0  3  0  0  0  0  0  0
  184.5540  173.6050  135.4920 C   0  0  0  0  0  2  0  0  0  0  0  0
  187.6760  171.9710  136.1280 C   0  0  2  0  0  3  0  0  0  0  0  0
  185.5040  171.4780  135.9900 C   0  0  2  0  0  3  0  0  0  0  0  0
  185.5430  172.9180  136.4210 C   0  0  1  0  0  0  0  0  0  0  0  0
  188.8670  172.0410  135.4030 O   0  0  0  0  0  1  0  0  0  0  0  0
  186.7690  171.1100  135.4930 O   0  0  0  0  0  0  0  0  0  0  0  0
  185.0930  173.0540  137.8650 C   0  0  0  0  0  1  0  0  0  0  0  0
  1  3  2  0  0  0  0
  2 11  2  0  0  0  0
  2  5  1  0  0  0  0
  3  2  1  0  0  0  0
  4 10  2  0  0  0  0
  5  9  2  0  0  0  0
  6 15  1  6  0  0  0
  6  3  1  0  0  0  0
  6  4  1  0  0  0  0
  8  7  1  0  0  0  0
  8  1  2  0  0  0  0
  9 12  1  0  0  0  0
 10  9  1  0  0  0  0
 13 15  2  0  0  0  0
 14 15  1  0  0  0  0
 16 17  1  0  0  0  0
 16 13  2  0  0  0  0
 18 22  1  6  0  0  0
 18 17  1  0  0  0  0
 18 19  1  0  0  0  0
 20 19  1  0  0  0  0
 20 21  1  0  0  0  0
 23 22  1  0  0  0  0
 24 23  1  0  0  0  0
 25 24  1  0  0  0  0
 26 25  1  0  0  0  0
 27 28  1  6  0  0  0
 27 26  1  0  0  0  0
 27 29  1  0  0  0  0
 29 30  1  0  0  0  0
 30 31  1  0  0  0  0
 32  8  1  0  0  0  0
 33 32  2  0  0  0  0
 34 32  1  0  0  0  0
 35 36  1  0  0  0  0
 36 39  2  0  0  0  0
 37 35  2  0  0  0  0
 38 42  1  6  0  0  0
 38 40  1  0  0  0  0
 38 37  1  0  0  0  0
 39 34  1  0  0  0  0
 40 41  1  0  0  0  0
 41 36  1  0  0  0  0
 42 43  1  0  0  0  0
 44 43  1  0  0  0  0
 45 46  1  0  0  0  0
 45 48  1  0  0  0  0
 47 44  1  6  0  0  0
 47 51  1  0  0  0  0
 48 51  1  0  0  0  0
 49 52  1  6  0  0  0
 49 47  1  0  0  0  0
 50 46  1  6  0  0  0
 50 51  1  0  0  0  0
 51 54  1  1  0  0  0
 53 50  1  0  0  0  0
 53 49  1  0  0  0  0
M  END
>  <MODEL>
3

>  <REMARK>
 VINA RESULT:      -6.4      2.946      6.529
  Name = 
  19 active torsions:
  status: ('A' for Active; 'I' for Inactive)
    1  A    between atoms: C_1  and  C_42
    2  A    between atoms: C_1  and  C_44
    3  A    between atoms: C_5  and  N_7
    4  A    between atoms: C_5  and  C_32
    5  A    between atoms: N_7  and  C_54
    6  A    between atoms: C_8  and  C_25
    7  A    between atoms: C_9  and  C_39
    8  A    between atoms: C_10  and  C_19
    9  A    between atoms: C_13  and  C_43
   10  A    between atoms: C_18  and  C_39
   11  A    between atoms: C_18  and  C_51
   12  A    between atoms: C_25  and  C_42
   13  A    between atoms: O_28  and  C_33
   14  A    between atoms: O_28  and  C_45
   15  A    between atoms: C_30  and  C_37
   16  A    between atoms: C_32  and  C_51
   17  A    between atoms: C_34  and  N_40
   18  A    between atoms: C_37  and  C_45
   19  A    between atoms: C_42  and  C_54
                            x       y       z     vdW  Elec       q    Type
                         _______ _______ _______ _____ _____    ______ ____

>  <TORSDO>
F 19

$$$$
=
 OpenBabel10232411293D

 54 57  0  0  1  0  0  0  0  0999 V2000
  190.6620  176.8980  144.0460 C   0  0  0  0  0  0  0  0  0  0  0  0
  190.5370  177.3480  146.4050 C   0  0  0  0  0  0  0  0  0  0  0  0
  189.8970  177.1220  145.0900 C   0  0  0  0  0  0  0  0  0  0  0  0
  187.6940  178.1090  145.5730 C   0  0  0  0  0  3  0  0  0  0  0  0
  189.7900  177.4200  147.6280 N   0  0  0  0  0  0  0  0  0  0  0  0
  188.4050  176.9120  145.0280 C   0  0  1  0  0  3  0  0  0  0  0  0
  192.3680  175.6670  143.1220 F   0  0  0  0  0  0  0  0  0  0  0  0
  191.4390  176.6520  143.0210 C   0  0  0  0  0  0  0  0  0  0  0  0
  188.5800  177.8570  147.8340 C   0  0  0  0  0  0  0  0  0  0  0  0
  187.7860  178.4780  146.8110 N   0  0  0  0  0  0  0  0  0  0  0  0
  191.7940  177.4020  146.4770 O   0  0  0  0  0  0  0  0  0  0  0  0
  188.0930  177.8850  149.1700 N   0  0  0  0  0  1  0  0  0  0  0  0
  187.0110  177.2670  143.0270 C   0  0  0  0  0  0  0  0  0  0  0  0
  188.4140  175.3040  143.0000 C   0  0  0  0  0  1  0  0  0  0  0  0
  187.8600  176.5110  143.6760 C   0  0  0  0  0  0  0  0  0  0  0  0
  186.1540  178.0300  142.4090 C   0  0  0  0  0  3  0  0  0  0  0  0
  184.6970  177.7410  142.5100 C   0  0  0  0  0  2  0  0  0  0  0  0
  183.8900  179.0160  142.2840 C   0  0  2  0  0  3  0  0  0  0  0  0
  182.8890  179.2250  143.4150 C   0  0  0  0  0  2  0  0  0  0  0  0
  183.4020  178.5920  144.6940 C   0  0  0  0  0  2  0  0  0  0  0  0
  184.5180  179.4380  145.2650 C   0  0  0  0  0  1  0  0  0  0  0  0
  183.1870  178.9870  140.9290 C   0  0  0  0  0  2  0  0  0  0  0  0
  182.8950  177.6230  140.5150 N   0  0  0  0  0  2  0  0  0  0  0  0
  181.4550  177.4610  140.6160 C   0  0  0  0  0  2  0  0  0  0  0  0
  180.7580  178.4590  139.7030 C   0  0  0  0  0  2  0  0  0  0  0  0
  180.7950  177.9910  138.2490 C   0  0  0  0  0  2  0  0  0  0  0  0
  180.7130  179.1420  137.2390 C   0  0  2  0  0  3  0  0  0  0  0  0
  181.0010  178.6730  135.8220 C   0  0  0  0  0  1  0  0  0  0  0  0
  181.6280  180.3010  137.6080 C   0  0  0  0  0  2  0  0  0  0  0  0
  180.8370  181.5900  137.7780 C   0  0  0  0  0  2  0  0  0  0  0  0
  181.6830  182.6130  138.2130 O   0  0  0  0  0  1  0  0  0  0  0  0
  191.3220  177.4080  141.7660 C   0  0  0  0  0  0  0  0  0  0  0  0
  192.3370  177.9360  141.2340 O   0  0  0  0  0  0  0  0  0  0  0  0
  190.0410  177.5280  141.1480 N   0  0  0  0  0  2  0  0  0  0  0  0
  189.6800  176.1900  138.6700 C   0  0  0  0  0  3  0  0  0  0  0  0
  189.6490  177.6650  138.7750 C   0  0  0  0  0  0  0  0  0  0  0  0
  189.5820  175.5870  137.4850 C   0  0  0  0  0  3  0  0  0  0  0  0
  189.5060  176.3830  136.2090 C   0  0  2  0  0  3  0  0  0  0  0  0
  189.8310  178.2730  139.9460 C   0  0  0  0  0  3  0  0  0  0  0  0
  188.7610  177.6970  136.4380 C   0  0  0  0  0  2  0  0  0  0  0  0
  189.4570  178.5020  137.5400 C   0  0  0  0  0  2  0  0  0  0  0  0
  188.8600  175.6350  135.2230 O   0  0  0  0  0  0  0  0  0  0  0  0
  187.6440  176.2860  135.0080 C   0  0  0  0  0  2  0  0  0  0  0  0
  186.5020  175.3230  135.2560 C   0  0  0  0  0  2  0  0  0  0  0  0
  183.2680  175.7500  134.4160 O   0  0  0  0  0  0  0  0  0  0  0  0
  182.5550  175.2310  135.5100 C   0  0  0  0  0  2  0  0  0  0  0  0
  185.7900  175.6880  136.5620 C   0  0  2  0  0  3  0  0  0  0  0  0
  184.0720  176.7690  134.9510 C   0  0  0  0  0  2  0  0  0  0  0  0
  185.3790  174.4560  137.3520 C   0  0  2  0  0  3  0  0  0  0  0  0
  183.4230  175.3410  136.7440 C   0  0  2  0  0  3  0  0  0  0  0  0
  184.4450  176.3800  136.3730 C   0  0  1  0  0  0  0  0  0  0  0  0
  186.2430  173.3770  137.1510 O   0  0  0  0  0  1  0  0  0  0  0  0
  184.0740  174.1130  136.9710 O   0  0  0  0  0  0  0  0  0  0  0  0
  184.3390  177.5830  137.2940 C   0  0  0  0  0  1  0  0  0  0  0  0
  1  3  2  0  0  0  0
  2 11  2  0  0  0  0
  2  5  1  0  0  0  0
  3  2  1  0  0  0  0
  4 10  2  0  0  0  0
  5  9  2  0  0  0  0
  6 15  1  6  0  0  0
  6  3  1  0  0  0  0
  6  4  1  0  0  0  0
  8  7  1  0  0  0  0
  8  1  2  0  0  0  0
  9 12  1  0  0  0  0
 10  9  1  0  0  0  0
 13 15  2  0  0  0  0
 14 15  1  0  0  0  0
 16 17  1  0  0  0  0
 16 13  2  0  0  0  0
 18 22  1  6  0  0  0
 18 17  1  0  0  0  0
 18 19  1  0  0  0  0
 19 20  1  0  0  0  0
 20 21  1  0  0  0  0
 23 24  1  0  0  0  0
 23 22  1  0  0  0  0
 25 24  1  0  0  0  0
 26 25  1  0  0  0  0
 27 28  1  6  0  0  0
 27 29  1  0  0  0  0
 27 26  1  0  0  0  0
 29 30  1  0  0  0  0
 30 31  1  0  0  0  0
 32  8  1  0  0  0  0
 33 32  2  0  0  0  0
 34 32  1  0  0  0  0
 35 36  1  0  0  0  0
 36 39  2  0  0  0  0
 37 35  2  0  0  0  0
 38 42  1  6  0  0  0
 38 40  1  0  0  0  0
 38 37  1  0  0  0  0
 39 34  1  0  0  0  0
 40 41  1  0  0  0  0
 41 36  1  0  0  0  0
 43 42  1  0  0  0  0
 43 44  1  0  0  0  0
 45 48  1  0  0  0  0
 45 46  1  0  0  0  0
 47 44  1  6  0  0  0
 47 49  1  0  0  0  0
 48 51  1  0  0  0  0
 49 52  1  6  0  0  0
 50 46  1  6  0  0  0
 50 53  1  0  0  0  0
 51 47  1  0  0  0  0
 51 50  1  0  0  0  0
 51 54  1  1  0  0  0
 53 49  1  0  0  0  0
M  END
>  <MODEL>
4

>  <REMARK>
 VINA RESULT:      -6.1      3.005      7.339
  Name = 
  19 active torsions:
  status: ('A' for Active; 'I' for Inactive)
    1  A    between atoms: C_1  and  C_42
    2  A    between atoms: C_1  and  C_44
    3  A    between atoms: C_5  and  N_7
    4  A    between atoms: C_5  and  C_32
    5  A    between atoms: N_7  and  C_54
    6  A    between atoms: C_8  and  C_25
    7  A    between atoms: C_9  and  C_39
    8  A    between atoms: C_10  and  C_19
    9  A    between atoms: C_13  and  C_43
   10  A    between atoms: C_18  and  C_39
   11  A    between atoms: C_18  and  C_51
   12  A    between atoms: C_25  and  C_42
   13  A    between atoms: O_28  and  C_33
   14  A    between atoms: O_28  and  C_45
   15  A    between atoms: C_30  and  C_37
   16  A    between atoms: C_32  and  C_51
   17  A    between atoms: C_34  and  N_40
   18  A    between atoms: C_37  and  C_45
   19  A    between atoms: C_42  and  C_54
                            x       y       z     vdW  Elec       q    Type
                         _______ _______ _______ _____ _____    ______ ____

>  <TORSDO>
F 19

$$$$
=
 OpenBabel10232411293D

 54 57  0  0  1  0  0  0  0  0999 V2000
  189.9820  176.9430  144.3730 C   0  0  0  0  0  0  0  0  0  0  0  0
  190.0460  177.2700  146.7550 C   0  0  0  0  0  0  0  0  0  0  0  0
  189.3140  177.2190  145.4710 C   0  0  0  0  0  0  0  0  0  0  0  0
  187.3150  178.4960  146.1300 C   0  0  0  0  0  3  0  0  0  0  0  0
  189.3830  177.3830  148.0220 N   0  0  0  0  0  0  0  0  0  0  0  0
  187.8060  177.2390  145.4860 C   0  0  1  0  0  3  0  0  0  0  0  0
  191.4310  175.5260  143.2910 F   0  0  0  0  0  0  0  0  0  0  0  0
  190.6590  176.6430  143.2930 C   0  0  0  0  0  0  0  0  0  0  0  0
  188.2650  177.9840  148.3200 C   0  0  0  0  0  0  0  0  0  0  0  0
  187.5250  178.7750  147.3780 N   0  0  0  0  0  0  0  0  0  0  0  0
  191.2990  177.1300  146.7550 O   0  0  0  0  0  0  0  0  0  0  0  0
  187.8570  178.0070  149.6810 N   0  0  0  0  0  1  0  0  0  0  0  0
  186.3590  177.9030  143.6040 C   0  0  0  0  0  0  0  0  0  0  0  0
  187.4920  175.7850  143.3670 C   0  0  0  0  0  1  0  0  0  0  0  0
  187.1380  177.0030  144.1500 C   0  0  0  0  0  0  0  0  0  0  0  0
  185.5740  178.8070  143.0900 C   0  0  0  0  0  3  0  0  0  0  0  0
  184.1000  178.6970  143.2680 C   0  0  0  0  0  2  0  0  0  0  0  0
  183.3890  178.9450  141.9410 C   0  0  2  0  0  3  0  0  0  0  0  0
  181.9410  178.4730  142.0130 C   0  0  0  0  0  2  0  0  0  0  0  0
  181.3060  178.9190  143.3160 C   0  0  0  0  0  2  0  0  0  0  0  0
  180.2830  179.9970  143.0380 C   0  0  0  0  0  1  0  0  0  0  0  0
  184.1280  178.2710  140.7880 C   0  0  0  0  0  2  0  0  0  0  0  0
  184.6870  179.2540  139.8720 N   0  0  0  0  0  2  0  0  0  0  0  0
  185.6250  178.5400  139.0230 C   0  0  0  0  0  2  0  0  0  0  0  0
  184.9600  178.1910  137.7000 C   0  0  0  0  0  2  0  0  0  0  0  0
  185.3990  176.8130  137.2110 C   0  0  0  0  0  2  0  0  0  0  0  0
  184.2280  175.9120  136.8010 C   0  0  2  0  0  3  0  0  0  0  0  0
  183.5360  175.2980  138.0070 C   0  0  0  0  0  1  0  0  0  0  0  0
  184.6500  174.8240  135.8230 C   0  0  0  0  0  2  0  0  0  0  0  0
  183.5990  174.6240  134.7400 C   0  0  0  0  0  2  0  0  0  0  0  0
  182.9270  175.8250  134.5020 O   0  0  0  0  0  1  0  0  0  0  0  0
  190.5960  177.4790  142.0860 C   0  0  0  0  0  0  0  0  0  0  0  0
  191.6370  178.0170  141.6180 O   0  0  0  0  0  0  0  0  0  0  0  0
  189.3370  177.6670  141.4410 N   0  0  0  0  0  2  0  0  0  0  0  0
  189.6180  176.5640  138.8400 C   0  0  0  0  0  3  0  0  0  0  0  0
  189.2950  177.9910  139.0540 C   0  0  0  0  0  0  0  0  0  0  0  0
  189.8170  176.0840  137.6120 C   0  0  0  0  0  3  0  0  0  0  0  0
  189.7910  176.9890  136.4090 C   0  0  2  0  0  3  0  0  0  0  0  0
  189.1790  178.4910  140.2830 C   0  0  0  0  0  3  0  0  0  0  0  0
  188.7880  178.1240  136.6100 C   0  0  0  0  0  2  0  0  0  0  0  0
  189.1430  178.9120  137.8740 C   0  0  0  0  0  2  0  0  0  0  0  0
  189.4560  176.2540  135.2700 O   0  0  0  0  0  0  0  0  0  0  0  0
  190.6620  176.0530  134.5970 C   0  0  0  0  0  2  0  0  0  0  0  0
  191.5920  175.2220  135.4560 C   0  0  0  0  0  2  0  0  0  0  0  0
  193.5930  175.5230  138.1490 O   0  0  0  0  0  0  0  0  0  0  0  0
  194.7280  174.7620  137.8230 C   0  0  0  0  0  2  0  0  0  0  0  0
  193.0160  175.2900  134.8960 C   0  0  2  0  0  3  0  0  0  0  0  0
  193.4990  176.4940  137.1400 C   0  0  0  0  0  2  0  0  0  0  0  0
  193.6060  173.9090  134.6640 C   0  0  2  0  0  3  0  0  0  0  0  0
  194.8640  174.7230  136.3170 C   0  0  2  0  0  3  0  0  0  0  0  0
  194.0400  175.8920  135.8520 C   0  0  1  0  0  0  0  0  0  0  0  0
  192.6350  172.9570  134.3460 O   0  0  0  0  0  1  0  0  0  0  0  0
  194.2960  173.5330  135.8250 O   0  0  0  0  0  0  0  0  0  0  0  0
  194.9100  176.9010  135.1230 C   0  0  0  0  0  1  0  0  0  0  0  0
  1  3  2  0  0  0  0
  2  5  1  0  0  0  0
  3  6  1  0  0  0  0
  3  2  1  0  0  0  0
  4 10  2  0  0  0  0
  5  9  2  0  0  0  0
  6 15  1  6  0  0  0
  6  4  1  0  0  0  0
  7  8  1  0  0  0  0
  8  1  2  0  0  0  0
  9 12  1  0  0  0  0
 10  9  1  0  0  0  0
 11  2  2  0  0  0  0
 13 15  2  0  0  0  0
 14 15  1  0  0  0  0
 16 17  1  0  0  0  0
 16 13  2  0  0  0  0
 18 22  1  6  0  0  0
 18 19  1  0  0  0  0
 18 17  1  0  0  0  0
 19 20  1  0  0  0  0
 21 20  1  0  0  0  0
 23 22  1  0  0  0  0
 24 23  1  0  0  0  0
 25 24  1  0  0  0  0
 26 25  1  0  0  0  0
 27 26  1  0  0  0  0
 27 28  1  1  0  0  0
 29 27  1  0  0  0  0
 30 29  1  0  0  0  0
 31 30  1  0  0  0  0
 32  8  1  0  0  0  0
 33 32  2  0  0  0  0
 34 32  1  0  0  0  0
 35 36  1  0  0  0  0
 36 39  2  0  0  0  0
 37 35  2  0  0  0  0
 38 42  1  6  0  0  0
 38 40  1  0  0  0  0
 38 37  1  0  0  0  0
 39 34  1  0  0  0  0
 40 41  1  0  0  0  0
 41 36  1  0  0  0  0
 43 42  1  0  0  0  0
 43 44  1  0  0  0  0
 46 45  1  0  0  0  0
 47 44  1  1  0  0  0
 47 51  1  0  0  0  0
 48 45  1  0  0  0  0
 49 52  1  1  0  0  0
 49 47  1  0  0  0  0
 49 53  1  0  0  0  0
 50 46  1  1  0  0  0
 51 54  1  6  0  0  0
 51 50  1  0  0  0  0
 51 48  1  0  0  0  0
 53 50  1  0  0  0  0
M  END
>  <MODEL>
5

>  <REMARK>
 VINA RESULT:      -6.0      2.506      7.467
  Name = 
  19 active torsions:
  status: ('A' for Active; 'I' for Inactive)
    1  A    between atoms: C_1  and  C_42
    2  A    between atoms: C_1  and  C_44
    3  A    between atoms: C_5  and  N_7
    4  A    between atoms: C_5  and  C_32
    5  A    between atoms: N_7  and  C_54
    6  A    between atoms: C_8  and  C_25
    7  A    between atoms: C_9  and  C_39
    8  A    between atoms: C_10  and  C_19
    9  A    between atoms: C_13  and  C_43
   10  A    between atoms: C_18  and  C_39
   11  A    between atoms: C_18  and  C_51
   12  A    between atoms: C_25  and  C_42
   13  A    between atoms: O_28  and  C_33
   14  A    between atoms: O_28  and  C_45
   15  A    between atoms: C_30  and  C_37
   16  A    between atoms: C_32  and  C_51
   17  A    between atoms: C_34  and  N_40
   18  A    between atoms: C_37  and  C_45
   19  A    between atoms: C_42  and  C_54
                            x       y       z     vdW  Elec       q    Type
                         _______ _______ _______ _____ _____    ______ ____

>  <TORSDO>
F 19

$$$$
=
 OpenBabel10232411293D

 54 57  0  0  1  0  0  0  0  0999 V2000
  190.2290  176.7930  144.3500 C   0  0  0  0  0  0  0  0  0  0  0  0
  190.2250  177.3490  146.6900 C   0  0  0  0  0  0  0  0  0  0  0  0
  189.5210  177.1090  145.4110 C   0  0  0  0  0  0  0  0  0  0  0  0
  187.4040  178.2520  145.9300 C   0  0  0  0  0  3  0  0  0  0  0  0
  189.5330  177.5210  147.9360 N   0  0  0  0  0  0  0  0  0  0  0  0
  188.0180  176.9900  145.4130 C   0  0  1  0  0  3  0  0  0  0  0  0
  191.8190  175.4190  143.4210 F   0  0  0  0  0  0  0  0  0  0  0  0
  190.9490  176.4550  143.3100 C   0  0  0  0  0  0  0  0  0  0  0  0
  188.3610  178.0410  148.1660 C   0  0  0  0  0  0  0  0  0  0  0  0
  187.5660  178.6670  147.1470 N   0  0  0  0  0  0  0  0  0  0  0  0
  191.4850  177.3270  146.7130 O   0  0  0  0  0  0  0  0  0  0  0  0
  187.9300  178.1560  149.5160 N   0  0  0  0  0  1  0  0  0  0  0  0
  186.8810  177.4410  143.2730 C   0  0  0  0  0  0  0  0  0  0  0  0
  187.5050  175.1440  143.6740 C   0  0  0  0  0  1  0  0  0  0  0  0
  187.3960  176.5670  144.1010 C   0  0  0  0  0  0  0  0  0  0  0  0
  186.3610  178.3280  142.4730 C   0  0  0  0  0  3  0  0  0  0  0  0
  184.8940  178.5790  142.4990 C   0  0  0  0  0  2  0  0  0  0  0  0
  184.2920  178.3310  141.1190 C   0  0  2  0  0  3  0  0  0  0  0  0
  184.8690  179.3070  140.0990 C   0  0  0  0  0  2  0  0  0  0  0  0
  184.9350  178.6580  138.7300 C   0  0  0  0  0  2  0  0  0  0  0  0
  186.2990  178.0350  138.5310 C   0  0  0  0  0  1  0  0  0  0  0  0
  182.7690  178.4190  141.1610 C   0  0  0  0  0  2  0  0  0  0  0  0
  182.1560  177.3060  140.4500 N   0  0  0  0  0  2  0  0  0  0  0  0
  181.5060  177.8730  139.2810 C   0  0  0  0  0  2  0  0  0  0  0  0
  181.7130  176.9590  138.0820 C   0  0  0  0  0  2  0  0  0  0  0  0
  182.5390  175.7320  138.4630 C   0  0  0  0  0  2  0  0  0  0  0  0
  183.0910  174.9720  137.2510 C   0  0  2  0  0  3  0  0  0  0  0  0
  182.3340  173.6770  137.0020 C   0  0  0  0  0  1  0  0  0  0  0  0
  184.5840  174.6980  137.3720 C   0  0  0  0  0  2  0  0  0  0  0  0
  184.9210  173.2880  136.9060 C   0  0  0  0  0  2  0  0  0  0  0  0
  186.2070  172.9430  137.3270 O   0  0  0  0  0  1  0  0  0  0  0  0
  190.8280  177.1640  142.0270 C   0  0  0  0  0  0  0  0  0  0  0  0
  191.6310  178.0890  141.7230 O   0  0  0  0  0  0  0  0  0  0  0  0
  189.7940  176.7820  141.1210 N   0  0  0  0  0  2  0  0  0  0  0  0
  191.0220  175.8000  138.7570 C   0  0  0  0  0  3  0  0  0  0  0  0
  190.1410  176.9890  138.7460 C   0  0  0  0  0  0  0  0  0  0  0  0
  191.6460  175.4010  137.6480 C   0  0  0  0  0  3  0  0  0  0  0  0
  191.5330  176.1840  136.3660 C   0  0  2  0  0  3  0  0  0  0  0  0
  189.5840  177.4390  139.8690 C   0  0  0  0  0  3  0  0  0  0  0  0
  190.1550  176.8330  136.2510 C   0  0  0  0  0  2  0  0  0  0  0  0
  189.9040  177.7360  137.4620 C   0  0  0  0  0  2  0  0  0  0  0  0
  191.7550  175.3410  135.2760 O   0  0  0  0  0  0  0  0  0  0  0  0
  192.9670  175.7640  134.7280 C   0  0  0  0  0  2  0  0  0  0  0  0
  193.9370  174.6020  134.6800 C   0  0  0  0  0  2  0  0  0  0  0  0
  194.8150  171.3900  135.1850 O   0  0  0  0  0  0  0  0  0  0  0  0
  196.1440  171.4610  135.6380 C   0  0  0  0  0  2  0  0  0  0  0  0
  194.8260  174.6170  135.9280 C   0  0  2  0  0  3  0  0  0  0  0  0
  194.0710  172.1440  136.1040 C   0  0  0  0  0  2  0  0  0  0  0  0
  196.2770  174.9180  135.5920 C   0  0  2  0  0  3  0  0  0  0  0  0
  196.3510  172.8040  136.3030 C   0  0  2  0  0  3  0  0  0  0  0  0
  194.9570  173.2670  136.6230 C   0  0  1  0  0  0  0  0  0  0  0  0
  196.4090  175.7380  134.4700 O   0  0  0  0  0  1  0  0  0  0  0  0
  196.9350  173.6970  135.3840 O   0  0  0  0  0  0  0  0  0  0  0  0
  194.7800  173.4280  138.1230 C   0  0  0  0  0  1  0  0  0  0  0  0
  1  3  2  0  0  0  0
  2 11  2  0  0  0  0
  2  5  1  0  0  0  0
  3  6  1  0  0  0  0
  3  2  1  0  0  0  0
  4 10  2  0  0  0  0
  5  9  2  0  0  0  0
  6 15  1  6  0  0  0
  6  4  1  0  0  0  0
  8  7  1  0  0  0  0
  8  1  2  0  0  0  0
  9 12  1  0  0  0  0
 10  9  1  0  0  0  0
 13 15  2  0  0  0  0
 14 15  1  0  0  0  0
 16 17  1  0  0  0  0
 16 13  2  0  0  0  0
 18 19  1  6  0  0  0
 18 22  1  0  0  0  0
 18 17  1  0  0  0  0
 20 19  1  0  0  0  0
 21 20  1  0  0  0  0
 23 22  1  0  0  0  0
 24 23  1  0  0  0  0
 25 26  1  0  0  0  0
 25 24  1  0  0  0  0
 27 28  1  1  0  0  0
 27 29  1  0  0  0  0
 27 26  1  0  0  0  0
 30 31  1  0  0  0  0
 30 29  1  0  0  0  0
 32  8  1  0  0  0  0
 33 32  2  0  0  0  0
 34 32  1  0  0  0  0
 36 35  1  0  0  0  0
 36 39  2  0  0  0  0
 37 35  2  0  0  0  0
 38 42  1  6  0  0  0
 38 37  1  0  0  0  0
 39 34  1  0  0  0  0
 40 38  1  0  0  0  0
 40 41  1  0  0  0  0
 41 36  1  0  0  0  0
 43 42  1  0  0  0  0
 44 43  1  0  0  0  0
 45 46  1  0  0  0  0
 45 48  1  0  0  0  0
 47 44  1  6  0  0  0
 47 51  1  0  0  0  0
 48 51  1  0  0  0  0
 49 52  1  6  0  0  0
 49 47  1  0  0  0  0
 50 46  1  6  0  0  0
 50 51  1  0  0  0  0
 51 54  1  1  0  0  0
 53 49  1  0  0  0  0
 53 50  1  0  0  0  0
M  END
>  <MODEL>
6

>  <REMARK>
 VINA RESULT:      -5.5      2.577      7.949
  Name = 
  19 active torsions:
  status: ('A' for Active; 'I' for Inactive)
    1  A    between atoms: C_1  and  C_42
    2  A    between atoms: C_1  and  C_44
    3  A    between atoms: C_5  and  N_7
    4  A    between atoms: C_5  and  C_32
    5  A    between atoms: N_7  and  C_54
    6  A    between atoms: C_8  and  C_25
    7  A    between atoms: C_9  and  C_39
    8  A    between atoms: C_10  and  C_19
    9  A    between atoms: C_13  and  C_43
   10  A    between atoms: C_18  and  C_39
   11  A    between atoms: C_18  and  C_51
   12  A    between atoms: C_25  and  C_42
   13  A    between atoms: O_28  and  C_33
   14  A    between atoms: O_28  and  C_45
   15  A    between atoms: C_30  and  C_37
   16  A    between atoms: C_32  and  C_51
   17  A    between atoms: C_34  and  N_40
   18  A    between atoms: C_37  and  C_45
   19  A    between atoms: C_42  and  C_54
                            x       y       z     vdW  Elec       q    Type
                         _______ _______ _______ _____ _____    ______ ____

>  <TORSDO>
F 19

$$$$
=
 OpenBabel10232411293D

 54 57  0  0  1  0  0  0  0  0999 V2000
  190.2640  176.9610  144.3790 C   0  0  0  0  0  0  0  0  0  0  0  0
  190.2330  177.3690  146.7490 C   0  0  0  0  0  0  0  0  0  0  0  0
  189.5450  177.2250  145.4470 C   0  0  0  0  0  0  0  0  0  0  0  0
  187.4440  178.3790  146.0050 C   0  0  0  0  0  3  0  0  0  0  0  0
  189.5240  177.4760  147.9920 N   0  0  0  0  0  0  0  0  0  0  0  0
  188.0400  177.1390  145.4190 C   0  0  1  0  0  3  0  0  0  0  0  0
  191.8400  175.6150  143.3880 F   0  0  0  0  0  0  0  0  0  0  0  0
  190.9930  176.6750  143.3300 C   0  0  0  0  0  0  0  0  0  0  0  0
  188.3590  178.0060  148.2380 C   0  0  0  0  0  0  0  0  0  0  0  0
  187.5950  178.7120  147.2480 N   0  0  0  0  0  0  0  0  0  0  0  0
  191.4920  177.3180  146.7900 O   0  0  0  0  0  0  0  0  0  0  0  0
  187.9090  178.0450  149.5860 N   0  0  0  0  0  1  0  0  0  0  0  0
  186.6570  177.6640  143.4470 C   0  0  0  0  0  0  0  0  0  0  0  0
  187.8400  175.5610  143.3770 C   0  0  0  0  0  1  0  0  0  0  0  0
  187.4310  176.8140  144.0740 C   0  0  0  0  0  0  0  0  0  0  0  0
  185.8770  178.5210  142.8510 C   0  0  0  0  0  3  0  0  0  0  0  0
  184.4000  178.3900  142.9770 C   0  0  0  0  0  2  0  0  0  0  0  0
  183.7640  178.2350  141.5990 C   0  0  2  0  0  3  0  0  0  0  0  0
  184.6020  178.9430  140.5400 C   0  0  0  0  0  2  0  0  0  0  0  0
  185.1240  177.9430  139.5260 C   0  0  0  0  0  2  0  0  0  0  0  0
  185.5100  178.6660  138.2550 C   0  0  0  0  0  1  0  0  0  0  0  0
  182.3280  178.7500  141.5960 C   0  0  0  0  0  2  0  0  0  0  0  0
  181.6490  178.4130  140.3530 N   0  0  0  0  0  2  0  0  0  0  0  0
  180.6540  177.4070  140.6870 C   0  0  0  0  0  2  0  0  0  0  0  0
  179.9910  176.8960  139.4170 C   0  0  0  0  0  2  0  0  0  0  0  0
  180.9970  176.1680  138.5270 C   0  0  0  0  0  2  0  0  0  0  0  0
  180.4700  174.8370  137.9780 C   0  0  2  0  0  3  0  0  0  0  0  0
  180.0040  173.9110  139.0900 C   0  0  0  0  0  1  0  0  0  0  0  0
  181.4900  174.1310  137.0950 C   0  0  0  0  0  2  0  0  0  0  0  0
  182.8290  174.8550  137.1190 C   0  0  0  0  0  2  0  0  0  0  0  0
  183.1860  175.2360  135.8240 O   0  0  0  0  0  1  0  0  0  0  0  0
  190.9090  177.4650  142.0940 C   0  0  0  0  0  0  0  0  0  0  0  0
  191.8840  178.1690  141.7100 O   0  0  0  0  0  0  0  0  0  0  0  0
  189.7080  177.4170  141.3220 N   0  0  0  0  0  2  0  0  0  0  0  0
  189.9640  176.1840  138.7780 C   0  0  0  0  0  3  0  0  0  0  0  0
  189.6330  177.6180  138.9230 C   0  0  0  0  0  0  0  0  0  0  0  0
  190.1520  175.6440  137.5730 C   0  0  0  0  0  3  0  0  0  0  0  0
  190.1020  176.4860  136.3260 C   0  0  2  0  0  3  0  0  0  0  0  0
  189.5290  178.1790  140.1270 C   0  0  0  0  0  3  0  0  0  0  0  0
  189.0930  177.6220  136.4830 C   0  0  0  0  0  2  0  0  0  0  0  0
  189.4580  178.4760  137.7000 C   0  0  0  0  0  2  0  0  0  0  0  0
  189.7580  175.6900  135.2310 O   0  0  0  0  0  0  0  0  0  0  0  0
  190.9450  175.5200  134.5160 C   0  0  0  0  0  2  0  0  0  0  0  0
  191.9820  174.8620  135.4020 C   0  0  0  0  0  2  0  0  0  0  0  0
  193.9560  175.5120  138.0530 O   0  0  0  0  0  0  0  0  0  0  0  0
  195.1750  174.8870  137.7380 C   0  0  0  0  0  2  0  0  0  0  0  0
  193.3810  175.0870  134.8190 C   0  0  2  0  0  3  0  0  0  0  0  0
  193.7310  176.4250  137.0110 C   0  0  0  0  0  2  0  0  0  0  0  0
  194.1370  173.7830  134.6280 C   0  0  2  0  0  3  0  0  0  0  0  0
  195.2990  174.8100  136.2320 C   0  0  2  0  0  3  0  0  0  0  0  0
  194.3300  175.8480  135.7380 C   0  0  1  0  0  0  0  0  0  0  0  0
  193.2900  172.7050  134.3600 O   0  0  0  0  0  1  0  0  0  0  0  0
  194.8810  173.5400  135.7920 O   0  0  0  0  0  0  0  0  0  0  0  0
  195.0590  176.9290  134.9600 C   0  0  0  0  0  1  0  0  0  0  0  0
  1  3  2  0  0  0  0
  2 11  2  0  0  0  0
  2  5  1  0  0  0  0
  3  2  1  0  0  0  0
  4 10  2  0  0  0  0
  5  9  2  0  0  0  0
  6 15  1  6  0  0  0
  6  3  1  0  0  0  0
  6  4  1  0  0  0  0
  8  7  1  0  0  0  0
  8  1  2  0  0  0  0
  9 12  1  0  0  0  0
 10  9  1  0  0  0  0
 13 15  2  0  0  0  0
 14 15  1  0  0  0  0
 16 17  1  0  0  0  0
 16 13  2  0  0  0  0
 18 19  1  6  0  0  0
 18 17  1  0  0  0  0
 20 19  1  0  0  0  0
 21 20  1  0  0  0  0
 22 18  1  0  0  0  0
 23 24  1  0  0  0  0
 23 22  1  0  0  0  0
 25 24  1  0  0  0  0
 26 25  1  0  0  0  0
 27 26  1  0  0  0  0
 27 28  1  1  0  0  0
 29 30  1  0  0  0  0
 29 27  1  0  0  0  0
 31 30  1  0  0  0  0
 32  8  1  0  0  0  0
 33 32  2  0  0  0  0
 34 32  1  0  0  0  0
 35 36  1  0  0  0  0
 36 39  2  0  0  0  0
 37 35  2  0  0  0  0
 38 42  1  6  0  0  0
 38 40  1  0  0  0  0
 38 37  1  0  0  0  0
 39 34  1  0  0  0  0
 40 41  1  0  0  0  0
 41 36  1  0  0  0  0
 43 42  1  0  0  0  0
 43 44  1  0  0  0  0
 46 45  1  0  0  0  0
 47 44  1  1  0  0  0
 47 51  1  0  0  0  0
 48 45  1  0  0  0  0
 49 52  1  1  0  0  0
 49 47  1  0  0  0  0
 49 53  1  0  0  0  0
 50 46  1  1  0  0  0
 51 54  1  6  0  0  0
 51 50  1  0  0  0  0
 51 48  1  0  0  0  0
 53 50  1  0  0  0  0
M  END
>  <MODEL>
7

>  <REMARK>
 VINA RESULT:      -5.5      2.637      8.056
  Name = 
  19 active torsions:
  status: ('A' for Active; 'I' for Inactive)
    1  A    between atoms: C_1  and  C_42
    2  A    between atoms: C_1  and  C_44
    3  A    between atoms: C_5  and  N_7
    4  A    between atoms: C_5  and  C_32
    5  A    between atoms: N_7  and  C_54
    6  A    between atoms: C_8  and  C_25
    7  A    between atoms: C_9  and  C_39
    8  A    between atoms: C_10  and  C_19
    9  A    between atoms: C_13  and  C_43
   10  A    between atoms: C_18  and  C_39
   11  A    between atoms: C_18  and  C_51
   12  A    between atoms: C_25  and  C_42
   13  A    between atoms: O_28  and  C_33
   14  A    between atoms: O_28  and  C_45
   15  A    between atoms: C_30  and  C_37
   16  A    between atoms: C_32  and  C_51
   17  A    between atoms: C_34  and  N_40
   18  A    between atoms: C_37  and  C_45
   19  A    between atoms: C_42  and  C_54
                            x       y       z     vdW  Elec       q    Type
                         _______ _______ _______ _____ _____    ______ ____

>  <TORSDO>
F 19

$$$$
=
 OpenBabel10232411293D

 54 57  0  0  1  0  0  0  0  0999 V2000
  190.7060  176.7920  144.2290 C   0  0  0  0  0  0  0  0  0  0  0  0
  190.6220  177.3010  146.5780 C   0  0  0  0  0  0  0  0  0  0  0  0
  189.9620  177.0790  145.2740 C   0  0  0  0  0  0  0  0  0  0  0  0
  187.8160  178.1860  145.7480 C   0  0  0  0  0  3  0  0  0  0  0  0
  189.8900  177.4390  147.8050 N   0  0  0  0  0  0  0  0  0  0  0  0
  188.4610  176.9420  145.2260 C   0  0  1  0  0  3  0  0  0  0  0  0
  192.3410  175.4560  143.3220 F   0  0  0  0  0  0  0  0  0  0  0  0
  191.4620  176.4840  143.2050 C   0  0  0  0  0  0  0  0  0  0  0  0
  188.7050  177.9410  148.0090 C   0  0  0  0  0  0  0  0  0  0  0  0
  187.9350  178.5780  146.9770 N   0  0  0  0  0  0  0  0  0  0  0  0
  191.8820  177.2930  146.6400 O   0  0  0  0  0  0  0  0  0  0  0  0
  188.2310  178.0240  149.3470 N   0  0  0  0  0  1  0  0  0  0  0  0
  187.0190  177.2930  143.2580 C   0  0  0  0  0  0  0  0  0  0  0  0
  188.4260  175.3330  143.1990 C   0  0  0  0  0  1  0  0  0  0  0  0
  187.8850  176.5400  143.8870 C   0  0  0  0  0  0  0  0  0  0  0  0
  186.1450  178.0530  142.6600 C   0  0  0  0  0  3  0  0  0  0  0  0
  184.6920  177.7600  142.7960 C   0  0  0  0  0  2  0  0  0  0  0  0
  183.8890  179.0570  142.7840 C   0  0  2  0  0  3  0  0  0  0  0  0
  183.9370  179.7300  144.1510 C   0  0  0  0  0  2  0  0  0  0  0  0
  183.4150  178.7880  145.2190 C   0  0  0  0  0  2  0  0  0  0  0  0
  184.4690  178.6000  146.2870 C   0  0  0  0  0  1  0  0  0  0  0  0
  182.4480  178.8060  142.3470 C   0  0  0  0  0  2  0  0  0  0  0  0
  182.2550  179.1470  140.9450 N   0  0  0  0  0  2  0  0  0  0  0  0
  182.9430  178.1260  140.1750 C   0  0  0  0  0  2  0  0  0  0  0  0
  183.4110  178.7080  138.8490 C   0  0  0  0  0  2  0  0  0  0  0  0
  184.9140  178.5050  138.6610 C   0  0  0  0  0  2  0  0  0  0  0  0
  185.2550  177.4260  137.6270 C   0  0  2  0  0  3  0  0  0  0  0  0
  186.4460  177.8210  136.7680 C   0  0  0  0  0  1  0  0  0  0  0  0
  184.0640  177.0690  136.7480 C   0  0  0  0  0  2  0  0  0  0  0  0
  184.3250  175.7890  135.9660 C   0  0  0  0  0  2  0  0  0  0  0  0
  184.6070  174.7430  136.8480 O   0  0  0  0  0  1  0  0  0  0  0  0
  191.3730  177.2160  141.9340 C   0  0  0  0  0  0  0  0  0  0  0  0
  192.3090  177.9760  141.5600 O   0  0  0  0  0  0  0  0  0  0  0  0
  190.2130  177.0490  141.1180 N   0  0  0  0  0  2  0  0  0  0  0  0
  190.8150  175.7890  138.6460 C   0  0  0  0  0  3  0  0  0  0  0  0
  190.2950  177.1720  138.7140 C   0  0  0  0  0  0  0  0  0  0  0  0
  191.1600  175.2440  137.4790 C   0  0  0  0  0  3  0  0  0  0  0  0
  191.0990  176.0370  136.2010 C   0  0  2  0  0  3  0  0  0  0  0  0
  190.0300  177.7480  139.8850 C   0  0  0  0  0  3  0  0  0  0  0  0
  189.9450  177.0380  136.2430 C   0  0  0  0  0  2  0  0  0  0  0  0
  190.1060  177.9660  137.4500 C   0  0  0  0  0  2  0  0  0  0  0  0
  190.9420  175.1740  135.1150 O   0  0  0  0  0  0  0  0  0  0  0  0
  191.8710  174.1530  135.3240 C   0  0  0  0  0  2  0  0  0  0  0  0
  193.0500  174.3390  134.3920 C   0  0  0  0  0  2  0  0  0  0  0  0
  194.5400  175.7440  137.0660 O   0  0  0  0  0  0  0  0  0  0  0  0
  194.8750  174.6540  137.8880 C   0  0  0  0  0  2  0  0  0  0  0  0
  194.1750  173.3750  134.7800 C   0  0  2  0  0  3  0  0  0  0  0  0
  195.1960  175.5040  135.8490 C   0  0  0  0  0  2  0  0  0  0  0  0
  193.6850  172.2620  135.6900 C   0  0  2  0  0  3  0  0  0  0  0  0
  195.0480  173.4310  137.0140 C   0  0  2  0  0  3  0  0  0  0  0  0
  195.2690  173.9990  135.6390 C   0  0  1  0  0  0  0  0  0  0  0  0
  192.3500  171.9260  135.4560 O   0  0  0  0  0  1  0  0  0  0  0  0
  193.8580  172.6790  137.0170 O   0  0  0  0  0  0  0  0  0  0  0  0
  196.6390  173.6060  135.1140 C   0  0  0  0  0  1  0  0  0  0  0  0
  1  3  2  0  0  0  0
  2 11  2  0  0  0  0
  2  5  1  0  0  0  0
  3  2  1  0  0  0  0
  4 10  2  0  0  0  0
  5  9  2  0  0  0  0
  6 15  1  6  0  0  0
  6  3  1  0  0  0  0
  6  4  1  0  0  0  0
  8  7  1  0  0  0  0
  8  1  2  0  0  0  0
  9 12  1  0  0  0  0
 10  9  1  0  0  0  0
 13 15  2  0  0  0  0
 14 15  1  0  0  0  0
 16 17  1  0  0  0  0
 16 13  2  0  0  0  0
 18 22  1  1  0  0  0
 18 17  1  0  0  0  0
 18 19  1  0  0  0  0
 19 20  1  0  0  0  0
 20 21  1  0  0  0  0
 23 22  1  0  0  0  0
 24 23  1  0  0  0  0
 25 24  1  0  0  0  0
 26 25  1  0  0  0  0
 27 28  1  6  0  0  0
 27 26  1  0  0  0  0
 29 27  1  0  0  0  0
 30 29  1  0  0  0  0
 30 31  1  0  0  0  0
 32  8  1  0  0  0  0
 33 32  2  0  0  0  0
 34 32  1  0  0  0  0
 35 36  1  0  0  0  0
 36 39  2  0  0  0  0
 37 35  2  0  0  0  0
 38 42  1  6  0  0  0
 38 40  1  0  0  0  0
 38 37  1  0  0  0  0
 39 34  1  0  0  0  0
 40 41  1  0  0  0  0
 41 36  1  0  0  0  0
 42 43  1  0  0  0  0
 44 43  1  0  0  0  0
 45 46  1  0  0  0  0
 47 44  1  1  0  0  0
 47 51  1  0  0  0  0
 47 49  1  0  0  0  0
 48 45  1  0  0  0  0
 49 52  1  6  0  0  0
 49 53  1  0  0  0  0
 50 53  1  0  0  0  0
 50 46  1  1  0  0  0
 51 54  1  6  0  0  0
 51 48  1  0  0  0  0
 51 50  1  0  0  0  0
M  END
>  <MODEL>
8

>  <REMARK>
 VINA RESULT:      -5.4      2.491      7.929
  Name = 
  19 active torsions:
  status: ('A' for Active; 'I' for Inactive)
    1  A    between atoms: C_1  and  C_42
    2  A    between atoms: C_1  and  C_44
    3  A    between atoms: C_5  and  N_7
    4  A    between atoms: C_5  and  C_32
    5  A    between atoms: N_7  and  C_54
    6  A    between atoms: C_8  and  C_25
    7  A    between atoms: C_9  and  C_39
    8  A    between atoms: C_10  and  C_19
    9  A    between atoms: C_13  and  C_43
   10  A    between atoms: C_18  and  C_39
   11  A    between atoms: C_18  and  C_51
   12  A    between atoms: C_25  and  C_42
   13  A    between atoms: O_28  and  C_33
   14  A    between atoms: O_28  and  C_45
   15  A    between atoms: C_30  and  C_37
   16  A    between atoms: C_32  and  C_51
   17  A    between atoms: C_34  and  N_40
   18  A    between atoms: C_37  and  C_45
   19  A    between atoms: C_42  and  C_54
                            x       y       z     vdW  Elec       q    Type
                         _______ _______ _______ _____ _____    ______ ____

>  <TORSDO>
F 19

$$$$
=
 OpenBabel10232411293D

 54 57  0  0  1  0  0  0  0  0999 V2000
  190.3820  176.8810  144.3400 C   0  0  0  0  0  0  0  0  0  0  0  0
  190.3410  177.3590  146.6970 C   0  0  0  0  0  0  0  0  0  0  0  0
  189.6570  177.1520  145.4020 C   0  0  0  0  0  0  0  0  0  0  0  0
  187.5170  178.2480  145.9310 C   0  0  0  0  0  3  0  0  0  0  0  0
  189.6320  177.4800  147.9380 N   0  0  0  0  0  0  0  0  0  0  0  0
  188.1550  177.0120  145.3810 C   0  0  1  0  0  3  0  0  0  0  0  0
  192.0020  175.5610  143.3860 F   0  0  0  0  0  0  0  0  0  0  0  0
  191.1190  176.5880  143.2980 C   0  0  0  0  0  0  0  0  0  0  0  0
  188.4500  177.9760  148.1710 C   0  0  0  0  0  0  0  0  0  0  0  0
  187.6590  178.6240  147.1630 N   0  0  0  0  0  0  0  0  0  0  0  0
  191.6010  177.3540  146.7350 O   0  0  0  0  0  0  0  0  0  0  0  0
  188.0010  178.0400  149.5190 N   0  0  0  0  0  1  0  0  0  0  0  0
  186.6830  177.3890  143.4400 C   0  0  0  0  0  0  0  0  0  0  0  0
  188.0790  175.4230  143.3400 C   0  0  0  0  0  1  0  0  0  0  0  0
  187.5550  176.6250  144.0480 C   0  0  0  0  0  0  0  0  0  0  0  0
  185.8040  178.1590  142.8630 C   0  0  0  0  0  3  0  0  0  0  0  0
  184.3520  177.8730  143.0200 C   0  0  0  0  0  2  0  0  0  0  0  0
  183.5260  179.0650  142.5470 C   0  0  2  0  0  3  0  0  0  0  0  0
  182.6240  179.5710  143.6670 C   0  0  0  0  0  2  0  0  0  0  0  0
  181.1680  179.4830  143.2510 C   0  0  0  0  0  2  0  0  0  0  0  0
  180.4710  178.4190  144.0690 C   0  0  0  0  0  1  0  0  0  0  0  0
  182.7110  178.7090  141.3060 C   0  0  0  0  0  2  0  0  0  0  0  0
  183.1860  177.4750  140.6990 N   0  0  0  0  0  2  0  0  0  0  0  0
  182.7190  177.4860  139.3230 C   0  0  0  0  0  2  0  0  0  0  0  0
  183.7680  176.8600  138.4170 C   0  0  0  0  0  2  0  0  0  0  0  0
  183.1210  176.2010  137.2000 C   0  0  0  0  0  2  0  0  0  0  0  0
  182.7950  174.7190  137.4140 C   0  0  2  0  0  3  0  0  0  0  0  0
  184.0430  173.8520  137.3660 C   0  0  0  0  0  1  0  0  0  0  0  0
  181.7560  174.2060  136.4260 C   0  0  0  0  0  2  0  0  0  0  0  0
  180.7370  173.3120  137.1170 C   0  0  0  0  0  2  0  0  0  0  0  0
  180.3630  173.8740  138.3400 O   0  0  0  0  0  1  0  0  0  0  0  0
  191.0040  177.3360  142.0380 C   0  0  0  0  0  0  0  0  0  0  0  0
  191.9820  177.9960  141.5880 O   0  0  0  0  0  0  0  0  0  0  0  0
  189.7700  177.2990  141.3210 N   0  0  0  0  0  2  0  0  0  0  0  0
  190.4880  176.1580  138.8220 C   0  0  0  0  0  3  0  0  0  0  0  0
  189.8810  177.5030  138.9240 C   0  0  0  0  0  0  0  0  0  0  0  0
  190.8840  175.6730  137.6450 C   0  0  0  0  0  3  0  0  0  0  0  0
  190.7920  176.5010  136.3910 C   0  0  2  0  0  3  0  0  0  0  0  0
  189.5620  178.0240  140.1070 C   0  0  0  0  0  3  0  0  0  0  0  0
  189.5760  177.4260  136.4440 C   0  0  0  0  0  2  0  0  0  0  0  0
  189.6610  178.3230  137.6820 C   0  0  0  0  0  2  0  0  0  0  0  0
  190.7070  175.6650  135.2770 O   0  0  0  0  0  0  0  0  0  0  0  0
  191.8050  174.8090  135.3770 C   0  0  0  0  0  2  0  0  0  0  0  0
  193.0270  175.4790  134.7840 C   0  0  0  0  0  2  0  0  0  0  0  0
  195.3550  173.0450  134.7440 O   0  0  0  0  0  0  0  0  0  0  0  0
  196.5580  173.7120  135.0310 C   0  0  0  0  0  2  0  0  0  0  0  0
  194.0120  175.8430  135.8990 C   0  0  2  0  0  3  0  0  0  0  0  0
  194.5210  173.3030  135.8430 C   0  0  0  0  0  2  0  0  0  0  0  0
  195.0790  176.8150  135.4240 C   0  0  2  0  0  3  0  0  0  0  0  0
  196.2390  174.9530  135.8350 C   0  0  2  0  0  3  0  0  0  0  0  0
  194.8670  174.6800  136.3880 C   0  0  1  0  0  0  0  0  0  0  0  0
  194.6220  177.6620  134.4130 O   0  0  0  0  0  1  0  0  0  0  0  0
  196.1770  176.0660  134.9760 O   0  0  0  0  0  0  0  0  0  0  0  0
  194.9000  174.6530  137.9060 C   0  0  0  0  0  1  0  0  0  0  0  0
  1  3  2  0  0  0  0
  2 11  2  0  0  0  0
  2  5  1  0  0  0  0
  3  2  1  0  0  0  0
  4 10  2  0  0  0  0
  5  9  2  0  0  0  0
  6 15  1  6  0  0  0
  6  3  1  0  0  0  0
  6  4  1  0  0  0  0
  8  7  1  0  0  0  0
  8  1  2  0  0  0  0
  9 12  1  0  0  0  0
 10  9  1  0  0  0  0
 13 15  2  0  0  0  0
 14 15  1  0  0  0  0
 16 17  1  0  0  0  0
 16 13  2  0  0  0  0
 18 22  1  6  0  0  0
 18 17  1  0  0  0  0
 18 19  1  0  0  0  0
 20 19  1  0  0  0  0
 20 21  1  0  0  0  0
 23 22  1  0  0  0  0
 24 23  1  0  0  0  0
 25 24  1  0  0  0  0
 26 27  1  0  0  0  0
 26 25  1  0  0  0  0
 27 28  1  6  0  0  0
 29 30  1  0  0  0  0
 29 27  1  0  0  0  0
 30 31  1  0  0  0  0
 32  8  1  0  0  0  0
 33 32  2  0  0  0  0
 34 32  1  0  0  0  0
 35 36  1  0  0  0  0
 36 39  2  0  0  0  0
 37 35  2  0  0  0  0
 38 42  1  6  0  0  0
 38 40  1  0  0  0  0
 38 37  1  0  0  0  0
 39 34  1  0  0  0  0
 40 41  1  0  0  0  0
 41 36  1  0  0  0  0
 42 43  1  0  0  0  0
 44 43  1  0  0  0  0
 45 46  1  0  0  0  0
 45 48  1  0  0  0  0
 47 44  1  6  0  0  0
 47 51  1  0  0  0  0
 48 51  1  0  0  0  0
 49 52  1  6  0  0  0
 49 47  1  0  0  0  0
 50 46  1  6  0  0  0
 50 51  1  0  0  0  0
 51 54  1  1  0  0  0
 53 49  1  0  0  0  0
 53 50  1  0  0  0  0
M  END
>  <MODEL>
9

>  <REMARK>
 VINA RESULT:      -5.3      2.761      8.267
  Name = 
  19 active torsions:
  status: ('A' for Active; 'I' for Inactive)
    1  A    between atoms: C_1  and  C_42
    2  A    between atoms: C_1  and  C_44
    3  A    between atoms: C_5  and  N_7
    4  A    between atoms: C_5  and  C_32
    5  A    between atoms: N_7  and  C_54
    6  A    between atoms: C_8  and  C_25
    7  A    between atoms: C_9  and  C_39
    8  A    between atoms: C_10  and  C_19
    9  A    between atoms: C_13  and  C_43
   10  A    between atoms: C_18  and  C_39
   11  A    between atoms: C_18  and  C_51
   12  A    between atoms: C_25  and  C_42
   13  A    between atoms: O_28  and  C_33
   14  A    between atoms: O_28  and  C_45
   15  A    between atoms: C_30  and  C_37
   16  A    between atoms: C_32  and  C_51
   17  A    between atoms: C_34  and  N_40
   18  A    between atoms: C_37  and  C_45
   19  A    between atoms: C_42  and  C_54
                            x       y       z     vdW  Elec       q    Type
                         _______ _______ _______ _____ _____    ______ ____

>  <TORSDO>
F 19

$$$$
