=
 OpenBabel10232412503D

 40 45  0  0  1  0  0  0  0  0999 V2000
  188.1150  177.5760  139.6790 N   0  0  0  0  0  0  0  0  0  0  0  0
  187.1480  176.9170  137.5250 C   0  0  0  0  0  0  0  0  0  0  0  0
  190.0280  176.7960  140.9140 N   0  0  1  0  0  0  0  0  0  0  0  0
  190.1610  177.6060  143.2720 C   0  0  1  0  0  3  0  0  0  0  0  0
  188.8310  175.7790  134.3470 C   0  0  0  0  0  1  0  0  0  0  0  0
  188.7440  177.4430  141.0030 C   0  0  2  0  0  0  0  0  0  0  0  0
  188.6250  176.2430  135.7440 C   0  0  0  0  0  0  0  0  0  0  0  0
  190.9720  177.4830  140.0170 C   0  0  2  0  0  3  0  0  0  0  0  0
  190.3930  176.5050  142.3160 C   0  0  1  0  0  3  0  0  0  0  0  0
  189.6960  176.4300  136.5610 N   0  0  0  0  0  0  0  0  0  0  0  0
  190.7780  177.0150  138.6310 N   0  0  0  0  0  2  0  0  0  0  0  0
  187.3330  176.4850  136.2110 C   0  0  0  0  0  3  0  0  0  0  0  0
  188.0550  177.0240  142.2530 C   0  0  0  0  0  2  0  0  0  0  0  0
  189.5670  176.8560  137.8480 C   0  0  0  0  0  0  0  0  0  0  0  0
  189.1420  176.5400  143.1290 N   0  0  2  0  0  0  0  0  0  0  0  0
  188.5180  178.7220  140.5750 C   0  0  0  0  0  2  0  0  0  0  0  0
  188.2660  177.1070  138.3520 C   0  0  0  0  0  0  0  0  0  0  0  0
  191.1020  177.3460  144.7660 S   0  0  0  0  0  0  0  0  0  0  0  0
  191.7560  175.9910  144.7660 O   0  0  0  0  0  0  0  0  0  0  0  0
  192.1620  178.4060  144.8660 O   0  0  0  0  0  0  0  0  0  0  0  0
  190.0070  177.4820  146.1650 C   0  0  2  0  0  3  0  0  0  0  0  0
  189.7080  176.2170  146.6370 F   0  0  0  0  0  0  0  0  0  0  0  0
  188.7310  178.1960  145.7510 C   0  0  0  0  0  2  0  0  0  0  0  0
  186.2650  178.0420  145.7850 C   0  0  0  0  0  0  0  0  0  0  0  0
  185.8650  177.6250  144.6670 O   0  0  0  0  0  0  0  0  0  0  0  0
  187.5150  177.5890  146.4350 C   0  0  2  0  0  3  0  0  0  0  0  0
  186.2250  179.1870  147.8030 C   0  0  0  0  0  2  0  0  0  0  0  0
  187.3910  178.1890  147.8340 C   0  0  0  0  0  2  0  0  0  0  0  0
  185.5200  178.9560  146.5580 N   0  0  0  0  0  2  0  0  0  0  0  0
  193.3090  176.8830  139.2500 C   0  0  0  0  0  1  0  0  0  0  0  0
  192.4370  177.2970  140.4250 C   0  0  0  0  0  2  0  0  0  0  0  0
  185.7640  177.1820  138.0160 C   0  0  0  0  0  2  0  0  0  0  0  0
  185.3630  178.6120  137.7100 C   0  0  0  0  0  2  0  0  0  0  0  0
  185.0600  179.3040  138.9500 N   0  0  0  0  0  2  0  0  0  0  0  0
  183.9950  178.5620  139.6050 C   0  0  2  0  0  3  0  0  0  0  0  0
  181.6180  178.6700  139.7160 O   0  0  0  0  0  1  0  0  0  0  0  0
  182.6240  180.3990  138.5960 O   0  0  0  0  0  0  0  0  0  0  0  0
  182.6810  179.2080  139.3110 C   0  0  0  0  0  0  0  0  0  0  0  0
  184.2490  178.5140  141.1060 C   0  0  0  0  0  2  0  0  0  0  0  0
  185.3360  179.4140  141.4570 N   0  0  0  0  0  1  0  0  0  0  0  0
  1 16  1  0  0  0  0
  1  6  1  0  0  0  0
  2 32  1  0  0  0  0
  2 17  2  0  0  0  0
  3  6  1  0  0  0  0
  3  9  1  0  0  0  0
  4 18  1  0  0  0  0
  5  7  1  0  0  0  0
  6 13  1  0  0  0  0
  7 12  2  0  0  0  0
  7 10  1  0  0  0  0
  8 31  1  0  0  0  0
  8  3  1  0  0  0  0
  9 15  1  0  0  0  0
  9  4  1  0  0  0  0
 10 14  2  0  0  0  0
 11  8  1  0  0  0  0
 12  2  1  0  0  0  0
 13 15  1  0  0  0  0
 14 17  1  0  0  0  0
 14 11  1  0  0  0  0
 15  4  1  0  0  0  0
 16  6  1  0  0  0  0
 17  1  1  0  0  0  0
 18 20  2  0  0  0  0
 18 21  1  0  0  0  0
 19 18  2  0  0  0  0
 21 22  1  0  0  0  0
 23 21  1  0  0  0  0
 23 26  1  0  0  0  0
 24 26  1  0  0  0  0
 24 29  1  0  0  0  0
 25 24  2  0  0  0  0
 26 28  1  0  0  0  0
 27 28  1  0  0  0  0
 29 27  1  0  0  0  0
 30 31  1  0  0  0  0
 33 32  1  0  0  0  0
 33 34  1  0  0  0  0
 34 35  1  0  0  0  0
 35 39  1  0  0  0  0
 37 38  2  0  0  0  0
 38 35  1  0  0  0  0
 38 36  1  0  0  0  0
 39 40  1  0  0  0  0
M  END
>  <MODEL>
1

>  <REMARK>
 VINA RESULT:      -7.5      0.000      0.000
  Name = 
  11 active torsions:
  status: ('A' for Active; 'I' for Inactive)
    1  A    between atoms: C_1  and  S_7
    2  A    between atoms: C_1  and  C_14
    3  A    between atoms: C_3  and  C_26
    4  A    between atoms: N_4  and  C_25
    5  A    between atoms: N_4  and  CA_30
    6  A    between atoms: C_6  and  S_7
    7  A    between atoms: C_14  and  C_23
    8  A    between atoms: C_17  and  C_34
    9  A    between atoms: C_18  and  CA_30
   10  A    between atoms: C_25  and  C_26
   11  A    between atoms: CA_30  and  C_31
                            x       y       z     vdW  Elec       q    Type
                         _______ _______ _______ _____ _____    ______ ____

>  <TORSDO>
F 11

$$$$
=
 OpenBabel10232412503D

 40 45  0  0  1  0  0  0  0  0999 V2000
  187.3930  177.2820  144.0440 N   0  0  0  0  0  0  0  0  0  0  0  0
  186.5180  178.0750  146.1920 C   0  0  0  0  0  0  0  0  0  0  0  0
  189.5470  177.4780  142.9880 N   0  0  1  0  0  0  0  0  0  0  0  0
  189.6030  176.8280  140.5790 C   0  0  1  0  0  3  0  0  0  0  0  0
  188.2160  178.3910  149.5450 C   0  0  0  0  0  1  0  0  0  0  0  0
  188.1360  177.2910  142.7730 C   0  0  2  0  0  0  0  0  0  0  0  0
  187.9850  178.1130  148.1040 C   0  0  0  0  0  0  0  0  0  0  0  0
  190.1480  176.4650  143.8710 C   0  0  2  0  0  3  0  0  0  0  0  0
  190.0970  177.7280  141.6400 C   0  0  1  0  0  3  0  0  0  0  0  0
  189.0020  177.6430  147.3320 N   0  0  0  0  0  0  0  0  0  0  0  0
  190.0030  176.8770  145.2800 N   0  0  0  0  0  2  0  0  0  0  0  0
  186.7260  178.3350  147.5470 C   0  0  0  0  0  3  0  0  0  0  0  0
  187.7180  177.9930  141.5290 C   0  0  0  0  0  2  0  0  0  0  0  0
  188.8470  177.3680  146.0080 C   0  0  0  0  0  0  0  0  0  0  0  0
  188.9690  178.1550  140.7600 N   0  0  2  0  0  0  0  0  0  0  0  0
  187.4790  176.1300  143.0730 C   0  0  0  0  0  2  0  0  0  0  0  0
  187.5790  177.5880  145.4140 C   0  0  0  0  0  0  0  0  0  0  0  0
  190.6940  176.8660  139.1670 S   0  0  0  0  0  0  0  0  0  0  0  0
  191.9620  177.6130  139.4820 O   0  0  0  0  0  0  0  0  0  0  0  0
  191.0360  175.4570  138.7750 O   0  0  0  0  0  0  0  0  0  0  0  0
  189.8530  177.6620  137.8130 C   0  0  2  0  0  3  0  0  0  0  0  0
  189.5290  178.9570  138.1720 F   0  0  0  0  0  0  0  0  0  0  0  0
  188.5910  176.8890  137.4660 C   0  0  0  0  0  2  0  0  0  0  0  0
  186.3670  177.9640  137.4200 C   0  0  0  0  0  0  0  0  0  0  0  0
  186.2660  178.7400  138.4050 O   0  0  0  0  0  0  0  0  0  0  0  0
  187.6230  177.7470  136.6670 C   0  0  2  0  0  3  0  0  0  0  0  0
  185.7010  176.5050  135.7420 C   0  0  0  0  0  2  0  0  0  0  0  0
  187.1430  176.9460  135.4580 C   0  0  0  0  0  2  0  0  0  0  0  0
  185.2630  177.2590  136.9000 N   0  0  0  0  0  2  0  0  0  0  0  0
  192.1620  175.0070  144.3480 C   0  0  0  0  0  1  0  0  0  0  0  0
  191.6230  176.1910  143.5610 C   0  0  0  0  0  2  0  0  0  0  0  0
  185.1650  178.3060  145.6050 C   0  0  0  0  0  2  0  0  0  0  0  0
  185.0270  179.7470  145.1560 C   0  0  0  0  0  2  0  0  0  0  0  0
  184.9730  179.7970  143.7050 N   0  0  0  0  0  2  0  0  0  0  0  0
  184.0140  178.7910  143.2780 C   0  0  2  0  0  3  0  0  0  0  0  0
  184.6380  179.4890  141.0870 O   0  0  0  0  0  0  0  0  0  0  0  0
  183.6680  177.4150  141.2130 O   0  0  0  0  0  1  0  0  0  0  0  0
  184.1250  178.5900  141.8020 C   0  0  0  0  0  0  0  0  0  0  0  0
  182.6050  179.2280  143.6590 C   0  0  0  0  0  2  0  0  0  0  0  0
  181.6910  178.9790  142.5570 N   0  0  0  0  0  1  0  0  0  0  0  0
  1 17  1  0  0  0  0
  2 12  1  0  0  0  0
  3  8  1  0  0  0  0
  4 15  1  0  0  0  0
  4  9  1  0  0  0  0
  6  3  1  0  0  0  0
  6 16  1  0  0  0  0
  6  1  1  0  0  0  0
  7  5  1  0  0  0  0
  8 11  1  0  0  0  0
  9  3  1  0  0  0  0
 10  7  1  0  0  0  0
 11 14  1  0  0  0  0
 12  7  2  0  0  0  0
 13  6  1  0  0  0  0
 14 10  2  0  0  0  0
 15 13  1  0  0  0  0
 15  9  1  0  0  0  0
 16  1  1  0  0  0  0
 17 14  1  0  0  0  0
 17  2  2  0  0  0  0
 18 19  2  0  0  0  0
 18  4  1  0  0  0  0
 20 18  2  0  0  0  0
 21 22  1  0  0  0  0
 21 18  1  0  0  0  0
 23 21  1  0  0  0  0
 24 25  2  0  0  0  0
 26 24  1  0  0  0  0
 26 23  1  0  0  0  0
 27 29  1  0  0  0  0
 28 27  1  0  0  0  0
 28 26  1  0  0  0  0
 29 24  1  0  0  0  0
 31  8  1  0  0  0  0
 31 30  1  0  0  0  0
 32  2  1  0  0  0  0
 33 32  1  0  0  0  0
 34 33  1  0  0  0  0
 35 39  1  0  0  0  0
 35 34  1  0  0  0  0
 36 38  2  0  0  0  0
 37 38  1  0  0  0  0
 38 35  1  0  0  0  0
 40 39  1  0  0  0  0
M  END
>  <MODEL>
2

>  <REMARK>
 VINA RESULT:      -7.4      2.880      7.347
  Name = 
  11 active torsions:
  status: ('A' for Active; 'I' for Inactive)
    1  A    between atoms: C_1  and  S_7
    2  A    between atoms: C_1  and  C_14
    3  A    between atoms: C_3  and  C_26
    4  A    between atoms: N_4  and  C_25
    5  A    between atoms: N_4  and  CA_30
    6  A    between atoms: C_6  and  S_7
    7  A    between atoms: C_14  and  C_23
    8  A    between atoms: C_17  and  C_34
    9  A    between atoms: C_18  and  CA_30
   10  A    between atoms: C_25  and  C_26
   11  A    between atoms: CA_30  and  C_31
                            x       y       z     vdW  Elec       q    Type
                         _______ _______ _______ _____ _____    ______ ____

>  <TORSDO>
F 11

$$$$
=
 OpenBabel10232412503D

 40 45  0  0  1  0  0  0  0  0999 V2000
  187.9730  178.2200  139.7450 N   0  0  0  0  0  0  0  0  0  0  0  0
  185.8990  178.6420  140.9820 C   0  0  0  0  0  0  0  0  0  0  0  0
  188.4790  176.8490  137.8320 N   0  0  1  0  0  0  0  0  0  0  0  0
  190.9130  176.5260  137.3830 C   0  0  1  0  0  3  0  0  0  0  0  0
  182.3430  178.9100  139.7540 C   0  0  0  0  0  1  0  0  0  0  0  0
  189.0120  177.4750  139.0150 C   0  0  2  0  0  0  0  0  0  0  0  0
  183.8170  178.7240  139.7710 C   0  0  0  0  0  0  0  0  0  0  0  0
  187.8430  177.7950  136.9010 C   0  0  2  0  0  3  0  0  0  0  0  0
  189.5560  175.9460  137.3750 C   0  0  1  0  0  3  0  0  0  0  0  0
  184.4810  178.4600  138.6130 N   0  0  0  0  0  0  0  0  0  0  0  0
  186.4320  177.9990  137.2790 N   0  0  0  0  0  2  0  0  0  0  0  0
  184.5150  178.8220  140.9740 C   0  0  0  0  0  3  0  0  0  0  0  0
  190.0430  176.5950  139.6300 C   0  0  0  0  0  2  0  0  0  0  0  0
  185.8300  178.2840  138.5690 C   0  0  0  0  0  0  0  0  0  0  0  0
  190.4680  175.7030  138.5320 N   0  0  2  0  0  0  0  0  0  0  0  0
  189.2090  178.8230  139.1250 C   0  0  0  0  0  2  0  0  0  0  0  0
  186.5660  178.3730  139.7770 C   0  0  0  0  0  0  0  0  0  0  0  0
  192.0070  175.5720  136.3430 S   0  0  0  0  0  0  0  0  0  0  0  0
  191.6840  174.1050  136.4190 O   0  0  0  0  0  0  0  0  0  0  0  0
  191.8600  176.0380  134.9230 O   0  0  0  0  0  0  0  0  0  0  0  0
  193.6850  175.8430  136.8760 C   0  0  2  0  0  3  0  0  0  0  0  0
  194.2270  176.9000  136.1680 F   0  0  0  0  0  0  0  0  0  0  0  0
  194.5080  174.5860  136.6420 C   0  0  0  0  0  2  0  0  0  0  0  0
  196.9040  174.4780  137.2340 C   0  0  0  0  0  0  0  0  0  0  0  0
  197.4560  175.5620  136.9140 O   0  0  0  0  0  0  0  0  0  0  0  0
  195.5230  174.3780  137.7560 C   0  0  2  0  0  3  0  0  0  0  0  0
  196.6920  172.2060  137.6620 C   0  0  0  0  0  2  0  0  0  0  0  0
  195.4530  172.9230  138.2150 C   0  0  0  0  0  2  0  0  0  0  0  0
  197.5820  173.2430  137.1760 N   0  0  0  0  0  2  0  0  0  0  0  0
  186.6900  176.5830  135.0010 C   0  0  0  0  0  1  0  0  0  0  0  0
  187.9270  177.3510  135.4370 C   0  0  0  0  0  2  0  0  0  0  0  0
  186.6410  178.7570  142.2720 C   0  0  0  0  0  2  0  0  0  0  0  0
  185.8690  178.0760  143.3840 C   0  0  0  0  0  2  0  0  0  0  0  0
  186.7800  177.2790  144.1870 N   0  0  0  0  0  2  0  0  0  0  0  0
  187.0420  178.0260  145.4060 C   0  0  2  0  0  3  0  0  0  0  0  0
  189.2930  177.2480  145.4690 O   0  0  0  0  0  0  0  0  0  0  0  0
  188.1560  177.1140  147.4560 O   0  0  0  0  0  1  0  0  0  0  0  0
  188.2250  177.4420  146.1070 C   0  0  0  0  0  0  0  0  0  0  0  0
  185.8120  177.9930  146.3050 C   0  0  0  0  0  2  0  0  0  0  0  0
  185.5640  179.3140  146.8580 N   0  0  0  0  0  1  0  0  0  0  0  0
  1 17  1  0  0  0  0
  2 32  1  0  0  0  0
  3  6  1  0  0  0  0
  4 15  1  0  0  0  0
  5  7  1  0  0  0  0
  6 16  1  0  0  0  0
  6 13  1  0  0  0  0
  6  1  1  0  0  0  0
  7 12  2  0  0  0  0
  8 11  1  0  0  0  0
  8  3  1  0  0  0  0
  9  4  1  0  0  0  0
  9  3  1  0  0  0  0
  9 15  1  0  0  0  0
 10  7  1  0  0  0  0
 11 14  1  0  0  0  0
 12  2  1  0  0  0  0
 14 10  2  0  0  0  0
 14 17  1  0  0  0  0
 15 13  1  0  0  0  0
 16  1  1  0  0  0  0
 17  2  2  0  0  0  0
 18 19  2  0  0  0  0
 18 21  1  0  0  0  0
 18  4  1  0  0  0  0
 20 18  2  0  0  0  0
 22 21  1  0  0  0  0
 23 21  1  0  0  0  0
 23 26  1  0  0  0  0
 24 26  1  0  0  0  0
 25 24  2  0  0  0  0
 26 28  1  0  0  0  0
 27 28  1  0  0  0  0
 29 24  1  0  0  0  0
 29 27  1  0  0  0  0
 30 31  1  0  0  0  0
 31  8  1  0  0  0  0
 32 33  1  0  0  0  0
 33 34  1  0  0  0  0
 34 35  1  0  0  0  0
 35 38  1  0  0  0  0
 35 39  1  0  0  0  0
 36 38  2  0  0  0  0
 38 37  1  0  0  0  0
 39 40  1  0  0  0  0
M  END
>  <MODEL>
3

>  <REMARK>
 VINA RESULT:      -7.0      4.254      8.458
  Name = 
  11 active torsions:
  status: ('A' for Active; 'I' for Inactive)
    1  A    between atoms: C_1  and  S_7
    2  A    between atoms: C_1  and  C_14
    3  A    between atoms: C_3  and  C_26
    4  A    between atoms: N_4  and  C_25
    5  A    between atoms: N_4  and  CA_30
    6  A    between atoms: C_6  and  S_7
    7  A    between atoms: C_14  and  C_23
    8  A    between atoms: C_17  and  C_34
    9  A    between atoms: C_18  and  CA_30
   10  A    between atoms: C_25  and  C_26
   11  A    between atoms: CA_30  and  C_31
                            x       y       z     vdW  Elec       q    Type
                         _______ _______ _______ _____ _____    ______ ____

>  <TORSDO>
F 11

$$$$
=
 OpenBabel10232412503D

 40 45  0  0  1  0  0  0  0  0999 V2000
  189.7960  177.2190  140.5190 N   0  0  0  0  0  0  0  0  0  0  0  0
  188.1710  177.4920  142.3340 C   0  0  0  0  0  0  0  0  0  0  0  0
  189.5500  176.8350  138.1550 N   0  0  1  0  0  0  0  0  0  0  0  0
  191.6500  176.1890  136.9690 C   0  0  1  0  0  3  0  0  0  0  0  0
  184.7830  179.1490  142.3400 C   0  0  0  0  0  1  0  0  0  0  0  0
  190.4150  176.6820  139.2960 C   0  0  2  0  0  0  0  0  0  0  0  0
  186.0970  178.6300  141.8780 C   0  0  0  0  0  0  0  0  0  0  0  0
  189.1510  178.2290  137.9010 C   0  0  2  0  0  3  0  0  0  0  0  0
  190.1880  176.0250  137.0960 C   0  0  1  0  0  3  0  0  0  0  0  0
  186.4710  178.7920  140.5810 N   0  0  0  0  0  0  0  0  0  0  0  0
  187.9550  178.5620  138.6980 N   0  0  0  0  0  2  0  0  0  0  0  0
  186.9410  177.9790  142.7770 C   0  0  0  0  0  3  0  0  0  0  0  0
  191.1630  175.3990  139.1940 C   0  0  0  0  0  2  0  0  0  0  0  0
  187.6630  178.3400  140.1020 C   0  0  0  0  0  0  0  0  0  0  0  0
  191.1120  175.0560  137.7570 N   0  0  2  0  0  0  0  0  0  0  0  0
  191.0690  177.7270  139.8870 C   0  0  0  0  0  2  0  0  0  0  0  0
  188.5410  177.6710  140.9930 C   0  0  0  0  0  0  0  0  0  0  0  0
  192.2090  175.6070  135.3770 S   0  0  0  0  0  0  0  0  0  0  0  0
  191.0720  175.0250  134.5830 O   0  0  0  0  0  0  0  0  0  0  0  0
  192.8030  176.7590  134.6170 O   0  0  0  0  0  0  0  0  0  0  0  0
  193.4610  174.3650  135.6280 C   0  0  2  0  0  3  0  0  0  0  0  0
  192.8550  173.1420  135.8510 F   0  0  0  0  0  0  0  0  0  0  0  0
  194.3260  174.7400  136.8200 C   0  0  0  0  0  2  0  0  0  0  0  0
  196.4520  174.3070  138.0000 C   0  0  0  0  0  0  0  0  0  0  0  0
  196.2010  173.9440  139.1790 O   0  0  0  0  0  0  0  0  0  0  0  0
  195.6220  173.9430  136.8310 C   0  0  2  0  0  3  0  0  0  0  0  0
  197.6210  175.2620  136.2380 C   0  0  0  0  0  2  0  0  0  0  0  0
  196.4880  174.4030  135.6600 C   0  0  0  0  0  2  0  0  0  0  0  0
  197.5980  175.0600  137.6730 N   0  0  0  0  0  2  0  0  0  0  0  0
  187.4260  178.3030  136.0500 C   0  0  0  0  0  1  0  0  0  0  0  0
  188.8840  178.5210  136.4210 C   0  0  0  0  0  2  0  0  0  0  0  0
  189.0740  176.8040  143.3040 C   0  0  0  0  0  2  0  0  0  0  0  0
  188.5530  176.9730  144.7170 C   0  0  0  0  0  2  0  0  0  0  0  0
  189.5850  177.5720  145.5440 N   0  0  0  0  0  2  0  0  0  0  0  0
  189.6040  176.8420  146.8010 C   0  0  2  0  0  3  0  0  0  0  0  0
  187.5680  177.2150  147.9810 O   0  0  0  0  0  0  0  0  0  0  0  0
  189.3010  178.6010  148.5590 O   0  0  0  0  0  1  0  0  0  0  0  0
  188.7660  177.5590  147.8090 C   0  0  0  0  0  0  0  0  0  0  0  0
  191.0380  176.7010  147.2940 C   0  0  0  0  0  2  0  0  0  0  0  0
  191.9520  176.6720  146.1640 N   0  0  0  0  0  1  0  0  0  0  0  0
  1 17  1  0  0  0  0
  2 12  1  0  0  0  0
  2 32  1  0  0  0  0
  3  6  1  0  0  0  0
  4  9  1  0  0  0  0
  4 15  1  0  0  0  0
  6 16  1  0  0  0  0
  6  1  1  0  0  0  0
  7  5  1  0  0  0  0
  7 12  2  0  0  0  0
  8  3  1  0  0  0  0
  8 11  1  0  0  0  0
  9 15  1  0  0  0  0
  9  3  1  0  0  0  0
 10  7  1  0  0  0  0
 11 14  1  0  0  0  0
 13  6  1  0  0  0  0
 14 10  2  0  0  0  0
 14 17  1  0  0  0  0
 15 13  1  0  0  0  0
 16  1  1  0  0  0  0
 17  2  2  0  0  0  0
 18 21  1  0  0  0  0
 18  4  1  0  0  0  0
 19 18  2  0  0  0  0
 20 18  2  0  0  0  0
 21 22  1  0  0  0  0
 21 23  1  0  0  0  0
 23 26  1  0  0  0  0
 24 25  2  0  0  0  0
 26 24  1  0  0  0  0
 27 29  1  0  0  0  0
 28 27  1  0  0  0  0
 28 26  1  0  0  0  0
 29 24  1  0  0  0  0
 30 31  1  0  0  0  0
 31  8  1  0  0  0  0
 32 33  1  0  0  0  0
 33 34  1  0  0  0  0
 34 35  1  0  0  0  0
 35 39  1  0  0  0  0
 35 38  1  0  0  0  0
 38 36  2  0  0  0  0
 38 37  1  0  0  0  0
 40 39  1  0  0  0  0
M  END
>  <MODEL>
4

>  <REMARK>
 VINA RESULT:      -7.0      4.442      9.018
  Name = 
  11 active torsions:
  status: ('A' for Active; 'I' for Inactive)
    1  A    between atoms: C_1  and  S_7
    2  A    between atoms: C_1  and  C_14
    3  A    between atoms: C_3  and  C_26
    4  A    between atoms: N_4  and  C_25
    5  A    between atoms: N_4  and  CA_30
    6  A    between atoms: C_6  and  S_7
    7  A    between atoms: C_14  and  C_23
    8  A    between atoms: C_17  and  C_34
    9  A    between atoms: C_18  and  CA_30
   10  A    between atoms: C_25  and  C_26
   11  A    between atoms: CA_30  and  C_31
                            x       y       z     vdW  Elec       q    Type
                         _______ _______ _______ _____ _____    ______ ____

>  <TORSDO>
F 11

$$$$
=
 OpenBabel10232412503D

 40 45  0  0  1  0  0  0  0  0999 V2000
  187.8110  178.2580  139.4280 N   0  0  0  0  0  0  0  0  0  0  0  0
  185.6810  178.7920  140.5150 C   0  0  0  0  0  0  0  0  0  0  0  0
  188.4380  176.6040  137.7940 N   0  0  1  0  0  0  0  0  0  0  0  0
  190.8970  176.3180  137.4740 C   0  0  1  0  0  3  0  0  0  0  0  0
  182.1620  178.6860  139.1620 C   0  0  0  0  0  1  0  0  0  0  0  0
  188.9040  177.4470  138.8660 C   0  0  2  0  0  0  0  0  0  0  0  0
  183.6410  178.5720  139.2510 C   0  0  0  0  0  0  0  0  0  0  0  0
  187.7980  177.3470  136.6970 C   0  0  2  0  0  3  0  0  0  0  0  0
  189.5650  175.6850  137.5290 C   0  0  1  0  0  3  0  0  0  0  0  0
  184.3540  178.1440  138.1760 N   0  0  0  0  0  0  0  0  0  0  0  0
  186.3670  177.5500  136.9950 N   0  0  0  0  0  2  0  0  0  0  0  0
  184.2920  178.9060  140.4390 C   0  0  0  0  0  3  0  0  0  0  0  0
  189.9470  176.7320  139.6510 C   0  0  0  0  0  2  0  0  0  0  0  0
  185.7100  178.0230  138.1990 C   0  0  0  0  0  0  0  0  0  0  0  0
  190.4460  175.6850  138.7350 N   0  0  2  0  0  0  0  0  0  0  0  0
  189.0440  178.8010  138.7470 C   0  0  0  0  0  2  0  0  0  0  0  0
  186.3990  178.3510  139.3940 C   0  0  0  0  0  0  0  0  0  0  0  0
  192.0640  175.2510  136.6460 S   0  0  0  0  0  0  0  0  0  0  0  0
  191.8180  173.8080  136.9920 O   0  0  0  0  0  0  0  0  0  0  0  0
  191.9230  175.4340  135.1610 O   0  0  0  0  0  0  0  0  0  0  0  0
  193.7130  175.7120  137.1380 C   0  0  2  0  0  3  0  0  0  0  0  0
  194.0380  176.9300  136.5700 F   0  0  0  0  0  0  0  0  0  0  0  0
  194.7000  174.6490  136.6850 C   0  0  0  0  0  2  0  0  0  0  0  0
  197.1180  174.6300  137.1890 C   0  0  0  0  0  0  0  0  0  0  0  0
  197.5960  175.7700  136.9530 O   0  0  0  0  0  0  0  0  0  0  0  0
  195.7650  174.4010  137.7420 C   0  0  2  0  0  3  0  0  0  0  0  0
  197.0500  172.3210  137.4110 C   0  0  0  0  0  2  0  0  0  0  0  0
  195.7940  172.9080  138.0670 C   0  0  0  0  0  2  0  0  0  0  0  0
  197.8620  173.4480  136.9960 N   0  0  0  0  0  2  0  0  0  0  0  0
  186.6120  176.4680  134.6400 C   0  0  0  0  0  1  0  0  0  0  0  0
  187.9500  176.6630  135.3340 C   0  0  0  0  0  2  0  0  0  0  0  0
  186.3720  179.1600  141.7870 C   0  0  0  0  0  2  0  0  0  0  0  0
  186.3290  178.0010  142.7620 C   0  0  0  0  0  2  0  0  0  0  0  0
  185.6240  178.4070  143.9650 N   0  0  0  0  0  2  0  0  0  0  0  0
  186.3090  177.7920  145.0900 C   0  0  2  0  0  3  0  0  0  0  0  0
  186.5390  178.4660  147.3640 O   0  0  0  0  0  1  0  0  0  0  0  0
  184.4520  178.7660  146.4620 O   0  0  0  0  0  0  0  0  0  0  0  0
  185.7780  178.3570  146.3680 C   0  0  0  0  0  0  0  0  0  0  0  0
  187.8080  178.0330  144.9750 C   0  0  0  0  0  2  0  0  0  0  0  0
  188.5120  176.7640  144.9020 N   0  0  0  0  0  1  0  0  0  0  0  0
  2 32  1  0  0  0  0
  3  6  1  0  0  0  0
  4  9  1  0  0  0  0
  4 15  1  0  0  0  0
  5  7  1  0  0  0  0
  6  1  1  0  0  0  0
  6 13  1  0  0  0  0
  7 12  2  0  0  0  0
  8 11  1  0  0  0  0
  8  3  1  0  0  0  0
  9  3  1  0  0  0  0
  9 15  1  0  0  0  0
 10 14  2  0  0  0  0
 10  7  1  0  0  0  0
 11 14  1  0  0  0  0
 12  2  1  0  0  0  0
 14 17  1  0  0  0  0
 15 13  1  0  0  0  0
 16  6  1  0  0  0  0
 16  1  1  0  0  0  0
 17  1  1  0  0  0  0
 17  2  2  0  0  0  0
 18 19  2  0  0  0  0
 18 21  1  0  0  0  0
 18  4  1  0  0  0  0
 20 18  2  0  0  0  0
 22 21  1  0  0  0  0
 23 21  1  0  0  0  0
 23 26  1  0  0  0  0
 24 26  1  0  0  0  0
 25 24  2  0  0  0  0
 26 28  1  0  0  0  0
 27 28  1  0  0  0  0
 29 24  1  0  0  0  0
 29 27  1  0  0  0  0
 30 31  1  0  0  0  0
 31  8  1  0  0  0  0
 32 33  1  0  0  0  0
 33 34  1  0  0  0  0
 34 35  1  0  0  0  0
 35 38  1  0  0  0  0
 38 37  2  0  0  0  0
 38 36  1  0  0  0  0
 39 35  1  0  0  0  0
 40 39  1  0  0  0  0
M  END
>  <MODEL>
5

>  <REMARK>
 VINA RESULT:      -6.8      4.205      8.298
  Name = 
  11 active torsions:
  status: ('A' for Active; 'I' for Inactive)
    1  A    between atoms: C_1  and  S_7
    2  A    between atoms: C_1  and  C_14
    3  A    between atoms: C_3  and  C_26
    4  A    between atoms: N_4  and  C_25
    5  A    between atoms: N_4  and  CA_30
    6  A    between atoms: C_6  and  S_7
    7  A    between atoms: C_14  and  C_23
    8  A    between atoms: C_17  and  C_34
    9  A    between atoms: C_18  and  CA_30
   10  A    between atoms: C_25  and  C_26
   11  A    between atoms: CA_30  and  C_31
                            x       y       z     vdW  Elec       q    Type
                         _______ _______ _______ _____ _____    ______ ____

>  <TORSDO>
F 11

$$$$
=
 OpenBabel10232412503D

 40 45  0  0  1  0  0  0  0  0999 V2000
  186.8680  178.0400  143.8290 N   0  0  0  0  0  0  0  0  0  0  0  0
  186.3990  178.7810  146.1180 C   0  0  0  0  0  0  0  0  0  0  0  0
  188.9200  177.6350  142.6350 N   0  0  1  0  0  0  0  0  0  0  0  0
  188.6630  177.3420  140.1700 C   0  0  1  0  0  3  0  0  0  0  0  0
  188.2150  178.0370  149.3390 C   0  0  0  0  0  1  0  0  0  0  0  0
  187.5240  177.9700  142.5130 C   0  0  2  0  0  0  0  0  0  0  0  0
  187.8520  178.0550  147.8980 C   0  0  0  0  0  0  0  0  0  0  0  0
  189.1600  176.3660  143.3430 C   0  0  2  0  0  3  0  0  0  0  0  0
  189.4750  177.8650  141.2850 C   0  0  1  0  0  3  0  0  0  0  0  0
  188.6150  177.3780  146.9980 N   0  0  0  0  0  0  0  0  0  0  0  0
  189.2160  176.6060  144.7980 N   0  0  0  0  0  2  0  0  0  0  0  0
  186.7300  178.7660  147.4730 C   0  0  0  0  0  3  0  0  0  0  0  0
  187.3350  178.9360  141.3960 C   0  0  0  0  0  2  0  0  0  0  0  0
  188.3290  177.3560  145.6680 C   0  0  0  0  0  0  0  0  0  0  0  0
  188.5370  178.7670  140.5540 N   0  0  2  0  0  0  0  0  0  0  0  0
  186.5160  177.0720  142.7260 C   0  0  0  0  0  2  0  0  0  0  0  0
  187.1960  178.0740  145.2060 C   0  0  0  0  0  0  0  0  0  0  0  0
  189.6500  177.2000  138.6890 S   0  0  0  0  0  0  0  0  0  0  0  0
  189.0460  176.2120  137.7290 O   0  0  0  0  0  0  0  0  0  0  0  0
  189.7330  178.5460  138.0270 O   0  0  0  0  0  0  0  0  0  0  0  0
  191.2890  176.6680  139.1410 C   0  0  2  0  0  3  0  0  0  0  0  0
  191.8970  177.6520  139.9000 F   0  0  0  0  0  0  0  0  0  0  0  0
  192.1060  176.4010  137.8880 C   0  0  0  0  0  2  0  0  0  0  0  0
  194.0500  174.9280  137.4890 C   0  0  0  0  0  0  0  0  0  0  0  0
  194.9850  175.2650  138.2610 O   0  0  0  0  0  0  0  0  0  0  0  0
  192.6190  174.9680  137.8620 C   0  0  2  0  0  3  0  0  0  0  0  0
  193.0140  174.0810  135.5930 C   0  0  0  0  0  2  0  0  0  0  0  0
  191.9580  174.2340  136.6960 C   0  0  0  0  0  2  0  0  0  0  0  0
  194.2880  174.4230  136.1950 N   0  0  0  0  0  2  0  0  0  0  0  0
  191.6060  175.9210  143.8200 C   0  0  0  0  0  1  0  0  0  0  0  0
  190.4370  175.6520  142.8870 C   0  0  0  0  0  2  0  0  0  0  0  0
  185.1910  179.5370  145.6720 C   0  0  0  0  0  2  0  0  0  0  0  0
  184.3040  178.6530  144.8190 C   0  0  0  0  0  2  0  0  0  0  0  0
  183.5580  179.4770  143.8830 N   0  0  0  0  0  2  0  0  0  0  0  0
  182.7850  178.5770  143.0430 C   0  0  2  0  0  3  0  0  0  0  0  0
  184.1680  179.4430  141.3070 O   0  0  0  0  0  1  0  0  0  0  0  0
  183.0900  177.4820  140.8110 O   0  0  0  0  0  0  0  0  0  0  0  0
  183.3860  178.5290  141.6760 C   0  0  0  0  0  0  0  0  0  0  0  0
  181.3370  179.0470  142.9800 C   0  0  0  0  0  2  0  0  0  0  0  0
  180.5690  178.4350  144.0520 N   0  0  0  0  0  1  0  0  0  0  0  0
  1 17  1  0  0  0  0
  2 12  1  0  0  0  0
  3  8  1  0  0  0  0
  4 15  1  0  0  0  0
  4  9  1  0  0  0  0
  6  3  1  0  0  0  0
  6 16  1  0  0  0  0
  6  1  1  0  0  0  0
  7  5  1  0  0  0  0
  8 11  1  0  0  0  0
  9  3  1  0  0  0  0
 10  7  1  0  0  0  0
 11 14  1  0  0  0  0
 12  7  2  0  0  0  0
 13  6  1  0  0  0  0
 14 10  2  0  0  0  0
 15  9  1  0  0  0  0
 15 13  1  0  0  0  0
 16  1  1  0  0  0  0
 17 14  1  0  0  0  0
 17  2  2  0  0  0  0
 18 21  1  0  0  0  0
 18  4  1  0  0  0  0
 19 18  2  0  0  0  0
 20 18  2  0  0  0  0
 21 22  1  0  0  0  0
 23 21  1  0  0  0  0
 24 26  1  0  0  0  0
 24 25  2  0  0  0  0
 26 23  1  0  0  0  0
 27 29  1  0  0  0  0
 27 28  1  0  0  0  0
 28 26  1  0  0  0  0
 29 24  1  0  0  0  0
 31  8  1  0  0  0  0
 31 30  1  0  0  0  0
 32  2  1  0  0  0  0
 33 32  1  0  0  0  0
 34 33  1  0  0  0  0
 35 34  1  0  0  0  0
 36 38  1  0  0  0  0
 37 38  2  0  0  0  0
 38 35  1  0  0  0  0
 39 35  1  0  0  0  0
 39 40  1  0  0  0  0
M  END
>  <MODEL>
6

>  <REMARK>
 VINA RESULT:      -6.8      3.403      7.906
  Name = 
  11 active torsions:
  status: ('A' for Active; 'I' for Inactive)
    1  A    between atoms: C_1  and  S_7
    2  A    between atoms: C_1  and  C_14
    3  A    between atoms: C_3  and  C_26
    4  A    between atoms: N_4  and  C_25
    5  A    between atoms: N_4  and  CA_30
    6  A    between atoms: C_6  and  S_7
    7  A    between atoms: C_14  and  C_23
    8  A    between atoms: C_17  and  C_34
    9  A    between atoms: C_18  and  CA_30
   10  A    between atoms: C_25  and  C_26
   11  A    between atoms: CA_30  and  C_31
                            x       y       z     vdW  Elec       q    Type
                         _______ _______ _______ _____ _____    ______ ____

>  <TORSDO>
F 11

$$$$
=
 OpenBabel10232412503D

 40 45  0  0  1  0  0  0  0  0999 V2000
  187.2310  178.3900  140.0440 N   0  0  0  0  0  0  0  0  0  0  0  0
  185.7170  178.0480  138.1470 C   0  0  0  0  0  0  0  0  0  0  0  0
  189.1850  177.2070  140.8040 N   0  0  1  0  0  0  0  0  0  0  0  0
  189.9710  177.8310  143.0900 C   0  0  1  0  0  3  0  0  0  0  0  0
  186.4330  176.8300  134.6500 C   0  0  0  0  0  1  0  0  0  0  0  0
  188.0950  178.0650  141.1910 C   0  0  2  0  0  0  0  0  0  0  0  0
  186.6230  177.2350  136.0670 C   0  0  0  0  0  0  0  0  0  0  0  0
  190.0250  177.7700  139.7340 C   0  0  2  0  0  3  0  0  0  0  0  0
  189.7820  176.7690  142.0830 C   0  0  1  0  0  3  0  0  0  0  0  0
  187.8600  177.1780  136.6290 N   0  0  0  0  0  0  0  0  0  0  0  0
  189.4530  177.4310  138.4170 N   0  0  0  0  0  2  0  0  0  0  0  0
  185.5310  177.6740  136.8160 C   0  0  0  0  0  3  0  0  0  0  0  0
  187.6240  177.6980  142.5550 C   0  0  0  0  0  2  0  0  0  0  0  0
  188.0930  177.5390  137.9200 C   0  0  0  0  0  0  0  0  0  0  0  0
  188.7640  176.9740  143.1560 N   0  0  2  0  0  0  0  0  0  0  0  0
  188.0250  179.3870  140.8530 C   0  0  0  0  0  2  0  0  0  0  0  0
  187.0020  177.9850  138.7070 C   0  0  0  0  0  0  0  0  0  0  0  0
  191.1470  177.3160  144.3310 S   0  0  0  0  0  0  0  0  0  0  0  0
  191.6240  175.9120  144.0750 O   0  0  0  0  0  0  0  0  0  0  0  0
  192.3230  178.2500  144.3060 O   0  0  0  0  0  0  0  0  0  0  0  0
  190.3670  177.4000  145.9300 C   0  0  2  0  0  3  0  0  0  0  0  0
  190.2580  176.1250  146.4540 F   0  0  0  0  0  0  0  0  0  0  0  0
  188.9880  178.0250  145.7970 C   0  0  0  0  0  2  0  0  0  0  0  0
  186.5890  177.6760  146.2750 C   0  0  0  0  0  0  0  0  0  0  0  0
  186.0150  177.2840  145.2260 O   0  0  0  0  0  0  0  0  0  0  0  0
  187.9670  177.2910  146.6530 C   0  0  2  0  0  3  0  0  0  0  0  0
  186.8530  178.7130  148.3350 C   0  0  0  0  0  2  0  0  0  0  0  0
  188.0680  177.8090  148.0870 C   0  0  0  0  0  2  0  0  0  0  0  0
  185.9430  178.4890  147.2280 N   0  0  0  0  0  2  0  0  0  0  0  0
  191.9580  176.7240  138.4770 C   0  0  0  0  0  1  0  0  0  0  0  0
  191.4830  177.3020  139.8010 C   0  0  0  0  0  2  0  0  0  0  0  0
  184.5460  178.5250  138.9400 C   0  0  0  0  0  2  0  0  0  0  0  0
  183.4090  177.5270  138.8480 C   0  0  0  0  0  2  0  0  0  0  0  0
  182.9060  177.2430  140.1810 N   0  0  0  0  0  2  0  0  0  0  0  0
  182.5790  178.5200  140.7960 C   0  0  2  0  0  3  0  0  0  0  0  0
  184.2200  178.0530  142.4590 O   0  0  0  0  0  0  0  0  0  0  0  0
  182.3310  179.1090  143.2180 O   0  0  0  0  0  1  0  0  0  0  0  0
  183.0910  178.5450  142.1990 C   0  0  0  0  0  0  0  0  0  0  0  0
  181.0710  178.7340  140.7670 C   0  0  0  0  0  2  0  0  0  0  0  0
  180.7100  179.5830  139.6440 N   0  0  0  0  0  1  0  0  0  0  0  0
  1 16  1  0  0  0  0
  1  6  1  0  0  0  0
  2 17  2  0  0  0  0
  2 32  1  0  0  0  0
  3  6  1  0  0  0  0
  3  9  1  0  0  0  0
  4 15  1  0  0  0  0
  4 18  1  0  0  0  0
  5  7  1  0  0  0  0
  6 13  1  0  0  0  0
  7 10  1  0  0  0  0
  7 12  2  0  0  0  0
  8 31  1  0  0  0  0
  8  3  1  0  0  0  0
  9  4  1  0  0  0  0
  9 15  1  0  0  0  0
 10 14  2  0  0  0  0
 11  8  1  0  0  0  0
 12  2  1  0  0  0  0
 13 15  1  0  0  0  0
 14 11  1  0  0  0  0
 14 17  1  0  0  0  0
 16  6  1  0  0  0  0
 17  1  1  0  0  0  0
 18 21  1  0  0  0  0
 19 18  2  0  0  0  0
 20 18  2  0  0  0  0
 21 22  1  0  0  0  0
 23 21  1  0  0  0  0
 23 26  1  0  0  0  0
 24 26  1  0  0  0  0
 24 29  1  0  0  0  0
 25 24  2  0  0  0  0
 26 28  1  0  0  0  0
 28 27  1  0  0  0  0
 29 27  1  0  0  0  0
 30 31  1  0  0  0  0
 33 32  1  0  0  0  0
 33 34  1  0  0  0  0
 34 35  1  0  0  0  0
 35 38  1  0  0  0  0
 38 36  2  0  0  0  0
 38 37  1  0  0  0  0
 39 35  1  0  0  0  0
 40 39  1  0  0  0  0
M  END
>  <MODEL>
7

>  <REMARK>
 VINA RESULT:      -6.6      1.545      1.961
  Name = 
  11 active torsions:
  status: ('A' for Active; 'I' for Inactive)
    1  A    between atoms: C_1  and  S_7
    2  A    between atoms: C_1  and  C_14
    3  A    between atoms: C_3  and  C_26
    4  A    between atoms: N_4  and  C_25
    5  A    between atoms: N_4  and  CA_30
    6  A    between atoms: C_6  and  S_7
    7  A    between atoms: C_14  and  C_23
    8  A    between atoms: C_17  and  C_34
    9  A    between atoms: C_18  and  CA_30
   10  A    between atoms: C_25  and  C_26
   11  A    between atoms: CA_30  and  C_31
                            x       y       z     vdW  Elec       q    Type
                         _______ _______ _______ _____ _____    ______ ____

>  <TORSDO>
F 11

$$$$
=
 OpenBabel10232412503D

 40 45  0  0  1  0  0  0  0  0999 V2000
  188.2260  178.0930  140.7340 N   0  0  0  0  0  0  0  0  0  0  0  0
  186.4720  178.3200  142.4310 C   0  0  0  0  0  0  0  0  0  0  0  0
  188.2580  177.0860  138.5480 N   0  0  1  0  0  0  0  0  0  0  0  0
  190.5290  176.8080  137.5500 C   0  0  1  0  0  3  0  0  0  0  0  0
  182.7620  178.8710  142.0400 C   0  0  0  0  0  1  0  0  0  0  0  0
  189.0530  177.4760  139.6840 C   0  0  2  0  0  0  0  0  0  0  0  0
  184.1960  178.6590  141.7150 C   0  0  0  0  0  0  0  0  0  0  0  0
  187.5000  178.1980  137.9500 C   0  0  2  0  0  3  0  0  0  0  0  0
  189.1690  176.2630  137.7240 C   0  0  1  0  0  3  0  0  0  0  0  0
  184.5960  178.5990  140.4170 N   0  0  0  0  0  0  0  0  0  0  0  0
  186.2080  178.3550  138.6440 N   0  0  0  0  0  2  0  0  0  0  0  0
  185.1270  178.5230  142.7440 C   0  0  0  0  0  3  0  0  0  0  0  0
  190.1370  176.4810  139.9060 C   0  0  0  0  0  2  0  0  0  0  0  0
  185.8960  178.4090  140.0610 C   0  0  0  0  0  0  0  0  0  0  0  0
  190.2810  175.7960  138.6040 N   0  0  2  0  0  0  0  0  0  0  0  0
  189.3430  178.7770  139.9850 C   0  0  0  0  0  2  0  0  0  0  0  0
  186.8650  178.2640  141.0860 C   0  0  0  0  0  0  0  0  0  0  0  0
  191.3360  176.0410  136.1540 S   0  0  0  0  0  0  0  0  0  0  0  0
  190.7580  174.6800  135.8750 O   0  0  0  0  0  0  0  0  0  0  0  0
  191.1540  176.9130  134.9450 O   0  0  0  0  0  0  0  0  0  0  0  0
  193.0750  175.8890  136.5090 C   0  0  2  0  0  3  0  0  0  0  0  0
  193.4640  176.9180  137.3470 F   0  0  0  0  0  0  0  0  0  0  0  0
  193.8700  175.9460  135.2150 C   0  0  0  0  0  2  0  0  0  0  0  0
  195.4710  174.6340  136.5650 C   0  0  0  0  0  0  0  0  0  0  0  0
  194.8370  173.9810  137.4330 O   0  0  0  0  0  0  0  0  0  0  0  0
  194.9680  174.8920  135.1970 C   0  0  2  0  0  3  0  0  0  0  0  0
  197.2330  175.7890  135.5910 C   0  0  0  0  0  2  0  0  0  0  0  0
  196.1960  175.4780  134.5040 C   0  0  0  0  0  2  0  0  0  0  0  0
  196.7650  175.1420  136.8010 N   0  0  0  0  0  2  0  0  0  0  0  0
  185.9560  177.3070  136.1530 C   0  0  0  0  0  1  0  0  0  0  0  0
  187.2620  178.0270  136.4460 C   0  0  0  0  0  2  0  0  0  0  0  0
  187.4650  178.1840  143.5380 C   0  0  0  0  0  2  0  0  0  0  0  0
  187.8560  176.7310  143.7170 C   0  0  0  0  0  2  0  0  0  0  0  0
  189.3040  176.6200  143.7400 N   0  0  0  0  0  2  0  0  0  0  0  0
  189.8060  177.7370  144.5230 C   0  0  2  0  0  3  0  0  0  0  0  0
  191.3290  179.5180  144.0920 O   0  0  0  0  0  1  0  0  0  0  0  0
  191.7380  177.5800  142.9350 O   0  0  0  0  0  0  0  0  0  0  0  0
  190.9960  178.3300  143.8410 C   0  0  0  0  0  0  0  0  0  0  0  0
  190.1680  177.2620  145.9240 C   0  0  0  0  0  2  0  0  0  0  0  0
  191.6070  177.0850  146.0340 N   0  0  0  0  0  1  0  0  0  0  0  0
  1 17  1  0  0  0  0
  2 12  1  0  0  0  0
  2 32  1  0  0  0  0
  3  6  1  0  0  0  0
  4  9  1  0  0  0  0
  4 15  1  0  0  0  0
  6 13  1  0  0  0  0
  6 16  1  0  0  0  0
  6  1  1  0  0  0  0
  7  5  1  0  0  0  0
  7 12  2  0  0  0  0
  8  3  1  0  0  0  0
  8 11  1  0  0  0  0
  9  3  1  0  0  0  0
  9 15  1  0  0  0  0
 10  7  1  0  0  0  0
 11 14  1  0  0  0  0
 14 10  2  0  0  0  0
 14 17  1  0  0  0  0
 15 13  1  0  0  0  0
 16  1  1  0  0  0  0
 17  2  2  0  0  0  0
 18 21  1  0  0  0  0
 18  4  1  0  0  0  0
 19 18  2  0  0  0  0
 20 18  2  0  0  0  0
 21 22  1  0  0  0  0
 23 21  1  0  0  0  0
 24 29  1  0  0  0  0
 24 25  2  0  0  0  0
 26 23  1  0  0  0  0
 26 24  1  0  0  0  0
 27 29  1  0  0  0  0
 28 26  1  0  0  0  0
 28 27  1  0  0  0  0
 30 31  1  0  0  0  0
 31  8  1  0  0  0  0
 32 33  1  0  0  0  0
 33 34  1  0  0  0  0
 34 35  1  0  0  0  0
 35 39  1  0  0  0  0
 37 38  2  0  0  0  0
 38 36  1  0  0  0  0
 38 35  1  0  0  0  0
 39 40  1  0  0  0  0
M  END
>  <MODEL>
8

>  <REMARK>
 VINA RESULT:      -6.3      4.084      8.807
  Name = 
  11 active torsions:
  status: ('A' for Active; 'I' for Inactive)
    1  A    between atoms: C_1  and  S_7
    2  A    between atoms: C_1  and  C_14
    3  A    between atoms: C_3  and  C_26
    4  A    between atoms: N_4  and  C_25
    5  A    between atoms: N_4  and  CA_30
    6  A    between atoms: C_6  and  S_7
    7  A    between atoms: C_14  and  C_23
    8  A    between atoms: C_17  and  C_34
    9  A    between atoms: C_18  and  CA_30
   10  A    between atoms: C_25  and  C_26
   11  A    between atoms: CA_30  and  C_31
                            x       y       z     vdW  Elec       q    Type
                         _______ _______ _______ _____ _____    ______ ____

>  <TORSDO>
F 11

$$$$
=
 OpenBabel10232412503D

 40 45  0  0  1  0  0  0  0  0999 V2000
  186.7160  178.0480  143.7060 N   0  0  0  0  0  0  0  0  0  0  0  0
  186.2030  178.7580  145.9950 C   0  0  0  0  0  0  0  0  0  0  0  0
  188.7890  177.7160  142.5280 N   0  0  1  0  0  0  0  0  0  0  0  0
  188.5630  177.4320  140.0580 C   0  0  1  0  0  3  0  0  0  0  0  0
  188.0130  178.0510  149.2270 C   0  0  0  0  0  1  0  0  0  0  0  0
  187.3850  178.0080  142.3950 C   0  0  2  0  0  0  0  0  0  0  0  0
  187.6630  178.0670  147.7830 C   0  0  0  0  0  0  0  0  0  0  0  0
  189.0630  176.4520  143.2300 C   0  0  2  0  0  3  0  0  0  0  0  0
  189.3490  177.9730  141.1840 C   0  0  1  0  0  3  0  0  0  0  0  0
  188.4540  177.4210  146.8860 N   0  0  0  0  0  0  0  0  0  0  0  0
  189.0990  176.6830  144.6860 N   0  0  0  0  0  2  0  0  0  0  0  0
  186.5220  178.7450  147.3530 C   0  0  0  0  0  3  0  0  0  0  0  0
  187.1740  178.9750  141.2830 C   0  0  0  0  0  2  0  0  0  0  0  0
  188.1810  177.3990  145.5530 C   0  0  0  0  0  0  0  0  0  0  0  0
  188.3890  178.8500  140.4510 N   0  0  2  0  0  0  0  0  0  0  0  0
  186.4040  177.0770  142.5930 C   0  0  0  0  0  2  0  0  0  0  0  0
  187.0300  178.0830  145.0860 C   0  0  0  0  0  0  0  0  0  0  0  0
  189.5680  177.3310  138.5860 S   0  0  0  0  0  0  0  0  0  0  0  0
  189.2970  178.4910  137.6660 O   0  0  0  0  0  0  0  0  0  0  0  0
  191.0170  177.3420  138.9810 O   0  0  0  0  0  0  0  0  0  0  0  0
  189.2020  175.8040  137.7450 C   0  0  2  0  0  3  0  0  0  0  0  0
  190.3120  175.4000  137.0260 F   0  0  0  0  0  0  0  0  0  0  0  0
  188.0210  176.0020  136.8090 C   0  0  0  0  0  2  0  0  0  0  0  0
  186.7330  173.9200  136.4800 C   0  0  0  0  0  0  0  0  0  0  0  0
  187.4950  172.9340  136.6520 O   0  0  0  0  0  0  0  0  0  0  0  0
  186.8230  175.1770  137.2540 C   0  0  2  0  0  3  0  0  0  0  0  0
  184.9580  175.1560  135.6390 C   0  0  0  0  0  2  0  0  0  0  0  0
  185.5460  175.9070  136.8400 C   0  0  0  0  0  2  0  0  0  0  0  0
  185.6700  173.8960  135.5530 N   0  0  0  0  0  2  0  0  0  0  0  0
  191.4430  175.8520  143.8500 C   0  0  0  0  0  1  0  0  0  0  0  0
  190.3660  175.7810  142.7800 C   0  0  0  0  0  2  0  0  0  0  0  0
  184.9760  179.4790  145.5430 C   0  0  0  0  0  2  0  0  0  0  0  0
  184.0860  178.5490  144.7420 C   0  0  0  0  0  2  0  0  0  0  0  0
  183.1850  179.3350  143.9170 N   0  0  0  0  0  2  0  0  0  0  0  0
  182.3060  178.4000  143.2340 C   0  0  2  0  0  3  0  0  0  0  0  0
  183.4890  179.1850  141.3210 O   0  0  0  0  0  1  0  0  0  0  0  0
  181.9060  177.5800  140.9010 O   0  0  0  0  0  0  0  0  0  0  0  0
  182.6020  178.4140  141.7700 C   0  0  0  0  0  0  0  0  0  0  0  0
  180.8530  178.7760  143.4950 C   0  0  0  0  0  2  0  0  0  0  0  0
  180.6530  180.1940  143.2460 N   0  0  0  0  0  1  0  0  0  0  0  0
  1 17  1  0  0  0  0
  2 12  1  0  0  0  0
  3  8  1  0  0  0  0
  4 15  1  0  0  0  0
  4  9  1  0  0  0  0
  6  3  1  0  0  0  0
  6 16  1  0  0  0  0
  6  1  1  0  0  0  0
  7  5  1  0  0  0  0
  8 11  1  0  0  0  0
  9  3  1  0  0  0  0
 10  7  1  0  0  0  0
 11 14  1  0  0  0  0
 12  7  2  0  0  0  0
 13  6  1  0  0  0  0
 14 10  2  0  0  0  0
 15  9  1  0  0  0  0
 15 13  1  0  0  0  0
 16  1  1  0  0  0  0
 17 14  1  0  0  0  0
 17  2  2  0  0  0  0
 18 20  2  0  0  0  0
 18  4  1  0  0  0  0
 19 18  2  0  0  0  0
 21 18  1  0  0  0  0
 22 21  1  0  0  0  0
 23 26  1  0  0  0  0
 23 21  1  0  0  0  0
 24 25  2  0  0  0  0
 24 26  1  0  0  0  0
 27 28  1  0  0  0  0
 28 26  1  0  0  0  0
 29 27  1  0  0  0  0
 29 24  1  0  0  0  0
 31  8  1  0  0  0  0
 31 30  1  0  0  0  0
 32  2  1  0  0  0  0
 33 32  1  0  0  0  0
 34 33  1  0  0  0  0
 35 39  1  0  0  0  0
 35 34  1  0  0  0  0
 36 38  1  0  0  0  0
 37 38  2  0  0  0  0
 38 35  1  0  0  0  0
 40 39  1  0  0  0  0
M  END
>  <MODEL>
9

>  <REMARK>
 VINA RESULT:      -6.1      3.441      7.607
  Name = 
  11 active torsions:
  status: ('A' for Active; 'I' for Inactive)
    1  A    between atoms: C_1  and  S_7
    2  A    between atoms: C_1  and  C_14
    3  A    between atoms: C_3  and  C_26
    4  A    between atoms: N_4  and  C_25
    5  A    between atoms: N_4  and  CA_30
    6  A    between atoms: C_6  and  S_7
    7  A    between atoms: C_14  and  C_23
    8  A    between atoms: C_17  and  C_34
    9  A    between atoms: C_18  and  CA_30
   10  A    between atoms: C_25  and  C_26
   11  A    between atoms: CA_30  and  C_31
                            x       y       z     vdW  Elec       q    Type
                         _______ _______ _______ _____ _____    ______ ____

>  <TORSDO>
F 11

$$$$
