=
 OpenBabel10232408223D

 30 33  0  0  1  0  0  0  0  0999 V2000
  188.7160  177.9040  142.8510 C   0  0  1  0  0  3  0  0  0  0  0  0
  191.1300  176.3020  145.3370 C   0  0  0  0  0  0  0  0  0  0  0  0
  189.9260  177.6370  147.9240 C   0  0  0  0  0  2  0  0  0  0  0  0
  191.6250  176.5020  146.7450 C   0  0  2  0  0  3  0  0  0  0  0  0
  188.9750  178.0210  146.7940 C   0  0  0  0  0  2  0  0  0  0  0  0
  192.6930  175.5700  147.0690 N   0  0  0  0  0  1  0  0  0  0  0  0
  191.5150  175.2060  144.6260 N   0  0  0  0  0  0  0  0  0  0  0  0
  191.0540  174.9620  143.3720 C   0  0  0  0  0  3  0  0  0  0  0  0
  190.1510  175.8380  142.7770 C   0  0  0  0  0  3  0  0  0  0  0  0
  190.2120  177.2140  144.7720 C   0  0  0  0  0  0  0  0  0  0  0  0
  189.7250  176.9740  143.4730 C   0  0  0  0  0  0  0  0  0  0  0  0
  190.5240  176.3290  147.6830 N   0  0  0  0  0  2  0  0  0  0  0  0
  189.7510  178.4210  145.5440 C   0  0  0  0  0  2  0  0  0  0  0  0
  188.5870  177.2910  139.3060 C   0  0  0  0  0  0  0  0  0  0  0  0
  188.2330  179.3130  140.7850 C   0  0  0  0  0  2  0  0  0  0  0  0
  190.6720  176.0940  139.2460 N   0  0  0  0  0  1  0  0  0  0  0  0
  189.8280  177.1060  139.7890 C   0  0  0  0  0  0  0  0  0  0  0  0
  189.3100  178.7210  141.6910 C   0  0  2  0  0  3  0  0  0  0  0  0
  190.3870  177.9950  140.8700 C   0  0  0  0  0  2  0  0  0  0  0  0
  187.7380  178.3080  139.8510 N   0  0  0  0  0  2  0  0  0  0  0  0
  188.0460  176.4180  138.2210 C   0  0  0  0  0  2  0  0  0  0  0  0
  187.2150  177.1660  137.3880 O   0  0  0  0  0  1  0  0  0  0  0  0
  187.4000  177.1960  142.5230 C   0  0  0  0  0  2  0  0  0  0  0  0
  184.2580  178.7740  144.9910 C   0  0  0  0  0  3  0  0  0  0  0  0
  185.1160  178.2500  142.7850 C   0  0  0  0  0  0  0  0  0  0  0  0
  186.4310  177.7360  144.7590 C   0  0  0  0  0  3  0  0  0  0  0  0
  184.1080  178.7710  143.6020 C   0  0  0  0  0  3  0  0  0  0  0  0
  186.2860  177.7250  143.3670 C   0  0  0  0  0  0  0  0  0  0  0  0
  185.4190  178.2570  145.5700 C   0  0  0  0  0  3  0  0  0  0  0  0
  184.9470  178.2620  141.3710 N   0  0  0  0  0  1  0  0  0  0  0  0
  1 23  1  6  0  0  0
  1 11  1  0  0  0  0
  2  4  1  0  0  0  0
  4  6  1  1  0  0  0
  4 12  1  0  0  0  0
  5  3  1  0  0  0  0
  7  2  2  0  0  0  0
  8  7  1  0  0  0  0
  9  8  2  0  0  0  0
  9 11  1  0  0  0  0
 10  2  1  0  0  0  0
 10 13  1  0  0  0  0
 11 10  2  0  0  0  0
 12  3  1  0  0  0  0
 13  5  1  0  0  0  0
 14 17  2  0  0  0  0
 14 20  1  0  0  0  0
 15 18  1  0  0  0  0
 16 17  1  0  0  0  0
 17 19  1  0  0  0  0
 18  1  1  1  0  0  0
 19 18  1  0  0  0  0
 20 15  1  0  0  0  0
 21 14  1  0  0  0  0
 22 21  1  0  0  0  0
 23 28  1  0  0  0  0
 24 29  1  0  0  0  0
 25 28  2  0  0  0  0
 25 27  1  0  0  0  0
 26 29  2  0  0  0  0
 27 24  2  0  0  0  0
 28 26  1  0  0  0  0
 30 25  1  0  0  0  0
M  END
>  <MODEL>
1

>  <REMARK>
 VINA RESULT:      -7.0      0.000      0.000
  Name = 
  5 active torsions:
  status: ('A' for Active; 'I' for Inactive)
    1  A    between atoms: CA_1  and  C_2
    2  A    between atoms: C_10  and  C_20
    3  A    between atoms: C_10  and  C_24
    4  A    between atoms: C_13  and  C_24
    5  A    between atoms: C_24  and  C_26
                            x       y       z     vdW  Elec       q    Type
                         _______ _______ _______ _____ _____    ______ ____

>  <TORSDO>
F 5

$$$$
=
 OpenBabel10232408223D

 30 33  0  0  1  0  0  0  0  0999 V2000
  189.9630  177.0720  137.9820 C   0  0  1  0  0  3  0  0  0  0  0  0
  191.7790  174.0030  136.6190 C   0  0  0  0  0  0  0  0  0  0  0  0
  194.6510  174.7990  137.6360 C   0  0  0  0  0  2  0  0  0  0  0  0
  193.1760  173.5540  136.2820 C   0  0  2  0  0  3  0  0  0  0  0  0
  193.7100  175.8390  138.2370 C   0  0  0  0  0  2  0  0  0  0  0  0
  193.1730  172.2440  135.6480 N   0  0  0  0  0  1  0  0  0  0  0  0
  190.7390  173.1260  136.5370 N   0  0  0  0  0  0  0  0  0  0  0  0
  189.4720  173.4750  136.8790 C   0  0  0  0  0  3  0  0  0  0  0  0
  189.2030  174.7610  137.3400 C   0  0  0  0  0  3  0  0  0  0  0  0
  191.5490  175.3150  137.0860 C   0  0  0  0  0  0  0  0  0  0  0  0
  190.2410  175.6930  137.4440 C   0  0  0  0  0  0  0  0  0  0  0  0
  193.9840  173.5100  137.4920 N   0  0  0  0  0  2  0  0  0  0  0  0
  192.6820  176.2990  137.2090 C   0  0  0  0  0  2  0  0  0  0  0  0
  186.8470  177.7160  136.2980 C   0  0  0  0  0  0  0  0  0  0  0  0
  188.6570  179.1570  137.3230 C   0  0  0  0  0  2  0  0  0  0  0  0
  187.2900  176.1910  134.4920 N   0  0  0  0  0  1  0  0  0  0  0  0
  187.7310  177.1200  135.4790 C   0  0  0  0  0  0  0  0  0  0  0  0
  189.6390  178.0810  136.8680 C   0  0  2  0  0  3  0  0  0  0  0  0
  189.1990  177.4570  135.5340 C   0  0  0  0  0  2  0  0  0  0  0  0
  187.2890  178.6500  137.2900 N   0  0  0  0  0  2  0  0  0  0  0  0
  185.3910  177.3920  136.2250 C   0  0  0  0  0  2  0  0  0  0  0  0
  184.7700  177.7450  137.4220 O   0  0  0  0  0  1  0  0  0  0  0  0
  188.9570  177.0520  139.1350 C   0  0  0  0  0  2  0  0  0  0  0  0
  190.9620  177.9490  142.8280 C   0  0  0  0  0  3  0  0  0  0  0  0
  188.9270  177.9210  141.5100 C   0  0  0  0  0  0  0  0  0  0  0  0
  191.0010  177.0850  140.5680 C   0  0  0  0  0  3  0  0  0  0  0  0
  189.5960  178.2180  142.7010 C   0  0  0  0  0  3  0  0  0  0  0  0
  189.6320  177.3470  140.4360 C   0  0  0  0  0  0  0  0  0  0  0  0
  191.6640  177.3830  141.7610 C   0  0  0  0  0  3  0  0  0  0  0  0
  187.5360  178.2090  141.3990 N   0  0  0  0  0  1  0  0  0  0  0  0
  1 23  1  1  0  0  0
  2 10  1  0  0  0  0
  3  5  1  0  0  0  0
  4  6  1  1  0  0  0
  4  2  1  0  0  0  0
  4 12  1  0  0  0  0
  7  2  2  0  0  0  0
  7  8  1  0  0  0  0
  8  9  2  0  0  0  0
  9 11  1  0  0  0  0
 10 13  1  0  0  0  0
 10 11  2  0  0  0  0
 11  1  1  0  0  0  0
 12  3  1  0  0  0  0
 13  5  1  0  0  0  0
 14 20  1  0  0  0  0
 16 17  1  0  0  0  0
 17 19  1  0  0  0  0
 17 14  2  0  0  0  0
 18 15  1  0  0  0  0
 18  1  1  1  0  0  0
 19 18  1  0  0  0  0
 20 15  1  0  0  0  0
 21 14  1  0  0  0  0
 21 22  1  0  0  0  0
 23 28  1  0  0  0  0
 25 27  2  0  0  0  0
 26 29  1  0  0  0  0
 27 24  1  0  0  0  0
 28 26  2  0  0  0  0
 28 25  1  0  0  0  0
 29 24  2  0  0  0  0
 30 25  1  0  0  0  0
M  END
>  <MODEL>
2

>  <REMARK>
 VINA RESULT:      -6.8      3.771      6.968
  Name = 
  5 active torsions:
  status: ('A' for Active; 'I' for Inactive)
    1  A    between atoms: CA_1  and  C_2
    2  A    between atoms: C_10  and  C_20
    3  A    between atoms: C_10  and  C_24
    4  A    between atoms: C_13  and  C_24
    5  A    between atoms: C_24  and  C_26
                            x       y       z     vdW  Elec       q    Type
                         _______ _______ _______ _____ _____    ______ ____

>  <TORSDO>
F 5

$$$$
=
 OpenBabel10232408223D

 30 33  0  0  1  0  0  0  0  0999 V2000
  188.5760  176.9640  136.9550 C   0  0  1  0  0  3  0  0  0  0  0  0
  188.9920  173.4660  135.4860 C   0  0  0  0  0  0  0  0  0  0  0  0
  186.1790  172.3620  136.3730 C   0  0  0  0  0  2  0  0  0  0  0  0
  188.3970  172.0890  135.6170 C   0  0  2  0  0  3  0  0  0  0  0  0
  186.1570  173.8460  136.7230 C   0  0  0  0  0  2  0  0  0  0  0  0
  189.1300  171.1160  134.8230 N   0  0  0  0  0  1  0  0  0  0  0  0
  189.9330  173.7160  134.5320 N   0  0  0  0  0  0  0  0  0  0  0  0
  190.4600  174.9540  134.3460 C   0  0  0  0  0  3  0  0  0  0  0  0
  190.0350  176.0190  135.1360 C   0  0  0  0  0  3  0  0  0  0  0  0
  188.5320  174.5180  136.3050 C   0  0  0  0  0  0  0  0  0  0  0  0
  189.0690  175.8080  136.1250 C   0  0  0  0  0  0  0  0  0  0  0  0
  187.0030  172.1140  135.1950 N   0  0  0  0  0  2  0  0  0  0  0  0
  187.4770  174.2770  137.3510 C   0  0  0  0  0  2  0  0  0  0  0  0
  189.4220  177.0660  140.4530 C   0  0  0  0  0  0  0  0  0  0  0  0
  190.7240  176.7490  138.3050 C   0  0  0  0  0  2  0  0  0  0  0  0
  188.1460  179.0550  140.8970 N   0  0  0  0  0  1  0  0  0  0  0  0
  188.9410  178.2480  140.0310 C   0  0  0  0  0  0  0  0  0  0  0  0
  189.7200  177.7050  137.6670 C   0  0  2  0  0  3  0  0  0  0  0  0
  189.2720  178.7860  138.6630 C   0  0  0  0  0  2  0  0  0  0  0  0
  190.2210  176.2550  139.5830 N   0  0  0  0  0  2  0  0  0  0  0  0
  189.1060  176.5480  141.8170 C   0  0  0  0  0  2  0  0  0  0  0  0
  190.1700  175.7800  142.2870 O   0  0  0  0  0  1  0  0  0  0  0  0
  187.6190  177.8700  136.1750 C   0  0  0  0  0  2  0  0  0  0  0  0
  183.5370  177.2300  137.3520 C   0  0  0  0  0  3  0  0  0  0  0  0
  185.2740  177.0720  135.6680 C   0  0  0  0  0  0  0  0  0  0  0  0
  185.7840  177.9670  137.8650 C   0  0  0  0  0  3  0  0  0  0  0  0
  183.9460  176.8810  136.0620 C   0  0  0  0  0  3  0  0  0  0  0  0
  186.2010  177.6160  136.5750 C   0  0  0  0  0  0  0  0  0  0  0  0
  184.4560  177.7730  138.2540 C   0  0  0  0  0  3  0  0  0  0  0  0
  185.6680  176.7170  134.3460 N   0  0  0  0  0  1  0  0  0  0  0  0
  1 23  1  6  0  0  0
  2  4  1  0  0  0  0
  2 10  1  0  0  0  0
  3  5  1  0  0  0  0
  4  6  1  6  0  0  0
  5 13  1  0  0  0  0
  7  2  2  0  0  0  0
  8  7  1  0  0  0  0
  8  9  2  0  0  0  0
  9 11  1  0  0  0  0
 10 13  1  0  0  0  0
 11 10  2  0  0  0  0
 11  1  1  0  0  0  0
 12  4  1  0  0  0  0
 12  3  1  0  0  0  0
 14 21  1  0  0  0  0
 15 20  1  0  0  0  0
 17 14  2  0  0  0  0
 17 16  1  0  0  0  0
 18  1  1  1  0  0  0
 18 15  1  0  0  0  0
 18 19  1  0  0  0  0
 19 17  1  0  0  0  0
 20 14  1  0  0  0  0
 21 22  1  0  0  0  0
 23 28  1  0  0  0  0
 24 29  1  0  0  0  0
 25 27  1  0  0  0  0
 25 28  2  0  0  0  0
 26 29  2  0  0  0  0
 27 24  2  0  0  0  0
 28 26  1  0  0  0  0
 30 25  1  0  0  0  0
M  END
>  <MODEL>
3

>  <REMARK>
 VINA RESULT:      -6.7      4.163      8.132
  Name = 
  5 active torsions:
  status: ('A' for Active; 'I' for Inactive)
    1  A    between atoms: CA_1  and  C_2
    2  A    between atoms: C_10  and  C_20
    3  A    between atoms: C_10  and  C_24
    4  A    between atoms: C_13  and  C_24
    5  A    between atoms: C_24  and  C_26
                            x       y       z     vdW  Elec       q    Type
                         _______ _______ _______ _____ _____    ______ ____

>  <TORSDO>
F 5

$$$$
=
 OpenBabel10232408223D

 30 33  0  0  1  0  0  0  0  0999 V2000
  188.5970  177.0460  143.6380 C   0  0  1  0  0  3  0  0  0  0  0  0
  185.0730  178.5020  143.4520 C   0  0  0  0  0  0  0  0  0  0  0  0
  184.4790  178.4130  146.5440 C   0  0  0  0  0  2  0  0  0  0  0  0
  183.8220  178.5840  144.2850 C   0  0  2  0  0  3  0  0  0  0  0  0
  185.9470  178.0200  146.4050 C   0  0  0  0  0  2  0  0  0  0  0  0
  182.7320  179.2030  143.5450 N   0  0  0  0  0  1  0  0  0  0  0  0
  185.1520  179.1710  142.2670 N   0  0  0  0  0  0  0  0  0  0  0  0
  186.2780  179.1630  141.5080 C   0  0  0  0  0  3  0  0  0  0  0  0
  187.4050  178.4660  141.9370 C   0  0  0  0  0  3  0  0  0  0  0  0
  186.1930  177.7850  143.9240 C   0  0  0  0  0  0  0  0  0  0  0  0
  187.3690  177.7680  143.1490 C   0  0  0  0  0  0  0  0  0  0  0  0
  184.0870  179.3490  145.4960 N   0  0  0  0  0  2  0  0  0  0  0  0
  186.1430  177.0560  145.2400 C   0  0  0  0  0  2  0  0  0  0  0  0
  191.3650  177.2280  141.3420 C   0  0  0  0  0  0  0  0  0  0  0  0
  190.5020  175.4930  142.9710 C   0  0  0  0  0  2  0  0  0  0  0  0
  190.0360  178.0400  139.5100 N   0  0  0  0  0  1  0  0  0  0  0  0
  190.1880  177.2600  140.6930 C   0  0  0  0  0  0  0  0  0  0  0  0
  189.1050  176.0040  142.6280 C   0  0  2  0  0  3  0  0  0  0  0  0
  189.0170  176.4310  141.1540 C   0  0  0  0  0  2  0  0  0  0  0  0
  191.5180  176.4440  142.5320 N   0  0  0  0  0  2  0  0  0  0  0  0
  192.5270  178.0370  140.8680 C   0  0  0  0  0  2  0  0  0  0  0  0
  193.2860  177.2880  139.9710 O   0  0  0  0  0  1  0  0  0  0  0  0
  189.6690  178.0090  144.1530 C   0  0  0  0  0  2  0  0  0  0  0  0
  190.0730  177.5910  148.4090 C   0  0  0  0  0  3  0  0  0  0  0  0
  190.9370  177.1860  146.1800 C   0  0  0  0  0  0  0  0  0  0  0  0
  188.8650  178.4130  146.4810 C   0  0  0  0  0  3  0  0  0  0  0  0
  191.0480  177.0480  147.5670 C   0  0  0  0  0  3  0  0  0  0  0  0
  189.8400  177.8760  145.6320 C   0  0  0  0  0  0  0  0  0  0  0  0
  188.9820  178.2730  147.8660 C   0  0  0  0  0  3  0  0  0  0  0  0
  191.9370  176.6200  145.3390 N   0  0  0  0  0  1  0  0  0  0  0  0
  1 23  1  6  0  0  0
  2 10  1  0  0  0  0
  2  4  1  0  0  0  0
  4  6  1  6  0  0  0
  4 12  1  0  0  0  0
  5  3  1  0  0  0  0
  7  2  2  0  0  0  0
  8  9  2  0  0  0  0
  8  7  1  0  0  0  0
  9 11  1  0  0  0  0
 10 13  1  0  0  0  0
 11  1  1  0  0  0  0
 11 10  2  0  0  0  0
 12  3  1  0  0  0  0
 13  5  1  0  0  0  0
 14 20  1  0  0  0  0
 16 17  1  0  0  0  0
 17 19  1  0  0  0  0
 17 14  2  0  0  0  0
 18 15  1  0  0  0  0
 18  1  1  1  0  0  0
 19 18  1  0  0  0  0
 20 15  1  0  0  0  0
 21 14  1  0  0  0  0
 22 21  1  0  0  0  0
 23 28  1  0  0  0  0
 25 27  1  0  0  0  0
 26 29  2  0  0  0  0
 27 24  2  0  0  0  0
 28 25  2  0  0  0  0
 28 26  1  0  0  0  0
 29 24  1  0  0  0  0
 30 25  1  0  0  0  0
M  END
>  <MODEL>
4

>  <REMARK>
 VINA RESULT:      -6.5      1.981      5.575
  Name = 
  5 active torsions:
  status: ('A' for Active; 'I' for Inactive)
    1  A    between atoms: CA_1  and  C_2
    2  A    between atoms: C_10  and  C_20
    3  A    between atoms: C_10  and  C_24
    4  A    between atoms: C_13  and  C_24
    5  A    between atoms: C_24  and  C_26
                            x       y       z     vdW  Elec       q    Type
                         _______ _______ _______ _____ _____    ______ ____

>  <TORSDO>
F 5

$$$$
=
 OpenBabel10232408223D

 30 33  0  0  1  0  0  0  0  0999 V2000
  188.9820  177.5470  139.1700 C   0  0  1  0  0  3  0  0  0  0  0  0
  188.5620  177.4610  142.9630 C   0  0  0  0  0  0  0  0  0  0  0  0
  191.6070  177.0520  143.6570 C   0  0  0  0  0  2  0  0  0  0  0  0
  189.3100  177.0070  144.1890 C   0  0  2  0  0  3  0  0  0  0  0  0
  191.5660  177.2890  142.1510 C   0  0  0  0  0  2  0  0  0  0  0  0
  188.5000  177.1550  145.3890 N   0  0  0  0  0  1  0  0  0  0  0  0
  187.3870  178.1390  143.0900 N   0  0  0  0  0  0  0  0  0  0  0  0
  186.7050  178.6080  142.0140 C   0  0  0  0  0  3  0  0  0  0  0  0
  187.2070  178.4130  140.7300 C   0  0  0  0  0  3  0  0  0  0  0  0
  189.1080  177.2450  141.6800 C   0  0  0  0  0  0  0  0  0  0  0  0
  188.4130  177.7260  140.5530 C   0  0  0  0  0  0  0  0  0  0  0  0
  190.5370  177.7790  144.3300 N   0  0  0  0  0  2  0  0  0  0  0  0
  190.4160  176.5200  141.5100 C   0  0  0  0  0  2  0  0  0  0  0  0
  187.7260  176.6540  135.9160 C   0  0  0  0  0  0  0  0  0  0  0  0
  186.8240  177.9640  137.8850 C   0  0  0  0  0  2  0  0  0  0  0  0
  189.7320  177.3000  134.7570 N   0  0  0  0  0  1  0  0  0  0  0  0
  188.7980  177.4600  135.8220 C   0  0  0  0  0  0  0  0  0  0  0  0
  188.2620  178.4140  138.1240 C   0  0  2  0  0  3  0  0  0  0  0  0
  189.0170  178.5890  136.7960 C   0  0  0  0  0  2  0  0  0  0  0  0
  186.7880  176.8150  136.9870 N   0  0  0  0  0  2  0  0  0  0  0  0
  187.5060  175.5490  134.9370 C   0  0  0  0  0  2  0  0  0  0  0  0
  187.7480  174.3220  135.5510 O   0  0  0  0  0  1  0  0  0  0  0  0
  190.5080  177.6630  139.1520 C   0  0  0  0  0  2  0  0  0  0  0  0
  192.2340  174.2170  137.2550 C   0  0  0  0  0  3  0  0  0  0  0  0
  192.5240  176.3210  138.4250 C   0  0  0  0  0  0  0  0  0  0  0  0
  190.2950  175.4740  137.9740 C   0  0  0  0  0  3  0  0  0  0  0  0
  193.0700  175.1990  137.7940 C   0  0  0  0  0  3  0  0  0  0  0  0
  191.1270  176.4590  138.5190 C   0  0  0  0  0  0  0  0  0  0  0  0
  190.8460  174.3540  137.3450 C   0  0  0  0  0  3  0  0  0  0  0  0
  193.3930  177.3130  138.9610 N   0  0  0  0  0  1  0  0  0  0  0  0
  1 23  1  1  0  0  0
  1 11  1  0  0  0  0
  2  7  1  0  0  0  0
  2  4  1  0  0  0  0
  3 12  1  0  0  0  0
  4 12  1  0  0  0  0
  4  6  1  1  0  0  0
  5  3  1  0  0  0  0
  8  7  2  0  0  0  0
  9  8  1  0  0  0  0
 10  2  2  0  0  0  0
 11  9  2  0  0  0  0
 11 10  1  0  0  0  0
 13 10  1  0  0  0  0
 13  5  1  0  0  0  0
 14 20  1  0  0  0  0
 15 18  1  0  0  0  0
 16 17  1  0  0  0  0
 17 14  2  0  0  0  0
 17 19  1  0  0  0  0
 18  1  1  1  0  0  0
 19 18  1  0  0  0  0
 20 15  1  0  0  0  0
 21 22  1  0  0  0  0
 21 14  1  0  0  0  0
 24 29  2  0  0  0  0
 24 27  1  0  0  0  0
 25 28  1  0  0  0  0
 25 30  1  0  0  0  0
 26 28  2  0  0  0  0
 27 25  2  0  0  0  0
 28 23  1  0  0  0  0
 29 26  1  0  0  0  0
M  END
>  <MODEL>
5

>  <REMARK>
 VINA RESULT:      -6.5      2.652      5.934
  Name = 
  5 active torsions:
  status: ('A' for Active; 'I' for Inactive)
    1  A    between atoms: CA_1  and  C_2
    2  A    between atoms: C_10  and  C_20
    3  A    between atoms: C_10  and  C_24
    4  A    between atoms: C_13  and  C_24
    5  A    between atoms: C_24  and  C_26
                            x       y       z     vdW  Elec       q    Type
                         _______ _______ _______ _____ _____    ______ ____

>  <TORSDO>
F 5

$$$$
=
 OpenBabel10232408223D

 30 33  0  0  1  0  0  0  0  0999 V2000
  185.2720  177.2960  137.1800 C   0  0  1  0  0  3  0  0  0  0  0  0
  182.0000  175.5270  136.3240 C   0  0  0  0  0  0  0  0  0  0  0  0
  181.0710  175.0240  139.2920 C   0  0  0  0  0  2  0  0  0  0  0  0
  180.9830  174.6220  136.9690 C   0  0  2  0  0  3  0  0  0  0  0  0
  182.3180  175.8970  139.4030 C   0  0  0  0  0  2  0  0  0  0  0  0
  179.9820  174.1810  136.0100 N   0  0  0  0  0  1  0  0  0  0  0  0
  181.7850  176.0130  135.0700 N   0  0  0  0  0  0  0  0  0  0  0  0
  182.6520  176.8690  134.4700 C   0  0  0  0  0  3  0  0  0  0  0  0
  183.7980  177.2870  135.1420 C   0  0  0  0  0  3  0  0  0  0  0  0
  183.1480  175.9280  137.0410 C   0  0  0  0  0  0  0  0  0  0  0  0
  184.0560  176.8160  136.4330 C   0  0  0  0  0  0  0  0  0  0  0  0
  180.3320  175.3200  138.0690 N   0  0  0  0  0  2  0  0  0  0  0  0
  183.3990  175.4260  138.4380 C   0  0  0  0  0  2  0  0  0  0  0  0
  188.6880  177.4820  138.3040 C   0  0  0  0  0  0  0  0  0  0  0  0
  187.3400  175.8290  136.9430 C   0  0  0  0  0  2  0  0  0  0  0  0
  188.9880  179.7670  137.6150 N   0  0  0  0  0  1  0  0  0  0  0  0
  188.3990  178.4790  137.4500 C   0  0  0  0  0  0  0  0  0  0  0  0
  186.5760  177.0360  136.4070 C   0  0  2  0  0  3  0  0  0  0  0  0
  187.4990  178.2560  136.2620 C   0  0  0  0  0  2  0  0  0  0  0  0
  188.0960  176.1880  138.1380 N   0  0  0  0  0  2  0  0  0  0  0  0
  189.5960  177.7060  139.4680 C   0  0  0  0  0  2  0  0  0  0  0  0
  188.9820  177.2560  140.6360 O   0  0  0  0  0  1  0  0  0  0  0  0
  185.1100  178.7300  137.6900 C   0  0  0  0  0  2  0  0  0  0  0  0
  184.0820  178.8210  141.8610 C   0  0  0  0  0  3  0  0  0  0  0  0
  183.4230  179.0770  139.5420 C   0  0  0  0  0  0  0  0  0  0  0  0
  185.7000  178.4530  140.1000 C   0  0  0  0  0  3  0  0  0  0  0  0
  183.1070  179.1140  140.9030 C   0  0  0  0  0  3  0  0  0  0  0  0
  184.7270  178.7420  139.1350 C   0  0  0  0  0  0  0  0  0  0  0  0
  185.3790  178.4910  141.4590 C   0  0  0  0  0  3  0  0  0  0  0  0
  182.4160  179.3860  138.5820 N   0  0  0  0  0  1  0  0  0  0  0  0
  1 23  1  6  0  0  0
  2  4  1  0  0  0  0
  2 10  1  0  0  0  0
  3  5  1  0  0  0  0
  4  6  1  6  0  0  0
  4 12  1  0  0  0  0
  7  2  2  0  0  0  0
  8  7  1  0  0  0  0
  8  9  2  0  0  0  0
  9 11  1  0  0  0  0
 10 13  1  0  0  0  0
 11 10  2  0  0  0  0
 11  1  1  0  0  0  0
 12  3  1  0  0  0  0
 13  5  1  0  0  0  0
 14 21  1  0  0  0  0
 15 20  1  0  0  0  0
 17 16  1  0  0  0  0
 17 14  2  0  0  0  0
 18 15  1  0  0  0  0
 18  1  1  1  0  0  0
 19 18  1  0  0  0  0
 19 17  1  0  0  0  0
 20 14  1  0  0  0  0
 21 22  1  0  0  0  0
 23 28  1  0  0  0  0
 25 27  1  0  0  0  0
 26 29  2  0  0  0  0
 27 24  2  0  0  0  0
 28 25  2  0  0  0  0
 28 26  1  0  0  0  0
 29 24  1  0  0  0  0
 30 25  1  0  0  0  0
M  END
>  <MODEL>
6

>  <REMARK>
 VINA RESULT:      -6.4      4.851      8.551
  Name = 
  5 active torsions:
  status: ('A' for Active; 'I' for Inactive)
    1  A    between atoms: CA_1  and  C_2
    2  A    between atoms: C_10  and  C_20
    3  A    between atoms: C_10  and  C_24
    4  A    between atoms: C_13  and  C_24
    5  A    between atoms: C_24  and  C_26
                            x       y       z     vdW  Elec       q    Type
                         _______ _______ _______ _____ _____    ______ ____

>  <TORSDO>
F 5

$$$$
=
 OpenBabel10232408223D

 30 33  0  0  1  0  0  0  0  0999 V2000
  189.2650  176.8410  141.1930 C   0  0  1  0  0  3  0  0  0  0  0  0
  192.2830  176.5530  138.8730 C   0  0  0  0  0  0  0  0  0  0  0  0
  190.6620  175.9480  136.2410 C   0  0  0  0  0  2  0  0  0  0  0  0
  192.6420  175.9900  137.5230 C   0  0  2  0  0  3  0  0  0  0  0  0
  189.6090  176.2750  137.2950 C   0  0  0  0  0  2  0  0  0  0  0  0
  194.0680  176.1080  137.2620 N   0  0  0  0  0  1  0  0  0  0  0  0
  193.1960  177.2810  139.5750 N   0  0  0  0  0  0  0  0  0  0  0  0
  192.8990  177.8480  140.7730 C   0  0  0  0  0  3  0  0  0  0  0  0
  191.6260  177.7030  141.3170 C   0  0  0  0  0  3  0  0  0  0  0  0
  190.9800  176.3850  139.3880 C   0  0  0  0  0  0  0  0  0  0  0  0
  190.6560  176.9670  140.6290 C   0  0  0  0  0  0  0  0  0  0  0  0
  191.8950  176.6880  136.4860 N   0  0  0  0  0  2  0  0  0  0  0  0
  189.9430  175.6050  138.6240 C   0  0  0  0  0  2  0  0  0  0  0  0
  189.4670  177.4000  144.7440 C   0  0  0  0  0  0  0  0  0  0  0  0
  187.9610  176.0430  143.2290 C   0  0  0  0  0  2  0  0  0  0  0  0
  191.8410  177.0290  144.8580 N   0  0  0  0  0  1  0  0  0  0  0  0
  190.5620  176.7680  144.2850 C   0  0  0  0  0  0  0  0  0  0  0  0
  189.1910  175.8330  142.3510 C   0  0  2  0  0  3  0  0  0  0  0  0
  190.4670  175.7250  143.2010 C   0  0  0  0  0  2  0  0  0  0  0  0
  188.1810  177.1370  144.1690 N   0  0  0  0  0  2  0  0  0  0  0  0
  189.5660  178.4180  145.8320 C   0  0  0  0  0  2  0  0  0  0  0  0
  188.7900  178.0200  146.9190 O   0  0  0  0  0  1  0  0  0  0  0  0
  188.6370  178.2040  141.4940 C   0  0  0  0  0  2  0  0  0  0  0  0
  185.1400  178.7520  139.0600 C   0  0  0  0  0  3  0  0  0  0  0  0
  186.1970  178.8160  141.2410 C   0  0  0  0  0  0  0  0  0  0  0  0
  187.4840  178.1950  139.2800 C   0  0  0  0  0  3  0  0  0  0  0  0
  185.0640  178.9790  140.4370 C   0  0  0  0  0  3  0  0  0  0  0  0
  187.4170  178.4240  140.6600 C   0  0  0  0  0  0  0  0  0  0  0  0
  186.3500  178.3600  138.4810 C   0  0  0  0  0  3  0  0  0  0  0  0
  186.0970  179.0460  142.6430 N   0  0  0  0  0  1  0  0  0  0  0  0
  1 23  1  1  0  0  0
  2 10  2  0  0  0  0
  2  7  1  0  0  0  0
  3 12  1  0  0  0  0
  3  5  1  0  0  0  0
  4  6  1  6  0  0  0
  4  2  1  0  0  0  0
  5 13  1  0  0  0  0
  7  8  2  0  0  0  0
  8  9  1  0  0  0  0
 10 11  1  0  0  0  0
 11  1  1  0  0  0  0
 11  9  2  0  0  0  0
 12  4  1  0  0  0  0
 13 10  1  0  0  0  0
 14 21  1  0  0  0  0
 15 20  1  0  0  0  0
 17 14  2  0  0  0  0
 17 16  1  0  0  0  0
 18  1  1  6  0  0  0
 18 19  1  0  0  0  0
 18 15  1  0  0  0  0
 19 17  1  0  0  0  0
 20 14  1  0  0  0  0
 21 22  1  0  0  0  0
 24 27  1  0  0  0  0
 25 30  1  0  0  0  0
 26 28  2  0  0  0  0
 27 25  2  0  0  0  0
 28 25  1  0  0  0  0
 28 23  1  0  0  0  0
 29 24  2  0  0  0  0
 29 26  1  0  0  0  0
M  END
>  <MODEL>
7

>  <REMARK>
 VINA RESULT:      -6.0      2.832      6.314
  Name = 
  5 active torsions:
  status: ('A' for Active; 'I' for Inactive)
    1  A    between atoms: CA_1  and  C_2
    2  A    between atoms: C_10  and  C_20
    3  A    between atoms: C_10  and  C_24
    4  A    between atoms: C_13  and  C_24
    5  A    between atoms: C_24  and  C_26
                            x       y       z     vdW  Elec       q    Type
                         _______ _______ _______ _____ _____    ______ ____

>  <TORSDO>
F 5

$$$$
=
 OpenBabel10232408223D

 30 33  0  0  1  0  0  0  0  0999 V2000
  187.7430  178.1710  141.0180 C   0  0  1  0  0  3  0  0  0  0  0  0
  184.4140  178.4870  142.8580 C   0  0  0  0  0  0  0  0  0  0  0  0
  185.6140  178.5650  145.7690 C   0  0  0  0  0  2  0  0  0  0  0  0
  183.8430  178.2860  144.2370 C   0  0  2  0  0  3  0  0  0  0  0  0
  186.8200  178.6120  144.8360 C   0  0  0  0  0  2  0  0  0  0  0  0
  182.3990  178.4690  144.2450 N   0  0  0  0  0  1  0  0  0  0  0  0
  183.6410  179.0160  141.8680 N   0  0  0  0  0  0  0  0  0  0  0  0
  184.1300  179.2600  140.6250 C   0  0  0  0  0  3  0  0  0  0  0  0
  185.4620  178.9790  140.3300 C   0  0  0  0  0  3  0  0  0  0  0  0
  185.7700  178.1910  142.6020 C   0  0  0  0  0  0  0  0  0  0  0  0
  186.2920  178.4390  141.3180 C   0  0  0  0  0  0  0  0  0  0  0  0
  184.4590  179.2220  145.1660 N   0  0  0  0  0  2  0  0  0  0  0  0
  186.6530  177.6280  143.6830 C   0  0  0  0  0  2  0  0  0  0  0  0
  189.8720  176.3560  138.7520 C   0  0  0  0  0  0  0  0  0  0  0  0
  187.5790  177.4130  138.5920 C   0  0  0  0  0  2  0  0  0  0  0  0
  191.8400  177.6340  139.2780 N   0  0  0  0  0  1  0  0  0  0  0  0
  190.4280  177.5250  139.1150 C   0  0  0  0  0  0  0  0  0  0  0  0
  188.1050  178.4750  139.5540 C   0  0  2  0  0  3  0  0  0  0  0  0
  189.5930  178.7650  139.3000 C   0  0  0  0  0  2  0  0  0  0  0  0
  188.4530  176.2460  138.5870 N   0  0  0  0  0  2  0  0  0  0  0  0
  190.7090  175.1360  138.5510 C   0  0  0  0  0  2  0  0  0  0  0  0
  190.1010  174.2970  137.6180 O   0  0  0  0  0  1  0  0  0  0  0  0
  188.6750  178.8100  142.0500 C   0  0  0  0  0  2  0  0  0  0  0  0
  191.3110  175.8380  143.6870 C   0  0  0  0  0  3  0  0  0  0  0  0
  190.6540  178.1630  143.4860 C   0  0  0  0  0  0  0  0  0  0  0  0
  189.3950  176.4370  142.3350 C   0  0  0  0  0  3  0  0  0  0  0  0
  191.5100  177.1850  144.0020 C   0  0  0  0  0  3  0  0  0  0  0  0
  189.5870  177.7880  142.6490 C   0  0  0  0  0  0  0  0  0  0  0  0
  190.2530  175.4640  142.8540 C   0  0  0  0  0  3  0  0  0  0  0  0
  190.8780  179.5310  143.8130 N   0  0  0  0  0  1  0  0  0  0  0  0
  1 11  1  0  0  0  0
  1 23  1  1  0  0  0
  2  4  1  0  0  0  0
  4  6  1  6  0  0  0
  4 12  1  0  0  0  0
  5  3  1  0  0  0  0
  7  2  2  0  0  0  0
  8  7  1  0  0  0  0
  9  8  2  0  0  0  0
  9 11  1  0  0  0  0
 10  2  1  0  0  0  0
 10 13  1  0  0  0  0
 11 10  2  0  0  0  0
 12  3  1  0  0  0  0
 13  5  1  0  0  0  0
 14 17  2  0  0  0  0
 15 18  1  0  0  0  0
 17 16  1  0  0  0  0
 17 19  1  0  0  0  0
 18  1  1  1  0  0  0
 19 18  1  0  0  0  0
 20 15  1  0  0  0  0
 20 14  1  0  0  0  0
 21 14  1  0  0  0  0
 22 21  1  0  0  0  0
 23 28  1  0  0  0  0
 24 27  1  0  0  0  0
 25 30  1  0  0  0  0
 25 27  2  0  0  0  0
 26 28  2  0  0  0  0
 26 29  1  0  0  0  0
 28 25  1  0  0  0  0
 29 24  2  0  0  0  0
M  END
>  <MODEL>
8

>  <REMARK>
 VINA RESULT:      -6.0      2.360      5.511
  Name = 
  5 active torsions:
  status: ('A' for Active; 'I' for Inactive)
    1  A    between atoms: CA_1  and  C_2
    2  A    between atoms: C_10  and  C_20
    3  A    between atoms: C_10  and  C_24
    4  A    between atoms: C_13  and  C_24
    5  A    between atoms: C_24  and  C_26
                            x       y       z     vdW  Elec       q    Type
                         _______ _______ _______ _____ _____    ______ ____

>  <TORSDO>
F 5

$$$$
=
 OpenBabel10232408223D

 30 33  0  0  1  0  0  0  0  0999 V2000
  187.7740  177.7450  138.4630 C   0  0  1  0  0  3  0  0  0  0  0  0
  186.0250  178.6850  141.7240 C   0  0  0  0  0  0  0  0  0  0  0  0
  183.0840  178.5820  140.6020 C   0  0  0  0  0  2  0  0  0  0  0  0
  184.6980  179.2120  142.2020 C   0  0  2  0  0  3  0  0  0  0  0  0
  183.9640  178.0580  139.4710 C   0  0  0  0  0  2  0  0  0  0  0  0
  184.7200  179.4830  143.6310 N   0  0  0  0  0  1  0  0  0  0  0  0
  186.9770  178.3080  142.6240 N   0  0  0  0  0  0  0  0  0  0  0  0
  188.1670  177.7820  142.2370 C   0  0  0  0  0  3  0  0  0  0  0  0
  188.4450  177.6040  140.8840 C   0  0  0  0  0  3  0  0  0  0  0  0
  186.2660  178.5180  140.3430 C   0  0  0  0  0  0  0  0  0  0  0  0
  187.4960  177.9740  139.9260 C   0  0  0  0  0  0  0  0  0  0  0  0
  183.6500  178.2460  141.9040 N   0  0  0  0  0  2  0  0  0  0  0  0
  185.2250  178.9040  139.3270 C   0  0  0  0  0  2  0  0  0  0  0  0
  189.8740  176.8690  135.6730 C   0  0  0  0  0  0  0  0  0  0  0  0
  189.0330  179.0390  136.6670 C   0  0  0  0  0  2  0  0  0  0  0  0
  191.2170  175.3180  136.9280 N   0  0  0  0  0  1  0  0  0  0  0  0
  190.4340  176.5070  136.8390 C   0  0  0  0  0  0  0  0  0  0  0  0
  189.1200  178.3420  138.0220 C   0  0  2  0  0  3  0  0  0  0  0  0
  190.3090  177.3680  138.0700 C   0  0  0  0  0  2  0  0  0  0  0  0
  189.0870  178.0640  135.5840 N   0  0  0  0  0  2  0  0  0  0  0  0
  190.0180  176.0190  134.4530 C   0  0  0  0  0  2  0  0  0  0  0  0
  188.9400  175.1410  134.3620 O   0  0  0  0  0  1  0  0  0  0  0  0
  187.5600  176.2860  138.0540 C   0  0  0  0  0  2  0  0  0  0  0  0
  184.3140  175.9770  135.2570 C   0  0  0  0  0  3  0  0  0  0  0  0
  185.8610  174.9070  136.7870 C   0  0  0  0  0  0  0  0  0  0  0  0
  185.9120  177.3140  136.4870 C   0  0  0  0  0  3  0  0  0  0  0  0
  184.8120  174.8220  135.8660 C   0  0  0  0  0  3  0  0  0  0  0  0
  186.4130  176.1620  137.1030 C   0  0  0  0  0  0  0  0  0  0  0  0
  184.8640  177.2240  135.5680 C   0  0  0  0  0  3  0  0  0  0  0  0
  186.3590  173.7170  137.3900 N   0  0  0  0  0  1  0  0  0  0  0  0
  1 23  1  1  0  0  0
  1 11  1  0  0  0  0
  2  4  1  0  0  0  0
  2  7  1  0  0  0  0
  3 12  1  0  0  0  0
  4  6  1  1  0  0  0
  5  3  1  0  0  0  0
  8  7  2  0  0  0  0
  9  8  1  0  0  0  0
 10  2  2  0  0  0  0
 11 10  1  0  0  0  0
 11  9  2  0  0  0  0
 12  4  1  0  0  0  0
 13  5  1  0  0  0  0
 13 10  1  0  0  0  0
 14 17  2  0  0  0  0
 15 18  1  0  0  0  0
 17 16  1  0  0  0  0
 17 19  1  0  0  0  0
 18 19  1  0  0  0  0
 18  1  1  6  0  0  0
 20 14  1  0  0  0  0
 20 15  1  0  0  0  0
 21 14  1  0  0  0  0
 22 21  1  0  0  0  0
 24 29  2  0  0  0  0
 24 27  1  0  0  0  0
 25 28  1  0  0  0  0
 25 30  1  0  0  0  0
 26 28  2  0  0  0  0
 27 25  2  0  0  0  0
 28 23  1  0  0  0  0
 29 26  1  0  0  0  0
M  END
>  <MODEL>
9

>  <REMARK>
 VINA RESULT:      -6.0      3.604      6.569
  Name = 
  5 active torsions:
  status: ('A' for Active; 'I' for Inactive)
    1  A    between atoms: CA_1  and  C_2
    2  A    between atoms: C_10  and  C_20
    3  A    between atoms: C_10  and  C_24
    4  A    between atoms: C_13  and  C_24
    5  A    between atoms: C_24  and  C_26
                            x       y       z     vdW  Elec       q    Type
                         _______ _______ _______ _____ _____    ______ ____

>  <TORSDO>
F 5

$$$$
