=
 OpenBabel10232407493D

 32 36  0  0  1  0  0  0  0  0999 V2000
  184.1150  178.6760  141.8040 C   0  0  1  0  0  3  0  0  0  0  0  0
  181.6020  179.2410  139.9960 C   0  0  0  0  0  2  0  0  0  0  0  0
  181.7290  178.4450  141.2030 N   0  0  0  0  0  0  0  0  0  0  0  0
  183.3460  177.6140  139.7980 C   0  0  0  0  0  2  0  0  0  0  0  0
  182.5160  178.5810  138.9760 C   0  0  1  0  0  3  0  0  0  0  0  0
  181.5320  179.2650  142.3280 N   0  0  0  0  0  1  0  0  0  0  0  0
  183.0260  177.8550  141.2010 N   0  0  0  0  0  0  0  0  0  0  0  0
  182.7080  177.5580  136.6830 C   0  0  0  0  0  2  0  0  0  0  0  0
  181.8210  177.8530  137.8060 C   0  0  1  0  0  3  0  0  0  0  0  0
  182.3670  176.4920  137.6450 N   0  0  0  0  0  0  0  0  0  0  0  0
  181.3180  175.6780  137.0430 C   0  0  2  0  0  3  0  0  0  0  0  0
  180.0380  175.8100  137.8560 C   0  0  0  0  0  1  0  0  0  0  0  0
  180.8350  173.4040  137.6130 F   0  0  0  0  0  0  0  0  0  0  0  0
  183.0080  174.0430  137.5480 F   0  0  0  0  0  0  0  0  0  0  0  0
  181.7570  174.2150  136.9760 C   0  0  0  0  0  3  0  0  0  0  0  0
  184.7170  178.1430  143.1310 C   0  0  2  0  0  3  0  0  0  0  0  0
  183.7740  178.2420  144.1720 O   0  0  0  0  0  0  0  0  0  0  0  0
  184.8350  179.1720  144.1990 C   0  0  1  0  0  3  0  0  0  0  0  0
  189.7170  176.8640  147.1210 C   0  0  0  0  0  3  0  0  0  0  0  0
  185.8380  178.7590  145.2250 C   0  0  0  0  0  0  0  0  0  0  0  0
  187.6530  177.9200  147.1470 C   0  0  0  0  0  0  0  0  0  0  0  0
  187.9280  177.7220  145.8260 C   0  0  2  0  0  3  0  0  0  0  0  0
  187.0330  178.1210  144.8330 C   0  0  0  0  0  3  0  0  0  0  0  0
  189.2360  177.0410  145.6630 C   0  0  0  0  0  3  0  0  0  0  0  0
  186.4710  178.5280  147.5730 C   0  0  0  0  0  3  0  0  0  0  0  0
  188.6760  177.4250  147.9860 N   0  0  0  0  0  0  0  0  0  0  0  0
  185.5570  178.9470  146.5960 C   0  0  0  0  0  3  0  0  0  0  0  0
  185.0930  179.2280  140.7620 C   0  0  0  0  0  2  0  0  0  0  0  0
  186.4760  178.7010  140.9870 C   0  0  0  0  0  3  0  0  0  0  0  0
  187.2900  178.5560  140.0080 N   0  0  0  0  0  0  0  0  0  0  0  0
  188.6110  178.0520  140.2560 C   0  0  0  0  0  2  0  0  0  0  0  0
  188.7470  177.6680  141.7170 C   0  0  0  0  0  1  0  0  0  0  0  0
  1 28  1  6  0  0  0
  2  3  1  0  0  0  0
  3  6  1  0  0  0  0
  4  7  1  0  0  0  0
  5  4  1  1  0  0  0
  5  2  1  0  0  0  0
  7  3  1  0  0  0  0
  7  1  1  0  0  0  0
  8 10  1  0  0  0  0
  9  8  1  6  0  0  0
  9  5  1  0  0  0  0
 10  9  1  0  0  0  0
 11 10  1  0  0  0  0
 11 12  1  1  0  0  0
 15 11  1  0  0  0  0
 15 14  1  0  0  0  0
 15 13  1  0  0  0  0
 16  1  1  6  0  0  0
 16 17  1  0  0  0  0
 16 18  1  0  0  0  0
 17 18  1  0  0  0  0
 18 20  1  1  0  0  0
 19 26  1  0  0  0  0
 20 27  1  0  0  0  0
 21 25  1  0  0  0  0
 21 26  2  0  0  0  0
 22 23  1  1  0  0  0
 22 21  1  0  0  0  0
 23 20  2  0  0  0  0
 24 22  1  0  0  0  0
 24 19  2  0  0  0  0
 27 25  2  0  0  0  0
 28 29  1  0  0  0  0
 30 31  1  0  0  0  0
 30 29  2  0  0  0  0
 31 32  1  0  0  0  0
M  END
>  <MODEL>
1

>  <REMARK>
 VINA RESULT:      -7.1      0.000      0.000
  Name = 
  9 active torsions:
  status: ('A' for Active; 'I' for Inactive)
    1  A    between atoms: C_2  and  C_22
    2  A    between atoms: C_3  and  C_11
    3  A    between atoms: C_6  and  C_15
    4  A    between atoms: N_8  and  C_24
    5  A    between atoms: C_13  and  C_20
    6  A    between atoms: C_15  and  C_22
    7  A    between atoms: C_15  and  N_32
    8  A    between atoms: C_19  and  C_28
    9  A    between atoms: C_19  and  N_29
                            x       y       z     vdW  Elec       q    Type
                         _______ _______ _______ _____ _____    ______ ____

>  <TORSDO>
F 9

$$$$
=
 OpenBabel10232407493D

 32 36  0  0  1  0  0  0  0  0999 V2000
  188.8720  177.9390  139.3390 C   0  0  1  0  0  3  0  0  0  0  0  0
  187.9610  178.0840  136.3300 C   0  0  0  0  0  2  0  0  0  0  0  0
  187.7920  179.0400  137.4080 N   0  0  0  0  0  0  0  0  0  0  0  0
  186.9220  177.0820  138.2390 C   0  0  0  0  0  2  0  0  0  0  0  0
  187.2130  176.8370  136.7710 C   0  0  1  0  0  3  0  0  0  0  0  0
  188.9150  179.8850  137.4660 N   0  0  0  0  0  1  0  0  0  0  0  0
  187.6200  178.3070  138.6180 N   0  0  0  0  0  0  0  0  0  0  0  0
  185.8400  175.1320  135.5250 C   0  0  0  0  0  2  0  0  0  0  0  0
  185.9150  176.5110  136.0020 C   0  0  1  0  0  3  0  0  0  0  0  0
  185.1050  175.5260  136.7430 N   0  0  0  0  0  0  0  0  0  0  0  0
  183.7140  175.7420  136.3650 C   0  0  2  0  0  3  0  0  0  0  0  0
  183.3750  177.2210  136.4870 C   0  0  0  0  0  1  0  0  0  0  0  0
  183.0430  175.1650  138.5880 F   0  0  0  0  0  0  0  0  0  0  0  0
  182.9390  173.5560  136.9960 F   0  0  0  0  0  0  0  0  0  0  0  0
  182.7890  174.9090  137.2530 C   0  0  0  0  0  3  0  0  0  0  0  0
  188.8760  178.1860  140.8700 C   0  0  2  0  0  3  0  0  0  0  0  0
  190.0120  177.5970  141.4580 O   0  0  0  0  0  0  0  0  0  0  0  0
  188.7820  176.9440  141.6850 C   0  0  1  0  0  3  0  0  0  0  0  0
  188.3040  177.7850  147.7480 C   0  0  0  0  0  3  0  0  0  0  0  0
  188.2970  177.2490  143.0630 C   0  0  0  0  0  0  0  0  0  0  0  0
  187.3630  177.7340  145.6300 C   0  0  0  0  0  0  0  0  0  0  0  0
  188.6820  177.4450  145.4330 C   0  0  0  0  0  0  0  0  0  0  0  0
  189.1840  177.1840  144.1570 C   0  0  0  0  0  3  0  0  0  0  0  0
  189.4110  177.4400  146.7250 C   0  0  0  0  0  3  0  0  0  0  0  0
  186.4530  177.7850  144.5720 C   0  0  0  0  0  2  0  0  0  0  0  0
  187.0590  177.9420  146.9930 N   0  0  0  0  0  0  0  0  0  0  0  0
  186.9310  177.5350  143.2780 C   0  0  0  0  0  3  0  0  0  0  0  0
  189.4850  176.6270  138.8380 C   0  0  0  0  0  2  0  0  0  0  0  0
  190.7970  176.8690  138.1600 C   0  0  0  0  0  3  0  0  0  0  0  0
  191.8460  176.2200  138.5090 N   0  0  0  0  0  0  0  0  0  0  0  0
  193.0890  176.4720  137.8380 C   0  0  0  0  0  2  0  0  0  0  0  0
  193.9140  175.1990  137.7910 C   0  0  0  0  0  1  0  0  0  0  0  0
  1 28  1  1  0  0  0
  2  3  1  0  0  0  0
  3  6  1  0  0  0  0
  3  7  1  0  0  0  0
  4  7  1  0  0  0  0
  5  2  1  6  0  0  0
  5  4  1  0  0  0  0
  7  1  1  0  0  0  0
  8 10  1  0  0  0  0
  9  8  1  6  0  0  0
  9 10  1  0  0  0  0
  9  5  1  0  0  0  0
 11 12  1  1  0  0  0
 11 10  1  0  0  0  0
 11 15  1  0  0  0  0
 14 15  1  0  0  0  0
 15 13  1  0  0  0  0
 16  1  1  6  0  0  0
 16 17  1  0  0  0  0
 16 18  1  0  0  0  0
 17 18  1  0  0  0  0
 18 20  1  1  0  0  0
 20 27  2  0  0  0  0
 20 23  1  0  0  0  0
 21 26  2  0  0  0  0
 22 21  1  0  0  0  0
 22 24  1  0  0  0  0
 23 22  2  0  0  0  0
 24 19  2  0  0  0  0
 25 21  1  0  0  0  0
 26 19  1  0  0  0  0
 27 25  1  0  0  0  0
 29 30  2  0  0  0  0
 29 28  1  0  0  0  0
 31 30  1  0  0  0  0
 32 31  1  0  0  0  0
M  END
>  <MODEL>
2

>  <REMARK>
 VINA RESULT:      -6.7      3.060      4.624
  Name = 
  9 active torsions:
  status: ('A' for Active; 'I' for Inactive)
    1  A    between atoms: C_2  and  C_22
    2  A    between atoms: C_3  and  C_11
    3  A    between atoms: C_6  and  C_15
    4  A    between atoms: N_8  and  C_24
    5  A    between atoms: C_13  and  C_20
    6  A    between atoms: C_15  and  C_22
    7  A    between atoms: C_15  and  N_32
    8  A    between atoms: C_19  and  C_28
    9  A    between atoms: C_19  and  N_29
                            x       y       z     vdW  Elec       q    Type
                         _______ _______ _______ _____ _____    ______ ____

>  <TORSDO>
F 9

$$$$
=
 OpenBabel10232407493D

 32 36  0  0  1  0  0  0  0  0999 V2000
  189.5660  177.3780  139.4830 C   0  0  1  0  0  3  0  0  0  0  0  0
  188.8400  177.6060  136.4280 C   0  0  0  0  0  2  0  0  0  0  0  0
  188.2570  178.2640  137.5830 N   0  0  0  0  0  0  0  0  0  0  0  0
  188.1580  176.0260  138.0910 C   0  0  0  0  0  2  0  0  0  0  0  0
  188.6020  176.1200  136.6440 C   0  0  1  0  0  3  0  0  0  0  0  0
  188.9660  179.4480  137.8550 N   0  0  0  0  0  1  0  0  0  0  0  0
  188.3110  177.3540  138.6770 N   0  0  0  0  0  0  0  0  0  0  0  0
  188.0390  174.1980  135.1170 C   0  0  0  0  0  2  0  0  0  0  0  0
  187.5730  175.4500  135.7090 C   0  0  1  0  0  3  0  0  0  0  0  0
  187.1210  174.1640  136.2720 N   0  0  0  0  0  0  0  0  0  0  0  0
  185.7790  173.9190  135.7570 C   0  0  2  0  0  3  0  0  0  0  0  0
  184.9610  175.2010  135.8300 C   0  0  0  0  0  1  0  0  0  0  0  0
  185.4630  172.8830  137.8910 F   0  0  0  0  0  0  0  0  0  0  0  0
  185.4230  171.5600  136.0520 F   0  0  0  0  0  0  0  0  0  0  0  0
  185.1000  172.8080  136.5580 C   0  0  0  0  0  3  0  0  0  0  0  0
  189.4100  177.7600  140.9780 C   0  0  2  0  0  3  0  0  0  0  0  0
  190.4950  177.2630  141.7260 O   0  0  0  0  0  0  0  0  0  0  0  0
  189.2640  176.5930  141.8890 C   0  0  1  0  0  3  0  0  0  0  0  0
  188.1670  177.9700  147.7710 C   0  0  0  0  0  3  0  0  0  0  0  0
  188.6370  177.0030  143.1800 C   0  0  0  0  0  0  0  0  0  0  0  0
  187.4400  177.6830  145.5880 C   0  0  0  0  0  0  0  0  0  0  0  0
  188.7810  177.4340  145.5460 C   0  0  0  0  0  0  0  0  0  0  0  0
  189.4130  177.0780  144.3540 C   0  0  0  0  0  2  0  0  0  0  0  0
  189.3790  177.5800  146.8960 C   0  0  0  0  0  3  0  0  0  0  0  0
  186.6370  177.5970  144.4500 C   0  0  0  0  0  3  0  0  0  0  0  0
  186.9960  178.0040  146.8910 N   0  0  0  0  0  0  0  0  0  0  0  0
  187.2470  177.2490  143.2370 C   0  0  0  0  0  3  0  0  0  0  0  0
  190.5100  176.2180  139.1490 C   0  0  0  0  0  2  0  0  0  0  0  0
  191.7420  176.7090  138.4540 C   0  0  0  0  0  3  0  0  0  0  0  0
  192.3410  175.9800  137.5870 N   0  0  0  0  0  0  0  0  0  0  0  0
  193.5180  176.4790  136.9350 C   0  0  0  0  0  2  0  0  0  0  0  0
  194.4460  175.3280  136.5990 C   0  0  0  0  0  1  0  0  0  0  0  0
  1 28  1  1  0  0  0
  2  3  1  0  0  0  0
  3  6  1  0  0  0  0
  3  7  1  0  0  0  0
  4  7  1  0  0  0  0
  5  2  1  6  0  0  0
  5  4  1  0  0  0  0
  7  1  1  0  0  0  0
  8 10  1  0  0  0  0
  9  8  1  6  0  0  0
  9 10  1  0  0  0  0
  9  5  1  0  0  0  0
 11 12  1  1  0  0  0
 11 10  1  0  0  0  0
 11 15  1  0  0  0  0
 14 15  1  0  0  0  0
 15 13  1  0  0  0  0
 16  1  1  6  0  0  0
 16 17  1  0  0  0  0
 16 18  1  0  0  0  0
 17 18  1  0  0  0  0
 18 20  1  1  0  0  0
 20 27  2  0  0  0  0
 20 23  1  0  0  0  0
 21 26  1  0  0  0  0
 22 21  1  0  0  0  0
 22 24  2  0  0  0  0
 23 22  1  0  0  0  0
 24 19  1  0  0  0  0
 25 21  2  0  0  0  0
 26 19  2  0  0  0  0
 27 25  1  0  0  0  0
 29 28  1  0  0  0  0
 30 29  2  0  0  0  0
 31 30  1  0  0  0  0
 32 31  1  0  0  0  0
M  END
>  <MODEL>
3

>  <REMARK>
 VINA RESULT:      -6.7      3.981      5.472
  Name = 
  9 active torsions:
  status: ('A' for Active; 'I' for Inactive)
    1  A    between atoms: C_2  and  C_22
    2  A    between atoms: C_3  and  C_11
    3  A    between atoms: C_6  and  C_15
    4  A    between atoms: N_8  and  C_24
    5  A    between atoms: C_13  and  C_20
    6  A    between atoms: C_15  and  C_22
    7  A    between atoms: C_15  and  N_32
    8  A    between atoms: C_19  and  C_28
    9  A    between atoms: C_19  and  N_29
                            x       y       z     vdW  Elec       q    Type
                         _______ _______ _______ _____ _____    ______ ____

>  <TORSDO>
F 9

$$$$
=
 OpenBabel10232407493D

 32 36  0  0  1  0  0  0  0  0999 V2000
  189.7420  177.3600  139.2100 C   0  0  1  0  0  3  0  0  0  0  0  0
  188.4960  177.8670  136.3650 C   0  0  0  0  0  2  0  0  0  0  0  0
  188.1810  178.4690  137.6480 N   0  0  0  0  0  0  0  0  0  0  0  0
  188.0090  176.2080  138.0200 C   0  0  0  0  0  2  0  0  0  0  0  0
  188.1910  176.3870  136.5250 C   0  0  1  0  0  3  0  0  0  0  0  0
  189.0140  179.5830  137.8600 N   0  0  0  0  0  1  0  0  0  0  0  0
  188.3640  177.4750  138.6520 N   0  0  0  0  0  0  0  0  0  0  0  0
  187.0980  174.4690  135.3110 C   0  0  0  0  0  2  0  0  0  0  0  0
  186.9630  175.8550  135.7560 C   0  0  1  0  0  3  0  0  0  0  0  0
  186.3010  174.7770  136.5150 N   0  0  0  0  0  0  0  0  0  0  0  0
  184.8970  174.7770  136.1230 C   0  0  2  0  0  3  0  0  0  0  0  0
  184.3160  176.1730  136.2990 C   0  0  0  0  0  1  0  0  0  0  0  0
  184.9020  173.2780  137.9880 F   0  0  0  0  0  0  0  0  0  0  0  0
  183.6590  172.7160  136.1780 F   0  0  0  0  0  0  0  0  0  0  0  0
  184.1150  173.7650  136.9610 C   0  0  0  0  0  3  0  0  0  0  0  0
  189.8960  177.6830  140.7200 C   0  0  2  0  0  3  0  0  0  0  0  0
  191.1320  177.2060  141.1990 O   0  0  0  0  0  0  0  0  0  0  0  0
  189.9870  176.4800  141.5910 C   0  0  1  0  0  3  0  0  0  0  0  0
  187.0350  177.8390  146.8000 C   0  0  0  0  0  3  0  0  0  0  0  0
  189.6360  176.8190  143.0020 C   0  0  0  0  0  0  0  0  0  0  0  0
  188.9980  177.5330  145.6050 C   0  0  0  0  0  0  0  0  0  0  0  0
  188.0000  177.2690  144.7120 C   0  0  2  0  0  3  0  0  0  0  0  0
  188.2850  176.9180  143.3920 C   0  0  0  0  0  3  0  0  0  0  0  0
  186.6730  177.4340  145.3540 C   0  0  0  0  0  3  0  0  0  0  0  0
  190.3460  177.4660  145.2470 C   0  0  0  0  0  3  0  0  0  0  0  0
  188.4970  177.8900  146.8770 N   0  0  0  0  0  0  0  0  0  0  0  0
  190.6610  177.1080  143.9290 C   0  0  0  0  0  3  0  0  0  0  0  0
  190.5040  176.1450  138.6710 C   0  0  0  0  0  2  0  0  0  0  0  0
  191.7010  176.5670  137.8780 C   0  0  0  0  0  3  0  0  0  0  0  0
  192.2870  175.7470  137.0860 N   0  0  0  0  0  0  0  0  0  0  0  0
  193.4300  176.1830  136.3360 C   0  0  0  0  0  2  0  0  0  0  0  0
  194.5990  175.2520  136.5940 C   0  0  0  0  0  1  0  0  0  0  0  0
  1 28  1  1  0  0  0
  2  3  1  0  0  0  0
  3  6  1  0  0  0  0
  3  7  1  0  0  0  0
  4  7  1  0  0  0  0
  5  2  1  1  0  0  0
  5  4  1  0  0  0  0
  7  1  1  0  0  0  0
  8 10  1  0  0  0  0
  9  8  1  6  0  0  0
  9 10  1  0  0  0  0
  9  5  1  0  0  0  0
 11 12  1  1  0  0  0
 11 10  1  0  0  0  0
 11 15  1  0  0  0  0
 14 15  1  0  0  0  0
 15 13  1  0  0  0  0
 16  1  1  6  0  0  0
 16 17  1  0  0  0  0
 16 18  1  0  0  0  0
 17 18  1  0  0  0  0
 18 20  1  1  0  0  0
 19 26  1  0  0  0  0
 20 23  2  0  0  0  0
 20 27  1  0  0  0  0
 21 26  2  0  0  0  0
 22 23  1  6  0  0  0
 22 24  1  0  0  0  0
 22 21  1  0  0  0  0
 24 19  2  0  0  0  0
 25 21  1  0  0  0  0
 27 25  2  0  0  0  0
 29 28  1  0  0  0  0
 30 29  2  0  0  0  0
 31 32  1  0  0  0  0
 31 30  1  0  0  0  0
M  END
>  <MODEL>
4

>  <REMARK>
 VINA RESULT:      -6.6      3.785      5.493
  Name = 
  9 active torsions:
  status: ('A' for Active; 'I' for Inactive)
    1  A    between atoms: C_2  and  C_22
    2  A    between atoms: C_3  and  C_11
    3  A    between atoms: C_6  and  C_15
    4  A    between atoms: N_8  and  C_24
    5  A    between atoms: C_13  and  C_20
    6  A    between atoms: C_15  and  C_22
    7  A    between atoms: C_15  and  N_32
    8  A    between atoms: C_19  and  C_28
    9  A    between atoms: C_19  and  N_29
                            x       y       z     vdW  Elec       q    Type
                         _______ _______ _______ _____ _____    ______ ____

>  <TORSDO>
F 9

$$$$
=
 OpenBabel10232407493D

 32 36  0  0  1  0  0  0  0  0999 V2000
  189.6600  177.1680  139.3990 C   0  0  1  0  0  3  0  0  0  0  0  0
  190.5250  175.6110  136.8040 C   0  0  0  0  0  2  0  0  0  0  0  0
  190.0910  175.1130  138.0970 N   0  0  0  0  0  0  0  0  0  0  0  0
  191.8260  176.5390  138.5870 C   0  0  0  0  0  2  0  0  0  0  0  0
  191.7990  176.3950  137.0770 C   0  0  1  0  0  3  0  0  0  0  0  0
  188.6900  175.0020  138.1100 N   0  0  0  0  0  1  0  0  0  0  0  0
  190.5590  176.0190  139.0920 N   0  0  0  0  0  0  0  0  0  0  0  0
  194.2310  176.7030  136.5000 C   0  0  0  0  0  2  0  0  0  0  0  0
  193.1110  175.7660  136.5620 C   0  0  1  0  0  3  0  0  0  0  0  0
  194.1330  175.7540  137.6260 N   0  0  0  0  0  0  0  0  0  0  0  0
  195.0330  174.6430  137.3430 C   0  0  2  0  0  3  0  0  0  0  0  0
  194.2300  173.4420  136.8670 C   0  0  0  0  0  1  0  0  0  0  0  0
  195.7450  172.9290  138.8530 F   0  0  0  0  0  0  0  0  0  0  0  0
  195.4030  175.0060  139.6910 F   0  0  0  0  0  0  0  0  0  0  0  0
  195.8390  174.2840  138.5920 C   0  0  0  0  0  3  0  0  0  0  0  0
  189.5550  177.5730  140.8930 C   0  0  2  0  0  3  0  0  0  0  0  0
  190.6200  177.0170  141.6270 O   0  0  0  0  0  0  0  0  0  0  0  0
  189.3530  176.4260  141.8190 C   0  0  1  0  0  3  0  0  0  0  0  0
  188.4300  177.8730  147.7140 C   0  0  0  0  0  3  0  0  0  0  0  0
  188.7750  176.8860  143.1160 C   0  0  0  0  0  0  0  0  0  0  0  0
  187.6640  177.6630  145.5360 C   0  0  0  0  0  0  0  0  0  0  0  0
  188.9760  177.2920  145.4820 C   0  0  0  0  0  0  0  0  0  0  0  0
  189.5640  176.8850  144.2840 C   0  0  0  0  0  3  0  0  0  0  0  0
  189.5950  177.3770  146.8280 C   0  0  0  0  0  3  0  0  0  0  0  0
  186.8480  177.6560  144.4030 C   0  0  0  0  0  2  0  0  0  0  0  0
  187.2610  178.0170  146.8430 N   0  0  0  0  0  0  0  0  0  0  0  0
  187.4150  177.2590  143.1840 C   0  0  0  0  0  3  0  0  0  0  0  0
  189.7660  178.2990  138.3710 C   0  0  0  0  0  2  0  0  0  0  0  0
  188.4830  178.4650  137.6170 C   0  0  0  0  0  3  0  0  0  0  0  0
  187.3560  178.2430  138.1830 N   0  0  0  0  0  0  0  0  0  0  0  0
  186.1430  178.4140  137.4340 C   0  0  0  0  0  2  0  0  0  0  0  0
  185.4160  177.0870  137.3250 C   0  0  0  0  0  1  0  0  0  0  0  0
  1 28  1  6  0  0  0
  2  3  1  0  0  0  0
  3  6  1  0  0  0  0
  3  7  1  0  0  0  0
  4  7  1  0  0  0  0
  5  2  1  1  0  0  0
  5  4  1  0  0  0  0
  7  1  1  0  0  0  0
  8 10  1  0  0  0  0
  9  8  1  6  0  0  0
  9  5  1  0  0  0  0
  9 10  1  0  0  0  0
 11 12  1  1  0  0  0
 11 10  1  0  0  0  0
 11 15  1  0  0  0  0
 15 13  1  0  0  0  0
 15 14  1  0  0  0  0
 16  1  1  6  0  0  0
 16 17  1  0  0  0  0
 16 18  1  0  0  0  0
 17 18  1  0  0  0  0
 18 20  1  1  0  0  0
 20 27  2  0  0  0  0
 20 23  1  0  0  0  0
 21 26  2  0  0  0  0
 22 21  1  0  0  0  0
 22 24  1  0  0  0  0
 23 22  2  0  0  0  0
 24 19  2  0  0  0  0
 25 21  1  0  0  0  0
 26 19  1  0  0  0  0
 27 25  1  0  0  0  0
 29 30  2  0  0  0  0
 29 28  1  0  0  0  0
 31 30  1  0  0  0  0
 32 31  1  0  0  0  0
M  END
>  <MODEL>
5

>  <REMARK>
 VINA RESULT:      -6.6      5.293      8.322
  Name = 
  9 active torsions:
  status: ('A' for Active; 'I' for Inactive)
    1  A    between atoms: C_2  and  C_22
    2  A    between atoms: C_3  and  C_11
    3  A    between atoms: C_6  and  C_15
    4  A    between atoms: N_8  and  C_24
    5  A    between atoms: C_13  and  C_20
    6  A    between atoms: C_15  and  C_22
    7  A    between atoms: C_15  and  N_32
    8  A    between atoms: C_19  and  C_28
    9  A    between atoms: C_19  and  N_29
                            x       y       z     vdW  Elec       q    Type
                         _______ _______ _______ _____ _____    ______ ____

>  <TORSDO>
F 9

$$$$
=
 OpenBabel10232407493D

 32 36  0  0  1  0  0  0  0  0999 V2000
  190.0130  176.4280  138.7310 C   0  0  1  0  0  3  0  0  0  0  0  0
  191.0780  174.8730  136.2110 C   0  0  0  0  0  2  0  0  0  0  0  0
  190.7380  174.3900  137.5370 N   0  0  0  0  0  0  0  0  0  0  0  0
  192.2400  176.0880  137.9130 C   0  0  0  0  0  2  0  0  0  0  0  0
  192.2200  175.8540  136.4150 C   0  0  1  0  0  3  0  0  0  0  0  0
  189.3700  174.0690  137.5840 N   0  0  0  0  0  1  0  0  0  0  0  0
  191.0730  175.4120  138.4710 N   0  0  0  0  0  0  0  0  0  0  0  0
  194.6010  176.4730  135.8770 C   0  0  0  0  0  2  0  0  0  0  0  0
  193.6070  175.4020  135.9110 C   0  0  1  0  0  3  0  0  0  0  0  0
  194.6090  175.5020  136.9890 N   0  0  0  0  0  0  0  0  0  0  0  0
  195.6450  174.5170  136.7040 C   0  0  2  0  0  3  0  0  0  0  0  0
  195.0010  173.2110  136.2600 C   0  0  0  0  0  1  0  0  0  0  0  0
  195.8090  174.6040  139.0890 F   0  0  0  0  0  0  0  0  0  0  0  0
  197.6750  175.0400  137.8800 F   0  0  0  0  0  0  0  0  0  0  0  0
  196.5130  174.2880  137.9410 C   0  0  0  0  0  3  0  0  0  0  0  0
  189.6390  176.6590  140.2190 C   0  0  2  0  0  3  0  0  0  0  0  0
  189.3630  178.0210  140.4480 O   0  0  0  0  0  0  0  0  0  0  0  0
  190.5890  177.5390  140.9530 C   0  0  1  0  0  3  0  0  0  0  0  0
  188.6570  177.3000  146.7760 C   0  0  0  0  0  3  0  0  0  0  0  0
  190.4780  177.3270  142.4270 C   0  0  0  0  0  0  0  0  0  0  0  0
  190.3110  177.0100  145.1770 C   0  0  0  0  0  0  0  0  0  0  0  0
  189.2180  177.4330  144.4780 C   0  0  2  0  0  3  0  0  0  0  0  0
  189.2700  177.6140  143.0950 C   0  0  0  0  0  3  0  0  0  0  0  0
  188.0730  177.6640  145.3920 C   0  0  0  0  0  3  0  0  0  0  0  0
  191.5290  176.7370  144.5510 C   0  0  0  0  0  3  0  0  0  0  0  0
  190.0540  176.9130  146.5630 N   0  0  0  0  0  0  0  0  0  0  0  0
  191.6070  176.9030  143.1610 C   0  0  0  0  0  3  0  0  0  0  0  0
  190.1430  177.6670  137.8400 C   0  0  0  0  0  2  0  0  0  0  0  0
  188.9220  177.8560  136.9960 C   0  0  0  0  0  3  0  0  0  0  0  0
  187.8260  177.2570  137.2840 N   0  0  0  0  0  0  0  0  0  0  0  0
  186.6700  177.4600  136.4570 C   0  0  0  0  0  2  0  0  0  0  0  0
  187.1040  177.8440  135.0560 C   0  0  0  0  0  1  0  0  0  0  0  0
  1 28  1  1  0  0  0
  2  3  1  0  0  0  0
  3  6  1  0  0  0  0
  3  7  1  0  0  0  0
  4  7  1  0  0  0  0
  5  2  1  1  0  0  0
  5  4  1  0  0  0  0
  7  1  1  0  0  0  0
  8 10  1  0  0  0  0
  9  8  1  6  0  0  0
  9  5  1  0  0  0  0
  9 10  1  0  0  0  0
 11 12  1  1  0  0  0
 11 10  1  0  0  0  0
 11 15  1  0  0  0  0
 14 15  1  0  0  0  0
 15 13  1  0  0  0  0
 16  1  1  6  0  0  0
 16 17  1  0  0  0  0
 16 18  1  0  0  0  0
 17 18  1  0  0  0  0
 18 20  1  1  0  0  0
 20 23  2  0  0  0  0
 20 27  1  0  0  0  0
 21 26  2  0  0  0  0
 22 23  1  1  0  0  0
 22 21  1  0  0  0  0
 22 24  1  0  0  0  0
 24 19  2  0  0  0  0
 25 21  1  0  0  0  0
 26 19  1  0  0  0  0
 27 25  2  0  0  0  0
 29 30  2  0  0  0  0
 29 28  1  0  0  0  0
 31 30  1  0  0  0  0
 32 31  1  0  0  0  0
M  END
>  <MODEL>
6

>  <REMARK>
 VINA RESULT:      -6.5      5.961      9.057
  Name = 
  9 active torsions:
  status: ('A' for Active; 'I' for Inactive)
    1  A    between atoms: C_2  and  C_22
    2  A    between atoms: C_3  and  C_11
    3  A    between atoms: C_6  and  C_15
    4  A    between atoms: N_8  and  C_24
    5  A    between atoms: C_13  and  C_20
    6  A    between atoms: C_15  and  C_22
    7  A    between atoms: C_15  and  N_32
    8  A    between atoms: C_19  and  C_28
    9  A    between atoms: C_19  and  N_29
                            x       y       z     vdW  Elec       q    Type
                         _______ _______ _______ _____ _____    ______ ____

>  <TORSDO>
F 9

$$$$
=
 OpenBabel10232407493D

 32 36  0  0  1  0  0  0  0  0999 V2000
  183.0380  178.7100  140.1690 C   0  0  1  0  0  3  0  0  0  0  0  0
  181.2080  176.8580  138.4010 C   0  0  0  0  0  2  0  0  0  0  0  0
  181.7250  176.6610  139.7430 N   0  0  0  0  0  0  0  0  0  0  0  0
  183.5870  177.1070  138.4740 C   0  0  0  0  0  2  0  0  0  0  0  0
  182.4310  176.9510  137.5040 C   0  0  1  0  0  3  0  0  0  0  0  0
  180.8380  177.2280  140.6760 N   0  0  0  0  0  1  0  0  0  0  0  0
  183.0140  177.2640  139.8070 N   0  0  0  0  0  0  0  0  0  0  0  0
  184.0610  175.6160  136.1230 C   0  0  0  0  0  2  0  0  0  0  0  0
  182.6710  175.7610  136.5510 C   0  0  1  0  0  3  0  0  0  0  0  0
  183.5300  174.7470  137.1910 N   0  0  0  0  0  0  0  0  0  0  0  0
  183.2000  173.4620  136.5870 C   0  0  2  0  0  3  0  0  0  0  0  0
  181.7810  173.0650  136.9710 C   0  0  0  0  0  1  0  0  0  0  0  0
  183.5370  171.2040  137.3020 F   0  0  0  0  0  0  0  0  0  0  0  0
  184.8860  172.8040  138.1700 F   0  0  0  0  0  0  0  0  0  0  0  0
  184.1930  172.3930  137.0420 C   0  0  0  0  0  3  0  0  0  0  0  0
  183.8030  179.0750  141.4680 C   0  0  2  0  0  3  0  0  0  0  0  0
  185.0970  179.5380  141.1610 O   0  0  0  0  0  0  0  0  0  0  0  0
  185.0120  178.2430  141.7140 C   0  0  1  0  0  3  0  0  0  0  0  0
  187.9130  177.6180  147.0890 C   0  0  0  0  0  3  0  0  0  0  0  0
  185.4020  178.2850  143.1540 C   0  0  0  0  0  0  0  0  0  0  0  0
  186.0770  178.2910  145.8450 C   0  0  0  0  0  0  0  0  0  0  0  0
  186.9590  177.7990  144.9280 C   0  0  2  0  0  3  0  0  0  0  0  0
  186.6470  177.7700  143.5680 C   0  0  0  0  0  3  0  0  0  0  0  0
  188.1930  177.3230  145.5980 C   0  0  0  0  0  3  0  0  0  0  0  0
  184.8260  178.7890  145.4740 C   0  0  0  0  0  3  0  0  0  0  0  0
  186.5750  178.2090  147.1640 N   0  0  0  0  0  0  0  0  0  0  0  0
  184.4900  178.7800  144.1130 C   0  0  0  0  0  3  0  0  0  0  0  0
  183.2370  179.6250  138.9570 C   0  0  0  0  0  2  0  0  0  0  0  0
  181.9940  180.4050  138.6600 C   0  0  0  0  0  3  0  0  0  0  0  0
  182.0440  181.6710  138.4710 N   0  0  0  0  0  0  0  0  0  0  0  0
  180.8350  182.3910  138.1850 C   0  0  0  0  0  2  0  0  0  0  0  0
  181.1500  183.6020  137.3280 C   0  0  0  0  0  1  0  0  0  0  0  0
  1 28  1  6  0  0  0
  2  3  1  0  0  0  0
  3  7  1  0  0  0  0
  3  6  1  0  0  0  0
  4  7  1  0  0  0  0
  5  2  1  1  0  0  0
  5  4  1  0  0  0  0
  7  1  1  0  0  0  0
  8 10  1  0  0  0  0
  9  8  1  6  0  0  0
  9 10  1  0  0  0  0
  9  5  1  0  0  0  0
 11 12  1  1  0  0  0
 11 15  1  0  0  0  0
 11 10  1  0  0  0  0
 15 13  1  0  0  0  0
 15 14  1  0  0  0  0
 16  1  1  6  0  0  0
 16 18  1  0  0  0  0
 17 16  1  0  0  0  0
 17 18  1  0  0  0  0
 18 20  1  1  0  0  0
 19 26  1  0  0  0  0
 20 23  2  0  0  0  0
 20 27  1  0  0  0  0
 21 26  2  0  0  0  0
 22 23  1  1  0  0  0
 22 24  1  0  0  0  0
 22 21  1  0  0  0  0
 24 19  2  0  0  0  0
 25 21  1  0  0  0  0
 27 25  2  0  0  0  0
 29 28  1  0  0  0  0
 30 29  2  0  0  0  0
 31 30  1  0  0  0  0
 32 31  1  0  0  0  0
M  END
>  <MODEL>
7

>  <REMARK>
 VINA RESULT:      -6.5      2.117      3.669
  Name = 
  9 active torsions:
  status: ('A' for Active; 'I' for Inactive)
    1  A    between atoms: C_2  and  C_22
    2  A    between atoms: C_3  and  C_11
    3  A    between atoms: C_6  and  C_15
    4  A    between atoms: N_8  and  C_24
    5  A    between atoms: C_13  and  C_20
    6  A    between atoms: C_15  and  C_22
    7  A    between atoms: C_15  and  N_32
    8  A    between atoms: C_19  and  C_28
    9  A    between atoms: C_19  and  N_29
                            x       y       z     vdW  Elec       q    Type
                         _______ _______ _______ _____ _____    ______ ____

>  <TORSDO>
F 9

$$$$
=
 OpenBabel10232407493D

 32 36  0  0  1  0  0  0  0  0999 V2000
  188.4600  177.7640  139.3450 C   0  0  1  0  0  3  0  0  0  0  0  0
  186.6810  178.2020  136.7870 C   0  0  0  0  0  2  0  0  0  0  0  0
  186.3250  177.7060  138.1040 N   0  0  0  0  0  0  0  0  0  0  0  0
  188.0680  176.3650  137.4390 C   0  0  0  0  0  2  0  0  0  0  0  0
  187.6900  177.2090  136.2370 C   0  0  1  0  0  3  0  0  0  0  0  0
  185.9940  178.7870  138.9390 N   0  0  0  0  0  1  0  0  0  0  0  0
  187.4360  176.9710  138.6070 N   0  0  0  0  0  0  0  0  0  0  0  0
  188.2560  175.4810  134.4940 C   0  0  0  0  0  2  0  0  0  0  0  0
  187.2080  176.3190  135.0710 C   0  0  1  0  0  3  0  0  0  0  0  0
  187.2870  174.8930  135.4400 N   0  0  0  0  0  0  0  0  0  0  0  0
  186.2800  174.1910  134.6540 C   0  0  2  0  0  3  0  0  0  0  0  0
  184.9140  174.8180  134.8960 C   0  0  0  0  0  1  0  0  0  0  0  0
  185.7640  172.5390  136.3070 F   0  0  0  0  0  0  0  0  0  0  0  0
  187.5230  172.1520  134.9330 F   0  0  0  0  0  0  0  0  0  0  0  0
  186.2580  172.7080  135.0260 C   0  0  0  0  0  3  0  0  0  0  0  0
  188.7620  177.3060  140.7960 C   0  0  2  0  0  3  0  0  0  0  0  0
  187.6930  177.6440  141.6490 O   0  0  0  0  0  0  0  0  0  0  0  0
  188.8630  178.4230  141.7750 C   0  0  1  0  0  3  0  0  0  0  0  0
  190.5030  176.6830  147.4300 C   0  0  0  0  0  3  0  0  0  0  0  0
  189.6210  177.9980  142.9890 C   0  0  0  0  0  0  0  0  0  0  0  0
  191.0470  177.2930  145.2610 C   0  0  0  0  0  0  0  0  0  0  0  0
  189.6840  177.3240  145.3010 C   0  0  0  0  0  0  0  0  0  0  0  0
  188.9350  177.6850  144.1800 C   0  0  0  0  0  2  0  0  0  0  0  0
  189.1960  176.9530  146.6520 C   0  0  0  0  0  3  0  0  0  0  0  0
  191.7600  177.6180  144.1050 C   0  0  0  0  0  3  0  0  0  0  0  0
  191.6110  176.9250  146.5030 N   0  0  0  0  0  0  0  0  0  0  0  0
  191.0330  177.9770  142.9610 C   0  0  0  0  0  3  0  0  0  0  0  0
  189.6550  178.1570  138.4700 C   0  0  0  0  0  2  0  0  0  0  0  0
  190.8420  177.2900  138.7560 C   0  0  0  0  0  3  0  0  0  0  0  0
  191.5610  176.8270  137.8020 N   0  0  0  0  0  0  0  0  0  0  0  0
  192.6950  176.0010  138.1080 C   0  0  0  0  0  2  0  0  0  0  0  0
  193.6670  176.0120  136.9440 C   0  0  0  0  0  1  0  0  0  0  0  0
  1 28  1  6  0  0  0
  2  3  1  0  0  0  0
  3  7  1  0  0  0  0
  3  6  1  0  0  0  0
  4  7  1  0  0  0  0
  5  2  1  1  0  0  0
  5  4  1  0  0  0  0
  7  1  1  0  0  0  0
  8 10  1  0  0  0  0
  9  8  1  6  0  0  0
  9 10  1  0  0  0  0
  9  5  1  0  0  0  0
 11 12  1  1  0  0  0
 11 15  1  0  0  0  0
 11 10  1  0  0  0  0
 14 15  1  0  0  0  0
 15 13  1  0  0  0  0
 16  1  1  6  0  0  0
 16 17  1  0  0  0  0
 16 18  1  0  0  0  0
 17 18  1  0  0  0  0
 18 20  1  1  0  0  0
 20 23  1  0  0  0  0
 21 22  1  0  0  0  0
 21 26  1  0  0  0  0
 22 24  2  0  0  0  0
 23 22  1  0  0  0  0
 24 19  1  0  0  0  0
 25 21  2  0  0  0  0
 26 19  2  0  0  0  0
 27 20  2  0  0  0  0
 27 25  1  0  0  0  0
 28 29  1  0  0  0  0
 30 31  1  0  0  0  0
 30 29  2  0  0  0  0
 32 31  1  0  0  0  0
M  END
>  <MODEL>
8

>  <REMARK>
 VINA RESULT:      -6.1      3.888      5.128
  Name = 
  9 active torsions:
  status: ('A' for Active; 'I' for Inactive)
    1  A    between atoms: C_2  and  C_22
    2  A    between atoms: C_3  and  C_11
    3  A    between atoms: C_6  and  C_15
    4  A    between atoms: N_8  and  C_24
    5  A    between atoms: C_13  and  C_20
    6  A    between atoms: C_15  and  C_22
    7  A    between atoms: C_15  and  N_32
    8  A    between atoms: C_19  and  C_28
    9  A    between atoms: C_19  and  N_29
                            x       y       z     vdW  Elec       q    Type
                         _______ _______ _______ _____ _____    ______ ____

>  <TORSDO>
F 9

$$$$
=
 OpenBabel10232407493D

 32 36  0  0  1  0  0  0  0  0999 V2000
  189.2670  177.6430  140.6940 C   0  0  1  0  0  3  0  0  0  0  0  0
  191.1350  177.8300  143.2200 C   0  0  0  0  0  2  0  0  0  0  0  0
  191.1830  176.9290  142.0830 N   0  0  0  0  0  0  0  0  0  0  0  0
  189.0430  176.7160  142.8930 C   0  0  0  0  0  2  0  0  0  0  0  0
  189.8040  177.5590  143.8990 C   0  0  1  0  0  3  0  0  0  0  0  0
  191.9410  177.5140  141.0520 N   0  0  0  0  0  1  0  0  0  0  0  0
  189.8420  176.6760  141.6720 N   0  0  0  0  0  0  0  0  0  0  0  0
  191.0340  177.2200  146.0700 C   0  0  0  0  0  2  0  0  0  0  0  0
  189.8670  176.8540  145.2700 C   0  0  1  0  0  3  0  0  0  0  0  0
  189.7240  177.8330  146.3640 N   0  0  0  0  0  0  0  0  0  0  0  0
  189.1540  177.1240  147.5030 C   0  0  2  0  0  3  0  0  0  0  0  0
  187.7900  176.5620  147.1250 C   0  0  0  0  0  1  0  0  0  0  0  0
  188.2570  179.1630  148.3750 F   0  0  0  0  0  0  0  0  0  0  0  0
  190.2750  178.4760  149.1440 F   0  0  0  0  0  0  0  0  0  0  0  0
  189.0280  178.0630  148.7030 C   0  0  0  0  0  3  0  0  0  0  0  0
  188.6370  177.0280  139.4170 C   0  0  2  0  0  3  0  0  0  0  0  0
  189.6420  176.6920  138.4880 O   0  0  0  0  0  0  0  0  0  0  0  0
  188.8650  177.8300  138.1840 C   0  0  1  0  0  3  0  0  0  0  0  0
  183.6890  176.7550  135.0600 C   0  0  0  0  0  3  0  0  0  0  0  0
  187.8600  177.4860  137.1340 C   0  0  0  0  0  0  0  0  0  0  0  0
  186.0030  176.7620  135.2060 C   0  0  1  0  0  3  0  0  0  0  0  0
  185.5760  177.2500  136.4060 C   0  0  0  0  0  0  0  0  0  0  0  0
  186.4820  177.6140  137.4030 C   0  0  0  0  0  3  0  0  0  0  0  0
  184.0940  177.2960  136.4500 C   0  0  0  0  0  3  0  0  0  0  0  0
  187.3580  176.6010  134.9140 C   0  0  0  0  0  3  0  0  0  0  0  0
  184.9290  176.4350  134.3480 N   0  0  0  0  0  0  0  0  0  0  0  0
  188.2920  176.9660  135.8940 C   0  0  0  0  0  3  0  0  0  0  0  0
  188.5100  178.7920  141.3670 C   0  0  0  0  0  2  0  0  0  0  0  0
  187.0740  178.8140  140.9430 C   0  0  0  0  0  3  0  0  0  0  0  0
  186.1330  178.7410  141.8090 N   0  0  0  0  0  0  0  0  0  0  0  0
  184.7660  178.7680  141.3710 C   0  0  0  0  0  2  0  0  0  0  0  0
  183.8440  178.5330  142.5530 C   0  0  0  0  0  1  0  0  0  0  0  0
  1 28  1  1  0  0  0
  1  7  1  0  0  0  0
  2  5  1  0  0  0  0
  3  2  1  0  0  0  0
  5  4  1  6  0  0  0
  5  9  1  0  0  0  0
  6  3  1  0  0  0  0
  7  3  1  0  0  0  0
  7  4  1  0  0  0  0
  8 10  1  0  0  0  0
  9  8  1  1  0  0  0
  9 10  1  0  0  0  0
 10 11  1  0  0  0  0
 11 12  1  6  0  0  0
 11 15  1  0  0  0  0
 13 15  1  0  0  0  0
 15 14  1  0  0  0  0
 16  1  1  1  0  0  0
 17 16  1  0  0  0  0
 18 20  1  6  0  0  0
 18 17  1  0  0  0  0
 18 16  1  0  0  0  0
 19 24  1  0  0  0  0
 20 23  2  0  0  0  0
 21 25  1  1  0  0  0
 21 22  1  0  0  0  0
 22 24  2  0  0  0  0
 22 23  1  0  0  0  0
 25 27  2  0  0  0  0
 26 19  2  0  0  0  0
 26 21  1  0  0  0  0
 27 20  1  0  0  0  0
 29 28  1  0  0  0  0
 29 30  2  0  0  0  0
 31 30  1  0  0  0  0
 31 32  1  0  0  0  0
M  END
>  <MODEL>
9

>  <REMARK>
 VINA RESULT:      -6.1      4.555     10.031
  Name = 
  9 active torsions:
  status: ('A' for Active; 'I' for Inactive)
    1  A    between atoms: C_2  and  C_22
    2  A    between atoms: C_3  and  C_11
    3  A    between atoms: C_6  and  C_15
    4  A    between atoms: N_8  and  C_24
    5  A    between atoms: C_13  and  C_20
    6  A    between atoms: C_15  and  C_22
    7  A    between atoms: C_15  and  N_32
    8  A    between atoms: C_19  and  C_28
    9  A    between atoms: C_19  and  N_29
                            x       y       z     vdW  Elec       q    Type
                         _______ _______ _______ _____ _____    ______ ____

>  <TORSDO>
F 9

$$$$
