=
 OpenBabel10232412283D

 55 60  0  0  1  0  0  0  0  0999 V2000
  186.9180  177.6270  143.4660 C   0  0  0  0  0  1  0  0  0  0  0  0
  187.8330  177.8780  141.2420 C   0  0  0  0  0  0  0  0  0  0  0  0
  186.8810  178.1790  142.0780 C   0  0  0  0  0  0  0  0  0  0  0  0
  188.8010  177.5670  140.4250 C   0  0  0  0  0  3  0  0  0  0  0  0
  189.9880  176.8070  140.9320 C   0  0  2  0  0  3  0  0  0  0  0  0
  190.6500  177.4030  144.3640 C   0  0  0  0  0  0  0  0  0  0  0  0
  190.3810  177.3070  142.2480 N   0  0  0  0  0  0  0  0  0  0  0  0
  191.4630  179.8490  144.5150 C   0  0  0  0  0  1  0  0  0  0  0  0
  190.7980  178.5440  142.4820 N   0  0  0  0  0  0  0  0  0  0  0  0
  190.2670  176.5930  143.3600 N   0  0  0  0  0  0  0  0  0  0  0  0
  190.9830  178.6270  143.8100 C   0  0  0  0  0  0  0  0  0  0  0  0
  189.6210  176.9570  146.4640 O   0  0  0  0  0  0  0  0  0  0  0  0
  191.9300  176.6540  146.3870 N   0  0  0  0  0  2  0  0  0  0  0  0
  191.9980  176.2590  147.7280 N   0  0  0  0  0  1  0  0  0  0  0  0
  190.6840  177.0000  145.7820 C   0  0  0  0  0  0  0  0  0  0  0  0
  191.1620  176.8970  139.9570 C   0  0  0  0  0  2  0  0  0  0  0  0
  190.7270  176.6340  138.5250 C   0  0  0  0  0  2  0  0  0  0  0  0
  190.8030  175.2060  138.2480 N   0  0  0  0  0  2  0  0  0  0  0  0
  191.3170  175.0370  136.8920 C   0  0  1  0  0  3  0  0  0  0  0  0
  194.3900  174.4650  135.4220 C   0  0  0  0  0  0  0  0  0  0  0  0
  193.3050  173.9910  137.9320 O   0  0  0  0  0  0  0  0  0  0  0  0
  193.0640  173.7630  135.4950 C   0  0  0  0  0  2  0  0  0  0  0  0
  194.0610  175.1710  137.7820 C   0  0  0  0  0  2  0  0  0  0  0  0
  192.3770  173.9160  136.8640 C   0  0  2  0  0  3  0  0  0  0  0  0
  195.0580  175.0220  136.6420 C   0  0  0  0  0  2  0  0  0  0  0  0
  194.9590  174.5400  134.3470 O   0  0  0  0  0  0  0  0  0  0  0  0
  189.8160  175.5800  135.1580 O   0  0  0  0  0  0  0  0  0  0  0  0
  189.5430  173.3760  135.9190 C   0  0  0  0  0  1  0  0  0  0  0  0
  190.1870  174.7230  135.9430 C   0  0  0  0  0  0  0  0  0  0  0  0
  185.8590  179.1980  141.6960 C   0  0  0  0  0  2  0  0  0  0  0  0
  184.4640  178.6610  141.9410 C   0  0  0  0  0  2  0  0  0  0  0  0
  181.3250  177.6060  140.7620 C   0  0  0  0  0  2  0  0  0  0  0  0
  182.4530  178.5650  140.4350 C   0  0  0  0  0  0  0  0  0  0  0  0
  181.5530  178.8400  141.6240 C   0  0  0  0  0  2  0  0  0  0  0  0
  183.8730  178.0850  140.6700 C   0  0  1  0  0  3  0  0  0  0  0  0
  183.7900  179.8030  138.9130 C   0  0  0  0  0  2  0  0  0  0  0  0
  184.6250  178.6560  139.4760 C   0  0  0  0  0  2  0  0  0  0  0  0
  182.3330  179.5240  139.2670 C   0  0  1  0  0  3  0  0  0  0  0  0
  181.6380  178.8700  138.0760 C   0  0  0  0  0  2  0  0  0  0  0  0
  182.3270  177.1000  136.5190 C   0  0  0  0  0  3  0  0  0  0  0  0
  182.6360  178.2210  137.1700 C   0  0  0  0  0  3  0  0  0  0  0  0
  185.5910  175.8100  136.0670 C   0  0  2  0  0  3  0  0  0  0  0  0
  186.1450  176.4560  137.1770 O   0  0  0  0  0  1  0  0  0  0  0  0
  185.4120  176.7710  134.9080 C   0  0  2  0  0  3  0  0  0  0  0  0
  186.5400  177.7800  134.7790 C   0  0  0  0  0  1  0  0  0  0  0  0
  183.3200  176.4510  135.6120 C   0  0  1  0  0  3  0  0  0  0  0  0
  184.1780  177.4220  135.0600 O   0  0  0  0  0  0  0  0  0  0  0  0
  184.1570  175.4540  136.4000 C   0  0  1  0  0  3  0  0  0  0  0  0
  184.3570  172.0040  134.8730 C   0  0  0  0  0  2  0  0  0  0  0  0
  183.7140  173.3000  137.3130 C   0  0  0  0  0  2  0  0  0  0  0  0
  183.7900  174.0690  136.0690 N   0  0  0  0  0  0  0  0  0  0  0  0
  184.7680  173.4470  135.1630 C   0  0  0  0  0  2  0  0  0  0  0  0
  183.8270  169.9210  135.7920 C   0  0  0  0  0  1  0  0  0  0  0  0
  184.3120  171.2480  136.1230 N   0  0  0  0  0  0  0  0  0  0  0  0
  183.3170  171.8550  137.0040 C   0  0  0  0  0  2  0  0  0  0  0  0
  2  3  2  0  0  0  0
  3  1  1  0  0  0  0
  4  5  1  0  0  0  0
  4  2  2  0  0  0  0
  5 16  1  6  0  0  0
  5  7  1  0  0  0  0
  6 15  1  0  0  0  0
  7  9  1  0  0  0  0
  7 10  1  0  0  0  0
  9 11  2  0  0  0  0
 10  6  2  0  0  0  0
 11  6  1  0  0  0  0
 11  8  1  0  0  0  0
 13 14  1  0  0  0  0
 15 13  1  0  0  0  0
 15 12  2  0  0  0  0
 17 16  1  0  0  0  0
 18 17  1  0  0  0  0
 19 29  1  6  0  0  0
 19 18  1  0  0  0  0
 20 22  1  0  0  0  0
 20 25  1  0  0  0  0
 22 24  1  0  0  0  0
 23 21  1  0  0  0  0
 24 19  1  6  0  0  0
 24 21  1  0  0  0  0
 25 23  1  0  0  0  0
 26 20  2  0  0  0  0
 27 29  2  0  0  0  0
 28 29  1  0  0  0  0
 30 31  1  0  0  0  0
 30  3  1  0  0  0  0
 32 34  1  0  0  0  0
 33 35  1  0  0  0  0
 33 32  1  0  0  0  0
 33 34  1  0  0  0  0
 35 31  1  1  0  0  0
 36 38  1  0  0  0  0
 36 37  1  0  0  0  0
 37 35  1  0  0  0  0
 38 39  1  6  0  0  0
 38 33  1  0  0  0  0
 40 41  2  0  0  0  0
 41 39  1  0  0  0  0
 42 48  1  0  0  0  0
 42 43  1  1  0  0  0
 44 45  1  1  0  0  0
 44 47  1  0  0  0  0
 44 42  1  0  0  0  0
 46 48  1  0  0  0  0
 46 40  1  1  0  0  0
 47 46  1  0  0  0  0
 48 51  1  6  0  0  0
 49 52  1  0  0  0  0
 49 54  1  0  0  0  0
 51 50  1  0  0  0  0
 52 51  1  0  0  0  0
 53 54  1  0  0  0  0
 54 55  1  0  0  0  0
 55 50  1  0  0  0  0
M  END
>  <MODEL>
1

>  <REMARK>
 VINA RESULT:      -7.4      0.000      0.000
  Name = 
  16 active torsions:
  status: ('A' for Active; 'I' for Inactive)
    1  A    between atoms: C_1  and  C_35
    2  A    between atoms: C_1  and  C_55
    3  A    between atoms: C_7  and  C_49
    4  A    between atoms: C_8  and  C_21
    5  A    between atoms: N_12  and  C_41
    6  A    between atoms: C_15  and  C_33
    7  A    between atoms: C_15  and  N_52
    8  A    between atoms: C_17  and  C_46
    9  A    between atoms: C_17  and  C_47
   10  A    between atoms: C_17  and  N_52
   11  A    between atoms: C_19  and  C_27
   12  A    between atoms: C_19  and  C_31
   13  A    between atoms: N_23  and  C_42
   14  A    between atoms: C_27  and  C_50
   15  A    between atoms: C_33  and  C_41
   16  A    between atoms: C_41  and  C_43
                            x       y       z     vdW  Elec       q    Type
                         _______ _______ _______ _____ _____    ______ ____

>  <TORSDO>
F 16

$$$$
=
 OpenBabel10232412283D

 55 60  0  0  1  0  0  0  0  0999 V2000
  191.1510  175.5680  142.9240 C   0  0  0  0  0  1  0  0  0  0  0  0
  189.8270  177.3430  141.9530 C   0  0  0  0  0  0  0  0  0  0  0  0
  190.1510  176.6740  143.0220 C   0  0  0  0  0  0  0  0  0  0  0  0
  189.5230  178.0030  140.8690 C   0  0  0  0  0  3  0  0  0  0  0  0
  190.2830  177.7470  139.6050 C   0  0  2  0  0  3  0  0  0  0  0  0
  187.5460  177.4260  137.3730 C   0  0  0  0  0  0  0  0  0  0  0  0
  189.3620  177.6510  138.4740 N   0  0  0  0  0  0  0  0  0  0  0  0
  188.5760  177.2340  135.0130 C   0  0  0  0  0  1  0  0  0  0  0  0
  189.7440  177.5260  137.2100 N   0  0  0  0  0  0  0  0  0  0  0  0
  188.0450  177.5820  138.6140 N   0  0  0  0  0  0  0  0  0  0  0  0
  188.6150  177.3920  136.4940 C   0  0  0  0  0  0  0  0  0  0  0  0
  185.2820  178.1350  137.5600 O   0  0  0  0  0  0  0  0  0  0  0  0
  185.6470  176.2710  136.2120 N   0  0  0  0  0  2  0  0  0  0  0  0
  184.2900  176.1390  135.8960 N   0  0  0  0  0  1  0  0  0  0  0  0
  186.1080  177.3150  137.0700 C   0  0  0  0  0  0  0  0  0  0  0  0
  191.1270  176.4770  139.7120 C   0  0  0  0  0  2  0  0  0  0  0  0
  192.4970  176.6550  139.0790 C   0  0  0  0  0  2  0  0  0  0  0  0
  192.7300  175.5890  138.1150 N   0  0  0  0  0  2  0  0  0  0  0  0
  194.0780  175.7530  137.5790 C   0  0  1  0  0  3  0  0  0  0  0  0
  197.3190  174.5710  137.4160 C   0  0  0  0  0  0  0  0  0  0  0  0
  195.0280  173.8130  138.7860 O   0  0  0  0  0  0  0  0  0  0  0  0
  196.0510  174.4010  136.6290 C   0  0  0  0  0  2  0  0  0  0  0  0
  195.9390  174.6330  139.4820 C   0  0  0  0  0  2  0  0  0  0  0  0
  194.7920  174.3880  137.5130 C   0  0  2  0  0  3  0  0  0  0  0  0
  197.3400  174.4740  138.9120 C   0  0  0  0  0  2  0  0  0  0  0  0
  198.3670  174.7450  136.8180 O   0  0  0  0  0  0  0  0  0  0  0  0
  194.7590  177.3270  135.9620 O   0  0  0  0  0  0  0  0  0  0  0  0
  193.1070  175.8700  135.1510 C   0  0  0  0  0  1  0  0  0  0  0  0
  194.0200  176.3890  136.2120 C   0  0  0  0  0  0  0  0  0  0  0  0
  189.6500  177.1250  144.3550 C   0  0  0  0  0  2  0  0  0  0  0  0
  188.1640  176.8580  144.4760 C   0  0  0  0  0  2  0  0  0  0  0  0
  186.4290  179.1410  142.4410 C   0  0  0  0  0  2  0  0  0  0  0  0
  186.2400  178.2530  143.6560 C   0  0  0  0  0  0  0  0  0  0  0  0
  186.3750  177.6280  142.2810 C   0  0  0  0  0  2  0  0  0  0  0  0
  187.3920  178.1520  144.6380 C   0  0  1  0  0  3  0  0  0  0  0  0
  185.2360  177.7250  145.7410 C   0  0  0  0  0  2  0  0  0  0  0  0
  186.6850  178.1360  145.9860 C   0  0  0  0  0  2  0  0  0  0  0  0
  184.8800  178.1340  144.3150 C   0  0  1  0  0  3  0  0  0  0  0  0
  184.1510  179.4740  144.3400 C   0  0  0  0  0  2  0  0  0  0  0  0
  182.8790  178.7590  142.3640 C   0  0  0  0  0  3  0  0  0  0  0  0
  182.8970  179.4110  143.5260 C   0  0  0  0  0  3  0  0  0  0  0  0
  181.2510  179.4360  139.2960 C   0  0  2  0  0  3  0  0  0  0  0  0
  182.1960  180.3620  138.8440 O   0  0  0  0  0  1  0  0  0  0  0  0
  180.3380  180.0510  140.3400 C   0  0  2  0  0  3  0  0  0  0  0  0
  179.9830  181.4990  140.0540 C   0  0  0  0  0  1  0  0  0  0  0  0
  181.6290  178.6930  141.5500 C   0  0  1  0  0  3  0  0  0  0  0  0
  180.9570  179.9300  141.5940 O   0  0  0  0  0  0  0  0  0  0  0  0
  181.9780  178.3800  140.1020 C   0  0  1  0  0  3  0  0  0  0  0  0
  180.1210  175.5030  138.5040 C   0  0  0  0  0  2  0  0  0  0  0  0
  182.7570  176.3700  139.0900 C   0  0  0  0  0  2  0  0  0  0  0  0
  181.6120  176.9990  139.7520 N   0  0  0  0  0  0  0  0  0  0  0  0
  180.4420  176.9540  138.8600 C   0  0  0  0  0  2  0  0  0  0  0  0
  180.9330  173.5070  137.5980 C   0  0  0  0  0  1  0  0  0  0  0  0
  181.2650  174.9020  137.8240 N   0  0  0  0  0  0  0  0  0  0  0  0
  182.4140  174.9250  138.7260 C   0  0  0  0  0  2  0  0  0  0  0  0
  1  3  1  0  0  0  0
  2  3  2  0  0  0  0
  3 30  1  0  0  0  0
  4  2  2  0  0  0  0
  5 16  1  1  0  0  0
  5  4  1  0  0  0  0
  6 10  2  0  0  0  0
  7 10  1  0  0  0  0
  7  5  1  0  0  0  0
  8 11  1  0  0  0  0
  9  7  1  0  0  0  0
 11  9  2  0  0  0  0
 11  6  1  0  0  0  0
 13 15  1  0  0  0  0
 14 13  1  0  0  0  0
 15  6  1  0  0  0  0
 15 12  2  0  0  0  0
 17 16  1  0  0  0  0
 18 17  1  0  0  0  0
 19 29  1  6  0  0  0
 19 18  1  0  0  0  0
 20 25  1  0  0  0  0
 21 23  1  0  0  0  0
 22 20  1  0  0  0  0
 22 24  1  0  0  0  0
 24 19  1  1  0  0  0
 24 21  1  0  0  0  0
 25 23  1  0  0  0  0
 26 20  2  0  0  0  0
 27 29  2  0  0  0  0
 28 29  1  0  0  0  0
 30 31  1  0  0  0  0
 32 33  1  0  0  0  0
 33 38  1  0  0  0  0
 33 35  1  0  0  0  0
 34 32  1  0  0  0  0
 34 33  1  0  0  0  0
 35 31  1  6  0  0  0
 35 37  1  0  0  0  0
 36 37  1  0  0  0  0
 38 39  1  1  0  0  0
 38 36  1  0  0  0  0
 40 41  2  0  0  0  0
 41 39  1  0  0  0  0
 42 43  1  1  0  0  0
 42 48  1  0  0  0  0
 42 44  1  0  0  0  0
 44 45  1  6  0  0  0
 44 47  1  0  0  0  0
 46 47  1  0  0  0  0
 46 40  1  1  0  0  0
 48 51  1  6  0  0  0
 48 46  1  0  0  0  0
 49 52  1  0  0  0  0
 50 51  1  0  0  0  0
 52 51  1  0  0  0  0
 53 54  1  0  0  0  0
 54 49  1  0  0  0  0
 54 55  1  0  0  0  0
 55 50  1  0  0  0  0
M  END
>  <MODEL>
2

>  <REMARK>
 VINA RESULT:      -7.3      3.412      6.026
  Name = 
  16 active torsions:
  status: ('A' for Active; 'I' for Inactive)
    1  A    between atoms: C_1  and  C_35
    2  A    between atoms: C_1  and  C_55
    3  A    between atoms: C_7  and  C_49
    4  A    between atoms: C_8  and  C_21
    5  A    between atoms: N_12  and  C_41
    6  A    between atoms: C_15  and  C_33
    7  A    between atoms: C_15  and  N_52
    8  A    between atoms: C_17  and  C_46
    9  A    between atoms: C_17  and  C_47
   10  A    between atoms: C_17  and  N_52
   11  A    between atoms: C_19  and  C_27
   12  A    between atoms: C_19  and  C_31
   13  A    between atoms: N_23  and  C_42
   14  A    between atoms: C_27  and  C_50
   15  A    between atoms: C_33  and  C_41
   16  A    between atoms: C_41  and  C_43
                            x       y       z     vdW  Elec       q    Type
                         _______ _______ _______ _____ _____    ______ ____

>  <TORSDO>
F 16

$$$$
=
 OpenBabel10232412283D

 55 60  0  0  1  0  0  0  0  0999 V2000
  191.2020  177.2500  140.1870 C   0  0  0  0  0  1  0  0  0  0  0  0
  189.1150  177.7040  139.0540 C   0  0  0  0  0  0  0  0  0  0  0  0
  190.3670  177.3610  138.9530 C   0  0  0  0  0  0  0  0  0  0  0  0
  187.8620  178.0430  139.1800 C   0  0  0  0  0  3  0  0  0  0  0  0
  187.2570  178.1600  140.5460 C   0  0  2  0  0  3  0  0  0  0  0  0
  183.7670  178.7110  140.8520 C   0  0  0  0  0  0  0  0  0  0  0  0
  185.8590  178.5740  140.4440 N   0  0  0  0  0  0  0  0  0  0  0  0
  183.0860  180.1020  138.7860 C   0  0  0  0  0  1  0  0  0  0  0  0
  185.3600  179.2720  139.4320 N   0  0  0  0  0  0  0  0  0  0  0  0
  184.9270  178.2060  141.3130 N   0  0  0  0  0  0  0  0  0  0  0  0
  184.0420  179.3790  139.6720 C   0  0  0  0  0  0  0  0  0  0  0  0
  181.5730  177.8050  141.0270 O   0  0  0  0  0  0  0  0  0  0  0  0
  182.2220  179.2190  142.7600 N   0  0  0  0  0  2  0  0  0  0  0  0
  181.0040  179.0760  143.4340 N   0  0  0  0  0  1  0  0  0  0  0  0
  182.4680  178.5430  141.5270 C   0  0  0  0  0  0  0  0  0  0  0  0
  188.0400  179.1420  141.4170 C   0  0  0  0  0  2  0  0  0  0  0  0
  188.9670  178.4230  142.3830 C   0  0  0  0  0  2  0  0  0  0  0  0
  188.1820  177.5810  143.2750 N   0  0  0  0  0  2  0  0  0  0  0  0
  188.7830  177.6490  144.6040 C   0  0  1  0  0  3  0  0  0  0  0  0
  187.8310  178.0330  147.9020 C   0  0  0  0  0  0  0  0  0  0  0  0
  186.5300  177.2950  145.5650 O   0  0  0  0  0  0  0  0  0  0  0  0
  188.4530  176.9550  147.0600 C   0  0  0  0  0  2  0  0  0  0  0  0
  186.4290  178.6490  145.9440 C   0  0  0  0  0  2  0  0  0  0  0  0
  187.8940  176.9140  145.6270 C   0  0  2  0  0  3  0  0  0  0  0  0
  186.6240  178.7950  147.4460 C   0  0  0  0  0  2  0  0  0  0  0  0
  188.2950  178.2610  149.0060 O   0  0  0  0  0  0  0  0  0  0  0  0
  190.3330  175.9540  144.0740 O   0  0  0  0  0  0  0  0  0  0  0  0
  191.3450  177.7930  145.1230 C   0  0  0  0  0  1  0  0  0  0  0  0
  190.1690  177.0520  144.5790 C   0  0  0  0  0  0  0  0  0  0  0  0
  190.9080  176.9230  137.6320 C   0  0  0  0  0  2  0  0  0  0  0  0
  189.9670  175.9310  136.9810 C   0  0  0  0  0  2  0  0  0  0  0  0
  189.4020  172.7940  135.4990 C   0  0  0  0  0  2  0  0  0  0  0  0
  190.5040  173.8040  135.7520 C   0  0  0  0  0  0  0  0  0  0  0  0
  189.4150  174.1150  134.7430 C   0  0  0  0  0  2  0  0  0  0  0  0
  190.5060  174.5190  137.0900 C   0  0  1  0  0  3  0  0  0  0  0  0
  192.7700  174.3940  136.1380 C   0  0  0  0  0  2  0  0  0  0  0  0
  191.9880  174.5840  137.4350 C   0  0  0  0  0  2  0  0  0  0  0  0
  191.8940  173.5810  135.1910 C   0  0  1  0  0  3  0  0  0  0  0  0
  192.2980  172.1110  135.2640 C   0  0  0  0  0  2  0  0  0  0  0  0
  194.2230  171.3050  136.5570 C   0  0  0  0  0  3  0  0  0  0  0  0
  193.7690  171.9760  135.5000 C   0  0  0  0  0  3  0  0  0  0  0  0
  197.5160  172.2310  135.6490 C   0  0  2  0  0  3  0  0  0  0  0  0
  197.1700  172.7380  134.3920 O   0  0  0  0  0  1  0  0  0  0  0  0
  197.5440  170.7140  135.6370 C   0  0  2  0  0  3  0  0  0  0  0  0
  198.0930  170.1300  134.3480 C   0  0  0  0  0  1  0  0  0  0  0  0
  195.6910  171.1650  136.7940 C   0  0  1  0  0  3  0  0  0  0  0  0
  196.2430  170.2470  135.8810 O   0  0  0  0  0  0  0  0  0  0  0  0
  196.3710  172.5130  136.5980 C   0  0  1  0  0  3  0  0  0  0  0  0
  198.3650  174.5240  139.1000 C   0  0  0  0  0  2  0  0  0  0  0  0
  195.6850  173.9080  138.4030 C   0  0  0  0  0  2  0  0  0  0  0  0
  196.7860  173.0930  137.8850 N   0  0  0  0  0  0  0  0  0  0  0  0
  197.9920  173.9240  137.7450 C   0  0  0  0  0  2  0  0  0  0  0  0
  197.6420  175.8140  140.9100 C   0  0  0  0  0  1  0  0  0  0  0  0
  197.2650  175.3530  139.5870 N   0  0  0  0  0  0  0  0  0  0  0  0
  196.0800  174.5130  139.7510 C   0  0  0  0  0  2  0  0  0  0  0  0
  2  4  2  0  0  0  0
  3  2  2  0  0  0  0
  3  1  1  0  0  0  0
  5  4  1  6  0  0  0
  5 16  1  0  0  0  0
  6 10  2  0  0  0  0
  6 15  1  0  0  0  0
  7  5  1  0  0  0  0
  7 10  1  0  0  0  0
  8 11  1  0  0  0  0
  9 11  2  0  0  0  0
  9  7  1  0  0  0  0
 11  6  1  0  0  0  0
 12 15  2  0  0  0  0
 13 14  1  0  0  0  0
 15 13  1  0  0  0  0
 16 17  1  0  0  0  0
 17 18  1  0  0  0  0
 19 18  1  6  0  0  0
 20 26  2  0  0  0  0
 21 24  1  0  0  0  0
 21 23  1  0  0  0  0
 22 20  1  0  0  0  0
 23 25  1  0  0  0  0
 24 19  1  6  0  0  0
 24 22  1  0  0  0  0
 25 20  1  0  0  0  0
 27 29  2  0  0  0  0
 29 19  1  0  0  0  0
 29 28  1  0  0  0  0
 30  3  1  0  0  0  0
 31 30  1  0  0  0  0
 32 33  1  0  0  0  0
 33 35  1  0  0  0  0
 34 32  1  0  0  0  0
 34 33  1  0  0  0  0
 35 31  1  6  0  0  0
 35 37  1  0  0  0  0
 36 37  1  0  0  0  0
 38 39  1  1  0  0  0
 38 33  1  0  0  0  0
 38 36  1  0  0  0  0
 39 41  1  0  0  0  0
 41 40  2  0  0  0  0
 42 43  1  6  0  0  0
 42 48  1  0  0  0  0
 44 45  1  6  0  0  0
 44 42  1  0  0  0  0
 44 47  1  0  0  0  0
 46 40  1  6  0  0  0
 47 46  1  0  0  0  0
 48 46  1  0  0  0  0
 48 51  1  1  0  0  0
 49 54  1  0  0  0  0
 50 55  1  0  0  0  0
 51 50  1  0  0  0  0
 52 51  1  0  0  0  0
 52 49  1  0  0  0  0
 54 55  1  0  0  0  0
 54 53  1  0  0  0  0
M  END
>  <MODEL>
3

>  <REMARK>
 VINA RESULT:      -7.1      3.749     10.795
  Name = 
  16 active torsions:
  status: ('A' for Active; 'I' for Inactive)
    1  A    between atoms: C_1  and  C_35
    2  A    between atoms: C_1  and  C_55
    3  A    between atoms: C_7  and  C_49
    4  A    between atoms: C_8  and  C_21
    5  A    between atoms: N_12  and  C_41
    6  A    between atoms: C_15  and  C_33
    7  A    between atoms: C_15  and  N_52
    8  A    between atoms: C_17  and  C_46
    9  A    between atoms: C_17  and  C_47
   10  A    between atoms: C_17  and  N_52
   11  A    between atoms: C_19  and  C_27
   12  A    between atoms: C_19  and  C_31
   13  A    between atoms: N_23  and  C_42
   14  A    between atoms: C_27  and  C_50
   15  A    between atoms: C_33  and  C_41
   16  A    between atoms: C_41  and  C_43
                            x       y       z     vdW  Elec       q    Type
                         _______ _______ _______ _____ _____    ______ ____

>  <TORSDO>
F 16

$$$$
=
 OpenBabel10232412283D

 55 60  0  0  1  0  0  0  0  0999 V2000
  191.6940  177.1670  140.0560 C   0  0  0  0  0  1  0  0  0  0  0  0
  189.4940  177.4590  139.0950 C   0  0  0  0  0  0  0  0  0  0  0  0
  190.7370  177.1190  138.9090 C   0  0  0  0  0  0  0  0  0  0  0  0
  188.2520  177.7970  139.3080 C   0  0  0  0  0  3  0  0  0  0  0  0
  187.7850  178.0720  140.7040 C   0  0  2  0  0  3  0  0  0  0  0  0
  184.3700  178.7820  141.3460 C   0  0  0  0  0  0  0  0  0  0  0  0
  186.3810  178.4800  140.6940 N   0  0  0  0  0  0  0  0  0  0  0  0
  183.3750  179.5650  139.0960 C   0  0  0  0  0  1  0  0  0  0  0  0
  185.7300  178.8840  139.6120 N   0  0  0  0  0  0  0  0  0  0  0  0
  185.5920  178.3920  141.7560 N   0  0  0  0  0  0  0  0  0  0  0  0
  184.4600  179.0890  140.0000 C   0  0  0  0  0  0  0  0  0  0  0  0
  182.0300  178.9840  141.7320 O   0  0  0  0  0  0  0  0  0  0  0  0
  183.3500  178.7400  143.6360 N   0  0  0  0  0  2  0  0  0  0  0  0
  182.2480  178.7860  144.4980 N   0  0  0  0  0  1  0  0  0  0  0  0
  183.1860  178.8430  142.2220 C   0  0  0  0  0  0  0  0  0  0  0  0
  188.6450  179.1420  141.3770 C   0  0  0  0  0  2  0  0  0  0  0  0
  189.5550  178.5480  142.4390 C   0  0  0  0  0  2  0  0  0  0  0  0
  188.8050  177.5980  143.2470 N   0  0  0  0  0  2  0  0  0  0  0  0
  189.2920  177.6910  144.6200 C   0  0  1  0  0  3  0  0  0  0  0  0
  187.9450  177.9890  147.7870 C   0  0  0  0  0  0  0  0  0  0  0  0
  187.0080  177.0690  145.3420 O   0  0  0  0  0  0  0  0  0  0  0  0
  188.7820  176.9880  147.0430 C   0  0  0  0  0  2  0  0  0  0  0  0
  186.7000  178.4030  145.6750 C   0  0  0  0  0  2  0  0  0  0  0  0
  188.3930  176.8620  145.5600 C   0  0  2  0  0  3  0  0  0  0  0  0
  186.7100  178.5890  147.1860 C   0  0  0  0  0  2  0  0  0  0  0  0
  188.2530  178.2850  148.9280 O   0  0  0  0  0  0  0  0  0  0  0  0
  191.4810  177.7420  145.4950 O   0  0  0  0  0  0  0  0  0  0  0  0
  191.2140  176.0910  143.8470 C   0  0  0  0  0  1  0  0  0  0  0  0
  190.7220  177.2160  144.6970 C   0  0  0  0  0  0  0  0  0  0  0  0
  191.1530  176.5300  137.6020 C   0  0  0  0  0  2  0  0  0  0  0  0
  189.9390  176.2410  136.7450 C   0  0  0  0  0  2  0  0  0  0  0  0
  186.8150  174.7980  137.4620 C   0  0  0  0  0  2  0  0  0  0  0  0
  187.9740  174.6930  136.4910 C   0  0  0  0  0  0  0  0  0  0  0  0
  187.0440  175.8880  136.4250 C   0  0  0  0  0  2  0  0  0  0  0  0
  189.3750  174.8670  137.0480 C   0  0  1  0  0  3  0  0  0  0  0  0
  189.3850  173.4740  135.0220 C   0  0  0  0  0  2  0  0  0  0  0  0
  190.1760  173.8260  136.2790 C   0  0  0  0  0  2  0  0  0  0  0  0
  187.9120  173.7300  135.3220 C   0  0  1  0  0  3  0  0  0  0  0  0
  187.2400  172.4170  135.7140 C   0  0  0  0  0  2  0  0  0  0  0  0
  185.0800  173.1150  134.7770 C   0  0  0  0  0  3  0  0  0  0  0  0
  185.7560  172.5830  135.7950 C   0  0  0  0  0  3  0  0  0  0  0  0
  182.0690  172.4600  136.5180 C   0  0  2  0  0  3  0  0  0  0  0  0
  182.5830  171.4070  137.2800 O   0  0  0  0  0  1  0  0  0  0  0  0
  181.7780  172.0160  135.0970 C   0  0  2  0  0  3  0  0  0  0  0  0
  181.2230  170.6050  135.0080 C   0  0  0  0  0  1  0  0  0  0  0  0
  183.5980  173.2810  134.8540 C   0  0  1  0  0  3  0  0  0  0  0  0
  182.9570  172.1340  134.3460 O   0  0  0  0  0  0  0  0  0  0  0  0
  183.1790  173.4680  136.3050 C   0  0  1  0  0  3  0  0  0  0  0  0
  181.9650  176.9900  135.6700 C   0  0  0  0  0  2  0  0  0  0  0  0
  181.6630  174.8530  137.5110 C   0  0  0  0  0  2  0  0  0  0  0  0
  182.7860  174.8610  136.5710 N   0  0  0  0  0  0  0  0  0  0  0  0
  182.3910  175.5610  135.3380 C   0  0  0  0  0  2  0  0  0  0  0  0
  180.5360  178.3380  136.9360 C   0  0  0  0  0  1  0  0  0  0  0  0
  180.8290  176.9600  136.5890 N   0  0  0  0  0  0  0  0  0  0  0  0
  181.2380  176.2900  137.8210 C   0  0  0  0  0  2  0  0  0  0  0  0
  2  4  2  0  0  0  0
  3  2  2  0  0  0  0
  3  1  1  0  0  0  0
  5  4  1  6  0  0  0
  5 16  1  0  0  0  0
  6 10  2  0  0  0  0
  6 15  1  0  0  0  0
  7  5  1  0  0  0  0
  7 10  1  0  0  0  0
  8 11  1  0  0  0  0
  9 11  2  0  0  0  0
  9  7  1  0  0  0  0
 11  6  1  0  0  0  0
 12 15  2  0  0  0  0
 13 14  1  0  0  0  0
 15 13  1  0  0  0  0
 16 17  1  0  0  0  0
 17 18  1  0  0  0  0
 19 18  1  6  0  0  0
 19 29  1  0  0  0  0
 20 26  2  0  0  0  0
 21 24  1  0  0  0  0
 21 23  1  0  0  0  0
 22 20  1  0  0  0  0
 23 25  1  0  0  0  0
 24 19  1  6  0  0  0
 24 22  1  0  0  0  0
 25 20  1  0  0  0  0
 28 29  1  0  0  0  0
 29 27  2  0  0  0  0
 30  3  1  0  0  0  0
 31 30  1  0  0  0  0
 33 35  1  0  0  0  0
 33 32  1  0  0  0  0
 34 33  1  0  0  0  0
 34 32  1  0  0  0  0
 35 31  1  6  0  0  0
 36 38  1  0  0  0  0
 36 37  1  0  0  0  0
 37 35  1  0  0  0  0
 38 39  1  1  0  0  0
 38 33  1  0  0  0  0
 39 41  1  0  0  0  0
 40 41  2  0  0  0  0
 42 43  1  1  0  0  0
 44 45  1  1  0  0  0
 44 42  1  0  0  0  0
 46 40  1  1  0  0  0
 46 48  1  0  0  0  0
 47 46  1  0  0  0  0
 47 44  1  0  0  0  0
 48 42  1  0  0  0  0
 48 51  1  6  0  0  0
 49 54  1  0  0  0  0
 50 55  1  0  0  0  0
 51 50  1  0  0  0  0
 52 49  1  0  0  0  0
 52 51  1  0  0  0  0
 54 53  1  0  0  0  0
 54 55  1  0  0  0  0
M  END
>  <MODEL>
4

>  <REMARK>
 VINA RESULT:      -6.9      3.367      7.907
  Name = 
  16 active torsions:
  status: ('A' for Active; 'I' for Inactive)
    1  A    between atoms: C_1  and  C_35
    2  A    between atoms: C_1  and  C_55
    3  A    between atoms: C_7  and  C_49
    4  A    between atoms: C_8  and  C_21
    5  A    between atoms: N_12  and  C_41
    6  A    between atoms: C_15  and  C_33
    7  A    between atoms: C_15  and  N_52
    8  A    between atoms: C_17  and  C_46
    9  A    between atoms: C_17  and  C_47
   10  A    between atoms: C_17  and  N_52
   11  A    between atoms: C_19  and  C_27
   12  A    between atoms: C_19  and  C_31
   13  A    between atoms: N_23  and  C_42
   14  A    between atoms: C_27  and  C_50
   15  A    between atoms: C_33  and  C_41
   16  A    between atoms: C_41  and  C_43
                            x       y       z     vdW  Elec       q    Type
                         _______ _______ _______ _____ _____    ______ ____

>  <TORSDO>
F 16

$$$$
=
 OpenBabel10232412283D

 55 60  0  0  1  0  0  0  0  0999 V2000
  186.7900  177.5560  143.5570 C   0  0  0  0  0  1  0  0  0  0  0  0
  187.6400  178.1100  141.3620 C   0  0  0  0  0  0  0  0  0  0  0  0
  186.7030  178.2770  142.2510 C   0  0  0  0  0  0  0  0  0  0  0  0
  188.5930  177.9320  140.4900 C   0  0  0  0  0  3  0  0  0  0  0  0
  189.8110  177.1470  140.8690 C   0  0  2  0  0  3  0  0  0  0  0  0
  190.7000  177.4420  144.2890 C   0  0  0  0  0  0  0  0  0  0  0  0
  190.2700  177.5410  142.2000 N   0  0  0  0  0  0  0  0  0  0  0  0
  191.3330  179.9200  144.6450 C   0  0  0  0  0  1  0  0  0  0  0  0
  190.6080  178.7780  142.5360 N   0  0  0  0  0  0  0  0  0  0  0  0
  190.2990  176.7090  143.2330 N   0  0  0  0  0  0  0  0  0  0  0  0
  190.8930  178.7400  143.8490 C   0  0  0  0  0  0  0  0  0  0  0  0
  190.0530  177.1790  146.5650 O   0  0  0  0  0  0  0  0  0  0  0  0
  191.9910  176.0530  145.9290 N   0  0  0  0  0  2  0  0  0  0  0  0
  192.1870  175.5140  147.2060 N   0  0  0  0  0  1  0  0  0  0  0  0
  190.8780  176.9010  145.6490 C   0  0  0  0  0  0  0  0  0  0  0  0
  190.9310  177.3320  139.8440 C   0  0  0  0  0  2  0  0  0  0  0  0
  191.1660  176.0700  139.0320 C   0  0  0  0  0  2  0  0  0  0  0  0
  191.3970  176.4240  137.6390 N   0  0  0  0  0  2  0  0  0  0  0  0
  192.1850  175.3570  137.0280 C   0  0  1  0  0  3  0  0  0  0  0  0
  189.5690  173.5300  135.7030 C   0  0  0  0  0  0  0  0  0  0  0  0
  190.7220  175.9890  135.1340 O   0  0  0  0  0  0  0  0  0  0  0  0
  191.0610  173.5870  135.5350 C   0  0  0  0  0  2  0  0  0  0  0  0
  189.5800  176.0020  135.9610 C   0  0  0  0  0  2  0  0  0  0  0  0
  191.6230  175.0160  135.6320 C   0  0  2  0  0  3  0  0  0  0  0  0
  188.7260  174.7690  135.7050 C   0  0  0  0  0  2  0  0  0  0  0  0
  189.0260  172.4430  135.7930 O   0  0  0  0  0  0  0  0  0  0  0  0
  194.3240  175.7500  137.9360 O   0  0  0  0  0  0  0  0  0  0  0  0
  194.2440  176.1630  135.6270 C   0  0  0  0  0  1  0  0  0  0  0  0
  193.6320  175.7690  136.9320 C   0  0  0  0  0  0  0  0  0  0  0  0
  185.6460  179.3070  142.0250 C   0  0  0  0  0  2  0  0  0  0  0  0
  184.2730  178.7110  142.2510 C   0  0  0  0  0  2  0  0  0  0  0  0
  181.1660  177.6610  140.9850 C   0  0  0  0  0  2  0  0  0  0  0  0
  182.3100  178.6090  140.6830 C   0  0  0  0  0  0  0  0  0  0  0  0
  181.3750  178.9040  141.8380 C   0  0  0  0  0  2  0  0  0  0  0  0
  183.7180  178.1220  140.9690 C   0  0  1  0  0  3  0  0  0  0  0  0
  183.7030  179.8180  139.1890 C   0  0  0  0  0  2  0  0  0  0  0  0
  184.5120  178.6730  139.7930 C   0  0  0  0  0  2  0  0  0  0  0  0
  182.2340  179.5530  139.5000 C   0  0  1  0  0  3  0  0  0  0  0  0
  181.5730  178.8890  138.2950 C   0  0  0  0  0  2  0  0  0  0  0  0
  182.1610  177.2770  136.5380 C   0  0  0  0  0  3  0  0  0  0  0  0
  182.5630  178.0680  137.5310 C   0  0  0  0  0  3  0  0  0  0  0  0
  185.4780  176.0840  136.2260 C   0  0  2  0  0  3  0  0  0  0  0  0
  186.0430  177.0350  137.0820 O   0  0  0  0  0  1  0  0  0  0  0  0
  185.1730  176.6830  134.8670 C   0  0  2  0  0  3  0  0  0  0  0  0
  186.2210  177.6760  134.3960 C   0  0  0  0  0  1  0  0  0  0  0  0
  183.1480  176.4580  135.7720 C   0  0  1  0  0  3  0  0  0  0  0  0
  183.9070  177.2860  134.9240 O   0  0  0  0  0  0  0  0  0  0  0  0
  184.0910  175.7580  136.7400 C   0  0  1  0  0  3  0  0  0  0  0  0
  182.7370  172.3590  135.7950 C   0  0  0  0  0  2  0  0  0  0  0  0
  185.0730  173.5900  136.8300 C   0  0  0  0  0  2  0  0  0  0  0  0
  183.8020  174.3180  136.8180 N   0  0  0  0  0  0  0  0  0  0  0  0
  182.9840  173.8630  135.6820 C   0  0  0  0  0  2  0  0  0  0  0  0
  183.7170  170.2450  135.9830 C   0  0  0  0  0  1  0  0  0  0  0  0
  184.0150  171.6510  135.7800 N   0  0  0  0  0  0  0  0  0  0  0  0
  184.8080  172.0870  136.9270 C   0  0  0  0  0  2  0  0  0  0  0  0
  2  3  2  0  0  0  0
  3  1  1  0  0  0  0
  4  5  1  0  0  0  0
  4  2  2  0  0  0  0
  5 16  1  6  0  0  0
  5  7  1  0  0  0  0
  6 15  1  0  0  0  0
  7  9  1  0  0  0  0
  7 10  1  0  0  0  0
  9 11  2  0  0  0  0
 10  6  2  0  0  0  0
 11  6  1  0  0  0  0
 11  8  1  0  0  0  0
 13 14  1  0  0  0  0
 15 13  1  0  0  0  0
 15 12  2  0  0  0  0
 17 16  1  0  0  0  0
 18 17  1  0  0  0  0
 19 29  1  6  0  0  0
 19 18  1  0  0  0  0
 20 25  1  0  0  0  0
 20 26  2  0  0  0  0
 21 24  1  0  0  0  0
 21 23  1  0  0  0  0
 22 24  1  0  0  0  0
 22 20  1  0  0  0  0
 24 19  1  1  0  0  0
 25 23  1  0  0  0  0
 28 29  1  0  0  0  0
 29 27  2  0  0  0  0
 30 31  1  0  0  0  0
 30  3  1  0  0  0  0
 32 34  1  0  0  0  0
 33 35  1  0  0  0  0
 33 32  1  0  0  0  0
 33 34  1  0  0  0  0
 35 31  1  1  0  0  0
 36 38  1  0  0  0  0
 36 37  1  0  0  0  0
 37 35  1  0  0  0  0
 38 39  1  6  0  0  0
 38 33  1  0  0  0  0
 40 41  2  0  0  0  0
 41 39  1  0  0  0  0
 42 48  1  0  0  0  0
 42 43  1  1  0  0  0
 44 45  1  1  0  0  0
 44 47  1  0  0  0  0
 44 42  1  0  0  0  0
 46 40  1  1  0  0  0
 46 48  1  0  0  0  0
 47 46  1  0  0  0  0
 48 51  1  6  0  0  0
 50 55  1  0  0  0  0
 51 50  1  0  0  0  0
 52 49  1  0  0  0  0
 52 51  1  0  0  0  0
 54 49  1  0  0  0  0
 54 53  1  0  0  0  0
 54 55  1  0  0  0  0
M  END
>  <MODEL>
5

>  <REMARK>
 VINA RESULT:      -6.7      1.003      2.135
  Name = 
  16 active torsions:
  status: ('A' for Active; 'I' for Inactive)
    1  A    between atoms: C_1  and  C_35
    2  A    between atoms: C_1  and  C_55
    3  A    between atoms: C_7  and  C_49
    4  A    between atoms: C_8  and  C_21
    5  A    between atoms: N_12  and  C_41
    6  A    between atoms: C_15  and  C_33
    7  A    between atoms: C_15  and  N_52
    8  A    between atoms: C_17  and  C_46
    9  A    between atoms: C_17  and  C_47
   10  A    between atoms: C_17  and  N_52
   11  A    between atoms: C_19  and  C_27
   12  A    between atoms: C_19  and  C_31
   13  A    between atoms: N_23  and  C_42
   14  A    between atoms: C_27  and  C_50
   15  A    between atoms: C_33  and  C_41
   16  A    between atoms: C_41  and  C_43
                            x       y       z     vdW  Elec       q    Type
                         _______ _______ _______ _____ _____    ______ ____

>  <TORSDO>
F 16

$$$$
=
 OpenBabel10232412283D

 55 60  0  0  1  0  0  0  0  0999 V2000
  190.6180  175.6920  142.7650 C   0  0  0  0  0  1  0  0  0  0  0  0
  189.5720  177.5930  141.6970 C   0  0  0  0  0  0  0  0  0  0  0  0
  189.8100  176.9480  142.8040 C   0  0  0  0  0  0  0  0  0  0  0  0
  189.3520  178.2240  140.5780 C   0  0  0  0  0  3  0  0  0  0  0  0
  190.0340  177.7720  139.3230 C   0  0  2  0  0  3  0  0  0  0  0  0
  187.7850  176.1840  137.0870 C   0  0  0  0  0  0  0  0  0  0  0  0
  189.0410  177.3960  138.3180 N   0  0  0  0  0  0  0  0  0  0  0  0
  186.9250  178.0390  135.5110 C   0  0  0  0  0  1  0  0  0  0  0  0
  188.5250  178.2340  137.4290 N   0  0  0  0  0  0  0  0  0  0  0  0
  188.6290  176.1480  138.1350 N   0  0  0  0  0  0  0  0  0  0  0  0
  187.7220  177.4940  136.6460 C   0  0  0  0  0  0  0  0  0  0  0  0
  187.3870  174.5390  135.4130 O   0  0  0  0  0  0  0  0  0  0  0  0
  186.0650  174.3750  137.3230 N   0  0  0  0  0  2  0  0  0  0  0  0
  185.3870  173.2460  136.8480 N   0  0  0  0  0  1  0  0  0  0  0  0
  187.0870  175.0020  136.5490 C   0  0  0  0  0  0  0  0  0  0  0  0
  190.9820  176.6040  139.5960 C   0  0  0  0  0  2  0  0  0  0  0  0
  192.4320  177.0550  139.6400 C   0  0  0  0  0  2  0  0  0  0  0  0
  193.0270  176.9140  138.3190 N   0  0  0  0  0  2  0  0  0  0  0  0
  193.3190  175.4990  138.1050 C   0  0  1  0  0  3  0  0  0  0  0  0
  191.6990  173.6230  135.7000 C   0  0  0  0  0  0  0  0  0  0  0  0
  192.8120  176.1640  135.7760 O   0  0  0  0  0  0  0  0  0  0  0  0
  193.1020  173.7620  136.2180 C   0  0  0  0  0  2  0  0  0  0  0  0
  191.4230  176.0740  136.0040 C   0  0  0  0  0  2  0  0  0  0  0  0
  193.4620  175.2100  136.5970 C   0  0  2  0  0  3  0  0  0  0  0  0
  190.8590  174.8170  135.3590 C   0  0  0  0  0  2  0  0  0  0  0  0
  191.2490  172.5060  135.5080 O   0  0  0  0  0  0  0  0  0  0  0  0
  194.9820  175.8260  139.7440 O   0  0  0  0  0  0  0  0  0  0  0  0
  195.3120  173.8530  138.5160 C   0  0  0  0  0  1  0  0  0  0  0  0
  194.5770  175.1110  138.8420 C   0  0  0  0  0  0  0  0  0  0  0  0
  189.4170  177.5550  144.1100 C   0  0  0  0  0  2  0  0  0  0  0  0
  188.0080  177.1400  144.4800 C   0  0  0  0  0  2  0  0  0  0  0  0
  186.0510  179.3750  142.6000 C   0  0  0  0  0  2  0  0  0  0  0  0
  185.9580  178.4090  143.7650 C   0  0  0  0  0  0  0  0  0  0  0  0
  186.1220  177.8740  142.3560 C   0  0  0  0  0  2  0  0  0  0  0  0
  187.1320  178.3530  144.7250 C   0  0  1  0  0  3  0  0  0  0  0  0
  185.0400  177.6840  145.8300 C   0  0  0  0  0  2  0  0  0  0  0  0
  186.4530  178.2020  146.0790 C   0  0  0  0  0  2  0  0  0  0  0  0
  184.6260  178.1380  144.4340 C   0  0  1  0  0  3  0  0  0  0  0  0
  183.7860  179.4080  144.5430 C   0  0  0  0  0  2  0  0  0  0  0  0
  182.6740  178.6840  142.4770 C   0  0  0  0  0  3  0  0  0  0  0  0
  182.6000  179.3400  143.6340 C   0  0  0  0  0  3  0  0  0  0  0  0
  181.2950  179.3230  139.2810 C   0  0  2  0  0  3  0  0  0  0  0  0
  182.2800  180.2360  138.8910 O   0  0  0  0  0  1  0  0  0  0  0  0
  180.3080  179.9590  140.2410 C   0  0  2  0  0  3  0  0  0  0  0  0
  179.9860  181.4050  139.9060 C   0  0  0  0  0  1  0  0  0  0  0  0
  181.4900  178.6130  141.5690 C   0  0  1  0  0  3  0  0  0  0  0  0
  180.8260  179.8540  141.5410 O   0  0  0  0  0  0  0  0  0  0  0  0
  181.9490  178.2750  140.1570 C   0  0  1  0  0  3  0  0  0  0  0  0
  179.9840  175.3590  138.7740 C   0  0  0  0  0  2  0  0  0  0  0  0
  182.6300  176.3760  138.8920 C   0  0  0  0  0  2  0  0  0  0  0  0
  181.6020  176.8910  139.8000 N   0  0  0  0  0  0  0  0  0  0  0  0
  180.2840  176.8100  139.1500 C   0  0  0  0  0  2  0  0  0  0  0  0
  180.7170  173.4710  137.6080 C   0  0  0  0  0  1  0  0  0  0  0  0
  181.0050  174.8730  137.8500 N   0  0  0  0  0  0  0  0  0  0  0  0
  182.3060  174.9300  138.5130 C   0  0  0  0  0  2  0  0  0  0  0  0
  1  3  1  0  0  0  0
  2  3  2  0  0  0  0
  3 30  1  0  0  0  0
  4  2  2  0  0  0  0
  5 16  1  1  0  0  0
  5  4  1  0  0  0  0
  6 10  2  0  0  0  0
  7  5  1  0  0  0  0
  8 11  1  0  0  0  0
  9  7  1  0  0  0  0
 10  7  1  0  0  0  0
 11  6  1  0  0  0  0
 11  9  2  0  0  0  0
 12 15  2  0  0  0  0
 14 13  1  0  0  0  0
 15  6  1  0  0  0  0
 15 13  1  0  0  0  0
 16 17  1  0  0  0  0
 18 17  1  0  0  0  0
 19 18  1  6  0  0  0
 19 29  1  0  0  0  0
 20 22  1  0  0  0  0
 21 23  1  0  0  0  0
 21 24  1  0  0  0  0
 22 24  1  0  0  0  0
 24 19  1  1  0  0  0
 25 20  1  0  0  0  0
 25 23  1  0  0  0  0
 26 20  2  0  0  0  0
 28 29  1  0  0  0  0
 29 27  2  0  0  0  0
 30 31  1  0  0  0  0
 32 33  1  0  0  0  0
 33 38  1  0  0  0  0
 33 35  1  0  0  0  0
 34 32  1  0  0  0  0
 34 33  1  0  0  0  0
 35 31  1  6  0  0  0
 35 37  1  0  0  0  0
 36 37  1  0  0  0  0
 38 39  1  1  0  0  0
 38 36  1  0  0  0  0
 40 41  2  0  0  0  0
 41 39  1  0  0  0  0
 42 43  1  1  0  0  0
 42 48  1  0  0  0  0
 42 44  1  0  0  0  0
 44 45  1  6  0  0  0
 44 47  1  0  0  0  0
 46 40  1  1  0  0  0
 47 46  1  0  0  0  0
 48 51  1  6  0  0  0
 48 46  1  0  0  0  0
 49 52  1  0  0  0  0
 50 51  1  0  0  0  0
 52 51  1  0  0  0  0
 53 54  1  0  0  0  0
 54 55  1  0  0  0  0
 54 49  1  0  0  0  0
 55 50  1  0  0  0  0
M  END
>  <MODEL>
6

>  <REMARK>
 VINA RESULT:      -6.7      3.153      6.080
  Name = 
  16 active torsions:
  status: ('A' for Active; 'I' for Inactive)
    1  A    between atoms: C_1  and  C_35
    2  A    between atoms: C_1  and  C_55
    3  A    between atoms: C_7  and  C_49
    4  A    between atoms: C_8  and  C_21
    5  A    between atoms: N_12  and  C_41
    6  A    between atoms: C_15  and  C_33
    7  A    between atoms: C_15  and  N_52
    8  A    between atoms: C_17  and  C_46
    9  A    between atoms: C_17  and  C_47
   10  A    between atoms: C_17  and  N_52
   11  A    between atoms: C_19  and  C_27
   12  A    between atoms: C_19  and  C_31
   13  A    between atoms: N_23  and  C_42
   14  A    between atoms: C_27  and  C_50
   15  A    between atoms: C_33  and  C_41
   16  A    between atoms: C_41  and  C_43
                            x       y       z     vdW  Elec       q    Type
                         _______ _______ _______ _____ _____    ______ ____

>  <TORSDO>
F 16

$$$$
=
 OpenBabel10232412283D

 55 60  0  0  1  0  0  0  0  0999 V2000
  187.5280  177.2380  144.6890 C   0  0  0  0  0  1  0  0  0  0  0  0
  186.9260  177.9600  142.4610 C   0  0  0  0  0  0  0  0  0  0  0  0
  186.5980  177.8920  143.7190 C   0  0  0  0  0  0  0  0  0  0  0  0
  187.2790  178.0210  141.2070 C   0  0  0  0  0  3  0  0  0  0  0  0
  188.6520  177.5840  140.7990 C   0  0  2  0  0  3  0  0  0  0  0  0
  190.7550  177.0640  143.6060 C   0  0  0  0  0  0  0  0  0  0  0  0
  189.5660  177.6630  141.9370 N   0  0  0  0  0  0  0  0  0  0  0  0
  191.3920  179.4150  144.4600 C   0  0  0  0  0  1  0  0  0  0  0  0
  189.9640  178.7980  142.4960 N   0  0  0  0  0  0  0  0  0  0  0  0
  190.0110  176.5960  142.5870 N   0  0  0  0  0  0  0  0  0  0  0  0
  190.7240  178.4460  143.5470 C   0  0  0  0  0  0  0  0  0  0  0  0
  192.0700  175.1710  144.2020 O   0  0  0  0  0  0  0  0  0  0  0  0
  191.4260  176.5480  145.9670 N   0  0  0  0  0  2  0  0  0  0  0  0
  192.0830  175.7610  146.9200 N   0  0  0  0  0  1  0  0  0  0  0  0
  191.4510  176.2050  144.5820 C   0  0  0  0  0  0  0  0  0  0  0  0
  189.1790  178.4260  139.6360 C   0  0  0  0  0  2  0  0  0  0  0  0
  188.8040  177.8250  138.2910 C   0  0  0  0  0  2  0  0  0  0  0  0
  189.0310  176.3880  138.3190 N   0  0  0  0  0  2  0  0  0  0  0  0
  189.2510  175.9390  136.9470 C   0  0  1  0  0  3  0  0  0  0  0  0
  192.5510  175.7690  135.9390 C   0  0  0  0  0  0  0  0  0  0  0  0
  191.1190  174.8090  138.1140 O   0  0  0  0  0  0  0  0  0  0  0  0
  191.2830  175.0110  135.6680 C   0  0  0  0  0  2  0  0  0  0  0  0
  191.8030  176.0280  138.2960 C   0  0  0  0  0  2  0  0  0  0  0  0
  190.3790  174.8880  136.9080 C   0  0  2  0  0  3  0  0  0  0  0  0
  192.9760  176.1270  137.3320 C   0  0  0  0  0  2  0  0  0  0  0  0
  193.2760  176.0600  135.0040 O   0  0  0  0  0  0  0  0  0  0  0  0
  186.9460  175.4550  137.0220 O   0  0  0  0  0  0  0  0  0  0  0  0
  187.9420  174.7470  135.0190 C   0  0  0  0  0  1  0  0  0  0  0  0
  187.9760  175.3720  136.3750 C   0  0  0  0  0  0  0  0  0  0  0  0
  185.3820  178.6100  144.2050 C   0  0  0  0  0  2  0  0  0  0  0  0
  184.1400  178.0460  143.5480 C   0  0  0  0  0  2  0  0  0  0  0  0
  183.5850  179.4470  140.3720 C   0  0  0  0  0  2  0  0  0  0  0  0
  182.8470  178.8000  141.5290 C   0  0  0  0  0  0  0  0  0  0  0  0
  183.7430  177.9570  140.6430 C   0  0  0  0  0  2  0  0  0  0  0  0
  183.3020  179.1480  142.9330 C   0  0  1  0  0  3  0  0  0  0  0  0
  180.9310  178.4960  142.8960 C   0  0  0  0  0  2  0  0  0  0  0  0
  181.9890  179.2500  143.6980 C   0  0  0  0  0  2  0  0  0  0  0  0
  181.3590  178.5250  141.4330 C   0  0  1  0  0  3  0  0  0  0  0  0
  180.6270  179.6540  140.7130 C   0  0  0  0  0  2  0  0  0  0  0  0
  180.3440  177.9760  138.9420 C   0  0  0  0  0  3  0  0  0  0  0  0
  180.2770  179.2540  139.3150 C   0  0  0  0  0  3  0  0  0  0  0  0
  181.4520  177.1520  135.6840 C   0  0  2  0  0  3  0  0  0  0  0  0
  182.7250  177.7090  135.8310 O   0  0  0  0  0  1  0  0  0  0  0  0
  180.4070  178.2280  135.4560 C   0  0  2  0  0  3  0  0  0  0  0  0
  180.8970  179.3710  134.5850 C   0  0  0  0  0  1  0  0  0  0  0  0
  179.9930  177.5730  137.5470 C   0  0  1  0  0  3  0  0  0  0  0  0
  179.9820  178.7020  136.7060 O   0  0  0  0  0  0  0  0  0  0  0  0
  181.0300  176.5880  137.0250 C   0  0  1  0  0  3  0  0  0  0  0  0
  180.1110  173.2040  135.6170 C   0  0  0  0  0  2  0  0  0  0  0  0
  181.1620  174.4030  137.9630 C   0  0  0  0  0  2  0  0  0  0  0  0
  180.4830  175.2240  136.9580 N   0  0  0  0  0  0  0  0  0  0  0  0
  180.6680  174.6270  135.6260 C   0  0  0  0  0  2  0  0  0  0  0  0
  180.1820  171.0920  136.6150 C   0  0  0  0  0  1  0  0  0  0  0  0
  180.8180  172.3960  136.6080 N   0  0  0  0  0  0  0  0  0  0  0  0
  180.6050  172.9800  137.9310 C   0  0  0  0  0  2  0  0  0  0  0  0
  2  3  2  0  0  0  0
  3 30  1  0  0  0  0
  3  1  1  0  0  0  0
  4  2  2  0  0  0  0
  5 16  1  6  0  0  0
  5  4  1  0  0  0  0
  5  7  1  0  0  0  0
  6 15  1  0  0  0  0
  7  9  1  0  0  0  0
  7 10  1  0  0  0  0
  9 11  2  0  0  0  0
 10  6  2  0  0  0  0
 11  6  1  0  0  0  0
 11  8  1  0  0  0  0
 12 15  2  0  0  0  0
 13 14  1  0  0  0  0
 15 13  1  0  0  0  0
 17 18  1  0  0  0  0
 17 16  1  0  0  0  0
 19 29  1  1  0  0  0
 19 18  1  0  0  0  0
 20 25  1  0  0  0  0
 21 23  1  0  0  0  0
 22 20  1  0  0  0  0
 22 24  1  0  0  0  0
 24 19  1  1  0  0  0
 24 21  1  0  0  0  0
 25 23  1  0  0  0  0
 26 20  2  0  0  0  0
 28 29  1  0  0  0  0
 29 27  2  0  0  0  0
 31 30  1  0  0  0  0
 32 34  1  0  0  0  0
 32 33  1  0  0  0  0
 33 35  1  0  0  0  0
 34 33  1  0  0  0  0
 35 31  1  1  0  0  0
 35 37  1  0  0  0  0
 36 37  1  0  0  0  0
 38 39  1  6  0  0  0
 38 33  1  0  0  0  0
 38 36  1  0  0  0  0
 40 41  2  0  0  0  0
 41 39  1  0  0  0  0
 42 43  1  1  0  0  0
 42 48  1  0  0  0  0
 44 45  1  6  0  0  0
 44 42  1  0  0  0  0
 44 47  1  0  0  0  0
 46 40  1  1  0  0  0
 47 46  1  0  0  0  0
 48 51  1  6  0  0  0
 48 46  1  0  0  0  0
 49 52  1  0  0  0  0
 49 54  1  0  0  0  0
 51 50  1  0  0  0  0
 52 51  1  0  0  0  0
 54 53  1  0  0  0  0
 54 55  1  0  0  0  0
 55 50  1  0  0  0  0
M  END
>  <MODEL>
7

>  <REMARK>
 VINA RESULT:      -6.6      2.120      2.957
  Name = 
  16 active torsions:
  status: ('A' for Active; 'I' for Inactive)
    1  A    between atoms: C_1  and  C_35
    2  A    between atoms: C_1  and  C_55
    3  A    between atoms: C_7  and  C_49
    4  A    between atoms: C_8  and  C_21
    5  A    between atoms: N_12  and  C_41
    6  A    between atoms: C_15  and  C_33
    7  A    between atoms: C_15  and  N_52
    8  A    between atoms: C_17  and  C_46
    9  A    between atoms: C_17  and  C_47
   10  A    between atoms: C_17  and  N_52
   11  A    between atoms: C_19  and  C_27
   12  A    between atoms: C_19  and  C_31
   13  A    between atoms: N_23  and  C_42
   14  A    between atoms: C_27  and  C_50
   15  A    between atoms: C_33  and  C_41
   16  A    between atoms: C_41  and  C_43
                            x       y       z     vdW  Elec       q    Type
                         _______ _______ _______ _____ _____    ______ ____

>  <TORSDO>
F 16

$$$$
=
 OpenBabel10232412283D

 55 60  0  0  1  0  0  0  0  0999 V2000
  189.9120  178.9250  142.4170 C   0  0  0  0  0  1  0  0  0  0  0  0
  187.7730  177.8050  142.5530 C   0  0  0  0  0  0  0  0  0  0  0  0
  188.9260  177.9010  141.9550 C   0  0  0  0  0  0  0  0  0  0  0  0
  186.6280  177.7220  143.1720 C   0  0  0  0  0  3  0  0  0  0  0  0
  186.3910  178.5320  144.4090 C   0  0  2  0  0  3  0  0  0  0  0  0
  189.1790  177.4660  146.3240 C   0  0  0  0  0  0  0  0  0  0  0  0
  187.3830  178.1960  145.4290 N   0  0  0  0  0  0  0  0  0  0  0  0
  188.4600  177.6690  148.7950 C   0  0  0  0  0  1  0  0  0  0  0  0
  187.1520  178.2330  146.7340 N   0  0  0  0  0  0  0  0  0  0  0  0
  188.5890  177.7260  145.1410 N   0  0  0  0  0  0  0  0  0  0  0  0
  188.2750  177.7850  147.3210 C   0  0  0  0  0  0  0  0  0  0  0  0
  191.2510  176.6940  145.4430 O   0  0  0  0  0  0  0  0  0  0  0  0
  191.0770  176.6870  147.7660 N   0  0  0  0  0  2  0  0  0  0  0  0
  192.3740  176.1890  147.9380 N   0  0  0  0  0  1  0  0  0  0  0  0
  190.5460  176.9330  146.4640 C   0  0  0  0  0  0  0  0  0  0  0  0
  184.9780  178.3160  144.9510 C   0  0  0  0  0  2  0  0  0  0  0  0
  183.9580  179.1760  144.2230 C   0  0  0  0  0  2  0  0  0  0  0  0
  182.9430  178.3230  143.6220 N   0  0  0  0  0  2  0  0  0  0  0  0
  182.2960  179.0770  142.5530 C   0  0  1  0  0  3  0  0  0  0  0  0
  182.4310  179.7650  139.1700 C   0  0  0  0  0  0  0  0  0  0  0  0
  183.6820  177.9420  140.8460 O   0  0  0  0  0  0  0  0  0  0  0  0
  181.5690  178.9440  140.0870 C   0  0  0  0  0  2  0  0  0  0  0  0
  184.3880  179.1290  140.5640 C   0  0  0  0  0  2  0  0  0  0  0  0
  182.3630  178.2870  141.2300 C   0  0  2  0  0  3  0  0  0  0  0  0
  183.9270  179.7180  139.2390 C   0  0  0  0  0  2  0  0  0  0  0  0
  181.8970  180.4530  138.3170 O   0  0  0  0  0  0  0  0  0  0  0  0
  180.3720  180.4400  142.5830 O   0  0  0  0  0  0  0  0  0  0  0  0
  180.0250  178.3810  143.6530 C   0  0  0  0  0  1  0  0  0  0  0  0
  180.8630  179.3760  142.9210 C   0  0  0  0  0  0  0  0  0  0  0  0
  189.3130  176.8870  140.9300 C   0  0  0  0  0  2  0  0  0  0  0  0
  189.0210  177.4060  139.5390 C   0  0  0  0  0  2  0  0  0  0  0  0
  188.4510  176.8780  136.1100 C   0  0  0  0  0  2  0  0  0  0  0  0
  189.5750  176.9790  137.1230 C   0  0  0  0  0  0  0  0  0  0  0  0
  188.8020  178.2230  136.7290 C   0  0  0  0  0  2  0  0  0  0  0  0
  189.3450  176.3610  138.4900 C   0  0  1  0  0  3  0  0  0  0  0  0
  191.7390  176.4300  137.9290 C   0  0  0  0  0  2  0  0  0  0  0  0
  190.7000  175.7450  138.8130 C   0  0  0  0  0  2  0  0  0  0  0  0
  191.0210  176.9180  136.6750 C   0  0  1  0  0  3  0  0  0  0  0  0
  191.2170  175.9030  135.5520 C   0  0  0  0  0  2  0  0  0  0  0  0
  193.1490  174.7360  134.5870 C   0  0  0  0  0  3  0  0  0  0  0  0
  192.5490  175.2340  135.6670 C   0  0  0  0  0  3  0  0  0  0  0  0
  196.0260  174.0740  136.5390 C   0  0  2  0  0  3  0  0  0  0  0  0
  195.8160  175.1180  137.4440 O   0  0  0  0  0  1  0  0  0  0  0  0
  196.5830  174.5920  135.2260 C   0  0  2  0  0  3  0  0  0  0  0  0
  197.5750  175.7290  135.3980 C   0  0  0  0  0  1  0  0  0  0  0  0
  194.4810  174.0680  134.6980 C   0  0  1  0  0  3  0  0  0  0  0  0
  195.5080  174.9890  134.4170 O   0  0  0  0  0  0  0  0  0  0  0  0
  194.6730  173.5440  136.1140 C   0  0  1  0  0  3  0  0  0  0  0  0
  195.2830  169.9150  135.2530 C   0  0  0  0  0  2  0  0  0  0  0  0
  194.9570  171.6240  137.4940 C   0  0  0  0  0  2  0  0  0  0  0  0
  194.5610  172.0780  136.1590 N   0  0  0  0  0  0  0  0  0  0  0  0
  195.4130  171.4340  135.1460 C   0  0  0  0  0  2  0  0  0  0  0  0
  195.4710  168.0500  136.6500 C   0  0  0  0  0  1  0  0  0  0  0  0
  195.7070  169.4810  136.5830 N   0  0  0  0  0  0  0  0  0  0  0  0
  194.8370  170.1020  137.5800 C   0  0  0  0  0  2  0  0  0  0  0  0
  2  4  2  0  0  0  0
  3  1  1  0  0  0  0
  3  2  2  0  0  0  0
  5  4  1  6  0  0  0
  5 16  1  0  0  0  0
  5  7  1  0  0  0  0
  6 15  1  0  0  0  0
  6 11  1  0  0  0  0
  7  9  1  0  0  0  0
  9 11  2  0  0  0  0
 10  7  1  0  0  0  0
 10  6  2  0  0  0  0
 11  8  1  0  0  0  0
 12 15  2  0  0  0  0
 13 14  1  0  0  0  0
 15 13  1  0  0  0  0
 17 16  1  0  0  0  0
 18 17  1  0  0  0  0
 19 29  1  1  0  0  0
 19 18  1  0  0  0  0
 20 25  1  0  0  0  0
 20 22  1  0  0  0  0
 21 24  1  0  0  0  0
 22 24  1  0  0  0  0
 23 21  1  0  0  0  0
 24 19  1  1  0  0  0
 25 23  1  0  0  0  0
 26 20  2  0  0  0  0
 27 29  2  0  0  0  0
 29 28  1  0  0  0  0
 30  3  1  0  0  0  0
 31 30  1  0  0  0  0
 32 34  1  0  0  0  0
 32 33  1  0  0  0  0
 33 35  1  0  0  0  0
 34 33  1  0  0  0  0
 35 37  1  0  0  0  0
 35 31  1  1  0  0  0
 36 37  1  0  0  0  0
 38 39  1  6  0  0  0
 38 33  1  0  0  0  0
 38 36  1  0  0  0  0
 39 41  1  0  0  0  0
 40 41  2  0  0  0  0
 42 43  1  1  0  0  0
 44 45  1  1  0  0  0
 44 42  1  0  0  0  0
 46 40  1  1  0  0  0
 46 48  1  0  0  0  0
 47 46  1  0  0  0  0
 47 44  1  0  0  0  0
 48 51  1  6  0  0  0
 48 42  1  0  0  0  0
 49 54  1  0  0  0  0
 50 55  1  0  0  0  0
 51 50  1  0  0  0  0
 52 49  1  0  0  0  0
 52 51  1  0  0  0  0
 54 53  1  0  0  0  0
 54 55  1  0  0  0  0
M  END
>  <MODEL>
8

>  <REMARK>
 VINA RESULT:      -6.6      3.623      9.311
  Name = 
  16 active torsions:
  status: ('A' for Active; 'I' for Inactive)
    1  A    between atoms: C_1  and  C_35
    2  A    between atoms: C_1  and  C_55
    3  A    between atoms: C_7  and  C_49
    4  A    between atoms: C_8  and  C_21
    5  A    between atoms: N_12  and  C_41
    6  A    between atoms: C_15  and  C_33
    7  A    between atoms: C_15  and  N_52
    8  A    between atoms: C_17  and  C_46
    9  A    between atoms: C_17  and  C_47
   10  A    between atoms: C_17  and  N_52
   11  A    between atoms: C_19  and  C_27
   12  A    between atoms: C_19  and  C_31
   13  A    between atoms: N_23  and  C_42
   14  A    between atoms: C_27  and  C_50
   15  A    between atoms: C_33  and  C_41
   16  A    between atoms: C_41  and  C_43
                            x       y       z     vdW  Elec       q    Type
                         _______ _______ _______ _____ _____    ______ ____

>  <TORSDO>
F 16

$$$$
=
 OpenBabel10232412283D

 55 60  0  0  1  0  0  0  0  0999 V2000
  190.6900  177.9410  138.6120 C   0  0  0  0  0  1  0  0  0  0  0  0
  190.3360  176.5460  140.5560 C   0  0  0  0  0  0  0  0  0  0  0  0
  190.5540  176.6070  139.2740 C   0  0  0  0  0  0  0  0  0  0  0  0
  190.1240  176.5100  141.8430 C   0  0  0  0  0  3  0  0  0  0  0  0
  190.1770  177.7750  142.6410 C   0  0  2  0  0  3  0  0  0  0  0  0
  190.9920  176.7430  145.9340 C   0  0  0  0  0  0  0  0  0  0  0  0
  190.2490  177.4680  144.0680 N   0  0  0  0  0  0  0  0  0  0  0  0
  188.8490  177.0810  147.3330 C   0  0  0  0  0  1  0  0  0  0  0  0
  189.2250  177.5730  144.9060 N   0  0  0  0  0  0  0  0  0  0  0  0
  191.3270  176.9590  144.6480 N   0  0  0  0  0  0  0  0  0  0  0  0
  189.6730  177.1300  146.0930 C   0  0  0  0  0  0  0  0  0  0  0  0
  192.4220  175.0430  146.7890 O   0  0  0  0  0  0  0  0  0  0  0  0
  192.2270  176.9540  148.1070 N   0  0  0  0  0  2  0  0  0  0  0  0
  193.1020  176.4620  149.0820 N   0  0  0  0  0  1  0  0  0  0  0  0
  191.9110  176.1880  146.9440 C   0  0  0  0  0  0  0  0  0  0  0  0
  188.9680  178.6660  142.3490 C   0  0  0  0  0  2  0  0  0  0  0  0
  187.7820  177.8590  141.8490 C   0  0  0  0  0  2  0  0  0  0  0  0
  186.7520  178.7630  141.3570 N   0  0  0  0  0  2  0  0  0  0  0  0
  185.4980  178.4200  142.0220 C   0  0  1  0  0  3  0  0  0  0  0  0
  183.1520  178.8830  144.5150 C   0  0  0  0  0  0  0  0  0  0  0  0
  185.8690  179.3920  144.2680 O   0  0  0  0  0  0  0  0  0  0  0  0
  183.6210  179.6320  143.3000 C   0  0  0  0  0  2  0  0  0  0  0  0
  185.5060  178.1850  144.9000 C   0  0  0  0  0  2  0  0  0  0  0  0
  185.1350  179.5010  143.0600 C   0  0  2  0  0  3  0  0  0  0  0  0
  184.1150  178.3000  145.5050 C   0  0  0  0  0  2  0  0  0  0  0  0
  181.9550  178.7880  144.7250 O   0  0  0  0  0  0  0  0  0  0  0  0
  183.6530  177.3030  141.0700 O   0  0  0  0  0  0  0  0  0  0  0  0
  184.1680  179.2980  139.9460 C   0  0  0  0  0  1  0  0  0  0  0  0
  184.3940  178.2700  141.0050 C   0  0  0  0  0  0  0  0  0  0  0  0
  190.8310  175.3540  138.5110 C   0  0  0  0  0  2  0  0  0  0  0  0
  190.5050  175.5460  137.0460 C   0  0  0  0  0  2  0  0  0  0  0  0
  188.7210  178.0060  135.2770 C   0  0  0  0  0  2  0  0  0  0  0  0
  188.8020  176.5020  135.4620 C   0  0  0  0  0  0  0  0  0  0  0  0
  189.9050  177.2290  134.7180 C   0  0  0  0  0  2  0  0  0  0  0  0
  189.0650  175.9820  136.8620 C   0  0  1  0  0  3  0  0  0  0  0  0
  187.8410  174.3330  135.5090 C   0  0  0  0  0  2  0  0  0  0  0  0
  188.1670  174.7540  136.9400 C   0  0  0  0  0  2  0  0  0  0  0  0
  187.9310  175.5780  134.6340 C   0  0  1  0  0  3  0  0  0  0  0  0
  186.5340  176.1580  134.4320 C   0  0  0  0  0  2  0  0  0  0  0  0
  184.3000  175.1490  134.5860 C   0  0  0  0  0  3  0  0  0  0  0  0
  185.5060  175.3210  135.1250 C   0  0  0  0  0  3  0  0  0  0  0  0
  183.4350  173.1330  137.3630 C   0  0  2  0  0  3  0  0  0  0  0  0
  184.7510  172.9080  137.7790 O   0  0  0  0  0  1  0  0  0  0  0  0
  183.0860  172.2750  136.1620 C   0  0  2  0  0  3  0  0  0  0  0  0
  183.6910  170.8830  136.2180 C   0  0  0  0  0  1  0  0  0  0  0  0
  183.2730  174.3120  135.2750 C   0  0  1  0  0  3  0  0  0  0  0  0
  183.4980  172.9490  135.0020 O   0  0  0  0  0  0  0  0  0  0  0  0
  183.3620  174.5290  136.7790 C   0  0  1  0  0  3  0  0  0  0  0  0
  180.8990  176.0750  139.1920 C   0  0  0  0  0  2  0  0  0  0  0  0
  182.4630  176.7300  136.9180 C   0  0  0  0  0  2  0  0  0  0  0  0
  182.2290  175.3280  137.2710 N   0  0  0  0  0  0  0  0  0  0  0  0
  182.0680  175.2060  138.7280 C   0  0  0  0  0  2  0  0  0  0  0  0
  179.9830  178.2250  139.2330 C   0  0  0  0  0  1  0  0  0  0  0  0
  181.1640  177.4710  138.8530 N   0  0  0  0  0  0  0  0  0  0  0  0
  181.2930  177.5870  137.4020 C   0  0  0  0  0  2  0  0  0  0  0  0
  1  3  1  0  0  0  0
  2  4  2  0  0  0  0
  3  2  2  0  0  0  0
  5  4  1  6  0  0  0
  5  7  1  0  0  0  0
  6 11  1  0  0  0  0
  6 15  1  0  0  0  0
  7 10  1  0  0  0  0
  7  9  1  0  0  0  0
  9 11  2  0  0  0  0
 10  6  2  0  0  0  0
 11  8  1  0  0  0  0
 12 15  2  0  0  0  0
 13 14  1  0  0  0  0
 15 13  1  0  0  0  0
 16  5  1  0  0  0  0
 17 16  1  0  0  0  0
 18 17  1  0  0  0  0
 18 19  1  0  0  0  0
 19 29  1  6  0  0  0
 20 26  2  0  0  0  0
 20 25  1  0  0  0  0
 21 23  1  0  0  0  0
 22 20  1  0  0  0  0
 23 25  1  0  0  0  0
 24 19  1  6  0  0  0
 24 22  1  0  0  0  0
 24 21  1  0  0  0  0
 28 29  1  0  0  0  0
 29 27  2  0  0  0  0
 30  3  1  0  0  0  0
 31 30  1  0  0  0  0
 32 33  1  0  0  0  0
 33 35  1  0  0  0  0
 34 32  1  0  0  0  0
 34 33  1  0  0  0  0
 35 37  1  0  0  0  0
 35 31  1  6  0  0  0
 36 37  1  0  0  0  0
 38 39  1  1  0  0  0
 38 33  1  0  0  0  0
 38 36  1  0  0  0  0
 39 41  1  0  0  0  0
 40 41  2  0  0  0  0
 42 43  1  6  0  0  0
 44 45  1  1  0  0  0
 44 42  1  0  0  0  0
 46 40  1  6  0  0  0
 46 48  1  0  0  0  0
 47 46  1  0  0  0  0
 47 44  1  0  0  0  0
 48 51  1  1  0  0  0
 48 42  1  0  0  0  0
 50 51  1  0  0  0  0
 50 55  1  0  0  0  0
 51 52  1  0  0  0  0
 52 49  1  0  0  0  0
 54 49  1  0  0  0  0
 54 53  1  0  0  0  0
 55 54  1  0  0  0  0
M  END
>  <MODEL>
9

>  <REMARK>
 VINA RESULT:      -6.5      3.038      7.281
  Name = 
  16 active torsions:
  status: ('A' for Active; 'I' for Inactive)
    1  A    between atoms: C_1  and  C_35
    2  A    between atoms: C_1  and  C_55
    3  A    between atoms: C_7  and  C_49
    4  A    between atoms: C_8  and  C_21
    5  A    between atoms: N_12  and  C_41
    6  A    between atoms: C_15  and  C_33
    7  A    between atoms: C_15  and  N_52
    8  A    between atoms: C_17  and  C_46
    9  A    between atoms: C_17  and  C_47
   10  A    between atoms: C_17  and  N_52
   11  A    between atoms: C_19  and  C_27
   12  A    between atoms: C_19  and  C_31
   13  A    between atoms: N_23  and  C_42
   14  A    between atoms: C_27  and  C_50
   15  A    between atoms: C_33  and  C_41
   16  A    between atoms: C_41  and  C_43
                            x       y       z     vdW  Elec       q    Type
                         _______ _______ _______ _____ _____    ______ ____

>  <TORSDO>
F 16

$$$$
