=
 OpenBabel10222422033D

 44 46  0  0  1  0  0  0  0  0999 V2000
  187.3870  178.6680  141.0850 C   0  0  0  0  0  2  0  0  0  0  0  0
  188.2510  177.6740  140.3300 C   0  0  0  0  0  2  0  0  0  0  0  0
  189.0140  176.2090  137.5650 C   0  0  1  0  0  3  0  0  0  0  0  0
  190.3260  176.5340  138.2360 C   0  0  0  0  0  3  0  0  0  0  0  0
  188.2220  177.4630  137.1510 C   0  0  0  0  0  2  0  0  0  0  0  0
  188.4360  178.6920  138.0560 C   0  0  2  0  0  3  0  0  0  0  0  0
  189.1260  179.6620  137.3400 O   0  0  0  0  0  1  0  0  0  0  0  0
  189.1780  178.3900  139.3670 C   0  0  2  0  0  3  0  0  0  0  0  0
  190.4040  177.5590  139.0910 C   0  0  0  0  0  3  0  0  0  0  0  0
  189.1670  175.2210  136.3990 C   0  0  2  0  0  3  0  0  0  0  0  0
  186.9390  174.0580  136.0430 C   0  0  0  0  0  0  0  0  0  0  0  0
  186.5020  175.0160  135.3540 O   0  0  0  0  0  0  0  0  0  0  0  0
  188.2620  174.0900  136.5790 N   0  0  0  0  0  2  0  0  0  0  0  0
  186.1080  172.9260  136.2810 N   0  0  0  0  0  0  0  0  0  0  0  0
  185.3840  172.8330  137.5330 C   0  0  0  0  0  2  0  0  0  0  0  0
  184.2230  173.7990  137.5270 C   0  0  0  0  0  1  0  0  0  0  0  0
  185.8360  171.9370  135.2300 C   0  0  0  0  0  3  0  0  0  0  0  0
  184.0460  170.5760  134.7960 C   0  0  0  0  0  1  0  0  0  0  0  0
  185.0840  170.8300  135.7060 O   0  0  0  0  0  0  0  0  0  0  0  0
  187.0090  171.5520  134.5590 O   0  0  0  0  0  0  0  0  0  0  0  0
  187.6200  170.6180  135.4000 C   0  0  0  0  0  1  0  0  0  0  0  0
  190.6070  174.7380  136.2220 C   0  0  0  0  0  2  0  0  0  0  0  0
  190.6410  173.2270  136.1080 C   0  0  0  0  0  1  0  0  0  0  0  0
  186.7490  177.9870  142.2980 C   0  0  1  0  0  3  0  0  0  0  0  0
  188.4630  176.7530  143.7440 C   0  0  0  0  0  0  0  0  0  0  0  0
  188.3190  175.6890  143.0880 O   0  0  0  0  0  0  0  0  0  0  0  0
  187.6980  177.9170  143.4050 N   0  0  0  0  0  2  0  0  0  0  0  0
  188.9700  177.0760  146.1550 C   0  0  0  0  0  3  0  0  0  0  0  0
  191.2260  176.9070  147.0090 C   0  0  0  0  0  0  0  0  0  0  0  0
  189.8640  177.1270  147.2230 C   0  0  0  0  0  3  0  0  0  0  0  0
  190.7850  176.5800  144.6410 C   0  0  0  0  0  3  0  0  0  0  0  0
  191.6870  176.6290  145.7110 C   0  0  0  0  0  3  0  0  0  0  0  0
  189.4130  176.8010  144.8580 C   0  0  0  0  0  0  0  0  0  0  0  0
  192.8470  175.8560  148.5540 C   0  0  0  0  0  1  0  0  0  0  0  0
  192.1040  176.9720  148.1000 O   0  0  0  0  0  0  0  0  0  0  0  0
  185.4010  178.5590  142.7830 C   0  0  1  0  0  3  0  0  0  0  0  0
  183.0270  178.7360  142.3370 O   0  0  0  0  0  0  0  0  0  0  0  0
  184.1800  177.9750  142.0640 C   0  0  1  0  0  3  0  0  0  0  0  0
  183.6600  178.9740  141.1070 C   0  0  1  0  0  3  0  0  0  0  0  0
  182.8870  178.2830  139.9980 C   0  0  0  0  0  2  0  0  0  0  0  0
  183.4330  178.7120  138.6570 C   0  0  0  0  0  2  0  0  0  0  0  0
  184.6930  177.9270  138.3580 C   0  0  0  0  0  1  0  0  0  0  0  0
  185.2860  178.3310  144.2600 C   0  0  0  0  0  3  0  0  0  0  0  0
  185.0150  179.2600  145.0060 O   0  0  0  0  0  0  0  0  0  0  0  0
  2  1  1  0  0  0  0
  3 10  1  6  0  0  0
  3  4  1  0  0  0  0
  4  9  2  0  0  0  0
  5  3  1  0  0  0  0
  5  6  1  0  0  0  0
  6  7  1  6  0  0  0
  6  8  1  0  0  0  0
  8  2  1  1  0  0  0
  9  8  1  0  0  0  0
 10 22  1  1  0  0  0
 10 13  1  0  0  0  0
 11 14  1  0  0  0  0
 11 13  1  0  0  0  0
 12 11  2  0  0  0  0
 14 15  1  0  0  0  0
 16 15  1  0  0  0  0
 17 19  1  0  0  0  0
 17 14  1  0  0  0  0
 18 19  1  0  0  0  0
 20 17  1  0  0  0  0
 20 21  1  0  0  0  0
 23 22  1  0  0  0  0
 24  1  1  6  0  0  0
 24 36  1  0  0  0  0
 24 27  1  0  0  0  0
 25 33  1  0  0  0  0
 26 25  2  0  0  0  0
 27 25  1  0  0  0  0
 28 30  1  0  0  0  0
 29 30  2  0  0  0  0
 29 35  1  0  0  0  0
 31 33  1  0  0  0  0
 31 32  2  0  0  0  0
 32 29  1  0  0  0  0
 33 28  2  0  0  0  0
 35 34  1  0  0  0  0
 36 43  1  1  0  0  0
 38 37  1  0  0  0  0
 38 36  1  1  0  0  0
 39 40  1  6  0  0  0
 39 38  1  0  0  0  0
 39 37  1  0  0  0  0
 41 40  1  0  0  0  0
 42 41  1  0  0  0  0
 43 44  2  0  0  0  0
M  END
>  <MODEL>
1

>  <REMARK>
 VINA RESULT:      -6.8      0.000      0.000
  Name = 
  18 active torsions:
  status: ('A' for Active; 'I' for Inactive)
    1  A    between atoms: C_1  and  C_28
    2  A    between atoms: C_6  and  C_26
    3  A    between atoms: C_6  and  C_37
    4  A    between atoms: C_8  and  C_27
    5  A    between atoms: C_8  and  C_31
    6  A    between atoms: C_9  and  C_43
    7  A    between atoms: C_11  and  O_20
    8  A    between atoms: C_11  and  N_35
    9  A    between atoms: C_11  and  O_41
   10  A    between atoms: C_14  and  C_29
   11  A    between atoms: C_16  and  N_35
   12  A    between atoms: O_17  and  C_25
   13  A    between atoms: N_18  and  C_31
   14  A    between atoms: C_21  and  C_29
   15  A    between atoms: N_22  and  C_28
   16  A    between atoms: C_27  and  C_34
   17  A    between atoms: C_28  and  C_30
   18  A    between atoms: C_29  and  C_31
                            x       y       z     vdW  Elec       q    Type
                         _______ _______ _______ _____ _____    ______ ____

>  <TORSDO>
F 18

$$$$
=
 OpenBabel10222422033D

 44 46  0  0  1  0  0  0  0  0999 V2000
  187.9280  178.8960  140.4830 C   0  0  0  0  0  2  0  0  0  0  0  0
  188.6060  178.1070  139.3780 C   0  0  0  0  0  2  0  0  0  0  0  0
  189.1010  176.0440  136.9540 C   0  0  1  0  0  3  0  0  0  0  0  0
  189.5450  177.3930  136.4460 C   0  0  0  0  0  3  0  0  0  0  0  0
  187.5890  175.9750  137.2390 C   0  0  0  0  0  2  0  0  0  0  0  0
  186.9530  177.3070  137.6830 C   0  0  2  0  0  3  0  0  0  0  0  0
  186.1040  177.7560  136.6800 O   0  0  0  0  0  1  0  0  0  0  0  0
  187.9670  178.4060  138.0350 C   0  0  2  0  0  3  0  0  0  0  0  0
  189.0160  178.5090  136.9580 C   0  0  0  0  0  3  0  0  0  0  0  0
  189.5650  174.8840  136.0610 C   0  0  2  0  0  3  0  0  0  0  0  0
  191.9660  174.7960  136.8800 C   0  0  0  0  0  0  0  0  0  0  0  0
  191.5990  174.5290  138.0540 O   0  0  0  0  0  0  0  0  0  0  0  0
  191.0060  174.9700  135.8380 N   0  0  0  0  0  2  0  0  0  0  0  0
  193.3550  174.9170  136.5870 N   0  0  0  0  0  0  0  0  0  0  0  0
  193.9530  176.2360  136.5330 C   0  0  0  0  0  2  0  0  0  0  0  0
  194.9820  176.2880  135.4290 C   0  0  0  0  0  1  0  0  0  0  0  0
  194.2270  173.7380  136.5030 C   0  0  0  0  0  3  0  0  0  0  0  0
  193.4940  171.6380  135.9590 C   0  0  0  0  0  1  0  0  0  0  0  0
  193.8770  172.8780  135.4270 O   0  0  0  0  0  0  0  0  0  0  0  0
  194.3170  173.0650  137.7320 O   0  0  0  0  0  0  0  0  0  0  0  0
  195.4680  173.5680  138.3420 C   0  0  0  0  0  1  0  0  0  0  0  0
  188.8150  174.8310  134.7290 C   0  0  0  0  0  2  0  0  0  0  0  0
  188.2100  173.4570  134.5240 C   0  0  0  0  0  1  0  0  0  0  0  0
  187.2590  177.9380  141.4720 C   0  0  1  0  0  3  0  0  0  0  0  0
  188.9290  176.8020  143.0440 C   0  0  0  0  0  0  0  0  0  0  0  0
  189.0830  175.8340  142.2560 O   0  0  0  0  0  0  0  0  0  0  0  0
  188.0250  177.8640  142.7120 N   0  0  0  0  0  2  0  0  0  0  0  0
  191.0120  176.4390  144.3510 C   0  0  0  0  0  3  0  0  0  0  0  0
  191.1150  176.9030  146.7230 C   0  0  0  0  0  0  0  0  0  0  0  0
  191.7300  176.4690  145.5460 C   0  0  0  0  0  3  0  0  0  0  0  0
  189.0540  177.2770  145.4900 C   0  0  0  0  0  3  0  0  0  0  0  0
  189.7710  177.3110  146.6930 C   0  0  0  0  0  3  0  0  0  0  0  0
  189.6740  176.8420  144.3050 C   0  0  0  0  0  0  0  0  0  0  0  0
  192.7030  175.8480  148.2990 C   0  0  0  0  0  1  0  0  0  0  0  0
  191.8590  176.9160  147.9110 O   0  0  0  0  0  0  0  0  0  0  0  0
  185.7680  178.1880  141.7760 C   0  0  1  0  0  3  0  0  0  0  0  0
  184.1570  179.2420  143.2460 O   0  0  0  0  0  0  0  0  0  0  0  0
  185.5210  179.2010  142.8990 C   0  0  1  0  0  3  0  0  0  0  0  0
  184.9950  178.4900  144.0840 C   0  0  1  0  0  3  0  0  0  0  0  0
  185.2930  179.2820  145.3440 C   0  0  0  0  0  2  0  0  0  0  0  0
  185.1300  178.3900  146.5510 C   0  0  0  0  0  2  0  0  0  0  0  0
  186.3040  178.5980  147.4860 C   0  0  0  0  0  1  0  0  0  0  0  0
  185.0900  178.6400  140.5170 C   0  0  0  0  0  3  0  0  0  0  0  0
  184.8750  179.8280  140.3290 O   0  0  0  0  0  0  0  0  0  0  0  0
  2  1  1  0  0  0  0
  3 10  1  6  0  0  0
  3  5  1  0  0  0  0
  4  3  1  0  0  0  0
  4  9  2  0  0  0  0
  5  6  1  0  0  0  0
  6  7  1  6  0  0  0
  6  8  1  0  0  0  0
  8  2  1  1  0  0  0
  9  8  1  0  0  0  0
 10 22  1  6  0  0  0
 11 12  2  0  0  0  0
 13 10  1  0  0  0  0
 13 11  1  0  0  0  0
 14 11  1  0  0  0  0
 15 14  1  0  0  0  0
 16 15  1  0  0  0  0
 17 14  1  0  0  0  0
 17 20  1  0  0  0  0
 19 18  1  0  0  0  0
 19 17  1  0  0  0  0
 20 21  1  0  0  0  0
 23 22  1  0  0  0  0
 24  1  1  6  0  0  0
 24 36  1  0  0  0  0
 24 27  1  0  0  0  0
 25 33  1  0  0  0  0
 26 25  2  0  0  0  0
 27 25  1  0  0  0  0
 28 30  1  0  0  0  0
 29 35  1  0  0  0  0
 30 29  2  0  0  0  0
 31 32  2  0  0  0  0
 32 29  1  0  0  0  0
 33 28  2  0  0  0  0
 33 31  1  0  0  0  0
 35 34  1  0  0  0  0
 36 43  1  6  0  0  0
 37 39  1  0  0  0  0
 38 36  1  6  0  0  0
 38 37  1  0  0  0  0
 38 39  1  0  0  0  0
 39 40  1  1  0  0  0
 40 41  1  0  0  0  0
 41 42  1  0  0  0  0
 44 43  2  0  0  0  0
M  END
>  <MODEL>
2

>  <REMARK>
 VINA RESULT:      -6.6      2.780      4.892
  Name = 
  18 active torsions:
  status: ('A' for Active; 'I' for Inactive)
    1  A    between atoms: C_1  and  C_28
    2  A    between atoms: C_6  and  C_26
    3  A    between atoms: C_6  and  C_37
    4  A    between atoms: C_8  and  C_27
    5  A    between atoms: C_8  and  C_31
    6  A    between atoms: C_9  and  C_43
    7  A    between atoms: C_11  and  O_20
    8  A    between atoms: C_11  and  N_35
    9  A    between atoms: C_11  and  O_41
   10  A    between atoms: C_14  and  C_29
   11  A    between atoms: C_16  and  N_35
   12  A    between atoms: O_17  and  C_25
   13  A    between atoms: N_18  and  C_31
   14  A    between atoms: C_21  and  C_29
   15  A    between atoms: N_22  and  C_28
   16  A    between atoms: C_27  and  C_34
   17  A    between atoms: C_28  and  C_30
   18  A    between atoms: C_29  and  C_31
                            x       y       z     vdW  Elec       q    Type
                         _______ _______ _______ _____ _____    ______ ____

>  <TORSDO>
F 18

$$$$
=
 OpenBabel10222422033D

 44 46  0  0  1  0  0  0  0  0999 V2000
  187.2870  177.5270  144.5520 C   0  0  0  0  0  2  0  0  0  0  0  0
  186.2610  177.5380  143.4330 C   0  0  0  0  0  2  0  0  0  0  0  0
  183.8910  177.9220  141.2850 C   0  0  1  0  0  3  0  0  0  0  0  0
  184.9190  178.9770  140.9600 C   0  0  0  0  0  3  0  0  0  0  0  0
  183.2280  178.1310  142.6580 C   0  0  0  0  0  2  0  0  0  0  0  0
  184.1240  178.8030  143.7160 C   0  0  2  0  0  3  0  0  0  0  0  0
  183.6270  180.0710  143.9860 O   0  0  0  0  0  1  0  0  0  0  0  0
  185.6050  178.9010  143.3190 C   0  0  2  0  0  3  0  0  0  0  0  0
  185.7330  179.4360  141.9160 C   0  0  0  0  0  3  0  0  0  0  0  0
  182.8500  177.7370  140.1710 C   0  0  2  0  0  3  0  0  0  0  0  0
  183.1210  176.0060  138.3330 C   0  0  0  0  0  0  0  0  0  0  0  0
  182.1790  175.3100  138.7930 O   0  0  0  0  0  0  0  0  0  0  0  0
  183.4950  177.2330  138.9620 N   0  0  0  0  0  2  0  0  0  0  0  0
  183.8130  175.5710  137.1670 N   0  0  0  0  0  0  0  0  0  0  0  0
  185.0750  174.8740  137.3150 C   0  0  0  0  0  2  0  0  0  0  0  0
  184.8260  173.4480  137.7460 C   0  0  0  0  0  1  0  0  0  0  0  0
  183.2060  175.6630  135.8330 C   0  0  0  0  0  3  0  0  0  0  0  0
  182.4300  177.6950  135.1160 C   0  0  0  0  0  1  0  0  0  0  0  0
  182.0770  176.5260  135.8070 O   0  0  0  0  0  0  0  0  0  0  0  0
  182.9330  174.3940  135.2950 O   0  0  0  0  0  0  0  0  0  0  0  0
  181.5760  174.1750  135.5420 C   0  0  0  0  0  1  0  0  0  0  0  0
  182.0730  179.0190  139.8740 C   0  0  0  0  0  2  0  0  0  0  0  0
  182.3390  179.4740  138.4530 C   0  0  0  0  0  1  0  0  0  0  0  0
  188.6720  177.2070  143.9850 C   0  0  1  0  0  3  0  0  0  0  0  0
  189.4920  176.7840  141.5970 C   0  0  0  0  0  0  0  0  0  0  0  0
  190.1980  175.8100  141.9630 O   0  0  0  0  0  0  0  0  0  0  0  0
  188.7280  177.5220  142.5600 N   0  0  0  0  0  2  0  0  0  0  0  0
  190.3860  176.6460  139.2820 C   0  0  0  0  0  3  0  0  0  0  0  0
  189.3980  177.9010  137.4660 C   0  0  0  0  0  0  0  0  0  0  0  0
  190.3610  177.0050  137.9360 C   0  0  0  0  0  3  0  0  0  0  0  0
  188.4830  178.0700  139.7120 C   0  0  0  0  0  3  0  0  0  0  0  0
  188.4520  178.4330  138.3600 C   0  0  0  0  0  3  0  0  0  0  0  0
  189.4520  177.1670  140.1840 C   0  0  0  0  0  0  0  0  0  0  0  0
  189.4240  177.2900  135.0690 C   0  0  0  0  0  1  0  0  0  0  0  0
  189.4000  178.2500  136.1080 O   0  0  0  0  0  0  0  0  0  0  0  0
  189.8790  177.8260  144.7180 C   0  0  1  0  0  3  0  0  0  0  0  0
  191.8850  177.4320  146.0160 O   0  0  0  0  0  0  0  0  0  0  0  0
  190.8390  176.7950  145.3210 C   0  0  1  0  0  3  0  0  0  0  0  0
  190.8290  176.9290  146.7930 C   0  0  1  0  0  3  0  0  0  0  0  0
  191.2540  175.6240  147.4400 C   0  0  0  0  0  2  0  0  0  0  0  0
  192.7550  175.6060  147.6060 C   0  0  0  0  0  2  0  0  0  0  0  0
  193.1040  175.9990  149.0260 C   0  0  0  0  0  1  0  0  0  0  0  0
  190.6150  178.7180  143.7630 C   0  0  0  0  0  3  0  0  0  0  0  0
  190.9530  179.8410  144.1080 O   0  0  0  0  0  0  0  0  0  0  0  0
  2  1  1  0  0  0  0
  3 10  1  6  0  0  0
  3  5  1  0  0  0  0
  4  3  1  0  0  0  0
  4  9  2  0  0  0  0
  5  6  1  0  0  0  0
  6  7  1  6  0  0  0
  8  2  1  6  0  0  0
  8  6  1  0  0  0  0
  9  8  1  0  0  0  0
 10 22  1  6  0  0  0
 11 12  2  0  0  0  0
 11 13  1  0  0  0  0
 13 10  1  0  0  0  0
 14 15  1  0  0  0  0
 14 11  1  0  0  0  0
 15 16  1  0  0  0  0
 17 14  1  0  0  0  0
 18 19  1  0  0  0  0
 19 17  1  0  0  0  0
 20 21  1  0  0  0  0
 20 17  1  0  0  0  0
 23 22  1  0  0  0  0
 24  1  1  1  0  0  0
 24 36  1  0  0  0  0
 25 26  2  0  0  0  0
 25 27  1  0  0  0  0
 27 24  1  0  0  0  0
 28 33  1  0  0  0  0
 29 30  1  0  0  0  0
 29 32  2  0  0  0  0
 30 28  2  0  0  0  0
 31 33  2  0  0  0  0
 32 31  1  0  0  0  0
 33 25  1  0  0  0  0
 34 35  1  0  0  0  0
 35 29  1  0  0  0  0
 36 43  1  6  0  0  0
 37 39  1  0  0  0  0
 38 36  1  6  0  0  0
 38 37  1  0  0  0  0
 38 39  1  0  0  0  0
 39 40  1  1  0  0  0
 40 41  1  0  0  0  0
 41 42  1  0  0  0  0
 43 44  2  0  0  0  0
M  END
>  <MODEL>
3

>  <REMARK>
 VINA RESULT:      -6.5      2.308      7.508
  Name = 
  18 active torsions:
  status: ('A' for Active; 'I' for Inactive)
    1  A    between atoms: C_1  and  C_28
    2  A    between atoms: C_6  and  C_26
    3  A    between atoms: C_6  and  C_37
    4  A    between atoms: C_8  and  C_27
    5  A    between atoms: C_8  and  C_31
    6  A    between atoms: C_9  and  C_43
    7  A    between atoms: C_11  and  O_20
    8  A    between atoms: C_11  and  N_35
    9  A    between atoms: C_11  and  O_41
   10  A    between atoms: C_14  and  C_29
   11  A    between atoms: C_16  and  N_35
   12  A    between atoms: O_17  and  C_25
   13  A    between atoms: N_18  and  C_31
   14  A    between atoms: C_21  and  C_29
   15  A    between atoms: N_22  and  C_28
   16  A    between atoms: C_27  and  C_34
   17  A    between atoms: C_28  and  C_30
   18  A    between atoms: C_29  and  C_31
                            x       y       z     vdW  Elec       q    Type
                         _______ _______ _______ _____ _____    ______ ____

>  <TORSDO>
F 18

$$$$
=
 OpenBabel10222422033D

 44 46  0  0  1  0  0  0  0  0999 V2000
  187.2850  177.5330  144.1900 C   0  0  0  0  0  2  0  0  0  0  0  0
  186.1380  177.5220  143.1960 C   0  0  0  0  0  2  0  0  0  0  0  0
  183.7310  177.9480  141.0980 C   0  0  1  0  0  3  0  0  0  0  0  0
  184.7390  179.0280  140.7950 C   0  0  0  0  0  3  0  0  0  0  0  0
  183.0850  178.0990  142.4880 C   0  0  0  0  0  2  0  0  0  0  0  0
  183.9900  178.7470  143.5550 C   0  0  2  0  0  3  0  0  0  0  0  0
  183.4800  179.9980  143.8770 O   0  0  0  0  0  1  0  0  0  0  0  0
  185.4630  178.8790  143.1390 C   0  0  2  0  0  3  0  0  0  0  0  0
  185.5620  179.4640  141.7550 C   0  0  0  0  0  3  0  0  0  0  0  0
  182.6750  177.7870  139.9950 C   0  0  2  0  0  3  0  0  0  0  0  0
  182.9710  175.9720  138.2440 C   0  0  0  0  0  0  0  0  0  0  0  0
  182.1000  175.2460  138.7900 O   0  0  0  0  0  0  0  0  0  0  0  0
  183.2940  177.2550  138.7840 N   0  0  0  0  0  2  0  0  0  0  0  0
  183.6350  175.5130  137.0700 N   0  0  0  0  0  0  0  0  0  0  0  0
  184.9450  174.9070  137.1920 C   0  0  0  0  0  2  0  0  0  0  0  0
  184.8070  173.4770  137.6610 C   0  0  0  0  0  1  0  0  0  0  0  0
  182.9600  175.4880  135.7660 C   0  0  0  0  0  3  0  0  0  0  0  0
  181.1160  174.5800  134.7550 C   0  0  0  0  0  1  0  0  0  0  0  0
  182.2310  174.2860  135.5550 O   0  0  0  0  0  0  0  0  0  0  0  0
  183.8440  175.7810  134.7150 O   0  0  0  0  0  0  0  0  0  0  0  0
  183.7770  177.1670  134.5570 C   0  0  0  0  0  1  0  0  0  0  0  0
  181.9350  179.0910  139.6940 C   0  0  0  0  0  2  0  0  0  0  0  0
  182.1650  179.5030  138.2540 C   0  0  0  0  0  1  0  0  0  0  0  0
  188.4240  176.6460  143.6800 C   0  0  1  0  0  3  0  0  0  0  0  0
  188.9160  177.8510  141.4770 C   0  0  0  0  0  0  0  0  0  0  0  0
  189.2130  178.9180  142.0740 O   0  0  0  0  0  0  0  0  0  0  0  0
  188.5030  176.7000  142.2240 N   0  0  0  0  0  2  0  0  0  0  0  0
  187.8810  178.1230  139.2340 C   0  0  0  0  0  3  0  0  0  0  0  0
  189.1130  177.6600  137.2050 C   0  0  0  0  0  0  0  0  0  0  0  0
  187.9370  178.0630  137.8430 C   0  0  0  0  0  3  0  0  0  0  0  0
  190.1740  177.3800  139.3740 C   0  0  0  0  0  3  0  0  0  0  0  0
  190.2370  177.3200  137.9770 C   0  0  0  0  0  3  0  0  0  0  0  0
  188.9910  177.7870  140.0150 C   0  0  0  0  0  0  0  0  0  0  0  0
  189.7430  176.5370  135.0940 C   0  0  0  0  0  1  0  0  0  0  0  0
  189.1400  177.6010  135.8050 O   0  0  0  0  0  0  0  0  0  0  0  0
  189.8150  176.8810  144.3020 C   0  0  1  0  0  3  0  0  0  0  0  0
  190.9750  177.1810  146.4070 O   0  0  0  0  0  0  0  0  0  0  0  0
  189.9090  176.5040  145.7840 C   0  0  1  0  0  3  0  0  0  0  0  0
  189.6930  177.7150  146.6050 C   0  0  1  0  0  3  0  0  0  0  0  0
  189.1910  177.3290  147.9840 C   0  0  0  0  0  2  0  0  0  0  0  0
  188.2200  178.3740  148.4800 C   0  0  0  0  0  2  0  0  0  0  0  0
  186.9700  178.3380  147.6250 C   0  0  0  0  0  1  0  0  0  0  0  0
  190.8310  176.1130  143.5110 C   0  0  0  0  0  3  0  0  0  0  0  0
  191.8340  176.6710  143.0920 O   0  0  0  0  0  0  0  0  0  0  0  0
  2  1  1  0  0  0  0
  3 10  1  6  0  0  0
  3  5  1  0  0  0  0
  4  3  1  0  0  0  0
  4  9  2  0  0  0  0
  5  6  1  0  0  0  0
  6  7  1  6  0  0  0
  8  2  1  6  0  0  0
  8  6  1  0  0  0  0
  9  8  1  0  0  0  0
 10 22  1  6  0  0  0
 11 13  1  0  0  0  0
 11 12  2  0  0  0  0
 13 10  1  0  0  0  0
 14 15  1  0  0  0  0
 14 11  1  0  0  0  0
 15 16  1  0  0  0  0
 17 14  1  0  0  0  0
 18 19  1  0  0  0  0
 19 17  1  0  0  0  0
 20 17  1  0  0  0  0
 21 20  1  0  0  0  0
 23 22  1  0  0  0  0
 24  1  1  1  0  0  0
 24 36  1  0  0  0  0
 25 26  2  0  0  0  0
 25 27  1  0  0  0  0
 27 24  1  0  0  0  0
 28 33  1  0  0  0  0
 29 30  1  0  0  0  0
 29 32  2  0  0  0  0
 30 28  2  0  0  0  0
 31 33  2  0  0  0  0
 32 31  1  0  0  0  0
 33 25  1  0  0  0  0
 34 35  1  0  0  0  0
 35 29  1  0  0  0  0
 36 43  1  6  0  0  0
 37 39  1  0  0  0  0
 38 36  1  6  0  0  0
 38 37  1  0  0  0  0
 38 39  1  0  0  0  0
 39 40  1  1  0  0  0
 40 41  1  0  0  0  0
 42 41  1  0  0  0  0
 44 43  2  0  0  0  0
M  END
>  <MODEL>
4

>  <REMARK>
 VINA RESULT:      -6.3      2.406      7.191
  Name = 
  18 active torsions:
  status: ('A' for Active; 'I' for Inactive)
    1  A    between atoms: C_1  and  C_28
    2  A    between atoms: C_6  and  C_26
    3  A    between atoms: C_6  and  C_37
    4  A    between atoms: C_8  and  C_27
    5  A    between atoms: C_8  and  C_31
    6  A    between atoms: C_9  and  C_43
    7  A    between atoms: C_11  and  O_20
    8  A    between atoms: C_11  and  N_35
    9  A    between atoms: C_11  and  O_41
   10  A    between atoms: C_14  and  C_29
   11  A    between atoms: C_16  and  N_35
   12  A    between atoms: O_17  and  C_25
   13  A    between atoms: N_18  and  C_31
   14  A    between atoms: C_21  and  C_29
   15  A    between atoms: N_22  and  C_28
   16  A    between atoms: C_27  and  C_34
   17  A    between atoms: C_28  and  C_30
   18  A    between atoms: C_29  and  C_31
                            x       y       z     vdW  Elec       q    Type
                         _______ _______ _______ _____ _____    ______ ____

>  <TORSDO>
F 18

$$$$
=
 OpenBabel10222422033D

 44 46  0  0  1  0  0  0  0  0999 V2000
  187.5300  178.6900  140.7630 C   0  0  0  0  0  2  0  0  0  0  0  0
  188.3240  177.7480  139.8760 C   0  0  0  0  0  2  0  0  0  0  0  0
  188.1140  175.8410  137.2880 C   0  0  1  0  0  3  0  0  0  0  0  0
  189.4750  176.4860  137.2170 C   0  0  0  0  0  3  0  0  0  0  0  0
  186.9600  176.8500  137.1400 C   0  0  0  0  0  2  0  0  0  0  0  0
  187.2640  178.2640  137.6720 C   0  0  2  0  0  3  0  0  0  0  0  0
  187.3340  179.1430  136.6000 O   0  0  0  0  0  1  0  0  0  0  0  0
  188.5500  178.3620  138.5070 C   0  0  2  0  0  3  0  0  0  0  0  0
  189.6850  177.6730  137.7970 C   0  0  0  0  0  3  0  0  0  0  0  0
  187.9610  174.6560  136.3240 C   0  0  2  0  0  3  0  0  0  0  0  0
  185.7070  173.6310  136.8870 C   0  0  0  0  0  0  0  0  0  0  0  0
  186.1570  173.1230  137.9460 O   0  0  0  0  0  0  0  0  0  0  0  0
  186.5480  174.4180  136.0420 N   0  0  0  0  0  2  0  0  0  0  0  0
  184.3430  173.4280  136.5310 N   0  0  0  0  0  0  0  0  0  0  0  0
  184.0100  172.3900  135.5760 C   0  0  0  0  0  2  0  0  0  0  0  0
  183.7120  171.1000  136.3030 C   0  0  0  0  0  1  0  0  0  0  0  0
  183.2550  174.1250  137.2290 C   0  0  0  0  0  3  0  0  0  0  0  0
  181.0340  173.5670  137.2040 C   0  0  0  0  0  1  0  0  0  0  0  0
  182.0600  174.1720  136.4620 O   0  0  0  0  0  0  0  0  0  0  0  0
  183.6570  175.3900  137.6900 O   0  0  0  0  0  0  0  0  0  0  0  0
  182.8900  175.6220  138.8340 C   0  0  0  0  0  1  0  0  0  0  0  0
  188.6290  173.3830  136.8450 C   0  0  0  0  0  2  0  0  0  0  0  0
  189.7870  172.9950  135.9490 C   0  0  0  0  0  1  0  0  0  0  0  0
  186.8990  177.9080  141.9180 C   0  0  1  0  0  3  0  0  0  0  0  0
  188.5000  176.6770  143.4900 C   0  0  0  0  0  0  0  0  0  0  0  0
  188.3200  175.5850  142.8920 O   0  0  0  0  0  0  0  0  0  0  0  0
  187.8080  177.8560  143.0590 N   0  0  0  0  0  2  0  0  0  0  0  0
  188.9270  176.9890  145.9190 C   0  0  0  0  0  3  0  0  0  0  0  0
  191.1620  176.8820  146.8350 C   0  0  0  0  0  0  0  0  0  0  0  0
  189.7880  177.0570  147.0130 C   0  0  0  0  0  3  0  0  0  0  0  0
  190.7990  176.5670  144.4520 C   0  0  0  0  0  3  0  0  0  0  0  0
  191.6690  176.6330  145.5480 C   0  0  0  0  0  3  0  0  0  0  0  0
  189.4160  176.7420  144.6320 C   0  0  0  0  0  0  0  0  0  0  0  0
  192.8100  175.8810  148.3850 C   0  0  0  0  0  1  0  0  0  0  0  0
  192.0070  176.9630  147.9520 O   0  0  0  0  0  0  0  0  0  0  0  0
  185.4950  178.3570  142.3710 C   0  0  1  0  0  3  0  0  0  0  0  0
  184.2030  179.5180  144.0600 O   0  0  0  0  0  0  0  0  0  0  0  0
  185.5020  179.3410  143.5460 C   0  0  1  0  0  3  0  0  0  0  0  0
  185.0430  178.6420  144.7650 C   0  0  1  0  0  3  0  0  0  0  0  0
  185.5790  179.3400  146.0010 C   0  0  0  0  0  2  0  0  0  0  0  0
  185.5780  178.3790  147.1650 C   0  0  0  0  0  2  0  0  0  0  0  0
  186.7600  178.6810  148.0630 C   0  0  0  0  0  1  0  0  0  0  0  0
  184.7820  178.9620  141.1980 C   0  0  0  0  0  3  0  0  0  0  0  0
  184.1900  178.2460  140.4040 O   0  0  0  0  0  0  0  0  0  0  0  0
  2  1  1  0  0  0  0
  3 10  1  6  0  0  0
  4  3  1  0  0  0  0
  4  9  2  0  0  0  0
  5  3  1  0  0  0  0
  5  6  1  0  0  0  0
  6  7  1  6  0  0  0
  6  8  1  0  0  0  0
  8  2  1  1  0  0  0
  9  8  1  0  0  0  0
 10 22  1  1  0  0  0
 11 12  2  0  0  0  0
 13 10  1  0  0  0  0
 13 11  1  0  0  0  0
 14 11  1  0  0  0  0
 14 17  1  0  0  0  0
 15 16  1  0  0  0  0
 15 14  1  0  0  0  0
 17 20  1  0  0  0  0
 19 18  1  0  0  0  0
 19 17  1  0  0  0  0
 20 21  1  0  0  0  0
 23 22  1  0  0  0  0
 24  1  1  6  0  0  0
 24 36  1  0  0  0  0
 24 27  1  0  0  0  0
 25 33  1  0  0  0  0
 26 25  2  0  0  0  0
 27 25  1  0  0  0  0
 28 30  1  0  0  0  0
 29 30  2  0  0  0  0
 29 35  1  0  0  0  0
 31 33  1  0  0  0  0
 31 32  2  0  0  0  0
 32 29  1  0  0  0  0
 33 28  2  0  0  0  0
 35 34  1  0  0  0  0
 36 43  1  6  0  0  0
 37 39  1  0  0  0  0
 38 36  1  6  0  0  0
 38 37  1  0  0  0  0
 38 39  1  0  0  0  0
 39 40  1  1  0  0  0
 40 41  1  0  0  0  0
 41 42  1  0  0  0  0
 44 43  2  0  0  0  0
M  END
>  <MODEL>
5

>  <REMARK>
 VINA RESULT:      -6.3      1.713      3.348
  Name = 
  18 active torsions:
  status: ('A' for Active; 'I' for Inactive)
    1  A    between atoms: C_1  and  C_28
    2  A    between atoms: C_6  and  C_26
    3  A    between atoms: C_6  and  C_37
    4  A    between atoms: C_8  and  C_27
    5  A    between atoms: C_8  and  C_31
    6  A    between atoms: C_9  and  C_43
    7  A    between atoms: C_11  and  O_20
    8  A    between atoms: C_11  and  N_35
    9  A    between atoms: C_11  and  O_41
   10  A    between atoms: C_14  and  C_29
   11  A    between atoms: C_16  and  N_35
   12  A    between atoms: O_17  and  C_25
   13  A    between atoms: N_18  and  C_31
   14  A    between atoms: C_21  and  C_29
   15  A    between atoms: N_22  and  C_28
   16  A    between atoms: C_27  and  C_34
   17  A    between atoms: C_28  and  C_30
   18  A    between atoms: C_29  and  C_31
                            x       y       z     vdW  Elec       q    Type
                         _______ _______ _______ _____ _____    ______ ____

>  <TORSDO>
F 18

$$$$
=
 OpenBabel10222422033D

 44 46  0  0  1  0  0  0  0  0999 V2000
  185.1890  178.3800  137.7780 C   0  0  0  0  0  2  0  0  0  0  0  0
  186.2710  177.3240  137.6450 C   0  0  0  0  0  2  0  0  0  0  0  0
  189.0960  176.8640  139.1230 C   0  0  1  0  0  3  0  0  0  0  0  0
  188.9530  178.3570  138.9600 C   0  0  0  0  0  3  0  0  0  0  0  0
  189.2180  176.1200  137.7810 C   0  0  0  0  0  2  0  0  0  0  0  0
  188.4770  176.7830  136.6030 C   0  0  2  0  0  3  0  0  0  0  0  0
  189.4130  177.2690  135.7000 O   0  0  0  0  0  1  0  0  0  0  0  0
  187.5190  177.9110  137.0140 C   0  0  2  0  0  3  0  0  0  0  0  0
  188.2050  178.8530  137.9690 C   0  0  0  0  0  3  0  0  0  0  0  0
  190.2180  176.4730  140.0960 C   0  0  2  0  0  3  0  0  0  0  0  0
  190.1630  176.3440  142.6310 C   0  0  0  0  0  0  0  0  0  0  0  0
  190.5930  175.1610  142.6210 O   0  0  0  0  0  0  0  0  0  0  0  0
  189.9690  177.0590  141.4100 N   0  0  0  0  0  2  0  0  0  0  0  0
  189.8760  176.9780  143.8730 N   0  0  0  0  0  0  0  0  0  0  0  0
  188.5070  177.0130  144.3490 C   0  0  0  0  0  2  0  0  0  0  0  0
  188.4510  177.6830  145.7010 C   0  0  0  0  0  1  0  0  0  0  0  0
  190.9470  177.4490  144.7610 C   0  0  0  0  0  3  0  0  0  0  0  0
  191.0120  179.6140  144.0150 C   0  0  0  0  0  1  0  0  0  0  0  0
  191.7650  178.4380  144.1490 O   0  0  0  0  0  0  0  0  0  0  0  0
  191.6890  176.3830  145.2960 O   0  0  0  0  0  0  0  0  0  0  0  0
  191.5640  176.5100  146.6810 C   0  0  0  0  0  1  0  0  0  0  0  0
  191.6040  176.8660  139.5840 C   0  0  0  0  0  2  0  0  0  0  0  0
  192.3410  177.6690  140.6360 C   0  0  0  0  0  1  0  0  0  0  0  0
  183.9040  177.7430  138.3130 C   0  0  1  0  0  3  0  0  0  0  0  0
  184.5650  178.8150  140.5410 C   0  0  0  0  0  0  0  0  0  0  0  0
  185.3260  179.6390  139.9710 O   0  0  0  0  0  0  0  0  0  0  0  0
  183.8490  177.8430  139.7680 N   0  0  0  0  0  2  0  0  0  0  0  0
  183.1440  178.7810  142.5800 C   0  0  0  0  0  3  0  0  0  0  0  0
  184.1040  178.9200  144.7950 C   0  0  0  0  0  0  0  0  0  0  0  0
  182.9860  178.8150  143.9640 C   0  0  0  0  0  3  0  0  0  0  0  0
  185.5390  178.9550  142.8340 C   0  0  0  0  0  3  0  0  0  0  0  0
  185.3870  178.9880  144.2250 C   0  0  0  0  0  3  0  0  0  0  0  0
  184.4130  178.8480  141.9980 C   0  0  0  0  0  0  0  0  0  0  0  0
  184.7660  178.2840  147.0920 C   0  0  0  0  0  1  0  0  0  0  0  0
  183.9160  178.9590  146.1840 O   0  0  0  0  0  0  0  0  0  0  0  0
  182.5790  178.2310  137.6910 C   0  0  1  0  0  3  0  0  0  0  0  0
  180.8030  177.3640  136.2920 O   0  0  0  0  0  0  0  0  0  0  0  0
  181.5510  177.1190  137.4590 C   0  0  1  0  0  3  0  0  0  0  0  0
  181.8540  176.4400  136.1810 C   0  0  1  0  0  3  0  0  0  0  0  0
  181.2920  175.0310  136.1910 C   0  0  0  0  0  2  0  0  0  0  0  0
  182.3270  174.0700  135.6560 C   0  0  0  0  0  2  0  0  0  0  0  0
  182.7150  173.0960  136.7490 C   0  0  0  0  0  1  0  0  0  0  0  0
  181.9970  179.2930  138.5750 C   0  0  0  0  0  3  0  0  0  0  0  0
  182.0020  180.4610  138.2160 O   0  0  0  0  0  0  0  0  0  0  0  0
  2  1  1  0  0  0  0
  3 10  1  1  0  0  0
  4  3  1  0  0  0  0
  5  3  1  0  0  0  0
  6  7  1  6  0  0  0
  6  8  1  0  0  0  0
  6  5  1  0  0  0  0
  8  2  1  1  0  0  0
  8  9  1  0  0  0  0
  9  4  2  0  0  0  0
 10 22  1  6  0  0  0
 10 13  1  0  0  0  0
 11 14  1  0  0  0  0
 12 11  2  0  0  0  0
 13 11  1  0  0  0  0
 14 15  1  0  0  0  0
 14 17  1  0  0  0  0
 15 16  1  0  0  0  0
 17 20  1  0  0  0  0
 18 19  1  0  0  0  0
 19 17  1  0  0  0  0
 20 21  1  0  0  0  0
 22 23  1  0  0  0  0
 24  1  1  6  0  0  0
 24 27  1  0  0  0  0
 25 33  1  0  0  0  0
 26 25  2  0  0  0  0
 27 25  1  0  0  0  0
 28 30  1  0  0  0  0
 29 35  1  0  0  0  0
 30 29  2  0  0  0  0
 31 32  2  0  0  0  0
 32 29  1  0  0  0  0
 33 28  2  0  0  0  0
 33 31  1  0  0  0  0
 35 34  1  0  0  0  0
 36 24  1  0  0  0  0
 36 43  1  1  0  0  0
 37 38  1  0  0  0  0
 38 36  1  6  0  0  0
 39 40  1  1  0  0  0
 39 37  1  0  0  0  0
 39 38  1  0  0  0  0
 41 40  1  0  0  0  0
 41 42  1  0  0  0  0
 44 43  2  0  0  0  0
M  END
>  <MODEL>
6

>  <REMARK>
 VINA RESULT:      -6.2      2.909      7.279
  Name = 
  18 active torsions:
  status: ('A' for Active; 'I' for Inactive)
    1  A    between atoms: C_1  and  C_28
    2  A    between atoms: C_6  and  C_26
    3  A    between atoms: C_6  and  C_37
    4  A    between atoms: C_8  and  C_27
    5  A    between atoms: C_8  and  C_31
    6  A    between atoms: C_9  and  C_43
    7  A    between atoms: C_11  and  O_20
    8  A    between atoms: C_11  and  N_35
    9  A    between atoms: C_11  and  O_41
   10  A    between atoms: C_14  and  C_29
   11  A    between atoms: C_16  and  N_35
   12  A    between atoms: O_17  and  C_25
   13  A    between atoms: N_18  and  C_31
   14  A    between atoms: C_21  and  C_29
   15  A    between atoms: N_22  and  C_28
   16  A    between atoms: C_27  and  C_34
   17  A    between atoms: C_28  and  C_30
   18  A    between atoms: C_29  and  C_31
                            x       y       z     vdW  Elec       q    Type
                         _______ _______ _______ _____ _____    ______ ____

>  <TORSDO>
F 18

$$$$
=
 OpenBabel10222422033D

 44 46  0  0  1  0  0  0  0  0999 V2000
  184.4350  178.2180  143.4870 C   0  0  0  0  0  2  0  0  0  0  0  0
  185.9420  178.3840  143.4050 C   0  0  0  0  0  2  0  0  0  0  0  0
  188.9170  177.2510  142.9140 C   0  0  1  0  0  3  0  0  0  0  0  0
  188.0900  176.0670  143.3470 C   0  0  0  0  0  3  0  0  0  0  0  0
  189.0680  178.3150  144.0170 C   0  0  0  0  0  2  0  0  0  0  0  0
  187.8750  178.4160  144.9870 C   0  0  2  0  0  3  0  0  0  0  0  0
  188.2760  177.9690  146.2400 O   0  0  0  0  0  1  0  0  0  0  0  0
  186.6270  177.6430  144.5370 C   0  0  2  0  0  3  0  0  0  0  0  0
  187.0050  176.2500  144.1080 C   0  0  0  0  0  3  0  0  0  0  0  0
  190.2750  176.8480  142.3210 C   0  0  2  0  0  3  0  0  0  0  0  0
  191.0810  177.0330  139.9210 C   0  0  0  0  0  0  0  0  0  0  0  0
  192.1070  177.6730  140.2710 O   0  0  0  0  0  0  0  0  0  0  0  0
  190.1380  176.5800  140.8930 N   0  0  0  0  0  2  0  0  0  0  0  0
  190.8650  176.7480  138.5420 N   0  0  0  0  0  0  0  0  0  0  0  0
  189.9760  177.6000  137.7770 C   0  0  0  0  0  2  0  0  0  0  0  0
  189.2140  178.5130  138.7080 C   0  0  0  0  0  1  0  0  0  0  0  0
  191.6450  175.7220  137.8380 C   0  0  0  0  0  3  0  0  0  0  0  0
  190.4270  173.9770  136.9900 C   0  0  0  0  0  1  0  0  0  0  0  0
  191.1730  174.4070  138.0980 O   0  0  0  0  0  0  0  0  0  0  0  0
  193.0230  175.8620  138.0690 O   0  0  0  0  0  0  0  0  0  0  0  0
  193.6400  175.1240  137.0570 C   0  0  0  0  0  1  0  0  0  0  0  0
  190.8980  175.6510  143.0380 C   0  0  0  0  0  2  0  0  0  0  0  0
  191.6380  176.1100  144.2780 C   0  0  0  0  0  1  0  0  0  0  0  0
  183.7730  178.8700  142.2710 C   0  0  1  0  0  3  0  0  0  0  0  0
  184.4170  178.6680  139.8020 C   0  0  0  0  0  0  0  0  0  0  0  0
  184.5030  179.9160  139.6750 O   0  0  0  0  0  0  0  0  0  0  0  0
  184.0420  178.0970  141.0630 N   0  0  0  0  0  2  0  0  0  0  0  0
  183.8660  176.7060  138.3790 C   0  0  0  0  0  3  0  0  0  0  0  0
  185.2240  176.1040  136.4710 C   0  0  0  0  0  0  0  0  0  0  0  0
  184.1220  175.8670  137.2960 C   0  0  0  0  0  3  0  0  0  0  0  0
  185.8060  178.0350  137.8290 C   0  0  0  0  0  3  0  0  0  0  0  0
  186.0680  177.1960  136.7380 C   0  0  0  0  0  3  0  0  0  0  0  0
  184.6960  177.7960  138.6580 C   0  0  0  0  0  0  0  0  0  0  0  0
  186.6030  174.4050  135.3180 C   0  0  0  0  0  1  0  0  0  0  0  0
  185.4630  175.2400  135.3930 O   0  0  0  0  0  0  0  0  0  0  0  0
  182.2650  179.1770  142.3860 C   0  0  1  0  0  3  0  0  0  0  0  0
  180.1120  179.0600  141.2860 O   0  0  0  0  0  0  0  0  0  0  0  0
  181.4080  178.5110  141.3050 C   0  0  1  0  0  3  0  0  0  0  0  0
  181.0060  179.5310  140.3120 C   0  0  1  0  0  3  0  0  0  0  0  0
  180.6980  178.8720  138.9810 C   0  0  0  0  0  2  0  0  0  0  0  0
  180.8010  179.8940  137.8740 C   0  0  0  0  0  2  0  0  0  0  0  0
  181.5180  181.1220  138.3960 C   0  0  0  0  0  1  0  0  0  0  0  0
  181.7930  178.7580  143.7470 C   0  0  0  0  0  3  0  0  0  0  0  0
  180.6050  178.5620  143.9510 O   0  0  0  0  0  0  0  0  0  0  0  0
  2  1  1  0  0  0  0
  3 10  1  1  0  0  0
  3  4  1  0  0  0  0
  3  5  1  0  0  0  0
  4  9  2  0  0  0  0
  5  6  1  0  0  0  0
  6  7  1  1  0  0  0
  8  2  1  6  0  0  0
  8  6  1  0  0  0  0
  9  8  1  0  0  0  0
 10 22  1  1  0  0  0
 11 12  2  0  0  0  0
 11 13  1  0  0  0  0
 13 10  1  0  0  0  0
 14 11  1  0  0  0  0
 15 14  1  0  0  0  0
 15 16  1  0  0  0  0
 17 20  1  0  0  0  0
 17 19  1  0  0  0  0
 17 14  1  0  0  0  0
 18 19  1  0  0  0  0
 21 20  1  0  0  0  0
 22 23  1  0  0  0  0
 24 36  1  0  0  0  0
 24  1  1  1  0  0  0
 25 27  1  0  0  0  0
 26 25  2  0  0  0  0
 27 24  1  0  0  0  0
 28 33  1  0  0  0  0
 29 32  2  0  0  0  0
 29 30  1  0  0  0  0
 30 28  2  0  0  0  0
 31 33  2  0  0  0  0
 32 31  1  0  0  0  0
 33 25  1  0  0  0  0
 34 35  1  0  0  0  0
 35 29  1  0  0  0  0
 36 43  1  1  0  0  0
 37 38  1  0  0  0  0
 38 36  1  1  0  0  0
 39 40  1  6  0  0  0
 39 37  1  0  0  0  0
 39 38  1  0  0  0  0
 41 42  1  0  0  0  0
 41 40  1  0  0  0  0
 43 44  2  0  0  0  0
M  END
>  <MODEL>
7

>  <REMARK>
 VINA RESULT:      -5.9      2.769      7.261
  Name = 
  18 active torsions:
  status: ('A' for Active; 'I' for Inactive)
    1  A    between atoms: C_1  and  C_28
    2  A    between atoms: C_6  and  C_26
    3  A    between atoms: C_6  and  C_37
    4  A    between atoms: C_8  and  C_27
    5  A    between atoms: C_8  and  C_31
    6  A    between atoms: C_9  and  C_43
    7  A    between atoms: C_11  and  O_20
    8  A    between atoms: C_11  and  N_35
    9  A    between atoms: C_11  and  O_41
   10  A    between atoms: C_14  and  C_29
   11  A    between atoms: C_16  and  N_35
   12  A    between atoms: O_17  and  C_25
   13  A    between atoms: N_18  and  C_31
   14  A    between atoms: C_21  and  C_29
   15  A    between atoms: N_22  and  C_28
   16  A    between atoms: C_27  and  C_34
   17  A    between atoms: C_28  and  C_30
   18  A    between atoms: C_29  and  C_31
                            x       y       z     vdW  Elec       q    Type
                         _______ _______ _______ _____ _____    ______ ____

>  <TORSDO>
F 18

$$$$
=
 OpenBabel10222422033D

 44 46  0  0  1  0  0  0  0  0999 V2000
  187.6580  177.6680  142.2560 C   0  0  0  0  0  2  0  0  0  0  0  0
  186.4380  177.5750  143.1540 C   0  0  0  0  0  2  0  0  0  0  0  0
  183.8310  177.9690  141.3040 C   0  0  1  0  0  3  0  0  0  0  0  0
  184.7640  179.1000  140.9500 C   0  0  0  0  0  3  0  0  0  0  0  0
  183.3130  178.0470  142.7520 C   0  0  0  0  0  2  0  0  0  0  0  0
  184.2870  178.6960  143.7540 C   0  0  2  0  0  3  0  0  0  0  0  0
  183.7620  179.9130  144.1680 O   0  0  0  0  0  1  0  0  0  0  0  0
  185.7090  178.9030  143.2100 C   0  0  2  0  0  3  0  0  0  0  0  0
  185.6550  179.5380  141.8450 C   0  0  0  0  0  3  0  0  0  0  0  0
  182.6840  177.8020  140.2970 C   0  0  2  0  0  3  0  0  0  0  0  0
  183.5210  176.8010  138.1190 C   0  0  0  0  0  0  0  0  0  0  0  0
  183.3550  175.6280  138.5460 O   0  0  0  0  0  0  0  0  0  0  0  0
  183.1930  177.9270  138.9340 N   0  0  0  0  0  2  0  0  0  0  0  0
  184.0330  177.0050  136.8060 N   0  0  0  0  0  0  0  0  0  0  0  0
  185.4450  177.2840  136.6340 C   0  0  0  0  0  2  0  0  0  0  0  0
  186.2270  175.9920  136.6370 C   0  0  0  0  0  1  0  0  0  0  0  0
  183.2060  176.7780  135.6140 C   0  0  0  0  0  3  0  0  0  0  0  0
  181.6920  178.3660  134.9560 C   0  0  0  0  0  1  0  0  0  0  0  0
  181.8740  177.2450  135.7800 O   0  0  0  0  0  0  0  0  0  0  0  0
  183.2650  175.4420  135.1830 O   0  0  0  0  0  0  0  0  0  0  0  0
  181.9790  174.9360  135.3840 C   0  0  0  0  0  1  0  0  0  0  0  0
  181.5400  178.7870  140.5380 C   0  0  0  0  0  2  0  0  0  0  0  0
  180.2500  178.0360  140.7980 C   0  0  0  0  0  1  0  0  0  0  0  0
  188.8410  176.9480  142.9080 C   0  0  1  0  0  3  0  0  0  0  0  0
  189.9750  177.2870  140.6390 C   0  0  0  0  0  0  0  0  0  0  0  0
  189.1330  178.1570  140.2970 O   0  0  0  0  0  0  0  0  0  0  0  0
  189.8670  176.6440  141.9160 N   0  0  0  0  0  2  0  0  0  0  0  0
  192.3830  177.2840  140.0260 C   0  0  0  0  0  3  0  0  0  0  0  0
  193.1690  176.2540  137.9840 C   0  0  0  0  0  0  0  0  0  0  0  0
  193.4280  176.9510  139.1660 C   0  0  0  0  0  3  0  0  0  0  0  0
  190.8020  176.2270  138.5370 C   0  0  0  0  0  3  0  0  0  0  0  0
  191.8490  175.8880  137.6700 C   0  0  0  0  0  3  0  0  0  0  0  0
  191.0640  176.9270  139.7280 C   0  0  0  0  0  0  0  0  0  0  0  0
  194.8190  174.6500  137.0780 C   0  0  0  0  0  1  0  0  0  0  0  0
  194.2380  175.9390  137.1330 O   0  0  0  0  0  0  0  0  0  0  0  0
  189.4710  177.6280  144.1400 C   0  0  1  0  0  3  0  0  0  0  0  0
  189.7030  177.6460  146.5510 O   0  0  0  0  0  0  0  0  0  0  0  0
  189.0240  177.0340  145.4800 C   0  0  1  0  0  3  0  0  0  0  0  0
  188.3980  178.0960  146.2950 C   0  0  1  0  0  3  0  0  0  0  0  0
  187.4450  177.4870  147.3060 C   0  0  0  0  0  2  0  0  0  0  0  0
  186.0340  177.9320  147.0030 C   0  0  0  0  0  2  0  0  0  0  0  0
  185.9820  179.4450  146.9840 C   0  0  0  0  0  1  0  0  0  0  0  0
  190.9640  177.5550  144.0180 C   0  0  0  0  0  3  0  0  0  0  0  0
  191.6330  178.5780  144.0390 O   0  0  0  0  0  0  0  0  0  0  0  0
  1  2  1  0  0  0  0
  3 10  1  6  0  0  0
  3  5  1  0  0  0  0
  4  3  1  0  0  0  0
  4  9  2  0  0  0  0
  5  6  1  0  0  0  0
  6  7  1  6  0  0  0
  8  2  1  6  0  0  0
  8  6  1  0  0  0  0
  9  8  1  0  0  0  0
 10 22  1  1  0  0  0
 11 12  2  0  0  0  0
 11 13  1  0  0  0  0
 13 10  1  0  0  0  0
 14 11  1  0  0  0  0
 15 16  1  0  0  0  0
 15 14  1  0  0  0  0
 17 19  1  0  0  0  0
 17 14  1  0  0  0  0
 18 19  1  0  0  0  0
 20 21  1  0  0  0  0
 20 17  1  0  0  0  0
 22 23  1  0  0  0  0
 24  1  1  6  0  0  0
 24 36  1  0  0  0  0
 25 27  1  0  0  0  0
 26 25  2  0  0  0  0
 27 24  1  0  0  0  0
 29 30  1  0  0  0  0
 30 28  2  0  0  0  0
 31 33  2  0  0  0  0
 32 29  2  0  0  0  0
 32 31  1  0  0  0  0
 33 28  1  0  0  0  0
 33 25  1  0  0  0  0
 34 35  1  0  0  0  0
 35 29  1  0  0  0  0
 36 43  1  6  0  0  0
 38 36  1  6  0  0  0
 38 39  1  0  0  0  0
 38 37  1  0  0  0  0
 39 37  1  0  0  0  0
 39 40  1  1  0  0  0
 41 40  1  0  0  0  0
 42 41  1  0  0  0  0
 43 44  2  0  0  0  0
M  END
>  <MODEL>
8

>  <REMARK>
 VINA RESULT:      -5.8      2.922      7.029
  Name = 
  18 active torsions:
  status: ('A' for Active; 'I' for Inactive)
    1  A    between atoms: C_1  and  C_28
    2  A    between atoms: C_6  and  C_26
    3  A    between atoms: C_6  and  C_37
    4  A    between atoms: C_8  and  C_27
    5  A    between atoms: C_8  and  C_31
    6  A    between atoms: C_9  and  C_43
    7  A    between atoms: C_11  and  O_20
    8  A    between atoms: C_11  and  N_35
    9  A    between atoms: C_11  and  O_41
   10  A    between atoms: C_14  and  C_29
   11  A    between atoms: C_16  and  N_35
   12  A    between atoms: O_17  and  C_25
   13  A    between atoms: N_18  and  C_31
   14  A    between atoms: C_21  and  C_29
   15  A    between atoms: N_22  and  C_28
   16  A    between atoms: C_27  and  C_34
   17  A    between atoms: C_28  and  C_30
   18  A    between atoms: C_29  and  C_31
                            x       y       z     vdW  Elec       q    Type
                         _______ _______ _______ _____ _____    ______ ____

>  <TORSDO>
F 18

$$$$
=
 OpenBabel10222422033D

 44 46  0  0  1  0  0  0  0  0999 V2000
  187.6600  177.6200  142.1560 C   0  0  0  0  0  2  0  0  0  0  0  0
  186.4090  177.4690  143.0030 C   0  0  0  0  0  2  0  0  0  0  0  0
  183.8790  178.0360  141.0920 C   0  0  1  0  0  3  0  0  0  0  0  0
  184.8340  179.1820  140.8660 C   0  0  0  0  0  3  0  0  0  0  0  0
  183.3060  178.0040  142.5210 C   0  0  0  0  0  2  0  0  0  0  0  0
  184.2450  178.5610  143.6080 C   0  0  2  0  0  3  0  0  0  0  0  0
  183.7120  179.7460  144.0980 O   0  0  0  0  0  1  0  0  0  0  0  0
  185.6880  178.7960  143.1380 C   0  0  2  0  0  3  0  0  0  0  0  0
  185.6920  179.5390  141.8270 C   0  0  0  0  0  3  0  0  0  0  0  0
  182.7710  177.9610  140.0320 C   0  0  2  0  0  3  0  0  0  0  0  0
  183.9140  177.0590  137.9510 C   0  0  0  0  0  0  0  0  0  0  0  0
  184.4880  178.1590  137.7400 O   0  0  0  0  0  0  0  0  0  0  0  0
  183.0590  176.8890  139.0830 N   0  0  0  0  0  2  0  0  0  0  0  0
  184.1270  175.9700  137.0590 N   0  0  0  0  0  0  0  0  0  0  0  0
  183.1490  175.7050  136.0230 C   0  0  0  0  0  2  0  0  0  0  0  0
  181.8870  175.1480  136.6400 C   0  0  0  0  0  1  0  0  0  0  0  0
  185.3880  175.2160  137.0540 C   0  0  0  0  0  3  0  0  0  0  0  0
  187.4410  176.1950  137.3170 C   0  0  0  0  0  1  0  0  0  0  0  0
  186.4330  175.9070  136.3840 O   0  0  0  0  0  0  0  0  0  0  0  0
  185.2100  173.9050  136.5810 O   0  0  0  0  0  0  0  0  0  0  0  0
  184.9760  173.1330  137.7210 C   0  0  0  0  0  1  0  0  0  0  0  0
  182.5650  179.2880  139.3010 C   0  0  0  0  0  2  0  0  0  0  0  0
  181.1390  179.3940  138.8010 C   0  0  0  0  0  1  0  0  0  0  0  0
  188.8260  176.8770  142.8130 C   0  0  1  0  0  3  0  0  0  0  0  0
  190.0690  177.2790  140.6120 C   0  0  0  0  0  0  0  0  0  0  0  0
  189.3450  178.2680  140.3300 O   0  0  0  0  0  0  0  0  0  0  0  0
  189.8450  176.5440  141.8220 N   0  0  0  0  0  2  0  0  0  0  0  0
  192.4580  177.2880  139.9280 C   0  0  0  0  0  3  0  0  0  0  0  0
  193.2140  176.1200  137.9490 C   0  0  0  0  0  0  0  0  0  0  0  0
  193.4880  176.9140  139.0650 C   0  0  0  0  0  3  0  0  0  0  0  0
  190.8650  176.0770  138.5750 C   0  0  0  0  0  3  0  0  0  0  0  0
  191.8950  175.6970  137.7060 C   0  0  0  0  0  3  0  0  0  0  0  0
  191.1420  176.8760  139.6990 C   0  0  0  0  0  0  0  0  0  0  0  0
  194.5180  176.4310  135.8710 C   0  0  0  0  0  1  0  0  0  0  0  0
  194.2660  175.7650  137.0940 O   0  0  0  0  0  0  0  0  0  0  0  0
  189.4720  177.5520  144.0400 C   0  0  1  0  0  3  0  0  0  0  0  0
  189.4440  177.8050  146.4480 O   0  0  0  0  0  0  0  0  0  0  0  0
  188.9720  177.0130  145.3840 C   0  0  1  0  0  3  0  0  0  0  0  0
  188.1250  178.0370  146.0310 C   0  0  1  0  0  3  0  0  0  0  0  0
  187.1630  177.3810  147.0040 C   0  0  0  0  0  2  0  0  0  0  0  0
  185.8070  178.0360  146.8930 C   0  0  0  0  0  2  0  0  0  0  0  0
  185.9850  179.5360  146.7850 C   0  0  0  0  0  1  0  0  0  0  0  0
  190.9610  177.3970  143.9450 C   0  0  0  0  0  3  0  0  0  0  0  0
  191.6870  178.3740  144.0420 O   0  0  0  0  0  0  0  0  0  0  0  0
  1  2  1  0  0  0  0
  3 10  1  6  0  0  0
  3  5  1  0  0  0  0
  4  3  1  0  0  0  0
  4  9  2  0  0  0  0
  5  6  1  0  0  0  0
  6  7  1  6  0  0  0
  8  2  1  6  0  0  0
  8  6  1  0  0  0  0
  9  8  1  0  0  0  0
 10 22  1  6  0  0  0
 11 13  1  0  0  0  0
 12 11  2  0  0  0  0
 13 10  1  0  0  0  0
 14 11  1  0  0  0  0
 15 16  1  0  0  0  0
 15 14  1  0  0  0  0
 17 14  1  0  0  0  0
 19 17  1  0  0  0  0
 19 18  1  0  0  0  0
 20 17  1  0  0  0  0
 20 21  1  0  0  0  0
 23 22  1  0  0  0  0
 24  1  1  6  0  0  0
 24 36  1  0  0  0  0
 25 27  1  0  0  0  0
 26 25  2  0  0  0  0
 27 24  1  0  0  0  0
 29 30  1  0  0  0  0
 30 28  2  0  0  0  0
 31 33  2  0  0  0  0
 32 29  2  0  0  0  0
 32 31  1  0  0  0  0
 33 28  1  0  0  0  0
 33 25  1  0  0  0  0
 34 35  1  0  0  0  0
 35 29  1  0  0  0  0
 36 43  1  6  0  0  0
 38 36  1  6  0  0  0
 38 39  1  0  0  0  0
 38 37  1  0  0  0  0
 39 37  1  0  0  0  0
 39 40  1  1  0  0  0
 41 40  1  0  0  0  0
 42 41  1  0  0  0  0
 43 44  2  0  0  0  0
M  END
>  <MODEL>
9

>  <REMARK>
 VINA RESULT:      -5.5      2.523      6.758
  Name = 
  18 active torsions:
  status: ('A' for Active; 'I' for Inactive)
    1  A    between atoms: C_1  and  C_28
    2  A    between atoms: C_6  and  C_26
    3  A    between atoms: C_6  and  C_37
    4  A    between atoms: C_8  and  C_27
    5  A    between atoms: C_8  and  C_31
    6  A    between atoms: C_9  and  C_43
    7  A    between atoms: C_11  and  O_20
    8  A    between atoms: C_11  and  N_35
    9  A    between atoms: C_11  and  O_41
   10  A    between atoms: C_14  and  C_29
   11  A    between atoms: C_16  and  N_35
   12  A    between atoms: O_17  and  C_25
   13  A    between atoms: N_18  and  C_31
   14  A    between atoms: C_21  and  C_29
   15  A    between atoms: N_22  and  C_28
   16  A    between atoms: C_27  and  C_34
   17  A    between atoms: C_28  and  C_30
   18  A    between atoms: C_29  and  C_31
                            x       y       z     vdW  Elec       q    Type
                         _______ _______ _______ _____ _____    ______ ____

>  <TORSDO>
F 18

$$$$
