=
 OpenBabel10232410083D

 65 71  0  0  1  0  0  0  0  0999 V2000
  188.7150  177.3820  139.7170 C   0  0  0  0  0  0  0  0  0  0  0  0
  185.2890  178.9810  140.2090 C   0  0  0  0  0  2  0  0  0  0  0  0
  186.8790  177.8630  141.8020 C   0  0  0  0  0  0  0  0  0  0  0  0
  183.7140  177.1250  139.6040 C   0  0  0  0  0  1  0  0  0  0  0  0
  187.3930  177.7800  139.4190 C   0  0  0  0  0  0  0  0  0  0  0  0
  184.7950  178.5110  137.8680 O   0  0  0  0  0  0  0  0  0  0  0  0
  184.2490  178.5040  139.1760 C   0  0  2  0  0  0  0  0  0  0  0  0
  188.1560  177.3620  142.0950 C   0  0  0  0  0  0  0  0  0  0  0  0
  186.9930  177.8240  138.0820 O   0  0  0  0  0  0  0  0  0  0  0  0
  189.0660  177.1530  141.0540 C   0  0  0  0  0  3  0  0  0  0  0  0
  185.6880  177.4470  137.6790 C   0  0  0  0  0  2  0  0  0  0  0  0
  186.5000  178.1110  140.4650 C   0  0  0  0  0  0  0  0  0  0  0  0
  192.2820  176.1960  137.6650 N   0  0  0  0  0  0  0  0  0  0  0  0
  189.7280  177.1460  138.6080 C   0  0  1  0  0  3  0  0  0  0  0  0
  191.0530  175.5110  137.2330 C   0  0  0  0  0  2  0  0  0  0  0  0
  191.0330  177.8480  138.9060 C   0  0  0  0  0  3  0  0  0  0  0  0
  192.2000  177.4080  138.4340 C   0  0  0  0  0  3  0  0  0  0  0  0
  189.9690  175.6540  138.2990 C   0  0  0  0  0  2  0  0  0  0  0  0
  193.6940  174.3100  136.9890 C   0  0  0  0  0  0  0  0  0  0  0  0
  194.1710  174.0170  135.6220 C   0  0  2  0  0  3  0  0  0  0  0  0
  193.5100  173.4610  137.8480 O   0  0  0  0  0  0  0  0  0  0  0  0
  194.1460  175.2890  134.8990 N   0  0  0  0  0  2  0  0  0  0  0  0
  193.9810  176.3630  135.8850 C   0  0  0  0  0  2  0  0  0  0  0  0
  193.6150  175.7570  137.2380 C   0  0  1  0  0  3  0  0  0  0  0  0
  193.6610  171.7280  134.7880 C   0  0  0  0  0  3  0  0  0  0  0  0
  193.3000  173.0140  134.9200 C   0  0  0  0  0  3  0  0  0  0  0  0
  194.9780  169.7120  135.8310 C   0  0  1  0  0  0  0  0  0  0  0  0
  196.8750  169.7040  137.6620 C   0  0  0  0  0  2  0  0  0  0  0  0
  198.1300  170.3670  135.5060 C   0  0  0  0  0  2  0  0  0  0  0  0
  196.9780  170.1300  134.5090 C   0  0  2  0  0  3  0  0  0  0  0  0
  196.0980  171.3570  134.3530 C   0  0  0  0  0  2  0  0  0  0  0  0
  196.6390  167.9230  135.5040 O   0  0  0  0  0  1  0  0  0  0  0  0
  197.7500  170.7380  136.9520 C   0  0  1  0  0  3  0  0  0  0  0  0
  194.9540  171.1840  135.3440 C   0  0  1  0  0  3  0  0  0  0  0  0
  196.0150  169.0350  134.9290 C   0  0  1  0  0  3  0  0  0  0  0  0
  195.3740  169.7460  137.3230 C   0  0  0  0  0  2  0  0  0  0  0  0
  197.2950  172.1840  137.1180 C   0  0  0  0  0  2  0  0  0  0  0  0
  198.4380  173.1410  136.8320 C   0  0  0  0  0  1  0  0  0  0  0  0
  193.3000  168.4450  134.3520 C   0  0  0  0  0  1  0  0  0  0  0  0
  193.6280  168.9730  135.7410 C   0  0  0  0  0  2  0  0  0  0  0  0
  183.3180  180.7470  138.6680 C   0  0  0  0  0  2  0  0  0  0  0  0
  183.1060  179.5210  139.1580 C   0  0  0  0  0  0  0  0  0  0  0  0
  181.6630  179.1530  139.4090 C   0  0  1  0  0  3  0  0  0  0  0  0
  181.0920  179.9850  140.3750 O   0  0  0  0  0  0  0  0  0  0  0  0
  180.5310  179.1140  141.3120 C   0  0  0  0  0  2  0  0  0  0  0  0
  181.8230  179.0830  143.3130 O   0  0  0  0  0  1  0  0  0  0  0  0
  180.1010  180.6090  143.2620 O   0  0  0  0  0  0  0  0  0  0  0  0
  180.8540  179.5890  142.6850 C   0  0  0  0  0  0  0  0  0  0  0  0
  180.8440  179.2180  138.1200 C   0  0  0  0  0  2  0  0  0  0  0  0
  180.5380  177.8950  137.6830 O   0  0  0  0  0  0  0  0  0  0  0  0
  181.0650  177.3600  136.5080 C   0  0  0  0  0  0  0  0  0  0  0  0
  182.1440  177.8180  136.0430 O   0  0  0  0  0  0  0  0  0  0  0  0
  180.4420  176.1600  135.8530 C   0  0  0  0  0  2  0  0  0  0  0  0
  180.7920  174.9560  136.5960 N   0  0  0  0  0  2  0  0  0  0  0  0
  181.2280  173.9710  135.6210 C   0  0  0  0  0  2  0  0  0  0  0  0
  184.2440  172.5990  137.3540 C   0  0  0  0  0  3  0  0  0  0  0  0
  184.1190  171.6770  136.1370 C   0  0  0  0  0  3  0  0  0  0  0  0
  183.1100  173.5600  137.1890 C   0  0  0  0  0  3  0  0  0  0  0  0
  182.4280  173.2330  136.1100 C   0  0  0  0  0  0  0  0  0  0  0  0
  182.9370  172.1160  135.4840 O   0  0  0  0  0  0  0  0  0  0  0  0
  185.2430  178.3830  143.7590 N   0  0  0  0  0  0  0  0  0  0  0  0
  185.9720  178.1550  142.8910 C   0  0  0  0  0  0  0  0  0  0  0  0
  188.5110  177.0900  143.4230 O   0  0  0  0  0  0  0  0  0  0  0  0
  188.8980  178.1020  144.3380 C   0  0  0  0  0  2  0  0  0  0  0  0
  189.4860  177.4600  145.5750 C   0  0  0  0  0  1  0  0  0  0  0  0
  1 10  1  0  0  0  0
  2 12  1  0  0  0  0
  3  8  1  0  0  0  0
  3 62  1  0  0  0  0
  5  1  2  0  0  0  0
  5 12  1  0  0  0  0
  6  7  1  0  0  0  0
  7  4  1  1  0  0  0
  7  2  1  0  0  0  0
  8 63  1  0  0  0  0
  9  5  1  0  0  0  0
 10  8  2  0  0  0  0
 11  6  1  0  0  0  0
 11  9  1  0  0  0  0
 12  3  2  0  0  0  0
 13 17  1  0  0  0  0
 14 16  1  0  0  0  0
 14  1  1  1  0  0  0
 15 13  1  0  0  0  0
 15 18  1  0  0  0  0
 17 16  2  0  0  0  0
 18 14  1  0  0  0  0
 19 24  1  0  0  0  0
 19 21  2  0  0  0  0
 20 26  1  6  0  0  0
 20 19  1  0  0  0  0
 22 20  1  0  0  0  0
 22 23  1  0  0  0  0
 24 23  1  6  0  0  0
 24 13  1  0  0  0  0
 25 26  2  0  0  0  0
 27 40  1  6  0  0  0
 27 36  1  0  0  0  0
 29 33  1  0  0  0  0
 30 31  1  1  0  0  0
 30 35  1  0  0  0  0
 30 29  1  0  0  0  0
 31 34  1  0  0  0  0
 33 37  1  6  0  0  0
 33 28  1  0  0  0  0
 34 25  1  6  0  0  0
 34 27  1  0  0  0  0
 35 32  1  1  0  0  0
 35 27  1  0  0  0  0
 36 28  1  0  0  0  0
 38 37  1  0  0  0  0
 39 40  1  0  0  0  0
 41 42  2  0  0  0  0
 42  7  1  0  0  0  0
 42 43  1  0  0  0  0
 43 49  1  6  0  0  0
 43 44  1  0  0  0  0
 44 45  1  0  0  0  0
 45 48  1  0  0  0  0
 48 47  2  0  0  0  0
 48 46  1  0  0  0  0
 50 49  1  0  0  0  0
 51 50  1  0  0  0  0
 52 51  2  0  0  0  0
 53 51  1  0  0  0  0
 53 54  1  0  0  0  0
 55 59  1  0  0  0  0
 55 54  1  0  0  0  0
 57 56  2  0  0  0  0
 58 56  1  0  0  0  0
 59 58  2  0  0  0  0
 60 59  1  0  0  0  0
 60 57  1  0  0  0  0
 62 61  3  0  0  0  0
 63 64  1  0  0  0  0
 64 65  1  0  0  0  0
M  END
>  <MODEL>
1

>  <REMARK>
 VINA RESULT:      -4.3      0.000      0.000
  Name = 
  21 active torsions:
  status: ('A' for Active; 'I' for Inactive)
    1  A    between atoms: C_1  and  C_53
    2  A    between atoms: C_3  and  C_7
    3  A    between atoms: C_4  and  C_61
    4  A    between atoms: N_5  and  C_38
    5  A    between atoms: C_6  and  C_51
    6  A    between atoms: C_9  and  C_26
    7  A    between atoms: C_19  and  C_41
    8  A    between atoms: C_19  and  O_50
    9  A    between atoms: C_21  and  O_55
   10  A    between atoms: C_21  and  C_60
   11  A    between atoms: C_25  and  C_35
   12  A    between atoms: C_27  and  C_47
   13  A    between atoms: C_27  and  O_55
   14  A    between atoms: N_28  and  C_48
   15  A    between atoms: N_28  and  C_60
   16  A    between atoms: C_33  and  O_58
   17  A    between atoms: C_35  and  C_47
   18  A    between atoms: C_44  and  C_52
   19  A    between atoms: C_46  and  O_58
   20  A    between atoms: C_47  and  O_50
   21  A    between atoms: C_48  and  C_57
                            x       y       z     vdW  Elec       q    Type
                         _______ _______ _______ _____ _____    ______ ____

>  <TORSDO>
F 21

$$$$
=
 OpenBabel10232410083D

 65 71  0  0  1  0  0  0  0  0999 V2000
  190.9180  177.3010  141.6920 C   0  0  0  0  0  0  0  0  0  0  0  0
  187.8960  178.5350  143.6620 C   0  0  0  0  0  2  0  0  0  0  0  0
  189.8980  177.1640  144.3170 C   0  0  0  0  0  0  0  0  0  0  0  0
  186.1620  176.7880  143.1800 C   0  0  0  0  0  1  0  0  0  0  0  0
  189.5840  177.6810  141.9540 C   0  0  0  0  0  0  0  0  0  0  0  0
  186.6350  178.6080  141.5760 O   0  0  0  0  0  0  0  0  0  0  0  0
  186.5590  178.2580  142.9480 C   0  0  2  0  0  0  0  0  0  0  0  0
  191.1860  176.6830  144.0400 C   0  0  0  0  0  0  0  0  0  0  0  0
  188.7610  178.0180  140.8770 O   0  0  0  0  0  0  0  0  0  0  0  0
  191.6900  176.7810  142.7390 C   0  0  0  0  0  3  0  0  0  0  0  0
  187.3860  177.6730  140.8500 C   0  0  0  0  0  2  0  0  0  0  0  0
  189.1010  177.7010  143.2840 C   0  0  0  0  0  0  0  0  0  0  0  0
  193.0550  176.3290  138.1110 N   0  0  0  0  0  0  0  0  0  0  0  0
  191.4950  177.3940  140.2890 C   0  0  1  0  0  3  0  0  0  0  0  0
  191.5990  176.4730  137.9520 C   0  0  0  0  0  2  0  0  0  0  0  0
  193.0040  177.3110  140.3150 C   0  0  0  0  0  3  0  0  0  0  0  0
  193.7080  176.8430  139.2840 C   0  0  0  0  0  3  0  0  0  0  0  0
  190.9090  176.3580  139.3090 C   0  0  0  0  0  2  0  0  0  0  0  0
  194.8370  174.7460  137.5350 C   0  0  0  0  0  0  0  0  0  0  0  0
  194.6780  173.4790  136.7920 C   0  0  2  0  0  3  0  0  0  0  0  0
  195.7130  174.9520  138.3610 O   0  0  0  0  0  0  0  0  0  0  0  0
  193.4550  173.6200  136.0010 N   0  0  0  0  0  2  0  0  0  0  0  0
  193.0750  175.0360  136.0100 C   0  0  0  0  0  2  0  0  0  0  0  0
  193.9090  175.7790  137.0510 C   0  0  1  0  0  3  0  0  0  0  0  0
  195.5120  171.3500  137.7770 C   0  0  0  0  0  3  0  0  0  0  0  0
  194.5600  172.2950  137.7090 C   0  0  0  0  0  3  0  0  0  0  0  0
  197.6900  170.1550  136.9310 C   0  0  1  0  0  0  0  0  0  0  0  0
  200.0840  171.1510  136.4590 C   0  0  0  0  0  2  0  0  0  0  0  0
  198.7410  171.8080  134.3560 C   0  0  0  0  0  2  0  0  0  0  0  0
  197.4620  171.0020  134.6610 C   0  0  2  0  0  3  0  0  0  0  0  0
  196.4820  171.7890  135.5120 C   0  0  0  0  0  2  0  0  0  0  0  0
  198.8590  169.0390  135.0730 O   0  0  0  0  0  1  0  0  0  0  0  0
  199.5840  172.2790  135.5550 C   0  0  1  0  0  3  0  0  0  0  0  0
  196.7770  171.4080  136.9560 C   0  0  1  0  0  3  0  0  0  0  0  0
  197.7080  169.7340  135.4580 C   0  0  1  0  0  3  0  0  0  0  0  0
  199.0660  170.5980  137.4720 C   0  0  0  0  0  2  0  0  0  0  0  0
  198.9930  173.4760  136.2920 C   0  0  0  0  0  2  0  0  0  0  0  0
  199.3560  174.7700  135.5880 C   0  0  0  0  0  1  0  0  0  0  0  0
  198.3410  168.2260  138.5000 C   0  0  0  0  0  1  0  0  0  0  0  0
  197.2150  168.9840  137.8150 C   0  0  0  0  0  2  0  0  0  0  0  0
  185.6750  180.5070  143.5100 C   0  0  0  0  0  2  0  0  0  0  0  0
  185.5020  179.1820  143.5570 C   0  0  0  0  0  0  0  0  0  0  0  0
  184.1300  178.7120  143.9760 C   0  0  1  0  0  3  0  0  0  0  0  0
  183.7440  179.2950  145.1850 O   0  0  0  0  0  0  0  0  0  0  0  0
  183.9410  178.2980  146.1430 C   0  0  0  0  0  2  0  0  0  0  0  0
  185.7050  179.5130  147.1870 O   0  0  0  0  0  1  0  0  0  0  0  0
  186.1570  177.3070  146.7160 O   0  0  0  0  0  0  0  0  0  0  0  0
  185.3150  178.4160  146.7030 C   0  0  0  0  0  0  0  0  0  0  0  0
  183.0890  179.0170  142.8980 C   0  0  0  0  0  2  0  0  0  0  0  0
  183.7460  179.2410  141.6520 O   0  0  0  0  0  0  0  0  0  0  0  0
  183.6160  178.3630  140.5750 C   0  0  0  0  0  0  0  0  0  0  0  0
  183.3430  177.1510  140.7880 O   0  0  0  0  0  0  0  0  0  0  0  0
  183.6680  178.8590  139.1580 C   0  0  0  0  0  2  0  0  0  0  0  0
  185.0060  178.6630  138.6160 N   0  0  0  0  0  2  0  0  0  0  0  0
  184.8880  177.6960  137.5380 C   0  0  0  0  0  2  0  0  0  0  0  0
  188.3340  177.4760  136.1060 C   0  0  0  0  0  3  0  0  0  0  0  0
  187.4850  177.7830  134.8680 C   0  0  0  0  0  3  0  0  0  0  0  0
  187.3390  177.4470  137.2210 C   0  0  0  0  0  3  0  0  0  0  0  0
  186.1360  177.6510  136.7230 C   0  0  0  0  0  0  0  0  0  0  0  0
  186.1520  177.8040  135.3540 O   0  0  0  0  0  0  0  0  0  0  0  0
  189.0280  177.1070  146.7700 N   0  0  0  0  0  0  0  0  0  0  0  0
  189.4160  177.1360  145.6810 C   0  0  0  0  0  0  0  0  0  0  0  0
  191.9580  176.1240  145.0670 O   0  0  0  0  0  0  0  0  0  0  0  0
  191.9290  176.6060  146.4010 C   0  0  0  0  0  2  0  0  0  0  0  0
  192.0830  175.4440  147.3560 C   0  0  0  0  0  1  0  0  0  0  0  0
  1  5  2  0  0  0  0
  1 10  1  0  0  0  0
  3 62  1  0  0  0  0
  5 12  1  0  0  0  0
  6  7  1  0  0  0  0
  7  4  1  1  0  0  0
  7 42  1  0  0  0  0
  7  2  1  0  0  0  0
  8  3  1  0  0  0  0
  8 63  1  0  0  0  0
  9  5  1  0  0  0  0
 10  8  2  0  0  0  0
 11  9  1  0  0  0  0
 11  6  1  0  0  0  0
 12  2  1  0  0  0  0
 12  3  2  0  0  0  0
 13 17  1  0  0  0  0
 14 16  1  0  0  0  0
 14  1  1  1  0  0  0
 15 13  1  0  0  0  0
 15 18  1  0  0  0  0
 17 16  2  0  0  0  0
 18 14  1  0  0  0  0
 19 21  2  0  0  0  0
 20 19  1  0  0  0  0
 20 26  1  1  0  0  0
 22 23  1  0  0  0  0
 22 20  1  0  0  0  0
 24 23  1  6  0  0  0
 24 19  1  0  0  0  0
 24 13  1  0  0  0  0
 26 25  2  0  0  0  0
 27 34  1  0  0  0  0
 27 36  1  0  0  0  0
 27 40  1  1  0  0  0
 28 36  1  0  0  0  0
 29 33  1  0  0  0  0
 30 29  1  1  0  0  0
 30 35  1  0  0  0  0
 30 31  1  0  0  0  0
 31 34  1  0  0  0  0
 33 37  1  1  0  0  0
 33 28  1  0  0  0  0
 34 25  1  1  0  0  0
 35 32  1  6  0  0  0
 35 27  1  0  0  0  0
 38 37  1  0  0  0  0
 40 39  1  0  0  0  0
 41 42  2  0  0  0  0
 42 43  1  0  0  0  0
 43 49  1  6  0  0  0
 43 44  1  0  0  0  0
 44 45  1  0  0  0  0
 45 48  1  0  0  0  0
 48 47  2  0  0  0  0
 48 46  1  0  0  0  0
 50 49  1  0  0  0  0
 51 52  2  0  0  0  0
 51 50  1  0  0  0  0
 53 51  1  0  0  0  0
 54 53  1  0  0  0  0
 55 54  1  0  0  0  0
 56 58  1  0  0  0  0
 57 60  1  0  0  0  0
 57 56  2  0  0  0  0
 59 58  2  0  0  0  0
 59 55  1  0  0  0  0
 60 59  1  0  0  0  0
 62 61  3  0  0  0  0
 63 64  1  0  0  0  0
 64 65  1  0  0  0  0
M  END
>  <MODEL>
2

>  <REMARK>
 VINA RESULT:      -4.2      2.879      4.184
  Name = 
  21 active torsions:
  status: ('A' for Active; 'I' for Inactive)
    1  A    between atoms: C_1  and  C_53
    2  A    between atoms: C_3  and  C_7
    3  A    between atoms: C_4  and  C_61
    4  A    between atoms: N_5  and  C_38
    5  A    between atoms: C_6  and  C_51
    6  A    between atoms: C_9  and  C_26
    7  A    between atoms: C_19  and  C_41
    8  A    between atoms: C_19  and  O_50
    9  A    between atoms: C_21  and  O_55
   10  A    between atoms: C_21  and  C_60
   11  A    between atoms: C_25  and  C_35
   12  A    between atoms: C_27  and  C_47
   13  A    between atoms: C_27  and  O_55
   14  A    between atoms: N_28  and  C_48
   15  A    between atoms: N_28  and  C_60
   16  A    between atoms: C_33  and  O_58
   17  A    between atoms: C_35  and  C_47
   18  A    between atoms: C_44  and  C_52
   19  A    between atoms: C_46  and  O_58
   20  A    between atoms: C_47  and  O_50
   21  A    between atoms: C_48  and  C_57
                            x       y       z     vdW  Elec       q    Type
                         _______ _______ _______ _____ _____    ______ ____

>  <TORSDO>
F 21

$$$$
=
 OpenBabel10232410083D

 65 71  0  0  1  0  0  0  0  0999 V2000
  186.2980  175.6220  137.1450 C   0  0  0  0  0  0  0  0  0  0  0  0
  183.0130  177.0960  138.4000 C   0  0  0  0  0  2  0  0  0  0  0  0
  183.5270  175.2370  136.7880 C   0  0  0  0  0  0  0  0  0  0  0  0
  182.6670  179.0630  136.8840 C   0  0  0  0  0  1  0  0  0  0  0  0
  185.3820  176.5920  137.6080 C   0  0  0  0  0  0  0  0  0  0  0  0
  184.1810  179.1910  138.8310 O   0  0  0  0  0  0  0  0  0  0  0  0
  182.9780  178.6340  138.3300 C   0  0  2  0  0  0  0  0  0  0  0  0
  184.4380  174.3270  136.2310 C   0  0  0  0  0  0  0  0  0  0  0  0
  185.8820  177.7820  138.1430 O   0  0  0  0  0  0  0  0  0  0  0  0
  185.8090  174.5160  136.4380 C   0  0  0  0  0  3  0  0  0  0  0  0
  185.2390  179.0260  137.9270 C   0  0  0  0  0  2  0  0  0  0  0  0
  183.9900  176.3560  137.5130 C   0  0  0  0  0  0  0  0  0  0  0  0
  190.5050  175.8180  136.3750 N   0  0  0  0  0  0  0  0  0  0  0  0
  187.7930  175.7980  137.3530 C   0  0  1  0  0  3  0  0  0  0  0  0
  189.8920  177.0780  136.8250 C   0  0  0  0  0  2  0  0  0  0  0  0
  188.5450  174.5420  136.9740 C   0  0  0  0  0  3  0  0  0  0  0  0
  189.8100  174.5730  136.5530 C   0  0  0  0  0  3  0  0  0  0  0  0
  188.3780  177.0250  136.6250 C   0  0  0  0  0  2  0  0  0  0  0  0
  192.7210  174.7830  136.5590 C   0  0  0  0  0  0  0  0  0  0  0  0
  193.3060  173.7940  135.6310 C   0  0  2  0  0  3  0  0  0  0  0  0
  193.0020  174.8620  137.7450 O   0  0  0  0  0  0  0  0  0  0  0  0
  192.6190  173.9770  134.3520 N   0  0  0  0  0  2  0  0  0  0  0  0
  191.8860  175.2460  134.4130 C   0  0  0  0  0  2  0  0  0  0  0  0
  191.8750  175.7570  135.8510 C   0  0  1  0  0  3  0  0  0  0  0  0
  194.1550  171.5430  136.2700 C   0  0  0  0  0  3  0  0  0  0  0  0
  193.1200  172.3840  136.1140 C   0  0  0  0  0  3  0  0  0  0  0  0
  196.6940  171.3870  136.9150 C   0  0  1  0  0  0  0  0  0  0  0  0
  198.5830  173.2210  136.7810 C   0  0  0  0  0  2  0  0  0  0  0  0
  198.3890  172.3860  134.3470 C   0  0  0  0  0  2  0  0  0  0  0  0
  197.4320  171.2050  134.6040 C   0  0  2  0  0  3  0  0  0  0  0  0
  195.9760  171.6300  134.5560 C   0  0  0  0  0  2  0  0  0  0  0  0
  198.9160  170.4600  136.3980 O   0  0  0  0  0  1  0  0  0  0  0  0
  198.3180  173.5790  135.3180 C   0  0  1  0  0  3  0  0  0  0  0  0
  195.5820  171.9480  135.9910 C   0  0  1  0  0  3  0  0  0  0  0  0
  197.5870  170.5720  135.9750 C   0  0  1  0  0  3  0  0  0  0  0  0
  197.3990  172.6050  137.5490 C   0  0  0  0  0  2  0  0  0  0  0  0
  197.1160  174.4900  135.0890 C   0  0  0  0  0  2  0  0  0  0  0  0
  197.3190  175.8260  135.7780 C   0  0  0  0  0  1  0  0  0  0  0  0
  196.2960  169.0090  137.8070 C   0  0  0  0  0  1  0  0  0  0  0  0
  196.1940  170.5030  138.0760 C   0  0  0  0  0  2  0  0  0  0  0  0
  181.3200  180.3250  139.0690 C   0  0  0  0  0  2  0  0  0  0  0  0
  181.8700  179.1220  139.2650 C   0  0  0  0  0  0  0  0  0  0  0  0
  181.1540  178.2230  140.2450 C   0  0  1  0  0  3  0  0  0  0  0  0
  180.9930  176.9370  139.7240 O   0  0  0  0  0  0  0  0  0  0  0  0
  179.9870  176.3590  140.5020 C   0  0  0  0  0  2  0  0  0  0  0  0
  180.1180  174.1760  141.4470 O   0  0  0  0  0  1  0  0  0  0  0  0
  180.0790  174.2660  139.1480 O   0  0  0  0  0  0  0  0  0  0  0  0
  180.0740  174.8770  140.4000 C   0  0  0  0  0  0  0  0  0  0  0  0
  181.9020  178.1530  141.5770 C   0  0  0  0  0  2  0  0  0  0  0  0
  183.1040  178.9170  141.4890 O   0  0  0  0  0  0  0  0  0  0  0  0
  184.2080  178.6630  142.3020 C   0  0  0  0  0  0  0  0  0  0  0  0
  185.2540  178.1710  141.7990 O   0  0  0  0  0  0  0  0  0  0  0  0
  184.2230  179.0830  143.7450 C   0  0  0  0  0  2  0  0  0  0  0  0
  185.1210  178.2190  144.5000 N   0  0  0  0  0  2  0  0  0  0  0  0
  185.8000  179.0610  145.4690 C   0  0  0  0  0  2  0  0  0  0  0  0
  188.1240  177.0680  147.6150 C   0  0  0  0  0  3  0  0  0  0  0  0
  189.0430  177.5280  146.4790 C   0  0  0  0  0  3  0  0  0  0  0  0
  186.8010  177.6730  147.2690 C   0  0  0  0  0  3  0  0  0  0  0  0
  186.9150  178.3220  146.1290 C   0  0  0  0  0  0  0  0  0  0  0  0
  188.1830  178.2320  145.5960 O   0  0  0  0  0  0  0  0  0  0  0  0
  180.9750  174.7990  136.5250 N   0  0  0  0  0  0  0  0  0  0  0  0
  182.1100  174.9900  136.6410 C   0  0  0  0  0  0  0  0  0  0  0  0
  183.9690  173.2360  135.4880 O   0  0  0  0  0  0  0  0  0  0  0  0
  184.7860  172.1280  135.1490 C   0  0  0  0  0  2  0  0  0  0  0  0
  184.4250  170.9520  136.0300 C   0  0  0  0  0  1  0  0  0  0  0  0
  1  5  1  0  0  0  0
  3 12  1  0  0  0  0
  5  9  1  0  0  0  0
  7  4  1  6  0  0  0
  7  2  1  0  0  0  0
  7  6  1  0  0  0  0
  7 42  1  0  0  0  0
  8 10  1  0  0  0  0
  8  3  2  0  0  0  0
 10  1  2  0  0  0  0
 11  9  1  0  0  0  0
 11  6  1  0  0  0  0
 12  5  2  0  0  0  0
 12  2  1  0  0  0  0
 13 17  1  0  0  0  0
 13 15  1  0  0  0  0
 14  1  1  6  0  0  0
 16 14  1  0  0  0  0
 17 16  2  0  0  0  0
 18 15  1  0  0  0  0
 18 14  1  0  0  0  0
 19 21  2  0  0  0  0
 20 26  1  1  0  0  0
 20 19  1  0  0  0  0
 22 23  1  0  0  0  0
 22 20  1  0  0  0  0
 24 23  1  6  0  0  0
 24 13  1  0  0  0  0
 24 19  1  0  0  0  0
 26 25  2  0  0  0  0
 27 36  1  0  0  0  0
 27 40  1  1  0  0  0
 28 36  1  0  0  0  0
 29 33  1  0  0  0  0
 30 29  1  1  0  0  0
 30 35  1  0  0  0  0
 31 30  1  0  0  0  0
 31 34  1  0  0  0  0
 33 37  1  1  0  0  0
 33 28  1  0  0  0  0
 34 25  1  1  0  0  0
 34 27  1  0  0  0  0
 35 32  1  1  0  0  0
 35 27  1  0  0  0  0
 37 38  1  0  0  0  0
 39 40  1  0  0  0  0
 41 42  2  0  0  0  0
 42 43  1  0  0  0  0
 43 49  1  1  0  0  0
 44 43  1  0  0  0  0
 44 45  1  0  0  0  0
 47 48  2  0  0  0  0
 48 45  1  0  0  0  0
 48 46  1  0  0  0  0
 50 49  1  0  0  0  0
 50 51  1  0  0  0  0
 51 53  1  0  0  0  0
 52 51  2  0  0  0  0
 53 54  1  0  0  0  0
 54 55  1  0  0  0  0
 55 59  1  0  0  0  0
 57 56  2  0  0  0  0
 58 56  1  0  0  0  0
 59 58  2  0  0  0  0
 60 59  1  0  0  0  0
 60 57  1  0  0  0  0
 61 62  3  0  0  0  0
 62  3  1  0  0  0  0
 63  8  1  0  0  0  0
 64 63  1  0  0  0  0
 64 65  1  0  0  0  0
M  END
>  <MODEL>
3

>  <REMARK>
 VINA RESULT:      -3.9      2.099      5.961
  Name = 
  21 active torsions:
  status: ('A' for Active; 'I' for Inactive)
    1  A    between atoms: C_1  and  C_53
    2  A    between atoms: C_3  and  C_7
    3  A    between atoms: C_4  and  C_61
    4  A    between atoms: N_5  and  C_38
    5  A    between atoms: C_6  and  C_51
    6  A    between atoms: C_9  and  C_26
    7  A    between atoms: C_19  and  C_41
    8  A    between atoms: C_19  and  O_50
    9  A    between atoms: C_21  and  O_55
   10  A    between atoms: C_21  and  C_60
   11  A    between atoms: C_25  and  C_35
   12  A    between atoms: C_27  and  C_47
   13  A    between atoms: C_27  and  O_55
   14  A    between atoms: N_28  and  C_48
   15  A    between atoms: N_28  and  C_60
   16  A    between atoms: C_33  and  O_58
   17  A    between atoms: C_35  and  C_47
   18  A    between atoms: C_44  and  C_52
   19  A    between atoms: C_46  and  O_58
   20  A    between atoms: C_47  and  O_50
   21  A    between atoms: C_48  and  C_57
                            x       y       z     vdW  Elec       q    Type
                         _______ _______ _______ _____ _____    ______ ____

>  <TORSDO>
F 21

$$$$
=
 OpenBabel10232410083D

 65 71  0  0  1  0  0  0  0  0999 V2000
  190.4620  177.2550  137.6860 C   0  0  0  0  0  0  0  0  0  0  0  0
  191.5510  177.8470  141.2920 C   0  0  0  0  0  2  0  0  0  0  0  0
  192.7450  176.8860  139.2990 C   0  0  0  0  0  0  0  0  0  0  0  0
  190.7100  175.8010  142.4730 C   0  0  0  0  0  1  0  0  0  0  0  0
  190.3620  177.3630  139.0900 C   0  0  0  0  0  0  0  0  0  0  0  0
  189.2120  177.6980  141.9640 O   0  0  0  0  0  0  0  0  0  0  0  0
  190.5320  177.3230  142.3210 C   0  0  2  0  0  0  0  0  0  0  0  0
  192.8230  176.6710  137.9160 C   0  0  0  0  0  0  0  0  0  0  0  0
  189.0990  177.5470  139.6580 O   0  0  0  0  0  0  0  0  0  0  0  0
  191.6900  176.8830  137.1240 C   0  0  0  0  0  3  0  0  0  0  0  0
  188.7370  176.9390  140.8860 C   0  0  0  0  0  2  0  0  0  0  0  0
  191.5230  177.2700  139.8930 C   0  0  0  0  0  0  0  0  0  0  0  0
  186.8610  176.5430  135.4810 N   0  0  0  0  0  0  0  0  0  0  0  0
  189.2490  177.4790  136.7970 C   0  0  1  0  0  3  0  0  0  0  0  0
  186.7460  177.5320  136.5650 C   0  0  0  0  0  2  0  0  0  0  0  0
  189.2720  176.5510  135.6030 C   0  0  0  0  0  3  0  0  0  0  0  0
  188.1550  176.1550  134.9910 C   0  0  0  0  0  3  0  0  0  0  0  0
  187.9060  177.3720  137.5460 C   0  0  0  0  0  2  0  0  0  0  0  0
  185.2810  174.6810  135.2590 C   0  0  0  0  0  0  0  0  0  0  0  0
  183.8720  174.6690  135.7030 C   0  0  2  0  0  3  0  0  0  0  0  0
  185.9850  173.6850  135.1810 O   0  0  0  0  0  0  0  0  0  0  0  0
  183.4480  176.0690  135.7540 N   0  0  0  0  0  2  0  0  0  0  0  0
  184.4540  176.8700  135.0490 C   0  0  0  0  0  2  0  0  0  0  0  0
  185.6870  176.0110  134.7790 C   0  0  1  0  0  3  0  0  0  0  0  0
  183.0520  174.6490  138.0530 C   0  0  0  0  0  3  0  0  0  0  0  0
  183.7090  174.0360  137.0550 C   0  0  0  0  0  3  0  0  0  0  0  0
  180.9950  176.2200  138.4840 C   0  0  1  0  0  0  0  0  0  0  0  0
  179.9840  178.1260  136.9690 C   0  0  0  0  0  2  0  0  0  0  0  0
  182.0220  179.2610  138.0740 C   0  0  0  0  0  2  0  0  0  0  0  0
  182.3800  178.1350  139.0640 C   0  0  2  0  0  3  0  0  0  0  0  0
  183.3090  177.1060  138.4460 C   0  0  0  0  0  2  0  0  0  0  0  0
  180.0420  178.0870  139.7760 O   0  0  0  0  0  1  0  0  0  0  0  0
  181.3120  178.8560  136.7680 C   0  0  1  0  0  3  0  0  0  0  0  0
  182.4130  176.0060  137.8940 C   0  0  1  0  0  3  0  0  0  0  0  0
  181.1870  177.3210  139.5310 C   0  0  1  0  0  3  0  0  0  0  0  0
  180.0830  176.6280  137.3070 C   0  0  0  0  0  2  0  0  0  0  0  0
  182.2380  178.2260  135.7330 C   0  0  0  0  0  2  0  0  0  0  0  0
  181.6300  178.3150  134.3460 C   0  0  0  0  0  1  0  0  0  0  0  0
  179.9830  175.1550  140.5940 C   0  0  0  0  0  1  0  0  0  0  0  0
  180.3630  174.9720  139.1320 C   0  0  0  0  0  2  0  0  0  0  0  0
  190.8840  179.3470  143.7110 C   0  0  0  0  0  2  0  0  0  0  0  0
  190.8160  178.0130  143.6570 C   0  0  0  0  0  0  0  0  0  0  0  0
  190.7610  177.3020  144.9880 C   0  0  1  0  0  3  0  0  0  0  0  0
  192.0190  177.2730  145.5960 O   0  0  0  0  0  0  0  0  0  0  0  0
  191.7640  176.9530  146.9310 C   0  0  0  0  0  2  0  0  0  0  0  0
  192.6090  174.8270  146.2650 O   0  0  0  0  0  0  0  0  0  0  0  0
  192.3820  175.1440  148.5320 O   0  0  0  0  0  1  0  0  0  0  0  0
  192.2670  175.5810  147.2160 C   0  0  0  0  0  0  0  0  0  0  0  0
  189.7480  177.9610  145.9240 C   0  0  0  0  0  2  0  0  0  0  0  0
  188.6330  177.0910  146.1070 O   0  0  0  0  0  0  0  0  0  0  0  0
  187.3190  177.5130  145.9040 C   0  0  0  0  0  0  0  0  0  0  0  0
  186.4790  177.4100  146.8390 O   0  0  0  0  0  0  0  0  0  0  0  0
  186.9130  178.2100  144.6370 C   0  0  0  0  0  2  0  0  0  0  0  0
  185.7430  177.5540  144.0670 N   0  0  0  0  0  2  0  0  0  0  0  0
  185.2280  178.4340  143.0340 C   0  0  0  0  0  2  0  0  0  0  0  0
  181.5770  179.2100  142.8110 C   0  0  0  0  0  3  0  0  0  0  0  0
  181.7370  178.8130  144.2830 C   0  0  0  0  0  3  0  0  0  0  0  0
  182.9610  179.0930  142.2590 C   0  0  0  0  0  3  0  0  0  0  0  0
  183.7650  178.6660  143.2110 C   0  0  0  0  0  0  0  0  0  0  0  0
  183.1010  178.4370  144.3970 O   0  0  0  0  0  0  0  0  0  0  0  0
  194.8950  176.6270  140.7430 N   0  0  0  0  0  0  0  0  0  0  0  0
  193.9410  176.7460  140.1000 C   0  0  0  0  0  0  0  0  0  0  0  0
  194.0330  176.2610  137.3400 O   0  0  0  0  0  0  0  0  0  0  0  0
  194.2080  174.9860  136.7440 C   0  0  0  0  0  2  0  0  0  0  0  0
  193.5230  173.9380  137.5920 C   0  0  0  0  0  1  0  0  0  0  0  0
  1  5  1  0  0  0  0
  2  7  1  0  0  0  0
  3 12  1  0  0  0  0
  3 62  1  0  0  0  0
  5  9  1  0  0  0  0
  5 12  2  0  0  0  0
  6  7  1  0  0  0  0
  7  4  1  1  0  0  0
  7 42  1  0  0  0  0
  8  3  2  0  0  0  0
  9 11  1  0  0  0  0
 10  1  2  0  0  0  0
 10  8  1  0  0  0  0
 11  6  1  0  0  0  0
 12  2  1  0  0  0  0
 13 15  1  0  0  0  0
 14 18  1  0  0  0  0
 14  1  1  1  0  0  0
 15 18  1  0  0  0  0
 16 14  1  0  0  0  0
 17 13  1  0  0  0  0
 17 16  2  0  0  0  0
 19 20  1  0  0  0  0
 20 22  1  0  0  0  0
 20 26  1  1  0  0  0
 21 19  2  0  0  0  0
 23 22  1  0  0  0  0
 24 23  1  1  0  0  0
 24 19  1  0  0  0  0
 24 13  1  0  0  0  0
 26 25  2  0  0  0  0
 27 40  1  1  0  0  0
 27 35  1  0  0  0  0
 28 36  1  0  0  0  0
 30 29  1  6  0  0  0
 30 35  1  0  0  0  0
 31 30  1  0  0  0  0
 33 37  1  1  0  0  0
 33 28  1  0  0  0  0
 33 29  1  0  0  0  0
 34 25  1  1  0  0  0
 34 31  1  0  0  0  0
 34 27  1  0  0  0  0
 35 32  1  6  0  0  0
 36 27  1  0  0  0  0
 38 37  1  0  0  0  0
 40 39  1  0  0  0  0
 42 41  2  0  0  0  0
 42 43  1  0  0  0  0
 43 44  1  0  0  0  0
 43 49  1  1  0  0  0
 44 45  1  0  0  0  0
 45 48  1  0  0  0  0
 46 48  2  0  0  0  0
 48 47  1  0  0  0  0
 49 50  1  0  0  0  0
 51 50  1  0  0  0  0
 51 52  2  0  0  0  0
 53 51  1  0  0  0  0
 54 53  1  0  0  0  0
 55 59  1  0  0  0  0
 55 54  1  0  0  0  0
 56 57  2  0  0  0  0
 57 60  1  0  0  0  0
 58 56  1  0  0  0  0
 58 59  2  0  0  0  0
 59 60  1  0  0  0  0
 62 61  3  0  0  0  0
 63  8  1  0  0  0  0
 64 63  1  0  0  0  0
 64 65  1  0  0  0  0
M  END
>  <MODEL>
4

>  <REMARK>
 VINA RESULT:      -3.9      3.311     11.176
  Name = 
  21 active torsions:
  status: ('A' for Active; 'I' for Inactive)
    1  A    between atoms: C_1  and  C_53
    2  A    between atoms: C_3  and  C_7
    3  A    between atoms: C_4  and  C_61
    4  A    between atoms: N_5  and  C_38
    5  A    between atoms: C_6  and  C_51
    6  A    between atoms: C_9  and  C_26
    7  A    between atoms: C_19  and  C_41
    8  A    between atoms: C_19  and  O_50
    9  A    between atoms: C_21  and  O_55
   10  A    between atoms: C_21  and  C_60
   11  A    between atoms: C_25  and  C_35
   12  A    between atoms: C_27  and  C_47
   13  A    between atoms: C_27  and  O_55
   14  A    between atoms: N_28  and  C_48
   15  A    between atoms: N_28  and  C_60
   16  A    between atoms: C_33  and  O_58
   17  A    between atoms: C_35  and  C_47
   18  A    between atoms: C_44  and  C_52
   19  A    between atoms: C_46  and  O_58
   20  A    between atoms: C_47  and  O_50
   21  A    between atoms: C_48  and  C_57
                            x       y       z     vdW  Elec       q    Type
                         _______ _______ _______ _____ _____    ______ ____

>  <TORSDO>
F 21

$$$$
=
 OpenBabel10232410083D

 65 71  0  0  1  0  0  0  0  0999 V2000
  186.2640  174.9050  136.3530 C   0  0  0  0  0  0  0  0  0  0  0  0
  183.3420  176.4780  138.2290 C   0  0  0  0  0  2  0  0  0  0  0  0
  183.5070  174.4600  136.7400 C   0  0  0  0  0  0  0  0  0  0  0  0
  182.5640  178.2670  136.6530 C   0  0  0  0  0  1  0  0  0  0  0  0
  185.4580  175.9110  136.9280 C   0  0  0  0  0  0  0  0  0  0  0  0
  184.5070  178.6180  138.1380 O   0  0  0  0  0  0  0  0  0  0  0  0
  183.2370  178.0000  138.0120 C   0  0  2  0  0  0  0  0  0  0  0  0
  184.2830  173.5030  136.0700 C   0  0  0  0  0  0  0  0  0  0  0  0
  186.0330  177.1560  137.1960 O   0  0  0  0  0  0  0  0  0  0  0  0
  185.6550  173.7240  135.9080 C   0  0  0  0  0  3  0  0  0  0  0  0
  185.3140  178.3640  137.0200 C   0  0  0  0  0  2  0  0  0  0  0  0
  184.0950  175.6550  137.2070 C   0  0  0  0  0  0  0  0  0  0  0  0
  190.3080  174.3390  135.0620 N   0  0  0  0  0  0  0  0  0  0  0  0
  187.7580  175.1130  136.1620 C   0  0  1  0  0  3  0  0  0  0  0  0
  189.6710  175.5820  134.5990 C   0  0  0  0  0  2  0  0  0  0  0  0
  188.5410  173.9170  136.6530 C   0  0  0  0  0  3  0  0  0  0  0  0
  189.7340  173.5950  136.1500 C   0  0  0  0  0  3  0  0  0  0  0  0
  188.1520  175.4680  134.7140 C   0  0  0  0  0  2  0  0  0  0  0  0
  192.7480  174.5720  135.1300 C   0  0  0  0  0  0  0  0  0  0  0  0
  193.7030  173.6240  135.7400 C   0  0  2  0  0  3  0  0  0  0  0  0
  192.9470  175.7720  135.0210 O   0  0  0  0  0  0  0  0  0  0  0  0
  193.0280  172.3250  135.7670 N   0  0  0  0  0  2  0  0  0  0  0  0
  191.8440  172.4150  134.9050 C   0  0  0  0  0  2  0  0  0  0  0  0
  191.5970  173.8760  134.5350 C   0  0  1  0  0  3  0  0  0  0  0  0
  195.2450  173.6300  137.6930 C   0  0  0  0  0  3  0  0  0  0  0  0
  194.0910  174.0270  137.1340 C   0  0  0  0  0  3  0  0  0  0  0  0
  197.4860  173.4550  136.3390 C   0  0  1  0  0  0  0  0  0  0  0  0
  198.1300  171.8540  134.3460 C   0  0  0  0  0  2  0  0  0  0  0  0
  198.4100  170.3560  136.4290 C   0  0  0  0  0  2  0  0  0  0  0  0
  198.2150  171.4460  137.5010 C   0  0  2  0  0  3  0  0  0  0  0  0
  196.7530  171.6400  137.8590 C   0  0  0  0  0  2  0  0  0  0  0  0
  199.8650  172.8200  136.3310 O   0  0  0  0  0  1  0  0  0  0  0  0
  197.7200  170.5700  135.0690 C   0  0  1  0  0  3  0  0  0  0  0  0
  196.2470  172.7660  136.9680 C   0  0  1  0  0  3  0  0  0  0  0  0
  198.6760  172.8260  137.0690 C   0  0  1  0  0  3  0  0  0  0  0  0
  197.4440  173.1460  134.8270 C   0  0  0  0  0  2  0  0  0  0  0  0
  196.2190  170.2970  135.0890 C   0  0  0  0  0  2  0  0  0  0  0  0
  195.9370  168.8930  135.5890 C   0  0  0  0  0  1  0  0  0  0  0  0
  196.8950  175.7380  135.3150 C   0  0  0  0  0  1  0  0  0  0  0  0
  197.5220  174.9900  136.4820 C   0  0  0  0  0  2  0  0  0  0  0  0
  181.8430  179.7940  139.0060 C   0  0  0  0  0  2  0  0  0  0  0  0
  182.3780  178.5760  139.1390 C   0  0  0  0  0  0  0  0  0  0  0  0
  181.8620  177.7530  140.2950 C   0  0  1  0  0  3  0  0  0  0  0  0
  181.2460  176.5830  139.8450 O   0  0  0  0  0  0  0  0  0  0  0  0
  180.1810  176.3770  140.7240 C   0  0  0  0  0  2  0  0  0  0  0  0
  179.9840  174.5230  142.2070 O   0  0  0  0  0  1  0  0  0  0  0  0
  179.9860  174.0080  139.9650 O   0  0  0  0  0  0  0  0  0  0  0  0
  180.0540  174.9220  141.0140 C   0  0  0  0  0  0  0  0  0  0  0  0
  182.9860  177.4050  141.2700 C   0  0  0  0  0  2  0  0  0  0  0  0
  183.4260  178.5900  141.9310 O   0  0  0  0  0  0  0  0  0  0  0  0
  183.0520  178.8940  143.2400 C   0  0  0  0  0  0  0  0  0  0  0  0
  181.8290  178.9830  143.5340 O   0  0  0  0  0  0  0  0  0  0  0  0
  184.0720  178.9910  144.3380 C   0  0  0  0  0  2  0  0  0  0  0  0
  185.4130  178.9600  143.7690 N   0  0  0  0  0  2  0  0  0  0  0  0
  185.9160  177.6090  143.9490 C   0  0  0  0  0  2  0  0  0  0  0  0
  187.9760  177.7050  147.0670 C   0  0  0  0  0  3  0  0  0  0  0  0
  189.0070  177.3030  146.0070 C   0  0  0  0  0  3  0  0  0  0  0  0
  186.7090  177.8610  146.2890 C   0  0  0  0  0  3  0  0  0  0  0  0
  186.9440  177.5620  145.0280 C   0  0  0  0  0  0  0  0  0  0  0  0
  188.2520  177.1820  144.8120 O   0  0  0  0  0  0  0  0  0  0  0  0
  180.9880  173.9640  137.1730 N   0  0  0  0  0  0  0  0  0  0  0  0
  182.1060  174.1870  136.9770 C   0  0  0  0  0  0  0  0  0  0  0  0
  183.6830  172.3340  135.5830 O   0  0  0  0  0  0  0  0  0  0  0  0
  184.2800  171.0540  135.7080 C   0  0  0  0  0  2  0  0  0  0  0  0
  185.4050  170.9260  134.7060 C   0  0  0  0  0  1  0  0  0  0  0  0
  1  5  1  0  0  0  0
  3 62  1  0  0  0  0
  3 12  1  0  0  0  0
  5  9  1  0  0  0  0
  5 12  2  0  0  0  0
  7  4  1  6  0  0  0
  7  6  1  0  0  0  0
  7  2  1  0  0  0  0
  7 42  1  0  0  0  0
  8  3  2  0  0  0  0
 10  8  1  0  0  0  0
 10  1  2  0  0  0  0
 11  9  1  0  0  0  0
 11  6  1  0  0  0  0
 12  2  1  0  0  0  0
 13 17  1  0  0  0  0
 14  1  1  6  0  0  0
 14 16  1  0  0  0  0
 15 18  1  0  0  0  0
 15 13  1  0  0  0  0
 17 16  2  0  0  0  0
 18 14  1  0  0  0  0
 19 20  1  0  0  0  0
 20 22  1  0  0  0  0
 20 26  1  1  0  0  0
 21 19  2  0  0  0  0
 23 22  1  0  0  0  0
 24 23  1  1  0  0  0
 24 13  1  0  0  0  0
 24 19  1  0  0  0  0
 26 25  2  0  0  0  0
 27 40  1  1  0  0  0
 27 34  1  0  0  0  0
 27 35  1  0  0  0  0
 28 36  1  0  0  0  0
 28 33  1  0  0  0  0
 30 29  1  6  0  0  0
 30 31  1  0  0  0  0
 33 37  1  1  0  0  0
 33 29  1  0  0  0  0
 34 25  1  1  0  0  0
 34 31  1  0  0  0  0
 35 32  1  6  0  0  0
 35 30  1  0  0  0  0
 36 27  1  0  0  0  0
 37 38  1  0  0  0  0
 39 40  1  0  0  0  0
 41 42  2  0  0  0  0
 42 43  1  0  0  0  0
 43 49  1  1  0  0  0
 44 43  1  0  0  0  0
 44 45  1  0  0  0  0
 45 48  1  0  0  0  0
 47 48  2  0  0  0  0
 48 46  1  0  0  0  0
 49 50  1  0  0  0  0
 50 51  1  0  0  0  0
 51 52  2  0  0  0  0
 51 53  1  0  0  0  0
 54 55  1  0  0  0  0
 54 53  1  0  0  0  0
 55 59  1  0  0  0  0
 57 56  2  0  0  0  0
 58 56  1  0  0  0  0
 59 58  2  0  0  0  0
 60 59  1  0  0  0  0
 60 57  1  0  0  0  0
 62 61  3  0  0  0  0
 63 64  1  0  0  0  0
 63  8  1  0  0  0  0
 65 64  1  0  0  0  0
M  END
>  <MODEL>
5

>  <REMARK>
 VINA RESULT:      -3.8      2.361      6.287
  Name = 
  21 active torsions:
  status: ('A' for Active; 'I' for Inactive)
    1  A    between atoms: C_1  and  C_53
    2  A    between atoms: C_3  and  C_7
    3  A    between atoms: C_4  and  C_61
    4  A    between atoms: N_5  and  C_38
    5  A    between atoms: C_6  and  C_51
    6  A    between atoms: C_9  and  C_26
    7  A    between atoms: C_19  and  C_41
    8  A    between atoms: C_19  and  O_50
    9  A    between atoms: C_21  and  O_55
   10  A    between atoms: C_21  and  C_60
   11  A    between atoms: C_25  and  C_35
   12  A    between atoms: C_27  and  C_47
   13  A    between atoms: C_27  and  O_55
   14  A    between atoms: N_28  and  C_48
   15  A    between atoms: N_28  and  C_60
   16  A    between atoms: C_33  and  O_58
   17  A    between atoms: C_35  and  C_47
   18  A    between atoms: C_44  and  C_52
   19  A    between atoms: C_46  and  O_58
   20  A    between atoms: C_47  and  O_50
   21  A    between atoms: C_48  and  C_57
                            x       y       z     vdW  Elec       q    Type
                         _______ _______ _______ _____ _____    ______ ____

>  <TORSDO>
F 21

$$$$
=
 OpenBabel10232410083D

 65 71  0  0  1  0  0  0  0  0999 V2000
  188.4830  177.3130  141.5890 C   0  0  0  0  0  0  0  0  0  0  0  0
  185.2030  179.1020  140.8320 C   0  0  0  0  0  2  0  0  0  0  0  0
  186.1800  178.1890  142.9600 C   0  0  0  0  0  0  0  0  0  0  0  0
  183.7130  177.2380  140.0620 C   0  0  0  0  0  1  0  0  0  0  0  0
  187.3370  177.7100  140.8670 C   0  0  0  0  0  0  0  0  0  0  0  0
  185.3510  178.2870  138.5390 O   0  0  0  0  0  0  0  0  0  0  0  0
  184.4600  178.5090  139.6190 C   0  0  2  0  0  0  0  0  0  0  0  0
  187.2760  177.6920  143.6790 C   0  0  0  0  0  0  0  0  0  0  0  0
  187.3350  177.5570  139.4780 O   0  0  0  0  0  0  0  0  0  0  0  0
  188.4230  177.2850  142.9880 C   0  0  0  0  0  3  0  0  0  0  0  0
  186.1690  177.1730  138.7700 C   0  0  0  0  0  2  0  0  0  0  0  0
  186.2160  178.2370  141.5500 C   0  0  0  0  0  0  0  0  0  0  0  0
  191.4020  176.7080  138.5150 N   0  0  0  0  0  0  0  0  0  0  0  0
  189.7440  176.8650  140.8680 C   0  0  1  0  0  3  0  0  0  0  0  0
  191.8630  177.4940  139.6700 C   0  0  0  0  0  2  0  0  0  0  0  0
  189.4100  175.9950  139.6780 C   0  0  0  0  0  3  0  0  0  0  0  0
  190.2070  175.9140  138.6120 C   0  0  0  0  0  3  0  0  0  0  0  0
  190.6650  178.0300  140.4520 C   0  0  0  0  0  2  0  0  0  0  0  0
  192.9420  175.3400  137.1860 C   0  0  0  0  0  0  0  0  0  0  0  0
  192.6140  174.5960  135.9530 C   0  0  2  0  0  3  0  0  0  0  0  0
  193.8230  175.0160  137.9690 O   0  0  0  0  0  0  0  0  0  0  0  0
  191.4410  175.2550  135.3780 N   0  0  0  0  0  2  0  0  0  0  0  0
  191.2730  176.5450  136.0560 C   0  0  0  0  0  2  0  0  0  0  0  0
  192.1860  176.5980  137.2790 C   0  0  1  0  0  3  0  0  0  0  0  0
  193.2610  172.2090  136.2360 C   0  0  0  0  0  3  0  0  0  0  0  0
  192.3050  173.1510  136.2270 C   0  0  0  0  0  3  0  0  0  0  0  0
  195.7770  171.7980  136.8590 C   0  0  1  0  0  0  0  0  0  0  0  0
  197.8040  173.4830  136.8800 C   0  0  0  0  0  2  0  0  0  0  0  0
  197.5570  172.8800  134.3830 C   0  0  0  0  0  2  0  0  0  0  0  0
  196.5090  171.7600  134.5390 C   0  0  2  0  0  3  0  0  0  0  0  0
  195.0900  172.3010  134.5310 C   0  0  0  0  0  2  0  0  0  0  0  0
  197.9210  170.7470  136.2580 O   0  0  0  0  0  1  0  0  0  0  0  0
  197.5750  173.9860  135.4550 C   0  0  1  0  0  3  0  0  0  0  0  0
  194.7160  172.5230  135.9900 C   0  0  1  0  0  3  0  0  0  0  0  0
  196.6070  171.0000  135.8490 C   0  0  1  0  0  3  0  0  0  0  0  0
  196.5720  172.8970  137.5940 C   0  0  0  0  0  2  0  0  0  0  0  0
  196.4490  175.0050  135.3090 C   0  0  0  0  0  2  0  0  0  0  0  0
  197.0080  176.4140  135.2460 C   0  0  0  0  0  1  0  0  0  0  0  0
  195.5310  169.3890  137.7220 C   0  0  0  0  0  1  0  0  0  0  0  0
  195.2040  170.8590  137.9390 C   0  0  0  0  0  2  0  0  0  0  0  0
  183.8760  180.7920  138.8430 C   0  0  0  0  0  2  0  0  0  0  0  0
  183.4570  179.5540  139.1260 C   0  0  0  0  0  0  0  0  0  0  0  0
  182.0570  179.2140  138.6740 C   0  0  1  0  0  3  0  0  0  0  0  0
  181.6890  179.9720  137.5610 O   0  0  0  0  0  0  0  0  0  0  0  0
  180.3830  180.3880  137.8260 C   0  0  0  0  0  2  0  0  0  0  0  0
  180.2880  181.4250  139.9700 O   0  0  0  0  0  1  0  0  0  0  0  0
  180.6110  182.8460  138.1890 O   0  0  0  0  0  0  0  0  0  0  0  0
  180.4150  181.5750  138.7240 C   0  0  0  0  0  0  0  0  0  0  0  0
  181.9280  177.7240  138.3530 C   0  0  0  0  0  2  0  0  0  0  0  0
  180.9830  177.5450  137.2990 O   0  0  0  0  0  0  0  0  0  0  0  0
  181.2840  176.8200  136.1460 C   0  0  0  0  0  0  0  0  0  0  0  0
  180.5380  175.8660  135.7970 O   0  0  0  0  0  0  0  0  0  0  0  0
  182.4070  177.2340  135.2380 C   0  0  0  0  0  2  0  0  0  0  0  0
  183.2400  176.0800  134.9260 N   0  0  0  0  0  2  0  0  0  0  0  0
  184.2620  176.0070  135.9550 C   0  0  0  0  0  2  0  0  0  0  0  0
  184.2530  172.6220  137.5430 C   0  0  0  0  0  3  0  0  0  0  0  0
  185.4000  172.5050  136.5330 C   0  0  0  0  0  3  0  0  0  0  0  0
  183.7660  174.0250  137.3670 C   0  0  0  0  0  3  0  0  0  0  0  0
  184.4620  174.6000  136.4080 C   0  0  0  0  0  0  0  0  0  0  0  0
  185.3930  173.7500  135.8510 O   0  0  0  0  0  0  0  0  0  0  0  0
  184.1090  179.0770  144.2620 N   0  0  0  0  0  0  0  0  0  0  0  0
  185.0310  178.6860  143.6850 C   0  0  0  0  0  0  0  0  0  0  0  0
  187.2190  177.6200  145.0770 O   0  0  0  0  0  0  0  0  0  0  0  0
  188.2770  177.0970  145.8650 C   0  0  0  0  0  2  0  0  0  0  0  0
  188.2920  177.7920  147.2070 C   0  0  0  0  0  1  0  0  0  0  0  0
  1 10  1  0  0  0  0
  2 12  1  0  0  0  0
  3  8  1  0  0  0  0
  3 62  1  0  0  0  0
  5 12  1  0  0  0  0
  5  1  2  0  0  0  0
  6 11  1  0  0  0  0
  6  7  1  0  0  0  0
  7  4  1  1  0  0  0
  7  2  1  0  0  0  0
  8 63  1  0  0  0  0
  9  5  1  0  0  0  0
 10  8  2  0  0  0  0
 11  9  1  0  0  0  0
 12  3  2  0  0  0  0
 13 17  1  0  0  0  0
 13 15  1  0  0  0  0
 14  1  1  6  0  0  0
 15 18  1  0  0  0  0
 16 14  1  0  0  0  0
 17 16  2  0  0  0  0
 18 14  1  0  0  0  0
 19 24  1  0  0  0  0
 19 21  2  0  0  0  0
 20 26  1  1  0  0  0
 20 19  1  0  0  0  0
 22 20  1  0  0  0  0
 22 23  1  0  0  0  0
 24 23  1  6  0  0  0
 24 13  1  0  0  0  0
 26 25  2  0  0  0  0
 27 36  1  0  0  0  0
 27 40  1  1  0  0  0
 28 36  1  0  0  0  0
 29 33  1  0  0  0  0
 30 29  1  1  0  0  0
 30 35  1  0  0  0  0
 31 30  1  0  0  0  0
 31 34  1  0  0  0  0
 33 37  1  1  0  0  0
 33 28  1  0  0  0  0
 34 25  1  6  0  0  0
 34 27  1  0  0  0  0
 35 32  1  1  0  0  0
 35 27  1  0  0  0  0
 38 37  1  0  0  0  0
 39 40  1  0  0  0  0
 41 42  2  0  0  0  0
 42  7  1  0  0  0  0
 43 49  1  6  0  0  0
 43 42  1  0  0  0  0
 44 45  1  0  0  0  0
 44 43  1  0  0  0  0
 45 48  1  0  0  0  0
 47 48  2  0  0  0  0
 48 46  1  0  0  0  0
 50 49  1  0  0  0  0
 51 50  1  0  0  0  0
 52 51  2  0  0  0  0
 53 51  1  0  0  0  0
 54 53  1  0  0  0  0
 54 55  1  0  0  0  0
 55 59  1  0  0  0  0
 57 56  2  0  0  0  0
 58 56  1  0  0  0  0
 59 58  2  0  0  0  0
 60 59  1  0  0  0  0
 60 57  1  0  0  0  0
 62 61  3  0  0  0  0
 63 64  1  0  0  0  0
 64 65  1  0  0  0  0
M  END
>  <MODEL>
6

>  <REMARK>
 VINA RESULT:      -2.9      1.831      2.455
  Name = 
  21 active torsions:
  status: ('A' for Active; 'I' for Inactive)
    1  A    between atoms: C_1  and  C_53
    2  A    between atoms: C_3  and  C_7
    3  A    between atoms: C_4  and  C_61
    4  A    between atoms: N_5  and  C_38
    5  A    between atoms: C_6  and  C_51
    6  A    between atoms: C_9  and  C_26
    7  A    between atoms: C_19  and  C_41
    8  A    between atoms: C_19  and  O_50
    9  A    between atoms: C_21  and  O_55
   10  A    between atoms: C_21  and  C_60
   11  A    between atoms: C_25  and  C_35
   12  A    between atoms: C_27  and  C_47
   13  A    between atoms: C_27  and  O_55
   14  A    between atoms: N_28  and  C_48
   15  A    between atoms: N_28  and  C_60
   16  A    between atoms: C_33  and  O_58
   17  A    between atoms: C_35  and  C_47
   18  A    between atoms: C_44  and  C_52
   19  A    between atoms: C_46  and  O_58
   20  A    between atoms: C_47  and  O_50
   21  A    between atoms: C_48  and  C_57
                            x       y       z     vdW  Elec       q    Type
                         _______ _______ _______ _____ _____    ______ ____

>  <TORSDO>
F 21

$$$$
=
 OpenBabel10232410083D

 65 71  0  0  1  0  0  0  0  0999 V2000
  186.5710  176.0650  137.1160 C   0  0  0  0  0  0  0  0  0  0  0  0
  182.9820  176.7440  138.2080 C   0  0  0  0  0  2  0  0  0  0  0  0
  183.9620  175.2030  136.4810 C   0  0  0  0  0  0  0  0  0  0  0  0
  182.3580  178.7640  136.8590 C   0  0  0  0  0  1  0  0  0  0  0  0
  185.4520  176.7870  137.5850 C   0  0  0  0  0  0  0  0  0  0  0  0
  183.6810  178.9630  138.9360 O   0  0  0  0  0  0  0  0  0  0  0  0
  182.6490  178.2460  138.2800 C   0  0  2  0  0  0  0  0  0  0  0  0
  185.0700  174.5490  135.9240 C   0  0  0  0  0  0  0  0  0  0  0  0
  185.6690  177.9840  138.2710 O   0  0  0  0  0  0  0  0  0  0  0  0
  186.3590  174.9700  136.2680 C   0  0  0  0  0  3  0  0  0  0  0  0
  184.8100  179.1010  138.1170 C   0  0  0  0  0  2  0  0  0  0  0  0
  184.1440  176.3040  137.3460 C   0  0  0  0  0  0  0  0  0  0  0  0
  190.7780  176.8090  136.8300 N   0  0  0  0  0  0  0  0  0  0  0  0
  187.9850  176.4970  137.4710 C   0  0  1  0  0  3  0  0  0  0  0  0
  189.9410  178.0060  137.0070 C   0  0  0  0  0  2  0  0  0  0  0  0
  188.9470  175.3340  137.3780 C   0  0  0  0  0  3  0  0  0  0  0  0
  190.2420  175.5050  137.1100 C   0  0  0  0  0  3  0  0  0  0  0  0
  188.4920  177.6930  136.6400 C   0  0  0  0  0  2  0  0  0  0  0  0
  193.0860  176.4620  137.5820 C   0  0  0  0  0  0  0  0  0  0  0  0
  193.9930  175.3770  137.1550 C   0  0  2  0  0  3  0  0  0  0  0  0
  193.1450  177.0190  138.6670 O   0  0  0  0  0  0  0  0  0  0  0  0
  193.5080  174.9270  135.8500 N   0  0  0  0  0  2  0  0  0  0  0  0
  192.5500  175.9240  135.3590 C   0  0  0  0  0  2  0  0  0  0  0  0
  192.2030  176.8920  136.4870 C   0  0  1  0  0  3  0  0  0  0  0  0
  195.0370  173.3830  138.2180 C   0  0  0  0  0  3  0  0  0  0  0  0
  193.9980  174.2280  138.1220 C   0  0  0  0  0  3  0  0  0  0  0  0
  197.5890  173.9790  138.0860 C   0  0  1  0  0  0  0  0  0  0  0  0
  198.9460  175.1640  136.1610 C   0  0  0  0  0  2  0  0  0  0  0  0
  198.7110  172.7360  135.3180 C   0  0  0  0  0  2  0  0  0  0  0  0
  198.1060  172.1250  136.5970 C   0  0  2  0  0  3  0  0  0  0  0  0
  196.5930  172.2430  136.6240 C   0  0  0  0  0  2  0  0  0  0  0  0
  199.9050  173.1650  137.8850 O   0  0  0  0  0  1  0  0  0  0  0  0
  198.4510  174.2310  135.0560 C   0  0  1  0  0  3  0  0  0  0  0  0
  196.2840  173.5270  137.3810 C   0  0  1  0  0  3  0  0  0  0  0  0
  198.5520  172.8060  137.8780 C   0  0  1  0  0  3  0  0  0  0  0  0
  198.0350  175.2860  137.3970 C   0  0  0  0  0  2  0  0  0  0  0  0
  197.0450  174.5310  134.5450 C   0  0  0  0  0  2  0  0  0  0  0  0
  196.8550  176.0230  134.3470 C   0  0  0  0  0  1  0  0  0  0  0  0
  198.3050  175.4490  140.0700 C   0  0  0  0  0  1  0  0  0  0  0  0
  197.4440  174.2900  139.5890 C   0  0  0  0  0  2  0  0  0  0  0  0
  180.5050  179.3530  138.8570 C   0  0  0  0  0  2  0  0  0  0  0  0
  181.4050  178.4100  139.1560 C   0  0  0  0  0  0  0  0  0  0  0  0
  180.9780  177.3970  140.1910 C   0  0  1  0  0  3  0  0  0  0  0  0
  181.4250  176.1160  139.8570 O   0  0  0  0  0  0  0  0  0  0  0  0
  180.2650  175.3460  139.7570 C   0  0  0  0  0  2  0  0  0  0  0  0
  180.4400  173.0920  140.5100 O   0  0  0  0  0  0  0  0  0  0  0  0
  180.1140  174.6690  142.1530 O   0  0  0  0  0  1  0  0  0  0  0  0
  180.2700  174.3030  140.8180 C   0  0  0  0  0  0  0  0  0  0  0  0
  181.4880  177.7780  141.5800 C   0  0  0  0  0  2  0  0  0  0  0  0
  182.5780  178.6890  141.4530 O   0  0  0  0  0  0  0  0  0  0  0  0
  183.4330  178.9800  142.5160 C   0  0  0  0  0  0  0  0  0  0  0  0
  183.1690  179.9450  143.2840 O   0  0  0  0  0  0  0  0  0  0  0  0
  184.5950  178.0870  142.8460 C   0  0  0  0  0  2  0  0  0  0  0  0
  185.6150  178.8460  143.5570 N   0  0  0  0  0  2  0  0  0  0  0  0
  186.2370  177.9360  144.5020 C   0  0  0  0  0  2  0  0  0  0  0  0
  189.7150  176.6620  143.9940 C   0  0  0  0  0  3  0  0  0  0  0  0
  189.5000  177.5290  142.7490 C   0  0  0  0  0  3  0  0  0  0  0  0
  188.4330  176.8020  144.7500 C   0  0  0  0  0  3  0  0  0  0  0  0
  187.6120  177.5660  144.0590 C   0  0  0  0  0  0  0  0  0  0  0  0
  188.1590  177.9780  142.8620 O   0  0  0  0  0  0  0  0  0  0  0  0
  181.5750  174.3150  135.9450 N   0  0  0  0  0  0  0  0  0  0  0  0
  182.6340  174.7100  136.1870 C   0  0  0  0  0  0  0  0  0  0  0  0
  184.8780  173.4770  135.0430 O   0  0  0  0  0  0  0  0  0  0  0  0
  185.4650  172.2020  135.2430 C   0  0  0  0  0  2  0  0  0  0  0  0
  184.5370  171.3480  136.0770 C   0  0  0  0  0  1  0  0  0  0  0  0
  1  5  1  0  0  0  0
  2  7  1  0  0  0  0
  3 12  1  0  0  0  0
  5  9  1  0  0  0  0
  7  4  1  6  0  0  0
  7  6  1  0  0  0  0
  7 42  1  0  0  0  0
  8 10  1  0  0  0  0
  8  3  2  0  0  0  0
 10  1  2  0  0  0  0
 11  9  1  0  0  0  0
 11  6  1  0  0  0  0
 12  5  2  0  0  0  0
 12  2  1  0  0  0  0
 13 15  1  0  0  0  0
 13 17  1  0  0  0  0
 14  1  1  6  0  0  0
 16 14  1  0  0  0  0
 17 16  2  0  0  0  0
 18 15  1  0  0  0  0
 18 14  1  0  0  0  0
 19 21  2  0  0  0  0
 20 19  1  0  0  0  0
 20 26  1  1  0  0  0
 22 20  1  0  0  0  0
 23 22  1  0  0  0  0
 24 23  1  6  0  0  0
 24 13  1  0  0  0  0
 24 19  1  0  0  0  0
 26 25  2  0  0  0  0
 27 40  1  1  0  0  0
 28 36  1  0  0  0  0
 30 29  1  6  0  0  0
 30 31  1  0  0  0  0
 30 35  1  0  0  0  0
 31 34  1  0  0  0  0
 33 37  1  1  0  0  0
 33 29  1  0  0  0  0
 33 28  1  0  0  0  0
 34 27  1  0  0  0  0
 34 25  1  1  0  0  0
 35 32  1  6  0  0  0
 35 27  1  0  0  0  0
 36 27  1  0  0  0  0
 38 37  1  0  0  0  0
 40 39  1  0  0  0  0
 41 42  2  0  0  0  0
 42 43  1  0  0  0  0
 43 49  1  1  0  0  0
 44 43  1  0  0  0  0
 45 44  1  0  0  0  0
 45 48  1  0  0  0  0
 46 48  2  0  0  0  0
 48 47  1  0  0  0  0
 50 49  1  0  0  0  0
 50 51  1  0  0  0  0
 51 53  1  0  0  0  0
 51 52  2  0  0  0  0
 53 54  1  0  0  0  0
 54 55  1  0  0  0  0
 56 58  1  0  0  0  0
 57 60  1  0  0  0  0
 57 56  2  0  0  0  0
 59 55  1  0  0  0  0
 59 58  2  0  0  0  0
 60 59  1  0  0  0  0
 61 62  3  0  0  0  0
 62  3  1  0  0  0  0
 63 64  1  0  0  0  0
 63  8  1  0  0  0  0
 64 65  1  0  0  0  0
M  END
>  <MODEL>
7

>  <REMARK>
 VINA RESULT:      -2.7      2.355      6.039
  Name = 
  21 active torsions:
  status: ('A' for Active; 'I' for Inactive)
    1  A    between atoms: C_1  and  C_53
    2  A    between atoms: C_3  and  C_7
    3  A    between atoms: C_4  and  C_61
    4  A    between atoms: N_5  and  C_38
    5  A    between atoms: C_6  and  C_51
    6  A    between atoms: C_9  and  C_26
    7  A    between atoms: C_19  and  C_41
    8  A    between atoms: C_19  and  O_50
    9  A    between atoms: C_21  and  O_55
   10  A    between atoms: C_21  and  C_60
   11  A    between atoms: C_25  and  C_35
   12  A    between atoms: C_27  and  C_47
   13  A    between atoms: C_27  and  O_55
   14  A    between atoms: N_28  and  C_48
   15  A    between atoms: N_28  and  C_60
   16  A    between atoms: C_33  and  O_58
   17  A    between atoms: C_35  and  C_47
   18  A    between atoms: C_44  and  C_52
   19  A    between atoms: C_46  and  O_58
   20  A    between atoms: C_47  and  O_50
   21  A    between atoms: C_48  and  C_57
                            x       y       z     vdW  Elec       q    Type
                         _______ _______ _______ _____ _____    ______ ____

>  <TORSDO>
F 21

$$$$
=
 OpenBabel10232410083D

 65 71  0  0  1  0  0  0  0  0999 V2000
  188.5470  177.4170  141.5190 C   0  0  0  0  0  0  0  0  0  0  0  0
  185.2780  179.1770  140.6500 C   0  0  0  0  0  2  0  0  0  0  0  0
  186.2320  178.3570  142.8260 C   0  0  0  0  0  0  0  0  0  0  0  0
  183.7930  177.2820  139.9490 C   0  0  0  0  0  1  0  0  0  0  0  0
  187.4090  177.7840  140.7680 C   0  0  0  0  0  0  0  0  0  0  0  0
  185.4480  178.2600  138.3970 O   0  0  0  0  0  0  0  0  0  0  0  0
  184.5470  178.5310  139.4570 C   0  0  2  0  0  0  0  0  0  0  0  0
  187.3200  177.8910  143.5790 C   0  0  0  0  0  0  0  0  0  0  0  0
  187.4210  177.5690  139.3880 O   0  0  0  0  0  0  0  0  0  0  0  0
  188.4720  177.4520  142.9180 C   0  0  0  0  0  3  0  0  0  0  0  0
  186.2620  177.1560  138.6860 C   0  0  0  0  0  2  0  0  0  0  0  0
  186.2820  178.3430  141.4160 C   0  0  0  0  0  0  0  0  0  0  0  0
  191.5980  176.8500  138.5690 N   0  0  0  0  0  0  0  0  0  0  0  0
  189.8150  176.9350  140.8320 C   0  0  1  0  0  3  0  0  0  0  0  0
  192.0430  177.4990  139.8130 C   0  0  0  0  0  2  0  0  0  0  0  0
  189.4930  176.1970  139.5530 C   0  0  0  0  0  3  0  0  0  0  0  0
  190.3460  176.1460  138.5290 C   0  0  0  0  0  3  0  0  0  0  0  0
  190.8410  178.0570  140.5720 C   0  0  0  0  0  2  0  0  0  0  0  0
  193.3670  175.6370  137.3810 C   0  0  0  0  0  0  0  0  0  0  0  0
  193.1980  174.7940  136.1800 C   0  0  2  0  0  3  0  0  0  0  0  0
  194.2450  175.4750  138.2150 O   0  0  0  0  0  0  0  0  0  0  0  0
  191.9760  175.2590  135.5230 N   0  0  0  0  0  2  0  0  0  0  0  0
  191.6070  176.5470  136.1210 C   0  0  0  0  0  2  0  0  0  0  0  0
  192.4470  176.7840  137.3730 C   0  0  1  0  0  3  0  0  0  0  0  0
  194.1330  172.5160  136.5440 C   0  0  0  0  0  3  0  0  0  0  0  0
  193.0710  173.3360  136.5230 C   0  0  0  0  0  3  0  0  0  0  0  0
  196.7140  172.2640  136.9420 C   0  0  1  0  0  0  0  0  0  0  0  0
  198.5920  174.1120  137.0440 C   0  0  0  0  0  2  0  0  0  0  0  0
  198.2030  173.7970  134.5120 C   0  0  0  0  0  2  0  0  0  0  0  0
  197.2660  172.5750  134.5930 C   0  0  2  0  0  3  0  0  0  0  0  0
  195.8120  172.9810  134.7480 C   0  0  0  0  0  2  0  0  0  0  0  0
  198.8860  171.4950  136.0710 O   0  0  0  0  0  1  0  0  0  0  0  0
  198.2120  174.7610  135.7120 C   0  0  1  0  0  3  0  0  0  0  0  0
  195.5340  172.9890  136.2450 C   0  0  1  0  0  3  0  0  0  0  0  0
  197.5280  171.6740  135.7860 C   0  0  1  0  0  3  0  0  0  0  0  0
  197.4710  173.3350  137.7570 C   0  0  0  0  0  2  0  0  0  0  0  0
  196.9990  175.6830  135.7720 C   0  0  0  0  0  2  0  0  0  0  0  0
  197.1830  176.8710  134.8460 C   0  0  0  0  0  1  0  0  0  0  0  0
  196.6620  169.7480  137.4660 C   0  0  0  0  0  1  0  0  0  0  0  0
  196.3060  171.1530  137.9290 C   0  0  0  0  0  2  0  0  0  0  0  0
  183.8730  180.8520  138.8980 C   0  0  0  0  0  2  0  0  0  0  0  0
  183.5510  179.5550  138.9080 C   0  0  0  0  0  0  0  0  0  0  0  0
  182.3210  179.1760  138.1190 C   0  0  1  0  0  3  0  0  0  0  0  0
  182.5540  178.0460  137.3320 O   0  0  0  0  0  0  0  0  0  0  0  0
  182.7670  178.5420  136.0450 C   0  0  0  0  0  2  0  0  0  0  0  0
  180.9650  178.0100  134.5790 O   0  0  0  0  0  0  0  0  0  0  0  0
  180.7580  179.9880  135.7340 O   0  0  0  0  0  1  0  0  0  0  0  0
  181.4540  178.8290  135.4030 C   0  0  0  0  0  0  0  0  0  0  0  0
  181.1270  178.9280  139.0420 C   0  0  0  0  0  2  0  0  0  0  0  0
  180.3460  177.8500  138.5290 O   0  0  0  0  0  0  0  0  0  0  0  0
  180.2650  176.6170  139.1750 C   0  0  0  0  0  0  0  0  0  0  0  0
  180.2920  176.5690  140.4350 O   0  0  0  0  0  0  0  0  0  0  0  0
  180.0180  175.3510  138.4050 C   0  0  0  0  0  2  0  0  0  0  0  0
  180.9390  175.2700  137.2790 N   0  0  0  0  0  2  0  0  0  0  0  0
  182.2710  175.1080  137.8340 C   0  0  0  0  0  2  0  0  0  0  0  0
  184.2370  174.4380  134.7260 C   0  0  0  0  0  3  0  0  0  0  0  0
  185.1790  173.9310  135.8240 C   0  0  0  0  0  3  0  0  0  0  0  0
  183.0350  174.9100  135.4800 C   0  0  0  0  0  3  0  0  0  0  0  0
  183.2520  174.7520  136.7690 C   0  0  0  0  0  0  0  0  0  0  0  0
  184.5020  174.2340  137.0330 O   0  0  0  0  0  0  0  0  0  0  0  0
  184.1490  179.3080  144.0650 N   0  0  0  0  0  0  0  0  0  0  0  0
  185.0770  178.8870  143.5170 C   0  0  0  0  0  0  0  0  0  0  0  0
  187.2490  177.8810  144.9780 O   0  0  0  0  0  0  0  0  0  0  0  0
  188.3230  178.2960  145.8060 C   0  0  0  0  0  2  0  0  0  0  0  0
  188.1510  177.6990  147.1850 C   0  0  0  0  0  1  0  0  0  0  0  0
  1 10  1  0  0  0  0
  2 12  1  0  0  0  0
  3 62  1  0  0  0  0
  3  8  1  0  0  0  0
  5 12  1  0  0  0  0
  5  1  2  0  0  0  0
  6 11  1  0  0  0  0
  6  7  1  0  0  0  0
  7  4  1  1  0  0  0
  7  2  1  0  0  0  0
  8 63  1  0  0  0  0
  9  5  1  0  0  0  0
 10  8  2  0  0  0  0
 11  9  1  0  0  0  0
 12  3  2  0  0  0  0
 13 15  1  0  0  0  0
 14  1  1  6  0  0  0
 15 18  1  0  0  0  0
 16 14  1  0  0  0  0
 17 13  1  0  0  0  0
 17 16  2  0  0  0  0
 18 14  1  0  0  0  0
 19 21  2  0  0  0  0
 20 26  1  1  0  0  0
 20 19  1  0  0  0  0
 22 23  1  0  0  0  0
 22 20  1  0  0  0  0
 24 23  1  6  0  0  0
 24 19  1  0  0  0  0
 24 13  1  0  0  0  0
 26 25  2  0  0  0  0
 27 36  1  0  0  0  0
 27 40  1  1  0  0  0
 28 36  1  0  0  0  0
 29 33  1  0  0  0  0
 30 29  1  1  0  0  0
 30 31  1  0  0  0  0
 30 35  1  0  0  0  0
 31 34  1  0  0  0  0
 33 37  1  1  0  0  0
 33 28  1  0  0  0  0
 34 25  1  6  0  0  0
 34 27  1  0  0  0  0
 35 32  1  1  0  0  0
 35 27  1  0  0  0  0
 38 37  1  0  0  0  0
 39 40  1  0  0  0  0
 41 42  2  0  0  0  0
 42  7  1  0  0  0  0
 43 42  1  0  0  0  0
 43 49  1  1  0  0  0
 44 43  1  0  0  0  0
 45 44  1  0  0  0  0
 46 48  2  0  0  0  0
 48 47  1  0  0  0  0
 48 45  1  0  0  0  0
 50 49  1  0  0  0  0
 50 51  1  0  0  0  0
 51 52  2  0  0  0  0
 53 51  1  0  0  0  0
 54 55  1  0  0  0  0
 54 53  1  0  0  0  0
 56 58  1  0  0  0  0
 56 57  2  0  0  0  0
 57 60  1  0  0  0  0
 58 59  2  0  0  0  0
 59 60  1  0  0  0  0
 59 55  1  0  0  0  0
 62 61  3  0  0  0  0
 63 64  1  0  0  0  0
 64 65  1  0  0  0  0
M  END
>  <MODEL>
8

>  <REMARK>
 VINA RESULT:      -2.7      1.981      3.100
  Name = 
  21 active torsions:
  status: ('A' for Active; 'I' for Inactive)
    1  A    between atoms: C_1  and  C_53
    2  A    between atoms: C_3  and  C_7
    3  A    between atoms: C_4  and  C_61
    4  A    between atoms: N_5  and  C_38
    5  A    between atoms: C_6  and  C_51
    6  A    between atoms: C_9  and  C_26
    7  A    between atoms: C_19  and  C_41
    8  A    between atoms: C_19  and  O_50
    9  A    between atoms: C_21  and  O_55
   10  A    between atoms: C_21  and  C_60
   11  A    between atoms: C_25  and  C_35
   12  A    between atoms: C_27  and  C_47
   13  A    between atoms: C_27  and  O_55
   14  A    between atoms: N_28  and  C_48
   15  A    between atoms: N_28  and  C_60
   16  A    between atoms: C_33  and  O_58
   17  A    between atoms: C_35  and  C_47
   18  A    between atoms: C_44  and  C_52
   19  A    between atoms: C_46  and  O_58
   20  A    between atoms: C_47  and  O_50
   21  A    between atoms: C_48  and  C_57
                            x       y       z     vdW  Elec       q    Type
                         _______ _______ _______ _____ _____    ______ ____

>  <TORSDO>
F 21

$$$$
=
 OpenBabel10232410083D

 65 71  0  0  1  0  0  0  0  0999 V2000
  190.4970  177.2780  141.0350 C   0  0  0  0  0  0  0  0  0  0  0  0
  187.6830  178.7710  143.1290 C   0  0  0  0  0  2  0  0  0  0  0  0
  189.8090  177.5840  143.7520 C   0  0  0  0  0  0  0  0  0  0  0  0
  185.9840  176.9270  143.1790 C   0  0  0  0  0  1  0  0  0  0  0  0
  189.1890  177.6680  141.3940 C   0  0  0  0  0  0  0  0  0  0  0  0
  186.1780  178.4440  141.2390 O   0  0  0  0  0  0  0  0  0  0  0  0
  186.2830  178.3420  142.6490 C   0  0  2  0  0  0  0  0  0  0  0  0
  191.0750  177.0920  143.4010 C   0  0  0  0  0  0  0  0  0  0  0  0
  188.2280  177.7900  140.3890 O   0  0  0  0  0  0  0  0  0  0  0  0
  191.4130  176.9700  142.0490 C   0  0  0  0  0  3  0  0  0  0  0  0
  186.8770  177.4140  140.5960 C   0  0  0  0  0  2  0  0  0  0  0  0
  188.8700  177.9110  142.7510 C   0  0  0  0  0  0  0  0  0  0  0  0
  192.2380  175.7440  137.4360 N   0  0  0  0  0  0  0  0  0  0  0  0
  190.8970  177.1350  139.5750 C   0  0  1  0  0  3  0  0  0  0  0  0
  190.7680  175.8130  137.4400 C   0  0  0  0  0  2  0  0  0  0  0  0
  192.4000  177.1050  139.4230 C   0  0  0  0  0  3  0  0  0  0  0  0
  192.9990  176.4800  138.4080 C   0  0  0  0  0  3  0  0  0  0  0  0
  190.2520  175.9220  138.8740 C   0  0  0  0  0  2  0  0  0  0  0  0
  194.4410  175.0640  136.6010 C   0  0  0  0  0  0  0  0  0  0  0  0
  195.0100  173.7020  136.6370 C   0  0  2  0  0  3  0  0  0  0  0  0
  195.1080  176.0880  136.6190 O   0  0  0  0  0  0  0  0  0  0  0  0
  193.8720  172.7850  136.7110 N   0  0  0  0  0  2  0  0  0  0  0  0
  192.6590  173.5470  136.3940 C   0  0  0  0  0  2  0  0  0  0  0  0
  192.9860  175.0390  136.3880 C   0  0  1  0  0  3  0  0  0  0  0  0
  196.4480  172.2970  138.1060 C   0  0  0  0  0  3  0  0  0  0  0  0
  195.9110  173.4940  137.8210 C   0  0  0  0  0  3  0  0  0  0  0  0
  197.3540  170.5870  136.3330 C   0  0  1  0  0  0  0  0  0  0  0  0
  196.0850  169.3560  134.3780 C   0  0  0  0  0  2  0  0  0  0  0  0
  195.4400  167.9810  136.4650 C   0  0  0  0  0  2  0  0  0  0  0  0
  196.3930  168.6610  137.4690 C   0  0  2  0  0  3  0  0  0  0  0  0
  195.7680  169.8890  138.1060 C   0  0  0  0  0  2  0  0  0  0  0  0
  198.2220  168.3270  135.8810 O   0  0  0  0  0  1  0  0  0  0  0  0
  194.9610  168.8190  135.2650 C   0  0  1  0  0  3  0  0  0  0  0  0
  196.2060  171.0740  137.2560 C   0  0  1  0  0  3  0  0  0  0  0  0
  197.6770  169.1810  136.8470 C   0  0  1  0  0  3  0  0  0  0  0  0
  196.8040  170.6160  134.8910 C   0  0  0  0  0  2  0  0  0  0  0  0
  193.8810  169.8370  135.6160 C   0  0  0  0  0  2  0  0  0  0  0  0
  193.2640  170.4190  134.3580 C   0  0  0  0  0  1  0  0  0  0  0  0
  199.0040  172.0290  134.9900 C   0  0  0  0  0  1  0  0  0  0  0  0
  198.6210  171.4650  136.3500 C   0  0  0  0  0  2  0  0  0  0  0  0
  185.2690  180.6000  142.7910 C   0  0  0  0  0  2  0  0  0  0  0  0
  185.2670  179.3340  143.2180 C   0  0  0  0  0  0  0  0  0  0  0  0
  184.0720  178.9180  144.0420 C   0  0  1  0  0  3  0  0  0  0  0  0
  184.1610  179.4130  145.3450 O   0  0  0  0  0  0  0  0  0  0  0  0
  185.4790  179.1660  145.7330 C   0  0  0  0  0  2  0  0  0  0  0  0
  186.1610  179.6720  147.9590 O   0  0  0  0  0  1  0  0  0  0  0  0
  184.8350  177.8080  147.7230 O   0  0  0  0  0  0  0  0  0  0  0  0
  185.5220  178.8980  147.1970 C   0  0  0  0  0  0  0  0  0  0  0  0
  182.7670  179.3870  143.3970 C   0  0  0  0  0  2  0  0  0  0  0  0
  182.5360  178.6480  142.1990 O   0  0  0  0  0  0  0  0  0  0  0  0
  181.3630  178.7820  141.4570 C   0  0  0  0  0  0  0  0  0  0  0  0
  180.9010  179.9320  141.2220 O   0  0  0  0  0  0  0  0  0  0  0  0
  180.7050  177.5910  140.8210 C   0  0  0  0  0  2  0  0  0  0  0  0
  181.4600  177.1810  139.6440 N   0  0  0  0  0  2  0  0  0  0  0  0
  181.1630  175.7770  139.4210 C   0  0  0  0  0  2  0  0  0  0  0  0
  182.7220  174.2460  136.3870 C   0  0  0  0  0  3  0  0  0  0  0  0
  183.9400  174.5280  137.2730 C   0  0  0  0  0  3  0  0  0  0  0  0
  181.5670  174.7150  137.2130 C   0  0  0  0  0  3  0  0  0  0  0  0
  182.0250  175.2150  138.3410 C   0  0  0  0  0  0  0  0  0  0  0  0
  183.4010  175.1800  138.4120 O   0  0  0  0  0  0  0  0  0  0  0  0
  189.2430  177.9530  146.2650 N   0  0  0  0  0  0  0  0  0  0  0  0
  189.4970  177.7860  145.1500 C   0  0  0  0  0  0  0  0  0  0  0  0
  191.9900  176.7410  144.4030 O   0  0  0  0  0  0  0  0  0  0  0  0
  191.9760  175.4790  145.0500 C   0  0  0  0  0  2  0  0  0  0  0  0
  191.9970  175.6840  146.5480 C   0  0  0  0  0  1  0  0  0  0  0  0
  1  5  2  0  0  0  0
  1 10  1  0  0  0  0
  3 62  1  0  0  0  0
  5 12  1  0  0  0  0
  6  7  1  0  0  0  0
  7  2  1  0  0  0  0
  7  4  1  1  0  0  0
  7 42  1  0  0  0  0
  8  3  1  0  0  0  0
  8 63  1  0  0  0  0
  9 11  1  0  0  0  0
  9  5  1  0  0  0  0
 10  8  2  0  0  0  0
 11  6  1  0  0  0  0
 12  2  1  0  0  0  0
 12  3  2  0  0  0  0
 13 15  1  0  0  0  0
 13 17  1  0  0  0  0
 14  1  1  1  0  0  0
 15 18  1  0  0  0  0
 16 14  1  0  0  0  0
 17 16  2  0  0  0  0
 18 14  1  0  0  0  0
 19 21  2  0  0  0  0
 19 20  1  0  0  0  0
 20 22  1  0  0  0  0
 20 26  1  1  0  0  0
 23 22  1  0  0  0  0
 24 23  1  1  0  0  0
 24 19  1  0  0  0  0
 24 13  1  0  0  0  0
 26 25  2  0  0  0  0
 27 40  1  1  0  0  0
 27 35  1  0  0  0  0
 27 34  1  0  0  0  0
 28 36  1  0  0  0  0
 28 33  1  0  0  0  0
 30 29  1  6  0  0  0
 30 31  1  0  0  0  0
 33 37  1  1  0  0  0
 33 29  1  0  0  0  0
 34 25  1  1  0  0  0
 34 31  1  0  0  0  0
 35 32  1  6  0  0  0
 35 30  1  0  0  0  0
 36 27  1  0  0  0  0
 38 37  1  0  0  0  0
 39 40  1  0  0  0  0
 41 42  2  0  0  0  0
 42 43  1  0  0  0  0
 43 49  1  6  0  0  0
 43 44  1  0  0  0  0
 44 45  1  0  0  0  0
 45 48  1  0  0  0  0
 48 47  2  0  0  0  0
 48 46  1  0  0  0  0
 50 49  1  0  0  0  0
 51 50  1  0  0  0  0
 52 51  2  0  0  0  0
 53 51  1  0  0  0  0
 54 53  1  0  0  0  0
 55 54  1  0  0  0  0
 56 58  1  0  0  0  0
 56 57  2  0  0  0  0
 57 60  1  0  0  0  0
 58 59  2  0  0  0  0
 59 60  1  0  0  0  0
 59 55  1  0  0  0  0
 62 61  3  0  0  0  0
 63 64  1  0  0  0  0
 64 65  1  0  0  0  0
M  END
>  <MODEL>
9

>  <REMARK>
 VINA RESULT:      -2.6      2.262      3.973
  Name = 
  21 active torsions:
  status: ('A' for Active; 'I' for Inactive)
    1  A    between atoms: C_1  and  C_53
    2  A    between atoms: C_3  and  C_7
    3  A    between atoms: C_4  and  C_61
    4  A    between atoms: N_5  and  C_38
    5  A    between atoms: C_6  and  C_51
    6  A    between atoms: C_9  and  C_26
    7  A    between atoms: C_19  and  C_41
    8  A    between atoms: C_19  and  O_50
    9  A    between atoms: C_21  and  O_55
   10  A    between atoms: C_21  and  C_60
   11  A    between atoms: C_25  and  C_35
   12  A    between atoms: C_27  and  C_47
   13  A    between atoms: C_27  and  O_55
   14  A    between atoms: N_28  and  C_48
   15  A    between atoms: N_28  and  C_60
   16  A    between atoms: C_33  and  O_58
   17  A    between atoms: C_35  and  C_47
   18  A    between atoms: C_44  and  C_52
   19  A    between atoms: C_46  and  O_58
   20  A    between atoms: C_47  and  O_50
   21  A    between atoms: C_48  and  C_57
                            x       y       z     vdW  Elec       q    Type
                         _______ _______ _______ _____ _____    ______ ____

>  <TORSDO>
F 21

$$$$
