=
 OpenBabel10232407443D

 36 38  0  0  1  0  0  0  0  0999 V2000
  188.3440  177.6930  138.0810 C   0  0  1  0  0  3  0  0  0  0  0  0
  187.0590  177.1710  138.5270 N   0  0  0  0  0  2  0  0  0  0  0  0
  189.1450  178.2420  139.2590 C   0  0  0  0  0  2  0  0  0  0  0  0
  186.3210  178.7010  141.3440 C   0  0  0  0  0  0  0  0  0  0  0  0
  188.4830  178.0670  142.2370 C   0  0  0  0  0  3  0  0  0  0  0  0
  185.7090  178.2410  142.5130 C   0  0  0  0  0  3  0  0  0  0  0  0
  185.0120  178.3230  139.2270 C   0  0  2  0  0  3  0  0  0  0  0  0
  185.5170  179.2050  140.2760 N   0  0  0  0  0  2  0  0  0  0  0  0
  186.0510  178.1390  138.1230 C   0  0  0  0  0  2  0  0  0  0  0  0
  187.8690  177.6060  143.4150 C   0  0  0  0  0  0  0  0  0  0  0  0
  187.7130  178.6240  141.2070 C   0  0  0  0  0  0  0  0  0  0  0  0
  186.4810  177.7010  143.5460 C   0  0  0  0  0  3  0  0  0  0  0  0
  188.3230  179.0950  140.0450 O   0  0  0  0  0  0  0  0  0  0  0  0
  181.6840  178.6370  137.2130 C   0  0  0  0  0  0  0  0  0  0  0  0
  182.9910  178.0350  137.6550 C   0  0  0  0  0  2  0  0  0  0  0  0
  181.3060  180.0020  137.6260 C   0  0  0  0  0  0  0  0  0  0  0  0
  183.3230  180.1050  139.0080 C   0  0  0  0  0  3  0  0  0  0  0  0
  180.9240  177.9680  136.4650 O   0  0  0  0  0  0  0  0  0  0  0  0
  183.7420  178.8780  138.6580 C   0  0  0  0  0  0  0  0  0  0  0  0
  180.0560  180.6360  137.1180 C   0  0  0  0  0  1  0  0  0  0  0  0
  182.0830  180.6840  138.4670 C   0  0  0  0  0  3  0  0  0  0  0  0
  188.6320  177.0420  144.4870 N   0  0  0  0  0  0  0  0  0  0  0  0
  188.7350  177.6000  145.6510 C   0  0  0  0  0  3  0  0  0  0  0  0
  189.5330  176.9570  146.7270 C   0  0  0  0  0  2  0  0  0  0  0  0
  190.8170  176.6120  146.2300 O   0  0  0  0  0  0  0  0  0  0  0  0
  191.8110  176.2350  147.0900 C   0  0  0  0  0  0  0  0  0  0  0  0
  192.6520  175.9200  147.8210 N   0  0  0  0  0  0  0  0  0  0  0  0
  188.7670  176.2190  136.2810 O   0  0  0  0  0  0  0  0  0  0  0  0
  189.1230  176.6250  137.3780 C   0  0  0  0  0  0  0  0  0  0  0  0
  190.3470  176.0630  138.0310 C   0  0  0  0  0  2  0  0  0  0  0  0
  191.5670  176.2570  137.1450 C   0  0  0  0  0  2  0  0  0  0  0  0
  192.8360  176.0370  137.9480 C   0  0  0  0  0  2  0  0  0  0  0  0
  194.1690  175.5680  136.8640 S   0  0  0  0  0  0  0  0  0  0  0  0
  195.3500  175.0930  137.6690 O   0  0  0  0  0  0  0  0  0  0  0  0
  193.6180  174.2660  135.7810 C   0  0  0  0  0  1  0  0  0  0  0  0
  194.5720  176.7580  136.0400 O   0  0  0  0  0  0  0  0  0  0  0  0
  1 29  1  1  0  0  0
  1  2  1  0  0  0  0
  1  3  1  0  0  0  0
  3 13  1  0  0  0  0
  4  6  1  0  0  0  0
  5 10  2  0  0  0  0
  6 12  2  0  0  0  0
  7 19  1  6  0  0  0
  7  8  1  0  0  0  0
  8  4  1  0  0  0  0
  9  2  1  0  0  0  0
  9  7  1  0  0  0  0
 10 12  1  0  0  0  0
 10 22  1  0  0  0  0
 11  4  2  0  0  0  0
 11  5  1  0  0  0  0
 13 11  1  0  0  0  0
 14 16  1  0  0  0  0
 14 15  1  0  0  0  0
 15 19  1  0  0  0  0
 16 21  2  0  0  0  0
 18 14  2  0  0  0  0
 19 17  2  0  0  0  0
 20 16  1  0  0  0  0
 21 17  1  0  0  0  0
 22 23  2  0  0  0  0
 23 24  1  0  0  0  0
 25 24  1  0  0  0  0
 25 26  1  0  0  0  0
 26 27  3  0  0  0  0
 28 29  2  0  0  0  0
 29 30  1  0  0  0  0
 31 32  1  0  0  0  0
 31 30  1  0  0  0  0
 33 34  2  0  0  0  0
 33 32  1  0  0  0  0
 35 33  1  0  0  0  0
 36 33  2  0  0  0  0
M  END
>  <MODEL>
1

>  <REMARK>
 VINA RESULT:      -7.6      0.000      0.000
  Name = 
  10 active torsions:
  status: ('A' for Active; 'I' for Inactive)
    1  A    between atoms: C_2  and  O_10
    2  A    between atoms: N_3  and  C_26
    3  A    between atoms: C_4  and  C_36
    4  A    between atoms: C_7  and  S_17
    5  A    between atoms: C_7  and  C_25
    6  A    between atoms: O_10  and  C_30
    7  A    between atoms: C_15  and  C_20
    8  A    between atoms: C_25  and  C_29
    9  A    between atoms: C_29  and  C_36
   10  A    between atoms: C_30  and  C_31
                            x       y       z     vdW  Elec       q    Type
                         _______ _______ _______ _____ _____    ______ ____

>  <TORSDO>
F 10

$$$$
=
 OpenBabel10232407443D

 36 38  0  0  1  0  0  0  0  0999 V2000
  185.8830  178.5710  142.6470 C   0  0  1  0  0  3  0  0  0  0  0  0
  186.6460  177.3420  142.8210 N   0  0  0  0  0  2  0  0  0  0  0  0
  186.2530  179.2590  141.3360 C   0  0  0  0  0  2  0  0  0  0  0  0
  189.3950  177.6550  141.0410 C   0  0  0  0  0  0  0  0  0  0  0  0
  188.0560  178.2160  139.1000 C   0  0  0  0  0  3  0  0  0  0  0  0
  190.1100  176.7310  140.2730 C   0  0  0  0  0  3  0  0  0  0  0  0
  188.9930  176.9810  143.4330 C   0  0  2  0  0  3  0  0  0  0  0  0
  189.6830  177.7910  142.4330 N   0  0  0  0  0  2  0  0  0  0  0  0
  187.6620  177.6180  143.8260 C   0  0  0  0  0  2  0  0  0  0  0  0
  188.7750  177.2890  138.3260 C   0  0  0  0  0  0  0  0  0  0  0  0
  188.3710  178.4080  140.4520 C   0  0  0  0  0  0  0  0  0  0  0  0
  189.8040  176.5530  138.9210 C   0  0  0  0  0  3  0  0  0  0  0  0
  187.6670  179.3390  141.2160 O   0  0  0  0  0  0  0  0  0  0  0  0
  190.2930  177.1160  147.1090 C   0  0  0  0  0  0  0  0  0  0  0  0
  189.4000  177.4260  145.9380 C   0  0  0  0  0  2  0  0  0  0  0  0
  191.5730  176.4100  146.9150 C   0  0  0  0  0  0  0  0  0  0  0  0
  191.0300  176.1530  144.5430 C   0  0  0  0  0  3  0  0  0  0  0  0
  189.9430  177.4890  148.2600 O   0  0  0  0  0  0  0  0  0  0  0  0
  189.8610  176.8060  144.6400 C   0  0  0  0  0  0  0  0  0  0  0  0
  192.5030  176.1820  148.0590 C   0  0  0  0  0  1  0  0  0  0  0  0
  191.9120  175.9640  145.7060 C   0  0  0  0  0  3  0  0  0  0  0  0
  188.4820  177.0790  136.9410 N   0  0  0  0  0  0  0  0  0  0  0  0
  187.6120  177.7810  136.2880 C   0  0  0  0  0  3  0  0  0  0  0  0
  187.3610  177.5210  134.8470 C   0  0  0  0  0  2  0  0  0  0  0  0
  185.9960  177.1840  134.6520 O   0  0  0  0  0  0  0  0  0  0  0  0
  185.5000  176.0070  135.1420 C   0  0  0  0  0  0  0  0  0  0  0  0
  185.0770  175.0120  135.5540 N   0  0  0  0  0  0  0  0  0  0  0  0
  183.7950  178.3450  143.7350 O   0  0  0  0  0  0  0  0  0  0  0  0
  184.4150  178.2790  142.6830 C   0  0  0  0  0  0  0  0  0  0  0  0
  183.7110  177.9120  141.4140 C   0  0  0  0  0  2  0  0  0  0  0  0
  182.4970  178.7990  141.1950 C   0  0  0  0  0  2  0  0  0  0  0  0
  181.8050  178.4290  139.8960 C   0  0  0  0  0  2  0  0  0  0  0  0
  182.6570  179.1690  138.5190 S   0  0  0  0  0  0  0  0  0  0  0  0
  183.5730  180.2630  139.0010 O   0  0  0  0  0  0  0  0  0  0  0  0
  183.6070  177.9210  137.6740 C   0  0  0  0  0  1  0  0  0  0  0  0
  181.6460  179.7460  137.5690 O   0  0  0  0  0  0  0  0  0  0  0  0
  1 29  1  6  0  0  0
  1  2  1  0  0  0  0
  2  9  1  0  0  0  0
  3  1  1  0  0  0  0
  4  8  1  0  0  0  0
  5 11  2  0  0  0  0
  6  4  2  0  0  0  0
  7  9  1  0  0  0  0
  7 19  1  1  0  0  0
  8  7  1  0  0  0  0
 10 12  2  0  0  0  0
 10  5  1  0  0  0  0
 11  4  1  0  0  0  0
 11 13  1  0  0  0  0
 12  6  1  0  0  0  0
 13  3  1  0  0  0  0
 14 18  2  0  0  0  0
 15 14  1  0  0  0  0
 16 14  1  0  0  0  0
 16 20  1  0  0  0  0
 17 19  2  0  0  0  0
 17 21  1  0  0  0  0
 19 15  1  0  0  0  0
 21 16  2  0  0  0  0
 22 10  1  0  0  0  0
 23 22  2  0  0  0  0
 24 23  1  0  0  0  0
 25 24  1  0  0  0  0
 25 26  1  0  0  0  0
 26 27  3  0  0  0  0
 29 28  2  0  0  0  0
 30 29  1  0  0  0  0
 31 30  1  0  0  0  0
 32 31  1  0  0  0  0
 33 34  2  0  0  0  0
 33 32  1  0  0  0  0
 35 33  1  0  0  0  0
 36 33  2  0  0  0  0
M  END
>  <MODEL>
2

>  <REMARK>
 VINA RESULT:      -7.5      3.767      9.873
  Name = 
  10 active torsions:
  status: ('A' for Active; 'I' for Inactive)
    1  A    between atoms: C_2  and  O_10
    2  A    between atoms: N_3  and  C_26
    3  A    between atoms: C_4  and  C_36
    4  A    between atoms: C_7  and  S_17
    5  A    between atoms: C_7  and  C_25
    6  A    between atoms: O_10  and  C_30
    7  A    between atoms: C_15  and  C_20
    8  A    between atoms: C_25  and  C_29
    9  A    between atoms: C_29  and  C_36
   10  A    between atoms: C_30  and  C_31
                            x       y       z     vdW  Elec       q    Type
                         _______ _______ _______ _____ _____    ______ ____

>  <TORSDO>
F 10

$$$$
=
 OpenBabel10232407443D

 36 38  0  0  1  0  0  0  0  0999 V2000
  183.0310  178.5790  140.7580 C   0  0  1  0  0  3  0  0  0  0  0  0
  183.9280  177.5790  141.3220 N   0  0  0  0  0  2  0  0  0  0  0  0
  183.6570  179.2440  139.5360 C   0  0  0  0  0  2  0  0  0  0  0  0
  186.9810  178.4060  140.4180 C   0  0  0  0  0  0  0  0  0  0  0  0
  186.2550  178.5030  138.1080 C   0  0  0  0  0  3  0  0  0  0  0  0
  188.0760  177.6250  140.0360 C   0  0  0  0  0  3  0  0  0  0  0  0
  185.9740  177.8220  142.6510 C   0  0  2  0  0  3  0  0  0  0  0  0
  186.7720  178.7020  141.8000 N   0  0  0  0  0  2  0  0  0  0  0  0
  184.4880  178.1550  142.5350 C   0  0  0  0  0  2  0  0  0  0  0  0
  187.3570  177.7200  137.7210 C   0  0  0  0  0  0  0  0  0  0  0  0
  186.0720  178.8560  139.4510 C   0  0  0  0  0  0  0  0  0  0  0  0
  188.2650  177.2880  138.6930 C   0  0  0  0  0  3  0  0  0  0  0  0
  184.9880  179.6450  139.8330 O   0  0  0  0  0  0  0  0  0  0  0  0
  186.0390  178.6980  146.4520 C   0  0  0  0  0  0  0  0  0  0  0  0
  185.5490  178.7160  145.0290 C   0  0  0  0  0  2  0  0  0  0  0  0
  187.3460  178.1030  146.7920 C   0  0  0  0  0  0  0  0  0  0  0  0
  187.5920  177.4010  144.4600 C   0  0  0  0  0  3  0  0  0  0  0  0
  185.3270  179.2200  147.3510 O   0  0  0  0  0  0  0  0  0  0  0  0
  186.4240  177.9390  144.0740 C   0  0  0  0  0  0  0  0  0  0  0  0
  187.8750  178.1640  148.1850 C   0  0  0  0  0  1  0  0  0  0  0  0
  188.0680  177.4990  145.8490 C   0  0  0  0  0  3  0  0  0  0  0  0
  187.5740  177.3520  136.3550 N   0  0  0  0  0  0  0  0  0  0  0  0
  188.6720  176.8090  135.9350 C   0  0  0  0  0  3  0  0  0  0  0  0
  188.8310  176.4400  134.5040 C   0  0  0  0  0  2  0  0  0  0  0  0
  188.9230  175.0290  134.3820 O   0  0  0  0  0  0  0  0  0  0  0  0
  187.9120  174.2300  134.8410 C   0  0  0  0  0  0  0  0  0  0  0  0
  187.0530  173.5560  135.2280 N   0  0  0  0  0  0  0  0  0  0  0  0
  180.7890  177.9600  141.1870 O   0  0  0  0  0  0  0  0  0  0  0  0
  181.7200  177.9540  140.3950 C   0  0  0  0  0  0  0  0  0  0  0  0
  181.5590  177.3270  139.0450 C   0  0  0  0  0  2  0  0  0  0  0  0
  182.1760  175.9380  139.0200 C   0  0  0  0  0  2  0  0  0  0  0  0
  183.3940  175.9230  138.1150 C   0  0  0  0  0  2  0  0  0  0  0  0
  183.4450  174.4050  137.1850 S   0  0  0  0  0  0  0  0  0  0  0  0
  184.4400  173.4550  137.7970 O   0  0  0  0  0  0  0  0  0  0  0  0
  181.8270  173.6610  137.1830 C   0  0  0  0  0  1  0  0  0  0  0  0
  183.8500  174.7100  135.7710 O   0  0  0  0  0  0  0  0  0  0  0  0
  1 29  1  6  0  0  0
  1  2  1  0  0  0  0
  2  9  1  0  0  0  0
  3 13  1  0  0  0  0
  3  1  1  0  0  0  0
  4  8  1  0  0  0  0
  5 11  1  0  0  0  0
  6  4  1  0  0  0  0
  7 19  1  1  0  0  0
  8  7  1  0  0  0  0
  9  7  1  0  0  0  0
 10  5  2  0  0  0  0
 10 12  1  0  0  0  0
 11 13  1  0  0  0  0
 11  4  2  0  0  0  0
 12  6  2  0  0  0  0
 14 16  1  0  0  0  0
 14 18  2  0  0  0  0
 15 14  1  0  0  0  0
 16 20  1  0  0  0  0
 17 21  1  0  0  0  0
 19 17  2  0  0  0  0
 19 15  1  0  0  0  0
 21 16  2  0  0  0  0
 22 10  1  0  0  0  0
 23 22  2  0  0  0  0
 24 23  1  0  0  0  0
 25 24  1  0  0  0  0
 25 26  1  0  0  0  0
 26 27  3  0  0  0  0
 29 28  2  0  0  0  0
 30 29  1  0  0  0  0
 31 30  1  0  0  0  0
 32 31  1  0  0  0  0
 33 34  2  0  0  0  0
 33 32  1  0  0  0  0
 35 33  1  0  0  0  0
 36 33  2  0  0  0  0
M  END
>  <MODEL>
3

>  <REMARK>
 VINA RESULT:      -7.2      3.836      8.801
  Name = 
  10 active torsions:
  status: ('A' for Active; 'I' for Inactive)
    1  A    between atoms: C_2  and  O_10
    2  A    between atoms: N_3  and  C_26
    3  A    between atoms: C_4  and  C_36
    4  A    between atoms: C_7  and  S_17
    5  A    between atoms: C_7  and  C_25
    6  A    between atoms: O_10  and  C_30
    7  A    between atoms: C_15  and  C_20
    8  A    between atoms: C_25  and  C_29
    9  A    between atoms: C_29  and  C_36
   10  A    between atoms: C_30  and  C_31
                            x       y       z     vdW  Elec       q    Type
                         _______ _______ _______ _____ _____    ______ ____

>  <TORSDO>
F 10

$$$$
=
 OpenBabel10232407443D

 36 38  0  0  1  0  0  0  0  0999 V2000
  188.2320  177.8070  138.1820 C   0  0  1  0  0  3  0  0  0  0  0  0
  186.9320  177.2710  138.5650 N   0  0  0  0  0  2  0  0  0  0  0  0
  188.9890  178.3210  139.4030 C   0  0  0  0  0  2  0  0  0  0  0  0
  186.0910  178.7170  141.3980 C   0  0  0  0  0  0  0  0  0  0  0  0
  188.2200  178.0570  142.3500 C   0  0  0  0  0  3  0  0  0  0  0  0
  185.4380  178.2220  142.5310 C   0  0  0  0  0  3  0  0  0  0  0  0
  184.8590  178.4020  139.2250 C   0  0  2  0  0  3  0  0  0  0  0  0
  185.3250  179.2520  140.3180 N   0  0  0  0  0  2  0  0  0  0  0  0
  185.9380  178.2510  138.1550 C   0  0  0  0  0  2  0  0  0  0  0  0
  187.5660  177.5620  143.4900 C   0  0  0  0  0  0  0  0  0  0  0  0
  187.4880  178.6450  141.3100 C   0  0  0  0  0  0  0  0  0  0  0  0
  186.1730  177.6520  143.5740 C   0  0  0  0  0  3  0  0  0  0  0  0
  188.1380  179.1510  140.1840 O   0  0  0  0  0  0  0  0  0  0  0  0
  181.5830  178.7590  137.1360 C   0  0  0  0  0  0  0  0  0  0  0  0
  182.8710  178.1390  137.6080 C   0  0  0  0  0  2  0  0  0  0  0  0
  181.2130  180.1280  137.5410 C   0  0  0  0  0  0  0  0  0  0  0  0
  183.2000  180.2050  138.9680 C   0  0  0  0  0  3  0  0  0  0  0  0
  180.8310  178.0990  136.3700 O   0  0  0  0  0  0  0  0  0  0  0  0
  183.6100  178.9730  138.6280 C   0  0  0  0  0  0  0  0  0  0  0  0
  179.9830  180.7780  137.0050 C   0  0  0  0  0  1  0  0  0  0  0  0
  181.9790  180.8000  138.4000 C   0  0  0  0  0  3  0  0  0  0  0  0
  188.2900  176.9660  144.5720 N   0  0  0  0  0  0  0  0  0  0  0  0
  188.9160  177.6570  145.4690 C   0  0  0  0  0  3  0  0  0  0  0  0
  189.6400  176.9790  146.5750 C   0  0  0  0  0  2  0  0  0  0  0  0
  190.9920  176.7630  146.2000 O   0  0  0  0  0  0  0  0  0  0  0  0
  191.8890  176.2710  147.1080 C   0  0  0  0  0  0  0  0  0  0  0  0
  192.6480  175.8500  147.8740 N   0  0  0  0  0  0  0  0  0  0  0  0
  189.6640  175.9260  138.1120 O   0  0  0  0  0  0  0  0  0  0  0  0
  189.0370  176.7610  137.4760 C   0  0  0  0  0  0  0  0  0  0  0  0
  189.0610  176.7440  135.9790 C   0  0  0  0  0  2  0  0  0  0  0  0
  187.8730  175.9720  135.4290 C   0  0  0  0  0  2  0  0  0  0  0  0
  188.2750  174.5410  135.1230 C   0  0  0  0  0  2  0  0  0  0  0  0
  187.5320  173.4330  136.3020 S   0  0  0  0  0  0  0  0  0  0  0  0
  186.5920  174.1880  137.2040 O   0  0  0  0  0  0  0  0  0  0  0  0
  186.6370  172.1620  135.4320 C   0  0  0  0  0  1  0  0  0  0  0  0
  188.6140  172.7970  137.1270 O   0  0  0  0  0  0  0  0  0  0  0  0
  1 29  1  1  0  0  0
  1  2  1  0  0  0  0
  1  3  1  0  0  0  0
  3 13  1  0  0  0  0
  4  6  1  0  0  0  0
  5 10  2  0  0  0  0
  6 12  2  0  0  0  0
  7 19  1  6  0  0  0
  7  8  1  0  0  0  0
  8  4  1  0  0  0  0
  9  2  1  0  0  0  0
  9  7  1  0  0  0  0
 10 12  1  0  0  0  0
 10 22  1  0  0  0  0
 11  4  2  0  0  0  0
 11  5  1  0  0  0  0
 13 11  1  0  0  0  0
 14 16  1  0  0  0  0
 14 15  1  0  0  0  0
 15 19  1  0  0  0  0
 16 21  2  0  0  0  0
 18 14  2  0  0  0  0
 19 17  2  0  0  0  0
 20 16  1  0  0  0  0
 21 17  1  0  0  0  0
 22 23  2  0  0  0  0
 23 24  1  0  0  0  0
 25 24  1  0  0  0  0
 25 26  1  0  0  0  0
 26 27  3  0  0  0  0
 29 28  2  0  0  0  0
 30 29  1  0  0  0  0
 31 30  1  0  0  0  0
 32 31  1  0  0  0  0
 32 33  1  0  0  0  0
 33 36  2  0  0  0  0
 33 34  2  0  0  0  0
 35 33  1  0  0  0  0
M  END
>  <MODEL>
4

>  <REMARK>
 VINA RESULT:      -7.2      2.162      2.848
  Name = 
  10 active torsions:
  status: ('A' for Active; 'I' for Inactive)
    1  A    between atoms: C_2  and  O_10
    2  A    between atoms: N_3  and  C_26
    3  A    between atoms: C_4  and  C_36
    4  A    between atoms: C_7  and  S_17
    5  A    between atoms: C_7  and  C_25
    6  A    between atoms: O_10  and  C_30
    7  A    between atoms: C_15  and  C_20
    8  A    between atoms: C_25  and  C_29
    9  A    between atoms: C_29  and  C_36
   10  A    between atoms: C_30  and  C_31
                            x       y       z     vdW  Elec       q    Type
                         _______ _______ _______ _____ _____    ______ ____

>  <TORSDO>
F 10

$$$$
=
 OpenBabel10232407443D

 36 38  0  0  1  0  0  0  0  0999 V2000
  183.9570  178.7350  141.3220 C   0  0  1  0  0  3  0  0  0  0  0  0
  184.7100  177.6400  141.9200 N   0  0  0  0  0  2  0  0  0  0  0  0
  184.6910  179.3010  140.1100 C   0  0  0  0  0  2  0  0  0  0  0  0
  187.8640  178.0760  141.0920 C   0  0  0  0  0  0  0  0  0  0  0  0
  187.2150  178.2290  138.7620 C   0  0  0  0  0  3  0  0  0  0  0  0
  188.8650  177.1610  140.7480 C   0  0  0  0  0  3  0  0  0  0  0  0
  186.7350  177.6490  143.3020 C   0  0  2  0  0  3  0  0  0  0  0  0
  187.6570  178.4130  142.4640 N   0  0  0  0  0  2  0  0  0  0  0  0
  185.3050  178.1590  143.1420 C   0  0  0  0  0  2  0  0  0  0  0  0
  188.2220  177.3120  138.4130 C   0  0  0  0  0  0  0  0  0  0  0  0
  187.0420  178.6200  140.0960 C   0  0  0  0  0  0  0  0  0  0  0  0
  189.0450  176.7860  139.4130 C   0  0  0  0  0  3  0  0  0  0  0  0
  186.0530  179.5410  140.4400 O   0  0  0  0  0  0  0  0  0  0  0  0
  188.9190  177.4840  146.5300 C   0  0  0  0  0  0  0  0  0  0  0  0
  188.5590  177.2800  145.0840 C   0  0  0  0  0  2  0  0  0  0  0  0
  187.9050  177.9280  147.5040 C   0  0  0  0  0  0  0  0  0  0  0  0
  186.2950  178.1480  145.6740 C   0  0  0  0  0  3  0  0  0  0  0  0
  190.0980  177.2480  146.9060 O   0  0  0  0  0  0  0  0  0  0  0  0
  187.1590  177.7290  144.7350 C   0  0  0  0  0  0  0  0  0  0  0  0
  188.2360  178.0450  148.9540 C   0  0  0  0  0  1  0  0  0  0  0  0
  186.6750  178.2360  147.0930 C   0  0  0  0  0  3  0  0  0  0  0  0
  188.4280  176.9030  137.0570 N   0  0  0  0  0  0  0  0  0  0  0  0
  188.7180  175.6870  136.7220 C   0  0  0  0  0  3  0  0  0  0  0  0
  188.9080  175.3230  135.2940 C   0  0  0  0  0  2  0  0  0  0  0  0
  187.9890  174.3030  134.9340 O   0  0  0  0  0  0  0  0  0  0  0  0
  186.6430  174.5100  135.0660 C   0  0  0  0  0  0  0  0  0  0  0  0
  185.5040  174.6870  135.1740 N   0  0  0  0  0  0  0  0  0  0  0  0
  181.6500  178.3810  141.7040 O   0  0  0  0  0  0  0  0  0  0  0  0
  182.5890  178.2700  140.9290 C   0  0  0  0  0  0  0  0  0  0  0  0
  182.3820  177.6730  139.5720 C   0  0  0  0  0  2  0  0  0  0  0  0
  182.5090  176.1590  139.6250 C   0  0  0  0  0  2  0  0  0  0  0  0
  183.1320  175.6400  138.3420 C   0  0  0  0  0  2  0  0  0  0  0  0
  181.8970  174.8260  137.3510 S   0  0  0  0  0  0  0  0  0  0  0  0
  180.7650  174.3490  138.2210 O   0  0  0  0  0  0  0  0  0  0  0  0
  181.2770  175.9640  136.1290 C   0  0  0  0  0  1  0  0  0  0  0  0
  182.5230  173.6500  136.6560 O   0  0  0  0  0  0  0  0  0  0  0  0
  1 29  1  6  0  0  0
  1  2  1  0  0  0  0
  2  9  1  0  0  0  0
  3 13  1  0  0  0  0
  3  1  1  0  0  0  0
  4  8  1  0  0  0  0
  5 11  1  0  0  0  0
  6  4  1  0  0  0  0
  7 19  1  1  0  0  0
  8  7  1  0  0  0  0
  9  7  1  0  0  0  0
 10  5  2  0  0  0  0
 10 12  1  0  0  0  0
 11 13  1  0  0  0  0
 11  4  2  0  0  0  0
 12  6  2  0  0  0  0
 14 18  2  0  0  0  0
 14 16  1  0  0  0  0
 15 14  1  0  0  0  0
 16 20  1  0  0  0  0
 17 21  1  0  0  0  0
 19 15  1  0  0  0  0
 19 17  2  0  0  0  0
 21 16  2  0  0  0  0
 22 10  1  0  0  0  0
 23 22  2  0  0  0  0
 24 23  1  0  0  0  0
 25 26  1  0  0  0  0
 25 24  1  0  0  0  0
 26 27  3  0  0  0  0
 29 28  2  0  0  0  0
 30 31  1  0  0  0  0
 30 29  1  0  0  0  0
 32 31  1  0  0  0  0
 33 34  2  0  0  0  0
 33 32  1  0  0  0  0
 35 33  1  0  0  0  0
 36 33  2  0  0  0  0
M  END
>  <MODEL>
5

>  <REMARK>
 VINA RESULT:      -7.1      3.755      9.237
  Name = 
  10 active torsions:
  status: ('A' for Active; 'I' for Inactive)
    1  A    between atoms: C_2  and  O_10
    2  A    between atoms: N_3  and  C_26
    3  A    between atoms: C_4  and  C_36
    4  A    between atoms: C_7  and  S_17
    5  A    between atoms: C_7  and  C_25
    6  A    between atoms: O_10  and  C_30
    7  A    between atoms: C_15  and  C_20
    8  A    between atoms: C_25  and  C_29
    9  A    between atoms: C_29  and  C_36
   10  A    between atoms: C_30  and  C_31
                            x       y       z     vdW  Elec       q    Type
                         _______ _______ _______ _____ _____    ______ ____

>  <TORSDO>
F 10

$$$$
=
 OpenBabel10232407443D

 36 38  0  0  1  0  0  0  0  0999 V2000
  186.0130  178.0190  143.6640 C   0  0  1  0  0  3  0  0  0  0  0  0
  186.9390  178.7680  142.8240 N   0  0  0  0  0  2  0  0  0  0  0  0
  186.7460  176.9350  144.4490 C   0  0  0  0  0  2  0  0  0  0  0  0
  189.5210  176.8100  142.2540 C   0  0  0  0  0  0  0  0  0  0  0  0
  189.7580  176.4540  144.6390 C   0  0  0  0  0  3  0  0  0  0  0  0
  190.8890  177.0860  142.1640 C   0  0  0  0  0  3  0  0  0  0  0  0
  188.0500  178.1650  140.7230 C   0  0  2  0  0  3  0  0  0  0  0  0
  188.7020  176.9090  141.0880 N   0  0  0  0  0  2  0  0  0  0  0  0
  186.7200  178.3210  141.4570 C   0  0  0  0  0  2  0  0  0  0  0  0
  191.1340  176.7280  144.5510 C   0  0  0  0  0  0  0  0  0  0  0  0
  188.9540  176.4830  143.4920 C   0  0  0  0  0  0  0  0  0  0  0  0
  191.6920  177.0400  143.3070 C   0  0  0  0  0  3  0  0  0  0  0  0
  187.5910  176.1960  143.5770 O   0  0  0  0  0  0  0  0  0  0  0  0
  188.7380  178.1770  136.8830 C   0  0  0  0  0  0  0  0  0  0  0  0
  189.0590  178.2100  138.3530 C   0  0  0  0  0  2  0  0  0  0  0  0
  187.3480  178.3150  136.4110 C   0  0  0  0  0  0  0  0  0  0  0  0
  186.5960  178.3240  138.7410 C   0  0  0  0  0  3  0  0  0  0  0  0
  189.6790  178.0520  136.0550 O   0  0  0  0  0  0  0  0  0  0  0  0
  187.8370  178.2220  139.2430 C   0  0  0  0  0  0  0  0  0  0  0  0
  187.0360  178.3740  134.9540 C   0  0  0  0  0  1  0  0  0  0  0  0
  186.3490  178.3860  137.2910 C   0  0  0  0  0  3  0  0  0  0  0  0
  191.9820  176.6960  145.7040 N   0  0  0  0  0  0  0  0  0  0  0  0
  191.8870  175.7920  146.6260 C   0  0  0  0  0  3  0  0  0  0  0  0
  192.8060  175.8060  147.7930 C   0  0  0  0  0  2  0  0  0  0  0  0
  192.4790  176.8940  148.6450 O   0  0  0  0  0  0  0  0  0  0  0  0
  193.3310  177.2630  149.6500 C   0  0  0  0  0  0  0  0  0  0  0  0
  194.0550  177.5710  150.5000 N   0  0  0  0  0  0  0  0  0  0  0  0
  185.5840  178.9680  145.7870 O   0  0  0  0  0  0  0  0  0  0  0  0
  185.2970  178.9420  144.5990 C   0  0  0  0  0  0  0  0  0  0  0  0
  184.2270  179.8410  144.0620 C   0  0  0  0  0  2  0  0  0  0  0  0
  182.8680  179.1640  144.1340 C   0  0  0  0  0  2  0  0  0  0  0  0
  182.3790  178.8200  142.7390 C   0  0  0  0  0  2  0  0  0  0  0  0
  180.6050  178.9490  142.6650 S   0  0  0  0  0  0  0  0  0  0  0  0
  180.2020  180.3530  142.2990 O   0  0  0  0  0  0  0  0  0  0  0  0
  179.9820  177.8080  141.4480 C   0  0  0  0  0  1  0  0  0  0  0  0
  180.0310  178.5990  144.0090 O   0  0  0  0  0  0  0  0  0  0  0  0
  1  3  1  0  0  0  0
  1 29  1  1  0  0  0
  2  1  1  0  0  0  0
  4 11  1  0  0  0  0
  6  4  2  0  0  0  0
  6 12  1  0  0  0  0
  7 19  1  6  0  0  0
  7  8  1  0  0  0  0
  7  9  1  0  0  0  0
  8  4  1  0  0  0  0
  9  2  1  0  0  0  0
 10  5  1  0  0  0  0
 10 22  1  0  0  0  0
 11 13  1  0  0  0  0
 11  5  2  0  0  0  0
 12 10  2  0  0  0  0
 13  3  1  0  0  0  0
 14 15  1  0  0  0  0
 15 19  1  0  0  0  0
 16 14  1  0  0  0  0
 16 21  2  0  0  0  0
 17 19  2  0  0  0  0
 18 14  2  0  0  0  0
 20 16  1  0  0  0  0
 21 17  1  0  0  0  0
 22 23  2  0  0  0  0
 23 24  1  0  0  0  0
 24 25  1  0  0  0  0
 25 26  1  0  0  0  0
 26 27  3  0  0  0  0
 29 28  2  0  0  0  0
 30 31  1  0  0  0  0
 30 29  1  0  0  0  0
 32 31  1  0  0  0  0
 33 32  1  0  0  0  0
 33 36  2  0  0  0  0
 34 33  2  0  0  0  0
 35 33  1  0  0  0  0
M  END
>  <MODEL>
6

>  <REMARK>
 VINA RESULT:      -7.1      4.179      7.828
  Name = 
  10 active torsions:
  status: ('A' for Active; 'I' for Inactive)
    1  A    between atoms: C_2  and  O_10
    2  A    between atoms: N_3  and  C_26
    3  A    between atoms: C_4  and  C_36
    4  A    between atoms: C_7  and  S_17
    5  A    between atoms: C_7  and  C_25
    6  A    between atoms: O_10  and  C_30
    7  A    between atoms: C_15  and  C_20
    8  A    between atoms: C_25  and  C_29
    9  A    between atoms: C_29  and  C_36
   10  A    between atoms: C_30  and  C_31
                            x       y       z     vdW  Elec       q    Type
                         _______ _______ _______ _____ _____    ______ ____

>  <TORSDO>
F 10

$$$$
=
 OpenBabel10232407443D

 36 38  0  0  1  0  0  0  0  0999 V2000
  190.3050  176.9100  144.4470 C   0  0  1  0  0  3  0  0  0  0  0  0
  189.6080  178.0530  143.8710 N   0  0  0  0  0  2  0  0  0  0  0  0
  190.8690  176.0100  143.3520 C   0  0  0  0  0  2  0  0  0  0  0  0
  188.6590  177.1780  140.8450 C   0  0  0  0  0  0  0  0  0  0  0  0
  190.9350  176.5180  140.3390 C   0  0  0  0  0  3  0  0  0  0  0  0
  188.6070  177.8990  139.6480 C   0  0  0  0  0  3  0  0  0  0  0  0
  187.4210  178.2170  142.7770 C   0  0  2  0  0  3  0  0  0  0  0  0
  187.5400  177.2010  141.7320 N   0  0  0  0  0  2  0  0  0  0  0  0
  188.1850  177.8000  144.0310 C   0  0  0  0  0  2  0  0  0  0  0  0
  190.8840  177.2390  139.1340 C   0  0  0  0  0  0  0  0  0  0  0  0
  189.8220  176.4770  141.1890 C   0  0  0  0  0  0  0  0  0  0  0  0
  189.7130  177.9240  138.7940 C   0  0  0  0  0  3  0  0  0  0  0  0
  189.8670  175.7490  142.3780 O   0  0  0  0  0  0  0  0  0  0  0  0
  184.1330  178.8590  144.7760 C   0  0  0  0  0  0  0  0  0  0  0  0
  185.5840  178.5280  144.5560 C   0  0  0  0  0  2  0  0  0  0  0  0
  183.1950  178.9260  143.6400 C   0  0  0  0  0  0  0  0  0  0  0  0
  185.0710  178.5480  142.1150 C   0  0  0  0  0  3  0  0  0  0  0  0
  183.7210  179.0560  145.9500 O   0  0  0  0  0  0  0  0  0  0  0  0
  185.9780  178.4530  143.1000 C   0  0  0  0  0  0  0  0  0  0  0  0
  181.7390  179.1640  143.8620 C   0  0  0  0  0  1  0  0  0  0  0  0
  183.6440  178.7770  142.3940 C   0  0  0  0  0  3  0  0  0  0  0  0
  192.0030  177.2900  138.2410 N   0  0  0  0  0  0  0  0  0  0  0  0
  192.2960  176.3330  137.4200 C   0  0  0  0  0  3  0  0  0  0  0  0
  193.4640  176.4520  136.5100 C   0  0  0  0  0  2  0  0  0  0  0  0
  194.6210  175.9340  137.1470 O   0  0  0  0  0  0  0  0  0  0  0  0
  194.6190  174.6640  137.6550 C   0  0  0  0  0  0  0  0  0  0  0  0
  194.6170  173.5870  138.0800 N   0  0  0  0  0  0  0  0  0  0  0  0
  191.9850  178.4270  145.1350 O   0  0  0  0  0  0  0  0  0  0  0  0
  191.4020  177.3740  145.3540 C   0  0  0  0  0  0  0  0  0  0  0  0
  191.7760  176.5370  146.5370 C   0  0  0  0  0  2  0  0  0  0  0  0
  190.5880  176.3610  147.4690 C   0  0  0  0  0  2  0  0  0  0  0  0
  190.0110  177.7140  147.8420 C   0  0  0  0  0  2  0  0  0  0  0  0
  188.2360  177.6140  147.9440 S   0  0  0  0  0  0  0  0  0  0  0  0
  187.8150  177.2830  149.3510 O   0  0  0  0  0  0  0  0  0  0  0  0
  187.5280  179.1740  147.4570 C   0  0  0  0  0  1  0  0  0  0  0  0
  187.7510  176.5390  147.0120 O   0  0  0  0  0  0  0  0  0  0  0  0
  1 29  1  1  0  0  0
  2  9  1  0  0  0  0
  2  1  1  0  0  0  0
  3  1  1  0  0  0  0
  4 11  1  0  0  0  0
  4  8  1  0  0  0  0
  5 11  2  0  0  0  0
  6  4  2  0  0  0  0
  7 19  1  1  0  0  0
  7  9  1  0  0  0  0
  8  7  1  0  0  0  0
 10  5  1  0  0  0  0
 11 13  1  0  0  0  0
 12 10  2  0  0  0  0
 12  6  1  0  0  0  0
 13  3  1  0  0  0  0
 14 18  2  0  0  0  0
 15 14  1  0  0  0  0
 16 20  1  0  0  0  0
 16 14  1  0  0  0  0
 17 21  1  0  0  0  0
 17 19  2  0  0  0  0
 19 15  1  0  0  0  0
 21 16  2  0  0  0  0
 22 10  1  0  0  0  0
 23 22  2  0  0  0  0
 24 25  1  0  0  0  0
 24 23  1  0  0  0  0
 25 26  1  0  0  0  0
 26 27  3  0  0  0  0
 28 29  2  0  0  0  0
 29 30  1  0  0  0  0
 30 31  1  0  0  0  0
 31 32  1  0  0  0  0
 32 33  1  0  0  0  0
 33 34  2  0  0  0  0
 35 33  1  0  0  0  0
 36 33  2  0  0  0  0
M  END
>  <MODEL>
7

>  <REMARK>
 VINA RESULT:      -6.9      4.085      8.167
  Name = 
  10 active torsions:
  status: ('A' for Active; 'I' for Inactive)
    1  A    between atoms: C_2  and  O_10
    2  A    between atoms: N_3  and  C_26
    3  A    between atoms: C_4  and  C_36
    4  A    between atoms: C_7  and  S_17
    5  A    between atoms: C_7  and  C_25
    6  A    between atoms: O_10  and  C_30
    7  A    between atoms: C_15  and  C_20
    8  A    between atoms: C_25  and  C_29
    9  A    between atoms: C_29  and  C_36
   10  A    between atoms: C_30  and  C_31
                            x       y       z     vdW  Elec       q    Type
                         _______ _______ _______ _____ _____    ______ ____

>  <TORSDO>
F 10

$$$$
=
 OpenBabel10232407443D

 36 38  0  0  1  0  0  0  0  0999 V2000
  189.5900  177.4110  141.0590 C   0  0  1  0  0  3  0  0  0  0  0  0
  189.7160  176.3090  140.1140 N   0  0  0  0  0  2  0  0  0  0  0  0
  188.4900  178.3760  140.6250 C   0  0  0  0  0  2  0  0  0  0  0  0
  188.5490  177.3760  137.2290 C   0  0  0  0  0  0  0  0  0  0  0  0
  186.4990  178.0590  138.3280 C   0  0  0  0  0  3  0  0  0  0  0  0
  187.7980  176.7330  136.2400 C   0  0  0  0  0  3  0  0  0  0  0  0
  190.6950  176.2230  137.8680 C   0  0  2  0  0  3  0  0  0  0  0  0
  189.9750  177.3020  137.1940 N   0  0  0  0  0  2  0  0  0  0  0  0
  190.9230  176.5580  139.3400 C   0  0  0  0  0  2  0  0  0  0  0  0
  185.7430  177.4150  137.3340 C   0  0  0  0  0  0  0  0  0  0  0  0
  187.8990  178.0500  138.2720 C   0  0  0  0  0  0  0  0  0  0  0  0
  186.4020  176.7570  136.2900 C   0  0  0  0  0  3  0  0  0  0  0  0
  188.6500  178.7020  139.2500 O   0  0  0  0  0  0  0  0  0  0  0  0
  194.4560  175.3820  137.2650 C   0  0  0  0  0  0  0  0  0  0  0  0
  193.2130  175.7120  138.0460 C   0  0  0  0  0  2  0  0  0  0  0  0
  194.4710  175.4830  135.7930 C   0  0  0  0  0  0  0  0  0  0  0  0
  192.0850  176.0250  135.8430 C   0  0  0  0  0  3  0  0  0  0  0  0
  195.4960  175.0380  137.8860 O   0  0  0  0  0  0  0  0  0  0  0  0
  192.0020  175.9730  137.1820 C   0  0  0  0  0  0  0  0  0  0  0  0
  195.7240  175.2440  135.0220 C   0  0  0  0  0  1  0  0  0  0  0  0
  193.3530  175.7880  135.1350 C   0  0  0  0  0  3  0  0  0  0  0  0
  184.3110  177.4160  137.3600 N   0  0  0  0  0  0  0  0  0  0  0  0
  183.6240  177.7720  138.3980 C   0  0  0  0  0  3  0  0  0  0  0  0
  182.1390  177.7630  138.3580 C   0  0  0  0  0  2  0  0  0  0  0  0
  181.6270  177.5680  139.6670 O   0  0  0  0  0  0  0  0  0  0  0  0
  182.1890  178.2180  140.7310 C   0  0  0  0  0  0  0  0  0  0  0  0
  182.6690  178.7710  141.6280 N   0  0  0  0  0  0  0  0  0  0  0  0
  189.8590  175.8740  142.8360 O   0  0  0  0  0  0  0  0  0  0  0  0
  189.3070  176.8870  142.4330 C   0  0  0  0  0  0  0  0  0  0  0  0
  188.3420  177.6210  143.3110 C   0  0  0  0  0  2  0  0  0  0  0  0
  188.4010  177.0940  144.7350 C   0  0  0  0  0  2  0  0  0  0  0  0
  189.2030  178.0390  145.6100 C   0  0  0  0  0  2  0  0  0  0  0  0
  189.4410  177.3230  147.2230 S   0  0  0  0  0  0  0  0  0  0  0  0
  188.3870  176.2810  147.4890 O   0  0  0  0  0  0  0  0  0  0  0  0
  191.0560  176.5780  147.3040 C   0  0  0  0  0  1  0  0  0  0  0  0
  189.3450  178.4070  148.2600 O   0  0  0  0  0  0  0  0  0  0  0  0
  1 29  1  1  0  0  0
  2  1  1  0  0  0  0
  3  1  1  0  0  0  0
  4 11  1  0  0  0  0
  6 12  1  0  0  0  0
  6  4  2  0  0  0  0
  7 19  1  6  0  0  0
  7  9  1  0  0  0  0
  8  4  1  0  0  0  0
  8  7  1  0  0  0  0
  9  2  1  0  0  0  0
 10 22  1  0  0  0  0
 10  5  1  0  0  0  0
 11  5  2  0  0  0  0
 11 13  1  0  0  0  0
 12 10  2  0  0  0  0
 13  3  1  0  0  0  0
 14 18  2  0  0  0  0
 14 15  1  0  0  0  0
 16 14  1  0  0  0  0
 17 19  2  0  0  0  0
 19 15  1  0  0  0  0
 20 16  1  0  0  0  0
 21 16  2  0  0  0  0
 21 17  1  0  0  0  0
 22 23  2  0  0  0  0
 24 23  1  0  0  0  0
 24 25  1  0  0  0  0
 25 26  1  0  0  0  0
 26 27  3  0  0  0  0
 29 28  2  0  0  0  0
 29 30  1  0  0  0  0
 30 31  1  0  0  0  0
 31 32  1  0  0  0  0
 32 33  1  0  0  0  0
 33 35  1  0  0  0  0
 33 34  2  0  0  0  0
 33 36  2  0  0  0  0
M  END
>  <MODEL>
8

>  <REMARK>
 VINA RESULT:      -6.9      3.139      9.399
  Name = 
  10 active torsions:
  status: ('A' for Active; 'I' for Inactive)
    1  A    between atoms: C_2  and  O_10
    2  A    between atoms: N_3  and  C_26
    3  A    between atoms: C_4  and  C_36
    4  A    between atoms: C_7  and  S_17
    5  A    between atoms: C_7  and  C_25
    6  A    between atoms: O_10  and  C_30
    7  A    between atoms: C_15  and  C_20
    8  A    between atoms: C_25  and  C_29
    9  A    between atoms: C_29  and  C_36
   10  A    between atoms: C_30  and  C_31
                            x       y       z     vdW  Elec       q    Type
                         _______ _______ _______ _____ _____    ______ ____

>  <TORSDO>
F 10

$$$$
=
 OpenBabel10232407443D

 36 38  0  0  1  0  0  0  0  0999 V2000
  189.2930  177.4000  141.5920 C   0  0  1  0  0  3  0  0  0  0  0  0
  189.3060  176.3670  140.5640 N   0  0  0  0  0  2  0  0  0  0  0  0
  188.2300  178.4520  141.2910 C   0  0  0  0  0  2  0  0  0  0  0  0
  188.0520  177.7080  137.8350 C   0  0  0  0  0  0  0  0  0  0  0  0
  186.1060  178.4160  139.0940 C   0  0  0  0  0  3  0  0  0  0  0  0
  187.2140  177.1820  136.8460 C   0  0  0  0  0  3  0  0  0  0  0  0
  190.1580  176.3970  138.2660 C   0  0  2  0  0  3  0  0  0  0  0  0
  189.4670  177.5600  137.7140 N   0  0  0  0  0  2  0  0  0  0  0  0
  190.4820  176.6070  139.7430 C   0  0  0  0  0  2  0  0  0  0  0  0
  185.2620  177.8900  138.1010 C   0  0  0  0  0  0  0  0  0  0  0  0
  187.4980  178.3360  138.9580 C   0  0  0  0  0  0  0  0  0  0  0  0
  185.8260  177.2780  136.9770 C   0  0  0  0  0  3  0  0  0  0  0  0
  188.3360  178.8710  139.9370 O   0  0  0  0  0  0  0  0  0  0  0  0
  193.8890  175.6470  137.4050 C   0  0  0  0  0  0  0  0  0  0  0  0
  192.7040  176.0080  138.2610 C   0  0  0  0  0  2  0  0  0  0  0  0
  193.7690  175.5950  135.9360 C   0  0  0  0  0  0  0  0  0  0  0  0
  191.3720  176.0440  136.1520 C   0  0  0  0  0  3  0  0  0  0  0  0
  194.9950  175.4120  137.9600 O   0  0  0  0  0  0  0  0  0  0  0  0
  191.4100  176.1280  137.4910 C   0  0  0  0  0  0  0  0  0  0  0  0
  194.9600  175.3270  135.0800 C   0  0  0  0  0  1  0  0  0  0  0  0
  192.5840  175.7850  135.3570 C   0  0  0  0  0  3  0  0  0  0  0  0
  183.8370  177.9660  138.2090 N   0  0  0  0  0  0  0  0  0  0  0  0
  183.2330  178.6440  139.1320 C   0  0  0  0  0  3  0  0  0  0  0  0
  181.7480  178.6930  139.1820 C   0  0  0  0  0  2  0  0  0  0  0  0
  181.2880  178.0250  140.3470 O   0  0  0  0  0  0  0  0  0  0  0  0
  181.3550  178.6400  141.5670 C   0  0  0  0  0  0  0  0  0  0  0  0
  181.4150  179.1630  142.5970 N   0  0  0  0  0  0  0  0  0  0  0  0
  189.2150  175.5910  143.1140 O   0  0  0  0  0  0  0  0  0  0  0  0
  189.0530  176.7900  142.9380 C   0  0  0  0  0  0  0  0  0  0  0  0
  188.6160  177.6670  144.0700 C   0  0  0  0  0  2  0  0  0  0  0  0
  187.1960  177.3310  144.4950 C   0  0  0  0  0  2  0  0  0  0  0  0
  186.9980  177.6580  145.9640 C   0  0  0  0  0  2  0  0  0  0  0  0
  185.5900  178.7290  146.1660 S   0  0  0  0  0  0  0  0  0  0  0  0
  185.9820  179.9610  146.9370 O   0  0  0  0  0  0  0  0  0  0  0  0
  184.9690  179.1950  144.5630 C   0  0  0  0  0  1  0  0  0  0  0  0
  184.5160  177.9910  146.9150 O   0  0  0  0  0  0  0  0  0  0  0  0
  1 29  1  1  0  0  0
  2  1  1  0  0  0  0
  3  1  1  0  0  0  0
  4 11  1  0  0  0  0
  6 12  1  0  0  0  0
  6  4  2  0  0  0  0
  7 19  1  6  0  0  0
  7  9  1  0  0  0  0
  8  4  1  0  0  0  0
  8  7  1  0  0  0  0
  9  2  1  0  0  0  0
 10 22  1  0  0  0  0
 10  5  1  0  0  0  0
 11  5  2  0  0  0  0
 11 13  1  0  0  0  0
 12 10  2  0  0  0  0
 13  3  1  0  0  0  0
 14 18  2  0  0  0  0
 14 15  1  0  0  0  0
 16 14  1  0  0  0  0
 17 19  2  0  0  0  0
 19 15  1  0  0  0  0
 20 16  1  0  0  0  0
 21 16  2  0  0  0  0
 21 17  1  0  0  0  0
 22 23  2  0  0  0  0
 23 24  1  0  0  0  0
 24 25  1  0  0  0  0
 25 26  1  0  0  0  0
 26 27  3  0  0  0  0
 29 28  2  0  0  0  0
 29 30  1  0  0  0  0
 30 31  1  0  0  0  0
 31 32  1  0  0  0  0
 32 33  1  0  0  0  0
 33 36  2  0  0  0  0
 33 34  2  0  0  0  0
 35 33  1  0  0  0  0
M  END
>  <MODEL>
9

>  <REMARK>
 VINA RESULT:      -6.8      3.349      9.446
  Name = 
  10 active torsions:
  status: ('A' for Active; 'I' for Inactive)
    1  A    between atoms: C_2  and  O_10
    2  A    between atoms: N_3  and  C_26
    3  A    between atoms: C_4  and  C_36
    4  A    between atoms: C_7  and  S_17
    5  A    between atoms: C_7  and  C_25
    6  A    between atoms: O_10  and  C_30
    7  A    between atoms: C_15  and  C_20
    8  A    between atoms: C_25  and  C_29
    9  A    between atoms: C_29  and  C_36
   10  A    between atoms: C_30  and  C_31
                            x       y       z     vdW  Elec       q    Type
                         _______ _______ _______ _____ _____    ______ ____

>  <TORSDO>
F 10

$$$$
