=
 OpenBabel10232407543D

 26 28  0  0  1  0  0  0  0  0999 V2000
  188.4220  178.1380  139.5820 C   0  0  0  0  0  2  0  0  0  0  0  0
  189.9640  177.1940  141.1920 C   0  0  2  0  0  3  0  0  0  0  0  0
  190.0340  176.3690  138.7860 C   0  0  0  0  0  0  0  0  0  0  0  0
  189.5750  176.4940  137.4440 N   0  0  0  0  0  1  0  0  0  0  0  0
  188.0970  178.7400  140.9360 C   0  0  0  0  0  2  0  0  0  0  0  0
  190.8540  175.4580  139.0760 O   0  0  0  0  0  0  0  0  0  0  0  0
  189.5560  177.2640  139.7990 N   0  0  0  0  0  0  0  0  0  0  0  0
  188.9020  177.9580  141.9670 C   0  0  1  0  0  3  0  0  0  0  0  0
  187.9860  176.9820  142.6840 C   0  0  0  0  0  2  0  0  0  0  0  0
  186.3690  177.7540  142.9980 S   0  0  0  0  0  0  0  0  0  0  0  0
  188.1800  177.3100  146.5800 C   0  0  0  0  0  3  0  0  0  0  0  0
  185.9380  178.7410  145.6450 C   0  0  0  0  0  0  0  0  0  0  0  0
  187.8220  177.2410  145.2360 C   0  0  0  0  0  3  0  0  0  0  0  0
  186.7110  177.9410  144.7510 C   0  0  0  0  0  0  0  0  0  0  0  0
  186.3170  178.7930  146.9990 C   0  0  0  0  0  0  0  0  0  0  0  0
  187.4270  178.0830  147.4600 C   0  0  0  0  0  3  0  0  0  0  0  0
  185.5860  179.5570  147.9010 O   0  0  0  0  0  1  0  0  0  0  0  0
  183.6670  179.0550  144.8440 C   0  0  0  0  0  0  0  0  0  0  0  0
  182.5810  178.6220  144.4360 O   0  0  0  0  0  0  0  0  0  0  0  0
  184.7790  179.5090  145.2620 N   0  0  0  0  0  0  0  0  0  0  0  0
  191.3070  177.8890  141.3870 C   0  0  0  0  0  2  0  0  0  0  0  0
  191.9780  177.3790  142.5710 N   0  0  0  0  0  0  0  0  0  0  0  0
  191.6580  178.2840  143.6630 C   0  0  0  0  0  2  0  0  0  0  0  0
  191.5080  177.4500  144.9160 C   0  0  0  0  0  2  0  0  0  0  0  0
  191.3420  176.1170  142.9210 C   0  0  0  0  0  2  0  0  0  0  0  0
  191.2610  176.0430  144.4310 C   0  0  0  0  0  2  0  0  0  0  0  0
  1  7  1  0  0  0  0
  1  5  1  0  0  0  0
  2 21  1  6  0  0  0
  2  8  1  0  0  0  0
  3  6  2  0  0  0  0
  3  7  1  0  0  0  0
  4  3  1  0  0  0  0
  5  8  1  0  0  0  0
  7  2  1  0  0  0  0
  8  9  1  6  0  0  0
  9 10  1  0  0  0  0
 10 14  1  0  0  0  0
 11 16  1  0  0  0  0
 12 15  1  0  0  0  0
 13 11  2  0  0  0  0
 14 13  1  0  0  0  0
 14 12  2  0  0  0  0
 15 16  2  0  0  0  0
 15 17  1  0  0  0  0
 18 20  2  0  0  0  0
 19 18  2  0  0  0  0
 20 12  1  0  0  0  0
 21 22  1  0  0  0  0
 22 25  1  0  0  0  0
 22 23  1  0  0  0  0
 23 24  1  0  0  0  0
 25 26  1  0  0  0  0
 26 24  1  0  0  0  0
M  END
>  <MODEL>
1

>  <REMARK>
 VINA RESULT:      -7.5      0.000      0.000
  Name = 
  6 active torsions:
  status: ('A' for Active; 'I' for Inactive)
    1  A    between atoms: N_2  and  C_15
    2  A    between atoms: C_4  and  S_13
    3  A    between atoms: C_4  and  C_25
    4  A    between atoms: C_5  and  N_22
    5  A    between atoms: C_10  and  C_15
    6  A    between atoms: S_13  and  C_14
                            x       y       z     vdW  Elec       q    Type
                         _______ _______ _______ _____ _____    ______ ____

>  <TORSDO>
F 6

$$$$
=
 OpenBabel10232407543D

 26 28  0  0  1  0  0  0  0  0999 V2000
  191.5940  177.9910  145.0290 C   0  0  0  0  0  2  0  0  0  0  0  0
  189.2500  177.3840  145.0220 C   0  0  2  0  0  3  0  0  0  0  0  0
  190.7240  176.5890  146.9380 C   0  0  0  0  0  0  0  0  0  0  0  0
  191.9890  176.6170  147.5910 N   0  0  0  0  0  1  0  0  0  0  0  0
  190.9890  178.5140  143.7410 C   0  0  0  0  0  2  0  0  0  0  0  0
  189.8040  175.8660  147.4030 O   0  0  0  0  0  0  0  0  0  0  0  0
  190.5050  177.3680  145.7540 N   0  0  0  0  0  0  0  0  0  0  0  0
  189.5910  177.9140  143.6380 C   0  0  1  0  0  3  0  0  0  0  0  0
  189.6080  176.7720  142.6380 C   0  0  0  0  0  2  0  0  0  0  0  0
  190.9750  176.9900  141.4580 S   0  0  0  0  0  0  0  0  0  0  0  0
  187.7520  178.0380  139.2630 C   0  0  0  0  0  3  0  0  0  0  0  0
  190.0770  176.5170  138.7870 C   0  0  0  0  0  0  0  0  0  0  0  0
  188.6940  177.8730  140.2750 C   0  0  0  0  0  3  0  0  0  0  0  0
  189.8540  177.1180  140.0620 C   0  0  0  0  0  0  0  0  0  0  0  0
  189.1100  176.6940  137.7810 C   0  0  0  0  0  0  0  0  0  0  0  0
  187.9590  177.4480  138.0190 C   0  0  0  0  0  3  0  0  0  0  0  0
  189.2900  176.1190  136.5290 O   0  0  0  0  0  1  0  0  0  0  0  0
  192.3780  176.1550  138.0960 C   0  0  0  0  0  0  0  0  0  0  0  0
  193.4940  176.5650  137.7530 O   0  0  0  0  0  0  0  0  0  0  0  0
  191.2330  175.7240  138.4480 N   0  0  0  0  0  0  0  0  0  0  0  0
  188.2630  178.3400  145.6820 C   0  0  0  0  0  2  0  0  0  0  0  0
  186.9540  177.7200  145.8010 N   0  0  0  0  0  0  0  0  0  0  0  0
  186.3350  178.2610  147.0000 C   0  0  0  0  0  2  0  0  0  0  0  0
  184.8570  178.4140  146.7200 C   0  0  0  0  0  2  0  0  0  0  0  0
  186.1400  178.2080  144.6960 C   0  0  0  0  0  2  0  0  0  0  0  0
  184.7350  178.4200  145.2160 C   0  0  0  0  0  2  0  0  0  0  0  0
  1  7  1  0  0  0  0
  2 21  1  1  0  0  0
  2  7  1  0  0  0  0
  3  6  2  0  0  0  0
  3  4  1  0  0  0  0
  5  1  1  0  0  0  0
  7  3  1  0  0  0  0
  8  9  1  6  0  0  0
  8  5  1  0  0  0  0
  8  2  1  0  0  0  0
 10  9  1  0  0  0  0
 11 13  1  0  0  0  0
 12 14  1  0  0  0  0
 14 13  2  0  0  0  0
 14 10  1  0  0  0  0
 15 16  1  0  0  0  0
 15 12  2  0  0  0  0
 16 11  2  0  0  0  0
 17 15  1  0  0  0  0
 18 20  2  0  0  0  0
 19 18  2  0  0  0  0
 20 12  1  0  0  0  0
 21 22  1  0  0  0  0
 22 23  1  0  0  0  0
 24 23  1  0  0  0  0
 25 26  1  0  0  0  0
 25 22  1  0  0  0  0
 26 24  1  0  0  0  0
M  END
>  <MODEL>
2

>  <REMARK>
 VINA RESULT:      -7.3      2.743      7.703
  Name = 
  6 active torsions:
  status: ('A' for Active; 'I' for Inactive)
    1  A    between atoms: N_2  and  C_15
    2  A    between atoms: C_4  and  S_13
    3  A    between atoms: C_4  and  C_25
    4  A    between atoms: C_5  and  N_22
    5  A    between atoms: C_10  and  C_15
    6  A    between atoms: S_13  and  C_14
                            x       y       z     vdW  Elec       q    Type
                         _______ _______ _______ _____ _____    ______ ____

>  <TORSDO>
F 6

$$$$
=
 OpenBabel10232407543D

 26 28  0  0  1  0  0  0  0  0999 V2000
  187.7270  178.2030  139.1840 C   0  0  0  0  0  2  0  0  0  0  0  0
  189.5380  176.5960  139.1650 C   0  0  2  0  0  3  0  0  0  0  0  0
  187.6400  176.3360  137.4900 C   0  0  0  0  0  0  0  0  0  0  0  0
  186.4490  176.8600  136.9110 N   0  0  0  0  0  1  0  0  0  0  0  0
  188.6560  178.5450  140.3330 C   0  0  0  0  0  2  0  0  0  0  0  0
  188.0770  175.2210  137.1020 O   0  0  0  0  0  0  0  0  0  0  0  0
  188.3260  177.0670  138.5150 N   0  0  0  0  0  0  0  0  0  0  0  0
  189.6420  177.3890  140.4580 C   0  0  1  0  0  3  0  0  0  0  0  0
  189.2430  176.5140  141.6330 C   0  0  0  0  0  2  0  0  0  0  0  0
  190.5780  176.4760  142.8690 S   0  0  0  0  0  0  0  0  0  0  0  0
  187.1490  177.3160  144.8300 C   0  0  0  0  0  3  0  0  0  0  0  0
  189.8800  177.2550  145.5280 C   0  0  0  0  0  0  0  0  0  0  0  0
  188.1030  176.9690  143.8760 C   0  0  0  0  0  3  0  0  0  0  0  0
  189.4640  176.9370  144.2000 C   0  0  0  0  0  0  0  0  0  0  0  0
  188.8980  177.6050  146.4730 C   0  0  0  0  0  0  0  0  0  0  0  0
  187.5470  177.6350  146.1250 C   0  0  0  0  0  3  0  0  0  0  0  0
  189.2650  177.9270  147.7750 O   0  0  0  0  0  1  0  0  0  0  0  0
  191.8640  176.2880  146.5420 C   0  0  0  0  0  0  0  0  0  0  0  0
  192.4700  175.3580  147.0890 O   0  0  0  0  0  0  0  0  0  0  0  0
  191.2490  177.2500  145.9800 N   0  0  0  0  0  0  0  0  0  0  0  0
  190.7570  176.9050  138.3030 C   0  0  0  0  0  2  0  0  0  0  0  0
  191.8050  175.9240  138.5310 N   0  0  0  0  0  0  0  0  0  0  0  0
  191.5460  174.8100  137.6350 C   0  0  0  0  0  2  0  0  0  0  0  0
  192.8830  174.2860  137.1610 C   0  0  0  0  0  2  0  0  0  0  0  0
  193.0550  176.5070  138.0650 C   0  0  0  0  0  2  0  0  0  0  0  0
  193.8600  175.4090  137.4060 C   0  0  0  0  0  2  0  0  0  0  0  0
  1  5  1  0  0  0  0
  2 21  1  6  0  0  0
  2  8  1  0  0  0  0
  3  7  1  0  0  0  0
  4  3  1  0  0  0  0
  5  8  1  0  0  0  0
  6  3  2  0  0  0  0
  7  2  1  0  0  0  0
  7  1  1  0  0  0  0
  8  9  1  1  0  0  0
  9 10  1  0  0  0  0
 10 14  1  0  0  0  0
 11 16  1  0  0  0  0
 12 20  1  0  0  0  0
 12 15  1  0  0  0  0
 13 14  1  0  0  0  0
 13 11  2  0  0  0  0
 14 12  2  0  0  0  0
 15 17  1  0  0  0  0
 16 15  2  0  0  0  0
 18 19  2  0  0  0  0
 20 18  2  0  0  0  0
 21 22  1  0  0  0  0
 23 22  1  0  0  0  0
 24 26  1  0  0  0  0
 24 23  1  0  0  0  0
 25 22  1  0  0  0  0
 26 25  1  0  0  0  0
M  END
>  <MODEL>
3

>  <REMARK>
 VINA RESULT:      -7.3      2.949      4.791
  Name = 
  6 active torsions:
  status: ('A' for Active; 'I' for Inactive)
    1  A    between atoms: N_2  and  C_15
    2  A    between atoms: C_4  and  S_13
    3  A    between atoms: C_4  and  C_25
    4  A    between atoms: C_5  and  N_22
    5  A    between atoms: C_10  and  C_15
    6  A    between atoms: S_13  and  C_14
                            x       y       z     vdW  Elec       q    Type
                         _______ _______ _______ _____ _____    ______ ____

>  <TORSDO>
F 6

$$$$
=
 OpenBabel10232407543D

 26 28  0  0  1  0  0  0  0  0999 V2000
  189.1720  176.5290  144.2620 C   0  0  0  0  0  2  0  0  0  0  0  0
  189.3790  178.0120  142.3590 C   0  0  2  0  0  3  0  0  0  0  0  0
  191.0990  178.1580  144.2290 C   0  0  0  0  0  0  0  0  0  0  0  0
  191.6200  177.6310  145.4450 N   0  0  0  0  0  1  0  0  0  0  0  0
  187.9760  176.2900  143.3610 C   0  0  0  0  0  2  0  0  0  0  0  0
  191.6250  179.1850  143.7240 O   0  0  0  0  0  0  0  0  0  0  0  0
  189.9770  177.5310  143.5920 N   0  0  0  0  0  0  0  0  0  0  0  0
  187.9920  177.3930  142.3090 C   0  0  1  0  0  3  0  0  0  0  0  0
  186.9470  178.4370  142.6630 C   0  0  0  0  0  2  0  0  0  0  0  0
  185.8590  178.7440  141.2380 S   0  0  0  0  0  0  0  0  0  0  0  0
  183.5440  178.8640  144.5450 C   0  0  0  0  0  3  0  0  0  0  0  0
  183.0520  178.7580  141.7710 C   0  0  0  0  0  0  0  0  0  0  0  0
  184.6110  178.8360  143.6490 C   0  0  0  0  0  3  0  0  0  0  0  0
  184.3890  178.7790  142.2680 C   0  0  0  0  0  0  0  0  0  0  0  0
  181.9900  178.7840  142.6940 C   0  0  0  0  0  0  0  0  0  0  0  0
  182.2370  178.8360  144.0670 C   0  0  0  0  0  3  0  0  0  0  0  0
  180.6740  178.7580  142.2470 O   0  0  0  0  0  1  0  0  0  0  0  0
  182.7680  179.6580  139.5320 C   0  0  0  0  0  0  0  0  0  0  0  0
  182.8310  180.5780  138.7080 O   0  0  0  0  0  0  0  0  0  0  0  0
  182.6990  178.7050  140.3730 N   0  0  0  0  0  0  0  0  0  0  0  0
  190.1760  177.5230  141.1560 C   0  0  0  0  0  2  0  0  0  0  0  0
  189.3050  177.3400  140.0070 N   0  0  0  0  0  0  0  0  0  0  0  0
  189.1510  178.6430  139.3800 C   0  0  0  0  0  2  0  0  0  0  0  0
  189.0940  178.4250  137.8850 C   0  0  0  0  0  2  0  0  0  0  0  0
  190.0300  176.5320  139.0360 C   0  0  0  0  0  2  0  0  0  0  0  0
  189.7050  177.0650  137.6570 C   0  0  0  0  0  2  0  0  0  0  0  0
  2 21  1  6  0  0  0
  2  7  1  0  0  0  0
  3  4  1  0  0  0  0
  5  1  1  0  0  0  0
  6  3  2  0  0  0  0
  7  3  1  0  0  0  0
  7  1  1  0  0  0  0
  8  2  1  0  0  0  0
  8  9  1  1  0  0  0
  8  5  1  0  0  0  0
 10 14  1  0  0  0  0
 10  9  1  0  0  0  0
 12 14  2  0  0  0  0
 12 15  1  0  0  0  0
 13 11  2  0  0  0  0
 14 13  1  0  0  0  0
 15 16  2  0  0  0  0
 16 11  1  0  0  0  0
 17 15  1  0  0  0  0
 18 20  2  0  0  0  0
 19 18  2  0  0  0  0
 20 12  1  0  0  0  0
 22 21  1  0  0  0  0
 23 22  1  0  0  0  0
 24 23  1  0  0  0  0
 25 22  1  0  0  0  0
 26 24  1  0  0  0  0
 26 25  1  0  0  0  0
M  END
>  <MODEL>
4

>  <REMARK>
 VINA RESULT:      -7.1      2.866      5.083
  Name = 
  6 active torsions:
  status: ('A' for Active; 'I' for Inactive)
    1  A    between atoms: N_2  and  C_15
    2  A    between atoms: C_4  and  S_13
    3  A    between atoms: C_4  and  C_25
    4  A    between atoms: C_5  and  N_22
    5  A    between atoms: C_10  and  C_15
    6  A    between atoms: S_13  and  C_14
                            x       y       z     vdW  Elec       q    Type
                         _______ _______ _______ _____ _____    ______ ____

>  <TORSDO>
F 6

$$$$
=
 OpenBabel10232407543D

 26 28  0  0  1  0  0  0  0  0999 V2000
  191.6170  178.0990  145.1260 C   0  0  0  0  0  2  0  0  0  0  0  0
  189.2790  177.4730  145.1820 C   0  0  2  0  0  3  0  0  0  0  0  0
  190.8540  176.5200  146.9390 C   0  0  0  0  0  0  0  0  0  0  0  0
  192.1510  176.5000  147.5270 N   0  0  0  0  0  1  0  0  0  0  0  0
  190.9440  178.7320  143.9240 C   0  0  0  0  0  2  0  0  0  0  0  0
  189.9620  175.7480  147.3830 O   0  0  0  0  0  0  0  0  0  0  0  0
  190.5700  177.4020  145.8440 N   0  0  0  0  0  0  0  0  0  0  0  0
  189.5460  178.1310  143.8380 C   0  0  1  0  0  3  0  0  0  0  0  0
  189.5160  177.0850  142.7370 C   0  0  0  0  0  2  0  0  0  0  0  0
  188.4880  177.6600  141.3510 S   0  0  0  0  0  0  0  0  0  0  0  0
  192.1370  176.9880  139.7580 C   0  0  0  0  0  3  0  0  0  0  0  0
  189.4930  176.9240  138.7800 C   0  0  0  0  0  0  0  0  0  0  0  0
  191.0730  177.2810  140.6080 C   0  0  0  0  0  3  0  0  0  0  0  0
  189.7540  177.2580  140.1420 C   0  0  0  0  0  0  0  0  0  0  0  0
  190.5830  176.6360  137.9390 C   0  0  0  0  0  0  0  0  0  0  0  0
  191.8920  176.6680  138.4250 C   0  0  0  0  0  3  0  0  0  0  0  0
  190.3700  176.3120  136.6040 O   0  0  0  0  0  1  0  0  0  0  0  0
  187.3960  177.8410  137.9660 C   0  0  0  0  0  0  0  0  0  0  0  0
  186.6280  178.7860  137.7460 O   0  0  0  0  0  0  0  0  0  0  0  0
  188.1800  176.8630  138.1890 N   0  0  0  0  0  0  0  0  0  0  0  0
  188.3230  178.3550  145.9770 C   0  0  0  0  0  2  0  0  0  0  0  0
  187.0000  177.7560  146.0280 N   0  0  0  0  0  0  0  0  0  0  0  0
  186.2720  178.4260  147.0930 C   0  0  0  0  0  2  0  0  0  0  0  0
  184.8310  178.5530  146.6500 C   0  0  0  0  0  2  0  0  0  0  0  0
  186.3080  178.1240  144.8010 C   0  0  0  0  0  2  0  0  0  0  0  0
  184.8600  178.3960  145.1500 C   0  0  0  0  0  2  0  0  0  0  0  0
  1  7  1  0  0  0  0
  2  7  1  0  0  0  0
  2 21  1  1  0  0  0
  3  6  2  0  0  0  0
  3  4  1  0  0  0  0
  5  1  1  0  0  0  0
  7  3  1  0  0  0  0
  8  9  1  6  0  0  0
  8  5  1  0  0  0  0
  8  2  1  0  0  0  0
 10  9  1  0  0  0  0
 11 13  1  0  0  0  0
 12 14  1  0  0  0  0
 14 13  2  0  0  0  0
 14 10  1  0  0  0  0
 15 16  1  0  0  0  0
 15 12  2  0  0  0  0
 16 11  2  0  0  0  0
 17 15  1  0  0  0  0
 18 20  2  0  0  0  0
 19 18  2  0  0  0  0
 20 12  1  0  0  0  0
 21 22  1  0  0  0  0
 22 23  1  0  0  0  0
 24 23  1  0  0  0  0
 25 26  1  0  0  0  0
 25 22  1  0  0  0  0
 26 24  1  0  0  0  0
M  END
>  <MODEL>
5

>  <REMARK>
 VINA RESULT:      -7.0      2.574      7.227
  Name = 
  6 active torsions:
  status: ('A' for Active; 'I' for Inactive)
    1  A    between atoms: N_2  and  C_15
    2  A    between atoms: C_4  and  S_13
    3  A    between atoms: C_4  and  C_25
    4  A    between atoms: C_5  and  N_22
    5  A    between atoms: C_10  and  C_15
    6  A    between atoms: S_13  and  C_14
                            x       y       z     vdW  Elec       q    Type
                         _______ _______ _______ _____ _____    ______ ____

>  <TORSDO>
F 6

$$$$
=
 OpenBabel10232407543D

 26 28  0  0  1  0  0  0  0  0999 V2000
  182.3640  178.5420  138.3330 C   0  0  0  0  0  2  0  0  0  0  0  0
  184.6110  177.7450  138.7540 C   0  0  2  0  0  3  0  0  0  0  0  0
  182.8490  176.0970  137.9460 C   0  0  0  0  0  0  0  0  0  0  0  0
  181.5290  175.8680  137.4640 N   0  0  0  0  0  1  0  0  0  0  0  0
  183.1680  179.7040  138.8860 C   0  0  0  0  0  2  0  0  0  0  0  0
  183.6240  175.1180  138.1150 O   0  0  0  0  0  0  0  0  0  0  0  0
  183.2870  177.4290  138.2470 N   0  0  0  0  0  0  0  0  0  0  0  0
  184.4920  179.1280  139.3730 C   0  0  1  0  0  3  0  0  0  0  0  0
  184.4630  179.0140  140.8870 C   0  0  0  0  0  2  0  0  0  0  0  0
  186.1490  178.7960  141.5340 S   0  0  0  0  0  0  0  0  0  0  0  0
  183.6970  179.0480  144.7330 C   0  0  0  0  0  3  0  0  0  0  0  0
  186.3480  178.1800  144.3170 C   0  0  0  0  0  0  0  0  0  0  0  0
  184.2530  179.0960  143.4570 C   0  0  0  0  0  3  0  0  0  0  0  0
  185.5680  178.6740  143.2290 C   0  0  0  0  0  0  0  0  0  0  0  0
  185.7670  178.1450  145.5980 C   0  0  0  0  0  0  0  0  0  0  0  0
  184.4540  178.5750  145.8020 C   0  0  0  0  0  3  0  0  0  0  0  0
  186.4970  177.6760  146.6840 O   0  0  0  0  0  1  0  0  0  0  0  0
  188.1040  176.6480  143.6340 C   0  0  0  0  0  0  0  0  0  0  0  0
  188.4980  175.6140  143.0810 O   0  0  0  0  0  0  0  0  0  0  0  0
  187.7070  177.7140  144.2050 N   0  0  0  0  0  0  0  0  0  0  0  0
  185.6170  177.8070  137.6090 C   0  0  0  0  0  2  0  0  0  0  0  0
  186.8320  178.4830  138.0340 N   0  0  0  0  0  0  0  0  0  0  0  0
  187.7430  177.4570  138.5110 C   0  0  0  0  0  2  0  0  0  0  0  0
  189.1420  177.8680  138.1100 C   0  0  0  0  0  2  0  0  0  0  0  0
  187.4630  179.0320  136.8420 C   0  0  0  0  0  2  0  0  0  0  0  0
  188.9600  178.8660  136.9930 C   0  0  0  0  0  2  0  0  0  0  0  0
  1  5  1  0  0  0  0
  2 21  1  6  0  0  0
  2  8  1  0  0  0  0
  3  6  2  0  0  0  0
  3  7  1  0  0  0  0
  4  3  1  0  0  0  0
  5  8  1  0  0  0  0
  7  1  1  0  0  0  0
  7  2  1  0  0  0  0
  8  9  1  1  0  0  0
  9 10  1  0  0  0  0
 10 14  1  0  0  0  0
 11 16  1  0  0  0  0
 12 15  1  0  0  0  0
 13 11  2  0  0  0  0
 14 13  1  0  0  0  0
 14 12  2  0  0  0  0
 15 16  2  0  0  0  0
 15 17  1  0  0  0  0
 18 20  2  0  0  0  0
 19 18  2  0  0  0  0
 20 12  1  0  0  0  0
 21 22  1  0  0  0  0
 22 23  1  0  0  0  0
 24 23  1  0  0  0  0
 25 26  1  0  0  0  0
 25 22  1  0  0  0  0
 26 24  1  0  0  0  0
M  END
>  <MODEL>
6

>  <REMARK>
 VINA RESULT:      -6.9      3.963      5.694
  Name = 
  6 active torsions:
  status: ('A' for Active; 'I' for Inactive)
    1  A    between atoms: N_2  and  C_15
    2  A    between atoms: C_4  and  S_13
    3  A    between atoms: C_4  and  C_25
    4  A    between atoms: C_5  and  N_22
    5  A    between atoms: C_10  and  C_15
    6  A    between atoms: S_13  and  C_14
                            x       y       z     vdW  Elec       q    Type
                         _______ _______ _______ _____ _____    ______ ____

>  <TORSDO>
F 6

$$$$
=
 OpenBabel10232407543D

 26 28  0  0  1  0  0  0  0  0999 V2000
  187.6190  178.4120  139.5220 C   0  0  0  0  0  2  0  0  0  0  0  0
  189.4150  176.7890  139.5390 C   0  0  2  0  0  3  0  0  0  0  0  0
  187.5900  176.5900  137.7790 C   0  0  0  0  0  0  0  0  0  0  0  0
  186.4290  177.1390  137.1620 N   0  0  0  0  0  1  0  0  0  0  0  0
  188.5000  178.7160  140.7190 C   0  0  0  0  0  2  0  0  0  0  0  0
  188.0340  175.4810  137.3800 O   0  0  0  0  0  0  0  0  0  0  0  0
  188.2380  177.2880  138.8510 N   0  0  0  0  0  0  0  0  0  0  0  0
  189.4710  177.5480  140.8560 C   0  0  1  0  0  3  0  0  0  0  0  0
  189.0140  176.6470  141.9890 C   0  0  0  0  0  2  0  0  0  0  0  0
  187.7290  177.4780  142.9730 S   0  0  0  0  0  0  0  0  0  0  0  0
  190.8520  176.9120  145.4700 C   0  0  0  0  0  3  0  0  0  0  0  0
  188.0800  177.3100  145.8040 C   0  0  0  0  0  0  0  0  0  0  0  0
  190.0340  177.0820  144.3550 C   0  0  0  0  0  3  0  0  0  0  0  0
  188.6550  177.2770  144.4980 C   0  0  0  0  0  0  0  0  0  0  0  0
  188.9250  177.1330  146.9150 C   0  0  0  0  0  0  0  0  0  0  0  0
  190.2970  176.9360  146.7470 C   0  0  0  0  0  3  0  0  0  0  0  0
  188.4010  177.1530  148.2020 O   0  0  0  0  0  1  0  0  0  0  0  0
  186.1390  178.5400  146.5910 C   0  0  0  0  0  0  0  0  0  0  0  0
  185.6070  179.5380  147.0920 O   0  0  0  0  0  0  0  0  0  0  0  0
  186.6790  177.5090  146.0760 N   0  0  0  0  0  0  0  0  0  0  0  0
  190.6730  177.1080  138.7390 C   0  0  0  0  0  2  0  0  0  0  0  0
  191.6260  176.0150  138.8290 N   0  0  0  0  0  0  0  0  0  0  0  0
  191.2730  175.0580  137.7920 C   0  0  0  0  0  2  0  0  0  0  0  0
  192.5600  174.4830  137.2460 C   0  0  0  0  0  2  0  0  0  0  0  0
  192.9280  176.5390  138.4380 C   0  0  0  0  0  2  0  0  0  0  0  0
  193.6340  175.4690  137.6330 C   0  0  0  0  0  2  0  0  0  0  0  0
  1  5  1  0  0  0  0
  2 21  1  6  0  0  0
  2  8  1  0  0  0  0
  3  7  1  0  0  0  0
  4  3  1  0  0  0  0
  5  8  1  0  0  0  0
  6  3  2  0  0  0  0
  7  1  1  0  0  0  0
  7  2  1  0  0  0  0
  8  9  1  1  0  0  0
  9 10  1  0  0  0  0
 10 14  1  0  0  0  0
 11 16  1  0  0  0  0
 12 20  1  0  0  0  0
 12 15  1  0  0  0  0
 13 14  1  0  0  0  0
 13 11  2  0  0  0  0
 14 12  2  0  0  0  0
 15 17  1  0  0  0  0
 16 15  2  0  0  0  0
 18 19  2  0  0  0  0
 20 18  2  0  0  0  0
 21 22  1  0  0  0  0
 23 22  1  0  0  0  0
 24 26  1  0  0  0  0
 24 23  1  0  0  0  0
 25 22  1  0  0  0  0
 26 25  1  0  0  0  0
M  END
>  <MODEL>
7

>  <REMARK>
 VINA RESULT:      -6.9      2.125      3.650
  Name = 
  6 active torsions:
  status: ('A' for Active; 'I' for Inactive)
    1  A    between atoms: N_2  and  C_15
    2  A    between atoms: C_4  and  S_13
    3  A    between atoms: C_4  and  C_25
    4  A    between atoms: C_5  and  N_22
    5  A    between atoms: C_10  and  C_15
    6  A    between atoms: S_13  and  C_14
                            x       y       z     vdW  Elec       q    Type
                         _______ _______ _______ _____ _____    ______ ____

>  <TORSDO>
F 6

$$$$
=
 OpenBabel10232407543D

 26 28  0  0  1  0  0  0  0  0999 V2000
  183.3720  179.1770  142.7530 C   0  0  0  0  0  2  0  0  0  0  0  0
  185.1810  178.0860  141.5700 C   0  0  2  0  0  3  0  0  0  0  0  0
  182.7940  177.7480  140.7560 C   0  0  0  0  0  0  0  0  0  0  0  0
  181.4140  178.0870  140.8590 N   0  0  0  0  0  1  0  0  0  0  0  0
  184.6560  179.4760  143.5020 C   0  0  0  0  0  2  0  0  0  0  0  0
  183.1550  176.8770  139.9210 O   0  0  0  0  0  0  0  0  0  0  0  0
  183.7590  178.3850  141.6040 N   0  0  0  0  0  0  0  0  0  0  0  0
  185.7350  178.5870  142.8940 C   0  0  1  0  0  3  0  0  0  0  0  0
  185.9970  177.4120  143.8200 C   0  0  0  0  0  2  0  0  0  0  0  0
  187.7530  176.9420  143.7550 S   0  0  0  0  0  0  0  0  0  0  0  0
  186.9390  178.0510  147.5520 C   0  0  0  0  0  3  0  0  0  0  0  0
  189.2670  177.2970  146.1530 C   0  0  0  0  0  0  0  0  0  0  0  0
  186.8620  177.7170  146.2020 C   0  0  0  0  0  3  0  0  0  0  0  0
  188.0060  177.3430  145.4880 C   0  0  0  0  0  0  0  0  0  0  0  0
  189.3220  177.6420  147.5150 C   0  0  0  0  0  0  0  0  0  0  0  0
  188.1670  178.0160  148.2060 C   0  0  0  0  0  3  0  0  0  0  0  0
  190.5330  177.6150  148.1960 O   0  0  0  0  0  1  0  0  0  0  0  0
  191.2520  177.6600  144.8000 C   0  0  0  0  0  0  0  0  0  0  0  0
  191.9790  178.3690  144.0930 O   0  0  0  0  0  0  0  0  0  0  0  0
  190.5100  176.9220  145.5250 N   0  0  0  0  0  0  0  0  0  0  0  0
  185.8570  178.8510  140.4370 C   0  0  0  0  0  2  0  0  0  0  0  0
  186.8290  178.0070  139.7620 N   0  0  0  0  0  0  0  0  0  0  0  0
  186.7830  178.3540  138.3510 C   0  0  0  0  0  2  0  0  0  0  0  0
  188.1950  178.2680  137.8140 C   0  0  0  0  0  2  0  0  0  0  0  0
  188.1500  178.4190  140.2140 C   0  0  0  0  0  2  0  0  0  0  0  0
  189.0870  178.3510  139.0280 C   0  0  0  0  0  2  0  0  0  0  0  0
  1  5  1  0  0  0  0
  2 21  1  6  0  0  0
  2  7  1  0  0  0  0
  2  8  1  0  0  0  0
  3  4  1  0  0  0  0
  3  7  1  0  0  0  0
  6  3  2  0  0  0  0
  7  1  1  0  0  0  0
  8  5  1  0  0  0  0
  8  9  1  1  0  0  0
 10  9  1  0  0  0  0
 10 14  1  0  0  0  0
 11 16  1  0  0  0  0
 12 15  1  0  0  0  0
 13 11  2  0  0  0  0
 14 12  2  0  0  0  0
 14 13  1  0  0  0  0
 15 17  1  0  0  0  0
 15 16  2  0  0  0  0
 18 20  2  0  0  0  0
 19 18  2  0  0  0  0
 20 12  1  0  0  0  0
 22 25  1  0  0  0  0
 22 21  1  0  0  0  0
 23 22  1  0  0  0  0
 24 23  1  0  0  0  0
 24 26  1  0  0  0  0
 26 25  1  0  0  0  0
M  END
>  <MODEL>
8

>  <REMARK>
 VINA RESULT:      -6.8      2.918      5.649
  Name = 
  6 active torsions:
  status: ('A' for Active; 'I' for Inactive)
    1  A    between atoms: N_2  and  C_15
    2  A    between atoms: C_4  and  S_13
    3  A    between atoms: C_4  and  C_25
    4  A    between atoms: C_5  and  N_22
    5  A    between atoms: C_10  and  C_15
    6  A    between atoms: S_13  and  C_14
                            x       y       z     vdW  Elec       q    Type
                         _______ _______ _______ _____ _____    ______ ____

>  <TORSDO>
F 6

$$$$
=
 OpenBabel10232407543D

 26 28  0  0  1  0  0  0  0  0999 V2000
  187.9150  177.8430  137.7450 C   0  0  0  0  0  2  0  0  0  0  0  0
  189.6310  176.2560  138.3750 C   0  0  2  0  0  3  0  0  0  0  0  0
  187.7030  175.4720  136.9110 C   0  0  0  0  0  0  0  0  0  0  0  0
  186.5380  175.7960  136.1590 N   0  0  0  0  0  1  0  0  0  0  0  0
  188.8740  178.5520  138.6820 C   0  0  0  0  0  2  0  0  0  0  0  0
  188.0730  174.2710  136.9920 O   0  0  0  0  0  0  0  0  0  0  0  0
  188.4420  176.5040  137.5790 N   0  0  0  0  0  0  0  0  0  0  0  0
  189.7940  177.4820  139.2580 C   0  0  1  0  0  3  0  0  0  0  0  0
  189.3590  177.1580  140.6760 C   0  0  0  0  0  2  0  0  0  0  0  0
  188.1180  178.3610  141.2430 S   0  0  0  0  0  0  0  0  0  0  0  0
  190.2420  177.8300  144.6360 C   0  0  0  0  0  3  0  0  0  0  0  0
  187.5020  177.7860  143.9740 C   0  0  0  0  0  0  0  0  0  0  0  0
  189.8400  178.0640  143.3240 C   0  0  0  0  0  3  0  0  0  0  0  0
  188.4850  178.0440  142.9720 C   0  0  0  0  0  0  0  0  0  0  0  0
  187.9320  177.5490  145.2920 C   0  0  0  0  0  0  0  0  0  0  0  0
  189.2890  177.5700  145.6180 C   0  0  0  0  0  3  0  0  0  0  0  0
  187.0040  177.2880  146.2940 O   0  0  0  0  0  1  0  0  0  0  0  0
  185.2570  178.7080  143.8570 C   0  0  0  0  0  0  0  0  0  0  0  0
  184.4500  179.6380  143.9730 O   0  0  0  0  0  0  0  0  0  0  0  0
  186.0810  177.7450  143.7340 N   0  0  0  0  0  0  0  0  0  0  0  0
  190.8560  176.1350  137.4760 C   0  0  0  0  0  2  0  0  0  0  0  0
  191.8590  175.2810  138.0910 N   0  0  0  0  0  0  0  0  0  0  0  0
  192.1310  174.2040  137.1540 C   0  0  0  0  0  2  0  0  0  0  0  0
  193.6070  173.8840  137.2440 C   0  0  0  0  0  2  0  0  0  0  0  0
  193.0950  176.0460  138.1650 C   0  0  0  0  0  2  0  0  0  0  0  0
  194.2410  175.1030  137.8670 C   0  0  0  0  0  2  0  0  0  0  0  0
  1  5  1  0  0  0  0
  2 21  1  6  0  0  0
  2  8  1  0  0  0  0
  3  6  2  0  0  0  0
  3  7  1  0  0  0  0
  4  3  1  0  0  0  0
  5  8  1  0  0  0  0
  7  1  1  0  0  0  0
  7  2  1  0  0  0  0
  8  9  1  1  0  0  0
  9 10  1  0  0  0  0
 10 14  1  0  0  0  0
 11 16  1  0  0  0  0
 12 15  1  0  0  0  0
 13 11  2  0  0  0  0
 14 13  1  0  0  0  0
 14 12  2  0  0  0  0
 15 16  2  0  0  0  0
 15 17  1  0  0  0  0
 18 19  2  0  0  0  0
 20 18  2  0  0  0  0
 20 12  1  0  0  0  0
 21 22  1  0  0  0  0
 22 25  1  0  0  0  0
 23 24  1  0  0  0  0
 23 22  1  0  0  0  0
 24 26  1  0  0  0  0
 26 25  1  0  0  0  0
M  END
>  <MODEL>
9

>  <REMARK>
 VINA RESULT:      -6.4      2.456      3.952
  Name = 
  6 active torsions:
  status: ('A' for Active; 'I' for Inactive)
    1  A    between atoms: N_2  and  C_15
    2  A    between atoms: C_4  and  S_13
    3  A    between atoms: C_4  and  C_25
    4  A    between atoms: C_5  and  N_22
    5  A    between atoms: C_10  and  C_15
    6  A    between atoms: S_13  and  C_14
                            x       y       z     vdW  Elec       q    Type
                         _______ _______ _______ _____ _____    ______ ____

>  <TORSDO>
F 6

$$$$
