=
 OpenBabel10232411053D

 39 41  0  0  0  0  0  0  0  0999 V2000
  186.7870  177.4290  143.7580 C   0  0  0  0  0  0  0  0  0  0  0  0
  186.9880  177.8740  145.0940 C   0  0  0  0  0  0  0  0  0  0  0  0
  185.5920  177.7300  143.0950 C   0  0  0  0  0  3  0  0  0  0  0  0
  185.9430  178.5820  145.7130 C   0  0  0  0  0  3  0  0  0  0  0  0
  184.7560  178.8700  145.0400 C   0  0  0  0  0  3  0  0  0  0  0  0
  184.5690  178.4620  143.7140 C   0  0  0  0  0  0  0  0  0  0  0  0
  189.4400  177.2310  145.2910 C   0  0  0  0  0  3  0  0  0  0  0  0
  190.5810  177.2850  147.4270 C   0  0  0  0  0  0  0  0  0  0  0  0
  190.6040  177.0540  146.0440 C   0  0  0  0  0  0  0  0  0  0  0  0
  188.2390  177.8740  147.2780 C   0  0  0  0  0  3  0  0  0  0  0  0
  189.3980  177.6980  148.0400 C   0  0  0  0  0  3  0  0  0  0  0  0
  188.2380  177.6400  145.8880 C   0  0  0  0  0  0  0  0  0  0  0  0
  191.7280  177.1080  148.1930 O   0  0  0  0  0  1  0  0  0  0  0  0
  191.8530  176.6170  145.3590 C   0  0  0  0  0  1  0  0  0  0  0  0
  180.9260  179.2630  143.0920 C   0  0  0  0  0  3  0  0  0  0  0  0
  182.1520  179.0320  143.7160 C   0  0  0  0  0  3  0  0  0  0  0  0
  180.8300  179.2180  141.7050 C   0  0  0  0  0  3  0  0  0  0  0  0
  183.3100  178.7530  142.9680 C   0  0  0  0  0  0  0  0  0  0  0  0
  183.1990  178.7080  141.5490 C   0  0  0  0  0  0  0  0  0  0  0  0
  181.9610  178.9400  140.9390 C   0  0  0  0  0  3  0  0  0  0  0  0
  184.3510  178.3990  140.6500 C   0  0  0  0  0  2  0  0  0  0  0  0
  184.7990  179.6170  139.9940 N   0  0  0  0  0  1  0  0  0  0  0  0
  187.7600  176.6270  143.0050 C   0  0  0  0  0  0  0  0  0  0  0  0
  188.4020  177.1410  141.8360 N   0  0  0  0  0  2  0  0  0  0  0  0
  188.0030  175.4490  143.3740 O   0  0  0  0  0  0  0  0  0  0  0  0
  188.2850  178.5330  141.4240 C   0  0  0  0  0  2  0  0  0  0  0  0
  188.9680  178.7380  140.0810 C   0  0  0  0  0  2  0  0  0  0  0  0
  190.7010  175.8180  138.7290 O   0  0  0  0  0  0  0  0  0  0  0  0
  189.1820  177.4690  139.3940 N   0  0  0  0  0  0  0  0  0  0  0  0
  190.4460  176.7920  139.4830 C   0  0  0  0  0  0  0  0  0  0  0  0
  191.4050  177.2110  140.3980 O   0  0  0  0  0  1  0  0  0  0  0  0
  188.1530  176.9970  138.4760 C   0  0  0  0  0  2  0  0  0  0  0  0
  187.7320  178.1200  137.5450 C   0  0  0  0  0  2  0  0  0  0  0  0
  186.6740  177.6040  136.5910 C   0  0  0  0  0  2  0  0  0  0  0  0
  183.6560  175.9350  137.9410 N   0  0  0  0  0  2  0  0  0  0  0  0
  185.4330  177.3460  137.3110 N   0  0  0  0  0  2  0  0  0  0  0  0
  184.7380  176.0950  137.2500 C   0  0  0  0  0  0  0  0  0  0  0  0
  185.3030  174.9310  136.5030 C   0  0  0  0  0  2  0  0  0  0  0  0
  186.1000  174.1690  137.3570 O   0  0  0  0  0  1  0  0  0  0  0  0
  1  2  1  0  0  0  0
  2  4  2  0  0  0  0
  2 12  1  0  0  0  0
  3  6  1  0  0  0  0
  3  1  2  0  0  0  0
  5  4  1  0  0  0  0
  6  5  2  0  0  0  0
  7 12  2  0  0  0  0
  7  9  1  0  0  0  0
  8 11  1  0  0  0  0
  8 13  1  0  0  0  0
  9  8  2  0  0  0  0
 10 11  2  0  0  0  0
 12 10  1  0  0  0  0
 14  9  1  0  0  0  0
 15 16  1  0  0  0  0
 17 15  2  0  0  0  0
 18  6  1  0  0  0  0
 18 16  2  0  0  0  0
 19 18  1  0  0  0  0
 20 19  2  0  0  0  0
 20 17  1  0  0  0  0
 21 19  1  0  0  0  0
 22 21  1  0  0  0  0
 23 25  2  0  0  0  0
 23  1  1  0  0  0  0
 24 23  1  0  0  0  0
 26 24  1  0  0  0  0
 27 26  1  0  0  0  0
 28 30  2  0  0  0  0
 29 30  1  0  0  0  0
 29 27  1  0  0  0  0
 30 31  1  0  0  0  0
 32 29  1  0  0  0  0
 33 32  1  0  0  0  0
 34 36  1  0  0  0  0
 34 33  1  0  0  0  0
 37 36  1  0  0  0  0
 37 35  2  0  0  0  0
 38 37  1  0  0  0  0
 38 39  1  0  0  0  0
M  END
>  <MODEL>
1

>  <REMARK>
 VINA RESULT:      -9.5      0.000      0.000
  Name = 
  12 active torsions:
  status: ('A' for Active; 'I' for Inactive)
    1  A    between atoms: C_1  and  C_14
    2  A    between atoms: C_2  and  C_21
    3  A    between atoms: N_8  and  C_33
    4  A    between atoms: C_9  and  C_32
    5  A    between atoms: C_13  and  C_25
    6  A    between atoms: C_13  and  C_33
    7  A    between atoms: C_18  and  N_20
    8  A    between atoms: C_18  and  C_23
    9  A    between atoms: C_19  and  C_30
   10  A    between atoms: N_22  and  C_23
   11  A    between atoms: N_22  and  C_25
   12  A    between atoms: C_27  and  C_34
                            x       y       z     vdW  Elec       q    Type
                         _______ _______ _______ _____ _____    ______ ____

>  <TORSDO>
F 12

$$$$
=
 OpenBabel10232411053D

 39 41  0  0  0  0  0  0  0  0999 V2000
  186.7640  177.4260  143.7730 C   0  0  0  0  0  0  0  0  0  0  0  0
  186.9780  177.8730  145.1070 C   0  0  0  0  0  0  0  0  0  0  0  0
  185.5620  177.7250  143.1220 C   0  0  0  0  0  3  0  0  0  0  0  0
  185.9380  178.5820  145.7350 C   0  0  0  0  0  3  0  0  0  0  0  0
  184.7450  178.8680  145.0720 C   0  0  0  0  0  3  0  0  0  0  0  0
  184.5460  178.4580  143.7490 C   0  0  0  0  0  0  0  0  0  0  0  0
  189.4410  177.2640  145.2760 C   0  0  0  0  0  3  0  0  0  0  0  0
  190.5930  177.2890  147.4070 C   0  0  0  0  0  0  0  0  0  0  0  0
  190.6110  177.0880  146.0200 C   0  0  0  0  0  0  0  0  0  0  0  0
  188.2410  177.8450  147.2830 C   0  0  0  0  0  3  0  0  0  0  0  0
  189.4060  177.6710  148.0350 C   0  0  0  0  0  3  0  0  0  0  0  0
  188.2360  177.6410  145.8880 C   0  0  0  0  0  0  0  0  0  0  0  0
  191.7460  177.1140  148.1640 O   0  0  0  0  0  1  0  0  0  0  0  0
  191.8630  176.6850  145.3190 C   0  0  0  0  0  1  0  0  0  0  0  0
  180.8930  179.2390  143.1610 C   0  0  0  0  0  3  0  0  0  0  0  0
  182.1240  179.0100  143.7740 C   0  0  0  0  0  3  0  0  0  0  0  0
  180.7860  179.2050  141.7740 C   0  0  0  0  0  3  0  0  0  0  0  0
  183.2790  178.7460  143.0150 C   0  0  0  0  0  0  0  0  0  0  0  0
  183.1580  178.7130  141.5960 C   0  0  0  0  0  0  0  0  0  0  0  0
  181.9130  178.9420  140.9970 C   0  0  0  0  0  3  0  0  0  0  0  0
  184.3050  178.4200  140.6860 C   0  0  0  0  0  2  0  0  0  0  0  0
  184.7720  179.6540  140.0760 N   0  0  0  0  0  1  0  0  0  0  0  0
  187.7310  176.6230  143.0120 C   0  0  0  0  0  0  0  0  0  0  0  0
  188.3480  177.1290  141.8270 N   0  0  0  0  0  2  0  0  0  0  0  0
  187.9880  175.4500  143.3900 O   0  0  0  0  0  0  0  0  0  0  0  0
  188.2140  178.5150  141.4020 C   0  0  0  0  0  2  0  0  0  0  0  0
  189.0820  178.7730  140.1810 C   0  0  0  0  0  2  0  0  0  0  0  0
  187.8700  176.4180  137.6620 O   0  0  0  0  0  0  0  0  0  0  0  0
  189.0610  177.6370  139.2650 N   0  0  0  0  0  0  0  0  0  0  0  0
  188.0070  177.4930  138.3010 C   0  0  0  0  0  0  0  0  0  0  0  0
  187.1200  178.5380  138.0660 O   0  0  0  0  0  1  0  0  0  0  0  0
  190.0260  176.5640  139.4720 C   0  0  0  0  0  2  0  0  0  0  0  0
  191.3940  177.1470  139.7820 C   0  0  0  0  0  2  0  0  0  0  0  0
  192.3500  176.7940  138.6610 C   0  0  0  0  0  2  0  0  0  0  0  0
  192.2600  173.5560  136.8670 N   0  0  0  0  0  2  0  0  0  0  0  0
  191.8790  175.6090  137.9550 N   0  0  0  0  0  2  0  0  0  0  0  0
  192.7580  174.5920  137.4590 C   0  0  0  0  0  0  0  0  0  0  0  0
  194.2280  174.6440  137.7220 C   0  0  0  0  0  2  0  0  0  0  0  0
  194.6360  173.4590  138.3340 O   0  0  0  0  0  1  0  0  0  0  0  0
  1  2  1  0  0  0  0
  2  4  2  0  0  0  0
  2 12  1  0  0  0  0
  3  6  1  0  0  0  0
  3  1  2  0  0  0  0
  5  4  1  0  0  0  0
  6  5  2  0  0  0  0
  7 12  2  0  0  0  0
  7  9  1  0  0  0  0
  8 11  1  0  0  0  0
  8 13  1  0  0  0  0
  9  8  2  0  0  0  0
 10 11  2  0  0  0  0
 12 10  1  0  0  0  0
 14  9  1  0  0  0  0
 15 16  1  0  0  0  0
 17 15  2  0  0  0  0
 18  6  1  0  0  0  0
 18 16  2  0  0  0  0
 19 18  1  0  0  0  0
 20 19  2  0  0  0  0
 20 17  1  0  0  0  0
 21 19  1  0  0  0  0
 22 21  1  0  0  0  0
 23 25  2  0  0  0  0
 23  1  1  0  0  0  0
 24 23  1  0  0  0  0
 26 24  1  0  0  0  0
 27 26  1  0  0  0  0
 28 30  2  0  0  0  0
 29 32  1  0  0  0  0
 29 27  1  0  0  0  0
 30 29  1  0  0  0  0
 31 30  1  0  0  0  0
 32 33  1  0  0  0  0
 34 33  1  0  0  0  0
 35 37  2  0  0  0  0
 36 34  1  0  0  0  0
 37 38  1  0  0  0  0
 37 36  1  0  0  0  0
 38 39  1  0  0  0  0
M  END
>  <MODEL>
2

>  <REMARK>
 VINA RESULT:      -9.1      1.871      3.405
  Name = 
  12 active torsions:
  status: ('A' for Active; 'I' for Inactive)
    1  A    between atoms: C_1  and  C_14
    2  A    between atoms: C_2  and  C_21
    3  A    between atoms: N_8  and  C_33
    4  A    between atoms: C_9  and  C_32
    5  A    between atoms: C_13  and  C_25
    6  A    between atoms: C_13  and  C_33
    7  A    between atoms: C_18  and  N_20
    8  A    between atoms: C_18  and  C_23
    9  A    between atoms: C_19  and  C_30
   10  A    between atoms: N_22  and  C_23
   11  A    between atoms: N_22  and  C_25
   12  A    between atoms: C_27  and  C_34
                            x       y       z     vdW  Elec       q    Type
                         _______ _______ _______ _____ _____    ______ ____

>  <TORSDO>
F 12

$$$$
=
 OpenBabel10232411053D

 39 41  0  0  0  0  0  0  0  0999 V2000
  188.5030  177.9300  140.1220 C   0  0  0  0  0  0  0  0  0  0  0  0
  189.5950  177.1690  140.6250 C   0  0  0  0  0  0  0  0  0  0  0  0
  187.4170  178.2260  140.9520 C   0  0  0  0  0  3  0  0  0  0  0  0
  189.5170  176.7120  141.9540 C   0  0  0  0  0  3  0  0  0  0  0  0
  188.4250  177.0130  142.7670 C   0  0  0  0  0  3  0  0  0  0  0  0
  187.3650  177.7890  142.2830 C   0  0  0  0  0  0  0  0  0  0  0  0
  190.7890  175.9450  138.7440 C   0  0  0  0  0  3  0  0  0  0  0  0
  193.1580  176.2610  138.3500 C   0  0  0  0  0  0  0  0  0  0  0  0
  191.9390  175.6630  138.0020 C   0  0  0  0  0  0  0  0  0  0  0  0
  192.0570  177.4180  140.1680 C   0  0  0  0  0  3  0  0  0  0  0  0
  193.2120  177.1410  139.4320 C   0  0  0  0  0  3  0  0  0  0  0  0
  190.8230  176.8210  139.8390 C   0  0  0  0  0  0  0  0  0  0  0  0
  194.3140  175.9880  137.6270 O   0  0  0  0  0  1  0  0  0  0  0  0
  191.8470  174.7230  136.8490 C   0  0  0  0  0  1  0  0  0  0  0  0
  183.8550  178.8600  143.1950 C   0  0  0  0  0  3  0  0  0  0  0  0
  184.9890  178.4840  142.4750 C   0  0  0  0  0  3  0  0  0  0  0  0
  183.8900  178.8880  144.5860 C   0  0  0  0  0  3  0  0  0  0  0  0
  186.1820  178.1250  143.1280 C   0  0  0  0  0  0  0  0  0  0  0  0
  186.2060  178.1590  144.5510 C   0  0  0  0  0  0  0  0  0  0  0  0
  185.0600  178.5410  145.2590 C   0  0  0  0  0  3  0  0  0  0  0  0
  187.4190  177.8220  145.3550 C   0  0  0  0  0  2  0  0  0  0  0  0
  187.1650  178.0950  146.7610 N   0  0  0  0  0  1  0  0  0  0  0  0
  188.4140  178.4210  138.7400 C   0  0  0  0  0  0  0  0  0  0  0  0
  187.8170  177.6330  137.7080 N   0  0  0  0  0  2  0  0  0  0  0  0
  188.9120  179.5410  138.4520 O   0  0  0  0  0  0  0  0  0  0  0  0
  187.0970  176.3970  137.9810 C   0  0  0  0  0  2  0  0  0  0  0  0
  186.6130  175.7770  136.6790 C   0  0  0  0  0  2  0  0  0  0  0  0
  184.8480  172.6030  137.0820 O   0  0  0  0  0  0  0  0  0  0  0  0
  185.5230  174.8360  136.9130 N   0  0  0  0  0  0  0  0  0  0  0  0
  185.7890  173.4370  137.0930 C   0  0  0  0  0  0  0  0  0  0  0  0
  187.0920  172.9860  137.2760 O   0  0  0  0  0  1  0  0  0  0  0  0
  184.1540  175.3170  136.7780 C   0  0  0  0  0  2  0  0  0  0  0  0
  183.5210  175.4780  138.1500 C   0  0  0  0  0  2  0  0  0  0  0  0
  182.8820  176.8480  138.2440 C   0  0  0  0  0  2  0  0  0  0  0  0
  184.5190  180.0220  139.2230 N   0  0  0  0  0  2  0  0  0  0  0  0
  183.8900  177.8520  138.5610 N   0  0  0  0  0  2  0  0  0  0  0  0
  183.5660  179.1980  138.9290 C   0  0  0  0  0  0  0  0  0  0  0  0
  182.1480  179.6340  139.0990 C   0  0  0  0  0  2  0  0  0  0  0  0
  181.7200  179.3410  140.3940 O   0  0  0  0  0  1  0  0  0  0  0  0
  1  2  2  0  0  0  0
  1  3  1  0  0  0  0
  2  4  1  0  0  0  0
  3  6  2  0  0  0  0
  4  5  2  0  0  0  0
  6  5  1  0  0  0  0
  6 18  1  0  0  0  0
  7 12  1  0  0  0  0
  8 11  2  0  0  0  0
  9  8  1  0  0  0  0
  9  7  2  0  0  0  0
 11 10  1  0  0  0  0
 12 10  2  0  0  0  0
 12  2  1  0  0  0  0
 13  8  1  0  0  0  0
 14  9  1  0  0  0  0
 15 17  1  0  0  0  0
 16 18  1  0  0  0  0
 16 15  2  0  0  0  0
 17 20  2  0  0  0  0
 18 19  2  0  0  0  0
 19 20  1  0  0  0  0
 19 21  1  0  0  0  0
 21 22  1  0  0  0  0
 23  1  1  0  0  0  0
 24 26  1  0  0  0  0
 24 23  1  0  0  0  0
 25 23  2  0  0  0  0
 27 29  1  0  0  0  0
 27 26  1  0  0  0  0
 28 30  2  0  0  0  0
 29 30  1  0  0  0  0
 30 31  1  0  0  0  0
 32 29  1  0  0  0  0
 32 33  1  0  0  0  0
 33 34  1  0  0  0  0
 34 36  1  0  0  0  0
 36 37  1  0  0  0  0
 37 38  1  0  0  0  0
 37 35  2  0  0  0  0
 38 39  1  0  0  0  0
M  END
>  <MODEL>
3

>  <REMARK>
 VINA RESULT:      -8.7      2.894      5.927
  Name = 
  12 active torsions:
  status: ('A' for Active; 'I' for Inactive)
    1  A    between atoms: C_1  and  C_14
    2  A    between atoms: C_2  and  C_21
    3  A    between atoms: N_8  and  C_33
    4  A    between atoms: C_9  and  C_32
    5  A    between atoms: C_13  and  C_25
    6  A    between atoms: C_13  and  C_33
    7  A    between atoms: C_18  and  N_20
    8  A    between atoms: C_18  and  C_23
    9  A    between atoms: C_19  and  C_30
   10  A    between atoms: N_22  and  C_23
   11  A    between atoms: N_22  and  C_25
   12  A    between atoms: C_27  and  C_34
                            x       y       z     vdW  Elec       q    Type
                         _______ _______ _______ _____ _____    ______ ____

>  <TORSDO>
F 12

$$$$
=
 OpenBabel10232411053D

 39 41  0  0  0  0  0  0  0  0999 V2000
  186.5600  178.3550  142.6700 C   0  0  0  0  0  0  0  0  0  0  0  0
  185.3630  178.1490  143.4120 C   0  0  0  0  0  0  0  0  0  0  0  0
  187.7970  178.0300  143.2370 C   0  0  0  0  0  3  0  0  0  0  0  0
  185.4820  177.6490  144.7210 C   0  0  0  0  0  3  0  0  0  0  0  0
  186.7240  177.3340  145.2730 C   0  0  0  0  0  3  0  0  0  0  0  0
  187.8990  177.5040  144.5330 C   0  0  0  0  0  0  0  0  0  0  0  0
  183.5760  178.0510  141.6070 C   0  0  0  0  0  3  0  0  0  0  0  0
  181.3490  178.9170  142.0020 C   0  0  0  0  0  0  0  0  0  0  0  0
  182.2740  178.2890  141.1570 C   0  0  0  0  0  0  0  0  0  0  0  0
  183.0360  179.0530  143.7310 C   0  0  0  0  0  3  0  0  0  0  0  0
  181.7320  179.2950  143.2900 C   0  0  0  0  0  3  0  0  0  0  0  0
  183.9840  178.4290  142.8950 C   0  0  0  0  0  0  0  0  0  0  0  0
  180.0510  179.1670  141.5700 O   0  0  0  0  0  1  0  0  0  0  0  0
  181.8940  177.8690  139.7790 C   0  0  0  0  0  1  0  0  0  0  0  0
  191.5490  176.5220  144.6450 C   0  0  0  0  0  3  0  0  0  0  0  0
  190.2800  176.8840  144.1940 C   0  0  0  0  0  3  0  0  0  0  0  0
  191.8090  176.4440  146.0100 C   0  0  0  0  0  3  0  0  0  0  0  0
  189.2420  177.1790  145.0960 C   0  0  0  0  0  0  0  0  0  0  0  0
  189.5190  177.0960  146.4910 C   0  0  0  0  0  0  0  0  0  0  0  0
  190.7980  176.7290  146.9260 C   0  0  0  0  0  3  0  0  0  0  0  0
  188.4950  177.3630  147.5440 C   0  0  0  0  0  2  0  0  0  0  0  0
  188.9870  178.3830  148.4570 N   0  0  0  0  0  1  0  0  0  0  0  0
  186.5980  178.9280  141.3180 C   0  0  0  0  0  0  0  0  0  0  0  0
  187.6220  178.5720  140.3880 N   0  0  0  0  0  2  0  0  0  0  0  0
  185.7330  179.7810  140.9870 O   0  0  0  0  0  0  0  0  0  0  0  0
  188.5710  177.4960  140.6380 C   0  0  0  0  0  2  0  0  0  0  0  0
  189.8860  177.7840  139.9310 C   0  0  0  0  0  2  0  0  0  0  0  0
  189.0920  177.7930  136.3640 O   0  0  0  0  0  0  0  0  0  0  0  0
  189.8430  177.3580  138.5360 N   0  0  0  0  0  0  0  0  0  0  0  0
  189.3260  178.2300  137.5190 C   0  0  0  0  0  0  0  0  0  0  0  0
  189.0700  179.5680  137.8030 O   0  0  0  0  0  1  0  0  0  0  0  0
  190.1650  175.9710  138.2270 C   0  0  0  0  0  2  0  0  0  0  0  0
  191.6530  175.7280  138.4110 C   0  0  0  0  0  2  0  0  0  0  0  0
  192.3630  175.9790  137.0960 C   0  0  0  0  0  2  0  0  0  0  0  0
  195.8890  174.9610  137.5840 N   0  0  0  0  0  2  0  0  0  0  0  0
  193.8050  176.0190  137.3040 N   0  0  0  0  0  2  0  0  0  0  0  0
  194.6110  174.8410  137.4300 C   0  0  0  0  0  0  0  0  0  0  0  0
  194.0220  173.4790  137.2610 C   0  0  0  0  0  2  0  0  0  0  0  0
  194.9500  172.5150  137.6550 O   0  0  0  0  0  1  0  0  0  0  0  0
  1  3  2  0  0  0  0
  1  2  1  0  0  0  0
  2  4  2  0  0  0  0
  3  6  1  0  0  0  0
  4  5  1  0  0  0  0
  6 18  1  0  0  0  0
  6  5  2  0  0  0  0
  7 12  1  0  0  0  0
  8 11  2  0  0  0  0
  9  7  2  0  0  0  0
  9  8  1  0  0  0  0
 11 10  1  0  0  0  0
 12  2  1  0  0  0  0
 12 10  2  0  0  0  0
 13  8  1  0  0  0  0
 14  9  1  0  0  0  0
 15 17  1  0  0  0  0
 16 15  2  0  0  0  0
 16 18  1  0  0  0  0
 17 20  2  0  0  0  0
 18 19  2  0  0  0  0
 19 20  1  0  0  0  0
 19 21  1  0  0  0  0
 21 22  1  0  0  0  0
 23  1  1  0  0  0  0
 24 26  1  0  0  0  0
 24 23  1  0  0  0  0
 25 23  2  0  0  0  0
 27 26  1  0  0  0  0
 28 30  2  0  0  0  0
 29 27  1  0  0  0  0
 30 31  1  0  0  0  0
 30 29  1  0  0  0  0
 32 33  1  0  0  0  0
 32 29  1  0  0  0  0
 34 36  1  0  0  0  0
 34 33  1  0  0  0  0
 36 37  1  0  0  0  0
 37 35  2  0  0  0  0
 38 37  1  0  0  0  0
 38 39  1  0  0  0  0
M  END
>  <MODEL>
4

>  <REMARK>
 VINA RESULT:      -8.6      3.204      7.369
  Name = 
  12 active torsions:
  status: ('A' for Active; 'I' for Inactive)
    1  A    between atoms: C_1  and  C_14
    2  A    between atoms: C_2  and  C_21
    3  A    between atoms: N_8  and  C_33
    4  A    between atoms: C_9  and  C_32
    5  A    between atoms: C_13  and  C_25
    6  A    between atoms: C_13  and  C_33
    7  A    between atoms: C_18  and  N_20
    8  A    between atoms: C_18  and  C_23
    9  A    between atoms: C_19  and  C_30
   10  A    between atoms: N_22  and  C_23
   11  A    between atoms: N_22  and  C_25
   12  A    between atoms: C_27  and  C_34
                            x       y       z     vdW  Elec       q    Type
                         _______ _______ _______ _____ _____    ______ ____

>  <TORSDO>
F 12

$$$$
=
 OpenBabel10232411053D

 39 41  0  0  0  0  0  0  0  0999 V2000
  186.6940  178.2660  142.8120 C   0  0  0  0  0  0  0  0  0  0  0  0
  185.4710  178.0930  143.5170 C   0  0  0  0  0  0  0  0  0  0  0  0
  187.9070  177.9470  143.4310 C   0  0  0  0  0  3  0  0  0  0  0  0
  185.5390  177.6310  144.8440 C   0  0  0  0  0  3  0  0  0  0  0  0
  186.7570  177.3230  145.4480 C   0  0  0  0  0  3  0  0  0  0  0  0
  187.9600  177.4600  144.7450 C   0  0  0  0  0  0  0  0  0  0  0  0
  183.7500  177.9660  141.6500 C   0  0  0  0  0  3  0  0  0  0  0  0
  181.5150  178.8530  141.9440 C   0  0  0  0  0  0  0  0  0  0  0  0
  182.4670  178.2010  141.1480 C   0  0  0  0  0  0  0  0  0  0  0  0
  183.1400  179.0160  143.7310 C   0  0  0  0  0  3  0  0  0  0  0  0
  181.8540  179.2560  143.2370 C   0  0  0  0  0  3  0  0  0  0  0  0
  184.1130  178.3690  142.9440 C   0  0  0  0  0  0  0  0  0  0  0  0
  180.2360  179.1000  141.4600 O   0  0  0  0  0  1  0  0  0  0  0  0
  182.1340  177.7530  139.7660 C   0  0  0  0  0  1  0  0  0  0  0  0
  191.5940  176.4500  145.0140 C   0  0  0  0  0  3  0  0  0  0  0  0
  190.3450  176.8090  144.5080 C   0  0  0  0  0  3  0  0  0  0  0  0
  191.8050  176.4110  146.3890 C   0  0  0  0  0  3  0  0  0  0  0  0
  189.2790  177.1410  145.3640 C   0  0  0  0  0  0  0  0  0  0  0  0
  189.5070  177.0970  146.7700 C   0  0  0  0  0  0  0  0  0  0  0  0
  190.7660  176.7320  147.2610 C   0  0  0  0  0  3  0  0  0  0  0  0
  188.4490  177.4050  147.7780 C   0  0  0  0  0  2  0  0  0  0  0  0
  188.9810  178.3100  148.7840 N   0  0  0  0  0  1  0  0  0  0  0  0
  186.7850  178.7980  141.4450 C   0  0  0  0  0  0  0  0  0  0  0  0
  187.7890  178.3440  140.5360 N   0  0  0  0  0  2  0  0  0  0  0  0
  185.9860  179.7010  141.0830 O   0  0  0  0  0  0  0  0  0  0  0  0
  188.6560  177.2100  140.8250 C   0  0  0  0  0  2  0  0  0  0  0  0
  190.1100  177.5960  140.6060 C   0  0  0  0  0  2  0  0  0  0  0  0
  192.5630  176.4880  138.1340 O   0  0  0  0  0  0  0  0  0  0  0  0
  190.6800  176.8930  139.4620 N   0  0  0  0  0  0  0  0  0  0  0  0
  192.0960  176.9090  139.2240 C   0  0  0  0  0  0  0  0  0  0  0  0
  192.9670  177.3970  140.1920 O   0  0  0  0  0  1  0  0  0  0  0  0
  189.7700  176.3300  138.4730 C   0  0  0  0  0  2  0  0  0  0  0  0
  189.4200  177.3780  137.4310 C   0  0  0  0  0  2  0  0  0  0  0  0
  188.1070  177.0060  136.7740 C   0  0  0  0  0  2  0  0  0  0  0  0
  186.1530  173.9100  137.3300 N   0  0  0  0  0  2  0  0  0  0  0  0
  187.7340  175.6430  137.1330 N   0  0  0  0  0  2  0  0  0  0  0  0
  186.3980  175.1410  137.0170 C   0  0  0  0  0  0  0  0  0  0  0  0
  185.3070  175.9720  136.4250 C   0  0  0  0  0  2  0  0  0  0  0  0
  185.2750  175.7890  135.0430 O   0  0  0  0  0  1  0  0  0  0  0  0
  1  3  2  0  0  0  0
  1  2  1  0  0  0  0
  2  4  2  0  0  0  0
  3  6  1  0  0  0  0
  4  5  1  0  0  0  0
  6 18  1  0  0  0  0
  6  5  2  0  0  0  0
  7 12  1  0  0  0  0
  8 11  2  0  0  0  0
  9  7  2  0  0  0  0
  9  8  1  0  0  0  0
 11 10  1  0  0  0  0
 12  2  1  0  0  0  0
 12 10  2  0  0  0  0
 13  8  1  0  0  0  0
 14  9  1  0  0  0  0
 15 17  1  0  0  0  0
 16 15  2  0  0  0  0
 16 18  1  0  0  0  0
 17 20  2  0  0  0  0
 18 19  2  0  0  0  0
 19 20  1  0  0  0  0
 19 21  1  0  0  0  0
 21 22  1  0  0  0  0
 23  1  1  0  0  0  0
 24 26  1  0  0  0  0
 24 23  1  0  0  0  0
 25 23  2  0  0  0  0
 27 26  1  0  0  0  0
 28 30  2  0  0  0  0
 29 27  1  0  0  0  0
 30 29  1  0  0  0  0
 30 31  1  0  0  0  0
 32 29  1  0  0  0  0
 33 32  1  0  0  0  0
 34 36  1  0  0  0  0
 34 33  1  0  0  0  0
 37 36  1  0  0  0  0
 37 35  2  0  0  0  0
 38 37  1  0  0  0  0
 39 38  1  0  0  0  0
M  END
>  <MODEL>
5

>  <REMARK>
 VINA RESULT:      -8.4      2.436      6.386
  Name = 
  12 active torsions:
  status: ('A' for Active; 'I' for Inactive)
    1  A    between atoms: C_1  and  C_14
    2  A    between atoms: C_2  and  C_21
    3  A    between atoms: N_8  and  C_33
    4  A    between atoms: C_9  and  C_32
    5  A    between atoms: C_13  and  C_25
    6  A    between atoms: C_13  and  C_33
    7  A    between atoms: C_18  and  N_20
    8  A    between atoms: C_18  and  C_23
    9  A    between atoms: C_19  and  C_30
   10  A    between atoms: N_22  and  C_23
   11  A    between atoms: N_22  and  C_25
   12  A    between atoms: C_27  and  C_34
                            x       y       z     vdW  Elec       q    Type
                         _______ _______ _______ _____ _____    ______ ____

>  <TORSDO>
F 12

$$$$
=
 OpenBabel10232411053D

 39 41  0  0  0  0  0  0  0  0999 V2000
  186.4410  177.6140  143.2690 C   0  0  0  0  0  0  0  0  0  0  0  0
  186.4310  178.0430  144.6250 C   0  0  0  0  0  0  0  0  0  0  0  0
  185.3330  177.8620  142.4510 C   0  0  0  0  0  3  0  0  0  0  0  0
  185.2720  178.6830  145.1020 C   0  0  0  0  0  3  0  0  0  0  0  0
  184.1760  178.9180  144.2740 C   0  0  0  0  0  3  0  0  0  0  0  0
  184.1960  178.5260  142.9310 C   0  0  0  0  0  0  0  0  0  0  0  0
  188.8880  177.6470  145.1470 C   0  0  0  0  0  3  0  0  0  0  0  0
  189.6910  177.6020  147.4320 C   0  0  0  0  0  0  0  0  0  0  0  0
  189.9420  177.5170  146.0550 C   0  0  0  0  0  0  0  0  0  0  0  0
  187.3410  177.9520  146.9700 C   0  0  0  0  0  3  0  0  0  0  0  0
  188.3900  177.8230  147.8850 C   0  0  0  0  0  3  0  0  0  0  0  0
  187.5720  177.8630  145.5820 C   0  0  0  0  0  0  0  0  0  0  0  0
  190.7270  177.4700  148.3500 O   0  0  0  0  0  1  0  0  0  0  0  0
  191.3210  177.2880  145.5390 C   0  0  0  0  0  1  0  0  0  0  0  0
  182.2690  179.1270  139.7330 C   0  0  0  0  0  3  0  0  0  0  0  0
  183.2920  178.8580  140.6410 C   0  0  0  0  0  3  0  0  0  0  0  0
  180.9650  179.3080  140.1840 C   0  0  0  0  0  3  0  0  0  0  0  0
  183.0370  178.7610  142.0210 C   0  0  0  0  0  0  0  0  0  0  0  0
  181.6980  178.9490  142.4720 C   0  0  0  0  0  0  0  0  0  0  0  0
  180.6830  179.2210  141.5470 C   0  0  0  0  0  3  0  0  0  0  0  0
  181.3070  178.8930  143.9110 C   0  0  0  0  0  2  0  0  0  0  0  0
  180.0910  178.1080  144.0570 N   0  0  0  0  0  1  0  0  0  0  0  0
  187.5520  176.8800  142.6490 C   0  0  0  0  0  0  0  0  0  0  0  0
  188.1300  177.3090  141.4150 N   0  0  0  0  0  2  0  0  0  0  0  0
  187.9760  175.8290  143.1970 O   0  0  0  0  0  0  0  0  0  0  0  0
  187.7960  178.5820  140.7920 C   0  0  0  0  0  2  0  0  0  0  0  0
  188.4740  178.6930  139.4360 C   0  0  0  0  0  2  0  0  0  0  0  0
  185.9350  177.0960  137.3490 O   0  0  0  0  0  0  0  0  0  0  0  0
  187.8710  177.7870  138.4650 N   0  0  0  0  0  0  0  0  0  0  0  0
  186.5230  177.9870  138.0150 C   0  0  0  0  0  0  0  0  0  0  0  0
  185.8480  179.1650  138.3160 O   0  0  0  0  0  1  0  0  0  0  0  0
  188.6000  176.5780  138.1020 C   0  0  0  0  0  2  0  0  0  0  0  0
  189.9240  176.9420  137.4530 C   0  0  0  0  0  2  0  0  0  0  0  0
  190.9750  175.9340  137.8690 C   0  0  0  0  0  2  0  0  0  0  0  0
  193.5360  177.6610  139.9120 N   0  0  0  0  0  2  0  0  0  0  0  0
  192.1930  176.6210  138.2820 N   0  0  0  0  0  2  0  0  0  0  0  0
  192.4160  177.0850  139.6190 C   0  0  0  0  0  0  0  0  0  0  0  0
  191.4330  176.8060  140.7090 C   0  0  0  0  0  2  0  0  0  0  0  0
  191.5590  177.7680  141.7100 O   0  0  0  0  0  1  0  0  0  0  0  0
  1  2  1  0  0  0  0
  2  4  2  0  0  0  0
  2 12  1  0  0  0  0
  3  6  1  0  0  0  0
  3  1  2  0  0  0  0
  5  4  1  0  0  0  0
  6  5  2  0  0  0  0
  7 12  2  0  0  0  0
  7  9  1  0  0  0  0
  8 11  1  0  0  0  0
  8 13  1  0  0  0  0
  9  8  2  0  0  0  0
 10 11  2  0  0  0  0
 12 10  1  0  0  0  0
 14  9  1  0  0  0  0
 15 17  2  0  0  0  0
 15 16  1  0  0  0  0
 16 18  2  0  0  0  0
 17 20  1  0  0  0  0
 18 19  1  0  0  0  0
 18  6  1  0  0  0  0
 19 21  1  0  0  0  0
 20 19  2  0  0  0  0
 21 22  1  0  0  0  0
 23 25  2  0  0  0  0
 23  1  1  0  0  0  0
 24 23  1  0  0  0  0
 26 24  1  0  0  0  0
 27 26  1  0  0  0  0
 28 30  2  0  0  0  0
 29 27  1  0  0  0  0
 30 31  1  0  0  0  0
 30 29  1  0  0  0  0
 32 29  1  0  0  0  0
 33 34  1  0  0  0  0
 33 32  1  0  0  0  0
 34 36  1  0  0  0  0
 36 37  1  0  0  0  0
 37 35  2  0  0  0  0
 37 38  1  0  0  0  0
 38 39  1  0  0  0  0
M  END
>  <MODEL>
6

>  <REMARK>
 VINA RESULT:      -8.2      1.921      3.790
  Name = 
  12 active torsions:
  status: ('A' for Active; 'I' for Inactive)
    1  A    between atoms: C_1  and  C_14
    2  A    between atoms: C_2  and  C_21
    3  A    between atoms: N_8  and  C_33
    4  A    between atoms: C_9  and  C_32
    5  A    between atoms: C_13  and  C_25
    6  A    between atoms: C_13  and  C_33
    7  A    between atoms: C_18  and  N_20
    8  A    between atoms: C_18  and  C_23
    9  A    between atoms: C_19  and  C_30
   10  A    between atoms: N_22  and  C_23
   11  A    between atoms: N_22  and  C_25
   12  A    between atoms: C_27  and  C_34
                            x       y       z     vdW  Elec       q    Type
                         _______ _______ _______ _____ _____    ______ ____

>  <TORSDO>
F 12

$$$$
=
 OpenBabel10232411053D

 39 41  0  0  0  0  0  0  0  0999 V2000
  188.1350  177.2010  137.5110 C   0  0  0  0  0  0  0  0  0  0  0  0
  188.9690  176.1330  137.0790 C   0  0  0  0  0  0  0  0  0  0  0  0
  186.7450  177.0450  137.5110 C   0  0  0  0  0  3  0  0  0  0  0  0
  188.3450  174.9550  136.6300 C   0  0  0  0  0  3  0  0  0  0  0  0
  186.9570  174.8180  136.6320 C   0  0  0  0  0  3  0  0  0  0  0  0
  186.1370  175.8550  137.0880 C   0  0  0  0  0  0  0  0  0  0  0  0
  191.2160  176.5290  138.2020 C   0  0  0  0  0  3  0  0  0  0  0  0
  193.2930  176.1660  137.0100 C   0  0  0  0  0  0  0  0  0  0  0  0
  192.6130  176.5270  138.1810 C   0  0  0  0  0  0  0  0  0  0  0  0
  191.1700  175.8080  135.9030 C   0  0  0  0  0  3  0  0  0  0  0  0
  192.5680  175.8040  135.8730 C   0  0  0  0  0  3  0  0  0  0  0  0
  190.4680  176.1750  137.0690 C   0  0  0  0  0  0  0  0  0  0  0  0
  194.6820  176.1640  136.9690 O   0  0  0  0  0  1  0  0  0  0  0  0
  193.3580  176.9130  139.4130 C   0  0  0  0  0  1  0  0  0  0  0  0
  182.5030  176.8830  136.8890 C   0  0  0  0  0  3  0  0  0  0  0  0
  183.8970  176.9010  136.8460 C   0  0  0  0  0  3  0  0  0  0  0  0
  181.8280  175.7040  137.1900 C   0  0  0  0  0  3  0  0  0  0  0  0
  184.6490  175.7390  137.1000 C   0  0  0  0  0  0  0  0  0  0  0  0
  183.9480  174.5380  137.4070 C   0  0  0  0  0  0  0  0  0  0  0  0
  182.5480  174.5390  137.4480 C   0  0  0  0  0  3  0  0  0  0  0  0
  184.6350  173.2490  137.7160 C   0  0  0  0  0  2  0  0  0  0  0  0
  183.8280  172.1380  137.2380 N   0  0  0  0  0  1  0  0  0  0  0  0
  188.6400  178.5100  137.9470 C   0  0  0  0  0  0  0  0  0  0  0  0
  188.7600  178.8370  139.3330 N   0  0  0  0  0  2  0  0  0  0  0  0
  188.9330  179.3760  137.0810 O   0  0  0  0  0  0  0  0  0  0  0  0
  188.5780  177.8530  140.3910 C   0  0  0  0  0  2  0  0  0  0  0  0
  188.3170  178.5520  141.7150 C   0  0  0  0  0  2  0  0  0  0  0  0
  184.8540  178.2950  142.8540 O   0  0  0  0  0  1  0  0  0  0  0  0
  187.1260  178.0220  142.3700 N   0  0  0  0  0  0  0  0  0  0  0  0
  185.8370  178.6100  142.1360 C   0  0  0  0  0  0  0  0  0  0  0  0
  185.6630  179.5400  141.1170 O   0  0  0  0  0  0  0  0  0  0  0  0
  187.2990  177.0040  143.4000 C   0  0  0  0  0  2  0  0  0  0  0  0
  187.4820  177.6620  144.7560 C   0  0  0  0  0  2  0  0  0  0  0  0
  188.7500  177.1360  145.3970 C   0  0  0  0  0  2  0  0  0  0  0  0
  191.8990  178.5780  144.0870 N   0  0  0  0  0  2  0  0  0  0  0  0
  189.8590  178.0450  145.1350 N   0  0  0  0  0  2  0  0  0  0  0  0
  190.9670  177.7050  144.2930 C   0  0  0  0  0  0  0  0  0  0  0  0
  191.0060  176.4100  143.5490 C   0  0  0  0  0  2  0  0  0  0  0  0
  191.9850  175.5830  144.0980 O   0  0  0  0  0  1  0  0  0  0  0  0
  1  3  1  0  0  0  0
  1 23  1  0  0  0  0
  2  1  2  0  0  0  0
  4  5  2  0  0  0  0
  4  2  1  0  0  0  0
  5  6  1  0  0  0  0
  6 18  1  0  0  0  0
  6  3  2  0  0  0  0
  8  9  2  0  0  0  0
  9  7  1  0  0  0  0
  9 14  1  0  0  0  0
 10 12  1  0  0  0  0
 11 10  2  0  0  0  0
 11  8  1  0  0  0  0
 12  2  1  0  0  0  0
 12  7  2  0  0  0  0
 13  8  1  0  0  0  0
 15 17  1  0  0  0  0
 16 15  2  0  0  0  0
 16 18  1  0  0  0  0
 17 20  2  0  0  0  0
 18 19  2  0  0  0  0
 19 20  1  0  0  0  0
 19 21  1  0  0  0  0
 22 21  1  0  0  0  0
 23 24  1  0  0  0  0
 24 26  1  0  0  0  0
 25 23  2  0  0  0  0
 26 27  1  0  0  0  0
 27 29  1  0  0  0  0
 29 32  1  0  0  0  0
 30 29  1  0  0  0  0
 30 28  1  0  0  0  0
 31 30  2  0  0  0  0
 32 33  1  0  0  0  0
 33 34  1  0  0  0  0
 35 37  2  0  0  0  0
 36 34  1  0  0  0  0
 37 36  1  0  0  0  0
 38 39  1  0  0  0  0
 38 37  1  0  0  0  0
M  END
>  <MODEL>
7

>  <REMARK>
 VINA RESULT:      -8.1      2.845      7.828
  Name = 
  12 active torsions:
  status: ('A' for Active; 'I' for Inactive)
    1  A    between atoms: C_1  and  C_14
    2  A    between atoms: C_2  and  C_21
    3  A    between atoms: N_8  and  C_33
    4  A    between atoms: C_9  and  C_32
    5  A    between atoms: C_13  and  C_25
    6  A    between atoms: C_13  and  C_33
    7  A    between atoms: C_18  and  N_20
    8  A    between atoms: C_18  and  C_23
    9  A    between atoms: C_19  and  C_30
   10  A    between atoms: N_22  and  C_23
   11  A    between atoms: N_22  and  C_25
   12  A    between atoms: C_27  and  C_34
                            x       y       z     vdW  Elec       q    Type
                         _______ _______ _______ _____ _____    ______ ____

>  <TORSDO>
F 12

$$$$
=
 OpenBabel10232411053D

 39 41  0  0  0  0  0  0  0  0999 V2000
  187.6090  177.5220  137.6030 C   0  0  0  0  0  0  0  0  0  0  0  0
  187.9010  176.1680  137.2780 C   0  0  0  0  0  0  0  0  0  0  0  0
  186.2830  177.9670  137.6090 C   0  0  0  0  0  3  0  0  0  0  0  0
  186.8250  175.3290  136.9380 C   0  0  0  0  0  3  0  0  0  0  0  0
  185.5090  175.7900  136.9440 C   0  0  0  0  0  3  0  0  0  0  0  0
  185.2160  177.1130  137.2960 C   0  0  0  0  0  0  0  0  0  0  0  0
  190.4050  176.2910  137.7010 C   0  0  0  0  0  3  0  0  0  0  0  0
  191.8360  174.3750  137.3110 C   0  0  0  0  0  0  0  0  0  0  0  0
  191.6740  175.7050  137.7230 C   0  0  0  0  0  0  0  0  0  0  0  0
  189.4600  174.2350  136.8710 C   0  0  0  0  0  3  0  0  0  0  0  0
  190.7260  173.6420  136.8880 C   0  0  0  0  0  3  0  0  0  0  0  0
  189.2780  175.5740  137.2730 C   0  0  0  0  0  0  0  0  0  0  0  0
  193.0910  173.7780  137.3210 O   0  0  0  0  0  1  0  0  0  0  0  0
  192.8380  176.5130  138.1840 C   0  0  0  0  0  1  0  0  0  0  0  0
  181.8100  178.1460  136.0200 C   0  0  0  0  0  3  0  0  0  0  0  0
  183.1020  177.6280  136.0990 C   0  0  0  0  0  3  0  0  0  0  0  0
  181.2060  178.6900  137.1500 C   0  0  0  0  0  3  0  0  0  0  0  0
  183.8190  177.6370  137.3090 C   0  0  0  0  0  0  0  0  0  0  0  0
  183.1910  178.1960  138.4580 C   0  0  0  0  0  0  0  0  0  0  0  0
  181.8940  178.7150  138.3610 C   0  0  0  0  0  3  0  0  0  0  0  0
  183.8580  178.2830  139.7910 C   0  0  0  0  0  2  0  0  0  0  0  0
  184.4740  179.5920  139.9450 N   0  0  0  0  0  1  0  0  0  0  0  0
  188.6310  178.5290  137.9180 C   0  0  0  0  0  0  0  0  0  0  0  0
  188.8980  178.9220  139.2650 N   0  0  0  0  0  2  0  0  0  0  0  0
  189.2560  179.0850  136.9770 O   0  0  0  0  0  0  0  0  0  0  0  0
  188.3250  178.2330  140.4130 C   0  0  0  0  0  2  0  0  0  0  0  0
  189.3320  177.2510  140.9880 C   0  0  0  0  0  2  0  0  0  0  0  0
  191.8310  177.8950  143.5760 O   0  0  0  0  0  1  0  0  0  0  0  0
  189.9330  177.7630  142.2150 N   0  0  0  0  0  0  0  0  0  0  0  0
  191.3460  177.6500  142.4420 C   0  0  0  0  0  0  0  0  0  0  0  0
  192.1950  177.2620  141.4110 O   0  0  0  0  0  0  0  0  0  0  0  0
  189.0480  178.2250  143.2770 C   0  0  0  0  0  2  0  0  0  0  0  0
  188.6760  177.0660  144.1860 C   0  0  0  0  0  2  0  0  0  0  0  0
  187.1680  177.0040  144.3180 C   0  0  0  0  0  2  0  0  0  0  0  0
  185.2970  178.8320  146.9400 N   0  0  0  0  0  2  0  0  0  0  0  0
  186.7540  177.5530  145.6040 N   0  0  0  0  0  2  0  0  0  0  0  0
  185.6160  178.4080  145.7600 C   0  0  0  0  0  0  0  0  0  0  0  0
  184.7180  178.7200  144.6080 C   0  0  0  0  0  2  0  0  0  0  0  0
  183.4920  179.1850  145.0820 O   0  0  0  0  0  1  0  0  0  0  0  0
  1  3  1  0  0  0  0
  1 23  1  0  0  0  0
  2  1  2  0  0  0  0
  4  5  2  0  0  0  0
  4  2  1  0  0  0  0
  5  6  1  0  0  0  0
  6 18  1  0  0  0  0
  6  3  2  0  0  0  0
  7  9  1  0  0  0  0
  8 13  1  0  0  0  0
  8  9  2  0  0  0  0
  9 14  1  0  0  0  0
 10 11  2  0  0  0  0
 10 12  1  0  0  0  0
 11  8  1  0  0  0  0
 12  2  1  0  0  0  0
 12  7  2  0  0  0  0
 15 16  2  0  0  0  0
 15 17  1  0  0  0  0
 16 18  1  0  0  0  0
 17 20  2  0  0  0  0
 18 19  2  0  0  0  0
 19 21  1  0  0  0  0
 20 19  1  0  0  0  0
 21 22  1  0  0  0  0
 23 24  1  0  0  0  0
 24 26  1  0  0  0  0
 25 23  2  0  0  0  0
 26 27  1  0  0  0  0
 27 29  1  0  0  0  0
 29 30  1  0  0  0  0
 29 32  1  0  0  0  0
 30 28  1  0  0  0  0
 31 30  2  0  0  0  0
 32 33  1  0  0  0  0
 33 34  1  0  0  0  0
 34 36  1  0  0  0  0
 36 37  1  0  0  0  0
 37 35  2  0  0  0  0
 38 39  1  0  0  0  0
 38 37  1  0  0  0  0
M  END
>  <MODEL>
8

>  <REMARK>
 VINA RESULT:      -8.0      2.697      7.151
  Name = 
  12 active torsions:
  status: ('A' for Active; 'I' for Inactive)
    1  A    between atoms: C_1  and  C_14
    2  A    between atoms: C_2  and  C_21
    3  A    between atoms: N_8  and  C_33
    4  A    between atoms: C_9  and  C_32
    5  A    between atoms: C_13  and  C_25
    6  A    between atoms: C_13  and  C_33
    7  A    between atoms: C_18  and  N_20
    8  A    between atoms: C_18  and  C_23
    9  A    between atoms: C_19  and  C_30
   10  A    between atoms: N_22  and  C_23
   11  A    between atoms: N_22  and  C_25
   12  A    between atoms: C_27  and  C_34
                            x       y       z     vdW  Elec       q    Type
                         _______ _______ _______ _____ _____    ______ ____

>  <TORSDO>
F 12

$$$$
=
 OpenBabel10232411053D

 39 41  0  0  0  0  0  0  0  0999 V2000
  187.1970  177.7300  137.6370 C   0  0  0  0  0  0  0  0  0  0  0  0
  187.4320  176.5300  136.9110 C   0  0  0  0  0  0  0  0  0  0  0  0
  185.9080  178.0290  138.0900 C   0  0  0  0  0  3  0  0  0  0  0  0
  186.3300  175.6960  136.6480 C   0  0  0  0  0  3  0  0  0  0  0  0
  185.0510  176.0110  137.1040 C   0  0  0  0  0  3  0  0  0  0  0  0
  184.8230  177.1750  137.8470 C   0  0  0  0  0  0  0  0  0  0  0  0
  189.7740  175.6040  137.2620 C   0  0  0  0  0  3  0  0  0  0  0  0
  191.2590  175.2110  135.3900 C   0  0  0  0  0  0  0  0  0  0  0  0
  191.0060  175.1660  136.7670 C   0  0  0  0  0  0  0  0  0  0  0  0
  189.0470  176.1210  135.0240 C   0  0  0  0  0  3  0  0  0  0  0  0
  190.2760  175.6860  134.5200 C   0  0  0  0  0  3  0  0  0  0  0  0
  188.7750  176.0910  136.4070 C   0  0  0  0  0  0  0  0  0  0  0  0
  192.4810  174.7850  134.8800 O   0  0  0  0  0  1  0  0  0  0  0  0
  192.0320  174.6590  137.7210 C   0  0  0  0  0  1  0  0  0  0  0  0
  182.0060  177.8460  140.2790 C   0  0  0  0  0  3  0  0  0  0  0  0
  183.2590  177.5630  139.7370 C   0  0  0  0  0  3  0  0  0  0  0  0
  180.9270  178.1120  139.4400 C   0  0  0  0  0  3  0  0  0  0  0  0
  183.4650  177.5410  138.3460 C   0  0  0  0  0  0  0  0  0  0  0  0
  182.3540  177.8140  137.4970 C   0  0  0  0  0  0  0  0  0  0  0  0
  181.1020  178.0950  138.0570 C   0  0  0  0  0  3  0  0  0  0  0  0
  182.4420  177.7990  136.0070 C   0  0  0  0  0  2  0  0  0  0  0  0
  181.4820  178.7390  135.4500 N   0  0  0  0  0  1  0  0  0  0  0  0
  188.2350  178.7270  137.9320 C   0  0  0  0  0  0  0  0  0  0  0  0
  188.8200  178.8280  139.2310 N   0  0  0  0  0  2  0  0  0  0  0  0
  188.5850  179.5350  137.0320 O   0  0  0  0  0  0  0  0  0  0  0  0
  188.5760  177.8490  140.2810 C   0  0  0  0  0  2  0  0  0  0  0  0
  188.3480  178.5540  141.6090 C   0  0  0  0  0  2  0  0  0  0  0  0
  184.9910  178.1980  143.0080 O   0  0  0  0  0  1  0  0  0  0  0  0
  187.2190  177.9760  142.3300 N   0  0  0  0  0  0  0  0  0  0  0  0
  185.9110  178.5600  142.2300 C   0  0  0  0  0  0  0  0  0  0  0  0
  185.6470  179.5380  141.2780 O   0  0  0  0  0  0  0  0  0  0  0  0
  187.4820  176.9110  143.2890 C   0  0  0  0  0  2  0  0  0  0  0  0
  187.5960  177.4870  144.6890 C   0  0  0  0  0  2  0  0  0  0  0  0
  188.9550  177.1390  145.2610 C   0  0  0  0  0  2  0  0  0  0  0  0
  191.8000  179.2030  144.0960 N   0  0  0  0  0  2  0  0  0  0  0  0
  189.8790  178.2500  145.0690 N   0  0  0  0  0  2  0  0  0  0  0  0
  191.0440  178.1640  144.2380 C   0  0  0  0  0  0  0  0  0  0  0  0
  191.3330  176.9380  143.4350 C   0  0  0  0  0  2  0  0  0  0  0  0
  191.6200  177.2970  142.1190 O   0  0  0  0  0  1  0  0  0  0  0  0
  1 23  1  0  0  0  0
  1  3  1  0  0  0  0
  2  1  2  0  0  0  0
  4  2  1  0  0  0  0
  4  5  2  0  0  0  0
  5  6  1  0  0  0  0
  6  3  2  0  0  0  0
  6 18  1  0  0  0  0
  8  9  2  0  0  0  0
  9  7  1  0  0  0  0
  9 14  1  0  0  0  0
 10 12  1  0  0  0  0
 11 10  2  0  0  0  0
 11  8  1  0  0  0  0
 12  2  1  0  0  0  0
 12  7  2  0  0  0  0
 13  8  1  0  0  0  0
 16 15  1  0  0  0  0
 17 15  2  0  0  0  0
 18 16  2  0  0  0  0
 19 20  2  0  0  0  0
 19 18  1  0  0  0  0
 20 17  1  0  0  0  0
 21 19  1  0  0  0  0
 22 21  1  0  0  0  0
 23 24  1  0  0  0  0
 24 26  1  0  0  0  0
 25 23  2  0  0  0  0
 26 27  1  0  0  0  0
 27 29  1  0  0  0  0
 29 32  1  0  0  0  0
 30 29  1  0  0  0  0
 30 28  1  0  0  0  0
 31 30  2  0  0  0  0
 32 33  1  0  0  0  0
 33 34  1  0  0  0  0
 35 37  2  0  0  0  0
 36 34  1  0  0  0  0
 37 36  1  0  0  0  0
 38 37  1  0  0  0  0
 39 38  1  0  0  0  0
M  END
>  <MODEL>
9

>  <REMARK>
 VINA RESULT:      -8.0      2.730      7.677
  Name = 
  12 active torsions:
  status: ('A' for Active; 'I' for Inactive)
    1  A    between atoms: C_1  and  C_14
    2  A    between atoms: C_2  and  C_21
    3  A    between atoms: N_8  and  C_33
    4  A    between atoms: C_9  and  C_32
    5  A    between atoms: C_13  and  C_25
    6  A    between atoms: C_13  and  C_33
    7  A    between atoms: C_18  and  N_20
    8  A    between atoms: C_18  and  C_23
    9  A    between atoms: C_19  and  C_30
   10  A    between atoms: N_22  and  C_23
   11  A    between atoms: N_22  and  C_25
   12  A    between atoms: C_27  and  C_34
                            x       y       z     vdW  Elec       q    Type
                         _______ _______ _______ _____ _____    ______ ____

>  <TORSDO>
F 12

$$$$
