=
 OpenBabel10232411273D

 36 39  0  0  1  0  0  0  0  0999 V2000
  190.5010  176.5200  138.2130 C   0  0  0  0  0  0  0  0  0  0  0  0
  187.4490  177.3040  137.6730 C   0  0  2  0  0  3  0  0  0  0  0  0
  193.2990  172.9340  136.4420 O   0  0  0  0  0  0  0  0  0  0  0  0
  188.6840  178.1970  137.7960 C   0  0  0  0  0  2  0  0  0  0  0  0
  191.0890  174.5060  137.2830 C   0  0  0  0  0  2  0  0  0  0  0  0
  187.7460  176.0320  136.8670 C   0  0  1  0  0  3  0  0  0  0  0  0
  191.9170  176.5180  138.1290 N   0  0  0  0  0  0  0  0  0  0  0  0
  188.5370  175.0380  137.7060 C   0  0  0  0  0  2  0  0  0  0  0  0
  194.1100  173.8270  136.8060 C   0  0  0  0  0  0  0  0  0  0  0  0
  192.2570  175.3870  137.6060 C   0  0  0  0  0  0  0  0  0  0  0  0
  189.7260  177.6690  138.7850 C   0  0  1  0  0  3  0  0  0  0  0  0
  186.5700  175.4180  136.4750 F   0  0  0  0  0  0  0  0  0  0  0  0
  189.9870  175.3920  137.7430 C   0  0  0  0  0  0  0  0  0  0  0  0
  193.6300  175.0510  137.3830 N   0  0  0  0  0  2  0  0  0  0  0  0
  195.5220  173.6190  136.6460 N   0  0  0  0  0  0  0  0  0  0  0  0
  196.0260  172.3440  136.1600 C   0  0  0  0  0  1  0  0  0  0  0  0
  188.5840  179.4870  140.6660 O   0  0  0  0  0  0  0  0  0  0  0  0
  188.5810  178.2650  140.9770 C   0  0  0  0  0  0  0  0  0  0  0  0
  189.1010  177.3050  140.0520 N   0  0  0  0  0  2  0  0  0  0  0  0
  186.7110  177.4670  144.7120 C   0  0  0  0  0  0  0  0  0  0  0  0
  187.7280  177.8360  146.5990 C   0  0  0  0  0  3  0  0  0  0  0  0
  188.0030  177.8470  142.2830 C   0  0  0  0  0  0  0  0  0  0  0  0
  188.6510  177.2090  145.8770 C   0  0  0  0  0  3  0  0  0  0  0  0
  186.5210  177.9610  142.4250 C   0  0  0  0  0  3  0  0  0  0  0  0
  188.0480  176.8450  144.5590 C   0  0  2  0  0  3  0  0  0  0  0  0
  186.5260  178.0190  145.8610 N   0  0  0  0  0  0  0  0  0  0  0  0
  185.9270  177.8030  143.5730 N   0  0  0  0  0  0  0  0  0  0  0  0
  190.2370  177.3220  143.3000 C   0  0  0  0  0  1  0  0  0  0  0  0
  188.7440  177.4160  143.3440 C   0  0  0  0  0  0  0  0  0  0  0  0
  197.0490  175.3520  135.8620 C   0  0  0  0  0  1  0  0  0  0  0  0
  196.4870  174.6230  137.0690 C   0  0  0  0  0  2  0  0  0  0  0  0
  186.3400  178.1210  137.0240 C   0  0  0  0  0  2  0  0  0  0  0  0
  185.0900  178.0480  137.8400 C   0  0  0  0  0  0  0  0  0  0  0  0
  184.0990  177.4900  137.3950 O   0  0  0  0  0  0  0  0  0  0  0  0
  185.0690  178.6200  139.2180 C   0  0  0  0  0  2  0  0  0  0  0  0
  184.4980  179.9550  139.1890 N   0  0  0  0  0  1  0  0  0  0  0  0
  1 11  1  0  0  0  0
  2 32  1  6  0  0  0
  2  4  1  0  0  0  0
  3  9  2  0  0  0  0
  4 11  1  0  0  0  0
  5 10  1  0  0  0  0
  5 13  1  0  0  0  0
  6 12  1  1  0  0  0
  6  2  1  0  0  0  0
  6  8  1  0  0  0  0
  7  1  1  0  0  0  0
  8 13  1  0  0  0  0
  9 14  1  0  0  0  0
 10  7  2  0  0  0  0
 11 19  1  1  0  0  0
 13  1  2  0  0  0  0
 14 10  1  0  0  0  0
 15  9  1  0  0  0  0
 15 31  1  0  0  0  0
 16 15  1  0  0  0  0
 17 18  2  0  0  0  0
 18 22  1  0  0  0  0
 19 18  1  0  0  0  0
 20 26  2  0  0  0  0
 22 24  1  0  0  0  0
 22 29  2  0  0  0  0
 23 21  2  0  0  0  0
 24 27  2  0  0  0  0
 25 20  1  0  0  0  0
 25 23  1  1  0  0  0
 26 21  1  0  0  0  0
 27 20  1  0  0  0  0
 28 29  1  0  0  0  0
 29 25  1  0  0  0  0
 30 31  1  0  0  0  0
 32 33  1  0  0  0  0
 33 35  1  0  0  0  0
 34 33  2  0  0  0  0
 36 35  1  0  0  0  0
M  END
>  <MODEL>
1

>  <REMARK>
 VINA RESULT:      -7.9      0.000      0.000
  Name = 
  6 active torsions:
  status: ('A' for Active; 'I' for Inactive)
    1  A    between atoms: C_4  and  C_11
    2  A    between atoms: C_5  and  C_21
    3  A    between atoms: C_6  and  C_27
    4  A    between atoms: C_11  and  C_21
    5  A    between atoms: C_28  and  N_34
    6  A    between atoms: N_29  and  C_30
                            x       y       z     vdW  Elec       q    Type
                         _______ _______ _______ _____ _____    ______ ____

>  <TORSDO>
F 6

$$$$
=
 OpenBabel10232411273D

 36 39  0  0  1  0  0  0  0  0999 V2000
  191.4250  176.2000  137.7690 C   0  0  0  0  0  0  0  0  0  0  0  0
  188.3730  176.5280  136.8720 C   0  0  2  0  0  3  0  0  0  0  0  0
  194.7610  172.7840  136.7570 O   0  0  0  0  0  0  0  0  0  0  0  0
  189.4850  177.5740  136.9710 C   0  0  0  0  0  2  0  0  0  0  0  0
  192.3200  174.1700  137.1820 C   0  0  0  0  0  2  0  0  0  0  0  0
  188.8880  175.2090  136.2790 C   0  0  1  0  0  3  0  0  0  0  0  0
  192.8330  176.3600  137.8050 N   0  0  0  0  0  0  0  0  0  0  0  0
  189.6950  174.4360  137.3130 C   0  0  0  0  0  2  0  0  0  0  0  0
  195.4290  173.8100  137.0590 C   0  0  0  0  0  0  0  0  0  0  0  0
  193.3460  175.2210  137.4750 C   0  0  0  0  0  0  0  0  0  0  0  0
  190.4750  177.3100  138.1080 C   0  0  1  0  0  3  0  0  0  0  0  0
  187.8300  174.4090  135.8800 F   0  0  0  0  0  0  0  0  0  0  0  0
  191.0870  174.9660  137.4200 C   0  0  0  0  0  0  0  0  0  0  0  0
  194.7630  175.0290  137.4160 N   0  0  0  0  0  2  0  0  0  0  0  0
  196.8640  173.7570  137.0480 N   0  0  0  0  0  0  0  0  0  0  0  0
  197.5510  172.5010  136.7890 C   0  0  0  0  0  1  0  0  0  0  0  0
  188.9450  179.1980  139.6050 O   0  0  0  0  0  0  0  0  0  0  0  0
  189.0530  178.0380  140.0870 C   0  0  0  0  0  0  0  0  0  0  0  0
  189.7710  177.0390  139.3570 N   0  0  0  0  0  2  0  0  0  0  0  0
  187.0490  177.5770  143.8100 C   0  0  0  0  0  0  0  0  0  0  0  0
  188.1160  177.6940  145.7020 C   0  0  0  0  0  3  0  0  0  0  0  0
  188.3980  177.7260  141.3860 C   0  0  0  0  0  0  0  0  0  0  0  0
  188.8910  176.9020  144.9670 C   0  0  0  0  0  3  0  0  0  0  0  0
  186.9700  178.1410  141.5330 C   0  0  0  0  0  3  0  0  0  0  0  0
  188.2290  176.6950  143.6430 C   0  0  2  0  0  3  0  0  0  0  0  0
  186.9800  178.1350  144.9680 N   0  0  0  0  0  0  0  0  0  0  0  0
  186.3540  178.0890  142.6780 N   0  0  0  0  0  0  0  0  0  0  0  0
  190.4720  176.7300  142.3900 C   0  0  0  0  0  1  0  0  0  0  0  0
  189.0310  177.1310  142.4380 C   0  0  0  0  0  0  0  0  0  0  0  0
  198.1900  174.7780  138.8230 C   0  0  0  0  0  1  0  0  0  0  0  0
  197.6660  174.9170  137.4050 C   0  0  0  0  0  2  0  0  0  0  0  0
  187.2510  177.1130  136.0250 C   0  0  0  0  0  2  0  0  0  0  0  0
  186.1600  177.6450  136.8970 C   0  0  0  0  0  0  0  0  0  0  0  0
  186.3600  178.6250  137.5980 O   0  0  0  0  0  0  0  0  0  0  0  0
  184.8140  177.0040  136.8750 C   0  0  0  0  0  2  0  0  0  0  0  0
  184.9550  175.5590  136.9090 N   0  0  0  0  0  1  0  0  0  0  0  0
  1  7  1  0  0  0  0
  1 11  1  0  0  0  0
  2 32  1  6  0  0  0
  2  4  1  0  0  0  0
  3  9  2  0  0  0  0
  4 11  1  0  0  0  0
  5 13  1  0  0  0  0
  5 10  1  0  0  0  0
  6 12  1  1  0  0  0
  6  2  1  0  0  0  0
  6  8  1  0  0  0  0
  8 13  1  0  0  0  0
  9 14  1  0  0  0  0
 10  7  2  0  0  0  0
 11 19  1  1  0  0  0
 13  1  2  0  0  0  0
 14 10  1  0  0  0  0
 15  9  1  0  0  0  0
 15 31  1  0  0  0  0
 16 15  1  0  0  0  0
 17 18  2  0  0  0  0
 18 22  1  0  0  0  0
 19 18  1  0  0  0  0
 20 26  2  0  0  0  0
 22 24  1  0  0  0  0
 22 29  2  0  0  0  0
 23 21  2  0  0  0  0
 24 27  2  0  0  0  0
 25 20  1  0  0  0  0
 25 23  1  1  0  0  0
 26 21  1  0  0  0  0
 27 20  1  0  0  0  0
 28 29  1  0  0  0  0
 29 25  1  0  0  0  0
 31 30  1  0  0  0  0
 32 33  1  0  0  0  0
 33 34  2  0  0  0  0
 35 33  1  0  0  0  0
 35 36  1  0  0  0  0
M  END
>  <MODEL>
2

>  <REMARK>
 VINA RESULT:      -7.7      1.494      1.655
  Name = 
  6 active torsions:
  status: ('A' for Active; 'I' for Inactive)
    1  A    between atoms: C_4  and  C_11
    2  A    between atoms: C_5  and  C_21
    3  A    between atoms: C_6  and  C_27
    4  A    between atoms: C_11  and  C_21
    5  A    between atoms: C_28  and  N_34
    6  A    between atoms: N_29  and  C_30
                            x       y       z     vdW  Elec       q    Type
                         _______ _______ _______ _____ _____    ______ ____

>  <TORSDO>
F 6

$$$$
=
 OpenBabel10232411273D

 36 39  0  0  1  0  0  0  0  0999 V2000
  187.1420  178.7030  141.4050 C   0  0  0  0  0  0  0  0  0  0  0  0
  189.5110  178.0410  143.4480 C   0  0  2  0  0  3  0  0  0  0  0  0
  182.2990  178.2190  141.7740 O   0  0  0  0  0  0  0  0  0  0  0  0
  189.3120  179.2520  142.5350 C   0  0  0  0  0  2  0  0  0  0  0  0
  185.1030  177.9220  142.1100 C   0  0  0  0  0  2  0  0  0  0  0  0
  188.1960  177.6130  144.1140 C   0  0  1  0  0  3  0  0  0  0  0  0
  186.1640  179.4310  140.6810 N   0  0  0  0  0  0  0  0  0  0  0  0
  187.3070  176.8750  143.1200 C   0  0  0  0  0  2  0  0  0  0  0  0
  182.4700  179.1120  140.9000 C   0  0  0  0  0  0  0  0  0  0  0  0
  185.0120  178.9980  141.0720 C   0  0  0  0  0  0  0  0  0  0  0  0
  188.6140  178.9150  141.2150 C   0  0  1  0  0  3  0  0  0  0  0  0
  188.4430  176.7610  145.1770 F   0  0  0  0  0  0  0  0  0  0  0  0
  186.5820  177.8300  142.2300 C   0  0  0  0  0  0  0  0  0  0  0  0
  183.7950  179.5220  140.5310 N   0  0  0  0  0  2  0  0  0  0  0  0
  181.3320  179.7210  140.2690 N   0  0  0  0  0  0  0  0  0  0  0  0
  179.9890  179.2440  140.5580 C   0  0  0  0  0  1  0  0  0  0  0  0
  189.3580  178.7200  138.4660 O   0  0  0  0  0  0  0  0  0  0  0  0
  189.5500  177.7020  139.1840 C   0  0  0  0  0  0  0  0  0  0  0  0
  189.2360  177.7580  140.5790 N   0  0  0  0  0  2  0  0  0  0  0  0
  191.5480  174.4690  137.2770 C   0  0  0  0  0  0  0  0  0  0  0  0
  190.9680  173.7780  135.2970 C   0  0  0  0  0  3  0  0  0  0  0  0
  190.1320  176.4790  138.5710 C   0  0  0  0  0  0  0  0  0  0  0  0
  189.8040  173.9000  135.9260 C   0  0  0  0  0  3  0  0  0  0  0  0
  191.5770  176.2160  138.8440 C   0  0  0  0  0  3  0  0  0  0  0  0
  190.0740  174.3210  137.3350 C   0  0  2  0  0  3  0  0  0  0  0  0
  192.0540  174.1580  136.1340 N   0  0  0  0  0  0  0  0  0  0  0  0
  192.2370  175.2870  138.2160 N   0  0  0  0  0  0  0  0  0  0  0  0
  188.0070  175.8460  137.3940 C   0  0  0  0  0  1  0  0  0  0  0  0
  189.4420  175.6280  137.7580 C   0  0  0  0  0  0  0  0  0  0  0  0
  181.3460  180.1330  137.8650 C   0  0  0  0  0  1  0  0  0  0  0  0
  181.4930  180.7440  139.2470 C   0  0  0  0  0  2  0  0  0  0  0  0
  190.5620  178.4030  144.4880 C   0  0  0  0  0  2  0  0  0  0  0  0
  191.4350  177.2260  144.7820 C   0  0  0  0  0  0  0  0  0  0  0  0
  191.9730  177.1190  145.8730 O   0  0  0  0  0  0  0  0  0  0  0  0
  191.6130  176.1610  143.7530 C   0  0  0  0  0  2  0  0  0  0  0  0
  191.9840  174.9120  144.3960 N   0  0  0  0  0  1  0  0  0  0  0  0
  1 13  2  0  0  0  0
  2  6  1  0  0  0  0
  2 32  1  1  0  0  0
  4  2  1  0  0  0  0
  5 13  1  0  0  0  0
  6 12  1  1  0  0  0
  7 10  2  0  0  0  0
  7  1  1  0  0  0  0
  8  6  1  0  0  0  0
  9  3  2  0  0  0  0
 10  5  1  0  0  0  0
 11 19  1  1  0  0  0
 11  1  1  0  0  0  0
 11  4  1  0  0  0  0
 13  8  1  0  0  0  0
 14  9  1  0  0  0  0
 14 10  1  0  0  0  0
 15 16  1  0  0  0  0
 15  9  1  0  0  0  0
 17 18  2  0  0  0  0
 18 19  1  0  0  0  0
 20 25  1  0  0  0  0
 20 27  1  0  0  0  0
 21 23  2  0  0  0  0
 21 26  1  0  0  0  0
 22 24  1  0  0  0  0
 22 18  1  0  0  0  0
 25 23  1  6  0  0  0
 25 29  1  0  0  0  0
 26 20  2  0  0  0  0
 27 24  2  0  0  0  0
 28 29  1  0  0  0  0
 29 22  2  0  0  0  0
 30 31  1  0  0  0  0
 31 15  1  0  0  0  0
 32 33  1  0  0  0  0
 33 34  2  0  0  0  0
 35 36  1  0  0  0  0
 35 33  1  0  0  0  0
M  END
>  <MODEL>
3

>  <REMARK>
 VINA RESULT:      -7.0      3.179      9.658
  Name = 
  6 active torsions:
  status: ('A' for Active; 'I' for Inactive)
    1  A    between atoms: C_4  and  C_11
    2  A    between atoms: C_5  and  C_21
    3  A    between atoms: C_6  and  C_27
    4  A    between atoms: C_11  and  C_21
    5  A    between atoms: C_28  and  N_34
    6  A    between atoms: N_29  and  C_30
                            x       y       z     vdW  Elec       q    Type
                         _______ _______ _______ _____ _____    ______ ____

>  <TORSDO>
F 6

$$$$
=
 OpenBabel10232411273D

 36 39  0  0  1  0  0  0  0  0999 V2000
  191.0170  175.7110  136.6810 C   0  0  0  0  0  0  0  0  0  0  0  0
  187.8220  175.6200  136.5810 C   0  0  2  0  0  3  0  0  0  0  0  0
  194.3990  172.3430  135.6610 O   0  0  0  0  0  0  0  0  0  0  0  0
  188.7870  176.7150  136.1260 C   0  0  0  0  0  2  0  0  0  0  0  0
  191.9840  173.6520  136.3790 C   0  0  0  0  0  2  0  0  0  0  0  0
  188.3340  174.2220  136.2050 C   0  0  1  0  0  3  0  0  0  0  0  0
  192.3600  175.9540  136.3000 N   0  0  0  0  0  0  0  0  0  0  0  0
  189.4590  173.7940  137.1390 C   0  0  0  0  0  2  0  0  0  0  0  0
  194.9890  173.4480  135.5190 C   0  0  0  0  0  0  0  0  0  0  0  0
  192.9130  174.7990  136.1270 C   0  0  0  0  0  0  0  0  0  0  0  0
  190.0490  176.8150  136.9860 C   0  0  1  0  0  3  0  0  0  0  0  0
  187.3180  173.2870  136.3060 F   0  0  0  0  0  0  0  0  0  0  0  0
  190.7580  174.4120  136.7410 C   0  0  0  0  0  0  0  0  0  0  0  0
  194.2860  174.6790  135.7390 N   0  0  0  0  0  2  0  0  0  0  0  0
  196.3740  173.4750  135.1380 N   0  0  0  0  0  0  0  0  0  0  0  0
  197.1260  172.2360  135.0130 C   0  0  0  0  0  1  0  0  0  0  0  0
  189.2510  179.1210  138.4670 O   0  0  0  0  0  0  0  0  0  0  0  0
  189.3560  178.0390  139.1050 C   0  0  0  0  0  0  0  0  0  0  0  0
  189.7100  176.8430  138.4050 N   0  0  0  0  0  2  0  0  0  0  0  0
  188.7390  177.5900  143.2890 C   0  0  0  0  0  0  0  0  0  0  0  0
  186.8440  176.8890  144.0940 C   0  0  0  0  0  3  0  0  0  0  0  0
  189.0730  178.0250  140.5660 C   0  0  0  0  0  0  0  0  0  0  0  0
  186.4730  177.8000  143.2000 C   0  0  0  0  0  3  0  0  0  0  0  0
  190.2140  177.6800  141.4660 C   0  0  0  0  0  3  0  0  0  0  0  0
  187.7040  178.4050  142.6080 C   0  0  2  0  0  3  0  0  0  0  0  0
  188.2580  176.7420  144.1300 N   0  0  0  0  0  0  0  0  0  0  0  0
  190.0440  177.4560  142.7360 N   0  0  0  0  0  0  0  0  0  0  0  0
  186.6390  178.5680  140.2750 C   0  0  0  0  0  1  0  0  0  0  0  0
  187.8450  178.2650  141.1090 C   0  0  0  0  0  0  0  0  0  0  0  0
  198.4270  174.6690  135.6950 C   0  0  0  0  0  1  0  0  0  0  0  0
  197.0890  174.7320  134.9800 C   0  0  0  0  0  2  0  0  0  0  0  0
  186.4640  175.8960  135.9500 C   0  0  0  0  0  2  0  0  0  0  0  0
  185.3980  175.9330  136.9980 C   0  0  0  0  0  0  0  0  0  0  0  0
  185.2390  176.9360  137.6760 O   0  0  0  0  0  0  0  0  0  0  0  0
  184.5000  174.7560  137.1830 C   0  0  0  0  0  2  0  0  0  0  0  0
  183.4330  175.0910  138.1100 N   0  0  0  0  0  1  0  0  0  0  0  0
  1 13  2  0  0  0  0
  1 11  1  0  0  0  0
  2 32  1  6  0  0  0
  4  2  1  0  0  0  0
  4 11  1  0  0  0  0
  5 13  1  0  0  0  0
  6 12  1  1  0  0  0
  6  2  1  0  0  0  0
  6  8  1  0  0  0  0
  7  1  1  0  0  0  0
  9  3  2  0  0  0  0
  9 14  1  0  0  0  0
 10  7  2  0  0  0  0
 10  5  1  0  0  0  0
 11 19  1  1  0  0  0
 13  8  1  0  0  0  0
 14 10  1  0  0  0  0
 15  9  1  0  0  0  0
 16 15  1  0  0  0  0
 17 18  2  0  0  0  0
 18 22  1  0  0  0  0
 19 18  1  0  0  0  0
 20 26  2  0  0  0  0
 21 26  1  0  0  0  0
 22 29  2  0  0  0  0
 22 24  1  0  0  0  0
 23 21  2  0  0  0  0
 24 27  2  0  0  0  0
 25 23  1  1  0  0  0
 25 20  1  0  0  0  0
 27 20  1  0  0  0  0
 28 29  1  0  0  0  0
 29 25  1  0  0  0  0
 31 15  1  0  0  0  0
 31 30  1  0  0  0  0
 32 33  1  0  0  0  0
 33 35  1  0  0  0  0
 33 34  2  0  0  0  0
 35 36  1  0  0  0  0
M  END
>  <MODEL>
4

>  <REMARK>
 VINA RESULT:      -6.3      1.906      2.578
  Name = 
  6 active torsions:
  status: ('A' for Active; 'I' for Inactive)
    1  A    between atoms: C_4  and  C_11
    2  A    between atoms: C_5  and  C_21
    3  A    between atoms: C_6  and  C_27
    4  A    between atoms: C_11  and  C_21
    5  A    between atoms: C_28  and  N_34
    6  A    between atoms: N_29  and  C_30
                            x       y       z     vdW  Elec       q    Type
                         _______ _______ _______ _____ _____    ______ ____

>  <TORSDO>
F 6

$$$$
=
 OpenBabel10232411273D

 36 39  0  0  1  0  0  0  0  0999 V2000
  186.9550  176.7160  137.0760 C   0  0  0  0  0  0  0  0  0  0  0  0
  183.8270  176.4830  136.4580 C   0  0  2  0  0  3  0  0  0  0  0  0
  190.6490  173.6030  136.3750 O   0  0  0  0  0  0  0  0  0  0  0  0
  184.7840  177.6550  136.2430 C   0  0  0  0  0  2  0  0  0  0  0  0
  188.0780  174.7360  136.7880 C   0  0  0  0  0  2  0  0  0  0  0  0
  184.4730  175.1450  136.0720 C   0  0  1  0  0  3  0  0  0  0  0  0
  188.3250  177.0520  136.9330 N   0  0  0  0  0  0  0  0  0  0  0  0
  185.4610  174.6980  137.1410 C   0  0  0  0  0  2  0  0  0  0  0  0
  191.1870  174.7430  136.4090 C   0  0  0  0  0  0  0  0  0  0  0  0
  188.9650  175.9420  136.7700 C   0  0  0  0  0  0  0  0  0  0  0  0
  185.8880  177.7460  137.2990 C   0  0  1  0  0  3  0  0  0  0  0  0
  183.5100  174.1580  135.9420 F   0  0  0  0  0  0  0  0  0  0  0  0
  186.7680  175.4060  137.0010 C   0  0  0  0  0  0  0  0  0  0  0  0
  190.3860  175.9180  136.6000 N   0  0  0  0  0  2  0  0  0  0  0  0
  192.6100  174.8650  136.2580 N   0  0  0  0  0  0  0  0  0  0  0  0
  193.4450  173.6770  136.1670 C   0  0  0  0  0  1  0  0  0  0  0  0
  184.8570  179.9120  138.8460 O   0  0  0  0  0  0  0  0  0  0  0  0
  184.8650  178.7750  139.3890 C   0  0  0  0  0  0  0  0  0  0  0  0
  185.3300  177.6450  138.6440 N   0  0  0  0  0  2  0  0  0  0  0  0
  183.1750  178.7340  143.2910 C   0  0  0  0  0  0  0  0  0  0  0  0
  184.2450  179.5370  145.0060 C   0  0  0  0  0  3  0  0  0  0  0  0
  184.3560  178.6280  140.7790 C   0  0  0  0  0  0  0  0  0  0  0  0
  185.1680  178.8020  144.3930 C   0  0  0  0  0  3  0  0  0  0  0  0
  182.8770  178.7160  140.9630 C   0  0  0  0  0  3  0  0  0  0  0  0
  184.5320  178.1420  143.2120 C   0  0  2  0  0  3  0  0  0  0  0  0
  183.0090  179.5130  144.3020 N   0  0  0  0  0  0  0  0  0  0  0  0
  182.3340  178.7880  142.1440 N   0  0  0  0  0  0  0  0  0  0  0  0
  186.6480  178.4140  141.7800 C   0  0  0  0  0  1  0  0  0  0  0  0
  185.1560  178.4620  141.8720 C   0  0  0  0  0  0  0  0  0  0  0  0
  194.4970  176.1630  135.4170 C   0  0  0  0  0  1  0  0  0  0  0  0
  193.2660  176.1630  136.3050 C   0  0  0  0  0  2  0  0  0  0  0  0
  182.5700  176.7440  135.6390 C   0  0  0  0  0  2  0  0  0  0  0  0
  181.3670  176.7850  136.5250 C   0  0  0  0  0  0  0  0  0  0  0  0
  181.1850  177.7360  137.2690 O   0  0  0  0  0  0  0  0  0  0  0  0
  180.3650  175.6810  136.4660 C   0  0  0  0  0  2  0  0  0  0  0  0
  180.2580  175.0420  137.7660 N   0  0  0  0  0  1  0  0  0  0  0  0
  1 11  1  0  0  0  0
  2 32  1  6  0  0  0
  3  9  2  0  0  0  0
  4  2  1  0  0  0  0
  4 11  1  0  0  0  0
  5 13  1  0  0  0  0
  6 12  1  1  0  0  0
  6  2  1  0  0  0  0
  6  8  1  0  0  0  0
  7  1  1  0  0  0  0
  9 14  1  0  0  0  0
 10  5  1  0  0  0  0
 10  7  2  0  0  0  0
 11 19  1  1  0  0  0
 13  1  2  0  0  0  0
 13  8  1  0  0  0  0
 14 10  1  0  0  0  0
 15 31  1  0  0  0  0
 15  9  1  0  0  0  0
 16 15  1  0  0  0  0
 17 18  2  0  0  0  0
 18 22  1  0  0  0  0
 19 18  1  0  0  0  0
 20 26  2  0  0  0  0
 22 24  1  0  0  0  0
 22 29  2  0  0  0  0
 23 21  2  0  0  0  0
 24 27  2  0  0  0  0
 25 20  1  0  0  0  0
 25 23  1  1  0  0  0
 26 21  1  0  0  0  0
 27 20  1  0  0  0  0
 28 29  1  0  0  0  0
 29 25  1  0  0  0  0
 30 31  1  0  0  0  0
 32 33  1  0  0  0  0
 33 34  2  0  0  0  0
 35 33  1  0  0  0  0
 35 36  1  0  0  0  0
M  END
>  <MODEL>
5

>  <REMARK>
 VINA RESULT:      -6.1      2.799      3.919
  Name = 
  6 active torsions:
  status: ('A' for Active; 'I' for Inactive)
    1  A    between atoms: C_4  and  C_11
    2  A    between atoms: C_5  and  C_21
    3  A    between atoms: C_6  and  C_27
    4  A    between atoms: C_11  and  C_21
    5  A    between atoms: C_28  and  N_34
    6  A    between atoms: N_29  and  C_30
                            x       y       z     vdW  Elec       q    Type
                         _______ _______ _______ _____ _____    ______ ____

>  <TORSDO>
F 6

$$$$
=
 OpenBabel10232411273D

 36 39  0  0  1  0  0  0  0  0999 V2000
  188.4650  177.5100  140.5770 C   0  0  0  0  0  0  0  0  0  0  0  0
  191.4260  177.1060  139.4400 C   0  0  2  0  0  3  0  0  0  0  0  0
  186.7460  177.8220  145.1350 O   0  0  0  0  0  0  0  0  0  0  0  0
  190.3110  178.0380  138.9640 C   0  0  0  0  0  2  0  0  0  0  0  0
  188.3320  177.2410  142.8510 C   0  0  0  0  0  2  0  0  0  0  0  0
  191.5110  177.0600  140.9720 C   0  0  1  0  0  3  0  0  0  0  0  0
  187.2630  178.1430  140.9830 N   0  0  0  0  0  0  0  0  0  0  0  0
  190.3840  176.2120  141.5470 C   0  0  0  0  0  2  0  0  0  0  0  0
  185.8880  178.4120  144.4230 C   0  0  0  0  0  0  0  0  0  0  0  0
  187.1800  177.9970  142.2640 C   0  0  0  0  0  0  0  0  0  0  0  0
  188.9070  177.4560  139.1450 C   0  0  1  0  0  3  0  0  0  0  0  0
  192.7120  176.5040  141.3770 F   0  0  0  0  0  0  0  0  0  0  0  0
  189.1060  176.9800  141.6090 C   0  0  0  0  0  0  0  0  0  0  0  0
  186.0710  178.5180  143.0040 N   0  0  0  0  0  2  0  0  0  0  0  0
  184.7190  178.9780  145.0370 N   0  0  0  0  0  0  0  0  0  0  0  0
  184.4700  178.7880  146.4570 C   0  0  0  0  0  1  0  0  0  0  0  0
  188.0490  176.7160  136.5250 O   0  0  0  0  0  0  0  0  0  0  0  0
  188.3590  175.7800  137.3110 C   0  0  0  0  0  0  0  0  0  0  0  0
  188.8380  176.0950  138.6220 N   0  0  0  0  0  2  0  0  0  0  0  0
  188.2550  171.8920  135.5910 C   0  0  0  0  0  0  0  0  0  0  0  0
  186.4750  171.1320  134.5980 C   0  0  0  0  0  3  0  0  0  0  0  0
  188.2540  174.3720  136.8440 C   0  0  0  0  0  0  0  0  0  0  0  0
  185.9920  171.6580  135.7180 C   0  0  0  0  0  3  0  0  0  0  0  0
  189.4980  173.7550  136.2930 C   0  0  0  0  0  3  0  0  0  0  0  0
  187.1390  172.1710  136.5280 C   0  0  2  0  0  3  0  0  0  0  0  0
  187.8850  171.3020  134.5080 N   0  0  0  0  0  0  0  0  0  0  0  0
  189.4840  172.6030  135.6870 N   0  0  0  0  0  0  0  0  0  0  0  0
  185.7990  174.2060  137.3420 C   0  0  0  0  0  1  0  0  0  0  0  0
  187.0990  173.6470  136.8540 C   0  0  0  0  0  0  0  0  0  0  0  0
  182.4590  178.7870  144.1390 C   0  0  0  0  0  1  0  0  0  0  0  0
  183.7020  179.6520  144.2450 C   0  0  0  0  0  2  0  0  0  0  0  0
  192.7350  177.5870  138.8290 C   0  0  0  0  0  2  0  0  0  0  0  0
  193.2190  176.6180  137.7990 C   0  0  0  0  0  0  0  0  0  0  0  0
  194.1280  176.9290  137.0450 O   0  0  0  0  0  0  0  0  0  0  0  0
  192.6190  175.2550  137.7220 C   0  0  0  0  0  2  0  0  0  0  0  0
  193.0140  174.6110  136.4820 N   0  0  0  0  0  1  0  0  0  0  0  0
  1  7  1  0  0  0  0
  1 13  2  0  0  0  0
  2 32  1  6  0  0  0
  2  6  1  0  0  0  0
  4 11  1  0  0  0  0
  4  2  1  0  0  0  0
  6 12  1  6  0  0  0
  6  8  1  0  0  0  0
  7 10  2  0  0  0  0
  8 13  1  0  0  0  0
  9 15  1  0  0  0  0
  9  3  2  0  0  0  0
 10  5  1  0  0  0  0
 10 14  1  0  0  0  0
 11 19  1  1  0  0  0
 11  1  1  0  0  0  0
 13  5  1  0  0  0  0
 14  9  1  0  0  0  0
 15 16  1  0  0  0  0
 17 18  2  0  0  0  0
 18 19  1  0  0  0  0
 20 27  1  0  0  0  0
 20 25  1  0  0  0  0
 21 23  2  0  0  0  0
 22 29  2  0  0  0  0
 22 18  1  0  0  0  0
 24 22  1  0  0  0  0
 25 23  1  6  0  0  0
 25 29  1  0  0  0  0
 26 21  1  0  0  0  0
 26 20  2  0  0  0  0
 27 24  2  0  0  0  0
 29 28  1  0  0  0  0
 30 31  1  0  0  0  0
 31 15  1  0  0  0  0
 33 32  1  0  0  0  0
 34 33  2  0  0  0  0
 35 33  1  0  0  0  0
 36 35  1  0  0  0  0
M  END
>  <MODEL>
6

>  <REMARK>
 VINA RESULT:      -5.9      3.289      9.434
  Name = 
  6 active torsions:
  status: ('A' for Active; 'I' for Inactive)
    1  A    between atoms: C_4  and  C_11
    2  A    between atoms: C_5  and  C_21
    3  A    between atoms: C_6  and  C_27
    4  A    between atoms: C_11  and  C_21
    5  A    between atoms: C_28  and  N_34
    6  A    between atoms: N_29  and  C_30
                            x       y       z     vdW  Elec       q    Type
                         _______ _______ _______ _____ _____    ______ ____

>  <TORSDO>
F 6

$$$$
=
 OpenBabel10232411273D

 36 39  0  0  1  0  0  0  0  0999 V2000
  188.5840  177.8980  140.4850 C   0  0  0  0  0  0  0  0  0  0  0  0
  189.2340  177.8710  137.3550 C   0  0  2  0  0  3  0  0  0  0  0  0
  191.0120  176.1140  144.3260 O   0  0  0  0  0  0  0  0  0  0  0  0
  188.6870  178.9970  138.2340 C   0  0  0  0  0  2  0  0  0  0  0  0
  190.0100  176.5820  141.7100 C   0  0  0  0  0  2  0  0  0  0  0  0
  190.3510  177.0910  138.0630 C   0  0  1  0  0  3  0  0  0  0  0  0
  188.4860  178.3450  141.8270 N   0  0  0  0  0  0  0  0  0  0  0  0
  189.7680  176.1570  139.1150 C   0  0  0  0  0  2  0  0  0  0  0  0
  190.2900  177.0330  144.7980 C   0  0  0  0  0  0  0  0  0  0  0  0
  189.2860  177.6100  142.5250 C   0  0  0  0  0  0  0  0  0  0  0  0
  187.7870  178.5040  139.3690 C   0  0  1  0  0  3  0  0  0  0  0  0
  191.0590  176.3220  137.1560 F   0  0  0  0  0  0  0  0  0  0  0  0
  189.4410  176.8930  140.3720 C   0  0  0  0  0  0  0  0  0  0  0  0
  189.4280  177.7930  143.9370 N   0  0  0  0  0  2  0  0  0  0  0  0
  190.3270  177.3210  146.2040 N   0  0  0  0  0  0  0  0  0  0  0  0
  191.1170  176.4930  147.1030 C   0  0  0  0  0  1  0  0  0  0  0  0
  185.1570  179.1880  138.4970 O   0  0  0  0  0  0  0  0  0  0  0  0
  185.4640  177.9650  138.4840 C   0  0  0  0  0  0  0  0  0  0  0  0
  186.7840  177.5700  138.8690 N   0  0  0  0  0  2  0  0  0  0  0  0
  182.5700  175.3390  136.8060 C   0  0  0  0  0  0  0  0  0  0  0  0
  180.4470  175.5670  137.2200 C   0  0  0  0  0  3  0  0  0  0  0  0
  184.4580  176.9660  138.0330 C   0  0  0  0  0  0  0  0  0  0  0  0
  181.0020  175.6810  138.4220 C   0  0  0  0  0  3  0  0  0  0  0  0
  184.6940  176.3330  136.7010 C   0  0  0  0  0  3  0  0  0  0  0  0
  182.4760  175.4830  138.2790 C   0  0  2  0  0  3  0  0  0  0  0  0
  181.4300  175.3790  136.2090 N   0  0  0  0  0  0  0  0  0  0  0  0
  183.7950  175.5900  136.1240 N   0  0  0  0  0  0  0  0  0  0  0  0
  183.0010  177.2630  140.0560 C   0  0  0  0  0  1  0  0  0  0  0  0
  183.3370  176.6380  138.7380 C   0  0  0  0  0  0  0  0  0  0  0  0
  189.0010  177.9410  148.1560 C   0  0  0  0  0  1  0  0  0  0  0  0
  189.4960  178.3650  146.7850 C   0  0  0  0  0  2  0  0  0  0  0  0
  189.7320  178.4880  136.0550 C   0  0  0  0  0  2  0  0  0  0  0  0
  189.3420  177.6390  134.8890 C   0  0  0  0  0  0  0  0  0  0  0  0
  190.1710  176.9250  134.3460 O   0  0  0  0  0  0  0  0  0  0  0  0
  187.9260  177.6330  134.4170 C   0  0  0  0  0  2  0  0  0  0  0  0
  187.4150  176.2730  134.4120 N   0  0  0  0  0  1  0  0  0  0  0  0
  1  7  1  0  0  0  0
  2 32  1  6  0  0  0
  2  6  1  0  0  0  0
  2  4  1  0  0  0  0
  3  9  2  0  0  0  0
  4 11  1  0  0  0  0
  5 10  1  0  0  0  0
  6 12  1  6  0  0  0
  6  8  1  0  0  0  0
  7 10  2  0  0  0  0
  8 13  1  0  0  0  0
  9 15  1  0  0  0  0
 10 14  1  0  0  0  0
 11 19  1  6  0  0  0
 11  1  1  0  0  0  0
 13  1  2  0  0  0  0
 13  5  1  0  0  0  0
 14  9  1  0  0  0  0
 15 31  1  0  0  0  0
 15 16  1  0  0  0  0
 18 17  2  0  0  0  0
 18 19  1  0  0  0  0
 20 25  1  0  0  0  0
 21 23  2  0  0  0  0
 22 18  1  0  0  0  0
 22 29  2  0  0  0  0
 24 22  1  0  0  0  0
 25 23  1  6  0  0  0
 25 29  1  0  0  0  0
 26 20  2  0  0  0  0
 26 21  1  0  0  0  0
 27 24  2  0  0  0  0
 27 20  1  0  0  0  0
 29 28  1  0  0  0  0
 31 30  1  0  0  0  0
 33 32  1  0  0  0  0
 34 33  2  0  0  0  0
 35 33  1  0  0  0  0
 36 35  1  0  0  0  0
M  END
>  <MODEL>
7

>  <REMARK>
 VINA RESULT:      -5.8      3.806      7.566
  Name = 
  6 active torsions:
  status: ('A' for Active; 'I' for Inactive)
    1  A    between atoms: C_4  and  C_11
    2  A    between atoms: C_5  and  C_21
    3  A    between atoms: C_6  and  C_27
    4  A    between atoms: C_11  and  C_21
    5  A    between atoms: C_28  and  N_34
    6  A    between atoms: N_29  and  C_30
                            x       y       z     vdW  Elec       q    Type
                         _______ _______ _______ _____ _____    ______ ____

>  <TORSDO>
F 6

$$$$
=
 OpenBabel10232411273D

 36 39  0  0  1  0  0  0  0  0999 V2000
  189.9600  176.6630  141.9870 C   0  0  0  0  0  0  0  0  0  0  0  0
  190.2970  177.9800  144.8810 C   0  0  2  0  0  3  0  0  0  0  0  0
  192.4760  177.2300  137.8430 O   0  0  0  0  0  0  0  0  0  0  0  0
  189.9970  176.5320  144.4910 C   0  0  0  0  0  2  0  0  0  0  0  0
  191.3030  177.6310  140.3980 C   0  0  0  0  0  2  0  0  0  0  0  0
  191.3590  178.6050  143.9640 C   0  0  1  0  0  3  0  0  0  0  0  0
  190.0530  175.7310  140.9220 N   0  0  0  0  0  0  0  0  0  0  0  0
  190.7560  178.9620  142.6120 C   0  0  0  0  0  2  0  0  0  0  0  0
  191.9360  176.0950  137.7410 C   0  0  0  0  0  0  0  0  0  0  0  0
  190.8080  176.2670  140.0220 C   0  0  0  0  0  0  0  0  0  0  0  0
  189.1510  176.4030  143.2220 C   0  0  1  0  0  3  0  0  0  0  0  0
  191.8640  179.7650  144.5250 F   0  0  0  0  0  0  0  0  0  0  0  0
  190.6560  177.7610  141.7300 C   0  0  0  0  0  0  0  0  0  0  0  0
  191.1080  175.5890  138.7980 N   0  0  0  0  0  2  0  0  0  0  0  0
  192.1470  175.3070  136.5600 N   0  0  0  0  0  0  0  0  0  0  0  0
  192.8980  175.8500  135.4380 C   0  0  0  0  0  1  0  0  0  0  0  0
  187.0080  176.2030  145.0980 O   0  0  0  0  0  0  0  0  0  0  0  0
  186.9190  177.1050  144.2220 C   0  0  0  0  0  0  0  0  0  0  0  0
  187.9850  177.2790  143.2830 N   0  0  0  0  0  2  0  0  0  0  0  0
  183.3220  179.3590  144.4870 C   0  0  0  0  0  0  0  0  0  0  0  0
  181.7070  179.1010  143.0530 C   0  0  0  0  0  3  0  0  0  0  0  0
  185.7250  177.9920  144.2080 C   0  0  0  0  0  0  0  0  0  0  0  0
  182.7860  179.1740  142.2800 C   0  0  0  0  0  3  0  0  0  0  0  0
  185.2140  178.4480  145.5360 C   0  0  0  0  0  3  0  0  0  0  0  0
  183.9740  179.4110  143.1560 C   0  0  2  0  0  3  0  0  0  0  0  0
  182.0470  179.1910  144.4310 N   0  0  0  0  0  0  0  0  0  0  0  0
  184.0770  179.0680  145.6580 N   0  0  0  0  0  0  0  0  0  0  0  0
  185.4790  177.9110  141.7110 C   0  0  0  0  0  1  0  0  0  0  0  0
  185.0630  178.3660  143.0750 C   0  0  0  0  0  0  0  0  0  0  0  0
  192.5490  172.9900  135.9120 C   0  0  0  0  0  1  0  0  0  0  0  0
  191.5270  174.0000  136.4030 C   0  0  0  0  0  2  0  0  0  0  0  0
  190.7490  177.9920  146.3350 C   0  0  0  0  0  2  0  0  0  0  0  0
  189.7330  177.3240  147.2040 C   0  0  0  0  0  0  0  0  0  0  0  0
  189.9610  176.2190  147.6740 O   0  0  0  0  0  0  0  0  0  0  0  0
  188.4600  178.0270  147.5330 C   0  0  0  0  0  2  0  0  0  0  0  0
  188.2430  178.0100  148.9690 N   0  0  0  0  0  1  0  0  0  0  0  0
  1 11  1  0  0  0  0
  2 32  1  1  0  0  0
  4  2  1  0  0  0  0
  5 13  1  0  0  0  0
  6 12  1  1  0  0  0
  6  2  1  0  0  0  0
  7  1  1  0  0  0  0
  8  6  1  0  0  0  0
  9  3  2  0  0  0  0
  9 14  1  0  0  0  0
 10  5  1  0  0  0  0
 10  7  2  0  0  0  0
 11 19  1  1  0  0  0
 11  4  1  0  0  0  0
 13  1  2  0  0  0  0
 13  8  1  0  0  0  0
 14 10  1  0  0  0  0
 15  9  1  0  0  0  0
 16 15  1  0  0  0  0
 18 17  2  0  0  0  0
 19 18  1  0  0  0  0
 20 27  1  0  0  0  0
 21 26  1  0  0  0  0
 22 18  1  0  0  0  0
 22 24  1  0  0  0  0
 23 21  2  0  0  0  0
 24 27  2  0  0  0  0
 25 23  1  6  0  0  0
 25 20  1  0  0  0  0
 26 20  2  0  0  0  0
 28 29  1  0  0  0  0
 29 25  1  0  0  0  0
 29 22  2  0  0  0  0
 30 31  1  0  0  0  0
 31 15  1  0  0  0  0
 32 33  1  0  0  0  0
 33 35  1  0  0  0  0
 33 34  2  0  0  0  0
 35 36  1  0  0  0  0
M  END
>  <MODEL>
8

>  <REMARK>
 VINA RESULT:      -5.8      3.691      6.257
  Name = 
  6 active torsions:
  status: ('A' for Active; 'I' for Inactive)
    1  A    between atoms: C_4  and  C_11
    2  A    between atoms: C_5  and  C_21
    3  A    between atoms: C_6  and  C_27
    4  A    between atoms: C_11  and  C_21
    5  A    between atoms: C_28  and  N_34
    6  A    between atoms: N_29  and  C_30
                            x       y       z     vdW  Elec       q    Type
                         _______ _______ _______ _____ _____    ______ ____

>  <TORSDO>
F 6

$$$$
=
 OpenBabel10232411273D

 36 39  0  0  1  0  0  0  0  0999 V2000
  188.6500  177.6580  140.4400 C   0  0  0  0  0  0  0  0  0  0  0  0
  189.3730  177.7620  137.3270 C   0  0  2  0  0  3  0  0  0  0  0  0
  191.2430  176.2670  144.3350 O   0  0  0  0  0  0  0  0  0  0  0  0
  188.6260  178.7760  138.1960 C   0  0  0  0  0  2  0  0  0  0  0  0
  190.2430  176.5850  141.6960 C   0  0  0  0  0  2  0  0  0  0  0  0
  190.5840  177.1710  138.0610 C   0  0  1  0  0  3  0  0  0  0  0  0
  188.4470  178.0730  141.7810 N   0  0  0  0  0  0  0  0  0  0  0  0
  190.1370  176.1450  139.0940 C   0  0  0  0  0  2  0  0  0  0  0  0
  190.3680  177.0520  144.7910 C   0  0  0  0  0  0  0  0  0  0  0  0
  189.3400  177.4730  142.4960 C   0  0  0  0  0  0  0  0  0  0  0  0
  187.7920  178.1330  139.3060 C   0  0  1  0  0  3  0  0  0  0  0  0
  191.4310  176.5350  137.1690 F   0  0  0  0  0  0  0  0  0  0  0  0
  189.6630  176.8080  140.3450 C   0  0  0  0  0  0  0  0  0  0  0  0
  189.4150  177.6660  143.9120 N   0  0  0  0  0  2  0  0  0  0  0  0
  190.3230  177.3310  146.1990 N   0  0  0  0  0  0  0  0  0  0  0  0
  191.2160  176.6370  147.1150 C   0  0  0  0  0  1  0  0  0  0  0  0
  185.6020  178.4300  137.4990 O   0  0  0  0  0  0  0  0  0  0  0  0
  185.8550  177.2640  137.9050 C   0  0  0  0  0  0  0  0  0  0  0  0
  186.9690  177.0510  138.7770 N   0  0  0  0  0  2  0  0  0  0  0  0
  183.2650  174.0190  136.9830 C   0  0  0  0  0  0  0  0  0  0  0  0
  183.9480  171.9550  137.0670 C   0  0  0  0  0  3  0  0  0  0  0  0
  185.0110  176.1320  137.4370 C   0  0  0  0  0  0  0  0  0  0  0  0
  184.9270  172.5700  136.4100 C   0  0  0  0  0  3  0  0  0  0  0  0
  183.5440  176.2370  137.6990 C   0  0  0  0  0  3  0  0  0  0  0  0
  184.5450  174.0040  136.2350 C   0  0  2  0  0  3  0  0  0  0  0  0
  182.9240  172.8670  137.4460 N   0  0  0  0  0  0  0  0  0  0  0  0
  182.7380  175.2340  137.5040 N   0  0  0  0  0  0  0  0  0  0  0  0
  186.9620  174.8050  136.5800 C   0  0  0  0  0  1  0  0  0  0  0  0
  185.5020  175.0110  136.8330 C   0  0  0  0  0  0  0  0  0  0  0  0
  189.2330  178.0320  148.2660 C   0  0  0  0  0  1  0  0  0  0  0  0
  189.3180  178.2200  146.7620 C   0  0  0  0  0  2  0  0  0  0  0  0
  189.7940  178.4620  136.0420 C   0  0  0  0  0  2  0  0  0  0  0  0
  189.5800  177.5690  134.8640 C   0  0  0  0  0  0  0  0  0  0  0  0
  190.5280  176.9990  134.3460 O   0  0  0  0  0  0  0  0  0  0  0  0
  188.1980  177.3400  134.3490 C   0  0  0  0  0  2  0  0  0  0  0  0
  187.3410  178.4510  134.7250 N   0  0  0  0  0  1  0  0  0  0  0  0
  1  7  1  0  0  0  0
  2 32  1  6  0  0  0
  2  6  1  0  0  0  0
  2  4  1  0  0  0  0
  3  9  2  0  0  0  0
  4 11  1  0  0  0  0
  5 10  1  0  0  0  0
  6 12  1  6  0  0  0
  6  8  1  0  0  0  0
  7 10  2  0  0  0  0
  8 13  1  0  0  0  0
  9 15  1  0  0  0  0
 10 14  1  0  0  0  0
 11 19  1  6  0  0  0
 11  1  1  0  0  0  0
 13  1  2  0  0  0  0
 13  5  1  0  0  0  0
 14  9  1  0  0  0  0
 15 31  1  0  0  0  0
 15 16  1  0  0  0  0
 17 18  2  0  0  0  0
 18 19  1  0  0  0  0
 20 26  2  0  0  0  0
 20 27  1  0  0  0  0
 21 26  1  0  0  0  0
 22 24  1  0  0  0  0
 22 18  1  0  0  0  0
 23 21  2  0  0  0  0
 25 23  1  1  0  0  0
 25 29  1  0  0  0  0
 25 20  1  0  0  0  0
 27 24  2  0  0  0  0
 28 29  1  0  0  0  0
 29 22  2  0  0  0  0
 31 30  1  0  0  0  0
 33 32  1  0  0  0  0
 34 33  2  0  0  0  0
 35 36  1  0  0  0  0
 35 33  1  0  0  0  0
M  END
>  <MODEL>
9

>  <REMARK>
 VINA RESULT:      -5.5      3.822      7.565
  Name = 
  6 active torsions:
  status: ('A' for Active; 'I' for Inactive)
    1  A    between atoms: C_4  and  C_11
    2  A    between atoms: C_5  and  C_21
    3  A    between atoms: C_6  and  C_27
    4  A    between atoms: C_11  and  C_21
    5  A    between atoms: C_28  and  N_34
    6  A    between atoms: N_29  and  C_30
                            x       y       z     vdW  Elec       q    Type
                         _______ _______ _______ _____ _____    ______ ____

>  <TORSDO>
F 6

$$$$
