=
 OpenBabel10232409073D

 28 32  0  0  1  0  0  0  0  0999 V2000
  186.3590  177.8250  144.0630 C   0  0  0  0  0  0  0  0  0  0  0  0
  183.5360  177.4560  141.0050 O   0  0  0  0  0  0  0  0  0  0  0  0
  191.3400  177.1820  140.3870 O   0  0  0  0  0  1  0  0  0  0  0  0
  184.3770  179.7790  144.1230 C   0  0  0  0  0  3  0  0  0  0  0  0
  189.2350  178.0810  139.3440 C   0  0  0  0  0  0  0  0  0  0  0  0
  187.4800  176.9490  144.0460 C   0  0  0  0  0  2  0  0  0  0  0  0
  183.5170  179.7910  140.1910 O   0  0  0  0  0  0  0  0  0  0  0  0
  184.1500  178.4360  140.0450 S   0  0  0  0  0  0  0  0  0  0  0  0
  185.0950  177.3960  137.7080 C   0  0  0  0  0  0  0  0  0  0  0  0
  185.8530  178.5440  140.2940 N   0  0  2  0  0  0  0  0  0  0  0  0
  190.8640  176.7750  144.4940 O   0  0  0  0  0  0  0  0  0  0  0  0
  187.8250  177.7430  141.1090 C   0  0  0  0  0  0  0  0  0  0  0  0
  186.3150  177.6750  138.0730 N   0  0  0  0  0  0  0  0  0  0  0  0
  183.9570  177.8610  138.4360 N   0  0  0  0  0  2  0  0  0  0  0  0
  189.7590  176.7630  143.8940 C   0  0  0  0  0  0  0  0  0  0  0  0
  185.9840  178.4380  142.8500 C   0  0  0  0  0  0  0  0  0  0  0  0
  189.9960  177.5350  140.4610 C   0  0  1  0  0  3  0  0  0  0  0  0
  184.8810  176.5130  136.5330 C   0  0  0  0  0  1  0  0  0  0  0  0
  189.6460  176.2330  142.5010 C   0  0  0  0  0  2  0  0  0  0  0  0
  184.9860  179.4270  142.9170 C   0  0  0  0  0  3  0  0  0  0  0  0
  185.7680  178.1860  145.2790 C   0  0  0  0  0  3  0  0  0  0  0  0
  184.7670  179.1540  145.3070 C   0  0  0  0  0  3  0  0  0  0  0  0
  188.6200  177.3750  144.4660 N   0  0  0  0  0  2  0  0  0  0  0  0
  187.9810  178.1140  139.7350 C   0  0  0  0  0  0  0  0  0  0  0  0
  189.2080  177.3020  141.5190 C   0  0  0  0  0  0  0  0  0  0  0  0
  186.7340  178.6030  139.1320 C   0  0  2  0  0  3  0  0  0  0  0  0
  189.7540  178.4630  138.0020 C   0  0  0  0  0  1  0  0  0  0  0  0
  186.5670  178.1240  141.4840 C   0  0  1  0  0  3  0  0  0  0  0  0
  1 21  1  0  0  0  0
  4 22  1  0  0  0  0
  5 24  2  0  0  0  0
  5 17  1  0  0  0  0
  6  1  1  0  0  0  0
  6 23  1  0  0  0  0
  8  7  2  0  0  0  0
  8  2  2  0  0  0  0
  9 13  2  0  0  0  0
  9 14  1  0  0  0  0
 10  8  1  6  0  0  0
 10 28  1  0  0  0  0
 12 25  2  0  0  0  0
 14  8  1  0  0  0  0
 15 23  1  0  0  0  0
 15 11  2  0  0  0  0
 16 20  1  0  0  0  0
 16  1  2  0  0  0  0
 17  3  1  6  0  0  0
 17 25  1  0  0  0  0
 18  9  1  0  0  0  0
 19 15  1  0  0  0  0
 20  4  2  0  0  0  0
 21 22  2  0  0  0  0
 24 12  1  0  0  0  0
 25 19  1  0  0  0  0
 26 13  1  6  0  0  0
 26 24  1  0  0  0  0
 26 10  1  0  0  0  0
 27  5  1  0  0  0  0
 28 12  1  1  0  0  0
 28 16  1  0  0  0  0
M  END
>  <MODEL>
1

>  <REMARK>
 VINA RESULT:      -9.0      0.000      0.000
  Name = 
  0 active torsions:
  status: ('A' for Active; 'I' for Inactive)
                            x       y       z     vdW  Elec       q    Type
                         _______ _______ _______ _____ _____    ______ ____

>  <TORSDO>
F 0

$$$$
=
 OpenBabel10232409073D

 28 32  0  0  1  0  0  0  0  0999 V2000
  187.4690  177.6150  145.9300 C   0  0  0  0  0  0  0  0  0  0  0  0
  183.5930  177.8280  144.3840 O   0  0  0  0  0  0  0  0  0  0  0  0
  190.3080  177.1030  140.4150 O   0  0  0  0  0  1  0  0  0  0  0  0
  185.9410  179.6760  147.0100 C   0  0  0  0  0  3  0  0  0  0  0  0
  188.0790  178.2680  140.4710 C   0  0  0  0  0  0  0  0  0  0  0  0
  188.3660  176.6740  145.3540 C   0  0  0  0  0  2  0  0  0  0  0  0
  183.5010  180.2420  143.8590 O   0  0  0  0  0  0  0  0  0  0  0  0
  183.8510  178.8760  143.3390 S   0  0  0  0  0  0  0  0  0  0  0  0
  183.5880  178.0770  140.7440 C   0  0  0  0  0  0  0  0  0  0  0  0
  185.4990  178.8360  142.8310 N   0  0  2  0  0  0  0  0  0  0  0  0
  191.5760  176.2140  144.2710 O   0  0  0  0  0  0  0  0  0  0  0  0
  187.5220  177.8060  142.6370 C   0  0  0  0  0  0  0  0  0  0  0  0
  184.8700  178.2250  140.5650 N   0  0  0  0  0  0  0  0  0  0  0  0
  182.9280  178.5230  141.9310 N   0  0  0  0  0  2  0  0  0  0  0  0
  190.3270  176.3530  144.2120 C   0  0  0  0  0  0  0  0  0  0  0  0
  186.6890  178.4000  145.0570 C   0  0  0  0  0  0  0  0  0  0  0  0
  189.1740  177.5340  141.0950 C   0  0  0  0  0  0  0  0  0  0  0  0
  182.7950  177.3670  139.7090 C   0  0  0  0  0  1  0  0  0  0  0  0
  189.5740  176.0120  142.9670 C   0  0  0  0  0  2  0  0  0  0  0  0
  185.9350  179.4380  145.6350 C   0  0  0  0  0  3  0  0  0  0  0  0
  187.4960  177.8590  147.3080 C   0  0  0  0  0  3  0  0  0  0  0  0
  186.7210  178.8820  147.8500 C   0  0  0  0  0  3  0  0  0  0  0  0
  189.6180  176.9650  145.2710 N   0  0  0  0  0  2  0  0  0  0  0  0
  187.1230  178.3360  141.3690 C   0  0  1  0  0  3  0  0  0  0  0  0
  188.8880  177.2240  142.3670 C   0  0  0  0  0  0  0  0  0  0  0  0
  185.8030  178.9820  141.4110 C   0  0  2  0  0  3  0  0  0  0  0  0
  188.0210  178.7790  139.0740 C   0  0  0  0  0  1  0  0  0  0  0  0
  186.5960  178.2220  143.5520 C   0  0  1  0  0  3  0  0  0  0  0  0
  1 21  1  0  0  0  0
  3 17  1  0  0  0  0
  4 22  1  0  0  0  0
  5 17  2  0  0  0  0
  6  1  1  0  0  0  0
  8  7  2  0  0  0  0
  8  2  2  0  0  0  0
  9 14  1  0  0  0  0
 10  8  1  6  0  0  0
 10 28  1  0  0  0  0
 13  9  2  0  0  0  0
 14  8  1  0  0  0  0
 15 11  2  0  0  0  0
 15 23  1  0  0  0  0
 16 20  1  0  0  0  0
 16  1  2  0  0  0  0
 17 25  1  0  0  0  0
 18  9  1  0  0  0  0
 19 15  1  0  0  0  0
 20  4  2  0  0  0  0
 21 22  2  0  0  0  0
 23  6  1  0  0  0  0
 24  5  1  1  0  0  0
 24 26  1  0  0  0  0
 24 12  1  0  0  0  0
 25 12  2  0  0  0  0
 25 19  1  0  0  0  0
 26 13  1  6  0  0  0
 26 10  1  0  0  0  0
 27  5  1  0  0  0  0
 28 12  1  6  0  0  0
 28 16  1  0  0  0  0
M  END
>  <MODEL>
2

>  <REMARK>
 VINA RESULT:      -7.9      2.011      2.475
  Name = 
  0 active torsions:
  status: ('A' for Active; 'I' for Inactive)
                            x       y       z     vdW  Elec       q    Type
                         _______ _______ _______ _____ _____    ______ ____

>  <TORSDO>
F 0

$$$$
=
 OpenBabel10232409073D

 28 32  0  0  1  0  0  0  0  0999 V2000
  186.5280  177.9870  142.4310 C   0  0  0  0  0  0  0  0  0  0  0  0
  189.9900  175.6810  142.0310 O   0  0  0  0  0  0  0  0  0  0  0  0
  186.8970  178.5900  148.6150 O   0  0  0  0  0  1  0  0  0  0  0  0
  188.2320  178.8590  140.4090 C   0  0  0  0  0  3  0  0  0  0  0  0
  189.0410  178.2090  147.3540 C   0  0  0  0  0  0  0  0  0  0  0  0
  185.6550  177.6970  143.5150 C   0  0  0  0  0  2  0  0  0  0  0  0
  191.6750  177.4890  141.9800 O   0  0  0  0  0  0  0  0  0  0  0  0
  190.9020  176.5430  142.8560 S   0  0  0  0  0  0  0  0  0  0  0  0
  191.8370  175.4370  145.1670 C   0  0  0  0  0  0  0  0  0  0  0  0
  190.0040  177.4230  144.0370 N   0  0  2  0  0  0  0  0  0  0  0  0
  183.7320  179.0960  145.9710 O   0  0  0  0  0  0  0  0  0  0  0  0
  188.1410  177.7730  145.3010 C   0  0  0  0  0  0  0  0  0  0  0  0
  191.1380  176.2900  145.8620 N   0  0  0  0  0  0  0  0  0  0  0  0
  191.9820  175.5460  143.7490 N   0  0  0  0  0  2  0  0  0  0  0  0
  184.6820  178.4620  145.4440 C   0  0  0  0  0  0  0  0  0  0  0  0
  187.9110  178.0470  142.6980 C   0  0  0  0  0  0  0  0  0  0  0  0
  187.5920  178.3460  147.4340 C   0  0  1  0  0  3  0  0  0  0  0  0
  192.4510  174.2760  145.8610 C   0  0  0  0  0  1  0  0  0  0  0  0
  185.5780  177.5940  146.2670 C   0  0  0  0  0  2  0  0  0  0  0  0
  188.7430  178.5000  141.6570 C   0  0  0  0  0  3  0  0  0  0  0  0
  186.0050  178.3640  141.1890 C   0  0  0  0  0  3  0  0  0  0  0  0
  186.8600  178.7880  140.1730 C   0  0  0  0  0  3  0  0  0  0  0  0
  185.0140  178.6590  144.0840 N   0  0  0  0  0  2  0  0  0  0  0  0
  189.3060  177.8070  146.1320 C   0  0  0  0  0  0  0  0  0  0  0  0
  187.0130  178.0830  146.2540 C   0  0  0  0  0  0  0  0  0  0  0  0
  190.5450  177.5470  145.3860 C   0  0  2  0  0  3  0  0  0  0  0  0
  190.0250  178.4130  148.4520 C   0  0  0  0  0  1  0  0  0  0  0  0
  188.5760  177.6690  144.0090 C   0  0  1  0  0  3  0  0  0  0  0  0
  1 16  1  0  0  0  0
  1  6  1  0  0  0  0
  2  8  2  0  0  0  0
  4 20  1  0  0  0  0
  5 17  1  0  0  0  0
  5 27  1  0  0  0  0
  6 23  1  0  0  0  0
  7  8  2  0  0  0  0
  8 14  1  0  0  0  0
  9 18  1  0  0  0  0
  9 13  2  0  0  0  0
 10  8  1  1  0  0  0
 10 26  1  0  0  0  0
 12 24  1  0  0  0  0
 12 25  2  0  0  0  0
 14  9  1  0  0  0  0
 15 11  2  0  0  0  0
 15 19  1  0  0  0  0
 17  3  1  1  0  0  0
 20 16  2  0  0  0  0
 21  1  2  0  0  0  0
 22  4  2  0  0  0  0
 22 21  1  0  0  0  0
 23 15  1  0  0  0  0
 24  5  2  0  0  0  0
 25 19  1  0  0  0  0
 25 17  1  0  0  0  0
 26 13  1  1  0  0  0
 26 24  1  0  0  0  0
 28 16  1  6  0  0  0
 28 10  1  0  0  0  0
 28 12  1  0  0  0  0
M  END
>  <MODEL>
3

>  <REMARK>
 VINA RESULT:      -7.6      3.234      6.974
  Name = 
  0 active torsions:
  status: ('A' for Active; 'I' for Inactive)
                            x       y       z     vdW  Elec       q    Type
                         _______ _______ _______ _____ _____    ______ ____

>  <TORSDO>
F 0

$$$$
=
 OpenBabel10232409073D

 28 32  0  0  1  0  0  0  0  0999 V2000
  186.1420  178.6130  142.3780 C   0  0  0  0  0  0  0  0  0  0  0  0
  190.2200  178.6680  143.2870 O   0  0  0  0  0  0  0  0  0  0  0  0
  186.8670  177.1670  136.3680 O   0  0  0  0  0  1  0  0  0  0  0  0
  186.7970  177.2000  144.6860 C   0  0  0  0  0  3  0  0  0  0  0  0
  188.6800  176.4570  137.9610 C   0  0  0  0  0  0  0  0  0  0  0  0
  185.7230  179.2020  141.1530 C   0  0  0  0  0  2  0  0  0  0  0  0
  190.5780  176.2530  143.6780 O   0  0  0  0  0  0  0  0  0  0  0  0
  190.5840  177.3540  142.6560 S   0  0  0  0  0  0  0  0  0  0  0  0
  192.2540  177.4780  140.5030 C   0  0  0  0  0  0  0  0  0  0  0  0
  189.5000  176.9770  141.3680 N   0  0  2  0  0  0  0  0  0  0  0  0
  183.6670  178.8060  138.4510 O   0  0  0  0  0  0  0  0  0  0  0  0
  187.9340  177.5590  139.8180 C   0  0  0  0  0  0  0  0  0  0  0  0
  191.2890  177.0720  139.7270 N   0  0  0  0  0  0  0  0  0  0  0  0
  192.1370  177.4780  141.9280 N   0  0  0  0  0  2  0  0  0  0  0  0
  184.7350  178.8720  139.1120 C   0  0  0  0  0  0  0  0  0  0  0  0
  187.2730  177.7720  142.3510 C   0  0  0  0  0  0  0  0  0  0  0  0
  187.4260  177.1300  137.6410 C   0  0  0  0  0  0  0  0  0  0  0  0
  193.4940  178.0170  139.8870 C   0  0  0  0  0  1  0  0  0  0  0  0
  186.0570  178.9980  138.4260 C   0  0  0  0  0  2  0  0  0  0  0  0
  187.5710  177.0660  143.5310 C   0  0  0  0  0  3  0  0  0  0  0  0
  185.3490  178.7380  143.5250 C   0  0  0  0  0  3  0  0  0  0  0  0
  185.6850  178.0400  144.6840 C   0  0  0  0  0  3  0  0  0  0  0  0
  184.7290  178.6900  140.5140 N   0  0  0  0  0  2  0  0  0  0  0  0
  188.9720  176.7910  139.1970 C   0  0  1  0  0  3  0  0  0  0  0  0
  186.9550  177.8080  138.6970 C   0  0  0  0  0  0  0  0  0  0  0  0
  190.0400  176.4150  140.1340 C   0  0  2  0  0  3  0  0  0  0  0  0
  189.5050  175.6150  137.0520 C   0  0  0  0  0  1  0  0  0  0  0  0
  188.1900  177.5620  141.1600 C   0  0  1  0  0  3  0  0  0  0  0  0
  1 21  1  0  0  0  0
  3 17  1  0  0  0  0
  6  1  1  0  0  0  0
  8  2  2  0  0  0  0
  8  7  2  0  0  0  0
  9 14  1  0  0  0  0
 10  8  1  6  0  0  0
 11 15  2  0  0  0  0
 13  9  2  0  0  0  0
 14  8  1  0  0  0  0
 15 23  1  0  0  0  0
 16  1  2  0  0  0  0
 16 20  1  0  0  0  0
 17  5  2  0  0  0  0
 17 25  1  0  0  0  0
 18  9  1  0  0  0  0
 19 25  1  0  0  0  0
 19 15  1  0  0  0  0
 20  4  2  0  0  0  0
 21 22  2  0  0  0  0
 22  4  1  0  0  0  0
 23  6  1  0  0  0  0
 24  5  1  1  0  0  0
 24 12  1  0  0  0  0
 24 26  1  0  0  0  0
 25 12  2  0  0  0  0
 26 13  1  6  0  0  0
 26 10  1  0  0  0  0
 27  5  1  0  0  0  0
 28 12  1  6  0  0  0
 28 10  1  0  0  0  0
 28 16  1  0  0  0  0
M  END
>  <MODEL>
4

>  <REMARK>
 VINA RESULT:      -7.4      2.697      5.402
  Name = 
  0 active torsions:
  status: ('A' for Active; 'I' for Inactive)
                            x       y       z     vdW  Elec       q    Type
                         _______ _______ _______ _____ _____    ______ ____

>  <TORSDO>
F 0

$$$$
=
 OpenBabel10232409073D

 28 32  0  0  1  0  0  0  0  0999 V2000
  184.7660  179.2170  142.5900 C   0  0  0  0  0  0  0  0  0  0  0  0
  185.7730  179.7420  146.6110 O   0  0  0  0  0  0  0  0  0  0  0  0
  190.1380  176.5360  140.9510 O   0  0  0  0  0  1  0  0  0  0  0  0
  182.7820  178.3930  144.3610 C   0  0  0  0  0  3  0  0  0  0  0  0
  189.4140  176.3160  143.3500 C   0  0  0  0  0  0  0  0  0  0  0  0
  185.7600  179.4930  141.6110 C   0  0  0  0  0  2  0  0  0  0  0  0
  185.1780  177.5020  147.4710 O   0  0  0  0  0  0  0  0  0  0  0  0
  186.2680  178.3480  146.8780 S   0  0  0  0  0  0  0  0  0  0  0  0
  188.9230  178.1060  147.4530 C   0  0  0  0  0  0  0  0  0  0  0  0
  186.8620  177.6260  145.4280 N   0  0  2  0  0  0  0  0  0  0  0  0
  187.1670  178.3760  138.7030 O   0  0  0  0  0  0  0  0  0  0  0  0
  187.6350  177.7470  143.2880 C   0  0  0  0  0  0  0  0  0  0  0  0
  189.1130  177.4760  146.3280 N   0  0  0  0  0  0  0  0  0  0  0  0
  187.6160  178.4120  147.9440 N   0  0  0  0  0  2  0  0  0  0  0  0
  187.0680  178.6570  139.9250 C   0  0  0  0  0  0  0  0  0  0  0  0
  185.1460  178.4680  143.7220 C   0  0  0  0  0  0  0  0  0  0  0  0
  189.2560  176.8170  141.9900 C   0  0  0  0  0  0  0  0  0  0  0  0
  190.1040  178.5780  148.2210 C   0  0  0  0  0  1  0  0  0  0  0  0
  188.2770  178.7170  140.8010 C   0  0  0  0  0  2  0  0  0  0  0  0
  184.1180  178.0610  144.5920 C   0  0  0  0  0  3  0  0  0  0  0  0
  183.4270  179.5380  142.3400 C   0  0  0  0  0  3  0  0  0  0  0  0
  182.4360  179.1370  143.2340 C   0  0  0  0  0  3  0  0  0  0  0  0
  185.7980  178.7880  140.5340 N   0  0  0  0  0  2  0  0  0  0  0  0
  188.5090  176.9320  144.0770 C   0  0  1  0  0  3  0  0  0  0  0  0
  188.2330  177.6770  141.9040 C   0  0  0  0  0  0  0  0  0  0  0  0
  188.0920  176.8430  145.4820 C   0  0  2  0  0  3  0  0  0  0  0  0
  190.4360  175.3510  143.8400 C   0  0  0  0  0  1  0  0  0  0  0  0
  186.5650  178.0620  144.0780 C   0  0  1  0  0  3  0  0  0  0  0  0
  1 16  1  0  0  0  0
  2  8  2  0  0  0  0
  3 17  1  0  0  0  0
  4 20  1  0  0  0  0
  5 27  1  0  0  0  0
  5 24  1  0  0  0  0
  6  1  1  0  0  0  0
  8  7  2  0  0  0  0
  8 14  1  0  0  0  0
  9 14  1  0  0  0  0
  9 18  1  0  0  0  0
 10 26  1  0  0  0  0
 10  8  1  1  0  0  0
 11 15  2  0  0  0  0
 13  9  2  0  0  0  0
 15 23  1  0  0  0  0
 15 19  1  0  0  0  0
 16 28  1  0  0  0  0
 16 20  2  0  0  0  0
 17  5  2  0  0  0  0
 19 25  1  0  0  0  0
 21  1  2  0  0  0  0
 21 22  1  0  0  0  0
 22  4  2  0  0  0  0
 23  6  1  0  0  0  0
 24 12  1  6  0  0  0
 24 26  1  0  0  0  0
 25 17  1  0  0  0  0
 25 12  2  0  0  0  0
 26 13  1  1  0  0  0
 28 12  1  6  0  0  0
 28 10  1  0  0  0  0
M  END
>  <MODEL>
5

>  <REMARK>
 VINA RESULT:      -7.4      2.929      5.855
  Name = 
  0 active torsions:
  status: ('A' for Active; 'I' for Inactive)
                            x       y       z     vdW  Elec       q    Type
                         _______ _______ _______ _____ _____    ______ ____

>  <TORSDO>
F 0

$$$$
=
 OpenBabel10232409073D

 28 32  0  0  1  0  0  0  0  0999 V2000
  184.4100  178.3160  141.4170 C   0  0  0  0  0  0  0  0  0  0  0  0
  186.3600  176.8320  138.0330 O   0  0  0  0  0  0  0  0  0  0  0  0
  189.3690  178.0250  145.1660 O   0  0  0  0  0  1  0  0  0  0  0  0
  183.9520  179.8090  139.1120 C   0  0  0  0  0  3  0  0  0  0  0  0
  189.7910  178.2750  142.6990 C   0  0  0  0  0  0  0  0  0  0  0  0
  184.6790  177.6960  142.6680 C   0  0  0  0  0  2  0  0  0  0  0  0
  187.3870  178.9250  137.2100 O   0  0  0  0  0  0  0  0  0  0  0  0
  187.5690  177.7220  138.0910 S   0  0  0  0  0  0  0  0  0  0  0  0
  189.9510  176.4820  138.5710 C   0  0  0  0  0  0  0  0  0  0  0  0
  187.8840  178.2140  139.7140 N   0  0  2  0  0  0  0  0  0  0  0  0
  185.3030  178.2910  145.9760 O   0  0  0  0  0  0  0  0  0  0  0  0
  187.6460  177.9890  141.9690 C   0  0  0  0  0  0  0  0  0  0  0  0
  190.0230  177.0630  139.7350 N   0  0  0  0  0  0  0  0  0  0  0  0
  188.9590  176.8340  137.6030 N   0  0  0  0  0  2  0  0  0  0  0  0
  185.5190  177.9470  144.7860 C   0  0  0  0  0  0  0  0  0  0  0  0
  185.5040  178.6080  140.5780 C   0  0  0  0  0  0  0  0  0  0  0  0
  188.9170  178.1070  143.8530 C   0  0  1  0  0  3  0  0  0  0  0  0
  190.8900  175.3740  138.2610 C   0  0  0  0  0  1  0  0  0  0  0  0
  186.7350  177.1590  144.4220 C   0  0  0  0  0  2  0  0  0  0  0  0
  185.2400  179.3710  139.4260 C   0  0  0  0  0  3  0  0  0  0  0  0
  183.1190  178.7680  141.1210 C   0  0  0  0  0  3  0  0  0  0  0  0
  182.8880  179.5040  139.9600 C   0  0  0  0  0  3  0  0  0  0  0  0
  184.6910  178.4120  143.7380 N   0  0  0  0  0  2  0  0  0  0  0  0
  189.0320  178.1260  141.6370 C   0  0  0  0  0  0  0  0  0  0  0  0
  187.6450  177.9190  143.4770 C   0  0  0  0  0  0  0  0  0  0  0  0
  189.2630  178.2350  140.1900 C   0  0  2  0  0  3  0  0  0  0  0  0
  191.2630  178.5000  142.7110 C   0  0  0  0  0  1  0  0  0  0  0  0
  186.9400  178.1730  140.8140 C   0  0  1  0  0  3  0  0  0  0  0  0
  1  6  1  0  0  0  0
  2  8  2  0  0  0  0
  4 20  2  0  0  0  0
  4 22  1  0  0  0  0
  5 27  1  0  0  0  0
  5 17  1  0  0  0  0
  6 23  1  0  0  0  0
  7  8  2  0  0  0  0
  9 13  2  0  0  0  0
 10  8  1  6  0  0  0
 10 26  1  0  0  0  0
 10 28  1  0  0  0  0
 12 25  2  0  0  0  0
 14  8  1  0  0  0  0
 14  9  1  0  0  0  0
 15 11  2  0  0  0  0
 16  1  2  0  0  0  0
 17  3  1  6  0  0  0
 18  9  1  0  0  0  0
 19 15  1  0  0  0  0
 20 16  1  0  0  0  0
 21  1  1  0  0  0  0
 22 21  2  0  0  0  0
 23 15  1  0  0  0  0
 24 12  1  0  0  0  0
 24  5  2  0  0  0  0
 25 17  1  0  0  0  0
 25 19  1  0  0  0  0
 26 13  1  6  0  0  0
 26 24  1  0  0  0  0
 28 16  1  1  0  0  0
 28 12  1  0  0  0  0
M  END
>  <MODEL>
6

>  <REMARK>
 VINA RESULT:      -7.4      2.705      4.121
  Name = 
  0 active torsions:
  status: ('A' for Active; 'I' for Inactive)
                            x       y       z     vdW  Elec       q    Type
                         _______ _______ _______ _____ _____    ______ ____

>  <TORSDO>
F 0

$$$$
=
 OpenBabel10232409073D

 28 32  0  0  1  0  0  0  0  0999 V2000
  185.0290  177.2860  136.9410 C   0  0  0  0  0  0  0  0  0  0  0  0
  188.6930  176.4090  138.7480 O   0  0  0  0  0  0  0  0  0  0  0  0
  182.0680  178.7440  142.2180 O   0  0  0  0  0  1  0  0  0  0  0  0
  187.2130  178.4730  135.6870 C   0  0  0  0  0  3  0  0  0  0  0  0
  184.5660  179.0380  142.1680 C   0  0  0  0  0  0  0  0  0  0  0  0
  183.8430  176.8270  137.5790 C   0  0  0  0  0  2  0  0  0  0  0  0
  189.6220  178.6940  138.9040 O   0  0  0  0  0  0  0  0  0  0  0  0
  188.7990  177.6450  139.5960 S   0  0  0  0  0  0  0  0  0  0  0  0
  188.7030  177.2630  142.2950 C   0  0  0  0  0  0  0  0  0  0  0  0
  187.2330  178.2650  139.9670 N   0  0  2  0  0  0  0  0  0  0  0  0
  180.6550  177.6990  138.4530 O   0  0  0  0  0  0  0  0  0  0  0  0
  184.9720  178.0470  140.1500 C   0  0  0  0  0  0  0  0  0  0  0  0
  187.5530  177.8730  142.3440 N   0  0  0  0  0  0  0  0  0  0  0  0
  189.5050  177.2420  141.1120 N   0  0  0  0  0  2  0  0  0  0  0  0
  181.8710  177.4060  138.5920 C   0  0  0  0  0  0  0  0  0  0  0  0
  186.0170  177.8900  137.7440 C   0  0  0  0  0  0  0  0  0  0  0  0
  183.2970  178.6330  141.5750 C   0  0  1  0  0  3  0  0  0  0  0  0
  189.1700  176.5120  143.4880 C   0  0  0  0  0  1  0  0  0  0  0  0
  182.4260  177.0450  139.9320 C   0  0  0  0  0  2  0  0  0  0  0  0
  187.1030  178.4880  137.0790 C   0  0  0  0  0  3  0  0  0  0  0  0
  185.1210  177.2830  135.5450 C   0  0  0  0  0  3  0  0  0  0  0  0
  186.2210  177.8660  134.9180 C   0  0  0  0  0  3  0  0  0  0  0  0
  182.7740  177.5430  137.5130 N   0  0  0  0  0  2  0  0  0  0  0  0
  185.5050  178.6170  141.3510 C   0  0  0  0  0  0  0  0  0  0  0  0
  183.4830  178.0280  140.3940 C   0  0  0  0  0  0  0  0  0  0  0  0
  186.9680  178.7480  141.3190 C   0  0  2  0  0  3  0  0  0  0  0  0
  184.7710  179.7300  143.4700 C   0  0  0  0  0  1  0  0  0  0  0  0
  186.0060  177.9540  139.2610 C   0  0  1  0  0  3  0  0  0  0  0  0
  1  6  1  0  0  0  0
  1 16  1  0  0  0  0
  2  8  2  0  0  0  0
  4 20  1  0  0  0  0
  5 27  1  0  0  0  0
  7  8  2  0  0  0  0
  8 14  1  0  0  0  0
  9 13  2  0  0  0  0
  9 18  1  0  0  0  0
 10  8  1  1  0  0  0
 10 26  1  0  0  0  0
 11 15  2  0  0  0  0
 12 25  2  0  0  0  0
 12 24  1  0  0  0  0
 14  9  1  0  0  0  0
 15 19  1  0  0  0  0
 17  5  1  0  0  0  0
 17  3  1  1  0  0  0
 19 25  1  0  0  0  0
 20 16  2  0  0  0  0
 21  1  2  0  0  0  0
 22 21  1  0  0  0  0
 22  4  2  0  0  0  0
 23  6  1  0  0  0  0
 23 15  1  0  0  0  0
 24  5  2  0  0  0  0
 25 17  1  0  0  0  0
 26 24  1  1  0  0  0
 26 13  1  0  0  0  0
 28 16  1  6  0  0  0
 28 10  1  0  0  0  0
 28 12  1  0  0  0  0
M  END
>  <MODEL>
7

>  <REMARK>
 VINA RESULT:      -7.0      2.369      7.025
  Name = 
  0 active torsions:
  status: ('A' for Active; 'I' for Inactive)
                            x       y       z     vdW  Elec       q    Type
                         _______ _______ _______ _____ _____    ______ ____

>  <TORSDO>
F 0

$$$$
=
 OpenBabel10232409073D

 28 32  0  0  1  0  0  0  0  0999 V2000
  191.1820  176.0430  138.4120 C   0  0  0  0  0  0  0  0  0  0  0  0
  190.8570  176.0630  142.5780 O   0  0  0  0  0  0  0  0  0  0  0  0
  185.2850  177.7110  137.3240 O   0  0  0  0  0  1  0  0  0  0  0  0
  193.2520  177.3930  139.6940 C   0  0  0  0  0  3  0  0  0  0  0  0
  186.3060  178.4130  139.5130 C   0  0  0  0  0  0  0  0  0  0  0  0
  190.1100  175.4860  137.6620 C   0  0  0  0  0  2  0  0  0  0  0  0
  191.2230  178.4710  143.0000 O   0  0  0  0  0  0  0  0  0  0  0  0
  190.2000  177.4060  142.7220 S   0  0  0  0  0  0  0  0  0  0  0  0
  187.6500  177.3990  143.6910 C   0  0  0  0  0  0  0  0  0  0  0  0
  189.3010  177.7980  141.3040 N   0  0  2  0  0  0  0  0  0  0  0  0
  188.1450  175.9210  134.8990 O   0  0  0  0  0  0  0  0  0  0  0  0
  188.2540  177.2300  139.3610 C   0  0  0  0  0  0  0  0  0  0  0  0
  187.2060  177.8060  142.5350 N   0  0  0  0  0  0  0  0  0  0  0  0
  189.0450  177.3470  143.9960 N   0  0  0  0  0  2  0  0  0  0  0  0
  188.4610  175.8600  136.1150 C   0  0  0  0  0  0  0  0  0  0  0  0
  190.8590  176.9130  139.4740 C   0  0  0  0  0  0  0  0  0  0  0  0
  186.3400  177.7190  138.2320 C   0  0  0  0  0  0  0  0  0  0  0  0
  186.6780  176.9140  144.7030 C   0  0  0  0  0  1  0  0  0  0  0  0
  187.4150  175.7910  137.1790 C   0  0  0  0  0  2  0  0  0  0  0  0
  191.9280  177.5860  140.0940 C   0  0  0  0  0  3  0  0  0  0  0  0
  192.5040  175.8590  137.9920 C   0  0  0  0  0  3  0  0  0  0  0  0
  193.5410  176.5250  138.6430 C   0  0  0  0  0  3  0  0  0  0  0  0
  189.8100  175.9930  136.5170 N   0  0  0  0  0  2  0  0  0  0  0  0
  187.3890  178.0450  140.1600 C   0  0  1  0  0  3  0  0  0  0  0  0
  187.4590  176.9940  138.1000 C   0  0  0  0  0  0  0  0  0  0  0  0
  187.9870  178.4160  141.4500 C   0  0  2  0  0  3  0  0  0  0  0  0
  185.2310  179.3070  140.0250 C   0  0  0  0  0  1  0  0  0  0  0  0
  189.4620  177.1880  139.9990 C   0  0  1  0  0  3  0  0  0  0  0  0
  1 16  1  0  0  0  0
  2  8  2  0  0  0  0
  3 17  1  0  0  0  0
  4 20  1  0  0  0  0
  5 27  1  0  0  0  0
  5 24  1  0  0  0  0
  6  1  1  0  0  0  0
  8  7  2  0  0  0  0
  8 14  1  0  0  0  0
  9 14  1  0  0  0  0
  9 18  1  0  0  0  0
 10 26  1  0  0  0  0
 10  8  1  1  0  0  0
 11 15  2  0  0  0  0
 13  9  2  0  0  0  0
 15 23  1  0  0  0  0
 15 19  1  0  0  0  0
 16 28  1  0  0  0  0
 16 20  2  0  0  0  0
 17  5  2  0  0  0  0
 19 25  1  0  0  0  0
 21  1  2  0  0  0  0
 21 22  1  0  0  0  0
 22  4  2  0  0  0  0
 23  6  1  0  0  0  0
 24 12  1  6  0  0  0
 24 26  1  0  0  0  0
 25 17  1  0  0  0  0
 25 12  2  0  0  0  0
 26 13  1  1  0  0  0
 28 12  1  6  0  0  0
 28 10  1  0  0  0  0
M  END
>  <MODEL>
8

>  <REMARK>
 VINA RESULT:      -6.9      2.958      6.856
  Name = 
  0 active torsions:
  status: ('A' for Active; 'I' for Inactive)
                            x       y       z     vdW  Elec       q    Type
                         _______ _______ _______ _____ _____    ______ ____

>  <TORSDO>
F 0

$$$$
=
 OpenBabel10232409073D

 28 32  0  0  1  0  0  0  0  0999 V2000
  184.5890  178.8790  139.8540 C   0  0  0  0  0  0  0  0  0  0  0  0
  183.4060  180.1540  143.6530 O   0  0  0  0  0  0  0  0  0  0  0  0
  190.2130  176.8650  141.6000 O   0  0  0  0  0  1  0  0  0  0  0  0
  182.0400  178.0280  140.5810 C   0  0  0  0  0  3  0  0  0  0  0  0
  188.3980  176.8960  143.3410 C   0  0  0  0  0  0  0  0  0  0  0  0
  185.9210  179.1590  139.4410 C   0  0  0  0  0  2  0  0  0  0  0  0
  182.6000  178.0030  144.5670 O   0  0  0  0  0  0  0  0  0  0  0  0
  183.7860  178.9120  144.4090 S   0  0  0  0  0  0  0  0  0  0  0  0
  185.8020  179.1810  146.2260 C   0  0  0  0  0  0  0  0  0  0  0  0
  185.0710  178.0840  143.6100 N   0  0  2  0  0  0  0  0  0  0  0  0
  188.6650  177.8540  137.8740 O   0  0  0  0  0  0  0  0  0  0  0  0
  186.8050  178.0020  142.1340 C   0  0  0  0  0  0  0  0  0  0  0  0
  186.5700  178.4280  145.4910 N   0  0  0  0  0  0  0  0  0  0  0  0
  184.4090  179.3470  145.9520 N   0  0  0  0  0  2  0  0  0  0  0  0
  187.9480  178.2960  138.8080 C   0  0  0  0  0  0  0  0  0  0  0  0
  184.3960  178.3780  141.1570 C   0  0  0  0  0  0  0  0  0  0  0  0
  188.9130  177.1560  142.0030 C   0  0  0  0  0  0  0  0  0  0  0  0
  186.4060  179.9430  147.3490 C   0  0  0  0  0  1  0  0  0  0  0  0
  188.5470  178.6770  140.1230 C   0  0  0  0  0  2  0  0  0  0  0  0
  183.0970  177.9490  141.4890 C   0  0  0  0  0  3  0  0  0  0  0  0
  183.5390  178.9440  138.9310 C   0  0  0  0  0  3  0  0  0  0  0  0
  182.2610  178.5300  139.2990 C   0  0  0  0  0  3  0  0  0  0  0  0
  186.5390  178.3150  138.6890 N   0  0  0  0  0  2  0  0  0  0  0  0
  187.2140  177.4640  143.3970 C   0  0  1  0  0  3  0  0  0  0  0  0
  188.0200  177.8210  141.2580 C   0  0  0  0  0  0  0  0  0  0  0  0
  186.1540  177.5220  144.4120 C   0  0  2  0  0  3  0  0  0  0  0  0
  189.0930  176.1900  144.4520 C   0  0  0  0  0  1  0  0  0  0  0  0
  185.4660  178.2600  142.2270 C   0  0  1  0  0  3  0  0  0  0  0  0
  1 16  1  0  0  0  0
  2  8  2  0  0  0  0
  3 17  1  0  0  0  0
  4 20  1  0  0  0  0
  5 24  1  0  0  0  0
  5 27  1  0  0  0  0
  6  1  1  0  0  0  0
  8  7  2  0  0  0  0
  8 14  1  0  0  0  0
  9 18  1  0  0  0  0
 10  8  1  1  0  0  0
 10 26  1  0  0  0  0
 11 15  2  0  0  0  0
 12 28  1  0  0  0  0
 13  9  2  0  0  0  0
 14  9  1  0  0  0  0
 15 19  1  0  0  0  0
 16 20  2  0  0  0  0
 17  5  2  0  0  0  0
 19 25  1  0  0  0  0
 21 22  1  0  0  0  0
 21  1  2  0  0  0  0
 22  4  2  0  0  0  0
 23 15  1  0  0  0  0
 23  6  1  0  0  0  0
 24 12  1  6  0  0  0
 24 26  1  0  0  0  0
 25 17  1  0  0  0  0
 25 12  2  0  0  0  0
 26 13  1  1  0  0  0
 28 16  1  6  0  0  0
 28 10  1  0  0  0  0
M  END
>  <MODEL>
9

>  <REMARK>
 VINA RESULT:      -6.8      2.492      5.405
  Name = 
  0 active torsions:
  status: ('A' for Active; 'I' for Inactive)
                            x       y       z     vdW  Elec       q    Type
                         _______ _______ _______ _____ _____    ______ ____

>  <TORSDO>
F 0

$$$$
