=
 OpenBabel10222421303D

 34 37  0  0  1  0  0  0  0  0999 V2000
  185.4450  178.7240  143.0100 C   0  0  1  0  0  0  0  0  0  0  0  0
  188.1350  176.2870  143.2630 C   0  0  0  0  0  3  0  0  0  0  0  0
  186.4660  177.9800  143.8620 C   0  0  0  0  0  0  0  0  0  0  0  0
  186.7190  176.5160  143.6540 C   0  0  0  0  0  2  0  0  0  0  0  0
  188.9880  177.1720  145.4150 C   0  0  0  0  0  0  0  0  0  0  0  0
  189.1600  176.5730  144.0650 C   0  0  0  0  0  0  0  0  0  0  0  0
  187.0640  178.6160  144.8290 N   0  0  0  0  0  0  0  0  0  0  0  0
  188.0740  178.1040  145.7170 C   0  0  0  0  0  3  0  0  0  0  0  0
  190.4690  176.2310  143.6240 N   0  0  0  0  0  1  0  0  0  0  0  0
  190.7360  176.5490  147.3020 C   0  0  0  0  0  3  0  0  0  0  0  0
  189.9400  176.8320  146.4410 C   0  0  0  0  0  0  0  0  0  0  0  0
  184.4790  177.7190  142.3470 C   0  0  0  0  0  2  0  0  0  0  0  0
  180.4000  177.9300  141.2350 C   0  0  0  0  0  2  0  0  0  0  0  0
  181.1650  179.7450  139.7540 C   0  0  0  0  0  0  0  0  0  0  0  0
  182.4310  179.2370  139.5560 O   0  0  0  0  0  0  0  0  0  0  0  0
  180.5880  179.4260  141.0900 C   0  0  2  0  0  3  0  0  0  0  0  0
  184.1760  178.0480  140.8850 C   0  0  2  0  0  3  0  0  0  0  0  0
  182.7860  178.5260  140.7120 C   0  0  2  0  0  0  0  0  0  0  0  0
  183.1540  177.2060  140.4010 O   0  0  0  0  0  0  0  0  0  0  0  0
  180.5630  180.4260  138.8820 O   0  0  0  0  0  0  0  0  0  0  0  0
  181.6740  178.5720  141.7600 C   0  0  2  0  0  3  0  0  0  0  0  0
  184.6560  179.7050  143.8990 C   0  0  0  0  0  2  0  0  0  0  0  0
  182.5980  178.6950  144.5740 O   0  0  0  0  0  0  0  0  0  0  0  0
  184.1880  178.8770  146.2130 O   0  0  0  0  0  1  0  0  0  0  0  0
  183.7520  179.0670  144.9080 C   0  0  0  0  0  0  0  0  0  0  0  0
  186.1560  179.5650  141.9230 C   0  0  0  0  0  2  0  0  0  0  0  0
  188.4930  179.1930  142.0190 O   0  0  0  0  0  0  0  0  0  0  0  0
  187.4490  178.9850  141.4220 C   0  0  0  0  0  0  0  0  0  0  0  0
  187.4330  178.0990  140.2180 C   0  0  0  0  0  2  0  0  0  0  0  0
  188.8370  177.9020  139.6680 C   0  0  0  0  0  2  0  0  0  0  0  0
  188.8500  178.1120  137.8620 P   0  0  0  0  0  0  0  0  0  0  0  0
  188.9540  179.7580  137.4890 O   0  0  0  0  0  1  0  0  0  0  0  0
  187.4210  177.4820  137.2110 O   0  0  0  0  0  0  0  0  0  0  0  0
  190.0320  177.3890  137.2600 O   0  0  0  0  0  1  0  0  0  0  0  0
  1 26  1  6  0  0  0
  1  3  1  0  0  0  0
  1 22  1  0  0  0  0
  2  4  1  0  0  0  0
  2  6  2  0  0  0  0
  3  7  2  0  0  0  0
  4  3  1  0  0  0  0
  5  8  2  0  0  0  0
  5 11  1  0  0  0  0
  6  5  1  0  0  0  0
  7  8  1  0  0  0  0
  9  6  1  0  0  0  0
 11 10  3  0  0  0  0
 12  1  1  0  0  0  0
 14 16  1  0  0  0  0
 15 14  1  0  0  0  0
 16 13  1  6  0  0  0
 16 21  1  0  0  0  0
 17 12  1  1  0  0  0
 18 15  1  6  0  0  0
 18 17  1  0  0  0  0
 18 21  1  0  0  0  0
 19 18  1  0  0  0  0
 19 17  1  0  0  0  0
 20 14  2  0  0  0  0
 21 13  1  6  0  0  0
 22 25  1  0  0  0  0
 23 25  2  0  0  0  0
 25 24  1  0  0  0  0
 28 26  1  0  0  0  0
 28 27  2  0  0  0  0
 29 28  1  0  0  0  0
 30 29  1  0  0  0  0
 31 30  1  0  0  0  0
 32 31  1  0  0  0  0
 33 31  2  0  0  0  0
 34 31  1  0  0  0  0
M  END
>  <MODEL>
1

>  <REMARK>
 VINA RESULT:      -6.6      0.000      0.000
  Name = 
  11 active torsions:
  status: ('A' for Active; 'I' for Inactive)
    1  A    between atoms: P_2  and  C_23
    2  A    between atoms: C_4  and  C_23
    3  A    between atoms: C_4  and  C_29
    4  A    between atoms: C_9  and  C_15
    5  A    between atoms: C_11  and  C_12
    6  A    between atoms: C_11  and  C_15
    7  A    between atoms: C_13  and  C_15
    8  A    between atoms: C_13  and  C_21
    9  A    between atoms: C_14  and  C_15
   10  A    between atoms: C_14  and  C_29
   11  A    between atoms: C_18  and  C_33
                            x       y       z     vdW  Elec       q    Type
                         _______ _______ _______ _____ _____    ______ ____

>  <TORSDO>
F 11

$$$$
=
 OpenBabel10222421303D

 34 37  0  0  1  0  0  0  0  0999 V2000
  190.1630  176.4040  137.8820 C   0  0  1  0  0  0  0  0  0  0  0  0
  188.1930  178.3450  140.2460 C   0  0  0  0  0  3  0  0  0  0  0  0
  189.9940  176.9930  139.2780 C   0  0  0  0  0  0  0  0  0  0  0  0
  189.4580  178.3820  139.4650 C   0  0  0  0  0  2  0  0  0  0  0  0
  189.3260  177.4140  142.2440 C   0  0  0  0  0  0  0  0  0  0  0  0
  188.1370  177.9180  141.5080 C   0  0  0  0  0  0  0  0  0  0  0  0
  190.3950  176.3030  140.3080 N   0  0  0  0  0  0  0  0  0  0  0  0
  190.2940  176.6680  141.6960 C   0  0  0  0  0  3  0  0  0  0  0  0
  186.8910  178.0110  142.1880 N   0  0  0  0  0  1  0  0  0  0  0  0
  189.4410  177.7990  144.8600 C   0  0  0  0  0  3  0  0  0  0  0  0
  189.3890  177.6250  143.6670 C   0  0  0  0  0  0  0  0  0  0  0  0
  191.4590  175.5690  137.8160 C   0  0  0  0  0  2  0  0  0  0  0  0
  195.2740  173.9220  138.6240 C   0  0  0  0  0  2  0  0  0  0  0  0
  195.8750  174.9060  136.4460 C   0  0  0  0  0  0  0  0  0  0  0  0
  194.9890  175.9600  136.5220 O   0  0  0  0  0  0  0  0  0  0  0  0
  195.4050  173.6710  137.1360 C   0  0  2  0  0  3  0  0  0  0  0  0
  192.6730  176.3740  137.3530 C   0  0  2  0  0  3  0  0  0  0  0  0
  193.8880  175.5330  137.2800 C   0  0  2  0  0  0  0  0  0  0  0  0
  193.6560  176.3950  138.3640 O   0  0  0  0  0  0  0  0  0  0  0  0
  196.9730  174.9850  135.8360 O   0  0  0  0  0  0  0  0  0  0  0  0
  194.0520  174.0820  137.7350 C   0  0  2  0  0  3  0  0  0  0  0  0
  188.9470  175.5160  137.5510 C   0  0  0  0  0  2  0  0  0  0  0  0
  189.2020  173.1410  137.4900 O   0  0  0  0  0  1  0  0  0  0  0  0
  189.6300  174.2270  135.5190 O   0  0  0  0  0  0  0  0  0  0  0  0
  189.2670  174.2270  136.8590 C   0  0  0  0  0  0  0  0  0  0  0  0
  190.2070  177.5290  136.8210 C   0  0  0  0  0  2  0  0  0  0  0  0
  189.0350  177.1490  134.7980 O   0  0  0  0  0  0  0  0  0  0  0  0
  188.9980  177.6030  135.9300 C   0  0  0  0  0  0  0  0  0  0  0  0
  187.7300  178.1840  136.4680 C   0  0  0  0  0  2  0  0  0  0  0  0
  186.5240  177.6680  135.6980 C   0  0  0  0  0  2  0  0  0  0  0  0
  185.2370  177.0890  136.8430 P   0  0  0  0  0  0  0  0  0  0  0  0
  183.7160  177.3140  136.1380 O   0  0  0  0  0  0  0  0  0  0  0  0
  185.3210  177.9760  138.2820 O   0  0  0  0  0  1  0  0  0  0  0  0
  185.4310  175.6220  137.1500 O   0  0  0  0  0  1  0  0  0  0  0  0
  1 26  1  6  0  0  0
  1  3  1  0  0  0  0
  2  6  2  0  0  0  0
  3  4  1  0  0  0  0
  3  7  2  0  0  0  0
  4  2  1  0  0  0  0
  5 11  1  0  0  0  0
  6  9  1  0  0  0  0
  6  5  1  0  0  0  0
  7  8  1  0  0  0  0
  8  5  2  0  0  0  0
 11 10  3  0  0  0  0
 12  1  1  0  0  0  0
 14 15  1  0  0  0  0
 14 16  1  0  0  0  0
 16 21  1  0  0  0  0
 16 13  1  1  0  0  0
 17 12  1  1  0  0  0
 17 19  1  0  0  0  0
 18 15  1  6  0  0  0
 18 17  1  0  0  0  0
 18 21  1  0  0  0  0
 18 19  1  0  0  0  0
 20 14  2  0  0  0  0
 21 13  1  1  0  0  0
 22  1  1  0  0  0  0
 24 25  2  0  0  0  0
 25 23  1  0  0  0  0
 25 22  1  0  0  0  0
 27 28  2  0  0  0  0
 28 29  1  0  0  0  0
 28 26  1  0  0  0  0
 30 29  1  0  0  0  0
 30 31  1  0  0  0  0
 31 34  1  0  0  0  0
 31 33  1  0  0  0  0
 32 31  2  0  0  0  0
M  END
>  <MODEL>
2

>  <REMARK>
 VINA RESULT:      -6.5      4.301      9.145
  Name = 
  11 active torsions:
  status: ('A' for Active; 'I' for Inactive)
    1  A    between atoms: P_2  and  C_23
    2  A    between atoms: C_4  and  C_23
    3  A    between atoms: C_4  and  C_29
    4  A    between atoms: C_9  and  C_15
    5  A    between atoms: C_11  and  C_12
    6  A    between atoms: C_11  and  C_15
    7  A    between atoms: C_13  and  C_15
    8  A    between atoms: C_13  and  C_21
    9  A    between atoms: C_14  and  C_15
   10  A    between atoms: C_14  and  C_29
   11  A    between atoms: C_18  and  C_33
                            x       y       z     vdW  Elec       q    Type
                         _______ _______ _______ _____ _____    ______ ____

>  <TORSDO>
F 11

$$$$
=
 OpenBabel10222421303D

 34 37  0  0  1  0  0  0  0  0999 V2000
  189.5250  177.0710  138.8720 C   0  0  1  0  0  0  0  0  0  0  0  0
  191.1820  177.5830  142.0700 C   0  0  0  0  0  3  0  0  0  0  0  0
  189.4860  177.0160  140.3940 C   0  0  0  0  0  0  0  0  0  0  0  0
  190.6640  176.5140  141.1750 C   0  0  0  0  0  2  0  0  0  0  0  0
  189.0700  177.6760  143.3630 C   0  0  0  0  0  0  0  0  0  0  0  0
  190.4640  178.0990  143.0670 C   0  0  0  0  0  0  0  0  0  0  0  0
  188.3830  177.3370  141.0090 N   0  0  0  0  0  0  0  0  0  0  0  0
  188.1560  177.3800  142.4290 C   0  0  0  0  0  3  0  0  0  0  0  0
  191.0910  179.0530  143.9170 N   0  0  0  0  0  1  0  0  0  0  0  0
  188.2460  177.7340  145.8780 C   0  0  0  0  0  3  0  0  0  0  0  0
  188.6220  177.7060  144.7310 C   0  0  0  0  0  0  0  0  0  0  0  0
  189.2620  175.6680  138.2860 C   0  0  0  0  0  2  0  0  0  0  0  0
  188.9410  172.5050  135.4910 C   0  0  0  0  0  2  0  0  0  0  0  0
  186.5710  172.4930  136.1670 C   0  0  0  0  0  0  0  0  0  0  0  0
  186.5040  173.8390  136.4590 O   0  0  0  0  0  0  0  0  0  0  0  0
  187.9100  171.8870  136.4130 C   0  0  2  0  0  3  0  0  0  0  0  0
  187.9650  175.5850  137.4810 C   0  0  2  0  0  3  0  0  0  0  0  0
  187.7770  174.2410  136.8890 C   0  0  2  0  0  0  0  0  0  0  0  0
  188.2510  175.3200  136.1260 O   0  0  0  0  0  0  0  0  0  0  0  0
  185.5810  171.8410  135.7410 O   0  0  0  0  0  0  0  0  0  0  0  0
  188.7620  173.0710  136.8900 C   0  0  2  0  0  3  0  0  0  0  0  0
  188.4560  178.0610  138.3680 C   0  0  0  0  0  2  0  0  0  0  0  0
  189.0360  180.1840  137.4400 O   0  0  0  0  0  1  0  0  0  0  0  0
  189.1360  178.4170  135.9870 O   0  0  0  0  0  0  0  0  0  0  0  0
  188.8890  178.9510  137.2450 C   0  0  0  0  0  0  0  0  0  0  0  0
  190.8970  177.5960  138.3840 C   0  0  0  0  0  2  0  0  0  0  0  0
  191.4970  176.1550  136.6020 O   0  0  0  0  0  0  0  0  0  0  0  0
  191.7670  176.5650  137.7200 C   0  0  0  0  0  0  0  0  0  0  0  0
  193.0020  176.0950  138.4170 C   0  0  0  0  0  2  0  0  0  0  0  0
  193.6400  174.9330  137.6720 C   0  0  0  0  0  2  0  0  0  0  0  0
  195.2430  174.5020  138.4120 P   0  0  0  0  0  0  0  0  0  0  0  0
  196.4780  174.8160  137.3000 O   0  0  0  0  0  0  0  0  0  0  0  0
  195.2570  172.8570  138.8110 O   0  0  0  0  0  1  0  0  0  0  0  0
  195.4780  175.3190  139.6620 O   0  0  0  0  0  1  0  0  0  0  0  0
  1 12  1  6  0  0  0
  1  3  1  0  0  0  0
  2  6  2  0  0  0  0
  3  7  2  0  0  0  0
  3  4  1  0  0  0  0
  4  2  1  0  0  0  0
  5 11  1  0  0  0  0
  6  5  1  0  0  0  0
  6  9  1  0  0  0  0
  7  8  1  0  0  0  0
  8  5  2  0  0  0  0
 11 10  3  0  0  0  0
 14 16  1  0  0  0  0
 14 15  1  0  0  0  0
 15 18  1  0  0  0  0
 16 13  1  6  0  0  0
 16 21  1  0  0  0  0
 17 12  1  1  0  0  0
 18 19  1  6  0  0  0
 18 21  1  0  0  0  0
 18 17  1  0  0  0  0
 19 17  1  0  0  0  0
 20 14  2  0  0  0  0
 21 13  1  6  0  0  0
 22  1  1  0  0  0  0
 24 25  2  0  0  0  0
 25 23  1  0  0  0  0
 25 22  1  0  0  0  0
 26  1  1  0  0  0  0
 27 28  2  0  0  0  0
 28 26  1  0  0  0  0
 28 29  1  0  0  0  0
 30 31  1  0  0  0  0
 30 29  1  0  0  0  0
 31 33  1  0  0  0  0
 31 34  1  0  0  0  0
 32 31  2  0  0  0  0
M  END
>  <MODEL>
3

>  <REMARK>
 VINA RESULT:      -6.5      5.031      7.241
  Name = 
  11 active torsions:
  status: ('A' for Active; 'I' for Inactive)
    1  A    between atoms: P_2  and  C_23
    2  A    between atoms: C_4  and  C_23
    3  A    between atoms: C_4  and  C_29
    4  A    between atoms: C_9  and  C_15
    5  A    between atoms: C_11  and  C_12
    6  A    between atoms: C_11  and  C_15
    7  A    between atoms: C_13  and  C_15
    8  A    between atoms: C_13  and  C_21
    9  A    between atoms: C_14  and  C_15
   10  A    between atoms: C_14  and  C_29
   11  A    between atoms: C_18  and  C_33
                            x       y       z     vdW  Elec       q    Type
                         _______ _______ _______ _____ _____    ______ ____

>  <TORSDO>
F 11

$$$$
=
 OpenBabel10222421303D

 34 37  0  0  1  0  0  0  0  0999 V2000
  189.5820  176.7400  137.5740 C   0  0  1  0  0  0  0  0  0  0  0  0
  189.2860  174.0250  135.1710 C   0  0  0  0  0  3  0  0  0  0  0  0
  188.7210  175.6980  136.8700 C   0  0  0  0  0  0  0  0  0  0  0  0
  188.8790  175.4370  135.4020 C   0  0  0  0  0  2  0  0  0  0  0  0
  187.1820  173.1440  136.1400 C   0  0  0  0  0  0  0  0  0  0  0  0
  188.5120  172.9890  135.4940 C   0  0  0  0  0  0  0  0  0  0  0  0
  187.7870  175.0900  137.5460 N   0  0  0  0  0  0  0  0  0  0  0  0
  186.8990  174.0610  137.0750 C   0  0  0  0  0  3  0  0  0  0  0  0
  188.9630  171.6850  135.1460 N   0  0  0  0  0  1  0  0  0  0  0  0
  185.3050  171.3580  135.6020 C   0  0  0  0  0  3  0  0  0  0  0  0
  186.1610  172.1720  135.8460 C   0  0  0  0  0  0  0  0  0  0  0  0
  189.5550  176.5040  139.0990 C   0  0  0  0  0  2  0  0  0  0  0  0
  188.9230  176.4460  143.2840 C   0  0  0  0  0  2  0  0  0  0  0  0
  191.1680  177.4590  143.3770 C   0  0  0  0  0  0  0  0  0  0  0  0
  191.0760  178.1100  142.1650 O   0  0  0  0  0  0  0  0  0  0  0  0
  190.4070  176.1790  143.4350 C   0  0  2  0  0  3  0  0  0  0  0  0
  190.1200  177.6770  139.9000 C   0  0  2  0  0  3  0  0  0  0  0  0
  190.2370  177.3460  141.3380 C   0  0  2  0  0  0  0  0  0  0  0  0
  189.1730  178.1190  140.8460 O   0  0  0  0  0  0  0  0  0  0  0  0
  191.8460  177.9070  144.3380 O   0  0  0  0  0  0  0  0  0  0  0  0
  189.7410  176.0890  142.0530 C   0  0  2  0  0  3  0  0  0  0  0  0
  191.0290  176.6440  137.0520 C   0  0  0  0  0  2  0  0  0  0  0  0
  192.9410  176.1000  138.3770 O   0  0  0  0  0  1  0  0  0  0  0  0
  191.5920  174.3330  137.8290 O   0  0  0  0  0  0  0  0  0  0  0  0
  191.9110  175.6840  137.7880 C   0  0  0  0  0  0  0  0  0  0  0  0
  189.0770  178.1670  137.2530 C   0  0  0  0  0  2  0  0  0  0  0  0
  187.0030  178.4020  136.1320 O   0  0  0  0  0  0  0  0  0  0  0  0
  187.5800  178.3100  137.2030 C   0  0  0  0  0  0  0  0  0  0  0  0
  186.8020  178.2760  138.4780 C   0  0  0  0  0  2  0  0  0  0  0  0
  185.3070  178.2270  138.2030 C   0  0  0  0  0  2  0  0  0  0  0  0
  184.3850  179.0500  139.5350 P   0  0  0  0  0  0  0  0  0  0  0  0
  183.2130  177.9930  140.1440 O   0  0  0  0  0  1  0  0  0  0  0  0
  183.6240  180.4320  138.9240 O   0  0  0  0  0  0  0  0  0  0  0  0
  185.3230  179.4500  140.6510 O   0  0  0  0  0  1  0  0  0  0  0  0
  1 22  1  6  0  0  0
  1 12  1  0  0  0  0
  2  4  1  0  0  0  0
  2  6  2  0  0  0  0
  3  7  2  0  0  0  0
  3  1  1  0  0  0  0
  4  3  1  0  0  0  0
  5  8  2  0  0  0  0
  6  5  1  0  0  0  0
  8  7  1  0  0  0  0
  9  6  1  0  0  0  0
 10 11  3  0  0  0  0
 11  5  1  0  0  0  0
 14 16  1  0  0  0  0
 14 20  2  0  0  0  0
 15 14  1  0  0  0  0
 16 13  1  1  0  0  0
 17 12  1  6  0  0  0
 17 19  1  0  0  0  0
 17 18  1  0  0  0  0
 18 19  1  1  0  0  0
 18 21  1  0  0  0  0
 18 15  1  0  0  0  0
 21 13  1  1  0  0  0
 21 16  1  0  0  0  0
 22 25  1  0  0  0  0
 25 24  2  0  0  0  0
 25 23  1  0  0  0  0
 26  1  1  0  0  0  0
 27 28  2  0  0  0  0
 28 26  1  0  0  0  0
 28 29  1  0  0  0  0
 30 29  1  0  0  0  0
 30 31  1  0  0  0  0
 31 32  1  0  0  0  0
 31 34  1  0  0  0  0
 33 31  2  0  0  0  0
M  END
>  <MODEL>
4

>  <REMARK>
 VINA RESULT:      -6.4      4.271      8.744
  Name = 
  11 active torsions:
  status: ('A' for Active; 'I' for Inactive)
    1  A    between atoms: P_2  and  C_23
    2  A    between atoms: C_4  and  C_23
    3  A    between atoms: C_4  and  C_29
    4  A    between atoms: C_9  and  C_15
    5  A    between atoms: C_11  and  C_12
    6  A    between atoms: C_11  and  C_15
    7  A    between atoms: C_13  and  C_15
    8  A    between atoms: C_13  and  C_21
    9  A    between atoms: C_14  and  C_15
   10  A    between atoms: C_14  and  C_29
   11  A    between atoms: C_18  and  C_33
                            x       y       z     vdW  Elec       q    Type
                         _______ _______ _______ _____ _____    ______ ____

>  <TORSDO>
F 11

$$$$
=
 OpenBabel10222421303D

 34 37  0  0  1  0  0  0  0  0999 V2000
  189.6450  176.3390  137.5550 C   0  0  1  0  0  0  0  0  0  0  0  0
  188.1210  178.3480  140.1780 C   0  0  0  0  0  3  0  0  0  0  0  0
  189.7330  176.9850  138.9330 C   0  0  0  0  0  0  0  0  0  0  0  0
  189.2100  178.3710  139.1660 C   0  0  0  0  0  2  0  0  0  0  0  0
  189.6390  177.5220  141.9540 C   0  0  0  0  0  0  0  0  0  0  0  0
  188.3190  177.9750  141.4420 C   0  0  0  0  0  0  0  0  0  0  0  0
  190.3410  176.3460  139.8920 N   0  0  0  0  0  0  0  0  0  0  0  0
  190.5010  176.7680  141.2580 C   0  0  0  0  0  3  0  0  0  0  0  0
  187.2250  178.0770  142.3470 N   0  0  0  0  0  1  0  0  0  0  0  0
  190.2460  178.0250  144.4800 C   0  0  0  0  0  3  0  0  0  0  0  0
  189.9700  177.7950  143.3280 C   0  0  0  0  0  0  0  0  0  0  0  0
  188.2800  175.6390  137.3870 C   0  0  0  0  0  2  0  0  0  0  0  0
  185.0930  172.8780  137.7620 C   0  0  0  0  0  2  0  0  0  0  0  0
  185.4400  172.5440  135.3450 C   0  0  0  0  0  0  0  0  0  0  0  0
  186.7920  172.8160  135.3610 O   0  0  0  0  0  0  0  0  0  0  0  0
  184.6610  173.2930  136.3700 C   0  0  2  0  0  3  0  0  0  0  0  0
  188.3510  174.3790  136.5240 C   0  0  2  0  0  3  0  0  0  0  0  0
  187.0260  173.7310  136.3980 C   0  0  2  0  0  0  0  0  0  0  0  0
  187.9990  173.2470  137.2890 O   0  0  0  0  0  0  0  0  0  0  0  0
  184.9190  171.7420  134.5260 O   0  0  0  0  0  0  0  0  0  0  0  0
  185.7310  174.1000  137.1210 C   0  0  2  0  0  3  0  0  0  0  0  0
  189.8180  177.4210  136.4710 C   0  0  0  0  0  2  0  0  0  0  0  0
  188.5140  177.1960  134.4820 O   0  0  0  0  0  0  0  0  0  0  0  0
  187.5730  178.4730  136.1340 O   0  0  0  0  0  1  0  0  0  0  0  0
  188.6040  177.6880  135.6360 C   0  0  0  0  0  0  0  0  0  0  0  0
  190.7890  175.3160  137.3630 C   0  0  0  0  0  2  0  0  0  0  0  0
  191.9200  175.7440  135.3260 O   0  0  0  0  0  0  0  0  0  0  0  0
  191.9490  175.8120  136.5440 C   0  0  0  0  0  0  0  0  0  0  0  0
  193.1110  176.4470  137.2360 C   0  0  0  0  0  2  0  0  0  0  0  0
  193.5760  175.6010  138.4100 C   0  0  0  0  0  2  0  0  0  0  0  0
  194.8430  174.4110  137.8780 P   0  0  0  0  0  0  0  0  0  0  0  0
  195.6100  173.7610  139.2370 O   0  0  0  0  0  1  0  0  0  0  0  0
  195.9890  175.2010  136.9150 O   0  0  0  0  0  0  0  0  0  0  0  0
  194.2100  173.2940  137.0810 O   0  0  0  0  0  1  0  0  0  0  0  0
  1 22  1  6  0  0  0
  1  3  1  0  0  0  0
  2  6  2  0  0  0  0
  3  4  1  0  0  0  0
  3  7  2  0  0  0  0
  4  2  1  0  0  0  0
  5 11  1  0  0  0  0
  6  5  1  0  0  0  0
  6  9  1  0  0  0  0
  7  8  1  0  0  0  0
  8  5  2  0  0  0  0
 11 10  3  0  0  0  0
 12  1  1  0  0  0  0
 14 15  1  0  0  0  0
 14 16  1  0  0  0  0
 16 21  1  0  0  0  0
 16 13  1  1  0  0  0
 17 19  1  0  0  0  0
 17 12  1  1  0  0  0
 18 15  1  6  0  0  0
 18 17  1  0  0  0  0
 18 21  1  0  0  0  0
 18 19  1  0  0  0  0
 20 14  2  0  0  0  0
 21 13  1  1  0  0  0
 23 25  2  0  0  0  0
 25 24  1  0  0  0  0
 25 22  1  0  0  0  0
 26  1  1  0  0  0  0
 27 28  2  0  0  0  0
 28 29  1  0  0  0  0
 28 26  1  0  0  0  0
 29 30  1  0  0  0  0
 31 30  1  0  0  0  0
 31 32  1  0  0  0  0
 33 31  2  0  0  0  0
 34 31  1  0  0  0  0
M  END
>  <MODEL>
5

>  <REMARK>
 VINA RESULT:      -6.4      5.070      7.453
  Name = 
  11 active torsions:
  status: ('A' for Active; 'I' for Inactive)
    1  A    between atoms: P_2  and  C_23
    2  A    between atoms: C_4  and  C_23
    3  A    between atoms: C_4  and  C_29
    4  A    between atoms: C_9  and  C_15
    5  A    between atoms: C_11  and  C_12
    6  A    between atoms: C_11  and  C_15
    7  A    between atoms: C_13  and  C_15
    8  A    between atoms: C_13  and  C_21
    9  A    between atoms: C_14  and  C_15
   10  A    between atoms: C_14  and  C_29
   11  A    between atoms: C_18  and  C_33
                            x       y       z     vdW  Elec       q    Type
                         _______ _______ _______ _____ _____    ______ ____

>  <TORSDO>
F 11

$$$$
=
 OpenBabel10222421303D

 34 37  0  0  1  0  0  0  0  0999 V2000
  188.8540  178.2020  142.0930 C   0  0  1  0  0  0  0  0  0  0  0  0
  186.7640  177.6000  145.0100 C   0  0  0  0  0  3  0  0  0  0  0  0
  187.4660  178.0420  142.7040 C   0  0  0  0  0  0  0  0  0  0  0  0
  187.1960  176.9810  143.7290 C   0  0  0  0  0  2  0  0  0  0  0  0
  184.7250  178.5650  143.9830 C   0  0  0  0  0  0  0  0  0  0  0  0
  185.6390  178.3060  145.1260 C   0  0  0  0  0  0  0  0  0  0  0  0
  186.4940  178.7910  142.2660 N   0  0  0  0  0  0  0  0  0  0  0  0
  185.1330  178.8140  142.7310 C   0  0  0  0  0  3  0  0  0  0  0  0
  185.2770  178.7770  146.4190 N   0  0  0  0  0  1  0  0  0  0  0  0
  182.1340  178.7880  144.4710 C   0  0  0  0  0  3  0  0  0  0  0  0
  183.3150  178.6850  144.2480 C   0  0  0  0  0  0  0  0  0  0  0  0
  188.7340  178.6120  140.6110 C   0  0  0  0  0  2  0  0  0  0  0  0
  188.5110  179.1630  136.4200 C   0  0  0  0  0  2  0  0  0  0  0  0
  187.7620  176.8160  136.4110 C   0  0  0  0  0  0  0  0  0  0  0  0
  187.1660  176.8570  137.6530 O   0  0  0  0  0  0  0  0  0  0  0  0
  188.9400  177.7180  136.2760 C   0  0  2  0  0  3  0  0  0  0  0  0
  187.5970  177.9000  139.8790 C   0  0  2  0  0  3  0  0  0  0  0  0
  187.8670  177.7930  138.4270 C   0  0  2  0  0  0  0  0  0  0  0  0
  187.0010  178.7720  138.9430 O   0  0  0  0  0  0  0  0  0  0  0  0
  187.3480  176.0720  135.4830 O   0  0  0  0  0  0  0  0  0  0  0  0
  189.0210  178.4160  137.6410 C   0  0  2  0  0  3  0  0  0  0  0  0
  189.6350  179.2770  142.8750 C   0  0  0  0  0  2  0  0  0  0  0  0
  189.7960  178.2840  145.0430 O   0  0  0  0  0  1  0  0  0  0  0  0
  191.7920  178.8380  144.0670 O   0  0  0  0  0  0  0  0  0  0  0  0
  190.4050  178.7730  144.0580 C   0  0  0  0  0  0  0  0  0  0  0  0
  189.6530  176.8830  142.2120 C   0  0  0  0  0  2  0  0  0  0  0  0
  191.9380  177.1140  141.6300 O   0  0  0  0  0  0  0  0  0  0  0  0
  190.8230  176.7670  141.2740 C   0  0  0  0  0  0  0  0  0  0  0  0
  190.6170  176.1630  139.9220 C   0  0  0  0  0  2  0  0  0  0  0  0
  191.7500  176.5390  138.9790 C   0  0  0  0  0  2  0  0  0  0  0  0
  191.9230  175.2970  137.6640 P   0  0  0  0  0  0  0  0  0  0  0  0
  193.3840  174.4690  137.8620 O   0  0  0  0  0  1  0  0  0  0  0  0
  191.9200  176.0680  136.1570 O   0  0  0  0  0  0  0  0  0  0  0  0
  190.7790  174.3120  137.7210 O   0  0  0  0  0  1  0  0  0  0  0  0
  1 12  1  6  0  0  0
  1 26  1  0  0  0  0
  1  3  1  0  0  0  0
  1 22  1  0  0  0  0
  2  6  2  0  0  0  0
  3  4  1  0  0  0  0
  4  2  1  0  0  0  0
  5 11  1  0  0  0  0
  5  6  1  0  0  0  0
  6  9  1  0  0  0  0
  7  3  2  0  0  0  0
  7  8  1  0  0  0  0
  8  5  2  0  0  0  0
 11 10  3  0  0  0  0
 14 15  1  0  0  0  0
 16 14  1  0  0  0  0
 16 13  1  6  0  0  0
 16 21  1  0  0  0  0
 17 12  1  1  0  0  0
 18 15  1  6  0  0  0
 18 19  1  0  0  0  0
 18 17  1  0  0  0  0
 19 17  1  0  0  0  0
 20 14  2  0  0  0  0
 21 13  1  6  0  0  0
 21 18  1  0  0  0  0
 22 25  1  0  0  0  0
 25 24  2  0  0  0  0
 25 23  1  0  0  0  0
 28 27  2  0  0  0  0
 28 26  1  0  0  0  0
 29 28  1  0  0  0  0
 30 29  1  0  0  0  0
 31 34  1  0  0  0  0
 31 32  1  0  0  0  0
 31 30  1  0  0  0  0
 33 31  2  0  0  0  0
M  END
>  <MODEL>
6

>  <REMARK>
 VINA RESULT:      -6.4      3.289      5.796
  Name = 
  11 active torsions:
  status: ('A' for Active; 'I' for Inactive)
    1  A    between atoms: P_2  and  C_23
    2  A    between atoms: C_4  and  C_23
    3  A    between atoms: C_4  and  C_29
    4  A    between atoms: C_9  and  C_15
    5  A    between atoms: C_11  and  C_12
    6  A    between atoms: C_11  and  C_15
    7  A    between atoms: C_13  and  C_15
    8  A    between atoms: C_13  and  C_21
    9  A    between atoms: C_14  and  C_15
   10  A    between atoms: C_14  and  C_29
   11  A    between atoms: C_18  and  C_33
                            x       y       z     vdW  Elec       q    Type
                         _______ _______ _______ _____ _____    ______ ____

>  <TORSDO>
F 11

$$$$
=
 OpenBabel10222421303D

 34 37  0  0  1  0  0  0  0  0999 V2000
  189.3250  177.4290  143.2050 C   0  0  1  0  0  0  0  0  0  0  0  0
  186.5650  177.6110  145.5690 C   0  0  0  0  0  3  0  0  0  0  0  0
  187.8260  177.5040  143.4700 C   0  0  0  0  0  0  0  0  0  0  0  0
  187.2000  176.7060  144.5750 C   0  0  0  0  0  2  0  0  0  0  0  0
  184.9500  178.4860  143.9060 C   0  0  0  0  0  0  0  0  0  0  0  0
  185.5400  178.4070  145.2680 C   0  0  0  0  0  0  0  0  0  0  0  0
  187.0790  178.2140  142.6720 N   0  0  0  0  0  0  0  0  0  0  0  0
  185.6610  178.4350  142.7710 C   0  0  0  0  0  3  0  0  0  0  0  0
  184.9530  179.1660  146.3190 N   0  0  0  0  0  1  0  0  0  0  0  0
  182.3640  178.9980  143.6800 C   0  0  0  0  0  3  0  0  0  0  0  0
  183.5430  178.7640  143.7840 C   0  0  0  0  0  0  0  0  0  0  0  0
  189.6550  178.0850  141.8490 C   0  0  0  0  0  2  0  0  0  0  0  0
  187.5540  178.2340  138.1770 C   0  0  0  0  0  2  0  0  0  0  0  0
  189.7410  177.6560  137.1990 C   0  0  0  0  0  0  0  0  0  0  0  0
  190.1930  176.9390  138.2870 O   0  0  0  0  0  0  0  0  0  0  0  0
  188.8230  178.7750  137.5520 C   0  0  2  0  0  3  0  0  0  0  0  0
  190.0650  177.0770  140.7750 C   0  0  2  0  0  3  0  0  0  0  0  0
  189.6030  177.4940  139.4320 C   0  0  2  0  0  0  0  0  0  0  0  0
  188.9200  176.5160  140.1730 O   0  0  0  0  0  0  0  0  0  0  0  0
  190.0860  177.3870  136.0180 O   0  0  0  0  0  0  0  0  0  0  0  0
  188.6960  178.6740  139.0790 C   0  0  2  0  0  3  0  0  0  0  0  0
  190.0810  178.1520  144.3380 C   0  0  0  0  0  2  0  0  0  0  0  0
  192.1680  178.7730  143.3550 O   0  0  0  0  0  0  0  0  0  0  0  0
  190.8540  180.5140  144.0510 O   0  0  0  0  0  1  0  0  0  0  0  0
  191.0960  179.1570  143.8880 C   0  0  0  0  0  0  0  0  0  0  0  0
  189.8020  175.9570  143.2080 C   0  0  0  0  0  2  0  0  0  0  0  0
  192.1310  176.0970  142.7980 O   0  0  0  0  0  0  0  0  0  0  0  0
  191.2480  175.7630  143.5720 C   0  0  0  0  0  0  0  0  0  0  0  0
  191.5950  175.2140  144.9180 C   0  0  0  0  0  2  0  0  0  0  0  0
  192.1770  176.2950  145.8140 C   0  0  0  0  0  2  0  0  0  0  0  0
  191.4850  176.1770  147.4910 P   0  0  0  0  0  0  0  0  0  0  0  0
  189.8410  176.5690  147.4480 O   0  0  0  0  0  0  0  0  0  0  0  0
  192.2900  177.2600  148.5110 O   0  0  0  0  0  1  0  0  0  0  0  0
  191.6490  174.7730  148.0260 O   0  0  0  0  0  1  0  0  0  0  0  0
  1 12  1  6  0  0  0
  1 26  1  0  0  0  0
  1  3  1  0  0  0  0
  1 22  1  0  0  0  0
  3  4  1  0  0  0  0
  4  2  1  0  0  0  0
  5  6  1  0  0  0  0
  6  2  2  0  0  0  0
  6  9  1  0  0  0  0
  7  8  1  0  0  0  0
  7  3  2  0  0  0  0
  8  5  2  0  0  0  0
 10 11  3  0  0  0  0
 11  5  1  0  0  0  0
 14 16  1  0  0  0  0
 14 15  1  0  0  0  0
 16 13  1  6  0  0  0
 16 21  1  0  0  0  0
 17 12  1  1  0  0  0
 18 15  1  6  0  0  0
 18 19  1  0  0  0  0
 18 17  1  0  0  0  0
 19 17  1  0  0  0  0
 20 14  2  0  0  0  0
 21 13  1  6  0  0  0
 21 18  1  0  0  0  0
 23 25  2  0  0  0  0
 25 24  1  0  0  0  0
 25 22  1  0  0  0  0
 26 28  1  0  0  0  0
 27 28  2  0  0  0  0
 28 29  1  0  0  0  0
 29 30  1  0  0  0  0
 30 31  1  0  0  0  0
 31 34  1  0  0  0  0
 31 33  1  0  0  0  0
 32 31  2  0  0  0  0
M  END
>  <MODEL>
7

>  <REMARK>
 VINA RESULT:      -6.2      3.927      7.236
  Name = 
  11 active torsions:
  status: ('A' for Active; 'I' for Inactive)
    1  A    between atoms: P_2  and  C_23
    2  A    between atoms: C_4  and  C_23
    3  A    between atoms: C_4  and  C_29
    4  A    between atoms: C_9  and  C_15
    5  A    between atoms: C_11  and  C_12
    6  A    between atoms: C_11  and  C_15
    7  A    between atoms: C_13  and  C_15
    8  A    between atoms: C_13  and  C_21
    9  A    between atoms: C_14  and  C_15
   10  A    between atoms: C_14  and  C_29
   11  A    between atoms: C_18  and  C_33
                            x       y       z     vdW  Elec       q    Type
                         _______ _______ _______ _____ _____    ______ ____

>  <TORSDO>
F 11

$$$$
=
 OpenBabel10222421303D

 34 37  0  0  1  0  0  0  0  0999 V2000
  188.7780  177.0350  138.2760 C   0  0  1  0  0  0  0  0  0  0  0  0
  187.8260  177.8940  141.6810 C   0  0  0  0  0  3  0  0  0  0  0  0
  189.1740  177.2840  139.7270 C   0  0  0  0  0  0  0  0  0  0  0  0
  188.5700  178.4160  140.5040 C   0  0  0  0  0  2  0  0  0  0  0  0
  189.8780  176.9440  142.6960 C   0  0  0  0  0  0  0  0  0  0  0  0
  188.4210  177.2390  142.6780 C   0  0  0  0  0  0  0  0  0  0  0  0
  190.1050  176.5460  140.2630 N   0  0  0  0  0  0  0  0  0  0  0  0
  190.5930  176.6030  141.6150 C   0  0  0  0  0  3  0  0  0  0  0  0
  187.6270  176.8630  143.7970 N   0  0  0  0  0  1  0  0  0  0  0  0
  191.1130  176.8520  145.0350 C   0  0  0  0  0  3  0  0  0  0  0  0
  190.5500  176.8930  143.9680 C   0  0  0  0  0  0  0  0  0  0  0  0
  188.5610  175.5260  138.0410 C   0  0  0  0  0  2  0  0  0  0  0  0
  188.6820  172.5220  135.0610 C   0  0  0  0  0  2  0  0  0  0  0  0
  186.4290  171.9680  135.8930 C   0  0  0  0  0  0  0  0  0  0  0  0
  186.1060  173.2510  136.2820 O   0  0  0  0  0  0  0  0  0  0  0  0
  187.8800  171.6500  136.0050 C   0  0  2  0  0  3  0  0  0  0  0  0
  187.2490  175.2110  137.3220 C   0  0  2  0  0  3  0  0  0  0  0  0
  187.2980  173.8920  136.6520 C   0  0  2  0  0  0  0  0  0  0  0  0
  187.4740  175.0870  135.9350 O   0  0  0  0  0  0  0  0  0  0  0  0
  185.5660  171.1440  135.4910 O   0  0  0  0  0  0  0  0  0  0  0  0
  188.5030  172.9610  136.5050 C   0  0  2  0  0  3  0  0  0  0  0  0
  187.4840  177.8100  137.9600 C   0  0  0  0  0  2  0  0  0  0  0  0
  188.0400  179.9120  136.9700 O   0  0  0  0  0  1  0  0  0  0  0  0
  187.1470  178.3590  135.5420 O   0  0  0  0  0  0  0  0  0  0  0  0
  187.5730  178.7560  136.8030 C   0  0  0  0  0  0  0  0  0  0  0  0
  189.8710  177.5650  137.3180 C   0  0  0  0  0  2  0  0  0  0  0  0
  190.4290  176.3730  135.3490 O   0  0  0  0  0  0  0  0  0  0  0  0
  190.6070  176.5030  136.5490 C   0  0  0  0  0  0  0  0  0  0  0  0
  191.6050  175.6470  137.2590 C   0  0  0  0  0  2  0  0  0  0  0  0
  192.8620  176.4370  137.5900 C   0  0  0  0  0  2  0  0  0  0  0  0
  194.2430  175.9120  136.5310 P   0  0  0  0  0  0  0  0  0  0  0  0
  194.9740  177.2740  135.8450 O   0  0  0  0  0  1  0  0  0  0  0  0
  193.6580  174.9130  135.2970 O   0  0  0  0  0  0  0  0  0  0  0  0
  195.2660  175.1530  137.3430 O   0  0  0  0  0  1  0  0  0  0  0  0
  1 26  1  6  0  0  0
  1  3  1  0  0  0  0
  2  6  2  0  0  0  0
  3  7  2  0  0  0  0
  3  4  1  0  0  0  0
  4  2  1  0  0  0  0
  5 11  1  0  0  0  0
  6  5  1  0  0  0  0
  6  9  1  0  0  0  0
  7  8  1  0  0  0  0
  8  5  2  0  0  0  0
 11 10  3  0  0  0  0
 12  1  1  0  0  0  0
 14 16  1  0  0  0  0
 14 15  1  0  0  0  0
 15 18  1  0  0  0  0
 16 13  1  6  0  0  0
 16 21  1  0  0  0  0
 17 12  1  1  0  0  0
 18 19  1  6  0  0  0
 18 17  1  0  0  0  0
 19 17  1  0  0  0  0
 20 14  2  0  0  0  0
 21 13  1  6  0  0  0
 21 18  1  0  0  0  0
 22  1  1  0  0  0  0
 24 25  2  0  0  0  0
 25 23  1  0  0  0  0
 25 22  1  0  0  0  0
 27 28  2  0  0  0  0
 28 29  1  0  0  0  0
 28 26  1  0  0  0  0
 29 30  1  0  0  0  0
 31 34  1  0  0  0  0
 31 30  1  0  0  0  0
 32 31  1  0  0  0  0
 33 31  2  0  0  0  0
M  END
>  <MODEL>
8

>  <REMARK>
 VINA RESULT:      -6.2      4.734      7.081
  Name = 
  11 active torsions:
  status: ('A' for Active; 'I' for Inactive)
    1  A    between atoms: P_2  and  C_23
    2  A    between atoms: C_4  and  C_23
    3  A    between atoms: C_4  and  C_29
    4  A    between atoms: C_9  and  C_15
    5  A    between atoms: C_11  and  C_12
    6  A    between atoms: C_11  and  C_15
    7  A    between atoms: C_13  and  C_15
    8  A    between atoms: C_13  and  C_21
    9  A    between atoms: C_14  and  C_15
   10  A    between atoms: C_14  and  C_29
   11  A    between atoms: C_18  and  C_33
                            x       y       z     vdW  Elec       q    Type
                         _______ _______ _______ _____ _____    ______ ____

>  <TORSDO>
F 11

$$$$
=
 OpenBabel10222421303D

 34 37  0  0  1  0  0  0  0  0999 V2000
  189.5760  176.4790  138.0950 C   0  0  1  0  0  0  0  0  0  0  0  0
  193.1810  176.3230  137.6230 C   0  0  0  0  0  3  0  0  0  0  0  0
  190.7960  175.7630  137.5270 C   0  0  0  0  0  0  0  0  0  0  0  0
  191.9090  176.5350  136.8820 C   0  0  0  0  0  2  0  0  0  0  0  0
  193.1990  173.8970  137.1150 C   0  0  0  0  0  0  0  0  0  0  0  0
  193.7690  175.1310  137.7170 C   0  0  0  0  0  0  0  0  0  0  0  0
  190.8260  174.4600  137.5390 N   0  0  0  0  0  0  0  0  0  0  0  0
  191.8910  173.6070  137.0830 C   0  0  0  0  0  3  0  0  0  0  0  0
  195.0300  175.0590  138.3740 N   0  0  0  0  0  1  0  0  0  0  0  0
  194.8680  172.0300  136.2590 C   0  0  0  0  0  3  0  0  0  0  0  0
  194.1060  172.8810  136.6490 C   0  0  0  0  0  0  0  0  0  0  0  0
  189.4790  176.2300  139.6140 C   0  0  0  0  0  2  0  0  0  0  0  0
  188.6960  177.7390  143.4920 C   0  0  0  0  0  2  0  0  0  0  0  0
  190.9110  176.7980  144.0240 C   0  0  0  0  0  0  0  0  0  0  0  0
  191.4390  176.9680  142.7610 O   0  0  0  0  0  0  0  0  0  0  0  0
  189.4440  176.5380  144.0340 C   0  0  2  0  0  3  0  0  0  0  0  0
  190.6700  176.7870  140.3940 C   0  0  2  0  0  3  0  0  0  0  0  0
  190.3830  176.8650  141.8440 C   0  0  2  0  0  0  0  0  0  0  0  0
  190.3160  178.0000  141.0200 O   0  0  0  0  0  0  0  0  0  0  0  0
  191.6150  176.8500  145.0660 O   0  0  0  0  0  0  0  0  0  0  0  0
  189.0530  176.5990  142.5510 C   0  0  2  0  0  3  0  0  0  0  0  0
  189.6950  177.9900  137.8150 C   0  0  0  0  0  2  0  0  0  0  0  0
  187.8790  178.7870  139.1480 O   0  0  0  0  0  1  0  0  0  0  0  0
  187.8910  179.5070  136.9740 O   0  0  0  0  0  0  0  0  0  0  0  0
  188.4380  178.7790  138.0220 C   0  0  0  0  0  0  0  0  0  0  0  0
  188.2860  175.9880  137.3970 C   0  0  0  0  0  2  0  0  0  0  0  0
  188.7900  176.7670  135.2170 O   0  0  0  0  0  0  0  0  0  0  0  0
  188.3940  175.8400  135.9040 C   0  0  0  0  0  0  0  0  0  0  0  0
  188.0690  174.5230  135.2760 C   0  0  0  0  0  2  0  0  0  0  0  0
  186.6170  174.1440  135.5240 C   0  0  0  0  0  2  0  0  0  0  0  0
  186.5140  172.6810  136.5990 P   0  0  0  0  0  0  0  0  0  0  0  0
  185.3910  172.9670  137.8300 O   0  0  0  0  0  1  0  0  0  0  0  0
  188.0310  172.3790  137.2870 O   0  0  0  0  0  1  0  0  0  0  0  0
  186.0810  171.4740  135.8000 O   0  0  0  0  0  0  0  0  0  0  0  0
  1 26  1  6  0  0  0
  1 12  1  0  0  0  0
  2  6  2  0  0  0  0
  3  7  2  0  0  0  0
  3  1  1  0  0  0  0
  4  3  1  0  0  0  0
  4  2  1  0  0  0  0
  5  6  1  0  0  0  0
  6  9  1  0  0  0  0
  8  5  2  0  0  0  0
  8  7  1  0  0  0  0
 10 11  3  0  0  0  0
 11  5  1  0  0  0  0
 14 16  1  0  0  0  0
 14 20  2  0  0  0  0
 15 14  1  0  0  0  0
 16 13  1  1  0  0  0
 17 12  1  6  0  0  0
 17 19  1  0  0  0  0
 17 18  1  0  0  0  0
 18 19  1  6  0  0  0
 18 21  1  0  0  0  0
 18 15  1  0  0  0  0
 21 13  1  1  0  0  0
 21 16  1  0  0  0  0
 22 25  1  0  0  0  0
 22  1  1  0  0  0  0
 24 25  2  0  0  0  0
 25 23  1  0  0  0  0
 27 28  2  0  0  0  0
 28 26  1  0  0  0  0
 29 30  1  0  0  0  0
 29 28  1  0  0  0  0
 30 31  1  0  0  0  0
 31 33  1  0  0  0  0
 31 32  1  0  0  0  0
 34 31  2  0  0  0  0
M  END
>  <MODEL>
9

>  <REMARK>
 VINA RESULT:      -6.2      5.078      8.432
  Name = 
  11 active torsions:
  status: ('A' for Active; 'I' for Inactive)
    1  A    between atoms: P_2  and  C_23
    2  A    between atoms: C_4  and  C_23
    3  A    between atoms: C_4  and  C_29
    4  A    between atoms: C_9  and  C_15
    5  A    between atoms: C_11  and  C_12
    6  A    between atoms: C_11  and  C_15
    7  A    between atoms: C_13  and  C_15
    8  A    between atoms: C_13  and  C_21
    9  A    between atoms: C_14  and  C_15
   10  A    between atoms: C_14  and  C_29
   11  A    between atoms: C_18  and  C_33
                            x       y       z     vdW  Elec       q    Type
                         _______ _______ _______ _____ _____    ______ ____

>  <TORSDO>
F 11

$$$$
