=
 OpenBabel10232411063D

 39 44  0  0  1  0  0  0  0  0999 V2000
  186.9750  177.9450  137.6890 N   0  0  0  0  0  2  0  0  0  0  0  0
  188.4010  178.3500  140.2880 N   0  0  0  0  0  0  0  0  0  0  0  0
  188.2380  178.5210  137.2430 C   0  0  1  0  0  3  0  0  0  0  0  0
  184.9060  178.1820  138.9160 C   0  0  0  0  0  3  0  0  0  0  0  0
  186.9690  178.4070  140.1640 C   0  0  0  0  0  0  0  0  0  0  0  0
  189.2190  179.0380  139.3780 N   0  0  0  0  0  2  0  0  0  0  0  0
  184.1810  178.3660  140.0910 C   0  0  0  0  0  3  0  0  0  0  0  0
  186.2230  178.5700  141.2950 N   0  0  0  0  0  0  0  0  0  0  0  0
  184.8630  178.5660  141.2900 C   0  0  0  0  0  0  0  0  0  0  0  0
  189.3620  178.2020  138.2030 C   0  0  0  0  0  2  0  0  0  0  0  0
  186.3030  178.2150  138.9260 C   0  0  0  0  0  0  0  0  0  0  0  0
  189.7760  176.5540  141.2140 C   0  0  0  0  0  2  0  0  0  0  0  0
  189.8340  178.8400  142.2620 C   0  0  0  0  0  2  0  0  0  0  0  0
  191.0860  176.4150  143.3500 C   0  0  0  0  0  2  0  0  0  0  0  0
  189.8880  178.5410  143.7280 C   0  0  0  0  0  3  0  0  0  0  0  0
  188.9710  177.8120  141.5280 C   0  0  1  0  0  3  0  0  0  0  0  0
  190.4380  177.4380  144.2420 C   0  0  0  0  0  0  0  0  0  0  0  0
  190.0550  175.7280  142.4630 C   0  0  0  0  0  2  0  0  0  0  0  0
  190.4140  177.2820  145.6680 N   0  0  0  0  0  2  0  0  0  0  0  0
  189.5700  177.8420  147.9370 C   0  0  0  0  0  3  0  0  0  0  0  0
  189.3460  177.5810  146.5790 C   0  0  0  0  0  0  0  0  0  0  0  0
  188.4870  178.1080  148.7770 C   0  0  0  0  0  3  0  0  0  0  0  0
  186.9770  177.8530  146.9650 C   0  0  0  0  0  3  0  0  0  0  0  0
  188.0350  177.5830  146.0950 C   0  0  0  0  0  3  0  0  0  0  0  0
  187.2210  178.1080  148.2790 N   0  0  0  0  0  0  0  0  0  0  0  0
  182.3230  178.9830  143.9990 C   0  0  0  0  0  3  0  0  0  0  0  0
  183.3590  179.1000  144.9240 C   0  0  0  0  0  3  0  0  0  0  0  0
  184.8020  178.9590  144.0730 S   0  0  0  0  0  0  0  0  0  0  0  0
  182.7450  178.7900  142.6760 C   0  0  0  0  0  3  0  0  0  0  0  0
  184.1260  178.7530  142.5500 C   0  0  0  0  0  0  0  0  0  0  0  0
  188.5690  178.0360  135.8360 C   0  0  0  0  0  2  0  0  0  0  0  0
  188.0630  176.6130  135.5820 C   0  0  0  0  0  2  0  0  0  0  0  0
  191.7710  175.1610  136.9230 C   0  0  0  0  0  2  0  0  0  0  0  0
  188.8920  174.5900  134.3770 C   0  0  0  0  0  1  0  0  0  0  0  0
  189.3020  174.8230  136.8040 C   0  0  0  0  0  3  0  0  0  0  0  0
  190.4810  176.3280  135.1530 C   0  0  0  0  0  2  0  0  0  0  0  0
  189.1870  175.5790  135.4950 C   0  0  2  0  0  0  0  0  0  0  0  0
  191.7090  175.4660  135.4320 C   0  0  0  0  0  2  0  0  0  0  0  0
  190.4690  174.5970  137.4270 C   0  0  0  0  0  3  0  0  0  0  0  0
  1 11  1  0  0  0  0
  3 31  1  6  0  0  0
  3  1  1  0  0  0  0
  3 10  1  0  0  0  0
  4 11  2  0  0  0  0
  4  7  1  0  0  0  0
  5  2  1  0  0  0  0
  5  8  2  0  0  0  0
  6  2  1  0  0  0  0
  7  9  2  0  0  0  0
  9  8  1  0  0  0  0
  9 30  1  0  0  0  0
 10  6  1  0  0  0  0
 11  5  1  0  0  0  0
 12 16  1  0  0  0  0
 12 18  1  0  0  0  0
 13 15  1  0  0  0  0
 14 17  1  0  0  0  0
 15 17  2  0  0  0  0
 16  2  1  6  0  0  0
 16 13  1  0  0  0  0
 17 19  1  0  0  0  0
 18 14  1  0  0  0  0
 19 21  1  0  0  0  0
 20 22  1  0  0  0  0
 21 20  2  0  0  0  0
 23 25  1  0  0  0  0
 24 21  1  0  0  0  0
 24 23  2  0  0  0  0
 25 22  2  0  0  0  0
 26 27  2  0  0  0  0
 28 27  1  0  0  0  0
 29 26  1  0  0  0  0
 30 29  2  0  0  0  0
 30 28  1  0  0  0  0
 32 31  1  0  0  0  0
 33 39  1  0  0  0  0
 35 39  2  0  0  0  0
 36 38  1  0  0  0  0
 36 37  1  0  0  0  0
 37 34  1  6  0  0  0
 37 32  1  0  0  0  0
 37 35  1  0  0  0  0
 38 33  1  0  0  0  0
M  END
>  <MODEL>
1

>  <REMARK>
 VINA RESULT:      -8.5      0.000      0.000
  Name = 
  7 active torsions:
  status: ('A' for Active; 'I' for Inactive)
    1  A    between atoms: C_3  and  N_13
    2  A    between atoms: N_5  and  C_31
    3  A    between atoms: N_13  and  C_33
    4  A    between atoms: C_15  and  C_18
    5  A    between atoms: C_18  and  C_34
    6  A    between atoms: C_27  and  C_34
    7  A    between atoms: C_30  and  C_32
                            x       y       z     vdW  Elec       q    Type
                         _______ _______ _______ _____ _____    ______ ____

>  <TORSDO>
F 7

$$$$
=
 OpenBabel10232411063D

 39 44  0  0  1  0  0  0  0  0999 V2000
  191.3690  176.4220  137.9030 N   0  0  0  0  0  2  0  0  0  0  0  0
  191.1280  177.3770  140.7280 N   0  0  0  0  0  0  0  0  0  0  0  0
  192.7350  176.8490  138.1850 C   0  0  1  0  0  3  0  0  0  0  0  0
  189.0350  176.9850  137.6320 C   0  0  0  0  0  3  0  0  0  0  0  0
  190.0430  177.4390  139.7850 C   0  0  0  0  0  0  0  0  0  0  0  0
  192.4100  177.8170  140.3630 N   0  0  0  0  0  2  0  0  0  0  0  0
  187.8130  177.4510  138.1100 C   0  0  0  0  0  3  0  0  0  0  0  0
  188.8260  177.8760  140.2210 N   0  0  0  0  0  0  0  0  0  0  0  0
  187.7230  177.9050  139.4250 C   0  0  0  0  0  0  0  0  0  0  0  0
  193.0590  176.7310  139.6570 C   0  0  0  0  0  2  0  0  0  0  0  0
  190.1690  176.9850  138.4470 C   0  0  0  0  0  0  0  0  0  0  0  0
  191.9260  176.2950  142.7690 C   0  0  0  0  0  2  0  0  0  0  0  0
  190.5860  178.4200  142.9210 C   0  0  0  0  0  2  0  0  0  0  0  0
  191.3710  176.7130  145.1810 C   0  0  0  0  0  2  0  0  0  0  0  0
  189.7000  178.1790  144.1040 C   0  0  0  0  0  3  0  0  0  0  0  0
  190.8110  177.1240  142.1370 C   0  0  1  0  0  3  0  0  0  0  0  0
  190.0320  177.3950  145.1330 C   0  0  0  0  0  0  0  0  0  0  0  0
  191.4910  175.6620  144.0840 C   0  0  0  0  0  2  0  0  0  0  0  0
  189.0810  177.2540  146.1990 N   0  0  0  0  0  2  0  0  0  0  0  0
  187.2050  178.2960  147.4510 C   0  0  0  0  0  3  0  0  0  0  0  0
  187.7420  177.7660  146.2700 C   0  0  0  0  0  0  0  0  0  0  0  0
  185.8880  178.7610  147.4620 C   0  0  0  0  0  3  0  0  0  0  0  0
  185.6290  178.1830  145.1770 C   0  0  0  0  0  3  0  0  0  0  0  0
  186.9410  177.7080  145.1270 C   0  0  0  0  0  3  0  0  0  0  0  0
  185.1320  178.6960  146.3340 N   0  0  0  0  0  0  0  0  0  0  0  0
  184.8960  179.1840  141.5080 C   0  0  0  0  0  3  0  0  0  0  0  0
  184.0810  179.1620  140.3780 C   0  0  0  0  0  3  0  0  0  0  0  0
  185.0210  178.6060  139.0990 S   0  0  0  0  0  0  0  0  0  0  0  0
  186.2120  178.7570  141.2820 C   0  0  0  0  0  3  0  0  0  0  0  0
  186.4440  178.3940  139.9640 C   0  0  0  0  0  0  0  0  0  0  0  0
  193.7210  176.0450  137.3440 C   0  0  0  0  0  2  0  0  0  0  0  0
  193.6280  174.5430  137.6250 C   0  0  0  0  0  2  0  0  0  0  0  0
  197.8100  174.7330  137.9900 C   0  0  0  0  0  2  0  0  0  0  0  0
  194.8060  172.3660  137.3020 C   0  0  0  0  0  1  0  0  0  0  0  0
  195.6470  173.9770  138.9790 C   0  0  0  0  0  3  0  0  0  0  0  0
  195.8340  174.4790  136.5100 C   0  0  0  0  0  2  0  0  0  0  0  0
  194.9890  173.8430  137.6210 C   0  0  2  0  0  0  0  0  0  0  0  0
  197.3130  174.1400  136.6790 C   0  0  0  0  0  2  0  0  0  0  0  0
  196.9300  174.3360  139.1460 C   0  0  0  0  0  3  0  0  0  0  0  0
  1  3  1  0  0  0  0
  1 11  1  0  0  0  0
  3 31  1  6  0  0  0
  3 10  1  0  0  0  0
  4  7  2  0  0  0  0
  4 11  1  0  0  0  0
  5  8  1  0  0  0  0
  5  2  1  0  0  0  0
  6  2  1  0  0  0  0
  7  9  1  0  0  0  0
  9 30  1  0  0  0  0
  9  8  2  0  0  0  0
 10  6  1  0  0  0  0
 11  5  2  0  0  0  0
 12 18  1  0  0  0  0
 13 15  1  0  0  0  0
 15 17  2  0  0  0  0
 16  2  1  6  0  0  0
 16 12  1  0  0  0  0
 16 13  1  0  0  0  0
 17 14  1  0  0  0  0
 17 19  1  0  0  0  0
 18 14  1  0  0  0  0
 19 21  1  0  0  0  0
 20 22  1  0  0  0  0
 21 20  2  0  0  0  0
 23 25  1  0  0  0  0
 24 23  2  0  0  0  0
 24 21  1  0  0  0  0
 25 22  2  0  0  0  0
 27 26  2  0  0  0  0
 28 30  1  0  0  0  0
 28 27  1  0  0  0  0
 29 26  1  0  0  0  0
 30 29  2  0  0  0  0
 31 32  1  0  0  0  0
 33 39  1  0  0  0  0
 35 39  2  0  0  0  0
 36 38  1  0  0  0  0
 36 37  1  0  0  0  0
 37 34  1  6  0  0  0
 37 32  1  0  0  0  0
 37 35  1  0  0  0  0
 38 33  1  0  0  0  0
M  END
>  <MODEL>
2

>  <REMARK>
 VINA RESULT:      -8.3      2.768      4.151
  Name = 
  7 active torsions:
  status: ('A' for Active; 'I' for Inactive)
    1  A    between atoms: C_3  and  N_13
    2  A    between atoms: N_5  and  C_31
    3  A    between atoms: N_13  and  C_33
    4  A    between atoms: C_15  and  C_18
    5  A    between atoms: C_18  and  C_34
    6  A    between atoms: C_27  and  C_34
    7  A    between atoms: C_30  and  C_32
                            x       y       z     vdW  Elec       q    Type
                         _______ _______ _______ _____ _____    ______ ____

>  <TORSDO>
F 7

$$$$
=
 OpenBabel10232411063D

 39 44  0  0  1  0  0  0  0  0999 V2000
  187.1340  177.7800  144.2170 N   0  0  0  0  0  2  0  0  0  0  0  0
  184.9530  178.7580  142.4160 N   0  0  0  0  0  0  0  0  0  0  0  0
  186.3620  178.6210  145.1230 C   0  0  1  0  0  3  0  0  0  0  0  0
  188.5180  177.5810  142.2450 C   0  0  0  0  0  3  0  0  0  0  0  0
  186.2730  178.4340  141.9430 C   0  0  0  0  0  0  0  0  0  0  0  0
  184.7860  179.5520  143.5620 N   0  0  0  0  0  2  0  0  0  0  0  0
  188.7330  177.6720  140.8720 C   0  0  0  0  0  3  0  0  0  0  0  0
  186.5170  178.4960  140.6020 N   0  0  0  0  0  0  0  0  0  0  0  0
  187.7090  178.1430  140.0510 C   0  0  0  0  0  0  0  0  0  0  0  0
  184.9070  178.6840  144.7150 C   0  0  0  0  0  2  0  0  0  0  0  0
  187.3000  177.9720  142.8060 C   0  0  0  0  0  0  0  0  0  0  0  0
  182.5170  178.8560  142.2520 C   0  0  0  0  0  2  0  0  0  0  0  0
  183.9250  179.2400  140.2030 C   0  0  0  0  0  2  0  0  0  0  0  0
  181.0020  178.9450  140.2530 C   0  0  0  0  0  2  0  0  0  0  0  0
  183.1620  178.5320  139.1270 C   0  0  0  0  0  3  0  0  0  0  0  0
  183.8130  178.4920  141.5330 C   0  0  1  0  0  3  0  0  0  0  0  0
  181.8360  178.3730  139.1390 C   0  0  0  0  0  0  0  0  0  0  0  0
  181.2970  178.2450  141.5730 C   0  0  0  0  0  2  0  0  0  0  0  0
  181.2380  177.6680  138.0410 N   0  0  0  0  0  2  0  0  0  0  0  0
  181.5240  175.5170  136.8320 C   0  0  0  0  0  3  0  0  0  0  0  0
  181.0130  176.2580  137.9050 C   0  0  0  0  0  0  0  0  0  0  0  0
  181.2550  174.1500  136.7450 C   0  0  0  0  0  3  0  0  0  0  0  0
  179.9840  174.2400  138.7460 C   0  0  0  0  0  3  0  0  0  0  0  0
  180.2330  175.6090  138.8660 C   0  0  0  0  0  3  0  0  0  0  0  0
  180.4960  173.5420  137.6960 N   0  0  0  0  0  0  0  0  0  0  0  0
  188.9810  178.5600  136.5620 C   0  0  0  0  0  3  0  0  0  0  0  0
  187.6990  178.2950  136.0850 C   0  0  0  0  0  3  0  0  0  0  0  0
  186.7170  178.0250  137.4240 S   0  0  0  0  0  0  0  0  0  0  0  0
  189.0980  178.5310  137.9590 C   0  0  0  0  0  3  0  0  0  0  0  0
  187.9010  178.2410  138.5950 C   0  0  0  0  0  0  0  0  0  0  0  0
  186.5040  178.1180  146.5560 C   0  0  0  0  0  2  0  0  0  0  0  0
  187.4920  176.9530  146.6630 C   0  0  0  0  0  2  0  0  0  0  0  0
  191.6360  176.7030  146.0200 C   0  0  0  0  0  2  0  0  0  0  0  0
  188.8730  178.3820  148.1740 C   0  0  0  0  0  1  0  0  0  0  0  0
  189.5590  178.0700  145.8190 C   0  0  0  0  0  3  0  0  0  0  0  0
  189.6920  176.1530  147.4600 C   0  0  0  0  0  2  0  0  0  0  0  0
  188.9130  177.3980  147.0140 C   0  0  2  0  0  0  0  0  0  0  0  0
  191.1960  176.4100  147.4480 C   0  0  0  0  0  2  0  0  0  0  0  0
  190.8010  177.7890  145.3960 C   0  0  0  0  0  3  0  0  0  0  0  0
  1  3  1  0  0  0  0
  2  6  1  0  0  0  0
  3 31  1  1  0  0  0
  4 11  1  0  0  0  0
  5  2  1  0  0  0  0
  5 11  2  0  0  0  0
  6 10  1  0  0  0  0
  7  4  2  0  0  0  0
  8  5  1  0  0  0  0
  9  8  2  0  0  0  0
  9  7  1  0  0  0  0
 10  3  1  0  0  0  0
 11  1  1  0  0  0  0
 14 18  1  0  0  0  0
 15 17  2  0  0  0  0
 15 13  1  0  0  0  0
 16 13  1  6  0  0  0
 16 12  1  0  0  0  0
 16  2  1  0  0  0  0
 17 14  1  0  0  0  0
 18 12  1  0  0  0  0
 19 17  1  0  0  0  0
 20 21  1  0  0  0  0
 21 19  1  0  0  0  0
 21 24  2  0  0  0  0
 22 20  2  0  0  0  0
 22 25  1  0  0  0  0
 23 24  1  0  0  0  0
 25 23  2  0  0  0  0
 26 29  1  0  0  0  0
 27 26  2  0  0  0  0
 27 28  1  0  0  0  0
 28 30  1  0  0  0  0
 29 30  2  0  0  0  0
 30  9  1  0  0  0  0
 31 32  1  0  0  0  0
 32 37  1  0  0  0  0
 33 38  1  0  0  0  0
 35 37  1  0  0  0  0
 37 36  1  0  0  0  0
 37 34  1  1  0  0  0
 38 36  1  0  0  0  0
 39 35  2  0  0  0  0
 39 33  1  0  0  0  0
M  END
>  <MODEL>
3

>  <REMARK>
 VINA RESULT:      -8.0      3.053      9.318
  Name = 
  7 active torsions:
  status: ('A' for Active; 'I' for Inactive)
    1  A    between atoms: C_3  and  N_13
    2  A    between atoms: N_5  and  C_31
    3  A    between atoms: N_13  and  C_33
    4  A    between atoms: C_15  and  C_18
    5  A    between atoms: C_18  and  C_34
    6  A    between atoms: C_27  and  C_34
    7  A    between atoms: C_30  and  C_32
                            x       y       z     vdW  Elec       q    Type
                         _______ _______ _______ _____ _____    ______ ____

>  <TORSDO>
F 7

$$$$
=
 OpenBabel10232411063D

 39 44  0  0  1  0  0  0  0  0999 V2000
  184.2120  178.2080  143.1150 N   0  0  0  0  0  2  0  0  0  0  0  0
  186.7260  178.4210  141.5070 N   0  0  0  0  0  0  0  0  0  0  0  0
  183.8190  179.1620  142.0840 C   0  0  1  0  0  3  0  0  0  0  0  0
  185.6060  177.6630  145.0130 C   0  0  0  0  0  3  0  0  0  0  0  0
  186.7210  178.1400  142.9180 C   0  0  0  0  0  0  0  0  0  0  0  0
  185.9400  179.4630  140.9890 N   0  0  0  0  0  2  0  0  0  0  0  0
  186.8400  177.4160  145.6080 C   0  0  0  0  0  3  0  0  0  0  0  0
  187.9100  177.8780  143.5330 N   0  0  0  0  0  0  0  0  0  0  0  0
  188.0020  177.5330  144.8460 C   0  0  0  0  0  0  0  0  0  0  0  0
  184.5990  178.9470  140.8060 C   0  0  0  0  0  2  0  0  0  0  0  0
  185.5230  178.0430  143.6720 C   0  0  0  0  0  0  0  0  0  0  0  0
  187.4630  178.0600  139.2050 C   0  0  0  0  0  2  0  0  0  0  0  0
  189.1670  178.3030  141.0400 C   0  0  0  0  0  2  0  0  0  0  0  0
  189.7260  177.5150  138.2650 C   0  0  0  0  0  2  0  0  0  0  0  0
  190.2050  177.2870  140.6770 C   0  0  0  0  0  3  0  0  0  0  0  0
  187.7660  177.8030  140.6780 C   0  0  1  0  0  3  0  0  0  0  0  0
  190.4640  176.9040  139.4240 C   0  0  0  0  0  0  0  0  0  0  0  0
  188.2520  177.1320  138.2900 C   0  0  0  0  0  2  0  0  0  0  0  0
  191.4860  175.9160  139.2250 N   0  0  0  0  0  2  0  0  0  0  0  0
  193.1850  176.4940  137.5080 C   0  0  0  0  0  3  0  0  0  0  0  0
  192.2190  175.6230  138.0270 C   0  0  0  0  0  0  0  0  0  0  0  0
  193.8510  176.1620  136.3260 C   0  0  0  0  0  3  0  0  0  0  0  0
  192.6230  174.1390  136.1640 C   0  0  0  0  0  3  0  0  0  0  0  0
  191.9360  174.4380  137.3430 C   0  0  0  0  0  3  0  0  0  0  0  0
  193.5590  175.0000  135.6820 N   0  0  0  0  0  0  0  0  0  0  0  0
  191.6060  176.8660  145.5720 C   0  0  0  0  0  3  0  0  0  0  0  0
  191.3040  176.8270  146.9320 C   0  0  0  0  0  3  0  0  0  0  0  0
  189.6510  177.1020  147.0800 S   0  0  0  0  0  0  0  0  0  0  0  0
  190.5060  177.1120  144.7390 C   0  0  0  0  0  3  0  0  0  0  0  0
  189.3210  177.2680  145.4430 C   0  0  0  0  0  0  0  0  0  0  0  0
  182.3180  179.0720  141.8290 C   0  0  0  0  0  2  0  0  0  0  0  0
  182.0030  178.5200  140.4360 C   0  0  0  0  0  2  0  0  0  0  0  0
  180.6760  179.9990  136.7340 C   0  0  0  0  0  2  0  0  0  0  0  0
  180.1620  180.1990  140.5800 C   0  0  0  0  0  1  0  0  0  0  0  0
  180.1900  178.5690  138.7200 C   0  0  0  0  0  3  0  0  0  0  0  0
  181.9180  180.4090  138.8430 C   0  0  0  0  0  2  0  0  0  0  0  0
  181.0570  179.4140  139.6330 C   0  0  2  0  0  0  0  0  0  0  0  0
  181.1150  181.0680  137.7250 C   0  0  0  0  0  2  0  0  0  0  0  0
  179.9830  178.8550  137.4250 C   0  0  0  0  0  3  0  0  0  0  0  0
  1 11  1  0  0  0  0
  2  5  1  0  0  0  0
  3 31  1  6  0  0  0
  3  1  1  0  0  0  0
  4  7  1  0  0  0  0
  5  8  2  0  0  0  0
  5 11  1  0  0  0  0
  6  2  1  0  0  0  0
  8  9  1  0  0  0  0
  9 30  1  0  0  0  0
  9  7  2  0  0  0  0
 10  6  1  0  0  0  0
 10  3  1  0  0  0  0
 11  4  2  0  0  0  0
 14 18  1  0  0  0  0
 14 17  1  0  0  0  0
 15 13  1  0  0  0  0
 16 12  1  6  0  0  0
 16 13  1  0  0  0  0
 16  2  1  0  0  0  0
 17 15  2  0  0  0  0
 18 12  1  0  0  0  0
 19 17  1  0  0  0  0
 20 21  1  0  0  0  0
 21 19  1  0  0  0  0
 22 20  2  0  0  0  0
 23 24  1  0  0  0  0
 24 21  2  0  0  0  0
 25 23  2  0  0  0  0
 25 22  1  0  0  0  0
 26 27  2  0  0  0  0
 27 28  1  0  0  0  0
 29 30  2  0  0  0  0
 29 26  1  0  0  0  0
 30 28  1  0  0  0  0
 32 31  1  0  0  0  0
 33 39  1  0  0  0  0
 33 38  1  0  0  0  0
 35 37  1  0  0  0  0
 36 37  1  0  0  0  0
 37 32  1  0  0  0  0
 37 34  1  1  0  0  0
 38 36  1  0  0  0  0
 39 35  2  0  0  0  0
M  END
>  <MODEL>
4

>  <REMARK>
 VINA RESULT:      -7.8      2.791      8.167
  Name = 
  7 active torsions:
  status: ('A' for Active; 'I' for Inactive)
    1  A    between atoms: C_3  and  N_13
    2  A    between atoms: N_5  and  C_31
    3  A    between atoms: N_13  and  C_33
    4  A    between atoms: C_15  and  C_18
    5  A    between atoms: C_18  and  C_34
    6  A    between atoms: C_27  and  C_34
    7  A    between atoms: C_30  and  C_32
                            x       y       z     vdW  Elec       q    Type
                         _______ _______ _______ _____ _____    ______ ____

>  <TORSDO>
F 7

$$$$
=
 OpenBabel10232411063D

 39 44  0  0  1  0  0  0  0  0999 V2000
  184.1810  178.1980  143.2080 N   0  0  0  0  0  2  0  0  0  0  0  0
  186.6790  178.4750  141.5850 N   0  0  0  0  0  0  0  0  0  0  0  0
  183.7670  179.1640  142.1980 C   0  0  1  0  0  3  0  0  0  0  0  0
  185.5980  177.6380  145.0850 C   0  0  0  0  0  3  0  0  0  0  0  0
  186.6890  178.1690  142.9900 C   0  0  0  0  0  0  0  0  0  0  0  0
  185.8740  179.5150  141.0920 N   0  0  0  0  0  2  0  0  0  0  0  0
  186.8400  177.3980  145.6660 C   0  0  0  0  0  3  0  0  0  0  0  0
  187.8860  177.9120  143.5920 N   0  0  0  0  0  0  0  0  0  0  0  0
  187.9930  177.5450  144.8970 C   0  0  0  0  0  0  0  0  0  0  0  0
  184.5390  178.9840  140.9100 C   0  0  0  0  0  2  0  0  0  0  0  0
  185.4980  178.0420  143.7510 C   0  0  0  0  0  0  0  0  0  0  0  0
  187.4660  178.2650  139.2800 C   0  0  0  0  0  2  0  0  0  0  0  0
  189.1270  178.3100  141.1710 C   0  0  0  0  0  2  0  0  0  0  0  0
  189.7350  177.7170  138.3580 C   0  0  0  0  0  2  0  0  0  0  0  0
  190.1410  177.2900  140.7570 C   0  0  0  0  0  2  0  0  0  0  0  0
  187.7210  177.8870  140.7370 C   0  0  1  0  0  3  0  0  0  0  0  0
  190.4210  176.9940  139.4850 C   0  0  0  0  0  0  0  0  0  0  0  0
  188.2500  177.3830  138.3170 C   0  0  0  0  0  2  0  0  0  0  0  0
  191.4170  175.9910  139.2360 N   0  0  0  0  0  0  0  0  0  0  0  0
  191.4800  174.4990  137.2510 C   0  0  0  0  0  3  0  0  0  0  0  0
  191.9790  175.5870  137.9790 C   0  0  0  0  0  0  0  0  0  0  0  0
  192.0820  174.1420  136.0420 C   0  0  0  0  0  3  0  0  0  0  0  0
  193.6550  175.9040  136.2690 C   0  0  0  0  0  3  0  0  0  0  0  0
  193.0790  176.2890  137.4810 C   0  0  0  0  0  3  0  0  0  0  0  0
  193.1500  174.8460  135.5790 N   0  0  0  0  0  0  0  0  0  0  0  0
  191.6150  176.9320  145.5850 C   0  0  0  0  0  3  0  0  0  0  0  0
  191.3190  176.8380  146.9440 C   0  0  0  0  0  3  0  0  0  0  0  0
  189.6620  177.0710  147.1090 S   0  0  0  0  0  0  0  0  0  0  0  0
  190.5050  177.1820  144.7660 C   0  0  0  0  0  3  0  0  0  0  0  0
  189.3200  177.2880  145.4790 C   0  0  0  0  0  0  0  0  0  0  0  0
  182.2650  179.0580  141.9520 C   0  0  0  0  0  2  0  0  0  0  0  0
  181.9260  179.0350  140.4590 C   0  0  0  0  0  2  0  0  0  0  0  0
  181.2120  175.9380  137.7110 C   0  0  0  0  0  2  0  0  0  0  0  0
  180.0290  177.5250  141.0550 C   0  0  0  0  0  1  0  0  0  0  0  0
  182.0450  176.5900  139.9710 C   0  0  0  0  0  3  0  0  0  0  0  0
  180.4790  178.1000  138.6860 C   0  0  0  0  0  2  0  0  0  0  0  0
  181.1310  177.7970  140.0410 C   0  0  2  0  0  0  0  0  0  0  0  0
  180.0050  176.8200  138.0030 C   0  0  0  0  0  2  0  0  0  0  0  0
  182.0530  175.7280  138.9420 C   0  0  0  0  0  3  0  0  0  0  0  0
  1 11  1  0  0  0  0
  2  5  1  0  0  0  0
  3 31  1  6  0  0  0
  3  1  1  0  0  0  0
  4  7  1  0  0  0  0
  5  8  2  0  0  0  0
  5 11  1  0  0  0  0
  6  2  1  0  0  0  0
  8  9  1  0  0  0  0
  9 30  1  0  0  0  0
  9  7  2  0  0  0  0
 10  6  1  0  0  0  0
 10  3  1  0  0  0  0
 11  4  2  0  0  0  0
 14 17  1  0  0  0  0
 15 13  1  0  0  0  0
 16 12  1  6  0  0  0
 16 13  1  0  0  0  0
 16  2  1  0  0  0  0
 17 15  1  0  0  0  0
 18 14  1  0  0  0  0
 18 12  1  0  0  0  0
 19 17  2  0  0  0  0
 20 21  1  0  0  0  0
 21 19  1  0  0  0  0
 22 20  2  0  0  0  0
 23 24  1  0  0  0  0
 24 21  2  0  0  0  0
 25 22  1  0  0  0  0
 25 23  2  0  0  0  0
 26 27  2  0  0  0  0
 27 28  1  0  0  0  0
 29 30  2  0  0  0  0
 29 26  1  0  0  0  0
 30 28  1  0  0  0  0
 32 31  1  0  0  0  0
 33 38  1  0  0  0  0
 33 39  1  0  0  0  0
 35 37  1  0  0  0  0
 36 37  1  0  0  0  0
 37 32  1  0  0  0  0
 37 34  1  1  0  0  0
 38 36  1  0  0  0  0
 39 35  2  0  0  0  0
M  END
>  <MODEL>
5

>  <REMARK>
 VINA RESULT:      -7.8      2.653      7.983
  Name = 
  7 active torsions:
  status: ('A' for Active; 'I' for Inactive)
    1  A    between atoms: C_3  and  N_13
    2  A    between atoms: N_5  and  C_31
    3  A    between atoms: N_13  and  C_33
    4  A    between atoms: C_15  and  C_18
    5  A    between atoms: C_18  and  C_34
    6  A    between atoms: C_27  and  C_34
    7  A    between atoms: C_30  and  C_32
                            x       y       z     vdW  Elec       q    Type
                         _______ _______ _______ _____ _____    ______ ____

>  <TORSDO>
F 7

$$$$
=
 OpenBabel10232411063D

 39 44  0  0  1  0  0  0  0  0999 V2000
  191.4460  175.5080  136.6580 N   0  0  0  0  0  2  0  0  0  0  0  0
  190.7260  176.9270  139.1920 N   0  0  0  0  0  0  0  0  0  0  0  0
  192.7250  176.0980  137.0350 C   0  0  1  0  0  3  0  0  0  0  0  0
  189.1470  175.8030  135.9720 C   0  0  0  0  0  3  0  0  0  0  0  0
  189.7930  176.7230  138.1160 C   0  0  0  0  0  0  0  0  0  0  0  0
  192.0190  177.4070  138.9270 N   0  0  0  0  0  2  0  0  0  0  0  0
  187.8410  176.2370  136.1840 C   0  0  0  0  0  3  0  0  0  0  0  0
  188.5000  177.1210  138.2930 N   0  0  0  0  0  0  0  0  0  0  0  0
  187.5280  176.9090  137.3650 C   0  0  0  0  0  0  0  0  0  0  0  0
  192.8320  176.2740  138.5340 C   0  0  0  0  0  2  0  0  0  0  0  0
  190.1450  176.0500  136.9180 C   0  0  0  0  0  0  0  0  0  0  0  0
  191.3370  177.2970  141.5290 C   0  0  0  0  0  2  0  0  0  0  0  0
  188.9990  177.8090  140.7510 C   0  0  0  0  0  2  0  0  0  0  0  0
  189.9240  177.8120  143.5390 C   0  0  0  0  0  2  0  0  0  0  0  0
  188.1500  177.3360  141.8890 C   0  0  0  0  0  3  0  0  0  0  0  0
  190.2190  176.9020  140.5670 C   0  0  1  0  0  3  0  0  0  0  0  0
  188.5570  177.3140  143.1600 C   0  0  0  0  0  0  0  0  0  0  0  0
  191.0130  176.9130  142.9680 C   0  0  0  0  0  2  0  0  0  0  0  0
  187.6350  176.8300  144.1490 N   0  0  0  0  0  2  0  0  0  0  0  0
  185.6080  178.2070  144.5600 C   0  0  0  0  0  3  0  0  0  0  0  0
  186.7810  177.5900  145.0160 C   0  0  0  0  0  0  0  0  0  0  0  0
  184.8280  178.9500  145.4500 C   0  0  0  0  0  3  0  0  0  0  0  0
  186.3440  178.4890  147.2150 C   0  0  0  0  0  3  0  0  0  0  0  0
  187.1490  177.7390  146.3550 C   0  0  0  0  0  3  0  0  0  0  0  0
  185.2080  179.0750  146.7490 N   0  0  0  0  0  0  0  0  0  0  0  0
  184.4080  178.5580  138.5920 C   0  0  0  0  0  3  0  0  0  0  0  0
  183.6750  177.8080  137.6750 C   0  0  0  0  0  3  0  0  0  0  0  0
  184.7690  176.8450  136.8350 S   0  0  0  0  0  0  0  0  0  0  0  0
  185.7890  178.3180  138.5670 C   0  0  0  0  0  3  0  0  0  0  0  0
  186.1550  177.3700  137.6230 C   0  0  0  0  0  0  0  0  0  0  0  0
  193.8740  175.2480  136.5030 C   0  0  0  0  0  2  0  0  0  0  0  0
  193.8400  173.8210  137.0570 C   0  0  0  0  0  2  0  0  0  0  0  0
  197.8270  174.5940  138.1330 C   0  0  0  0  0  2  0  0  0  0  0  0
  195.2050  171.7880  137.5440 C   0  0  0  0  0  1  0  0  0  0  0  0
  195.5620  173.8480  138.8640 C   0  0  0  0  0  3  0  0  0  0  0  0
  196.2310  173.7510  136.4300 C   0  0  0  0  0  2  0  0  0  0  0  0
  195.2150  173.3090  137.4910 C   0  0  2  0  0  0  0  0  0  0  0  0
  197.6600  173.6430  136.9550 C   0  0  0  0  0  2  0  0  0  0  0  0
  196.7530  174.3880  139.1670 C   0  0  0  0  0  3  0  0  0  0  0  0
  1 11  1  0  0  0  0
  1  3  1  0  0  0  0
  3 31  1  1  0  0  0
  3 10  1  0  0  0  0
  4  7  2  0  0  0  0
  4 11  1  0  0  0  0
  5  8  1  0  0  0  0
  5  2  1  0  0  0  0
  6  2  1  0  0  0  0
  7  9  1  0  0  0  0
  9 30  1  0  0  0  0
  9  8  2  0  0  0  0
 10  6  1  0  0  0  0
 11  5  2  0  0  0  0
 12 18  1  0  0  0  0
 13 15  1  0  0  0  0
 15 17  2  0  0  0  0
 16  2  1  6  0  0  0
 16 13  1  0  0  0  0
 16 12  1  0  0  0  0
 17 14  1  0  0  0  0
 17 19  1  0  0  0  0
 18 14  1  0  0  0  0
 19 21  1  0  0  0  0
 20 21  2  0  0  0  0
 20 22  1  0  0  0  0
 21 24  1  0  0  0  0
 22 25  2  0  0  0  0
 24 23  2  0  0  0  0
 25 23  1  0  0  0  0
 27 26  2  0  0  0  0
 28 30  1  0  0  0  0
 28 27  1  0  0  0  0
 29 26  1  0  0  0  0
 30 29  2  0  0  0  0
 31 32  1  0  0  0  0
 32 37  1  0  0  0  0
 33 39  1  0  0  0  0
 35 39  2  0  0  0  0
 36 38  1  0  0  0  0
 36 37  1  0  0  0  0
 37 34  1  1  0  0  0
 37 35  1  0  0  0  0
 38 33  1  0  0  0  0
M  END
>  <MODEL>
6

>  <REMARK>
 VINA RESULT:      -7.8      3.045      4.898
  Name = 
  7 active torsions:
  status: ('A' for Active; 'I' for Inactive)
    1  A    between atoms: C_3  and  N_13
    2  A    between atoms: N_5  and  C_31
    3  A    between atoms: N_13  and  C_33
    4  A    between atoms: C_15  and  C_18
    5  A    between atoms: C_18  and  C_34
    6  A    between atoms: C_27  and  C_34
    7  A    between atoms: C_30  and  C_32
                            x       y       z     vdW  Elec       q    Type
                         _______ _______ _______ _____ _____    ______ ____

>  <TORSDO>
F 7

$$$$
=
 OpenBabel10232411063D

 39 44  0  0  1  0  0  0  0  0999 V2000
  193.4380  176.7100  137.6680 N   0  0  0  0  0  2  0  0  0  0  0  0
  190.4860  176.2290  137.5750 N   0  0  0  0  0  0  0  0  0  0  0  0
  193.3370  175.7230  136.6000 C   0  0  1  0  0  3  0  0  0  0  0  0
  193.1580  177.2780  140.0010 C   0  0  0  0  0  3  0  0  0  0  0  0
  191.1820  176.5970  138.7790 C   0  0  0  0  0  0  0  0  0  0  0  0
  190.9900  175.2130  136.7480 N   0  0  0  0  0  2  0  0  0  0  0  0
  192.3800  177.4780  141.1380 C   0  0  0  0  0  3  0  0  0  0  0  0
  190.4520  176.8170  139.9110 N   0  0  0  0  0  0  0  0  0  0  0  0
  191.0080  177.2360  141.0790 C   0  0  0  0  0  0  0  0  0  0  0  0
  192.0010  175.8050  135.8960 C   0  0  0  0  0  2  0  0  0  0  0  0
  192.5820  176.8210  138.8130 C   0  0  0  0  0  0  0  0  0  0  0  0
  189.1520  177.9970  136.5420 C   0  0  0  0  0  2  0  0  0  0  0  0
  188.2090  175.6730  136.7410 C   0  0  0  0  0  2  0  0  0  0  0  0
  186.7310  178.0630  135.8830 C   0  0  0  0  0  2  0  0  0  0  0  0
  186.7770  175.9160  137.1040 C   0  0  0  0  0  3  0  0  0  0  0  0
  189.1190  176.7230  137.3820 C   0  0  1  0  0  3  0  0  0  0  0  0
  186.0920  177.0030  136.7370 C   0  0  0  0  0  0  0  0  0  0  0  0
  187.8460  178.7760  136.6370 C   0  0  0  0  0  2  0  0  0  0  0  0
  184.7240  177.1040  137.1610 N   0  0  0  0  0  2  0  0  0  0  0  0
  183.0960  177.0030  139.0340 C   0  0  0  0  0  3  0  0  0  0  0  0
  184.2140  177.5780  138.4150 C   0  0  0  0  0  0  0  0  0  0  0  0
  182.6350  177.5210  140.2460 C   0  0  0  0  0  3  0  0  0  0  0  0
  184.3500  179.1590  140.2360 C   0  0  0  0  0  3  0  0  0  0  0  0
  184.8400  178.6690  139.0240 C   0  0  0  0  0  3  0  0  0  0  0  0
  183.2660  178.5810  140.8190 N   0  0  0  0  0  0  0  0  0  0  0  0
  189.5650  177.9800  144.4440 C   0  0  0  0  0  3  0  0  0  0  0  0
  188.3030  177.6560  143.9520 C   0  0  0  0  0  3  0  0  0  0  0  0
  188.4950  177.2270  142.3370 S   0  0  0  0  0  0  0  0  0  0  0  0
  190.6010  177.8660  143.5070 C   0  0  0  0  0  3  0  0  0  0  0  0
  190.1580  177.4480  142.2610 C   0  0  0  0  0  0  0  0  0  0  0  0
  194.4850  175.8970  135.6120 C   0  0  0  0  0  2  0  0  0  0  0  0
  195.0420  174.5540  135.1320 C   0  0  0  0  0  2  0  0  0  0  0  0
  196.5880  174.2920  139.0300 C   0  0  0  0  0  2  0  0  0  0  0  0
  196.8650  172.8730  135.4230 C   0  0  0  0  0  1  0  0  0  0  0  0
  195.2210  173.2240  137.2370 C   0  0  0  0  0  3  0  0  0  0  0  0
  196.9170  175.0110  136.6780 C   0  0  0  0  0  2  0  0  0  0  0  0
  196.0020  173.9070  136.1330 C   0  0  2  0  0  0  0  0  0  0  0  0
  197.6280  174.5600  137.9510 C   0  0  0  0  0  2  0  0  0  0  0  0
  195.5100  173.3620  138.5410 C   0  0  0  0  0  3  0  0  0  0  0  0
  1 11  1  0  0  0  0
  2  5  1  0  0  0  0
  3 31  1  6  0  0  0
  3  1  1  0  0  0  0
  4  7  1  0  0  0  0
  5 11  1  0  0  0  0
  5  8  2  0  0  0  0
  6  2  1  0  0  0  0
  8  9  1  0  0  0  0
  9  7  2  0  0  0  0
  9 30  1  0  0  0  0
 10  3  1  0  0  0  0
 10  6  1  0  0  0  0
 11  4  2  0  0  0  0
 12 18  1  0  0  0  0
 13 15  1  0  0  0  0
 13 16  1  0  0  0  0
 14 18  1  0  0  0  0
 14 17  1  0  0  0  0
 16 12  1  6  0  0  0
 16  2  1  0  0  0  0
 17 15  2  0  0  0  0
 17 19  1  0  0  0  0
 19 21  1  0  0  0  0
 20 22  1  0  0  0  0
 21 24  1  0  0  0  0
 21 20  2  0  0  0  0
 22 25  2  0  0  0  0
 23 25  1  0  0  0  0
 24 23  2  0  0  0  0
 27 26  2  0  0  0  0
 28 27  1  0  0  0  0
 29 26  1  0  0  0  0
 30 28  1  0  0  0  0
 30 29  2  0  0  0  0
 32 31  1  0  0  0  0
 32 37  1  0  0  0  0
 35 39  2  0  0  0  0
 36 38  1  0  0  0  0
 37 34  1  6  0  0  0
 37 36  1  0  0  0  0
 37 35  1  0  0  0  0
 38 33  1  0  0  0  0
 39 33  1  0  0  0  0
M  END
>  <MODEL>
7

>  <REMARK>
 VINA RESULT:      -7.6      3.119      7.085
  Name = 
  7 active torsions:
  status: ('A' for Active; 'I' for Inactive)
    1  A    between atoms: C_3  and  N_13
    2  A    between atoms: N_5  and  C_31
    3  A    between atoms: N_13  and  C_33
    4  A    between atoms: C_15  and  C_18
    5  A    between atoms: C_18  and  C_34
    6  A    between atoms: C_27  and  C_34
    7  A    between atoms: C_30  and  C_32
                            x       y       z     vdW  Elec       q    Type
                         _______ _______ _______ _____ _____    ______ ____

>  <TORSDO>
F 7

$$$$
=
 OpenBabel10232411063D

 39 44  0  0  1  0  0  0  0  0999 V2000
  189.5310  176.0280  136.2790 N   0  0  0  0  0  2  0  0  0  0  0  0
  189.3860  177.2600  139.0030 N   0  0  0  0  0  0  0  0  0  0  0  0
  190.9020  176.4860  136.4660 C   0  0  1  0  0  3  0  0  0  0  0  0
  187.1840  176.5540  136.0400 C   0  0  0  0  0  3  0  0  0  0  0  0
  188.2670  177.2240  138.0990 C   0  0  0  0  0  0  0  0  0  0  0  0
  190.6510  177.6650  138.5480 N   0  0  0  0  0  2  0  0  0  0  0  0
  185.9770  177.0620  136.5150 C   0  0  0  0  0  3  0  0  0  0  0  0
  187.0640  177.6990  138.5340 N   0  0  0  0  0  0  0  0  0  0  0  0
  185.9330  177.6440  137.7810 C   0  0  0  0  0  0  0  0  0  0  0  0
  191.2810  176.5170  137.9300 C   0  0  0  0  0  2  0  0  0  0  0  0
  188.3470  176.6390  136.8090 C   0  0  0  0  0  0  0  0  0  0  0  0
  190.4320  176.8770  141.1780 C   0  0  0  0  0  2  0  0  0  0  0  0
  188.4310  178.3930  141.0010 C   0  0  0  0  0  2  0  0  0  0  0  0
  189.6730  177.4650  143.4970 C   0  0  0  0  0  2  0  0  0  0  0  0
  187.6390  178.0560  142.2260 C   0  0  0  0  0  3  0  0  0  0  0  0
  189.1230  177.1480  140.4410 C   0  0  1  0  0  3  0  0  0  0  0  0
  188.1830  177.6180  143.3650 C   0  0  0  0  0  0  0  0  0  0  0  0
  190.1930  176.3580  142.5910 C   0  0  0  0  0  2  0  0  0  0  0  0
  187.2990  177.3310  144.4590 N   0  0  0  0  0  2  0  0  0  0  0  0
  186.4900  178.4130  146.5440 C   0  0  0  0  0  3  0  0  0  0  0  0
  187.4550  177.6770  145.8430 C   0  0  0  0  0  0  0  0  0  0  0  0
  186.7080  178.7360  147.8850 C   0  0  0  0  0  3  0  0  0  0  0  0
  188.8060  177.6300  147.8450 C   0  0  0  0  0  3  0  0  0  0  0  0
  188.6240  177.2890  146.5030 C   0  0  0  0  0  3  0  0  0  0  0  0
  187.8530  178.3420  148.5040 N   0  0  0  0  0  0  0  0  0  0  0  0
  182.4010  178.6570  138.4610 C   0  0  0  0  0  3  0  0  0  0  0  0
  182.8280  179.2870  139.6280 C   0  0  0  0  0  3  0  0  0  0  0  0
  184.4910  179.0650  139.7320 S   0  0  0  0  0  0  0  0  0  0  0  0
  183.4230  178.0390  137.7270 C   0  0  0  0  0  3  0  0  0  0  0  0
  184.6710  178.1800  138.3160 C   0  0  0  0  0  0  0  0  0  0  0  0
  191.8630  175.6050  135.6740 C   0  0  0  0  0  2  0  0  0  0  0  0
  192.2970  174.3680  136.4650 C   0  0  0  0  0  2  0  0  0  0  0  0
  195.6550  172.4370  138.0930 C   0  0  0  0  0  2  0  0  0  0  0  0
  194.4950  175.2760  135.7070 C   0  0  0  0  0  1  0  0  0  0  0  0
  194.2380  172.8460  136.0810 C   0  0  0  0  0  3  0  0  0  0  0  0
  194.2100  174.4540  138.0290 C   0  0  0  0  0  2  0  0  0  0  0  0
  193.8160  174.2190  136.5650 C   0  0  2  0  0  0  0  0  0  0  0  0
  195.6210  173.9440  138.3100 C   0  0  0  0  0  2  0  0  0  0  0  0
  195.0990  172.0590  136.7460 C   0  0  0  0  0  3  0  0  0  0  0  0
  1  3  1  0  0  0  0
  1 11  1  0  0  0  0
  3 31  1  6  0  0  0
  3 10  1  0  0  0  0
  4  7  2  0  0  0  0
  4 11  1  0  0  0  0
  5  8  1  0  0  0  0
  5  2  1  0  0  0  0
  6  2  1  0  0  0  0
  7  9  1  0  0  0  0
  9 30  1  0  0  0  0
  9  8  2  0  0  0  0
 10  6  1  0  0  0  0
 11  5  2  0  0  0  0
 12 18  1  0  0  0  0
 13 15  1  0  0  0  0
 15 17  2  0  0  0  0
 16  2  1  6  0  0  0
 16 13  1  0  0  0  0
 16 12  1  0  0  0  0
 17 14  1  0  0  0  0
 17 19  1  0  0  0  0
 18 14  1  0  0  0  0
 19 21  1  0  0  0  0
 20 22  1  0  0  0  0
 21 24  1  0  0  0  0
 21 20  2  0  0  0  0
 22 25  2  0  0  0  0
 23 25  1  0  0  0  0
 24 23  2  0  0  0  0
 26 27  2  0  0  0  0
 27 28  1  0  0  0  0
 29 30  2  0  0  0  0
 29 26  1  0  0  0  0
 30 28  1  0  0  0  0
 31 32  1  0  0  0  0
 32 37  1  0  0  0  0
 33 38  1  0  0  0  0
 35 37  1  0  0  0  0
 35 39  2  0  0  0  0
 36 38  1  0  0  0  0
 37 34  1  6  0  0  0
 37 36  1  0  0  0  0
 39 33  1  0  0  0  0
M  END
>  <MODEL>
8

>  <REMARK>
 VINA RESULT:      -7.3      2.224      3.679
  Name = 
  7 active torsions:
  status: ('A' for Active; 'I' for Inactive)
    1  A    between atoms: C_3  and  N_13
    2  A    between atoms: N_5  and  C_31
    3  A    between atoms: N_13  and  C_33
    4  A    between atoms: C_15  and  C_18
    5  A    between atoms: C_18  and  C_34
    6  A    between atoms: C_27  and  C_34
    7  A    between atoms: C_30  and  C_32
                            x       y       z     vdW  Elec       q    Type
                         _______ _______ _______ _____ _____    ______ ____

>  <TORSDO>
F 7

$$$$
=
 OpenBabel10232411063D

 39 44  0  0  1  0  0  0  0  0999 V2000
  185.0470  177.4980  137.9020 N   0  0  0  0  0  2  0  0  0  0  0  0
  187.4910  178.1510  139.5010 N   0  0  0  0  0  0  0  0  0  0  0  0
  185.9170  178.0740  136.8840 C   0  0  1  0  0  3  0  0  0  0  0  0
  183.7780  177.7700  139.9420 C   0  0  0  0  0  3  0  0  0  0  0  0
  186.1650  178.1550  140.0600 C   0  0  0  0  0  0  0  0  0  0  0  0
  187.7450  178.7880  138.2750 N   0  0  0  0  0  2  0  0  0  0  0  0
  183.6740  178.0250  141.3070 C   0  0  0  0  0  3  0  0  0  0  0  0
  186.0240  178.3860  141.3970 N   0  0  0  0  0  0  0  0  0  0  0  0
  184.8220  178.3410  142.0320 C   0  0  0  0  0  0  0  0  0  0  0  0
  187.3760  177.8660  137.2200 C   0  0  0  0  0  2  0  0  0  0  0  0
  185.0130  177.8450  139.2930 C   0  0  0  0  0  0  0  0  0  0  0  0
  189.8850  177.6630  139.5270 C   0  0  0  0  0  2  0  0  0  0  0  0
  188.7880  178.6540  141.5640 C   0  0  0  0  0  2  0  0  0  0  0  0
  191.5410  177.6390  141.4130 C   0  0  0  0  0  2  0  0  0  0  0  0
  189.4490  177.9270  142.6930 C   0  0  0  0  0  3  0  0  0  0  0  0
  188.6050  177.7310  140.3560 C   0  0  1  0  0  3  0  0  0  0  0  0
  190.6930  177.4450  142.6400 C   0  0  0  0  0  0  0  0  0  0  0  0
  190.9770  176.8650  140.2280 C   0  0  0  0  0  2  0  0  0  0  0  0
  191.1970  176.7660  143.8000 N   0  0  0  0  0  2  0  0  0  0  0  0
  189.5640  177.5000  145.5230 C   0  0  0  0  0  3  0  0  0  0  0  0
  190.7880  176.9180  145.1670 C   0  0  0  0  0  0  0  0  0  0  0  0
  189.2310  177.6380  146.8720 C   0  0  0  0  0  3  0  0  0  0  0  0
  191.2890  176.6480  147.5150 C   0  0  0  0  0  3  0  0  0  0  0  0
  191.6560  176.4940  146.1770 C   0  0  0  0  0  3  0  0  0  0  0  0
  190.0930  177.2130  147.8340 N   0  0  0  0  0  0  0  0  0  0  0  0
  185.4350  178.8130  145.6880 C   0  0  0  0  0  3  0  0  0  0  0  0
  184.0960  179.1630  145.8460 C   0  0  0  0  0  3  0  0  0  0  0  0
  183.3790  179.0810  144.3280 S   0  0  0  0  0  0  0  0  0  0  0  0
  185.8020  178.5010  144.3710 C   0  0  0  0  0  3  0  0  0  0  0  0
  184.7460  178.6060  143.4770 C   0  0  0  0  0  0  0  0  0  0  0  0
  185.5840  177.4880  135.5160 C   0  0  0  0  0  2  0  0  0  0  0  0
  186.4140  176.2380  135.2070 C   0  0  0  0  0  2  0  0  0  0  0  0
  186.4290  172.1090  135.9810 C   0  0  0  0  0  2  0  0  0  0  0  0
  184.1540  175.1820  135.2870 C   0  0  0  0  0  1  0  0  0  0  0  0
  185.9260  174.4020  136.8260 C   0  0  0  0  0  3  0  0  0  0  0  0
  186.0850  173.9440  134.3460 C   0  0  0  0  0  2  0  0  0  0  0  0
  185.6490  174.9340  135.4340 C   0  0  2  0  0  0  0  0  0  0  0  0
  185.6940  172.5150  134.7100 C   0  0  0  0  0  2  0  0  0  0  0  0
  186.2360  173.1210  137.0790 C   0  0  0  0  0  3  0  0  0  0  0  0
  1 11  1  0  0  0  0
  2  5  1  0  0  0  0
  3 31  1  6  0  0  0
  3 10  1  0  0  0  0
  3  1  1  0  0  0  0
  4  7  1  0  0  0  0
  5  8  2  0  0  0  0
  6  2  1  0  0  0  0
  7  9  2  0  0  0  0
  8  9  1  0  0  0  0
  9 30  1  0  0  0  0
 10  6  1  0  0  0  0
 11  4  2  0  0  0  0
 11  5  1  0  0  0  0
 12 18  1  0  0  0  0
 12 16  1  0  0  0  0
 13 15  1  0  0  0  0
 14 17  1  0  0  0  0
 16  2  1  6  0  0  0
 16 13  1  0  0  0  0
 17 15  2  0  0  0  0
 17 19  1  0  0  0  0
 18 14  1  0  0  0  0
 19 21  1  0  0  0  0
 20 22  1  0  0  0  0
 21 20  2  0  0  0  0
 21 24  1  0  0  0  0
 22 25  2  0  0  0  0
 23 25  1  0  0  0  0
 24 23  2  0  0  0  0
 26 27  2  0  0  0  0
 28 27  1  0  0  0  0
 29 26  1  0  0  0  0
 30 28  1  0  0  0  0
 30 29  2  0  0  0  0
 32 37  1  0  0  0  0
 32 31  1  0  0  0  0
 33 39  1  0  0  0  0
 35 39  2  0  0  0  0
 36 38  1  0  0  0  0
 36 37  1  0  0  0  0
 37 34  1  6  0  0  0
 37 35  1  0  0  0  0
 38 33  1  0  0  0  0
M  END
>  <MODEL>
9

>  <REMARK>
 VINA RESULT:      -7.3      2.087      2.929
  Name = 
  7 active torsions:
  status: ('A' for Active; 'I' for Inactive)
    1  A    between atoms: C_3  and  N_13
    2  A    between atoms: N_5  and  C_31
    3  A    between atoms: N_13  and  C_33
    4  A    between atoms: C_15  and  C_18
    5  A    between atoms: C_18  and  C_34
    6  A    between atoms: C_27  and  C_34
    7  A    between atoms: C_30  and  C_32
                            x       y       z     vdW  Elec       q    Type
                         _______ _______ _______ _____ _____    ______ ____

>  <TORSDO>
F 7

$$$$
