=
 OpenBabel10232412093D

 39 45  0  0  0  0  0  0  0  0999 V2000
  187.1060  177.8750  141.4520 O   0  0  0  0  0  1  0  0  0  0  0  0
  188.1600  177.5530  142.3040 C   0  0  0  0  0  0  0  0  0  0  0  0
  185.0530  178.3210  145.9090 N   0  0  0  0  0  2  0  0  0  0  0  0
  190.6050  176.8670  142.1830 C   0  0  0  0  0  0  0  0  0  0  0  0
  190.7110  176.9020  140.0020 C   0  0  0  0  0  0  0  0  0  0  0  0
  186.3850  177.9550  145.5970 C   0  0  0  0  0  0  0  0  0  0  0  0
  188.8980  177.2730  144.6890 C   0  0  0  0  0  0  0  0  0  0  0  0
  187.3600  177.6510  146.5440 C   0  0  0  0  0  3  0  0  0  0  0  0
  191.0100  176.7130  143.4940 C   0  0  0  0  0  3  0  0  0  0  0  0
  185.3930  178.2980  143.4920 C   0  0  0  0  0  2  0  0  0  0  0  0
  184.4570  178.5280  144.6340 C   0  0  0  0  0  0  0  0  0  0  0  0
  188.6160  177.3120  146.0510 C   0  0  0  0  0  0  0  0  0  0  0  0
  190.6580  176.7400  145.9150 C   0  0  0  0  0  0  0  0  0  0  0  0
  190.2230  176.9020  144.6090 C   0  0  0  0  0  0  0  0  0  0  0  0
  189.3670  177.2320  141.6610 C   0  0  0  0  0  0  0  0  0  0  0  0
  183.2110  178.8810  144.4900 C   0  0  0  0  0  0  0  0  0  0  0  0
  191.9830  176.3550  146.2840 N   0  0  0  0  0  2  0  0  0  0  0  0
  189.4490  177.2490  140.3140 N   0  0  0  0  0  0  0  0  0  0  0  0
  189.6780  176.9890  146.8110 N   0  0  0  0  0  0  0  0  0  0  0  0
  186.6430  177.9230  144.2270 C   0  0  0  0  0  0  0  0  0  0  0  0
  187.9260  177.5770  143.7040 C   0  0  0  0  0  0  0  0  0  0  0  0
  192.3740  176.2020  147.6750 C   0  0  0  0  0  1  0  0  0  0  0  0
  191.4680  176.6550  141.1280 C   0  0  0  0  0  3  0  0  0  0  0  0
  181.9650  179.2330  144.3430 C   0  0  0  0  0  3  0  0  0  0  0  0
  192.4290  176.1120  138.3550 N   0  0  0  0  0  2  0  0  0  0  0  0
  191.2030  176.8030  138.6240 C   0  0  0  0  0  0  0  0  0  0  0  0
  192.4530  176.4030  136.0350 O   0  0  0  0  0  0  0  0  0  0  0  0
  190.5410  177.3260  137.6880 O   0  0  0  0  0  0  0  0  0  0  0  0
  193.0190  175.9310  137.0600 C   0  0  0  0  0  0  0  0  0  0  0  0
  194.2570  175.2120  136.9310 N   0  0  0  0  0  0  0  0  0  0  0  0
  195.5840  176.4350  135.2680 C   0  0  0  0  0  2  0  0  0  0  0  0
  194.9230  175.1140  135.6310 C   0  0  0  0  0  3  0  0  0  0  0  0
  196.4230  175.2970  135.8010 C   0  0  0  0  0  2  0  0  0  0  0  0
  194.9980  174.8250  138.1280 C   0  0  0  0  0  2  0  0  0  0  0  0
  196.1020  172.6110  138.0810 C   0  0  0  0  0  1  0  0  0  0  0  0
  194.8170  173.3430  138.4010 C   0  0  0  0  0  2  0  0  0  0  0  0
  181.3030  179.0960  143.0190 C   0  0  0  0  0  3  0  0  0  0  0  0
  179.9920  179.8570  143.0390 C   0  0  0  0  0  2  0  0  0  0  0  0
  179.9950  178.3530  143.1970 C   0  0  0  0  0  2  0  0  0  0  0  0
  1  2  1  0  0  0  0
  2 21  1  0  0  0  0
  4  9  1  0  0  0  0
  5 18  2  0  0  0  0
  5 23  1  0  0  0  0
  6  3  1  0  0  0  0
  6  8  1  0  0  0  0
  7 12  1  0  0  0  0
  9 14  2  0  0  0  0
 10 20  1  0  0  0  0
 10 11  1  0  0  0  0
 11  3  1  0  0  0  0
 12  8  2  0  0  0  0
 12 19  1  0  0  0  0
 13 17  1  0  0  0  0
 13 19  2  0  0  0  0
 14  7  1  0  0  0  0
 14 13  1  0  0  0  0
 15  4  1  0  0  0  0
 15  2  2  0  0  0  0
 16 11  2  0  0  0  0
 17 22  1  0  0  0  0
 18 15  1  0  0  0  0
 20  6  2  0  0  0  0
 21 20  1  0  0  0  0
 21  7  2  0  0  0  0
 23  4  2  0  0  0  0
 24 16  2  0  0  0  0
 25 26  1  0  0  0  0
 26  5  1  0  0  0  0
 27 29  2  0  0  0  0
 28 26  2  0  0  0  0
 29 25  1  0  0  0  0
 30 29  1  0  0  0  0
 30 34  1  0  0  0  0
 31 32  1  0  0  0  0
 31 33  1  0  0  0  0
 32 33  1  0  0  0  0
 32 30  1  0  0  0  0
 34 36  1  0  0  0  0
 35 36  1  0  0  0  0
 37 38  1  0  0  0  0
 37 39  1  0  0  0  0
 37 24  1  0  0  0  0
 38 39  1  0  0  0  0
M  END
>  <MODEL>
1

>  <REMARK>
 VINA RESULT:     -10.7      0.000      0.000
  Name = 
  5 active torsions:
  status: ('A' for Active; 'I' for Inactive)
    1  A    between atoms: C_2  and  C_39
    2  A    between atoms: C_8  and  C_20
    3  A    between atoms: C_8  and  N_38
    4  A    between atoms: C_9  and  C_12
    5  A    between atoms: C_32  and  N_38
                            x       y       z     vdW  Elec       q    Type
                         _______ _______ _______ _____ _____    ______ ____

>  <TORSDO>
F 5

$$$$
=
 OpenBabel10232412093D

 39 45  0  0  0  0  0  0  0  0999 V2000
  187.2260  177.7910  141.9350 O   0  0  0  0  0  1  0  0  0  0  0  0
  188.2510  177.5350  142.8430 C   0  0  0  0  0  0  0  0  0  0  0  0
  185.0000  178.4550  146.2810 N   0  0  0  0  0  2  0  0  0  0  0  0
  190.7080  176.8820  142.8520 C   0  0  0  0  0  0  0  0  0  0  0  0
  190.8960  176.7950  140.6780 C   0  0  0  0  0  0  0  0  0  0  0  0
  186.3480  178.0940  146.0400 C   0  0  0  0  0  0  0  0  0  0  0  0
  188.9030  177.4020  145.2650 C   0  0  0  0  0  0  0  0  0  0  0  0
  187.2900  177.8600  147.0380 C   0  0  0  0  0  3  0  0  0  0  0  0
  191.0650  176.8090  144.1830 C   0  0  0  0  0  3  0  0  0  0  0  0
  185.4310  178.3010  143.8830 C   0  0  0  0  0  2  0  0  0  0  0  0
  184.4500  178.5810  144.9750 C   0  0  0  0  0  0  0  0  0  0  0  0
  188.5690  177.5130  146.6120 C   0  0  0  0  0  0  0  0  0  0  0  0
  190.6220  176.9680  146.5840 C   0  0  0  0  0  0  0  0  0  0  0  0
  190.2340  177.0480  145.2560 C   0  0  0  0  0  0  0  0  0  0  0  0
  189.4860  177.1960  142.2640 C   0  0  0  0  0  0  0  0  0  0  0  0
  183.2060  178.9050  144.7640 C   0  0  0  0  0  0  0  0  0  0  0  0
  191.9380  176.6250  147.0240 N   0  0  0  0  0  2  0  0  0  0  0  0
  189.6190  177.1380  140.9220 N   0  0  0  0  0  0  0  0  0  0  0  0
  189.6060  177.2510  147.4270 N   0  0  0  0  0  0  0  0  0  0  0  0
  186.6580  177.9880  144.6840 C   0  0  0  0  0  0  0  0  0  0  0  0
  187.9640  177.6340  144.2290 C   0  0  0  0  0  0  0  0  0  0  0  0
  192.2780  176.5580  148.4350 C   0  0  0  0  0  1  0  0  0  0  0  0
  191.6130  176.6240  141.8430 C   0  0  0  0  0  3  0  0  0  0  0  0
  181.9610  179.2290  144.5520 C   0  0  0  0  0  3  0  0  0  0  0  0
  190.8340  175.6880  138.4290 N   0  0  0  0  0  2  0  0  0  0  0  0
  191.4410  176.6260  139.3260 C   0  0  0  0  0  0  0  0  0  0  0  0
  192.2390  176.0510  136.5960 O   0  0  0  0  0  0  0  0  0  0  0  0
  192.4380  177.3080  138.9670 O   0  0  0  0  0  0  0  0  0  0  0  0
  191.2540  175.4300  137.0820 C   0  0  0  0  0  0  0  0  0  0  0  0
  190.5520  174.4610  136.2850 N   0  0  0  0  0  0  0  0  0  0  0  0
  192.2510  173.2010  135.0420 C   0  0  0  0  0  2  0  0  0  0  0  0
  191.0370  174.1110  134.9490 C   0  0  0  0  0  3  0  0  0  0  0  0
  190.8970  172.6140  134.7210 C   0  0  0  0  0  2  0  0  0  0  0  0
  189.5320  173.6180  136.9030 C   0  0  0  0  0  2  0  0  0  0  0  0
  187.5800  175.1300  137.0780 C   0  0  0  0  0  1  0  0  0  0  0  0
  188.1640  173.9480  136.3340 C   0  0  0  0  0  2  0  0  0  0  0  0
  181.3510  179.0060  143.2150 C   0  0  0  0  0  3  0  0  0  0  0  0
  180.1030  179.8560  143.0900 C   0  0  0  0  0  2  0  0  0  0  0  0
  179.9840  178.3800  143.3940 C   0  0  0  0  0  2  0  0  0  0  0  0
  1  2  1  0  0  0  0
  2 21  1  0  0  0  0
  4  9  1  0  0  0  0
  5 18  2  0  0  0  0
  5 23  1  0  0  0  0
  6  3  1  0  0  0  0
  6  8  1  0  0  0  0
  7 12  1  0  0  0  0
  9 14  2  0  0  0  0
 10 20  1  0  0  0  0
 10 11  1  0  0  0  0
 11  3  1  0  0  0  0
 12  8  2  0  0  0  0
 12 19  1  0  0  0  0
 13 17  1  0  0  0  0
 13 19  2  0  0  0  0
 14  7  1  0  0  0  0
 14 13  1  0  0  0  0
 15  2  2  0  0  0  0
 15  4  1  0  0  0  0
 16 11  2  0  0  0  0
 17 22  1  0  0  0  0
 18 15  1  0  0  0  0
 20  6  2  0  0  0  0
 21 20  1  0  0  0  0
 21  7  2  0  0  0  0
 23  4  2  0  0  0  0
 24 16  2  0  0  0  0
 25 26  1  0  0  0  0
 26  5  1  0  0  0  0
 27 29  2  0  0  0  0
 28 26  2  0  0  0  0
 29 25  1  0  0  0  0
 30 34  1  0  0  0  0
 30 29  1  0  0  0  0
 32 31  1  0  0  0  0
 32 30  1  0  0  0  0
 33 32  1  0  0  0  0
 33 31  1  0  0  0  0
 36 34  1  0  0  0  0
 36 35  1  0  0  0  0
 37 39  1  0  0  0  0
 37 24  1  0  0  0  0
 38 37  1  0  0  0  0
 38 39  1  0  0  0  0
M  END
>  <MODEL>
2

>  <REMARK>
 VINA RESULT:     -10.3      1.948      2.652
  Name = 
  5 active torsions:
  status: ('A' for Active; 'I' for Inactive)
    1  A    between atoms: C_2  and  C_39
    2  A    between atoms: C_8  and  C_20
    3  A    between atoms: C_8  and  N_38
    4  A    between atoms: C_9  and  C_12
    5  A    between atoms: C_32  and  N_38
                            x       y       z     vdW  Elec       q    Type
                         _______ _______ _______ _____ _____    ______ ____

>  <TORSDO>
F 5

$$$$
=
 OpenBabel10232412093D

 39 45  0  0  0  0  0  0  0  0999 V2000
  186.5170  178.1170  140.8530 O   0  0  0  0  0  1  0  0  0  0  0  0
  187.0450  178.0390  142.1400 C   0  0  0  0  0  0  0  0  0  0  0  0
  182.5480  178.8280  143.6850 N   0  0  0  0  0  2  0  0  0  0  0  0
  189.2790  177.6660  143.2940 C   0  0  0  0  0  0  0  0  0  0  0  0
  190.4220  177.4500  141.4460 C   0  0  0  0  0  0  0  0  0  0  0  0
  183.8830  178.6030  144.0990 C   0  0  0  0  0  0  0  0  0  0  0  0
  186.5570  178.1470  144.6010 C   0  0  0  0  0  0  0  0  0  0  0  0
  184.2960  178.5440  145.4280 C   0  0  0  0  0  3  0  0  0  0  0  0
  189.0100  177.7250  144.6470 C   0  0  0  0  0  3  0  0  0  0  0  0
  184.0120  178.5570  141.7500 C   0  0  0  0  0  2  0  0  0  0  0  0
  182.6300  178.8010  142.2650 C   0  0  0  0  0  0  0  0  0  0  0  0
  185.6500  178.3140  145.6450 C   0  0  0  0  0  0  0  0  0  0  0  0
  187.5330  177.9990  146.5790 C   0  0  0  0  0  0  0  0  0  0  0  0
  187.7730  177.9440  145.2150 C   0  0  0  0  0  0  0  0  0  0  0  0
  188.4290  177.8010  142.2010 C   0  0  0  0  0  0  0  0  0  0  0  0
  181.5910  178.9700  141.4980 C   0  0  0  0  0  0  0  0  0  0  0  0
  188.5350  177.8350  147.5840 N   0  0  0  0  0  2  0  0  0  0  0  0
  189.1490  177.6650  141.0670 N   0  0  0  0  0  0  0  0  0  0  0  0
  186.2310  178.2250  146.8550 N   0  0  0  0  0  0  0  0  0  0  0  0
  184.7710  178.4390  143.0360 C   0  0  0  0  0  0  0  0  0  0  0  0
  186.1640  178.2020  143.2410 C   0  0  0  0  0  0  0  0  0  0  0  0
  188.2140  177.9040  148.9990 C   0  0  0  0  0  1  0  0  0  0  0  0
  190.5550  177.4400  142.8180 C   0  0  0  0  0  3  0  0  0  0  0  0
  180.5520  179.1380  140.7280 C   0  0  0  0  0  3  0  0  0  0  0  0
  191.2440  176.7480  139.1830 N   0  0  0  0  0  2  0  0  0  0  0  0
  191.5220  177.2490  140.4970 C   0  0  0  0  0  0  0  0  0  0  0  0
  193.4370  176.7520  138.3730 O   0  0  0  0  0  0  0  0  0  0  0  0
  192.7020  177.5210  140.8440 O   0  0  0  0  0  0  0  0  0  0  0  0
  192.2170  176.5150  138.1550 C   0  0  0  0  0  0  0  0  0  0  0  0
  191.7990  176.0100  136.8750 N   0  0  0  0  0  0  0  0  0  0  0  0
  193.3630  174.2800  136.1110 C   0  0  0  0  0  2  0  0  0  0  0  0
  192.7930  175.6670  135.8560 C   0  0  0  0  0  3  0  0  0  0  0  0
  192.3130  174.4760  135.0430 C   0  0  0  0  0  2  0  0  0  0  0  0
  190.4200  175.5690  136.6850 C   0  0  0  0  0  2  0  0  0  0  0  0
  188.3320  176.8910  136.8120 C   0  0  0  0  0  1  0  0  0  0  0  0
  189.6050  176.6660  136.0250 C   0  0  0  0  0  2  0  0  0  0  0  0
  180.6200  178.7570  139.2930 C   0  0  0  0  0  3  0  0  0  0  0  0
  179.9820  177.3950  139.1100 C   0  0  0  0  0  2  0  0  0  0  0  0
  181.4880  177.5240  139.1500 C   0  0  0  0  0  2  0  0  0  0  0  0
  1  2  1  0  0  0  0
  2 15  2  0  0  0  0
  2 21  1  0  0  0  0
  3  6  1  0  0  0  0
  4  9  1  0  0  0  0
  5 23  1  0  0  0  0
  6  8  1  0  0  0  0
  7 14  1  0  0  0  0
  7 12  1  0  0  0  0
  8 12  2  0  0  0  0
  9 14  2  0  0  0  0
 10 11  1  0  0  0  0
 10 20  1  0  0  0  0
 11  3  1  0  0  0  0
 12 19  1  0  0  0  0
 13 19  2  0  0  0  0
 13 17  1  0  0  0  0
 14 13  1  0  0  0  0
 15  4  1  0  0  0  0
 16 11  2  0  0  0  0
 17 22  1  0  0  0  0
 18  5  2  0  0  0  0
 18 15  1  0  0  0  0
 20 21  1  0  0  0  0
 20  6  2  0  0  0  0
 21  7  2  0  0  0  0
 23  4  2  0  0  0  0
 24 16  2  0  0  0  0
 25 26  1  0  0  0  0
 26 28  2  0  0  0  0
 26  5  1  0  0  0  0
 29 27  2  0  0  0  0
 29 25  1  0  0  0  0
 30 29  1  0  0  0  0
 32 31  1  0  0  0  0
 32 30  1  0  0  0  0
 33 32  1  0  0  0  0
 33 31  1  0  0  0  0
 34 30  1  0  0  0  0
 36 34  1  0  0  0  0
 36 35  1  0  0  0  0
 37 24  1  0  0  0  0
 38 39  1  0  0  0  0
 38 37  1  0  0  0  0
 39 37  1  0  0  0  0
M  END
>  <MODEL>
3

>  <REMARK>
 VINA RESULT:     -10.2      2.074      3.442
  Name = 
  5 active torsions:
  status: ('A' for Active; 'I' for Inactive)
    1  A    between atoms: C_2  and  C_39
    2  A    between atoms: C_8  and  C_20
    3  A    between atoms: C_8  and  N_38
    4  A    between atoms: C_9  and  C_12
    5  A    between atoms: C_32  and  N_38
                            x       y       z     vdW  Elec       q    Type
                         _______ _______ _______ _____ _____    ______ ____

>  <TORSDO>
F 5

$$$$
=
 OpenBabel10232412093D

 39 45  0  0  0  0  0  0  0  0999 V2000
  188.4490  177.7030  142.4370 O   0  0  0  0  0  1  0  0  0  0  0  0
  187.1030  178.0400  142.3210 C   0  0  0  0  0  0  0  0  0  0  0  0
  186.9760  177.8750  147.1370 N   0  0  0  0  0  2  0  0  0  0  0  0
  185.3830  178.5390  140.5150 C   0  0  0  0  0  0  0  0  0  0  0  0
  186.7650  178.2660  138.8470 C   0  0  0  0  0  0  0  0  0  0  0  0
  186.2050  178.1130  145.9730 C   0  0  0  0  0  0  0  0  0  0  0  0
  184.9620  178.5200  143.5450 C   0  0  0  0  0  0  0  0  0  0  0  0
  184.8530  178.4480  145.9810 C   0  0  0  0  0  3  0  0  0  0  0  0
  184.2080  178.8030  141.1890 C   0  0  0  0  0  3  0  0  0  0  0  0
  188.3450  177.6180  145.1310 C   0  0  0  0  0  2  0  0  0  0  0  0
  188.2690  177.5750  146.6230 C   0  0  0  0  0  0  0  0  0  0  0  0
  184.2580  178.6460  144.7390 C   0  0  0  0  0  0  0  0  0  0  0  0
  182.8460  179.0580  143.2060 C   0  0  0  0  0  0  0  0  0  0  0  0
  184.0400  178.7890  142.5570 C   0  0  0  0  0  0  0  0  0  0  0  0
  186.6440  178.2080  141.0020 C   0  0  0  0  0  0  0  0  0  0  0  0
  189.2830  177.2960  147.3920 C   0  0  0  0  0  0  0  0  0  0  0  0
  181.6230  179.3880  142.5450 N   0  0  0  0  0  2  0  0  0  0  0  0
  187.4860  178.0420  139.9610 N   0  0  0  0  0  0  0  0  0  0  0  0
  182.9670  178.9730  144.5480 N   0  0  0  0  0  0  0  0  0  0  0  0
  186.9320  177.9820  144.7910 C   0  0  0  0  0  0  0  0  0  0  0  0
  186.3380  178.1810  143.5080 C   0  0  0  0  0  0  0  0  0  0  0  0
  180.4040  179.6600  143.2880 C   0  0  0  0  0  1  0  0  0  0  0  0
  185.4540  178.5790  139.1380 C   0  0  0  0  0  3  0  0  0  0  0  0
  190.2990  177.0160  148.1600 C   0  0  0  0  0  3  0  0  0  0  0  0
  188.1440  177.0650  137.1320 N   0  0  0  0  0  2  0  0  0  0  0  0
  187.3260  178.1840  137.4940 C   0  0  0  0  0  0  0  0  0  0  0  0
  188.5760  177.6920  134.9210 O   0  0  0  0  0  0  0  0  0  0  0  0
  187.0820  179.0990  136.6620 O   0  0  0  0  0  0  0  0  0  0  0  0
  188.7460  176.8530  135.8470 C   0  0  0  0  0  0  0  0  0  0  0  0
  189.5460  175.6800  135.6160 N   0  0  0  0  0  0  0  0  0  0  0  0
  191.6100  176.1910  134.3900 C   0  0  0  0  0  2  0  0  0  0  0  0
  190.2530  175.5060  134.3460 C   0  0  0  0  0  3  0  0  0  0  0  0
  191.5200  174.6940  134.5640 C   0  0  0  0  0  2  0  0  0  0  0  0
  189.8890  174.8050  136.7340 C   0  0  0  0  0  2  0  0  0  0  0  0
  188.9950  172.5950  136.0710 C   0  0  0  0  0  1  0  0  0  0  0  0
  188.7810  173.7950  136.9680 C   0  0  0  0  0  2  0  0  0  0  0  0
  191.6800  177.0570  147.6110 C   0  0  0  0  0  3  0  0  0  0  0  0
  191.8050  176.0300  146.5040 C   0  0  0  0  0  2  0  0  0  0  0  0
  192.3570  175.7280  147.8790 C   0  0  0  0  0  2  0  0  0  0  0  0
  2  1  1  0  0  0  0
  2 21  1  0  0  0  0
  4 15  1  0  0  0  0
  4  9  1  0  0  0  0
  5 23  1  0  0  0  0
  5 18  2  0  0  0  0
  6  8  1  0  0  0  0
  6  3  1  0  0  0  0
  7 12  1  0  0  0  0
  9 14  2  0  0  0  0
 10 11  1  0  0  0  0
 11  3  1  0  0  0  0
 11 16  2  0  0  0  0
 12  8  2  0  0  0  0
 13 19  2  0  0  0  0
 14 13  1  0  0  0  0
 14  7  1  0  0  0  0
 15  2  2  0  0  0  0
 16 24  2  0  0  0  0
 17 13  1  0  0  0  0
 17 22  1  0  0  0  0
 18 15  1  0  0  0  0
 19 12  1  0  0  0  0
 20 10  1  0  0  0  0
 20  6  2  0  0  0  0
 21  7  2  0  0  0  0
 21 20  1  0  0  0  0
 23  4  2  0  0  0  0
 25 26  1  0  0  0  0
 26  5  1  0  0  0  0
 27 29  2  0  0  0  0
 28 26  2  0  0  0  0
 29 25  1  0  0  0  0
 30 29  1  0  0  0  0
 30 34  1  0  0  0  0
 31 33  1  0  0  0  0
 32 31  1  0  0  0  0
 32 33  1  0  0  0  0
 32 30  1  0  0  0  0
 34 36  1  0  0  0  0
 35 36  1  0  0  0  0
 37 39  1  0  0  0  0
 37 24  1  0  0  0  0
 38 37  1  0  0  0  0
 38 39  1  0  0  0  0
M  END
>  <MODEL>
4

>  <REMARK>
 VINA RESULT:      -9.3      3.083      6.522
  Name = 
  5 active torsions:
  status: ('A' for Active; 'I' for Inactive)
    1  A    between atoms: C_2  and  C_39
    2  A    between atoms: C_8  and  C_20
    3  A    between atoms: C_8  and  N_38
    4  A    between atoms: C_9  and  C_12
    5  A    between atoms: C_32  and  N_38
                            x       y       z     vdW  Elec       q    Type
                         _______ _______ _______ _____ _____    ______ ____

>  <TORSDO>
F 5

$$$$
=
 OpenBabel10232412093D

 39 45  0  0  0  0  0  0  0  0999 V2000
  190.1190  176.9550  141.4460 O   0  0  0  0  0  1  0  0  0  0  0  0
  188.9130  177.3660  140.8830 C   0  0  0  0  0  0  0  0  0  0  0  0
  187.3700  177.9540  145.4120 N   0  0  0  0  0  2  0  0  0  0  0  0
  187.8640  177.7040  138.5920 C   0  0  0  0  0  0  0  0  0  0  0  0
  189.6320  177.0790  137.4720 C   0  0  0  0  0  0  0  0  0  0  0  0
  187.0040  178.0650  144.0490 C   0  0  0  0  0  0  0  0  0  0  0  0
  186.5790  178.1820  141.3260 C   0  0  0  0  0  0  0  0  0  0  0  0
  185.7560  178.4940  143.6020 C   0  0  0  0  0  3  0  0  0  0  0  0
  186.5820  178.1530  138.8360 C   0  0  0  0  0  3  0  0  0  0  0  0
  189.2250  177.2930  143.9680 C   0  0  0  0  0  2  0  0  0  0  0  0
  188.7130  177.4860  145.3590 C   0  0  0  0  0  0  0  0  0  0  0  0
  185.5760  178.5400  142.2230 C   0  0  0  0  0  0  0  0  0  0  0  0
  184.7290  178.8120  140.2930 C   0  0  0  0  0  0  0  0  0  0  0  0
  186.0220  178.3610  140.0790 C   0  0  0  0  0  0  0  0  0  0  0  0
  188.8810  177.3620  139.4780 C   0  0  0  0  0  0  0  0  0  0  0  0
  189.4190  177.2560  146.4290 C   0  0  0  0  0  0  0  0  0  0  0  0
  183.7990  179.1240  139.2550 N   0  0  0  0  0  2  0  0  0  0  0  0
  189.9650  176.9780  138.7720 N   0  0  0  0  0  0  0  0  0  0  0  0
  184.4440  178.9270  141.6080 N   0  0  0  0  0  0  0  0  0  0  0  0
  188.0240  177.7010  143.1700 C   0  0  0  0  0  0  0  0  0  0  0  0
  187.8570  177.7430  141.7530 C   0  0  0  0  0  0  0  0  0  0  0  0
  182.4560  179.5940  139.5500 C   0  0  0  0  0  1  0  0  0  0  0  0
  188.3380  177.5270  137.3080 C   0  0  0  0  0  3  0  0  0  0  0  0
  190.1280  177.0250  147.4990 C   0  0  0  0  0  3  0  0  0  0  0  0
  191.8410  176.2040  136.6720 N   0  0  0  0  0  2  0  0  0  0  0  0
  190.5490  176.7500  136.3760 C   0  0  0  0  0  0  0  0  0  0  0  0
  192.5970  175.9720  134.4720 O   0  0  0  0  0  0  0  0  0  0  0  0
  190.1930  176.9490  135.1840 O   0  0  0  0  0  0  0  0  0  0  0  0
  192.8300  175.8290  135.7040 C   0  0  0  0  0  0  0  0  0  0  0  0
  194.0900  175.2880  136.1380 N   0  0  0  0  0  0  0  0  0  0  0  0
  195.8150  176.2900  134.7090 C   0  0  0  0  0  2  0  0  0  0  0  0
  195.1460  175.0030  135.1660 C   0  0  0  0  0  3  0  0  0  0  0  0
  196.4970  175.4130  135.7320 C   0  0  0  0  0  2  0  0  0  0  0  0
  194.4270  175.2900  137.5590 C   0  0  0  0  0  2  0  0  0  0  0  0
  195.7370  173.6340  138.8500 C   0  0  0  0  0  1  0  0  0  0  0  0
  194.4460  173.8710  138.0960 C   0  0  0  0  0  2  0  0  0  0  0  0
  191.6040  176.8820  147.3970 C   0  0  0  0  0  3  0  0  0  0  0  0
  191.9420  176.0960  146.1450 C   0  0  0  0  0  2  0  0  0  0  0  0
  191.9640  175.4130  147.4940 C   0  0  0  0  0  2  0  0  0  0  0  0
  2  1  1  0  0  0  0
  2 21  1  0  0  0  0
  4  9  1  0  0  0  0
  4 15  1  0  0  0  0
  5 18  2  0  0  0  0
  6  3  1  0  0  0  0
  7 21  2  0  0  0  0
  7 12  1  0  0  0  0
  8  6  1  0  0  0  0
  9 14  2  0  0  0  0
 10 11  1  0  0  0  0
 11  3  1  0  0  0  0
 11 16  2  0  0  0  0
 12  8  2  0  0  0  0
 13 19  2  0  0  0  0
 14 13  1  0  0  0  0
 14  7  1  0  0  0  0
 15  2  2  0  0  0  0
 16 24  2  0  0  0  0
 17 22  1  0  0  0  0
 17 13  1  0  0  0  0
 18 15  1  0  0  0  0
 19 12  1  0  0  0  0
 20 10  1  0  0  0  0
 20  6  2  0  0  0  0
 21 20  1  0  0  0  0
 23  5  1  0  0  0  0
 23  4  2  0  0  0  0
 26 25  1  0  0  0  0
 26  5  1  0  0  0  0
 27 29  2  0  0  0  0
 28 26  2  0  0  0  0
 29 30  1  0  0  0  0
 29 25  1  0  0  0  0
 30 34  1  0  0  0  0
 31 32  1  0  0  0  0
 31 33  1  0  0  0  0
 32 33  1  0  0  0  0
 32 30  1  0  0  0  0
 34 36  1  0  0  0  0
 36 35  1  0  0  0  0
 37 39  1  0  0  0  0
 37 24  1  0  0  0  0
 38 37  1  0  0  0  0
 38 39  1  0  0  0  0
M  END
>  <MODEL>
5

>  <REMARK>
 VINA RESULT:      -8.8      2.220      5.797
  Name = 
  5 active torsions:
  status: ('A' for Active; 'I' for Inactive)
    1  A    between atoms: C_2  and  C_39
    2  A    between atoms: C_8  and  C_20
    3  A    between atoms: C_8  and  N_38
    4  A    between atoms: C_9  and  C_12
    5  A    between atoms: C_32  and  N_38
                            x       y       z     vdW  Elec       q    Type
                         _______ _______ _______ _____ _____    ______ ____

>  <TORSDO>
F 5

$$$$
=
 OpenBabel10232412093D

 39 45  0  0  0  0  0  0  0  0999 V2000
  187.4310  177.8050  140.8330 O   0  0  0  0  0  1  0  0  0  0  0  0
  187.2790  177.8930  142.2160 C   0  0  0  0  0  0  0  0  0  0  0  0
  191.9970  176.9370  142.4740 N   0  0  0  0  0  2  0  0  0  0  0  0
  185.4610  178.3370  143.9360 C   0  0  0  0  0  0  0  0  0  0  0  0
  183.8640  178.6040  142.4710 C   0  0  0  0  0  0  0  0  0  0  0  0
  190.8340  177.2070  143.2360 C   0  0  0  0  0  0  0  0  0  0  0  0
  188.4180  177.7520  144.4500 C   0  0  0  0  0  0  0  0  0  0  0  0
  190.8040  177.2710  144.6270 C   0  0  0  0  0  3  0  0  0  0  0  0
  186.0880  178.2590  145.1630 C   0  0  0  0  0  3  0  0  0  0  0  0
  190.0700  177.2720  141.0120 C   0  0  0  0  0  2  0  0  0  0  0  0
  191.5300  176.9770  141.1300 C   0  0  0  0  0  0  0  0  0  0  0  0
  189.5690  177.5470  145.2060 C   0  0  0  0  0  0  0  0  0  0  0  0
  188.0260  177.9220  146.6180 C   0  0  0  0  0  0  0  0  0  0  0  0
  187.4240  177.9940  145.3720 C   0  0  0  0  0  0  0  0  0  0  0  0
  185.9740  178.1790  142.6520 C   0  0  0  0  0  0  0  0  0  0  0  0
  192.3120  176.7770  140.1080 C   0  0  0  0  0  0  0  0  0  0  0  0
  187.3440  178.1140  147.8590 N   0  0  0  0  0  2  0  0  0  0  0  0
  184.9760  178.3470  141.7590 N   0  0  0  0  0  0  0  0  0  0  0  0
  189.3460  177.6480  146.5290 N   0  0  0  0  0  0  0  0  0  0  0  0
  189.6960  177.4080  142.4570 C   0  0  0  0  0  0  0  0  0  0  0  0
  188.4210  177.6930  143.0340 C   0  0  0  0  0  0  0  0  0  0  0  0
  188.0370  178.0250  149.1330 C   0  0  0  0  0  1  0  0  0  0  0  0
  184.1130  178.6090  143.8270 C   0  0  0  0  0  3  0  0  0  0  0  0
  193.0950  176.5770  139.0840 C   0  0  0  0  0  3  0  0  0  0  0  0
  182.4150  178.7910  140.4330 N   0  0  0  0  0  2  0  0  0  0  0  0
  182.5540  178.8490  141.8580 C   0  0  0  0  0  0  0  0  0  0  0  0
  180.1270  179.2600  140.3200 O   0  0  0  0  0  0  0  0  0  0  0  0
  181.5620  179.1060  142.5910 O   0  0  0  0  0  0  0  0  0  0  0  0
  181.1970  178.9990  139.7040 C   0  0  0  0  0  0  0  0  0  0  0  0
  181.1970  178.9090  138.2690 N   0  0  0  0  0  0  0  0  0  0  0  0
  179.9830  180.6860  137.0880 C   0  0  0  0  0  2  0  0  0  0  0  0
  179.9860  179.2240  137.5090 C   0  0  0  0  0  3  0  0  0  0  0  0
  180.3540  179.6180  136.0870 C   0  0  0  0  0  2  0  0  0  0  0  0
  182.4620  178.7860  137.5510 C   0  0  0  0  0  2  0  0  0  0  0  0
  184.2620  177.0980  137.3640 C   0  0  0  0  0  1  0  0  0  0  0  0
  182.7680  177.3260  137.2730 C   0  0  0  0  0  2  0  0  0  0  0  0
  192.6500  176.9690  137.7210 C   0  0  0  0  0  3  0  0  0  0  0  0
  192.3720  175.7190  136.9110 C   0  0  0  0  0  2  0  0  0  0  0  0
  193.6660  176.4750  136.7100 C   0  0  0  0  0  2  0  0  0  0  0  0
  1  2  1  0  0  0  0
  2 15  2  0  0  0  0
  2 21  1  0  0  0  0
  3  6  1  0  0  0  0
  4  9  1  0  0  0  0
  5 23  1  0  0  0  0
  6  8  1  0  0  0  0
  7 12  1  0  0  0  0
  7 14  1  0  0  0  0
  8 12  2  0  0  0  0
  9 14  2  0  0  0  0
 10 11  1  0  0  0  0
 10 20  1  0  0  0  0
 11  3  1  0  0  0  0
 12 19  1  0  0  0  0
 13 17  1  0  0  0  0
 14 13  1  0  0  0  0
 15  4  1  0  0  0  0
 16 11  2  0  0  0  0
 17 22  1  0  0  0  0
 18  5  2  0  0  0  0
 18 15  1  0  0  0  0
 19 13  2  0  0  0  0
 20 21  1  0  0  0  0
 20  6  2  0  0  0  0
 21  7  2  0  0  0  0
 23  4  2  0  0  0  0
 24 16  2  0  0  0  0
 25 26  1  0  0  0  0
 26  5  1  0  0  0  0
 26 28  2  0  0  0  0
 29 27  2  0  0  0  0
 29 25  1  0  0  0  0
 30 29  1  0  0  0  0
 31 32  1  0  0  0  0
 32 30  1  0  0  0  0
 33 31  1  0  0  0  0
 33 32  1  0  0  0  0
 34 30  1  0  0  0  0
 36 35  1  0  0  0  0
 36 34  1  0  0  0  0
 37 24  1  0  0  0  0
 38 37  1  0  0  0  0
 39 38  1  0  0  0  0
 39 37  1  0  0  0  0
M  END
>  <MODEL>
6

>  <REMARK>
 VINA RESULT:      -8.7      3.586      9.448
  Name = 
  5 active torsions:
  status: ('A' for Active; 'I' for Inactive)
    1  A    between atoms: C_2  and  C_39
    2  A    between atoms: C_8  and  C_20
    3  A    between atoms: C_8  and  N_38
    4  A    between atoms: C_9  and  C_12
    5  A    between atoms: C_32  and  N_38
                            x       y       z     vdW  Elec       q    Type
                         _______ _______ _______ _____ _____    ______ ____

>  <TORSDO>
F 5

$$$$
=
 OpenBabel10232412093D

 39 45  0  0  0  0  0  0  0  0999 V2000
  187.7150  177.4110  139.1800 O   0  0  0  0  0  1  0  0  0  0  0  0
  189.0400  177.1550  138.8370 C   0  0  0  0  0  0  0  0  0  0  0  0
  187.4060  176.4270  134.3610 N   0  0  0  0  0  2  0  0  0  0  0  0
  191.3370  177.0700  139.9240 C   0  0  0  0  0  0  0  0  0  0  0  0
  190.6290  177.5940  141.9220 C   0  0  0  0  0  0  0  0  0  0  0  0
  188.5650  176.4400  135.1740 C   0  0  0  0  0  0  0  0  0  0  0  0
  190.6340  176.5430  136.9940 C   0  0  0  0  0  0  0  0  0  0  0  0
  189.8510  176.1660  134.7150 C   0  0  0  0  0  3  0  0  0  0  0  0
  192.2120  176.7340  138.9110 C   0  0  0  0  0  3  0  0  0  0  0  0
  186.8320  176.9970  136.6650 C   0  0  0  0  0  2  0  0  0  0  0  0
  186.3600  176.7630  135.2660 C   0  0  0  0  0  0  0  0  0  0  0  0
  190.8700  176.2260  135.6600 C   0  0  0  0  0  0  0  0  0  0  0  0
  192.7750  176.1630  136.5990 C   0  0  0  0  0  0  0  0  0  0  0  0
  191.8730  176.5000  137.5950 C   0  0  0  0  0  0  0  0  0  0  0  0
  189.9580  177.2540  139.8970 C   0  0  0  0  0  0  0  0  0  0  0  0
  185.1150  176.8590  134.8970 C   0  0  0  0  0  0  0  0  0  0  0  0
  194.1820  176.0130  136.7980 N   0  0  0  0  0  2  0  0  0  0  0  0
  189.5360  177.5770  141.1380 N   0  0  0  0  0  0  0  0  0  0  0  0
  192.1700  175.9930  135.4040 N   0  0  0  0  0  0  0  0  0  0  0  0
  188.3030  176.7600  136.5060 C   0  0  0  0  0  0  0  0  0  0  0  0
  189.3370  176.8270  137.4880 C   0  0  0  0  0  0  0  0  0  0  0  0
  195.0740  175.6580  135.7070 C   0  0  0  0  0  1  0  0  0  0  0  0
  191.7720  177.2860  141.2150 C   0  0  0  0  0  3  0  0  0  0  0  0
  183.8680  176.9560  134.5290 C   0  0  0  0  0  3  0  0  0  0  0  0
  189.3590  177.7620  144.0770 N   0  0  0  0  0  2  0  0  0  0  0  0
  190.5880  177.9060  143.3550 C   0  0  0  0  0  0  0  0  0  0  0  0
  190.1500  178.4150  146.1790 O   0  0  0  0  0  0  0  0  0  0  0  0
  191.6340  178.2970  143.9370 O   0  0  0  0  0  0  0  0  0  0  0  0
  189.1780  178.0210  145.4770 C   0  0  0  0  0  0  0  0  0  0  0  0
  187.8860  177.8330  146.0790 N   0  0  0  0  0  0  0  0  0  0  0  0
  187.8300  176.9830  148.3810 C   0  0  0  0  0  2  0  0  0  0  0  0
  187.6640  178.1970  147.4800 C   0  0  0  0  0  3  0  0  0  0  0  0
  188.9440  177.9980  148.2770 C   0  0  0  0  0  2  0  0  0  0  0  0
  186.7280  177.5540  145.2360 C   0  0  0  0  0  2  0  0  0  0  0  0
  184.7860  178.8210  144.3720 C   0  0  0  0  0  1  0  0  0  0  0  0
  185.5720  178.4610  145.6150 C   0  0  0  0  0  2  0  0  0  0  0  0
  182.8830  177.6390  135.4080 C   0  0  0  0  0  3  0  0  0  0  0  0
  181.5190  177.0070  135.2120 C   0  0  0  0  0  2  0  0  0  0  0  0
  181.8430  178.3250  134.5440 C   0  0  0  0  0  2  0  0  0  0  0  0
  2  1  1  0  0  0  0
  2 15  1  0  0  0  0
  3  6  1  0  0  0  0
  3 11  1  0  0  0  0
  4 23  1  0  0  0  0
  5 26  1  0  0  0  0
  6 20  2  0  0  0  0
  7 21  1  0  0  0  0
  7 14  2  0  0  0  0
  8  6  1  0  0  0  0
  8 12  2  0  0  0  0
  9  4  2  0  0  0  0
 11 10  1  0  0  0  0
 12  7  1  0  0  0  0
 13 17  1  0  0  0  0
 13 14  1  0  0  0  0
 14  9  1  0  0  0  0
 15  4  1  0  0  0  0
 15 18  2  0  0  0  0
 16 11  2  0  0  0  0
 18  5  1  0  0  0  0
 19 12  1  0  0  0  0
 19 13  2  0  0  0  0
 20 10  1  0  0  0  0
 20 21  1  0  0  0  0
 21  2  2  0  0  0  0
 22 17  1  0  0  0  0
 23  5  2  0  0  0  0
 24 16  2  0  0  0  0
 24 37  1  0  0  0  0
 25 29  1  0  0  0  0
 26 28  2  0  0  0  0
 26 25  1  0  0  0  0
 29 30  1  0  0  0  0
 29 27  2  0  0  0  0
 30 32  1  0  0  0  0
 32 33  1  0  0  0  0
 32 31  1  0  0  0  0
 33 31  1  0  0  0  0
 34 36  1  0  0  0  0
 34 30  1  0  0  0  0
 35 36  1  0  0  0  0
 38 37  1  0  0  0  0
 39 38  1  0  0  0  0
 39 37  1  0  0  0  0
M  END
>  <MODEL>
7

>  <REMARK>
 VINA RESULT:      -8.2      3.899      9.374
  Name = 
  5 active torsions:
  status: ('A' for Active; 'I' for Inactive)
    1  A    between atoms: C_2  and  C_39
    2  A    between atoms: C_8  and  C_20
    3  A    between atoms: C_8  and  N_38
    4  A    between atoms: C_9  and  C_12
    5  A    between atoms: C_32  and  N_38
                            x       y       z     vdW  Elec       q    Type
                         _______ _______ _______ _____ _____    ______ ____

>  <TORSDO>
F 5

$$$$
=
 OpenBabel10232412093D

 39 45  0  0  0  0  0  0  0  0999 V2000
  187.8370  177.5120  140.3180 O   0  0  0  0  0  1  0  0  0  0  0  0
  188.8260  177.2670  139.3680 C   0  0  0  0  0  0  0  0  0  0  0  0
  191.9440  177.4340  143.0410 N   0  0  0  0  0  2  0  0  0  0  0  0
  189.0500  176.8880  136.8640 C   0  0  0  0  0  0  0  0  0  0  0  0
  186.9150  177.0680  136.4460 C   0  0  0  0  0  0  0  0  0  0  0  0
  191.8230  177.2510  141.6420 C   0  0  0  0  0  0  0  0  0  0  0  0
  191.2810  176.9320  138.9560 C   0  0  0  0  0  0  0  0  0  0  0  0
  192.8940  177.0080  140.7850 C   0  0  0  0  0  3  0  0  0  0  0  0
  190.4000  176.7030  136.6390 C   0  0  0  0  0  3  0  0  0  0  0  0
  189.6080  177.6000  142.3510 C   0  0  0  0  0  2  0  0  0  0  0  0
  190.6030  177.6460  143.4650 C   0  0  0  0  0  0  0  0  0  0  0  0
  192.5850  176.8530  139.4380 C   0  0  0  0  0  0  0  0  0  0  0  0
  192.7380  176.5390  137.3420 C   0  0  0  0  0  0  0  0  0  0  0  0
  191.3890  176.7280  137.5980 C   0  0  0  0  0  0  0  0  0  0  0  0
  188.3610  177.1320  138.0480 C   0  0  0  0  0  0  0  0  0  0  0  0
  190.2850  177.8560  144.7110 C   0  0  0  0  0  0  0  0  0  0  0  0
  193.2890  176.2940  136.0460 N   0  0  0  0  0  2  0  0  0  0  0  0
  187.0450  177.2420  137.7740 N   0  0  0  0  0  0  0  0  0  0  0  0
  193.4830  176.6140  138.4650 N   0  0  0  0  0  0  0  0  0  0  0  0
  190.5080  177.3340  141.1840 C   0  0  0  0  0  0  0  0  0  0  0  0
  190.1730  177.1770  139.8050 C   0  0  0  0  0  0  0  0  0  0  0  0
  194.7150  176.1040  135.8470 C   0  0  0  0  0  1  0  0  0  0  0  0
  188.1310  176.8450  135.8360 C   0  0  0  0  0  3  0  0  0  0  0  0
  189.9650  178.0650  145.9580 C   0  0  0  0  0  3  0  0  0  0  0  0
  184.4670  176.5310  136.3610 N   0  0  0  0  0  2  0  0  0  0  0  0
  185.6250  177.1140  135.7490 C   0  0  0  0  0  0  0  0  0  0  0  0
  182.9300  177.0380  134.6730 O   0  0  0  0  0  0  0  0  0  0  0  0
  185.5460  177.6670  134.6200 O   0  0  0  0  0  0  0  0  0  0  0  0
  183.1470  176.5120  135.8000 C   0  0  0  0  0  0  0  0  0  0  0  0
  182.0700  175.8930  136.5240 N   0  0  0  0  0  0  0  0  0  0  0  0
  180.6460  174.4970  135.0930 C   0  0  0  0  0  2  0  0  0  0  0  0
  180.7440  175.7730  135.9150 C   0  0  0  0  0  3  0  0  0  0  0  0
  180.0270  174.5510  136.4700 C   0  0  0  0  0  2  0  0  0  0  0  0
  182.3560  175.1320  137.7360 C   0  0  0  0  0  2  0  0  0  0  0  0
  181.0840  175.7190  139.7760 C   0  0  0  0  0  1  0  0  0  0  0  0
  182.3100  176.0420  138.9500 C   0  0  0  0  0  2  0  0  0  0  0  0
  188.5510  177.9310  146.3960 C   0  0  0  0  0  3  0  0  0  0  0  0
  188.4460  178.3110  147.8600 C   0  0  0  0  0  2  0  0  0  0  0  0
  188.4630  176.8530  147.4580 C   0  0  0  0  0  2  0  0  0  0  0  0
  2 21  1  0  0  0  0
  2  1  1  0  0  0  0
  3 11  1  0  0  0  0
  4 15  1  0  0  0  0
  5 18  2  0  0  0  0
  6  3  1  0  0  0  0
  7 12  2  0  0  0  0
  7 21  1  0  0  0  0
  8  6  2  0  0  0  0
  9  4  1  0  0  0  0
  9 14  2  0  0  0  0
 10 11  1  0  0  0  0
 11 16  2  0  0  0  0
 12  8  1  0  0  0  0
 13 14  1  0  0  0  0
 13 19  2  0  0  0  0
 14  7  1  0  0  0  0
 15  2  2  0  0  0  0
 16 24  2  0  0  0  0
 17 13  1  0  0  0  0
 18 15  1  0  0  0  0
 19 12  1  0  0  0  0
 20  6  1  0  0  0  0
 20 10  1  0  0  0  0
 21 20  2  0  0  0  0
 22 17  1  0  0  0  0
 23  5  1  0  0  0  0
 23  4  2  0  0  0  0
 24 37  1  0  0  0  0
 26 25  1  0  0  0  0
 26  5  1  0  0  0  0
 27 29  2  0  0  0  0
 28 26  2  0  0  0  0
 29 25  1  0  0  0  0
 29 30  1  0  0  0  0
 30 34  1  0  0  0  0
 31 32  1  0  0  0  0
 31 33  1  0  0  0  0
 32 33  1  0  0  0  0
 32 30  1  0  0  0  0
 34 36  1  0  0  0  0
 36 35  1  0  0  0  0
 37 39  1  0  0  0  0
 37 38  1  0  0  0  0
 39 38  1  0  0  0  0
M  END
>  <MODEL>
8

>  <REMARK>
 VINA RESULT:      -7.8      4.299      8.962
  Name = 
  5 active torsions:
  status: ('A' for Active; 'I' for Inactive)
    1  A    between atoms: C_2  and  C_39
    2  A    between atoms: C_8  and  C_20
    3  A    between atoms: C_8  and  N_38
    4  A    between atoms: C_9  and  C_12
    5  A    between atoms: C_32  and  N_38
                            x       y       z     vdW  Elec       q    Type
                         _______ _______ _______ _____ _____    ______ ____

>  <TORSDO>
F 5

$$$$
