=
 OpenBabel10222421303D

 34 37  0  0  0  0  0  0  0  0999 V2000
  188.1420  178.0730  140.7490 C   0  0  0  0  0  3  0  0  0  0  0  0
  187.0610  177.9490  138.8070 N   0  0  0  0  0  0  0  0  0  0  0  0
  186.9740  178.3460  140.0660 C   0  0  0  0  0  0  0  0  0  0  0  0
  188.9400  177.4670  139.7640 C   0  0  0  0  0  0  0  0  0  0  0  0
  184.8690  178.9880  139.3240 C   0  0  0  0  0  0  0  0  0  0  0  0
  185.7500  178.9460  140.4200 C   0  0  0  0  0  0  0  0  0  0  0  0
  188.2500  177.3980  138.5510 C   0  0  0  0  0  3  0  0  0  0  0  0
  185.6610  178.2910  137.9980 S   0  0  0  0  0  0  0  0  0  0  0  0
  191.0950  177.6060  140.7320 O   0  0  0  0  0  1  0  0  0  0  0  0
  190.7420  175.8220  139.3410 O   0  0  0  0  0  0  0  0  0  0  0  0
  190.3080  176.9790  139.9760 C   0  0  0  0  0  0  0  0  0  0  0  0
  185.4190  179.4670  141.7110 N   0  0  0  0  0  2  0  0  0  0  0  0
  185.0140  178.6320  142.8310 C   0  0  0  0  0  2  0  0  0  0  0  0
  184.3620  179.4850  143.9080 C   0  0  0  0  0  2  0  0  0  0  0  0
  184.4070  178.7930  145.2660 C   0  0  0  0  0  2  0  0  0  0  0  0
  185.7750  178.9250  145.9150 C   0  0  0  0  0  2  0  0  0  0  0  0
  186.4820  177.5830  145.9440 C   0  0  0  0  0  2  0  0  0  0  0  0
  187.7750  177.7110  146.7280 C   0  0  0  0  0  2  0  0  0  0  0  0
  188.9050  177.3200  145.8970 N   0  0  0  0  0  0  0  0  0  0  0  0
  188.7480  177.3720  144.4460 C   0  0  0  0  0  2  0  0  0  0  0  0
  190.2040  177.0890  146.4670 C   0  0  0  0  0  0  0  0  0  0  0  0
  191.2730  176.7490  145.6340 O   0  0  0  0  0  0  0  0  0  0  0  0
  189.7640  176.4640  143.7570 C   0  0  0  0  0  2  0  0  0  0  0  0
  190.3800  177.1480  147.7140 O   0  0  0  0  0  0  0  0  0  0  0  0
  191.1650  176.8510  144.2160 C   0  0  0  0  0  2  0  0  0  0  0  0
  183.4950  179.5700  139.2980 C   0  0  0  0  0  2  0  0  0  0  0  0
  180.9840  177.5510  141.0450 N   0  0  0  0  0  0  0  0  0  0  0  0
  181.7760  178.6430  140.9650 C   0  0  0  0  0  3  0  0  0  0  0  0
  180.4900  175.5620  139.7020 C   0  0  0  0  0  1  0  0  0  0  0  0
  182.0810  177.4030  139.1670 C   0  0  0  0  0  0  0  0  0  0  0  0
  182.4890  178.5750  139.7770 C   0  0  0  0  0  0  0  0  0  0  0  0
  181.1750  176.8140  139.9620 N   0  0  0  0  0  0  0  0  0  0  0  0
  182.4920  176.8700  137.9390 O   0  0  0  0  0  0  0  0  0  0  0  0
  182.0560  177.3790  136.6880 C   0  0  0  0  0  1  0  0  0  0  0  0
  2  3  1  0  0  0  0
  3  6  1  0  0  0  0
  3  1  2  0  0  0  0
  4 11  1  0  0  0  0
  4  1  1  0  0  0  0
  5  6  2  0  0  0  0
  6 12  1  0  0  0  0
  7  2  1  0  0  0  0
  7  4  2  0  0  0  0
  8  2  1  0  0  0  0
  8  5  1  0  0  0  0
 10 11  2  0  0  0  0
 11  9  1  0  0  0  0
 12 13  1  0  0  0  0
 13 14  1  0  0  0  0
 14 15  1  0  0  0  0
 15 16  1  0  0  0  0
 16 17  1  0  0  0  0
 17 18  1  0  0  0  0
 19 21  1  0  0  0  0
 19 18  1  0  0  0  0
 20 19  1  0  0  0  0
 21 24  2  0  0  0  0
 22 21  1  0  0  0  0
 23 25  1  0  0  0  0
 23 20  1  0  0  0  0
 25 22  1  0  0  0  0
 26  5  1  0  0  0  0
 26 31  1  0  0  0  0
 28 27  2  0  0  0  0
 29 32  1  0  0  0  0
 30 31  2  0  0  0  0
 30 32  1  0  0  0  0
 31 28  1  0  0  0  0
 32 27  1  0  0  0  0
 33 30  1  0  0  0  0
 34 33  1  0  0  0  0
M  END
>  <MODEL>
1

>  <REMARK>
 VINA RESULT:      -7.3      0.000      0.000
  Name = 
  12 active torsions:
  status: ('A' for Active; 'I' for Inactive)
    1  A    between atoms: N_1  and  C_14
    2  A    between atoms: O_7  and  C_25
    3  A    between atoms: C_9  and  C_12
    4  A    between atoms: C_10  and  N_13
    5  A    between atoms: C_10  and  C_22
    6  A    between atoms: N_13  and  C_30
    7  A    between atoms: C_14  and  C_15
    8  A    between atoms: C_15  and  C_29
    9  A    between atoms: C_20  and  C_21
   10  A    between atoms: C_20  and  C_26
   11  A    between atoms: C_22  and  C_33
   12  A    between atoms: C_29  and  C_33
                            x       y       z     vdW  Elec       q    Type
                         _______ _______ _______ _____ _____    ______ ____

>  <TORSDO>
F 12

$$$$
=
 OpenBabel10222421303D

 34 37  0  0  0  0  0  0  0  0999 V2000
  188.9930  178.0460  141.9810 C   0  0  0  0  0  3  0  0  0  0  0  0
  189.4360  177.2320  139.9570 N   0  0  0  0  0  0  0  0  0  0  0  0
  188.5590  177.9120  140.6780 C   0  0  0  0  0  0  0  0  0  0  0  0
  190.2250  177.3720  141.9660 C   0  0  0  0  0  0  0  0  0  0  0  0
  187.4620  177.9360  138.6310 C   0  0  0  0  0  0  0  0  0  0  0  0
  187.4140  178.3400  139.9780 C   0  0  0  0  0  0  0  0  0  0  0  0
  190.4920  176.8690  140.6910 C   0  0  0  0  0  3  0  0  0  0  0  0
  188.9100  177.0880  138.3970 S   0  0  0  0  0  0  0  0  0  0  0  0
  191.3500  176.0790  143.5990 O   0  0  0  0  0  0  0  0  0  0  0  0
  191.6960  178.3400  143.7080 O   0  0  0  0  0  1  0  0  0  0  0  0
  191.1130  177.2210  143.1250 C   0  0  0  0  0  0  0  0  0  0  0  0
  186.3340  179.0990  140.5300 N   0  0  0  0  0  2  0  0  0  0  0  0
  185.2790  178.5140  141.3420 C   0  0  0  0  0  2  0  0  0  0  0  0
  185.3610  179.0440  142.7650 C   0  0  0  0  0  2  0  0  0  0  0  0
  184.2810  178.4310  143.6500 C   0  0  0  0  0  2  0  0  0  0  0  0
  184.1670  179.1610  144.9780 C   0  0  0  0  0  2  0  0  0  0  0  0
  185.5190  179.2370  145.6620 C   0  0  0  0  0  2  0  0  0  0  0  0
  185.7080  178.0130  146.5390 C   0  0  0  0  0  2  0  0  0  0  0  0
  187.1250  177.8020  146.8050 N   0  0  0  0  0  0  0  0  0  0  0  0
  187.6060  177.9810  148.1720 C   0  0  0  0  0  2  0  0  0  0  0  0
  187.9920  177.2330  145.8100 C   0  0  0  0  0  0  0  0  0  0  0  0
  189.3380  177.0130  146.1130 O   0  0  0  0  0  0  0  0  0  0  0  0
  189.1090  178.2490  148.1880 C   0  0  0  0  0  2  0  0  0  0  0  0
  187.5620  176.9710  144.6550 O   0  0  0  0  0  0  0  0  0  0  0  0
  189.8200  177.1200  147.4500 C   0  0  0  0  0  2  0  0  0  0  0  0
  186.4510  178.2220  137.5710 C   0  0  0  0  0  2  0  0  0  0  0  0
  185.0400  175.0680  136.3480 N   0  0  0  0  0  0  0  0  0  0  0  0
  186.0310  175.9850  136.3810 C   0  0  0  0  0  3  0  0  0  0  0  0
  182.8440  174.7290  137.3780 C   0  0  0  0  0  1  0  0  0  0  0  0
  184.4100  176.6340  137.7260 C   0  0  0  0  0  0  0  0  0  0  0  0
  185.6570  176.9980  137.2510 C   0  0  0  0  0  0  0  0  0  0  0  0
  184.0730  175.4670  137.1580 N   0  0  0  0  0  0  0  0  0  0  0  0
  183.5940  177.3110  138.6410 O   0  0  0  0  0  0  0  0  0  0  0  0
  182.7530  178.3960  138.2760 C   0  0  0  0  0  1  0  0  0  0  0  0
  2  3  1  0  0  0  0
  2  7  1  0  0  0  0
  3  1  2  0  0  0  0
  4  1  1  0  0  0  0
  4 11  1  0  0  0  0
  5  6  2  0  0  0  0
  6 12  1  0  0  0  0
  6  3  1  0  0  0  0
  7  4  2  0  0  0  0
  8  5  1  0  0  0  0
  8  2  1  0  0  0  0
 11  9  2  0  0  0  0
 11 10  1  0  0  0  0
 12 13  1  0  0  0  0
 13 14  1  0  0  0  0
 14 15  1  0  0  0  0
 15 16  1  0  0  0  0
 16 17  1  0  0  0  0
 17 18  1  0  0  0  0
 18 19  1  0  0  0  0
 19 20  1  0  0  0  0
 20 23  1  0  0  0  0
 21 22  1  0  0  0  0
 21 19  1  0  0  0  0
 22 25  1  0  0  0  0
 24 21  2  0  0  0  0
 25 23  1  0  0  0  0
 26  5  1  0  0  0  0
 27 28  2  0  0  0  0
 27 32  1  0  0  0  0
 28 31  1  0  0  0  0
 30 33  1  0  0  0  0
 31 26  1  0  0  0  0
 31 30  2  0  0  0  0
 32 29  1  0  0  0  0
 32 30  1  0  0  0  0
 34 33  1  0  0  0  0
M  END
>  <MODEL>
2

>  <REMARK>
 VINA RESULT:      -7.2      2.175      3.305
  Name = 
  12 active torsions:
  status: ('A' for Active; 'I' for Inactive)
    1  A    between atoms: N_1  and  C_14
    2  A    between atoms: O_7  and  C_25
    3  A    between atoms: C_9  and  C_12
    4  A    between atoms: C_10  and  N_13
    5  A    between atoms: C_10  and  C_22
    6  A    between atoms: N_13  and  C_30
    7  A    between atoms: C_14  and  C_15
    8  A    between atoms: C_15  and  C_29
    9  A    between atoms: C_20  and  C_21
   10  A    between atoms: C_20  and  C_26
   11  A    between atoms: C_22  and  C_33
   12  A    between atoms: C_29  and  C_33
                            x       y       z     vdW  Elec       q    Type
                         _______ _______ _______ _____ _____    ______ ____

>  <TORSDO>
F 12

$$$$
=
 OpenBabel10222421303D

 34 37  0  0  0  0  0  0  0  0999 V2000
  187.9840  178.0800  141.2480 C   0  0  0  0  0  3  0  0  0  0  0  0
  187.1780  177.9950  139.1750 N   0  0  0  0  0  0  0  0  0  0  0  0
  186.9170  178.3620  140.4190 C   0  0  0  0  0  0  0  0  0  0  0  0
  188.9140  177.5020  140.3670 C   0  0  0  0  0  0  0  0  0  0  0  0
  184.9270  179.0080  139.4120 C   0  0  0  0  0  0  0  0  0  0  0  0
  185.6510  178.9450  140.6170 C   0  0  0  0  0  0  0  0  0  0  0  0
  188.3960  177.4570  139.0700 C   0  0  0  0  0  3  0  0  0  0  0  0
  185.8970  178.3470  138.1910 S   0  0  0  0  0  0  0  0  0  0  0  0
  190.3640  176.0620  141.5610 O   0  0  0  0  0  1  0  0  0  0  0  0
  191.3830  177.6150  140.2240 O   0  0  0  0  0  0  0  0  0  0  0  0
  190.2450  177.0180  140.7510 C   0  0  0  0  0  0  0  0  0  0  0  0
  185.1440  179.4340  141.8620 N   0  0  0  0  0  2  0  0  0  0  0  0
  184.8660  178.5770  143.0040 C   0  0  0  0  0  2  0  0  0  0  0  0
  184.4490  179.4200  144.1990 C   0  0  0  0  0  2  0  0  0  0  0  0
  185.4550  179.3040  145.3390 C   0  0  0  0  0  2  0  0  0  0  0  0
  185.4600  177.9070  145.9390 C   0  0  0  0  0  2  0  0  0  0  0  0
  186.8570  177.5280  146.3940 C   0  0  0  0  0  2  0  0  0  0  0  0
  187.8760  178.1310  145.4450 C   0  0  0  0  0  2  0  0  0  0  0  0
  189.2130  177.6680  145.7870 N   0  0  0  0  0  0  0  0  0  0  0  0
  189.3660  176.7810  146.9370 C   0  0  0  0  0  2  0  0  0  0  0  0
  190.3270  177.8970  144.9080 C   0  0  0  0  0  0  0  0  0  0  0  0
  191.5900  177.4070  145.2530 O   0  0  0  0  0  0  0  0  0  0  0  0
  190.7960  176.8220  147.4690 C   0  0  0  0  0  2  0  0  0  0  0  0
  190.1870  178.5700  143.8520 O   0  0  0  0  0  0  0  0  0  0  0  0
  191.7560  176.4910  146.3330 C   0  0  0  0  0  2  0  0  0  0  0  0
  183.5630  179.5820  139.2130 C   0  0  0  0  0  2  0  0  0  0  0  0
  181.1820  176.9640  138.2560 N   0  0  0  0  0  0  0  0  0  0  0  0
  182.1290  177.8740  137.9390 C   0  0  0  0  0  3  0  0  0  0  0  0
  180.0440  176.1540  140.2680 C   0  0  0  0  0  1  0  0  0  0  0  0
  181.7990  177.9150  140.1180 C   0  0  0  0  0  0  0  0  0  0  0  0
  182.5420  178.4970  139.1070 C   0  0  0  0  0  0  0  0  0  0  0  0
  180.9910  176.9980  139.5650 N   0  0  0  0  0  0  0  0  0  0  0  0
  181.8370  178.1810  141.4930 O   0  0  0  0  0  0  0  0  0  0  0  0
  181.0830  179.2160  142.1030 C   0  0  0  0  0  1  0  0  0  0  0  0
  2  3  1  0  0  0  0
  3  6  1  0  0  0  0
  3  1  2  0  0  0  0
  4 11  1  0  0  0  0
  4  1  1  0  0  0  0
  5  6  2  0  0  0  0
  6 12  1  0  0  0  0
  7  2  1  0  0  0  0
  7  4  2  0  0  0  0
  8  2  1  0  0  0  0
  8  5  1  0  0  0  0
 10 11  2  0  0  0  0
 11  9  1  0  0  0  0
 12 13  1  0  0  0  0
 13 14  1  0  0  0  0
 14 15  1  0  0  0  0
 15 16  1  0  0  0  0
 16 17  1  0  0  0  0
 18 19  1  0  0  0  0
 18 17  1  0  0  0  0
 19 20  1  0  0  0  0
 20 23  1  0  0  0  0
 21 22  1  0  0  0  0
 21 19  1  0  0  0  0
 22 25  1  0  0  0  0
 24 21  2  0  0  0  0
 25 23  1  0  0  0  0
 26  5  1  0  0  0  0
 27 32  1  0  0  0  0
 28 27  2  0  0  0  0
 28 31  1  0  0  0  0
 30 33  1  0  0  0  0
 31 26  1  0  0  0  0
 31 30  2  0  0  0  0
 32 30  1  0  0  0  0
 32 29  1  0  0  0  0
 33 34  1  0  0  0  0
M  END
>  <MODEL>
3

>  <REMARK>
 VINA RESULT:      -7.2      1.227      1.971
  Name = 
  12 active torsions:
  status: ('A' for Active; 'I' for Inactive)
    1  A    between atoms: N_1  and  C_14
    2  A    between atoms: O_7  and  C_25
    3  A    between atoms: C_9  and  C_12
    4  A    between atoms: C_10  and  N_13
    5  A    between atoms: C_10  and  C_22
    6  A    between atoms: N_13  and  C_30
    7  A    between atoms: C_14  and  C_15
    8  A    between atoms: C_15  and  C_29
    9  A    between atoms: C_20  and  C_21
   10  A    between atoms: C_20  and  C_26
   11  A    between atoms: C_22  and  C_33
   12  A    between atoms: C_29  and  C_33
                            x       y       z     vdW  Elec       q    Type
                         _______ _______ _______ _____ _____    ______ ____

>  <TORSDO>
F 12

$$$$
=
 OpenBabel10222421303D

 34 37  0  0  0  0  0  0  0  0999 V2000
  185.7150  178.8290  143.6200 C   0  0  0  0  0  3  0  0  0  0  0  0
  183.7220  178.8070  142.6290 N   0  0  0  0  0  0  0  0  0  0  0  0
  185.0290  178.7970  142.4230 C   0  0  0  0  0  0  0  0  0  0  0  0
  184.6790  178.8610  144.5680 C   0  0  0  0  0  0  0  0  0  0  0  0
  184.3010  178.7290  140.2190 C   0  0  0  0  0  0  0  0  0  0  0  0
  185.4200  178.7520  141.0710 C   0  0  0  0  0  0  0  0  0  0  0  0
  183.4350  178.8440  143.9330 C   0  0  0  0  0  3  0  0  0  0  0  0
  182.9120  178.7590  141.1890 S   0  0  0  0  0  0  0  0  0  0  0  0
  185.6560  179.7410  146.5360 O   0  0  0  0  0  0  0  0  0  0  0  0
  184.1940  178.0060  146.8410 O   0  0  0  0  0  1  0  0  0  0  0  0
  184.8730  178.9000  146.0220 C   0  0  0  0  0  0  0  0  0  0  0  0
  186.7690  178.7200  140.5940 N   0  0  0  0  0  2  0  0  0  0  0  0
  187.8930  178.2750  141.4020 C   0  0  0  0  0  2  0  0  0  0  0  0
  188.9720  177.6790  140.5120 C   0  0  0  0  0  2  0  0  0  0  0  0
  189.9190  176.7880  141.3070 C   0  0  0  0  0  2  0  0  0  0  0  0
  191.2450  177.4820  141.5770 C   0  0  0  0  0  2  0  0  0  0  0  0
  191.3610  177.8580  143.0410 C   0  0  0  0  0  2  0  0  0  0  0  0
  191.2710  176.6040  143.8910 C   0  0  0  0  0  2  0  0  0  0  0  0
  190.4610  176.8580  145.0740 N   0  0  0  0  0  0  0  0  0  0  0  0
  189.0210  177.0310  144.9030 C   0  0  0  0  0  2  0  0  0  0  0  0
  191.0140  176.7380  146.3950 C   0  0  0  0  0  0  0  0  0  0  0  0
  190.1960  176.9550  147.5080 O   0  0  0  0  0  0  0  0  0  0  0  0
  188.4200  177.7890  146.0830 C   0  0  0  0  0  2  0  0  0  0  0  0
  192.2360  176.4810  146.5610 O   0  0  0  0  0  0  0  0  0  0  0  0
  188.7810  177.0640  147.3730 C   0  0  0  0  0  2  0  0  0  0  0  0
  184.3080  178.6540  138.7280 C   0  0  0  0  0  2  0  0  0  0  0  0
  183.3600  175.1770  138.0550 N   0  0  0  0  0  0  0  0  0  0  0  0
  183.1610  176.3570  138.6850 C   0  0  0  0  0  3  0  0  0  0  0  0
  184.9300  174.2260  136.4330 C   0  0  0  0  0  1  0  0  0  0  0  0
  184.9200  176.5360  137.3680 C   0  0  0  0  0  0  0  0  0  0  0  0
  184.1430  177.2430  138.2670 C   0  0  0  0  0  0  0  0  0  0  0  0
  184.4170  175.2960  137.2690 N   0  0  0  0  0  0  0  0  0  0  0  0
  186.0400  176.9740  136.6500 O   0  0  0  0  0  0  0  0  0  0  0  0
  187.3080  177.1930  137.2490 C   0  0  0  0  0  1  0  0  0  0  0  0
  1  4  1  0  0  0  0
  2  7  1  0  0  0  0
  3  2  1  0  0  0  0
  3  1  2  0  0  0  0
  4 11  1  0  0  0  0
  5  6  2  0  0  0  0
  5  8  1  0  0  0  0
  6  3  1  0  0  0  0
  7  4  2  0  0  0  0
  8  2  1  0  0  0  0
 11  9  2  0  0  0  0
 11 10  1  0  0  0  0
 12  6  1  0  0  0  0
 12 13  1  0  0  0  0
 14 15  1  0  0  0  0
 14 13  1  0  0  0  0
 15 16  1  0  0  0  0
 16 17  1  0  0  0  0
 17 18  1  0  0  0  0
 18 19  1  0  0  0  0
 19 21  1  0  0  0  0
 20 19  1  0  0  0  0
 20 23  1  0  0  0  0
 21 24  2  0  0  0  0
 21 22  1  0  0  0  0
 23 25  1  0  0  0  0
 25 22  1  0  0  0  0
 26  5  1  0  0  0  0
 27 28  2  0  0  0  0
 29 32  1  0  0  0  0
 30 31  2  0  0  0  0
 31 28  1  0  0  0  0
 31 26  1  0  0  0  0
 32 30  1  0  0  0  0
 32 27  1  0  0  0  0
 33 34  1  0  0  0  0
 33 30  1  0  0  0  0
M  END
>  <MODEL>
4

>  <REMARK>
 VINA RESULT:      -6.9      2.427      4.854
  Name = 
  12 active torsions:
  status: ('A' for Active; 'I' for Inactive)
    1  A    between atoms: N_1  and  C_14
    2  A    between atoms: O_7  and  C_25
    3  A    between atoms: C_9  and  C_12
    4  A    between atoms: C_10  and  N_13
    5  A    between atoms: C_10  and  C_22
    6  A    between atoms: N_13  and  C_30
    7  A    between atoms: C_14  and  C_15
    8  A    between atoms: C_15  and  C_29
    9  A    between atoms: C_20  and  C_21
   10  A    between atoms: C_20  and  C_26
   11  A    between atoms: C_22  and  C_33
   12  A    between atoms: C_29  and  C_33
                            x       y       z     vdW  Elec       q    Type
                         _______ _______ _______ _____ _____    ______ ____

>  <TORSDO>
F 12

$$$$
=
 OpenBabel10222421303D

 34 37  0  0  0  0  0  0  0  0999 V2000
  191.1010  177.3070  138.8880 C   0  0  0  0  0  3  0  0  0  0  0  0
  190.2790  176.6890  136.9140 N   0  0  0  0  0  0  0  0  0  0  0  0
  190.0160  177.3410  138.0340 C   0  0  0  0  0  0  0  0  0  0  0  0
  192.0430  176.5620  138.1580 C   0  0  0  0  0  0  0  0  0  0  0  0
  187.9940  177.6540  136.9360 C   0  0  0  0  0  0  0  0  0  0  0  0
  188.7320  177.9130  138.1070 C   0  0  0  0  0  0  0  0  0  0  0  0
  191.5150  176.1830  136.9220 C   0  0  0  0  0  3  0  0  0  0  0  0
  188.9770  176.7450  135.8970 S   0  0  0  0  0  0  0  0  0  0  0  0
  193.9210  176.8880  139.5620 O   0  0  0  0  0  1  0  0  0  0  0  0
  194.1020  175.1920  138.0350 O   0  0  0  0  0  0  0  0  0  0  0  0
  193.3940  176.2320  138.6260 C   0  0  0  0  0  0  0  0  0  0  0  0
  188.2180  178.6750  139.2030 N   0  0  0  0  0  2  0  0  0  0  0  0
  187.7190  178.0750  140.4300 C   0  0  0  0  0  2  0  0  0  0  0  0
  188.6440  178.4120  141.5890 C   0  0  0  0  0  2  0  0  0  0  0  0
  189.0960  177.1540  142.3230 C   0  0  0  0  0  2  0  0  0  0  0  0
  189.0120  177.3280  143.8320 C   0  0  0  0  0  2  0  0  0  0  0  0
  187.6770  176.8300  144.3510 C   0  0  0  0  0  2  0  0  0  0  0  0
  187.1480  177.8020  145.3900 C   0  0  0  0  0  2  0  0  0  0  0  0
  185.8310  178.2850  144.9980 N   0  0  0  0  0  0  0  0  0  0  0  0
  185.4250  178.1330  143.6030 C   0  0  0  0  0  2  0  0  0  0  0  0
  184.8710  178.7080  145.9800 C   0  0  0  0  0  0  0  0  0  0  0  0
  183.6050  179.1320  145.5680 O   0  0  0  0  0  0  0  0  0  0  0  0
  184.3160  179.1200  143.2500 C   0  0  0  0  0  2  0  0  0  0  0  0
  185.1720  178.7410  147.2030 O   0  0  0  0  0  0  0  0  0  0  0  0
  183.1610  178.9380  144.2270 C   0  0  0  0  0  2  0  0  0  0  0  0
  186.6090  178.1150  136.6270 C   0  0  0  0  0  2  0  0  0  0  0  0
  184.5370  175.2120  137.4750 N   0  0  0  0  0  0  0  0  0  0  0  0
  185.6320  175.7560  136.8980 C   0  0  0  0  0  3  0  0  0  0  0  0
  182.5890  175.9730  138.7500 C   0  0  0  0  0  1  0  0  0  0  0  0
  184.4460  177.3600  137.8360 C   0  0  0  0  0  0  0  0  0  0  0  0
  185.6000  177.1260  137.1110 C   0  0  0  0  0  0  0  0  0  0  0  0
  183.8330  176.1830  138.0340 N   0  0  0  0  0  0  0  0  0  0  0  0
  183.9490  178.5780  138.3160 O   0  0  0  0  0  0  0  0  0  0  0  0
  184.3980  179.1770  139.5230 C   0  0  0  0  0  1  0  0  0  0  0  0
  2  7  1  0  0  0  0
  2  3  1  0  0  0  0
  3  6  1  0  0  0  0
  3  1  2  0  0  0  0
  4 11  1  0  0  0  0
  4  1  1  0  0  0  0
  5  6  2  0  0  0  0
  6 12  1  0  0  0  0
  7  4  2  0  0  0  0
  8  2  1  0  0  0  0
  8  5  1  0  0  0  0
 10 11  2  0  0  0  0
 11  9  1  0  0  0  0
 12 13  1  0  0  0  0
 13 14  1  0  0  0  0
 14 15  1  0  0  0  0
 15 16  1  0  0  0  0
 16 17  1  0  0  0  0
 17 18  1  0  0  0  0
 19 18  1  0  0  0  0
 19 21  1  0  0  0  0
 20 19  1  0  0  0  0
 21 24  2  0  0  0  0
 22 21  1  0  0  0  0
 23 20  1  0  0  0  0
 23 25  1  0  0  0  0
 25 22  1  0  0  0  0
 26  5  1  0  0  0  0
 26 31  1  0  0  0  0
 27 32  1  0  0  0  0
 28 31  1  0  0  0  0
 28 27  2  0  0  0  0
 30 32  1  0  0  0  0
 30 33  1  0  0  0  0
 31 30  2  0  0  0  0
 32 29  1  0  0  0  0
 33 34  1  0  0  0  0
M  END
>  <MODEL>
5

>  <REMARK>
 VINA RESULT:      -6.9      2.827      4.457
  Name = 
  12 active torsions:
  status: ('A' for Active; 'I' for Inactive)
    1  A    between atoms: N_1  and  C_14
    2  A    between atoms: O_7  and  C_25
    3  A    between atoms: C_9  and  C_12
    4  A    between atoms: C_10  and  N_13
    5  A    between atoms: C_10  and  C_22
    6  A    between atoms: N_13  and  C_30
    7  A    between atoms: C_14  and  C_15
    8  A    between atoms: C_15  and  C_29
    9  A    between atoms: C_20  and  C_21
   10  A    between atoms: C_20  and  C_26
   11  A    between atoms: C_22  and  C_33
   12  A    between atoms: C_29  and  C_33
                            x       y       z     vdW  Elec       q    Type
                         _______ _______ _______ _____ _____    ______ ____

>  <TORSDO>
F 12

$$$$
=
 OpenBabel10222421303D

 34 37  0  0  0  0  0  0  0  0999 V2000
  185.2540  178.8220  142.4310 C   0  0  0  0  0  3  0  0  0  0  0  0
  184.0450  178.6170  140.5740 N   0  0  0  0  0  0  0  0  0  0  0  0
  185.2740  178.6710  141.0590 C   0  0  0  0  0  0  0  0  0  0  0  0
  183.8790  178.8530  142.7170 C   0  0  0  0  0  0  0  0  0  0  0  0
  185.7720  178.4160  138.8060 C   0  0  0  0  0  0  0  0  0  0  0  0
  186.3010  178.5620  140.1020 C   0  0  0  0  0  0  0  0  0  0  0  0
  183.1330  178.7210  141.5440 C   0  0  0  0  0  3  0  0  0  0  0  0
  184.0830  178.4260  138.9320 S   0  0  0  0  0  0  0  0  0  0  0  0
  182.0810  178.7770  144.2550 O   0  0  0  0  0  0  0  0  0  0  0  0
  184.1090  179.3840  145.1250 O   0  0  0  0  0  1  0  0  0  0  0  0
  183.3040  178.9980  144.0600 C   0  0  0  0  0  0  0  0  0  0  0  0
  187.7050  178.5790  140.3780 N   0  0  0  0  0  2  0  0  0  0  0  0
  188.3460  177.6740  141.3190 C   0  0  0  0  0  2  0  0  0  0  0  0
  189.8440  177.6320  141.0640 C   0  0  0  0  0  2  0  0  0  0  0  0
  190.5880  176.9900  142.2290 C   0  0  0  0  0  2  0  0  0  0  0  0
  191.3840  178.0180  143.0190 C   0  0  0  0  0  2  0  0  0  0  0  0
  190.8190  178.1660  144.4190 C   0  0  0  0  0  2  0  0  0  0  0  0
  190.0380  176.9170  144.7810 C   0  0  0  0  0  2  0  0  0  0  0  0
  188.9610  177.2500  145.7030 N   0  0  0  0  0  0  0  0  0  0  0  0
  189.3060  177.9040  146.9620 C   0  0  0  0  0  2  0  0  0  0  0  0
  187.5830  177.1350  145.3110 C   0  0  0  0  0  0  0  0  0  0  0  0
  186.5780  177.4980  146.2120 O   0  0  0  0  0  0  0  0  0  0  0  0
  188.2040  177.7040  147.9990 C   0  0  0  0  0  2  0  0  0  0  0  0
  187.2710  176.6720  144.1820 O   0  0  0  0  0  0  0  0  0  0  0  0
  186.8830  178.1930  147.4180 C   0  0  0  0  0  2  0  0  0  0  0  0
  186.5400  178.2450  137.5370 C   0  0  0  0  0  2  0  0  0  0  0  0
  186.3100  174.7080  136.6010 N   0  0  0  0  0  0  0  0  0  0  0  0
  185.7560  175.9330  136.7390 C   0  0  0  0  0  3  0  0  0  0  0  0
  188.4890  173.6490  136.9610 C   0  0  0  0  0  1  0  0  0  0  0  0
  187.8700  176.0290  137.3590 C   0  0  0  0  0  0  0  0  0  0  0  0
  186.7280  176.7970  137.2220 C   0  0  0  0  0  0  0  0  0  0  0  0
  187.5770  174.7780  136.9760 N   0  0  0  0  0  0  0  0  0  0  0  0
  189.1380  176.4230  137.8030 O   0  0  0  0  0  0  0  0  0  0  0  0
  190.0640  177.1220  136.9850 C   0  0  0  0  0  1  0  0  0  0  0  0
  1  4  1  0  0  0  0
  2  3  1  0  0  0  0
  2  7  1  0  0  0  0
  3  1  2  0  0  0  0
  4 11  1  0  0  0  0
  5  8  1  0  0  0  0
  5  6  2  0  0  0  0
  6 12  1  0  0  0  0
  6  3  1  0  0  0  0
  7  4  2  0  0  0  0
  8  2  1  0  0  0  0
 11  9  2  0  0  0  0
 11 10  1  0  0  0  0
 12 13  1  0  0  0  0
 14 13  1  0  0  0  0
 14 15  1  0  0  0  0
 15 16  1  0  0  0  0
 16 17  1  0  0  0  0
 17 18  1  0  0  0  0
 18 19  1  0  0  0  0
 19 20  1  0  0  0  0
 20 23  1  0  0  0  0
 21 19  1  0  0  0  0
 21 22  1  0  0  0  0
 22 25  1  0  0  0  0
 24 21  2  0  0  0  0
 25 23  1  0  0  0  0
 26  5  1  0  0  0  0
 27 28  2  0  0  0  0
 27 32  1  0  0  0  0
 28 31  1  0  0  0  0
 29 32  1  0  0  0  0
 30 33  1  0  0  0  0
 31 30  2  0  0  0  0
 31 26  1  0  0  0  0
 32 30  1  0  0  0  0
 34 33  1  0  0  0  0
M  END
>  <MODEL>
6

>  <REMARK>
 VINA RESULT:      -6.8      2.702      5.626
  Name = 
  12 active torsions:
  status: ('A' for Active; 'I' for Inactive)
    1  A    between atoms: N_1  and  C_14
    2  A    between atoms: O_7  and  C_25
    3  A    between atoms: C_9  and  C_12
    4  A    between atoms: C_10  and  N_13
    5  A    between atoms: C_10  and  C_22
    6  A    between atoms: N_13  and  C_30
    7  A    between atoms: C_14  and  C_15
    8  A    between atoms: C_15  and  C_29
    9  A    between atoms: C_20  and  C_21
   10  A    between atoms: C_20  and  C_26
   11  A    between atoms: C_22  and  C_33
   12  A    between atoms: C_29  and  C_33
                            x       y       z     vdW  Elec       q    Type
                         _______ _______ _______ _____ _____    ______ ____

>  <TORSDO>
F 12

$$$$
=
 OpenBabel10222421303D

 34 37  0  0  0  0  0  0  0  0999 V2000
  188.6560  178.1510  140.2660 C   0  0  0  0  0  3  0  0  0  0  0  0
  187.8940  177.3210  138.3460 N   0  0  0  0  0  0  0  0  0  0  0  0
  187.5720  178.0210  139.4210 C   0  0  0  0  0  0  0  0  0  0  0  0
  189.6640  177.4510  139.5810 C   0  0  0  0  0  0  0  0  0  0  0  0
  185.5270  178.0610  138.3220 C   0  0  0  0  0  0  0  0  0  0  0  0
  186.2380  178.4700  139.4650 C   0  0  0  0  0  0  0  0  0  0  0  0
  189.1730  176.9380  138.3780 C   0  0  0  0  0  3  0  0  0  0  0  0
  186.5900  177.1810  137.3390 S   0  0  0  0  0  0  0  0  0  0  0  0
  191.3320  177.5260  141.2590 O   0  0  0  0  0  1  0  0  0  0  0  0
  192.0370  176.8630  139.1840 O   0  0  0  0  0  0  0  0  0  0  0  0
  191.0420  177.2850  140.0580 C   0  0  0  0  0  0  0  0  0  0  0  0
  185.6560  179.2540  140.5110 N   0  0  0  0  0  2  0  0  0  0  0  0
  185.6660  178.8550  141.9100 C   0  0  0  0  0  2  0  0  0  0  0  0
  184.3040  179.1120  142.5360 C   0  0  0  0  0  2  0  0  0  0  0  0
  184.1760  178.4230  143.8890 C   0  0  0  0  0  2  0  0  0  0  0  0
  184.7780  179.2630  145.0040 C   0  0  0  0  0  2  0  0  0  0  0  0
  185.5810  178.3940  145.9530 C   0  0  0  0  0  2  0  0  0  0  0  0
  186.6340  177.6330  145.1680 C   0  0  0  0  0  2  0  0  0  0  0  0
  187.8650  177.5440  145.9390 N   0  0  0  0  0  0  0  0  0  0  0  0
  187.7760  177.6120  147.3950 C   0  0  0  0  0  2  0  0  0  0  0  0
  189.1110  177.1900  145.3150 C   0  0  0  0  0  0  0  0  0  0  0  0
  190.2660  177.0790  146.0940 O   0  0  0  0  0  0  0  0  0  0  0  0
  189.1120  178.0330  148.0030 C   0  0  0  0  0  2  0  0  0  0  0  0
  189.1820  177.0200  144.0690 O   0  0  0  0  0  0  0  0  0  0  0  0
  190.1980  177.0800  147.5190 C   0  0  0  0  0  2  0  0  0  0  0  0
  184.1020  178.3640  137.9940 C   0  0  0  0  0  2  0  0  0  0  0  0
  182.0680  175.7730  139.6030 N   0  0  0  0  0  0  0  0  0  0  0  0
  182.8670  176.8610  139.6710 C   0  0  0  0  0  3  0  0  0  0  0  0
  181.1080  174.3300  137.8720 C   0  0  0  0  0  1  0  0  0  0  0  0
  182.5880  176.3090  137.5550 C   0  0  0  0  0  0  0  0  0  0  0  0
  183.2150  177.2250  138.3780 C   0  0  0  0  0  0  0  0  0  0  0  0
  181.9080  175.4500  138.3300 N   0  0  0  0  0  0  0  0  0  0  0  0
  182.6090  176.2350  136.1570 O   0  0  0  0  0  0  0  0  0  0  0  0
  183.6370  175.5790  135.4300 C   0  0  0  0  0  1  0  0  0  0  0  0
  2  7  1  0  0  0  0
  2  3  1  0  0  0  0
  3  6  1  0  0  0  0
  3  1  2  0  0  0  0
  4 11  1  0  0  0  0
  4  1  1  0  0  0  0
  5  6  2  0  0  0  0
  6 12  1  0  0  0  0
  7  4  2  0  0  0  0
  8  5  1  0  0  0  0
  8  2  1  0  0  0  0
 10 11  2  0  0  0  0
 11  9  1  0  0  0  0
 12 13  1  0  0  0  0
 13 14  1  0  0  0  0
 14 15  1  0  0  0  0
 15 16  1  0  0  0  0
 16 17  1  0  0  0  0
 18 19  1  0  0  0  0
 18 17  1  0  0  0  0
 19 20  1  0  0  0  0
 20 23  1  0  0  0  0
 21 19  1  0  0  0  0
 21 22  1  0  0  0  0
 22 25  1  0  0  0  0
 24 21  2  0  0  0  0
 25 23  1  0  0  0  0
 26  5  1  0  0  0  0
 26 31  1  0  0  0  0
 27 28  2  0  0  0  0
 29 32  1  0  0  0  0
 30 32  1  0  0  0  0
 30 31  2  0  0  0  0
 31 28  1  0  0  0  0
 32 27  1  0  0  0  0
 33 30  1  0  0  0  0
 34 33  1  0  0  0  0
M  END
>  <MODEL>
7

>  <REMARK>
 VINA RESULT:      -6.8      1.423      2.002
  Name = 
  12 active torsions:
  status: ('A' for Active; 'I' for Inactive)
    1  A    between atoms: N_1  and  C_14
    2  A    between atoms: O_7  and  C_25
    3  A    between atoms: C_9  and  C_12
    4  A    between atoms: C_10  and  N_13
    5  A    between atoms: C_10  and  C_22
    6  A    between atoms: N_13  and  C_30
    7  A    between atoms: C_14  and  C_15
    8  A    between atoms: C_15  and  C_29
    9  A    between atoms: C_20  and  C_21
   10  A    between atoms: C_20  and  C_26
   11  A    between atoms: C_22  and  C_33
   12  A    between atoms: C_29  and  C_33
                            x       y       z     vdW  Elec       q    Type
                         _______ _______ _______ _____ _____    ______ ____

>  <TORSDO>
F 12

$$$$
=
 OpenBabel10222421303D

 34 37  0  0  0  0  0  0  0  0999 V2000
  185.8050  178.5050  143.2380 C   0  0  0  0  0  3  0  0  0  0  0  0
  185.1710  178.6980  141.1130 N   0  0  0  0  0  0  0  0  0  0  0  0
  186.2040  178.5040  141.9170 C   0  0  0  0  0  0  0  0  0  0  0  0
  184.4200  178.7230  143.1410 C   0  0  0  0  0  0  0  0  0  0  0  0
  187.3000  178.4200  139.8710 C   0  0  0  0  0  0  0  0  0  0  0  0
  187.4430  178.3390  141.2690 C   0  0  0  0  0  0  0  0  0  0  0  0
  184.0370  178.8400  141.8030 C   0  0  0  0  0  3  0  0  0  0  0  0
  185.6610  178.6840  139.5340 S   0  0  0  0  0  0  0  0  0  0  0  0
  182.2600  178.7270  144.1070 O   0  0  0  0  0  0  0  0  0  0  0  0
  184.0030  178.9870  145.5670 O   0  0  0  0  0  1  0  0  0  0  0  0
  183.5030  178.8100  144.2830 C   0  0  0  0  0  0  0  0  0  0  0  0
  188.6980  178.1030  141.9150 N   0  0  0  0  0  2  0  0  0  0  0  0
  189.5030  176.9140  141.6880 C   0  0  0  0  0  2  0  0  0  0  0  0
  190.9380  177.3080  141.3760 C   0  0  0  0  0  2  0  0  0  0  0  0
  191.8460  177.1000  142.5830 C   0  0  0  0  0  2  0  0  0  0  0  0
  191.4700  175.8450  143.3550 C   0  0  0  0  0  2  0  0  0  0  0  0
  191.6020  176.0800  144.8480 C   0  0  0  0  0  2  0  0  0  0  0  0
  191.2120  177.5110  145.1680 C   0  0  0  0  0  2  0  0  0  0  0  0
  190.0440  177.5290  146.0380 N   0  0  0  0  0  0  0  0  0  0  0  0
  188.7210  177.4920  145.4210 C   0  0  0  0  0  2  0  0  0  0  0  0
  190.1740  177.3760  147.4610 C   0  0  0  0  0  0  0  0  0  0  0  0
  189.0270  177.3630  148.2600 O   0  0  0  0  0  0  0  0  0  0  0  0
  187.6620  178.0390  146.3730 C   0  0  0  0  0  2  0  0  0  0  0  0
  191.3100  177.2970  148.0000 O   0  0  0  0  0  0  0  0  0  0  0  0
  187.7270  177.2640  147.6840 C   0  0  0  0  0  2  0  0  0  0  0  0
  188.3760  178.2690  138.8470 C   0  0  0  0  0  2  0  0  0  0  0  0
  187.2960  175.4130  136.8190 N   0  0  0  0  0  0  0  0  0  0  0  0
  187.0740  176.6330  137.3570 C   0  0  0  0  0  3  0  0  0  0  0  0
  189.0890  173.7450  136.7790 C   0  0  0  0  0  1  0  0  0  0  0  0
  189.0880  175.9510  137.9370 C   0  0  0  0  0  0  0  0  0  0  0  0
  188.2000  177.0020  138.0770 C   0  0  0  0  0  0  0  0  0  0  0  0
  188.5060  175.0140  137.1740 N   0  0  0  0  0  0  0  0  0  0  0  0
  190.3800  175.8240  138.4630 O   0  0  0  0  0  0  0  0  0  0  0  0
  191.5480  176.2080  137.7530 C   0  0  0  0  0  1  0  0  0  0  0  0
  2  7  1  0  0  0  0
  2  3  1  0  0  0  0
  3  1  2  0  0  0  0
  4  1  1  0  0  0  0
  4 11  1  0  0  0  0
  5  6  2  0  0  0  0
  6 12  1  0  0  0  0
  6  3  1  0  0  0  0
  7  4  2  0  0  0  0
  8  5  1  0  0  0  0
  8  2  1  0  0  0  0
  9 11  2  0  0  0  0
 11 10  1  0  0  0  0
 13 12  1  0  0  0  0
 14 13  1  0  0  0  0
 14 15  1  0  0  0  0
 15 16  1  0  0  0  0
 16 17  1  0  0  0  0
 17 18  1  0  0  0  0
 18 19  1  0  0  0  0
 19 21  1  0  0  0  0
 20 19  1  0  0  0  0
 20 23  1  0  0  0  0
 21 24  2  0  0  0  0
 21 22  1  0  0  0  0
 23 25  1  0  0  0  0
 25 22  1  0  0  0  0
 26  5  1  0  0  0  0
 27 32  1  0  0  0  0
 27 28  2  0  0  0  0
 28 31  1  0  0  0  0
 29 32  1  0  0  0  0
 30 31  2  0  0  0  0
 30 33  1  0  0  0  0
 31 26  1  0  0  0  0
 32 30  1  0  0  0  0
 34 33  1  0  0  0  0
M  END
>  <MODEL>
8

>  <REMARK>
 VINA RESULT:      -6.8      2.600      5.915
  Name = 
  12 active torsions:
  status: ('A' for Active; 'I' for Inactive)
    1  A    between atoms: N_1  and  C_14
    2  A    between atoms: O_7  and  C_25
    3  A    between atoms: C_9  and  C_12
    4  A    between atoms: C_10  and  N_13
    5  A    between atoms: C_10  and  C_22
    6  A    between atoms: N_13  and  C_30
    7  A    between atoms: C_14  and  C_15
    8  A    between atoms: C_15  and  C_29
    9  A    between atoms: C_20  and  C_21
   10  A    between atoms: C_20  and  C_26
   11  A    between atoms: C_22  and  C_33
   12  A    between atoms: C_29  and  C_33
                            x       y       z     vdW  Elec       q    Type
                         _______ _______ _______ _____ _____    ______ ____

>  <TORSDO>
F 12

$$$$
=
 OpenBabel10222421303D

 34 37  0  0  0  0  0  0  0  0999 V2000
  185.4900  178.9140  143.2900 C   0  0  0  0  0  3  0  0  0  0  0  0
  183.4010  178.7310  142.5440 N   0  0  0  0  0  0  0  0  0  0  0  0
  184.6670  178.8670  142.1830 C   0  0  0  0  0  0  0  0  0  0  0  0
  184.5810  178.7940  144.3550 C   0  0  0  0  0  0  0  0  0  0  0  0
  183.6810  178.8240  140.0810 C   0  0  0  0  0  0  0  0  0  0  0  0
  184.8900  178.9250  140.7940 C   0  0  0  0  0  0  0  0  0  0  0  0
  183.2750  178.6780  143.8720 C   0  0  0  0  0  3  0  0  0  0  0  0
  182.4270  178.6640  141.2090 S   0  0  0  0  0  0  0  0  0  0  0  0
  184.1170  178.4230  146.6460 O   0  0  0  0  0  1  0  0  0  0  0  0
  186.2220  179.1820  146.1680 O   0  0  0  0  0  0  0  0  0  0  0  0
  184.9500  178.7860  145.7760 C   0  0  0  0  0  0  0  0  0  0  0  0
  186.1650  179.0560  140.1590 N   0  0  0  0  0  2  0  0  0  0  0  0
  187.1090  177.9570  140.0290 C   0  0  0  0  0  2  0  0  0  0  0  0
  188.5130  178.4330  140.3670 C   0  0  0  0  0  2  0  0  0  0  0  0
  189.5370  177.8930  139.3750 C   0  0  0  0  0  2  0  0  0  0  0  0
  190.5720  177.0160  140.0620 C   0  0  0  0  0  2  0  0  0  0  0  0
  190.7040  177.3960  141.5250 C   0  0  0  0  0  2  0  0  0  0  0  0
  190.5240  176.1580  142.3840 C   0  0  0  0  0  2  0  0  0  0  0  0
  190.1470  176.5400  143.7380 N   0  0  0  0  0  0  0  0  0  0  0  0
  191.1820  177.0660  144.6230 C   0  0  0  0  0  2  0  0  0  0  0  0
  188.7670  176.5990  144.1370 C   0  0  0  0  0  0  0  0  0  0  0  0
  188.4410  177.0030  145.4340 O   0  0  0  0  0  0  0  0  0  0  0  0
  190.7750  176.9120  146.0870 C   0  0  0  0  0  2  0  0  0  0  0  0
  187.8510  176.2510  143.3440 O   0  0  0  0  0  0  0  0  0  0  0  0
  189.4210  177.5780  146.2960 C   0  0  0  0  0  2  0  0  0  0  0  0
  183.5100  178.8190  138.5980 C   0  0  0  0  0  2  0  0  0  0  0  0
  185.0760  176.0080  136.8420 N   0  0  0  0  0  0  0  0  0  0  0  0
  185.0160  177.3220  137.1550 C   0  0  0  0  0  3  0  0  0  0  0  0
  183.8470  173.9570  137.3750 C   0  0  0  0  0  1  0  0  0  0  0  0
  183.3880  176.2630  138.1980 C   0  0  0  0  0  0  0  0  0  0  0  0
  183.9480  177.5150  138.0180 C   0  0  0  0  0  0  0  0  0  0  0  0
  184.0950  175.3830  137.4730 N   0  0  0  0  0  0  0  0  0  0  0  0
  182.2870  175.9050  138.9860 O   0  0  0  0  0  0  0  0  0  0  0  0
  180.9510  175.9280  138.5080 C   0  0  0  0  0  1  0  0  0  0  0  0
  1  4  1  0  0  0  0
  2  7  1  0  0  0  0
  3  2  1  0  0  0  0
  3  1  2  0  0  0  0
  4 11  1  0  0  0  0
  5  6  2  0  0  0  0
  5  8  1  0  0  0  0
  6  3  1  0  0  0  0
  7  4  2  0  0  0  0
  8  2  1  0  0  0  0
 11 10  2  0  0  0  0
 11  9  1  0  0  0  0
 12  6  1  0  0  0  0
 13 12  1  0  0  0  0
 13 14  1  0  0  0  0
 15 16  1  0  0  0  0
 15 14  1  0  0  0  0
 16 17  1  0  0  0  0
 17 18  1  0  0  0  0
 18 19  1  0  0  0  0
 19 21  1  0  0  0  0
 19 20  1  0  0  0  0
 20 23  1  0  0  0  0
 21 22  1  0  0  0  0
 22 25  1  0  0  0  0
 23 25  1  0  0  0  0
 24 21  2  0  0  0  0
 26  5  1  0  0  0  0
 27 28  2  0  0  0  0
 27 32  1  0  0  0  0
 28 31  1  0  0  0  0
 29 32  1  0  0  0  0
 30 33  1  0  0  0  0
 31 30  2  0  0  0  0
 31 26  1  0  0  0  0
 32 30  1  0  0  0  0
 34 33  1  0  0  0  0
M  END
>  <MODEL>
9

>  <REMARK>
 VINA RESULT:      -6.8      2.469      4.928
  Name = 
  12 active torsions:
  status: ('A' for Active; 'I' for Inactive)
    1  A    between atoms: N_1  and  C_14
    2  A    between atoms: O_7  and  C_25
    3  A    between atoms: C_9  and  C_12
    4  A    between atoms: C_10  and  N_13
    5  A    between atoms: C_10  and  C_22
    6  A    between atoms: N_13  and  C_30
    7  A    between atoms: C_14  and  C_15
    8  A    between atoms: C_15  and  C_29
    9  A    between atoms: C_20  and  C_21
   10  A    between atoms: C_20  and  C_26
   11  A    between atoms: C_22  and  C_33
   12  A    between atoms: C_29  and  C_33
                            x       y       z     vdW  Elec       q    Type
                         _______ _______ _______ _____ _____    ______ ____

>  <TORSDO>
F 12

$$$$
