=
 OpenBabel10232411353D

 48 52  0  0  1  0  0  0  0  0999 V2000
  188.9690  178.4350  140.9970 C   0  0  0  0  0  2  0  0  0  0  0  0
  188.9650  176.5000  138.7720 C   0  0  0  0  0  0  0  0  0  0  0  0
  189.5870  176.7930  141.4340 S   0  0  0  0  0  0  0  0  0  0  0  0
  186.3050  176.5530  135.5810 C   0  0  0  0  0  0  0  0  0  0  0  0
  187.0330  176.6320  136.8280 C   0  0  0  0  0  0  0  0  0  0  0  0
  186.9520  175.8640  134.6930 N   0  0  0  0  0  0  0  0  0  0  0  0
  187.7220  178.3240  140.1300 C   0  0  1  0  0  3  0  0  0  0  0  0
  189.1030  175.7940  137.6130 N   0  0  0  0  0  0  0  0  0  0  0  0
  188.1780  175.3090  135.2840 C   0  0  0  0  0  2  0  0  0  0  0  0
  187.8490  177.3770  138.9530 C   0  0  0  0  0  0  0  0  0  0  0  0
  183.8440  176.9810  136.0070 C   0  0  0  0  0  0  0  0  0  0  0  0
  182.8550  177.7300  135.7750 O   0  0  0  0  0  0  0  0  0  0  0  0
  190.1270  176.4740  139.7220 C   0  0  2  0  0  3  0  0  0  0  0  0
  188.1320  175.8460  136.6700 C   0  0  0  0  0  0  0  0  0  0  0  0
  185.0710  177.2080  135.2900 N   0  0  0  0  0  2  0  0  0  0  0  0
  186.8620  177.4350  137.9490 C   0  0  0  0  0  3  0  0  0  0  0  0
  183.4840  174.5320  136.4300 N   0  0  0  0  0  2  0  0  0  0  0  0
  183.6520  176.0430  138.1980 O   0  0  0  0  0  0  0  0  0  0  0  0
  183.6670  175.8560  136.9480 C   0  0  0  0  0  0  0  0  0  0  0  0
  183.6270  173.3620  137.2840 C   0  0  1  0  0  3  0  0  0  0  0  0
  182.5300  172.3610  136.9690 C   0  0  0  0  0  1  0  0  0  0  0  0
  184.9760  172.7480  137.0840 C   0  0  0  0  0  0  0  0  0  0  0  0
  185.9790  172.9770  138.0200 O   0  0  0  0  0  1  0  0  0  0  0  0
  185.2160  172.0400  136.0700 O   0  0  0  0  0  0  0  0  0  0  0  0
  191.1730  177.4740  139.2390 C   0  0  0  0  0  2  0  0  0  0  0  0
  193.1150  176.5220  137.9820 C   0  0  0  0  0  0  0  0  0  0  0  0
  193.7820  176.4740  139.0550 O   0  0  0  0  0  0  0  0  0  0  0  0
  191.7870  177.0570  137.9860 N   0  0  0  0  0  2  0  0  0  0  0  0
  192.1010  174.0900  137.2770 O   0  0  0  0  0  1  0  0  0  0  0  0
  195.8550  174.9870  136.4090 C   0  0  2  0  0  3  0  0  0  0  0  0
  193.6780  175.8900  136.7430 C   0  0  2  0  0  3  0  0  0  0  0  0
  193.1000  174.5640  136.4220 C   0  0  2  0  0  0  0  0  0  0  0  0
  192.8760  174.3650  134.9210 C   0  0  0  0  0  1  0  0  0  0  0  0
  195.2300  173.7950  136.1330 O   0  0  0  0  0  0  0  0  0  0  0  0
  194.5170  174.6040  137.0670 C   0  0  1  0  0  0  0  0  0  0  0  0
  195.8850  175.7570  135.1150 C   0  0  0  0  0  3  0  0  0  0  0  0
  196.7030  176.8010  135.0000 C   0  0  0  0  0  2  0  0  0  0  0  0
  186.4920  178.0220  140.9790 C   0  0  0  0  0  2  0  0  0  0  0  0
  185.6020  179.2650  141.1160 C   0  0  1  0  0  3  0  0  0  0  0  0
  183.6770  179.1360  139.8810 C   0  0  0  0  0  1  0  0  0  0  0  0
  184.9980  179.6150  139.8830 O   0  0  0  0  0  0  0  0  0  0  0  0
  184.6020  179.1400  142.1860 N   0  0  0  0  0  2  0  0  0  0  0  0
  184.8800  179.4060  143.5560 C   0  0  0  0  0  3  0  0  0  0  0  0
  185.1130  178.3980  144.3890 C   0  0  0  0  0  3  0  0  0  0  0  0
  184.2890  178.3510  146.6050 F   0  0  0  0  0  0  0  0  0  0  0  0
  185.4110  178.6190  145.8390 C   0  0  1  0  0  3  0  0  0  0  0  0
  186.5800  177.7680  146.3180 C   0  0  0  0  0  2  0  0  0  0  0  0
  187.7150  178.0520  145.5540 O   0  0  0  0  0  1  0  0  0  0  0  0
  1  3  1  0  0  0  0
  2 10  1  0  0  0  0
  2 13  1  0  0  0  0
  4  5  1  0  0  0  0
  5 16  1  0  0  0  0
  6  9  1  0  0  0  0
  6  4  2  0  0  0  0
  7 38  1  1  0  0  0
  7  1  1  0  0  0  0
  8  2  2  0  0  0  0
  9 14  1  0  0  0  0
 10  7  1  0  0  0  0
 11 19  1  0  0  0  0
 12 11  2  0  0  0  0
 13 25  1  6  0  0  0
 13  3  1  0  0  0  0
 14  5  2  0  0  0  0
 14  8  1  0  0  0  0
 15  4  1  0  0  0  0
 15 11  1  0  0  0  0
 16 10  2  0  0  0  0
 17 19  1  0  0  0  0
 17 20  1  0  0  0  0
 19 18  2  0  0  0  0
 20 21  1  6  0  0  0
 22 20  1  0  0  0  0
 22 23  1  0  0  0  0
 24 22  2  0  0  0  0
 26 28  1  0  0  0  0
 26 27  2  0  0  0  0
 28 25  1  0  0  0  0
 30 36  1  6  0  0  0
 30 35  1  0  0  0  0
 31 35  1  0  0  0  0
 31 26  1  1  0  0  0
 32 33  1  6  0  0  0
 32 31  1  0  0  0  0
 32 35  1  0  0  0  0
 32 29  1  0  0  0  0
 34 30  1  0  0  0  0
 35 34  1  1  0  0  0
 37 36  2  0  0  0  0
 39 38  1  6  0  0  0
 39 42  1  0  0  0  0
 40 41  1  0  0  0  0
 41 39  1  0  0  0  0
 42 43  1  0  0  0  0
 43 44  2  0  0  0  0
 44 46  1  0  0  0  0
 46 47  1  0  0  0  0
 46 45  1  1  0  0  0
 48 47  1  0  0  0  0
M  END
>  <MODEL>
1

>  <REMARK>
 VINA RESULT:      -6.4      0.000      0.000
  Name = 
  14 active torsions:
  status: ('A' for Active; 'I' for Inactive)
    1  A    between atoms: C_2  and  CA_42
    2  A    between atoms: C_3  and  C_22
    3  A    between atoms: C_4  and  C_14
    4  A    between atoms: N_6  and  CA_42
    5  A    between atoms: C_12  and  C_31
    6  A    between atoms: C_18  and  C_43
    7  A    between atoms: O_21  and  C_35
    8  A    between atoms: C_22  and  C_34
    9  A    between atoms: N_23  and  C_37
   10  A    between atoms: C_27  and  C_47
   11  A    between atoms: C_30  and  N_44
   12  A    between atoms: C_35  and  C_43
   13  A    between atoms: C_35  and  N_44
   14  A    between atoms: C_37  and  C_38
                            x       y       z     vdW  Elec       q    Type
                         _______ _______ _______ _____ _____    ______ ____

>  <TORSDO>
F 14

$$$$
=
 OpenBabel10232411353D

 48 52  0  0  1  0  0  0  0  0999 V2000
  188.7630  177.1030  139.5380 C   0  0  0  0  0  2  0  0  0  0  0  0
  190.4760  177.0110  137.1390 C   0  0  0  0  0  0  0  0  0  0  0  0
  189.2360  178.7250  138.8950 S   0  0  0  0  0  0  0  0  0  0  0  0
  193.1360  173.9490  136.2360 C   0  0  0  0  0  0  0  0  0  0  0  0
  192.2660  174.9590  136.7970 C   0  0  0  0  0  0  0  0  0  0  0  0
  193.2830  174.1040  134.9560 N   0  0  0  0  0  0  0  0  0  0  0  0
  189.9550  176.1560  139.5300 C   0  0  1  0  0  3  0  0  0  0  0  0
  191.0750  176.8110  135.9300 N   0  0  0  0  0  0  0  0  0  0  0  0
  192.5870  175.3200  134.5150 C   0  0  0  0  0  2  0  0  0  0  0  0
  190.7170  176.1040  138.2210 C   0  0  0  0  0  0  0  0  0  0  0  0
  194.6070  172.9870  138.0600 C   0  0  0  0  0  0  0  0  0  0  0  0
  194.9250  171.9570  138.7160 O   0  0  0  0  0  0  0  0  0  0  0  0
  189.4150  178.0700  137.2020 C   0  0  2  0  0  3  0  0  0  0  0  0
  191.9760  175.8110  135.7770 C   0  0  0  0  0  0  0  0  0  0  0  0
  193.7100  172.8510  136.9440 N   0  0  0  0  0  2  0  0  0  0  0  0
  191.6400  175.0560  138.0340 C   0  0  0  0  0  3  0  0  0  0  0  0
  196.0990  174.3300  139.5690 N   0  0  0  0  0  2  0  0  0  0  0  0
  195.0100  175.3250  137.7630 O   0  0  0  0  0  0  0  0  0  0  0  0
  195.2360  174.2730  138.4260 C   0  0  0  0  0  0  0  0  0  0  0  0
  196.9860  175.4630  139.7880 C   0  0  1  0  0  3  0  0  0  0  0  0
  197.2500  175.6270  141.2740 C   0  0  0  0  0  1  0  0  0  0  0  0
  198.2660  175.2570  139.0430 C   0  0  0  0  0  0  0  0  0  0  0  0
  199.4220  174.9240  139.7420 O   0  0  0  0  0  1  0  0  0  0  0  0
  198.3100  175.3980  137.7920 O   0  0  0  0  0  0  0  0  0  0  0  0
  188.1140  177.4890  136.6560 C   0  0  0  0  0  2  0  0  0  0  0  0
  185.7640  177.0980  137.4200 C   0  0  0  0  0  0  0  0  0  0  0  0
  185.6750  176.1130  136.6330 O   0  0  0  0  0  0  0  0  0  0  0  0
  186.9650  177.8770  137.4630 N   0  0  0  0  0  2  0  0  0  0  0  0
  183.3340  177.7620  136.3740 O   0  0  0  0  0  1  0  0  0  0  0  0
  184.4140  179.1800  139.9060 C   0  0  2  0  0  3  0  0  0  0  0  0
  184.6550  177.3540  138.3990 C   0  0  2  0  0  3  0  0  0  0  0  0
  183.3660  177.7270  137.7720 C   0  0  2  0  0  0  0  0  0  0  0  0
  182.1630  177.0940  138.4740 C   0  0  0  0  0  1  0  0  0  0  0  0
  183.2350  179.4540  139.2570 O   0  0  0  0  0  0  0  0  0  0  0  0
  184.2190  178.8610  138.4120 C   0  0  1  0  0  0  0  0  0  0  0  0
  184.0880  178.1570  140.9620 C   0  0  0  0  0  3  0  0  0  0  0  0
  184.3180  178.4480  142.2400 C   0  0  0  0  0  2  0  0  0  0  0  0
  190.8730  176.4250  140.7170 C   0  0  0  0  0  2  0  0  0  0  0  0
  190.1160  176.2610  142.0430 C   0  0  1  0  0  3  0  0  0  0  0  0
  191.5910  175.8970  143.7590 C   0  0  0  0  0  1  0  0  0  0  0  0
  190.7070  175.2690  142.8640 O   0  0  0  0  0  0  0  0  0  0  0  0
  189.9500  177.5270  142.7690 N   0  0  0  0  0  2  0  0  0  0  0  0
  188.7390  177.9110  143.4120 C   0  0  0  0  0  3  0  0  0  0  0  0
  188.5260  177.5680  144.6760 C   0  0  0  0  0  3  0  0  0  0  0  0
  186.1980  177.2240  144.9090 F   0  0  0  0  0  0  0  0  0  0  0  0
  187.2720  177.9450  145.4010 C   0  0  1  0  0  3  0  0  0  0  0  0
  187.3940  177.7300  146.9050 C   0  0  0  0  0  2  0  0  0  0  0  0
  188.5680  177.0260  147.1870 O   0  0  0  0  0  1  0  0  0  0  0  0
  2 13  1  0  0  0  0
  2 10  1  0  0  0  0
  3  1  1  0  0  0  0
  4  5  1  0  0  0  0
  4 15  1  0  0  0  0
  5 16  1  0  0  0  0
  6  4  2  0  0  0  0
  7  1  1  0  0  0  0
  7 38  1  1  0  0  0
  8  2  2  0  0  0  0
  9  6  1  0  0  0  0
  9 14  1  0  0  0  0
 10  7  1  0  0  0  0
 11 19  1  0  0  0  0
 11 12  2  0  0  0  0
 13 25  1  1  0  0  0
 13  3  1  0  0  0  0
 14  8  1  0  0  0  0
 14  5  2  0  0  0  0
 15 11  1  0  0  0  0
 16 10  2  0  0  0  0
 17 20  1  0  0  0  0
 18 19  2  0  0  0  0
 19 17  1  0  0  0  0
 20 21  1  1  0  0  0
 22 23  1  0  0  0  0
 22 20  1  0  0  0  0
 24 22  2  0  0  0  0
 25 28  1  0  0  0  0
 26 28  1  0  0  0  0
 27 26  2  0  0  0  0
 29 32  1  0  0  0  0
 30 36  1  1  0  0  0
 31 26  1  6  0  0  0
 31 35  1  0  0  0  0
 32 31  1  0  0  0  0
 32 35  1  0  0  0  0
 32 33  1  1  0  0  0
 34 30  1  0  0  0  0
 35 34  1  6  0  0  0
 35 30  1  0  0  0  0
 36 37  2  0  0  0  0
 39 38  1  6  0  0  0
 39 42  1  0  0  0  0
 39 41  1  0  0  0  0
 41 40  1  0  0  0  0
 42 43  1  0  0  0  0
 43 44  2  0  0  0  0
 44 46  1  0  0  0  0
 46 45  1  6  0  0  0
 46 47  1  0  0  0  0
 47 48  1  0  0  0  0
M  END
>  <MODEL>
2

>  <REMARK>
 VINA RESULT:      -6.0      2.812      8.927
  Name = 
  14 active torsions:
  status: ('A' for Active; 'I' for Inactive)
    1  A    between atoms: C_2  and  CA_42
    2  A    between atoms: C_3  and  C_22
    3  A    between atoms: C_4  and  C_14
    4  A    between atoms: N_6  and  CA_42
    5  A    between atoms: C_12  and  C_31
    6  A    between atoms: C_18  and  C_43
    7  A    between atoms: O_21  and  C_35
    8  A    between atoms: C_22  and  C_34
    9  A    between atoms: N_23  and  C_37
   10  A    between atoms: C_27  and  C_47
   11  A    between atoms: C_30  and  N_44
   12  A    between atoms: C_35  and  C_43
   13  A    between atoms: C_35  and  N_44
   14  A    between atoms: C_37  and  C_38
                            x       y       z     vdW  Elec       q    Type
                         _______ _______ _______ _____ _____    ______ ____

>  <TORSDO>
F 14

$$$$
=
 OpenBabel10232411353D

 48 52  0  0  1  0  0  0  0  0999 V2000
  189.3670  178.2020  140.4090 C   0  0  0  0  0  2  0  0  0  0  0  0
  189.1050  176.3000  138.1700 C   0  0  0  0  0  0  0  0  0  0  0  0
  190.0370  176.5570  140.7440 S   0  0  0  0  0  0  0  0  0  0  0  0
  186.0860  176.3890  135.3170 C   0  0  0  0  0  0  0  0  0  0  0  0
  186.9560  176.4520  136.4710 C   0  0  0  0  0  0  0  0  0  0  0  0
  186.6260  175.7160  134.3480 N   0  0  0  0  0  0  0  0  0  0  0  0
  188.0260  178.0980  139.6940 C   0  0  1  0  0  3  0  0  0  0  0  0
  189.1070  175.6120  136.9920 N   0  0  0  0  0  0  0  0  0  0  0  0
  187.9140  175.1580  134.7820 C   0  0  0  0  0  2  0  0  0  0  0  0
  188.0160  177.1700  138.4950 C   0  0  0  0  0  0  0  0  0  0  0  0
  183.6920  176.7990  136.0370 C   0  0  0  0  0  0  0  0  0  0  0  0
  182.6810  177.5470  135.9360 O   0  0  0  0  0  0  0  0  0  0  0  0
  190.3710  176.2650  138.9750 C   0  0  2  0  0  3  0  0  0  0  0  0
  188.0310  175.6740  136.1710 C   0  0  0  0  0  0  0  0  0  0  0  0
  184.8240  177.0420  135.1840 N   0  0  0  0  0  2  0  0  0  0  0  0
  186.9170  177.2370  137.6160 C   0  0  0  0  0  3  0  0  0  0  0  0
  183.5320  174.3280  136.4540 N   0  0  0  0  0  2  0  0  0  0  0  0
  183.6410  175.8390  138.2260 O   0  0  0  0  0  0  0  0  0  0  0  0
  183.6310  175.6600  136.9760 C   0  0  0  0  0  0  0  0  0  0  0  0
  183.7890  173.1680  137.2940 C   0  0  1  0  0  3  0  0  0  0  0  0
  182.8240  172.0520  136.9370 C   0  0  0  0  0  1  0  0  0  0  0  0
  185.2050  172.7180  137.1200 C   0  0  0  0  0  0  0  0  0  0  0  0
  185.5150  171.7940  136.1280 O   0  0  0  0  0  0  0  0  0  0  0  0
  186.1160  173.1580  137.8720 O   0  0  0  0  0  1  0  0  0  0  0  0
  191.3500  177.2780  138.3870 C   0  0  0  0  0  2  0  0  0  0  0  0
  193.5370  176.2390  137.7570 C   0  0  0  0  0  0  0  0  0  0  0  0
  193.9660  176.4400  138.9290 O   0  0  0  0  0  0  0  0  0  0  0  0
  192.2230  176.6740  137.3900 N   0  0  0  0  0  2  0  0  0  0  0  0
  192.6130  173.7450  137.1560 O   0  0  0  0  0  1  0  0  0  0  0  0
  196.5050  174.4530  137.1740 C   0  0  2  0  0  3  0  0  0  0  0  0
  194.3630  175.4250  136.8050 C   0  0  2  0  0  3  0  0  0  0  0  0
  193.8190  174.0740  136.5320 C   0  0  2  0  0  0  0  0  0  0  0  0
  193.9740  173.6600  135.0670 C   0  0  0  0  0  1  0  0  0  0  0  0
  195.9100  173.2420  136.9130 O   0  0  0  0  0  0  0  0  0  0  0  0
  195.0250  174.1890  137.5100 C   0  0  1  0  0  0  0  0  0  0  0  0
  196.9020  175.0250  135.8380 C   0  0  0  0  0  3  0  0  0  0  0  0
  197.6980  174.3170  135.0410 C   0  0  0  0  0  2  0  0  0  0  0  0
  186.9070  177.7770  140.6770 C   0  0  0  0  0  2  0  0  0  0  0  0
  186.9280  178.7490  141.8660 C   0  0  1  0  0  3  0  0  0  0  0  0
  184.7040  179.1950  142.1940 C   0  0  0  0  0  1  0  0  0  0  0  0
  185.9210  179.7400  141.7500 O   0  0  0  0  0  0  0  0  0  0  0  0
  186.8600  178.0670  143.1660 N   0  0  0  0  0  2  0  0  0  0  0  0
  187.9190  177.2780  143.6950 C   0  0  0  0  0  3  0  0  0  0  0  0
  188.9830  177.8720  144.2240 C   0  0  0  0  0  3  0  0  0  0  0  0
  191.3260  177.7190  144.5050 F   0  0  0  0  0  0  0  0  0  0  0  0
  190.1260  177.0930  144.7950 C   0  0  1  0  0  3  0  0  0  0  0  0
  189.9920  176.9020  146.3010 C   0  0  0  0  0  2  0  0  0  0  0  0
  189.3310  178.0000  146.8590 O   0  0  0  0  0  1  0  0  0  0  0  0
  1  3  1  0  0  0  0
  2 10  1  0  0  0  0
  2 13  1  0  0  0  0
  4  5  1  0  0  0  0
  5 16  1  0  0  0  0
  6  9  1  0  0  0  0
  6  4  2  0  0  0  0
  7  1  1  0  0  0  0
  7 38  1  1  0  0  0
  8  2  2  0  0  0  0
  9 14  1  0  0  0  0
 10  7  1  0  0  0  0
 11 19  1  0  0  0  0
 12 11  2  0  0  0  0
 13 25  1  6  0  0  0
 13  3  1  0  0  0  0
 14  5  2  0  0  0  0
 14  8  1  0  0  0  0
 15  4  1  0  0  0  0
 15 11  1  0  0  0  0
 16 10  2  0  0  0  0
 17 19  1  0  0  0  0
 17 20  1  0  0  0  0
 19 18  2  0  0  0  0
 20 21  1  6  0  0  0
 22 20  1  0  0  0  0
 22 24  1  0  0  0  0
 23 22  2  0  0  0  0
 26 27  2  0  0  0  0
 28 26  1  0  0  0  0
 28 25  1  0  0  0  0
 30 36  1  6  0  0  0
 30 35  1  0  0  0  0
 31 35  1  0  0  0  0
 31 26  1  1  0  0  0
 32 33  1  6  0  0  0
 32 31  1  0  0  0  0
 32 29  1  0  0  0  0
 32 35  1  0  0  0  0
 34 30  1  0  0  0  0
 35 34  1  1  0  0  0
 37 36  2  0  0  0  0
 39 38  1  6  0  0  0
 39 42  1  0  0  0  0
 41 39  1  0  0  0  0
 41 40  1  0  0  0  0
 42 43  1  0  0  0  0
 43 44  2  0  0  0  0
 44 46  1  0  0  0  0
 46 45  1  1  0  0  0
 46 47  1  0  0  0  0
 47 48  1  0  0  0  0
M  END
>  <MODEL>
3

>  <REMARK>
 VINA RESULT:      -6.0      1.720      1.939
  Name = 
  14 active torsions:
  status: ('A' for Active; 'I' for Inactive)
    1  A    between atoms: C_2  and  CA_42
    2  A    between atoms: C_3  and  C_22
    3  A    between atoms: C_4  and  C_14
    4  A    between atoms: N_6  and  CA_42
    5  A    between atoms: C_12  and  C_31
    6  A    between atoms: C_18  and  C_43
    7  A    between atoms: O_21  and  C_35
    8  A    between atoms: C_22  and  C_34
    9  A    between atoms: N_23  and  C_37
   10  A    between atoms: C_27  and  C_47
   11  A    between atoms: C_30  and  N_44
   12  A    between atoms: C_35  and  C_43
   13  A    between atoms: C_35  and  N_44
   14  A    between atoms: C_37  and  C_38
                            x       y       z     vdW  Elec       q    Type
                         _______ _______ _______ _____ _____    ______ ____

>  <TORSDO>
F 14

$$$$
=
 OpenBabel10232411353D

 48 52  0  0  1  0  0  0  0  0999 V2000
  188.9410  177.3760  139.1610 C   0  0  0  0  0  2  0  0  0  0  0  0
  190.0840  176.4170  136.6160 C   0  0  0  0  0  0  0  0  0  0  0  0
  189.0910  178.6460  137.8840 S   0  0  0  0  0  0  0  0  0  0  0  0
  192.7800  173.2770  136.2560 C   0  0  0  0  0  0  0  0  0  0  0  0
  191.9560  174.4120  136.6100 C   0  0  0  0  0  0  0  0  0  0  0  0
  192.6250  172.9450  135.0110 N   0  0  0  0  0  0  0  0  0  0  0  0
  190.1930  176.5100  139.2050 C   0  0  1  0  0  3  0  0  0  0  0  0
  190.4180  175.7890  135.4530 N   0  0  0  0  0  0  0  0  0  0  0  0
  191.7270  173.8980  134.3460 C   0  0  0  0  0  2  0  0  0  0  0  0
  190.6490  175.9830  137.8580 C   0  0  0  0  0  0  0  0  0  0  0  0
  194.7090  173.0860  137.8880 C   0  0  0  0  0  0  0  0  0  0  0  0
  195.2680  172.3790  138.7710 O   0  0  0  0  0  0  0  0  0  0  0  0
  188.9590  177.4090  136.5500 C   0  0  2  0  0  3  0  0  0  0  0  0
  191.3620  174.8170  135.4560 C   0  0  0  0  0  0  0  0  0  0  0  0
  193.6060  172.5310  137.1490 N   0  0  0  0  0  2  0  0  0  0  0  0
  191.6110  174.9550  137.8420 C   0  0  0  0  0  3  0  0  0  0  0  0
  196.1860  174.5810  136.5130 N   0  0  0  0  0  2  0  0  0  0  0  0
  194.9660  175.4250  138.3130 O   0  0  0  0  0  0  0  0  0  0  0  0
  195.2660  174.4240  137.6020 C   0  0  0  0  0  0  0  0  0  0  0  0
  196.5130  175.8980  135.9870 C   0  0  1  0  0  3  0  0  0  0  0  0
  197.7270  175.8000  135.0810 C   0  0  0  0  0  1  0  0  0  0  0  0
  195.3410  176.4540  135.2430 C   0  0  0  0  0  0  0  0  0  0  0  0
  194.6300  175.6350  134.3720 O   0  0  0  0  0  0  0  0  0  0  0  0
  195.0010  177.6580  135.3870 O   0  0  0  0  0  1  0  0  0  0  0  0
  187.6360  176.6480  136.5830 C   0  0  0  0  0  2  0  0  0  0  0  0
  185.2890  176.9100  137.4090 C   0  0  0  0  0  0  0  0  0  0  0  0
  184.8910  176.1020  136.5220 O   0  0  0  0  0  0  0  0  0  0  0  0
  186.6740  177.2710  137.4810 N   0  0  0  0  0  2  0  0  0  0  0  0
  182.9040  177.9020  136.5350 O   0  0  0  0  0  1  0  0  0  0  0  0
  184.5020  179.2760  139.8830 C   0  0  2  0  0  3  0  0  0  0  0  0
  184.3260  177.3750  138.4610 C   0  0  2  0  0  3  0  0  0  0  0  0
  183.0570  177.9190  137.9240 C   0  0  2  0  0  0  0  0  0  0  0  0
  181.8400  177.5100  138.7570 C   0  0  0  0  0  1  0  0  0  0  0  0
  183.3240  179.7040  139.3200 O   0  0  0  0  0  0  0  0  0  0  0  0
  184.1260  178.9310  138.4290 C   0  0  1  0  0  0  0  0  0  0  0  0
  184.1210  178.3600  141.0160 C   0  0  0  0  0  3  0  0  0  0  0  0
  184.8390  178.3810  142.1360 C   0  0  0  0  0  2  0  0  0  0  0  0
  191.3180  177.2160  139.9540 C   0  0  0  0  0  2  0  0  0  0  0  0
  190.8640  177.6230  141.3640 C   0  0  1  0  0  3  0  0  0  0  0  0
  188.8450  177.8390  142.4230 C   0  0  0  0  0  1  0  0  0  0  0  0
  189.6880  176.9360  141.7540 O   0  0  0  0  0  0  0  0  0  0  0  0
  191.9250  177.4820  142.3710 N   0  0  0  0  0  2  0  0  0  0  0  0
  191.6850  177.4980  143.7730 C   0  0  0  0  0  3  0  0  0  0  0  0
  191.4700  176.3570  144.4180 C   0  0  0  0  0  3  0  0  0  0  0  0
  192.3950  176.4770  146.5910 F   0  0  0  0  0  0  0  0  0  0  0  0
  191.2120  176.3140  145.8920 C   0  0  1  0  0  3  0  0  0  0  0  0
  190.2040  177.3710  146.3260 C   0  0  0  0  0  2  0  0  0  0  0  0
  189.0720  176.7520  146.8630 O   0  0  0  0  0  1  0  0  0  0  0  0
  1  7  1  0  0  0  0
  2 10  1  0  0  0  0
  3  1  1  0  0  0  0
  4  5  1  0  0  0  0
  4 15  1  0  0  0  0
  5 16  1  0  0  0  0
  6  4  2  0  0  0  0
  7 38  1  6  0  0  0
  8 14  1  0  0  0  0
  8  2  2  0  0  0  0
  9  6  1  0  0  0  0
  9 14  1  0  0  0  0
 10  7  1  0  0  0  0
 11 12  2  0  0  0  0
 13 25  1  1  0  0  0
 13  2  1  0  0  0  0
 13  3  1  0  0  0  0
 14  5  2  0  0  0  0
 15 11  1  0  0  0  0
 16 10  2  0  0  0  0
 17 19  1  0  0  0  0
 19 11  1  0  0  0  0
 19 18  2  0  0  0  0
 20 21  1  6  0  0  0
 20 17  1  0  0  0  0
 22 24  1  0  0  0  0
 22 20  1  0  0  0  0
 23 22  2  0  0  0  0
 25 28  1  0  0  0  0
 26 28  1  0  0  0  0
 27 26  2  0  0  0  0
 29 32  1  0  0  0  0
 30 36  1  1  0  0  0
 31 26  1  6  0  0  0
 32 35  1  0  0  0  0
 32 31  1  0  0  0  0
 32 33  1  1  0  0  0
 34 30  1  0  0  0  0
 35 31  1  0  0  0  0
 35 34  1  6  0  0  0
 35 30  1  0  0  0  0
 36 37  2  0  0  0  0
 39 38  1  6  0  0  0
 39 41  1  0  0  0  0
 39 42  1  0  0  0  0
 41 40  1  0  0  0  0
 42 43  1  0  0  0  0
 43 44  2  0  0  0  0
 44 46  1  0  0  0  0
 46 47  1  0  0  0  0
 46 45  1  1  0  0  0
 47 48  1  0  0  0  0
M  END
>  <MODEL>
4

>  <REMARK>
 VINA RESULT:      -5.9      2.917      8.856
  Name = 
  14 active torsions:
  status: ('A' for Active; 'I' for Inactive)
    1  A    between atoms: C_2  and  CA_42
    2  A    between atoms: C_3  and  C_22
    3  A    between atoms: C_4  and  C_14
    4  A    between atoms: N_6  and  CA_42
    5  A    between atoms: C_12  and  C_31
    6  A    between atoms: C_18  and  C_43
    7  A    between atoms: O_21  and  C_35
    8  A    between atoms: C_22  and  C_34
    9  A    between atoms: N_23  and  C_37
   10  A    between atoms: C_27  and  C_47
   11  A    between atoms: C_30  and  N_44
   12  A    between atoms: C_35  and  C_43
   13  A    between atoms: C_35  and  N_44
   14  A    between atoms: C_37  and  C_38
                            x       y       z     vdW  Elec       q    Type
                         _______ _______ _______ _____ _____    ______ ____

>  <TORSDO>
F 14

$$$$
=
 OpenBabel10232411353D

 48 52  0  0  1  0  0  0  0  0999 V2000
  188.7980  177.3700  139.3370 C   0  0  0  0  0  2  0  0  0  0  0  0
  189.8640  176.3660  136.7780 C   0  0  0  0  0  0  0  0  0  0  0  0
  188.8550  178.6030  138.0170 S   0  0  0  0  0  0  0  0  0  0  0  0
  192.6420  173.2980  136.4020 C   0  0  0  0  0  0  0  0  0  0  0  0
  191.7980  174.4190  136.7550 C   0  0  0  0  0  0  0  0  0  0  0  0
  192.4470  172.9230  135.1750 N   0  0  0  0  0  0  0  0  0  0  0  0
  190.0770  176.5450  139.3550 C   0  0  1  0  0  3  0  0  0  0  0  0
  190.1710  175.7110  135.6210 N   0  0  0  0  0  0  0  0  0  0  0  0
  191.4920  173.8260  134.5190 C   0  0  0  0  0  2  0  0  0  0  0  0
  190.4940  175.9890  138.0080 C   0  0  0  0  0  0  0  0  0  0  0  0
  194.6400  173.2180  137.9560 C   0  0  0  0  0  0  0  0  0  0  0  0
  195.2570  172.5580  138.8370 O   0  0  0  0  0  0  0  0  0  0  0  0
  188.7070  177.3210  136.7290 C   0  0  2  0  0  3  0  0  0  0  0  0
  191.1440  174.7690  135.6140 C   0  0  0  0  0  0  0  0  0  0  0  0
  193.5270  172.6070  137.2820 N   0  0  0  0  0  2  0  0  0  0  0  0
  191.4860  174.9900  137.9830 C   0  0  0  0  0  3  0  0  0  0  0  0
  195.9400  174.7260  136.4260 N   0  0  0  0  0  2  0  0  0  0  0  0
  194.9040  175.5640  138.3400 O   0  0  0  0  0  0  0  0  0  0  0  0
  195.1440  174.5630  137.6070 C   0  0  0  0  0  0  0  0  0  0  0  0
  196.1900  176.0450  135.8610 C   0  0  1  0  0  3  0  0  0  0  0  0
  197.5820  176.0890  135.2600 C   0  0  0  0  0  1  0  0  0  0  0  0
  195.1560  176.3580  134.8270 C   0  0  0  0  0  0  0  0  0  0  0  0
  194.9820  177.6720  134.4050 O   0  0  0  0  0  1  0  0  0  0  0  0
  194.4310  175.4460  134.3470 O   0  0  0  0  0  0  0  0  0  0  0  0
  187.4120  176.5210  136.8400 C   0  0  0  0  0  2  0  0  0  0  0  0
  184.9560  176.8030  136.4520 C   0  0  0  0  0  0  0  0  0  0  0  0
  184.8560  175.5650  136.2130 O   0  0  0  0  0  0  0  0  0  0  0  0
  186.2360  177.3760  136.7420 N   0  0  0  0  0  2  0  0  0  0  0  0
  183.7960  176.9530  138.9150 O   0  0  0  0  0  1  0  0  0  0  0  0
  181.5540  177.1690  135.6630 C   0  0  2  0  0  3  0  0  0  0  0  0
  183.7100  177.6300  136.5600 C   0  0  2  0  0  3  0  0  0  0  0  0
  183.1170  177.6580  137.9180 C   0  0  2  0  0  0  0  0  0  0  0  0
  182.5750  179.0390  138.2970 C   0  0  0  0  0  1  0  0  0  0  0  0
  181.0960  177.2070  136.9580 O   0  0  0  0  0  0  0  0  0  0  0  0
  182.4430  176.7500  136.8480 C   0  0  1  0  0  0  0  0  0  0  0  0
  181.5460  178.5920  135.1700 C   0  0  0  0  0  3  0  0  0  0  0  0
  180.3900  179.2480  135.0990 C   0  0  0  0  0  2  0  0  0  0  0  0
  191.2080  177.3080  140.0350 C   0  0  0  0  0  2  0  0  0  0  0  0
  191.2810  176.9610  141.5300 C   0  0  1  0  0  3  0  0  0  0  0  0
  191.6910  177.6970  143.6600 C   0  0  0  0  0  1  0  0  0  0  0  0
  191.6180  178.0930  142.3140 O   0  0  0  0  0  0  0  0  0  0  0  0
  190.0610  176.3100  142.0270 N   0  0  0  0  0  2  0  0  0  0  0  0
  188.9300  177.0250  142.5130 C   0  0  0  0  0  3  0  0  0  0  0  0
  188.1600  176.4840  143.4490 C   0  0  0  0  0  3  0  0  0  0  0  0
  187.2310  177.6950  145.2550 F   0  0  0  0  0  0  0  0  0  0  0  0
  186.9590  177.1900  143.9950 C   0  0  1  0  0  3  0  0  0  0  0  0
  186.4900  178.3130  143.0780 C   0  0  0  0  0  2  0  0  0  0  0  0
  185.1880  178.0540  142.6420 O   0  0  0  0  0  1  0  0  0  0  0  0
  1  7  1  0  0  0  0
  2 10  1  0  0  0  0
  3  1  1  0  0  0  0
  4  5  1  0  0  0  0
  4 15  1  0  0  0  0
  5 16  1  0  0  0  0
  6  4  2  0  0  0  0
  7 38  1  6  0  0  0
  8  2  2  0  0  0  0
  9  6  1  0  0  0  0
  9 14  1  0  0  0  0
 10  7  1  0  0  0  0
 11 12  2  0  0  0  0
 13  2  1  0  0  0  0
 13 25  1  1  0  0  0
 13  3  1  0  0  0  0
 14  8  1  0  0  0  0
 14  5  2  0  0  0  0
 15 11  1  0  0  0  0
 16 10  2  0  0  0  0
 17 19  1  0  0  0  0
 19 11  1  0  0  0  0
 19 18  2  0  0  0  0
 20 21  1  6  0  0  0
 20 17  1  0  0  0  0
 22 20  1  0  0  0  0
 23 22  1  0  0  0  0
 24 22  2  0  0  0  0
 26 28  1  0  0  0  0
 27 26  2  0  0  0  0
 28 25  1  0  0  0  0
 30 36  1  1  0  0  0
 30 35  1  0  0  0  0
 30 34  1  0  0  0  0
 31 26  1  1  0  0  0
 31 35  1  0  0  0  0
 31 32  1  0  0  0  0
 32 33  1  1  0  0  0
 32 29  1  0  0  0  0
 35 34  1  1  0  0  0
 35 32  1  0  0  0  0
 37 36  2  0  0  0  0
 39 38  1  6  0  0  0
 39 42  1  0  0  0  0
 39 41  1  0  0  0  0
 41 40  1  0  0  0  0
 42 43  1  0  0  0  0
 43 44  2  0  0  0  0
 44 46  1  0  0  0  0
 46 45  1  1  0  0  0
 47 46  1  0  0  0  0
 48 47  1  0  0  0  0
M  END
>  <MODEL>
5

>  <REMARK>
 VINA RESULT:      -5.5      2.600      8.934
  Name = 
  14 active torsions:
  status: ('A' for Active; 'I' for Inactive)
    1  A    between atoms: C_2  and  CA_42
    2  A    between atoms: C_3  and  C_22
    3  A    between atoms: C_4  and  C_14
    4  A    between atoms: N_6  and  CA_42
    5  A    between atoms: C_12  and  C_31
    6  A    between atoms: C_18  and  C_43
    7  A    between atoms: O_21  and  C_35
    8  A    between atoms: C_22  and  C_34
    9  A    between atoms: N_23  and  C_37
   10  A    between atoms: C_27  and  C_47
   11  A    between atoms: C_30  and  N_44
   12  A    between atoms: C_35  and  C_43
   13  A    between atoms: C_35  and  N_44
   14  A    between atoms: C_37  and  C_38
                            x       y       z     vdW  Elec       q    Type
                         _______ _______ _______ _____ _____    ______ ____

>  <TORSDO>
F 14

$$$$
=
 OpenBabel10232411353D

 48 52  0  0  1  0  0  0  0  0999 V2000
  187.5250  178.9360  141.4900 C   0  0  0  0  0  2  0  0  0  0  0  0
  186.8240  177.5040  139.0080 C   0  0  0  0  0  0  0  0  0  0  0  0
  188.2150  177.2690  141.3690 S   0  0  0  0  0  0  0  0  0  0  0  0
  183.3370  178.0950  136.8280 C   0  0  0  0  0  0  0  0  0  0  0  0
  184.4040  177.9470  137.7930 C   0  0  0  0  0  0  0  0  0  0  0  0
  183.6780  177.6340  135.6650 N   0  0  0  0  0  0  0  0  0  0  0  0
  186.0750  178.9500  141.0250 C   0  0  1  0  0  3  0  0  0  0  0  0
  186.5980  177.0600  137.7390 N   0  0  0  0  0  0  0  0  0  0  0  0
  185.0140  177.0260  135.7380 C   0  0  0  0  0  2  0  0  0  0  0  0
  185.8280  178.2740  139.6910 C   0  0  0  0  0  0  0  0  0  0  0  0
  181.1220  178.3140  138.0400 C   0  0  0  0  0  0  0  0  0  0  0  0
  180.1240  179.0480  138.2730 O   0  0  0  0  0  0  0  0  0  0  0  0
  188.2150  177.3350  139.5460 C   0  0  2  0  0  3  0  0  0  0  0  0
  185.3920  177.2620  137.1560 C   0  0  0  0  0  0  0  0  0  0  0  0
  182.0840  178.7390  137.0580 N   0  0  0  0  0  2  0  0  0  0  0  0
  184.5890  178.4920  139.0580 C   0  0  0  0  0  3  0  0  0  0  0  0
  180.8660  175.8160  138.0220 N   0  0  0  0  0  2  0  0  0  0  0  0
  181.5680  176.9360  139.9430 O   0  0  0  0  0  0  0  0  0  0  0  0
  181.2130  177.0120  138.7320 C   0  0  0  0  0  0  0  0  0  0  0  0
  181.2350  174.5030  138.5300 C   0  0  1  0  0  3  0  0  0  0  0  0
  179.9840  173.7250  138.8950 C   0  0  0  0  0  1  0  0  0  0  0  0
  182.0350  173.7670  137.5030 C   0  0  0  0  0  0  0  0  0  0  0  0
  183.4150  173.9370  137.4560 O   0  0  0  0  0  1  0  0  0  0  0  0
  181.4700  173.0060  136.6720 O   0  0  0  0  0  0  0  0  0  0  0  0
  189.0890  178.4610  138.9990 C   0  0  0  0  0  2  0  0  0  0  0  0
  191.0040  177.0070  138.3090 C   0  0  0  0  0  0  0  0  0  0  0  0
  191.1250  176.6060  139.5020 O   0  0  0  0  0  0  0  0  0  0  0  0
  190.0120  177.9850  137.9780 N   0  0  0  0  0  2  0  0  0  0  0  0
  190.1640  174.5520  137.4680 O   0  0  0  0  0  1  0  0  0  0  0  0
  194.0150  175.4550  137.3820 C   0  0  2  0  0  3  0  0  0  0  0  0
  191.8150  176.3500  137.2310 C   0  0  2  0  0  3  0  0  0  0  0  0
  191.3200  175.0120  136.8290 C   0  0  2  0  0  0  0  0  0  0  0  0
  191.4150  174.7770  135.3200 C   0  0  0  0  0  1  0  0  0  0  0  0
  193.4640  174.2520  137.0110 O   0  0  0  0  0  0  0  0  0  0  0  0
  192.5700  175.0780  137.7550 C   0  0  1  0  0  0  0  0  0  0  0  0
  194.3140  176.1940  136.1040 C   0  0  0  0  0  3  0  0  0  0  0  0
  195.1870  175.6770  135.2440 C   0  0  0  0  0  2  0  0  0  0  0  0
  185.1480  178.4230  142.1150 C   0  0  0  0  0  2  0  0  0  0  0  0
  185.5550  178.9690  143.4910 C   0  0  1  0  0  3  0  0  0  0  0  0
  183.2830  179.1610  143.7110 C   0  0  0  0  0  1  0  0  0  0  0  0
  184.5140  179.7270  144.0820 O   0  0  0  0  0  0  0  0  0  0  0  0
  186.0400  177.9230  144.4020 N   0  0  0  0  0  2  0  0  0  0  0  0
  187.0970  178.1220  145.3350 C   0  0  0  0  0  3  0  0  0  0  0  0
  188.1190  177.2740  145.3640 C   0  0  0  0  0  3  0  0  0  0  0  0
  189.1480  176.5180  147.3540 F   0  0  0  0  0  0  0  0  0  0  0  0
  189.2560  177.4350  146.3230 C   0  0  1  0  0  3  0  0  0  0  0  0
  190.6080  177.2840  145.6360 C   0  0  0  0  0  2  0  0  0  0  0  0
  191.5300  176.7270  146.5260 O   0  0  0  0  0  1  0  0  0  0  0  0
  2 13  1  0  0  0  0
  2 10  1  0  0  0  0
  3  1  1  0  0  0  0
  4 15  1  0  0  0  0
  4  5  1  0  0  0  0
  5 16  1  0  0  0  0
  6  9  1  0  0  0  0
  6  4  2  0  0  0  0
  7  1  1  0  0  0  0
  7 38  1  1  0  0  0
  8  2  2  0  0  0  0
  9 14  1  0  0  0  0
 10  7  1  0  0  0  0
 11 12  2  0  0  0  0
 11 19  1  0  0  0  0
 13 25  1  1  0  0  0
 13  3  1  0  0  0  0
 14  8  1  0  0  0  0
 14  5  2  0  0  0  0
 15 11  1  0  0  0  0
 16 10  2  0  0  0  0
 17 20  1  0  0  0  0
 17 19  1  0  0  0  0
 19 18  2  0  0  0  0
 20 21  1  6  0  0  0
 22 20  1  0  0  0  0
 23 22  1  0  0  0  0
 24 22  2  0  0  0  0
 26 27  2  0  0  0  0
 28 26  1  0  0  0  0
 28 25  1  0  0  0  0
 30 36  1  6  0  0  0
 30 35  1  0  0  0  0
 31 35  1  0  0  0  0
 31 26  1  1  0  0  0
 32 33  1  6  0  0  0
 32 31  1  0  0  0  0
 32 29  1  0  0  0  0
 32 35  1  0  0  0  0
 34 30  1  0  0  0  0
 35 34  1  1  0  0  0
 37 36  2  0  0  0  0
 39 38  1  6  0  0  0
 39 41  1  0  0  0  0
 39 42  1  0  0  0  0
 40 41  1  0  0  0  0
 42 43  1  0  0  0  0
 43 44  2  0  0  0  0
 44 46  1  0  0  0  0
 46 45  1  1  0  0  0
 47 46  1  0  0  0  0
 47 48  1  0  0  0  0
M  END
>  <MODEL>
6

>  <REMARK>
 VINA RESULT:      -5.5      2.422      2.997
  Name = 
  14 active torsions:
  status: ('A' for Active; 'I' for Inactive)
    1  A    between atoms: C_2  and  CA_42
    2  A    between atoms: C_3  and  C_22
    3  A    between atoms: C_4  and  C_14
    4  A    between atoms: N_6  and  CA_42
    5  A    between atoms: C_12  and  C_31
    6  A    between atoms: C_18  and  C_43
    7  A    between atoms: O_21  and  C_35
    8  A    between atoms: C_22  and  C_34
    9  A    between atoms: N_23  and  C_37
   10  A    between atoms: C_27  and  C_47
   11  A    between atoms: C_30  and  N_44
   12  A    between atoms: C_35  and  C_43
   13  A    between atoms: C_35  and  N_44
   14  A    between atoms: C_37  and  C_38
                            x       y       z     vdW  Elec       q    Type
                         _______ _______ _______ _____ _____    ______ ____

>  <TORSDO>
F 14

$$$$
=
 OpenBabel10232411353D

 48 52  0  0  1  0  0  0  0  0999 V2000
  191.2270  172.7260  135.6900 C   0  0  0  0  0  2  0  0  0  0  0  0
  192.5570  175.0890  136.8510 C   0  0  0  0  0  0  0  0  0  0  0  0
  192.0610  173.7820  134.4830 S   0  0  0  0  0  0  0  0  0  0  0  0
  191.3340  177.0450  140.3070 C   0  0  0  0  0  0  0  0  0  0  0  0
  191.5070  176.3150  139.0700 C   0  0  0  0  0  0  0  0  0  0  0  0
  192.4210  177.6640  140.6520 N   0  0  0  0  0  0  0  0  0  0  0  0
  190.4620  173.5700  136.7010 C   0  0  1  0  0  3  0  0  0  0  0  0
  193.2920  176.0030  137.5480 N   0  0  0  0  0  0  0  0  0  0  0  0
  193.4470  177.4920  139.6140 C   0  0  0  0  0  2  0  0  0  0  0  0
  191.2590  174.7030  137.3170 C   0  0  0  0  0  0  0  0  0  0  0  0
  188.8700  177.4970  140.6880 C   0  0  0  0  0  0  0  0  0  0  0  0
  187.8720  177.2980  141.4330 O   0  0  0  0  0  0  0  0  0  0  0  0
  193.2530  174.3730  135.7310 C   0  0  2  0  0  3  0  0  0  0  0  0
  192.7560  176.6210  138.6270 C   0  0  0  0  0  0  0  0  0  0  0  0
  190.1640  177.0420  141.1240 N   0  0  0  0  0  2  0  0  0  0  0  0
  190.7300  175.3410  138.4550 C   0  0  0  0  0  3  0  0  0  0  0  0
  188.1550  177.5830  138.2820 N   0  0  0  0  0  2  0  0  0  0  0  0
  188.9720  179.4820  139.3600 O   0  0  0  0  0  0  0  0  0  0  0  0
  188.6720  178.2570  139.4370 C   0  0  0  0  0  0  0  0  0  0  0  0
  187.6420  178.3270  137.1410 C   0  0  1  0  0  3  0  0  0  0  0  0
  188.4880  178.0320  135.9150 C   0  0  0  0  0  1  0  0  0  0  0  0
  186.2120  177.9630  136.8980 C   0  0  0  0  0  0  0  0  0  0  0  0
  185.2790  178.1290  137.9150 O   0  0  0  0  0  1  0  0  0  0  0  0
  185.8490  177.4930  135.7860 O   0  0  0  0  0  0  0  0  0  0  0  0
  194.0920  173.2430  136.3230 C   0  0  0  0  0  2  0  0  0  0  0  0
  196.3530  173.3650  137.3870 C   0  0  0  0  0  0  0  0  0  0  0  0
  195.8430  173.0490  138.5000 O   0  0  0  0  0  0  0  0  0  0  0  0
  195.5190  173.5220  136.2340 N   0  0  0  0  0  2  0  0  0  0  0  0
  197.6000  175.3900  138.7240 O   0  0  0  0  0  1  0  0  0  0  0  0
  199.1380  174.0160  135.3480 C   0  0  2  0  0  3  0  0  0  0  0  0
  197.8470  173.4370  137.2620 C   0  0  2  0  0  3  0  0  0  0  0  0
  198.4630  174.5670  137.9950 C   0  0  2  0  0  0  0  0  0  0  0  0
  199.7830  174.1840  138.6690 C   0  0  0  0  0  1  0  0  0  0  0  0
  199.6490  175.0430  136.1040 O   0  0  0  0  0  0  0  0  0  0  0  0
  198.3090  174.6990  136.4520 C   0  0  1  0  0  0  0  0  0  0  0  0
  199.9810  172.8060  135.6540 C   0  0  0  0  0  3  0  0  0  0  0  0
  199.9920  171.7890  134.7950 C   0  0  0  0  0  2  0  0  0  0  0  0
  189.1380  174.0510  136.1180 C   0  0  0  0  0  2  0  0  0  0  0  0
  188.3400  172.8780  135.5300 C   0  0  1  0  0  3  0  0  0  0  0  0
  187.6280  170.7180  135.8040 C   0  0  0  0  0  1  0  0  0  0  0  0
  188.2040  171.8190  136.4610 O   0  0  0  0  0  0  0  0  0  0  0  0
  187.0370  173.2850  134.9870 N   0  0  0  0  0  2  0  0  0  0  0  0
  186.0030  173.8620  135.7770 C   0  0  0  0  0  3  0  0  0  0  0  0
  184.7320  173.6230  135.4750 C   0  0  0  0  0  3  0  0  0  0  0  0
  182.5040  173.3650  136.2220 F   0  0  0  0  0  0  0  0  0  0  0  0
  183.6040  174.2030  136.2700 C   0  0  1  0  0  3  0  0  0  0  0  0
  183.9990  174.4580  137.7190 C   0  0  0  0  0  2  0  0  0  0  0  0
  183.2300  175.5020  138.2410 O   0  0  0  0  0  1  0  0  0  0  0  0
  1  7  1  0  0  0  0
  2 10  2  0  0  0  0
  2  8  1  0  0  0  0
  3  1  1  0  0  0  0
  3 13  1  0  0  0  0
  4  6  2  0  0  0  0
  4 15  1  0  0  0  0
  5  4  1  0  0  0  0
  7 38  1  6  0  0  0
  7 10  1  0  0  0  0
  8 14  2  0  0  0  0
  9  6  1  0  0  0  0
 10 16  1  0  0  0  0
 11 15  1  0  0  0  0
 11 12  2  0  0  0  0
 13 25  1  1  0  0  0
 13  2  1  0  0  0  0
 14  5  1  0  0  0  0
 14  9  1  0  0  0  0
 16  5  2  0  0  0  0
 17 19  1  0  0  0  0
 18 19  2  0  0  0  0
 19 11  1  0  0  0  0
 20 21  1  6  0  0  0
 20 17  1  0  0  0  0
 22 20  1  0  0  0  0
 22 23  1  0  0  0  0
 24 22  2  0  0  0  0
 26 27  2  0  0  0  0
 28 25  1  0  0  0  0
 28 26  1  0  0  0  0
 30 36  1  1  0  0  0
 30 34  1  0  0  0  0
 30 35  1  0  0  0  0
 31 26  1  1  0  0  0
 31 32  1  0  0  0  0
 32 33  1  1  0  0  0
 32 29  1  0  0  0  0
 35 34  1  6  0  0  0
 35 31  1  0  0  0  0
 35 32  1  0  0  0  0
 37 36  2  0  0  0  0
 39 38  1  1  0  0  0
 39 41  1  0  0  0  0
 40 41  1  0  0  0  0
 42 39  1  0  0  0  0
 42 43  1  0  0  0  0
 44 43  2  0  0  0  0
 44 46  1  0  0  0  0
 46 45  1  1  0  0  0
 46 47  1  0  0  0  0
 47 48  1  0  0  0  0
M  END
>  <MODEL>
7

>  <REMARK>
 VINA RESULT:      -5.5      3.575      7.003
  Name = 
  14 active torsions:
  status: ('A' for Active; 'I' for Inactive)
    1  A    between atoms: C_2  and  CA_42
    2  A    between atoms: C_3  and  C_22
    3  A    between atoms: C_4  and  C_14
    4  A    between atoms: N_6  and  CA_42
    5  A    between atoms: C_12  and  C_31
    6  A    between atoms: C_18  and  C_43
    7  A    between atoms: O_21  and  C_35
    8  A    between atoms: C_22  and  C_34
    9  A    between atoms: N_23  and  C_37
   10  A    between atoms: C_27  and  C_47
   11  A    between atoms: C_30  and  N_44
   12  A    between atoms: C_35  and  C_43
   13  A    between atoms: C_35  and  N_44
   14  A    between atoms: C_37  and  C_38
                            x       y       z     vdW  Elec       q    Type
                         _______ _______ _______ _____ _____    ______ ____

>  <TORSDO>
F 14

$$$$
=
 OpenBabel10232411353D

 48 52  0  0  1  0  0  0  0  0999 V2000
  188.9970  177.0860  139.5980 C   0  0  0  0  0  2  0  0  0  0  0  0
  190.5260  176.7700  137.0960 C   0  0  0  0  0  0  0  0  0  0  0  0
  189.3770  178.6390  138.7540 S   0  0  0  0  0  0  0  0  0  0  0  0
  193.1900  173.6780  136.3150 C   0  0  0  0  0  0  0  0  0  0  0  0
  192.3390  174.7270  136.8330 C   0  0  0  0  0  0  0  0  0  0  0  0
  193.2370  173.6990  135.0180 N   0  0  0  0  0  0  0  0  0  0  0  0
  190.2090  176.1650  139.5970 C   0  0  1  0  0  3  0  0  0  0  0  0
  191.0370  176.4540  135.8720 N   0  0  0  0  0  0  0  0  0  0  0  0
  192.4770  174.8480  134.5070 C   0  0  0  0  0  2  0  0  0  0  0  0
  190.8720  175.9870  138.2440 C   0  0  0  0  0  0  0  0  0  0  0  0
  194.8200  172.9420  138.1100 C   0  0  0  0  0  0  0  0  0  0  0  0
  195.2130  171.9940  138.8430 O   0  0  0  0  0  0  0  0  0  0  0  0
  189.4460  177.8100  137.1300 C   0  0  2  0  0  3  0  0  0  0  0  0
  191.9500  175.4600  135.7550 C   0  0  0  0  0  0  0  0  0  0  0  0
  193.8440  172.6720  137.0870 N   0  0  0  0  0  2  0  0  0  0  0  0
  191.8050  174.9430  138.0970 C   0  0  0  0  0  3  0  0  0  0  0  0
  196.0750  174.5850  139.5350 N   0  0  0  0  0  2  0  0  0  0  0  0
  195.4010  175.1420  137.3730 O   0  0  0  0  0  0  0  0  0  0  0  0
  195.4400  174.2710  138.2890 C   0  0  0  0  0  0  0  0  0  0  0  0
  196.9680  175.7280  139.6600 C   0  0  1  0  0  3  0  0  0  0  0  0
  196.9730  176.2200  141.0950 C   0  0  0  0  0  1  0  0  0  0  0  0
  198.3470  175.3450  139.2260 C   0  0  0  0  0  0  0  0  0  0  0  0
  199.2930  174.9890  140.1820 O   0  0  0  0  0  1  0  0  0  0  0  0
  198.6630  175.3560  138.0070 O   0  0  0  0  0  0  0  0  0  0  0  0
  188.1230  177.1510  136.7500 C   0  0  0  0  0  2  0  0  0  0  0  0
  185.6640  177.4550  137.0980 C   0  0  0  0  0  0  0  0  0  0  0  0
  185.4780  176.2350  136.8230 O   0  0  0  0  0  0  0  0  0  0  0  0
  186.9830  178.0090  137.0450 N   0  0  0  0  0  2  0  0  0  0  0  0
  185.8580  178.3750  139.6590 O   0  0  0  0  0  1  0  0  0  0  0  0
  182.3060  177.5490  138.1250 C   0  0  2  0  0  3  0  0  0  0  0  0
  184.5150  178.2730  137.6100 C   0  0  2  0  0  3  0  0  0  0  0  0
  184.6710  178.7280  139.0110 C   0  0  2  0  0  0  0  0  0  0  0  0
  184.1660  180.1570  139.2270 C   0  0  0  0  0  1  0  0  0  0  0  0
  182.5460  177.9940  139.4020 O   0  0  0  0  0  0  0  0  0  0  0  0
  183.7190  177.5270  138.7380 C   0  0  1  0  0  0  0  0  0  0  0  0
  181.8230  178.7440  137.3450 C   0  0  0  0  0  3  0  0  0  0  0  0
  180.5360  178.8250  137.0150 C   0  0  0  0  0  2  0  0  0  0  0  0
  191.2070  176.5750  140.6740 C   0  0  0  0  0  2  0  0  0  0  0  0
  190.4960  176.8210  142.0130 C   0  0  1  0  0  3  0  0  0  0  0  0
  188.5250  176.1590  142.9750 C   0  0  0  0  0  1  0  0  0  0  0  0
  189.7280  175.6990  142.4120 O   0  0  0  0  0  0  0  0  0  0  0  0
  191.4120  177.2490  143.0790 N   0  0  0  0  0  2  0  0  0  0  0  0
  191.4010  176.7000  144.3920 C   0  0  0  0  0  3  0  0  0  0  0  0
  190.9860  177.4410  145.4130 C   0  0  0  0  0  3  0  0  0  0  0  0
  189.6890  176.4400  147.1180 F   0  0  0  0  0  0  0  0  0  0  0  0
  190.9530  176.9150  146.8130 C   0  0  1  0  0  3  0  0  0  0  0  0
  191.9860  175.8180  147.0370 C   0  0  0  0  0  2  0  0  0  0  0  0
  192.8110  176.1570  148.1130 O   0  0  0  0  0  1  0  0  0  0  0  0
  2 13  1  0  0  0  0
  2 10  1  0  0  0  0
  3  1  1  0  0  0  0
  4  5  1  0  0  0  0
  4 15  1  0  0  0  0
  5 16  1  0  0  0  0
  6  4  2  0  0  0  0
  7  1  1  0  0  0  0
  7 38  1  1  0  0  0
  8  2  2  0  0  0  0
  9  6  1  0  0  0  0
  9 14  1  0  0  0  0
 10  7  1  0  0  0  0
 11 19  1  0  0  0  0
 11 12  2  0  0  0  0
 13 25  1  1  0  0  0
 13  3  1  0  0  0  0
 14  8  1  0  0  0  0
 14  5  2  0  0  0  0
 15 11  1  0  0  0  0
 16 10  2  0  0  0  0
 17 20  1  0  0  0  0
 18 19  2  0  0  0  0
 19 17  1  0  0  0  0
 20 21  1  1  0  0  0
 22 20  1  0  0  0  0
 22 23  1  0  0  0  0
 24 22  2  0  0  0  0
 25 28  1  0  0  0  0
 27 26  2  0  0  0  0
 28 26  1  0  0  0  0
 30 36  1  6  0  0  0
 30 35  1  0  0  0  0
 30 34  1  0  0  0  0
 31 26  1  1  0  0  0
 31 35  1  0  0  0  0
 31 32  1  0  0  0  0
 32 33  1  1  0  0  0
 32 29  1  0  0  0  0
 35 32  1  0  0  0  0
 35 34  1  1  0  0  0
 37 36  2  0  0  0  0
 39 38  1  6  0  0  0
 39 41  1  0  0  0  0
 39 42  1  0  0  0  0
 41 40  1  0  0  0  0
 42 43  1  0  0  0  0
 43 44  2  0  0  0  0
 44 46  1  0  0  0  0
 46 47  1  0  0  0  0
 46 45  1  6  0  0  0
 47 48  1  0  0  0  0
M  END
>  <MODEL>
8

>  <REMARK>
 VINA RESULT:      -5.3      3.321      9.243
  Name = 
  14 active torsions:
  status: ('A' for Active; 'I' for Inactive)
    1  A    between atoms: C_2  and  CA_42
    2  A    between atoms: C_3  and  C_22
    3  A    between atoms: C_4  and  C_14
    4  A    between atoms: N_6  and  CA_42
    5  A    between atoms: C_12  and  C_31
    6  A    between atoms: C_18  and  C_43
    7  A    between atoms: O_21  and  C_35
    8  A    between atoms: C_22  and  C_34
    9  A    between atoms: N_23  and  C_37
   10  A    between atoms: C_27  and  C_47
   11  A    between atoms: C_30  and  N_44
   12  A    between atoms: C_35  and  C_43
   13  A    between atoms: C_35  and  N_44
   14  A    between atoms: C_37  and  C_38
                            x       y       z     vdW  Elec       q    Type
                         _______ _______ _______ _____ _____    ______ ____

>  <TORSDO>
F 14

$$$$
=
 OpenBabel10232411353D

 48 52  0  0  1  0  0  0  0  0999 V2000
  188.8940  178.4020  140.8140 C   0  0  0  0  0  2  0  0  0  0  0  0
  189.2210  176.3740  138.6990 C   0  0  0  0  0  0  0  0  0  0  0  0
  189.3600  176.7630  141.4170 S   0  0  0  0  0  0  0  0  0  0  0  0
  187.1870  176.3700  135.0750 C   0  0  0  0  0  0  0  0  0  0  0  0
  187.6800  176.4800  136.4310 C   0  0  0  0  0  0  0  0  0  0  0  0
  187.9590  175.6240  134.3470 N   0  0  0  0  0  0  0  0  0  0  0  0
  187.8220  178.2920  139.7390 C   0  0  1  0  0  3  0  0  0  0  0  0
  189.5400  175.6150  137.6110 N   0  0  0  0  0  0  0  0  0  0  0  0
  189.0350  175.0590  135.1720 C   0  0  0  0  0  2  0  0  0  0  0  0
  188.1240  177.2920  138.6400 C   0  0  0  0  0  0  0  0  0  0  0  0
  184.7080  176.8900  135.0290 C   0  0  0  0  0  0  0  0  0  0  0  0
  183.8060  177.6580  134.5930 O   0  0  0  0  0  0  0  0  0  0  0  0
  190.1900  176.3540  139.8450 C   0  0  2  0  0  3  0  0  0  0  0  0
  188.7590  175.6550  136.5050 C   0  0  0  0  0  0  0  0  0  0  0  0
  186.0520  177.0480  134.5400 N   0  0  0  0  0  2  0  0  0  0  0  0
  187.3380  177.3360  137.4720 C   0  0  0  0  0  3  0  0  0  0  0  0
  183.6220  176.1490  137.1680 N   0  0  0  0  0  2  0  0  0  0  0  0
  184.6160  174.6060  135.7300 O   0  0  0  0  0  0  0  0  0  0  0  0
  184.3210  175.8130  135.9630 C   0  0  0  0  0  0  0  0  0  0  0  0
  182.9410  175.1310  137.9540 C   0  0  1  0  0  3  0  0  0  0  0  0
  182.6040  175.6840  139.3270 C   0  0  0  0  0  1  0  0  0  0  0  0
  181.7030  174.6840  137.2450 C   0  0  0  0  0  0  0  0  0  0  0  0
  181.6360  173.3940  136.7270 O   0  0  0  0  0  0  0  0  0  0  0  0
  180.7280  175.4680  137.0980 O   0  0  0  0  0  1  0  0  0  0  0  0
  191.3430  177.3010  139.5240 C   0  0  0  0  0  2  0  0  0  0  0  0
  193.0960  176.2690  138.0680 C   0  0  0  0  0  0  0  0  0  0  0  0
  192.4030  176.5430  137.0460 O   0  0  0  0  0  0  0  0  0  0  0  0
  192.6050  176.5890  139.3740 N   0  0  0  0  0  2  0  0  0  0  0  0
  193.5260  174.6860  135.8880 O   0  0  0  0  0  1  0  0  0  0  0  0
  195.6160  174.0980  139.1950 C   0  0  2  0  0  3  0  0  0  0  0  0
  194.4850  175.7340  137.8870 C   0  0  2  0  0  3  0  0  0  0  0  0
  194.6520  174.8680  136.6960 C   0  0  2  0  0  0  0  0  0  0  0  0
  195.9850  175.0980  135.9800 C   0  0  0  0  0  1  0  0  0  0  0  0
  195.7160  173.3610  138.0400 O   0  0  0  0  0  0  0  0  0  0  0  0
  194.5480  174.1790  138.0880 C   0  0  1  0  0  0  0  0  0  0  0  0
  196.7940  175.0370  139.2000 C   0  0  0  0  0  3  0  0  0  0  0  0
  197.3490  175.3750  140.3610 C   0  0  0  0  0  2  0  0  0  0  0  0
  186.4480  178.0640  140.3590 C   0  0  0  0  0  2  0  0  0  0  0  0
  185.8550  179.3820  140.8770 C   0  0  1  0  0  3  0  0  0  0  0  0
  183.6980  179.1350  140.1440 C   0  0  0  0  0  1  0  0  0  0  0  0
  184.8710  179.8950  139.9960 O   0  0  0  0  0  0  0  0  0  0  0  0
  185.3430  179.2810  142.2510 N   0  0  0  0  0  2  0  0  0  0  0  0
  185.9150  178.4350  143.2420 C   0  0  0  0  0  3  0  0  0  0  0  0
  185.5080  178.5280  144.5020 C   0  0  0  0  0  3  0  0  0  0  0  0
  187.2880  177.1300  145.1880 F   0  0  0  0  0  0  0  0  0  0  0  0
  186.0750  177.6650  145.5850 C   0  0  1  0  0  3  0  0  0  0  0  0
  186.2490  178.4280  146.8930 C   0  0  0  0  0  2  0  0  0  0  0  0
  187.3990  177.9830  147.5490 O   0  0  0  0  0  1  0  0  0  0  0  0
  1  3  1  0  0  0  0
  2 13  1  0  0  0  0
  4  5  1  0  0  0  0
  5 14  2  0  0  0  0
  5 16  1  0  0  0  0
  6  4  2  0  0  0  0
  6  9  1  0  0  0  0
  7 38  1  1  0  0  0
  7  1  1  0  0  0  0
  8  2  2  0  0  0  0
  9 14  1  0  0  0  0
 10  2  1  0  0  0  0
 10  7  1  0  0  0  0
 11 19  1  0  0  0  0
 12 11  2  0  0  0  0
 13 25  1  6  0  0  0
 13  3  1  0  0  0  0
 14  8  1  0  0  0  0
 15 11  1  0  0  0  0
 15  4  1  0  0  0  0
 16 10  2  0  0  0  0
 17 20  1  0  0  0  0
 18 19  2  0  0  0  0
 19 17  1  0  0  0  0
 20 21  1  1  0  0  0
 22 20  1  0  0  0  0
 23 22  2  0  0  0  0
 24 22  1  0  0  0  0
 26 28  1  0  0  0  0
 27 26  2  0  0  0  0
 28 25  1  0  0  0  0
 29 32  1  0  0  0  0
 30 36  1  6  0  0  0
 31 26  1  6  0  0  0
 31 35  1  0  0  0  0
 32 33  1  6  0  0  0
 32 31  1  0  0  0  0
 32 35  1  0  0  0  0
 34 30  1  0  0  0  0
 35 34  1  1  0  0  0
 35 30  1  0  0  0  0
 36 37  2  0  0  0  0
 39 38  1  6  0  0  0
 39 42  1  0  0  0  0
 41 40  1  0  0  0  0
 41 39  1  0  0  0  0
 42 43  1  0  0  0  0
 43 44  2  0  0  0  0
 44 46  1  0  0  0  0
 46 45  1  6  0  0  0
 46 47  1  0  0  0  0
 47 48  1  0  0  0  0
M  END
>  <MODEL>
9

>  <REMARK>
 VINA RESULT:      -5.3      1.676      2.180
  Name = 
  14 active torsions:
  status: ('A' for Active; 'I' for Inactive)
    1  A    between atoms: C_2  and  CA_42
    2  A    between atoms: C_3  and  C_22
    3  A    between atoms: C_4  and  C_14
    4  A    between atoms: N_6  and  CA_42
    5  A    between atoms: C_12  and  C_31
    6  A    between atoms: C_18  and  C_43
    7  A    between atoms: O_21  and  C_35
    8  A    between atoms: C_22  and  C_34
    9  A    between atoms: N_23  and  C_37
   10  A    between atoms: C_27  and  C_47
   11  A    between atoms: C_30  and  N_44
   12  A    between atoms: C_35  and  C_43
   13  A    between atoms: C_35  and  N_44
   14  A    between atoms: C_37  and  C_38
                            x       y       z     vdW  Elec       q    Type
                         _______ _______ _______ _____ _____    ______ ____

>  <TORSDO>
F 14

$$$$
