=
 OpenBabel10232408173D

 32 36  0  0  1  0  0  0  0  0999 V2000
  184.7230  178.7240  145.8470 C   0  0  0  0  0  3  0  0  0  0  0  0
  189.8440  177.0830  146.5730 C   0  0  0  0  0  3  0  0  0  0  0  0
  191.0510  176.2490  144.6010 C   0  0  0  0  0  0  0  0  0  0  0  0
  187.4100  177.9500  146.0010 C   0  0  0  0  0  0  0  0  0  0  0  0
  185.3800  178.6340  147.1050 C   0  0  0  0  0  3  0  0  0  0  0  0
  185.6580  178.0730  142.3250 C   0  0  0  0  0  3  0  0  0  0  0  0
  185.4380  178.4200  144.6750 C   0  0  0  0  0  0  0  0  0  0  0  0
  191.9440  175.4950  144.1320 O   0  0  0  0  0  0  0  0  0  0  0  0
  187.0170  177.6890  142.4680 C   0  0  0  0  0  3  0  0  0  0  0  0
  186.7400  178.2350  147.1950 C   0  0  0  0  0  3  0  0  0  0  0  0
  188.8440  177.3370  144.3380 C   0  0  0  0  0  0  0  0  0  0  0  0
  190.9480  176.4910  146.0800 C   0  0  0  0  0  0  0  0  0  0  0  0
  187.5460  177.7070  143.7590 C   0  0  0  0  0  0  0  0  0  0  0  0
  186.7610  178.0580  144.8100 C   0  0  0  0  0  0  0  0  0  0  0  0
  188.7590  177.4780  145.6700 C   0  0  0  0  0  0  0  0  0  0  0  0
  184.9000  178.4290  143.4200 N   0  0  0  0  0  0  0  0  0  0  0  0
  190.1100  176.9350  143.6350 C   0  0  1  0  0  3  0  0  0  0  0  0
  192.2560  176.7930  148.2250 N   0  0  0  0  0  2  0  0  0  0  0  0
  193.3120  176.4230  149.1530 C   0  0  0  0  0  1  0  0  0  0  0  0
  192.0140  176.0660  147.0180 C   0  0  0  0  0  0  0  0  0  0  0  0
  192.7180  175.0520  146.7530 O   0  0  0  0  0  0  0  0  0  0  0  0
  190.7760  178.1170  143.1020 N   0  0  0  0  0  2  0  0  0  0  0  0
  191.3110  177.7840  141.9040 O   0  0  0  0  0  0  0  0  0  0  0  0
  190.4220  176.8480  141.3740 C   0  0  0  0  0  2  0  0  0  0  0  0
  190.1650  177.1520  139.9350 C   0  0  0  0  0  0  0  0  0  0  0  0
  189.2910  178.1220  139.6150 C   0  0  0  0  0  3  0  0  0  0  0  0
  189.3020  177.3810  137.2110 C   0  0  2  0  0  3  0  0  0  0  0  0
  188.9920  178.5150  138.1900 C   0  0  0  0  0  2  0  0  0  0  0  0
  190.7890  176.2580  138.8870 C   0  0  0  0  0  2  0  0  0  0  0  0
  190.7070  176.8440  137.4760 C   0  0  0  0  0  2  0  0  0  0  0  0
  189.1740  177.8610  135.7670 C   0  0  0  0  0  2  0  0  0  0  0  0
  187.8660  177.7000  135.3010 O   0  0  0  0  0  1  0  0  0  0  0  0
  1  5  1  0  0  0  0
  3 12  1  0  0  0  0
  4 10  1  0  0  0  0
  5 10  2  0  0  0  0
  6  9  1  0  0  0  0
  6 16  2  0  0  0  0
  7 14  1  0  0  0  0
  7  1  2  0  0  0  0
  8  3  2  0  0  0  0
  9 13  2  0  0  0  0
 11 15  2  0  0  0  0
 12  2  2  0  0  0  0
 12 20  1  0  0  0  0
 13 11  1  0  0  0  0
 13 14  1  0  0  0  0
 14  4  2  0  0  0  0
 15  4  1  0  0  0  0
 15  2  1  0  0  0  0
 16  7  1  0  0  0  0
 17 22  1  1  0  0  0
 17 11  1  0  0  0  0
 17  3  1  0  0  0  0
 18 19  1  0  0  0  0
 20 18  1  0  0  0  0
 21 20  2  0  0  0  0
 23 22  1  0  0  0  0
 24 23  1  0  0  0  0
 25 24  1  0  0  0  0
 26 25  2  0  0  0  0
 27 31  1  6  0  0  0
 27 30  1  0  0  0  0
 27 28  1  0  0  0  0
 28 26  1  0  0  0  0
 29 25  1  0  0  0  0
 30 29  1  0  0  0  0
 32 31  1  0  0  0  0
M  END
>  <MODEL>
1

>  <REMARK>
 VINA RESULT:     -10.1      0.000      0.000
  Name = 
  6 active torsions:
  status: ('A' for Active; 'I' for Inactive)
    1  A    between atoms: C_2  and  C_3
    2  A    between atoms: C_2  and  O_13
    3  A    between atoms: C_10  and  C_17
    4  A    between atoms: O_13  and  N_20
    5  A    between atoms: C_18  and  C_24
    6  A    between atoms: N_20  and  C_32
                            x       y       z     vdW  Elec       q    Type
                         _______ _______ _______ _____ _____    ______ ____

>  <TORSDO>
F 6

$$$$
=
 OpenBabel10232408173D

 32 36  0  0  1  0  0  0  0  0999 V2000
  189.8350  177.0600  147.4910 C   0  0  0  0  0  3  0  0  0  0  0  0
  190.6980  177.1470  142.1350 C   0  0  0  0  0  3  0  0  0  0  0  0
  188.7230  177.2420  140.6760 C   0  0  0  0  0  0  0  0  0  0  0  0
  190.0840  177.2360  144.7070 C   0  0  0  0  0  0  0  0  0  0  0  0
  191.1050  176.9180  146.8680 C   0  0  0  0  0  3  0  0  0  0  0  0
  186.3600  177.5800  146.3230 C   0  0  0  0  0  3  0  0  0  0  0  0
  188.6990  177.2910  146.6940 C   0  0  0  0  0  0  0  0  0  0  0  0
  188.1970  176.9650  139.5650 O   0  0  0  0  0  0  0  0  0  0  0  0
  186.5520  177.6610  144.9190 C   0  0  0  0  0  3  0  0  0  0  0  0
  191.2420  176.9980  145.4560 C   0  0  0  0  0  3  0  0  0  0  0  0
  188.4780  177.5410  143.1200 C   0  0  0  0  0  0  0  0  0  0  0  0
  190.2030  177.0940  140.8840 C   0  0  0  0  0  0  0  0  0  0  0  0
  187.8650  177.5670  144.4540 C   0  0  0  0  0  0  0  0  0  0  0  0
  188.8840  177.3820  145.3310 C   0  0  0  0  0  0  0  0  0  0  0  0
  189.7950  177.3400  143.2730 C   0  0  0  0  0  0  0  0  0  0  0  0
  187.4270  177.3990  147.1780 N   0  0  0  0  0  0  0  0  0  0  0  0
  187.8310  177.7650  141.7810 C   0  0  1  0  0  3  0  0  0  0  0  0
  190.8780  175.8230  138.8030 N   0  0  0  0  0  2  0  0  0  0  0  0
  191.7850  175.5440  137.7010 C   0  0  0  0  0  1  0  0  0  0  0  0
  191.1320  176.8590  139.7540 C   0  0  0  0  0  0  0  0  0  0  0  0
  192.1620  177.5790  139.6270 O   0  0  0  0  0  0  0  0  0  0  0  0
  187.6190  179.1920  141.5680 N   0  0  0  0  0  2  0  0  0  0  0  0
  186.3970  179.5040  142.0590 O   0  0  0  0  0  0  0  0  0  0  0  0
  185.5060  178.7850  141.2600 C   0  0  0  0  0  2  0  0  0  0  0  0
  184.1610  178.7530  141.9070 C   0  0  0  0  0  0  0  0  0  0  0  0
  183.0770  178.4990  141.1530 C   0  0  0  0  0  3  0  0  0  0  0  0
  181.5640  179.1940  143.0380 C   0  0  2  0  0  3  0  0  0  0  0  0
  181.6840  178.4200  141.7240 C   0  0  0  0  0  2  0  0  0  0  0  0
  184.0490  179.1530  143.3610 C   0  0  0  0  0  2  0  0  0  0  0  0
  182.6970  178.7890  143.9780 C   0  0  0  0  0  2  0  0  0  0  0  0
  180.2070  178.9440  143.6930 C   0  0  0  0  0  2  0  0  0  0  0  0
  180.0490  177.5920  144.0120 O   0  0  0  0  0  1  0  0  0  0  0  0
  2 15  1  0  0  0  0
  3 12  1  0  0  0  0
  3 17  1  0  0  0  0
  4 14  2  0  0  0  0
  4 10  1  0  0  0  0
  5  1  1  0  0  0  0
  6 16  2  0  0  0  0
  7 16  1  0  0  0  0
  7  1  2  0  0  0  0
  8  3  2  0  0  0  0
  9  6  1  0  0  0  0
 10  5  2  0  0  0  0
 11 15  2  0  0  0  0
 11 13  1  0  0  0  0
 12  2  2  0  0  0  0
 13  9  2  0  0  0  0
 13 14  1  0  0  0  0
 14  7  1  0  0  0  0
 15  4  1  0  0  0  0
 17 22  1  6  0  0  0
 17 11  1  0  0  0  0
 18 20  1  0  0  0  0
 19 18  1  0  0  0  0
 20 12  1  0  0  0  0
 21 20  2  0  0  0  0
 22 23  1  0  0  0  0
 24 25  1  0  0  0  0
 24 23  1  0  0  0  0
 25 29  1  0  0  0  0
 26 28  1  0  0  0  0
 26 25  2  0  0  0  0
 27 31  1  1  0  0  0
 27 30  1  0  0  0  0
 28 27  1  0  0  0  0
 29 30  1  0  0  0  0
 31 32  1  0  0  0  0
M  END
>  <MODEL>
2

>  <REMARK>
 VINA RESULT:      -9.8      3.250      6.641
  Name = 
  6 active torsions:
  status: ('A' for Active; 'I' for Inactive)
    1  A    between atoms: C_2  and  C_3
    2  A    between atoms: C_2  and  O_13
    3  A    between atoms: C_10  and  C_17
    4  A    between atoms: O_13  and  N_20
    5  A    between atoms: C_18  and  C_24
    6  A    between atoms: N_20  and  C_32
                            x       y       z     vdW  Elec       q    Type
                         _______ _______ _______ _____ _____    ______ ____

>  <TORSDO>
F 6

$$$$
=
 OpenBabel10232408173D

 32 36  0  0  1  0  0  0  0  0999 V2000
  181.9610  178.9370  143.7670 C   0  0  0  0  0  3  0  0  0  0  0  0
  185.6200  178.2350  139.8210 C   0  0  0  0  0  3  0  0  0  0  0  0
  187.9920  178.4110  140.4380 C   0  0  0  0  0  0  0  0  0  0  0  0
  183.9940  178.4840  141.8940 C   0  0  0  0  0  0  0  0  0  0  0  0
  181.6530  178.7730  142.3880 C   0  0  0  0  0  3  0  0  0  0  0  0
  185.0610  179.0180  145.7890 C   0  0  0  0  0  3  0  0  0  0  0  0
  183.3030  178.8690  144.1840 C   0  0  0  0  0  0  0  0  0  0  0  0
  189.1700  178.6940  140.0940 O   0  0  0  0  0  0  0  0  0  0  0  0
  186.0450  178.7850  144.7930 C   0  0  0  0  0  3  0  0  0  0  0  0
  182.6770  178.5500  141.4290 C   0  0  0  0  0  3  0  0  0  0  0  0
  186.2510  178.3710  142.1960 C   0  0  0  0  0  0  0  0  0  0  0  0
  186.9020  178.2800  139.4130 C   0  0  0  0  0  0  0  0  0  0  0  0
  185.5890  178.5790  143.4900 C   0  0  0  0  0  0  0  0  0  0  0  0
  184.2600  178.6310  143.2200 C   0  0  0  0  0  0  0  0  0  0  0  0
  185.3010  178.3200  141.2490 C   0  0  0  0  0  0  0  0  0  0  0  0
  183.7210  179.0560  145.4700 N   0  0  0  0  0  0  0  0  0  0  0  0
  187.7120  178.1690  141.9050 C   0  0  1  0  0  3  0  0  0  0  0  0
  187.6090  177.0140  137.3390 N   0  0  0  0  0  2  0  0  0  0  0  0
  187.9340  176.9380  135.9250 C   0  0  0  0  0  1  0  0  0  0  0  0
  187.1950  178.2320  137.9610 C   0  0  0  0  0  0  0  0  0  0  0  0
  187.0790  179.2770  137.2620 O   0  0  0  0  0  0  0  0  0  0  0  0
  188.0940  176.7990  142.2290 N   0  0  0  0  0  2  0  0  0  0  0  0
  189.3600  176.8280  142.7080 O   0  0  0  0  0  0  0  0  0  0  0  0
  189.2980  177.6890  143.8040 C   0  0  0  0  0  2  0  0  0  0  0  0
  190.1080  177.1350  144.9290 C   0  0  0  0  0  0  0  0  0  0  0  0
  189.7260  177.3770  146.1950 C   0  0  0  0  0  3  0  0  0  0  0  0
  191.9250  176.5120  147.0580 C   0  0  2  0  0  3  0  0  0  0  0  0
  190.4670  176.8350  147.3910 C   0  0  0  0  0  2  0  0  0  0  0  0
  191.4130  176.4420  144.6060 C   0  0  0  0  0  2  0  0  0  0  0  0
  191.9850  175.6620  145.7910 C   0  0  0  0  0  2  0  0  0  0  0  0
  192.5990  175.7910  148.2220 C   0  0  0  0  0  2  0  0  0  0  0  0
  193.2290  176.7000  149.0770 O   0  0  0  0  0  1  0  0  0  0  0  0
  1  7  1  0  0  0  0
  2 15  1  0  0  0  0
  3 17  1  0  0  0  0
  4 14  1  0  0  0  0
  5  1  2  0  0  0  0
  7 16  2  0  0  0  0
  8  3  2  0  0  0  0
  9  6  2  0  0  0  0
 10  4  2  0  0  0  0
 10  5  1  0  0  0  0
 11 13  1  0  0  0  0
 12  2  2  0  0  0  0
 12  3  1  0  0  0  0
 13  9  1  0  0  0  0
 14 13  2  0  0  0  0
 14  7  1  0  0  0  0
 15  4  1  0  0  0  0
 15 11  2  0  0  0  0
 16  6  1  0  0  0  0
 17 11  1  0  0  0  0
 17 22  1  6  0  0  0
 18 20  1  0  0  0  0
 19 18  1  0  0  0  0
 20 12  1  0  0  0  0
 21 20  2  0  0  0  0
 22 23  1  0  0  0  0
 23 24  1  0  0  0  0
 24 25  1  0  0  0  0
 25 26  2  0  0  0  0
 26 28  1  0  0  0  0
 27 28  1  0  0  0  0
 27 31  1  1  0  0  0
 29 25  1  0  0  0  0
 29 30  1  0  0  0  0
 30 27  1  0  0  0  0
 31 32  1  0  0  0  0
M  END
>  <MODEL>
3

>  <REMARK>
 VINA RESULT:      -9.6      2.349      7.495
  Name = 
  6 active torsions:
  status: ('A' for Active; 'I' for Inactive)
    1  A    between atoms: C_2  and  C_3
    2  A    between atoms: C_2  and  O_13
    3  A    between atoms: C_10  and  C_17
    4  A    between atoms: O_13  and  N_20
    5  A    between atoms: C_18  and  C_24
    6  A    between atoms: N_20  and  C_32
                            x       y       z     vdW  Elec       q    Type
                         _______ _______ _______ _____ _____    ______ ____

>  <TORSDO>
F 6

$$$$
=
 OpenBabel10232408173D

 32 36  0  0  1  0  0  0  0  0999 V2000
  189.9590  177.1140  147.3370 C   0  0  0  0  0  3  0  0  0  0  0  0
  185.7530  177.9540  144.0120 C   0  0  0  0  0  3  0  0  0  0  0  0
  186.2440  178.8570  141.7800 C   0  0  0  0  0  0  0  0  0  0  0  0
  187.9340  177.4980  145.4410 C   0  0  0  0  0  0  0  0  0  0  0  0
  188.5920  176.9590  147.6960 C   0  0  0  0  0  3  0  0  0  0  0  0
  191.7930  178.0640  144.2650 C   0  0  0  0  0  3  0  0  0  0  0  0
  190.2870  177.4620  146.0150 C   0  0  0  0  0  0  0  0  0  0  0  0
  185.8600  179.5380  140.7910 O   0  0  0  0  0  0  0  0  0  0  0  0
  190.7220  178.2440  143.3500 C   0  0  0  0  0  3  0  0  0  0  0  0
  187.5560  177.1590  146.7440 C   0  0  0  0  0  3  0  0  0  0  0  0
  188.0890  178.1140  143.2520 C   0  0  0  0  0  0  0  0  0  0  0  0
  185.2780  178.4500  142.8540 C   0  0  0  0  0  0  0  0  0  0  0  0
  189.4340  177.9950  143.8280 C   0  0  0  0  0  0  0  0  0  0  0  0
  189.2500  177.6250  145.1210 C   0  0  0  0  0  0  0  0  0  0  0  0
  187.1990  177.8230  144.2130 C   0  0  0  0  0  0  0  0  0  0  0  0
  191.5590  177.6800  145.5680 N   0  0  0  0  0  0  0  0  0  0  0  0
  187.6940  178.4280  141.8360 C   0  0  1  0  0  3  0  0  0  0  0  0
  182.9930  179.0010  143.7950 N   0  0  0  0  0  2  0  0  0  0  0  0
  181.5510  179.1360  143.6780 C   0  0  0  0  0  1  0  0  0  0  0  0
  183.8130  178.6090  142.6910 C   0  0  0  0  0  0  0  0  0  0  0  0
  183.2790  178.3970  141.5670 O   0  0  0  0  0  0  0  0  0  0  0  0
  187.8570  177.2420  141.0040 N   0  0  0  0  0  2  0  0  0  0  0  0
  188.0300  177.6560  139.7260 O   0  0  0  0  0  0  0  0  0  0  0  0
  189.2020  178.4130  139.7610 C   0  0  0  0  0  2  0  0  0  0  0  0
  190.3150  177.6510  139.1220 C   0  0  0  0  0  0  0  0  0  0  0  0
  190.1630  177.1980  137.8650 C   0  0  0  0  0  3  0  0  0  0  0  0
  192.2230  175.7730  138.0970 C   0  0  2  0  0  3  0  0  0  0  0  0
  191.2440  176.4430  137.1310 C   0  0  0  0  0  2  0  0  0  0  0  0
  191.5180  177.2890  139.9630 C   0  0  0  0  0  2  0  0  0  0  0  0
  192.7010  176.7890  139.1310 C   0  0  0  0  0  2  0  0  0  0  0  0
  193.4090  175.1800  137.3390 C   0  0  0  0  0  2  0  0  0  0  0  0
  194.6050  175.4100  138.0250 O   0  0  0  0  0  1  0  0  0  0  0  0
  1  5  1  0  0  0  0
  2 15  1  0  0  0  0
  3 17  1  0  0  0  0
  3 12  1  0  0  0  0
  4 10  1  0  0  0  0
  6 16  2  0  0  0  0
  7  1  2  0  0  0  0
  8  3  2  0  0  0  0
  9 13  2  0  0  0  0
  9  6  1  0  0  0  0
 10  5  2  0  0  0  0
 11 13  1  0  0  0  0
 11 15  2  0  0  0  0
 12  2  2  0  0  0  0
 13 14  1  0  0  0  0
 14  4  2  0  0  0  0
 14  7  1  0  0  0  0
 15  4  1  0  0  0  0
 16  7  1  0  0  0  0
 17 22  1  6  0  0  0
 17 11  1  0  0  0  0
 19 18  1  0  0  0  0
 20 12  1  0  0  0  0
 20 18  1  0  0  0  0
 21 20  2  0  0  0  0
 23 24  1  0  0  0  0
 23 22  1  0  0  0  0
 25 24  1  0  0  0  0
 25 29  1  0  0  0  0
 26 25  2  0  0  0  0
 27 31  1  6  0  0  0
 27 30  1  0  0  0  0
 28 26  1  0  0  0  0
 28 27  1  0  0  0  0
 30 29  1  0  0  0  0
 31 32  1  0  0  0  0
M  END
>  <MODEL>
4

>  <REMARK>
 VINA RESULT:      -9.6      2.720      5.718
  Name = 
  6 active torsions:
  status: ('A' for Active; 'I' for Inactive)
    1  A    between atoms: C_2  and  C_3
    2  A    between atoms: C_2  and  O_13
    3  A    between atoms: C_10  and  C_17
    4  A    between atoms: O_13  and  N_20
    5  A    between atoms: C_18  and  C_24
    6  A    between atoms: N_20  and  C_32
                            x       y       z     vdW  Elec       q    Type
                         _______ _______ _______ _____ _____    ______ ____

>  <TORSDO>
F 6

$$$$
=
 OpenBabel10232408173D

 32 36  0  0  1  0  0  0  0  0999 V2000
  188.6420  177.3600  148.1660 C   0  0  0  0  0  3  0  0  0  0  0  0
  186.2150  178.1620  143.3790 C   0  0  0  0  0  3  0  0  0  0  0  0
  187.6600  178.3640  141.4020 C   0  0  0  0  0  0  0  0  0  0  0  0
  187.5670  177.6530  145.5960 C   0  0  0  0  0  0  0  0  0  0  0  0
  187.2480  177.5740  147.9840 C   0  0  0  0  0  3  0  0  0  0  0  0
  191.5920  177.1310  145.9420 C   0  0  0  0  0  3  0  0  0  0  0  0
  189.4800  177.2960  147.0390 C   0  0  0  0  0  0  0  0  0  0  0  0
  187.8370  178.8390  140.2480 O   0  0  0  0  0  0  0  0  0  0  0  0
  190.9880  177.2860  144.6670 C   0  0  0  0  0  3  0  0  0  0  0  0
  186.6930  177.7320  146.6860 C   0  0  0  0  0  3  0  0  0  0  0  0
  188.6160  177.6610  143.5730 C   0  0  0  0  0  0  0  0  0  0  0  0
  186.3150  178.4380  142.0650 C   0  0  0  0  0  0  0  0  0  0  0  0
  189.5990  177.4250  144.6380 C   0  0  0  0  0  0  0  0  0  0  0  0
  188.8940  177.4330  145.7980 C   0  0  0  0  0  0  0  0  0  0  0  0
  187.4110  177.8010  144.1450 C   0  0  0  0  0  0  0  0  0  0  0  0
  190.8350  177.1380  147.0940 N   0  0  0  0  0  0  0  0  0  0  0  0
  188.8270  177.6840  142.0840 C   0  0  1  0  0  3  0  0  0  0  0  0
  183.8110  178.3490  141.7090 N   0  0  0  0  0  2  0  0  0  0  0  0
  182.6000  178.6970  140.9840 C   0  0  0  0  0  1  0  0  0  0  0  0
  185.0970  178.8390  141.3220 C   0  0  0  0  0  0  0  0  0  0  0  0
  185.1910  179.6210  140.3350 O   0  0  0  0  0  0  0  0  0  0  0  0
  188.9260  176.3200  141.5790 N   0  0  0  0  0  2  0  0  0  0  0  0
  190.2390  176.0430  141.3970 O   0  0  0  0  0  0  0  0  0  0  0  0
  190.7180  177.1100  140.6360 C   0  0  0  0  0  2  0  0  0  0  0  0
  191.1570  176.6190  139.2960 C   0  0  0  0  0  0  0  0  0  0  0  0
  192.4440  176.7650  138.9340 C   0  0  0  0  0  3  0  0  0  0  0  0
  191.8780  176.1480  136.5620 C   0  0  2  0  0  3  0  0  0  0  0  0
  192.9820  176.2750  137.6130 C   0  0  0  0  0  2  0  0  0  0  0  0
  190.1080  176.1050  138.3360 C   0  0  0  0  0  2  0  0  0  0  0  0
  190.7060  175.3590  137.1420 C   0  0  0  0  0  2  0  0  0  0  0  0
  192.4080  175.4720  135.2990 C   0  0  0  0  0  2  0  0  0  0  0  0
  193.8040  175.5160  135.2580 O   0  0  0  0  0  1  0  0  0  0  0  0
  2 15  1  0  0  0  0
  3 12  1  0  0  0  0
  3 17  1  0  0  0  0
  4 14  2  0  0  0  0
  4 10  1  0  0  0  0
  5  1  1  0  0  0  0
  6 16  2  0  0  0  0
  7 16  1  0  0  0  0
  7  1  2  0  0  0  0
  8  3  2  0  0  0  0
  9  6  1  0  0  0  0
 10  5  2  0  0  0  0
 11 15  2  0  0  0  0
 11 13  1  0  0  0  0
 12  2  2  0  0  0  0
 13  9  2  0  0  0  0
 13 14  1  0  0  0  0
 14  7  1  0  0  0  0
 15  4  1  0  0  0  0
 17 22  1  6  0  0  0
 17 11  1  0  0  0  0
 19 18  1  0  0  0  0
 20 18  1  0  0  0  0
 20 12  1  0  0  0  0
 21 20  2  0  0  0  0
 23 22  1  0  0  0  0
 24 23  1  0  0  0  0
 25 24  1  0  0  0  0
 26 25  2  0  0  0  0
 27 31  1  6  0  0  0
 27 30  1  0  0  0  0
 27 28  1  0  0  0  0
 28 26  1  0  0  0  0
 29 25  1  0  0  0  0
 30 29  1  0  0  0  0
 32 31  1  0  0  0  0
M  END
>  <MODEL>
5

>  <REMARK>
 VINA RESULT:      -9.5      2.299      5.463
  Name = 
  6 active torsions:
  status: ('A' for Active; 'I' for Inactive)
    1  A    between atoms: C_2  and  C_3
    2  A    between atoms: C_2  and  O_13
    3  A    between atoms: C_10  and  C_17
    4  A    between atoms: O_13  and  N_20
    5  A    between atoms: C_18  and  C_24
    6  A    between atoms: N_20  and  C_32
                            x       y       z     vdW  Elec       q    Type
                         _______ _______ _______ _____ _____    ______ ____

>  <TORSDO>
F 6

$$$$
=
 OpenBabel10232408173D

 32 36  0  0  1  0  0  0  0  0999 V2000
  183.0960  178.8900  144.8390 C   0  0  0  0  0  3  0  0  0  0  0  0
  188.3470  177.5260  144.9320 C   0  0  0  0  0  3  0  0  0  0  0  0
  189.3700  176.8340  142.8080 C   0  0  0  0  0  0  0  0  0  0  0  0
  185.8210  178.2690  144.6660 C   0  0  0  0  0  0  0  0  0  0  0  0
  183.8920  178.7940  146.0130 C   0  0  0  0  0  3  0  0  0  0  0  0
  183.6670  178.4190  141.2110 C   0  0  0  0  0  3  0  0  0  0  0  0
  183.6910  178.6700  143.5840 C   0  0  0  0  0  0  0  0  0  0  0  0
  190.2450  176.1490  142.2130 O   0  0  0  0  0  0  0  0  0  0  0  0
  185.0520  178.1100  141.1890 C   0  0  0  0  0  3  0  0  0  0  0  0
  185.2740  178.4720  145.9370 C   0  0  0  0  0  3  0  0  0  0  0  0
  187.0920  177.8000  142.8330 C   0  0  0  0  0  0  0  0  0  0  0  0
  189.4200  177.0170  144.2970 C   0  0  0  0  0  0  0  0  0  0  0  0
  185.7200  178.1130  142.4150 C   0  0  0  0  0  0  0  0  0  0  0  0
  185.0390  178.3810  143.5580 C   0  0  0  0  0  0  0  0  0  0  0  0
  187.1480  177.8880  144.1710 C   0  0  0  0  0  0  0  0  0  0  0  0
  183.0170  178.6910  142.3960 N   0  0  0  0  0  0  0  0  0  0  0  0
  188.2920  177.4970  141.9790 C   0  0  1  0  0  3  0  0  0  0  0  0
  190.5300  176.5360  146.5210 N   0  0  0  0  0  2  0  0  0  0  0  0
  191.6790  176.1830  147.3360 C   0  0  0  0  0  1  0  0  0  0  0  0
  190.6040  176.6230  145.0960 C   0  0  0  0  0  0  0  0  0  0  0  0
  191.6940  176.3590  144.5150 O   0  0  0  0  0  0  0  0  0  0  0  0
  188.8300  178.7340  141.4260 N   0  0  0  0  0  2  0  0  0  0  0  0
  188.3270  178.8800  140.1780 O   0  0  0  0  0  0  0  0  0  0  0  0
  189.0720  177.9950  139.3970 C   0  0  0  0  0  2  0  0  0  0  0  0
  188.2150  177.4340  138.3110 C   0  0  0  0  0  0  0  0  0  0  0  0
  187.0190  177.9970  138.0620 C   0  0  0  0  0  3  0  0  0  0  0  0
  186.3770  176.0560  136.5960 C   0  0  2  0  0  3  0  0  0  0  0  0
  186.1000  177.5140  136.9680 C   0  0  0  0  0  2  0  0  0  0  0  0
  188.6590  176.1620  137.6260 C   0  0  0  0  0  2  0  0  0  0  0  0
  187.8710  175.8650  136.3480 C   0  0  0  0  0  2  0  0  0  0  0  0
  185.5720  175.6490  135.3640 C   0  0  0  0  0  2  0  0  0  0  0  0
  184.3830  176.3810  135.2800 O   0  0  0  0  0  1  0  0  0  0  0  0
  1  5  1  0  0  0  0
  3 12  1  0  0  0  0
  4 10  1  0  0  0  0
  6 16  2  0  0  0  0
  7  1  2  0  0  0  0
  8  3  2  0  0  0  0
  9  6  1  0  0  0  0
  9 13  2  0  0  0  0
 10  5  2  0  0  0  0
 11 15  2  0  0  0  0
 12  2  2  0  0  0  0
 12 20  1  0  0  0  0
 13 11  1  0  0  0  0
 13 14  1  0  0  0  0
 14  7  1  0  0  0  0
 14  4  2  0  0  0  0
 15  4  1  0  0  0  0
 15  2  1  0  0  0  0
 16  7  1  0  0  0  0
 17 22  1  1  0  0  0
 17  3  1  0  0  0  0
 17 11  1  0  0  0  0
 18 19  1  0  0  0  0
 20 18  1  0  0  0  0
 21 20  2  0  0  0  0
 23 22  1  0  0  0  0
 24 23  1  0  0  0  0
 25 24  1  0  0  0  0
 26 25  2  0  0  0  0
 27 31  1  6  0  0  0
 27 28  1  0  0  0  0
 28 26  1  0  0  0  0
 29 25  1  0  0  0  0
 30 27  1  0  0  0  0
 30 29  1  0  0  0  0
 32 31  1  0  0  0  0
M  END
>  <MODEL>
6

>  <REMARK>
 VINA RESULT:      -9.3      1.976      2.641
  Name = 
  6 active torsions:
  status: ('A' for Active; 'I' for Inactive)
    1  A    between atoms: C_2  and  C_3
    2  A    between atoms: C_2  and  O_13
    3  A    between atoms: C_10  and  C_17
    4  A    between atoms: O_13  and  N_20
    5  A    between atoms: C_18  and  C_24
    6  A    between atoms: N_20  and  C_32
                            x       y       z     vdW  Elec       q    Type
                         _______ _______ _______ _____ _____    ______ ____

>  <TORSDO>
F 6

$$$$
=
 OpenBabel10232408173D

 32 36  0  0  1  0  0  0  0  0999 V2000
  189.8990  177.0350  147.4010 C   0  0  0  0  0  3  0  0  0  0  0  0
  191.0090  177.0560  142.0890 C   0  0  0  0  0  3  0  0  0  0  0  0
  189.1020  177.0960  140.5400 C   0  0  0  0  0  0  0  0  0  0  0  0
  190.2740  177.1730  144.6290 C   0  0  0  0  0  0  0  0  0  0  0  0
  191.1990  176.9050  146.8390 C   0  0  0  0  0  3  0  0  0  0  0  0
  186.4750  177.4790  146.0660 C   0  0  0  0  0  3  0  0  0  0  0  0
  188.7980  177.2350  146.5490 C   0  0  0  0  0  0  0  0  0  0  0  0
  188.6330  176.7930  139.4100 O   0  0  0  0  0  0  0  0  0  0  0  0
  186.7300  177.5420  144.6710 C   0  0  0  0  0  3  0  0  0  0  0  0
  191.4000  176.9660  145.4340 C   0  0  0  0  0  3  0  0  0  0  0  0
  188.7390  177.4280  142.9650 C   0  0  0  0  0  0  0  0  0  0  0  0
  190.5720  176.9770  140.8180 C   0  0  0  0  0  0  0  0  0  0  0  0
  188.0640  177.4630  144.2680 C   0  0  0  0  0  0  0  0  0  0  0  0
  189.0440  177.3080  145.1950 C   0  0  0  0  0  0  0  0  0  0  0  0
  190.0510  177.2510  143.1820 C   0  0  0  0  0  0  0  0  0  0  0  0
  187.5030  177.3290  146.9710 N   0  0  0  0  0  0  0  0  0  0  0  0
  188.1520  177.6200  141.5940 C   0  0  1  0  0  3  0  0  0  0  0  0
  191.3110  175.7600  138.7250 N   0  0  0  0  0  2  0  0  0  0  0  0
  192.2680  175.4810  137.6680 C   0  0  0  0  0  1  0  0  0  0  0  0
  191.5580  176.7400  139.7360 C   0  0  0  0  0  0  0  0  0  0  0  0
  192.6280  177.4080  139.7040 O   0  0  0  0  0  0  0  0  0  0  0  0
  187.9270  179.0400  141.3490 N   0  0  0  0  0  2  0  0  0  0  0  0
  186.7880  179.1570  140.6250 O   0  0  0  0  0  0  0  0  0  0  0  0
  185.7680  179.1510  141.5780 C   0  0  0  0  0  2  0  0  0  0  0  0
  184.4450  179.0070  140.9010 C   0  0  0  0  0  0  0  0  0  0  0  0
  183.4210  178.4530  141.5740 C   0  0  0  0  0  3  0  0  0  0  0  0
  182.0840  178.2730  139.4500 C   0  0  2  0  0  3  0  0  0  0  0  0
  182.0440  178.2930  140.9800 C   0  0  0  0  0  2  0  0  0  0  0  0
  184.3430  179.3570  139.4340 C   0  0  0  0  0  2  0  0  0  0  0  0
  182.8980  179.4610  138.9430 C   0  0  0  0  0  2  0  0  0  0  0  0
  180.6710  178.3040  138.8710 C   0  0  0  0  0  2  0  0  0  0  0  0
  180.3060  179.6050  138.5130 O   0  0  0  0  0  1  0  0  0  0  0  0
  2 15  1  0  0  0  0
  3 12  1  0  0  0  0
  3 17  1  0  0  0  0
  4 14  2  0  0  0  0
  4 10  1  0  0  0  0
  5  1  1  0  0  0  0
  6 16  2  0  0  0  0
  7 16  1  0  0  0  0
  7  1  2  0  0  0  0
  8  3  2  0  0  0  0
  9  6  1  0  0  0  0
 10  5  2  0  0  0  0
 11 15  2  0  0  0  0
 11 13  1  0  0  0  0
 12  2  2  0  0  0  0
 13  9  2  0  0  0  0
 13 14  1  0  0  0  0
 14  7  1  0  0  0  0
 15  4  1  0  0  0  0
 17 22  1  6  0  0  0
 17 11  1  0  0  0  0
 18 20  1  0  0  0  0
 19 18  1  0  0  0  0
 20 12  1  0  0  0  0
 21 20  2  0  0  0  0
 23 22  1  0  0  0  0
 23 24  1  0  0  0  0
 25 26  2  0  0  0  0
 25 24  1  0  0  0  0
 27 31  1  6  0  0  0
 27 28  1  0  0  0  0
 28 26  1  0  0  0  0
 29 25  1  0  0  0  0
 30 29  1  0  0  0  0
 30 27  1  0  0  0  0
 32 31  1  0  0  0  0
M  END
>  <MODEL>
7

>  <REMARK>
 VINA RESULT:      -9.3      3.115      6.009
  Name = 
  6 active torsions:
  status: ('A' for Active; 'I' for Inactive)
    1  A    between atoms: C_2  and  C_3
    2  A    between atoms: C_2  and  O_13
    3  A    between atoms: C_10  and  C_17
    4  A    between atoms: O_13  and  N_20
    5  A    between atoms: C_18  and  C_24
    6  A    between atoms: N_20  and  C_32
                            x       y       z     vdW  Elec       q    Type
                         _______ _______ _______ _____ _____    ______ ____

>  <TORSDO>
F 6

$$$$
=
 OpenBabel10232408173D

 32 36  0  0  1  0  0  0  0  0999 V2000
  189.9490  177.1370  147.4360 C   0  0  0  0  0  3  0  0  0  0  0  0
  185.7130  178.0620  144.1720 C   0  0  0  0  0  3  0  0  0  0  0  0
  186.1920  178.9170  141.9190 C   0  0  0  0  0  0  0  0  0  0  0  0
  187.9030  177.5570  145.5690 C   0  0  0  0  0  0  0  0  0  0  0  0
  188.5840  177.0310  147.8210 C   0  0  0  0  0  3  0  0  0  0  0  0
  191.7560  177.9850  144.3180 C   0  0  0  0  0  3  0  0  0  0  0  0
  190.2650  177.4560  146.1030 C   0  0  0  0  0  0  0  0  0  0  0  0
  185.8120  179.5950  140.9270 O   0  0  0  0  0  0  0  0  0  0  0  0
  190.6760  178.1850  143.4190 C   0  0  0  0  0  3  0  0  0  0  0  0
  187.5390  177.2490  146.8840 C   0  0  0  0  0  3  0  0  0  0  0  0
  188.0380  178.1370  143.3690 C   0  0  0  0  0  0  0  0  0  0  0  0
  185.2320  178.5560  143.0160 C   0  0  0  0  0  0  0  0  0  0  0  0
  189.3900  177.9840  143.9230 C   0  0  0  0  0  0  0  0  0  0  0  0
  189.2170  177.6390  145.2250 C   0  0  0  0  0  0  0  0  0  0  0  0
  187.1580  177.8880  144.3500 C   0  0  0  0  0  0  0  0  0  0  0  0
  191.5340  177.6270  145.6300 N   0  0  0  0  0  0  0  0  0  0  0  0
  187.6280  178.4430  141.9560 C   0  0  1  0  0  3  0  0  0  0  0  0
  183.1040  178.4460  141.6510 N   0  0  0  0  0  2  0  0  0  0  0  0
  181.6780  178.6620  141.4690 C   0  0  0  0  0  1  0  0  0  0  0  0
  183.7710  178.7590  142.8760 C   0  0  0  0  0  0  0  0  0  0  0  0
  183.1040  179.2130  143.8470 O   0  0  0  0  0  0  0  0  0  0  0  0
  187.7390  177.2400  141.1380 N   0  0  0  0  0  2  0  0  0  0  0  0
  188.9160  177.3030  140.4710 O   0  0  0  0  0  0  0  0  0  0  0  0
  188.6770  178.2010  139.4290 C   0  0  0  0  0  2  0  0  0  0  0  0
  187.9520  177.5100  138.3220 C   0  0  0  0  0  0  0  0  0  0  0  0
  188.5280  176.4570  137.7170 C   0  0  0  0  0  3  0  0  0  0  0  0
  186.7990  176.5200  135.8910 C   0  0  2  0  0  3  0  0  0  0  0  0
  187.8580  175.6820  136.6110 C   0  0  0  0  0  2  0  0  0  0  0  0
  186.6570  178.1100  137.8230 C   0  0  0  0  0  2  0  0  0  0  0  0
  185.8690  177.1610  136.9180 C   0  0  0  0  0  2  0  0  0  0  0  0
  186.0050  175.6620  134.9090 C   0  0  0  0  0  2  0  0  0  0  0  0
  186.6780  174.4690  134.6310 O   0  0  0  0  0  1  0  0  0  0  0  0
  1  5  1  0  0  0  0
  2 15  1  0  0  0  0
  3 17  1  0  0  0  0
  3 12  1  0  0  0  0
  4 10  1  0  0  0  0
  6 16  2  0  0  0  0
  7  1  2  0  0  0  0
  8  3  2  0  0  0  0
  9 13  2  0  0  0  0
  9  6  1  0  0  0  0
 10  5  2  0  0  0  0
 11 13  1  0  0  0  0
 11 15  2  0  0  0  0
 12  2  2  0  0  0  0
 13 14  1  0  0  0  0
 14  4  2  0  0  0  0
 14  7  1  0  0  0  0
 15  4  1  0  0  0  0
 16  7  1  0  0  0  0
 17 22  1  6  0  0  0
 17 11  1  0  0  0  0
 18 20  1  0  0  0  0
 19 18  1  0  0  0  0
 20 12  1  0  0  0  0
 20 21  2  0  0  0  0
 23 22  1  0  0  0  0
 24 23  1  0  0  0  0
 25 24  1  0  0  0  0
 26 25  2  0  0  0  0
 27 31  1  6  0  0  0
 27 28  1  0  0  0  0
 27 30  1  0  0  0  0
 28 26  1  0  0  0  0
 29 25  1  0  0  0  0
 30 29  1  0  0  0  0
 32 31  1  0  0  0  0
M  END
>  <MODEL>
8

>  <REMARK>
 VINA RESULT:      -9.2      2.766      5.752
  Name = 
  6 active torsions:
  status: ('A' for Active; 'I' for Inactive)
    1  A    between atoms: C_2  and  C_3
    2  A    between atoms: C_2  and  O_13
    3  A    between atoms: C_10  and  C_17
    4  A    between atoms: O_13  and  N_20
    5  A    between atoms: C_18  and  C_24
    6  A    between atoms: N_20  and  C_32
                            x       y       z     vdW  Elec       q    Type
                         _______ _______ _______ _____ _____    ______ ____

>  <TORSDO>
F 6

$$$$
=
 OpenBabel10232408173D

 32 36  0  0  1  0  0  0  0  0999 V2000
  180.0420  179.1880  141.6920 C   0  0  0  0  0  3  0  0  0  0  0  0
  184.3580  178.9850  144.9760 C   0  0  0  0  0  3  0  0  0  0  0  0
  186.3190  177.7350  144.1830 C   0  0  0  0  0  0  0  0  0  0  0  0
  182.4040  179.0760  143.1920 C   0  0  0  0  0  0  0  0  0  0  0  0
  180.0840  179.7050  143.0160 C   0  0  0  0  0  3  0  0  0  0  0  0
  182.4350  177.4750  139.4470 C   0  0  0  0  0  3  0  0  0  0  0  0
  181.2030  178.6190  141.1390 C   0  0  0  0  0  0  0  0  0  0  0  0
  187.3410  177.0530  144.4650 O   0  0  0  0  0  0  0  0  0  0  0  0
  183.6000  177.4480  140.2560 C   0  0  0  0  0  3  0  0  0  0  0  0
  181.2750  179.6460  143.7890 C   0  0  0  0  0  3  0  0  0  0  0  0
  184.4310  178.1870  142.6490 C   0  0  0  0  0  0  0  0  0  0  0  0
  185.5760  178.4830  145.2520 C   0  0  0  0  0  0  0  0  0  0  0  0
  183.5110  178.0500  141.5120 C   0  0  0  0  0  0  0  0  0  0  0  0
  182.3400  178.6030  141.9180 C   0  0  0  0  0  0  0  0  0  0  0  0
  183.7700  178.7920  143.6470 C   0  0  0  0  0  0  0  0  0  0  0  0
  181.2680  178.0540  139.8980 N   0  0  0  0  0  0  0  0  0  0  0  0
  185.8840  177.8110  142.7360 C   0  0  1  0  0  3  0  0  0  0  0  0
  187.2360  177.8690  147.0610 N   0  0  0  0  0  2  0  0  0  0  0  0
  187.7850  177.9920  148.4010 C   0  0  0  0  0  1  0  0  0  0  0  0
  186.1310  178.6580  146.6150 C   0  0  0  0  0  0  0  0  0  0  0  0
  185.6250  179.5130  147.3950 O   0  0  0  0  0  0  0  0  0  0  0  0
  186.6960  178.8180  142.0620 N   0  0  0  0  0  2  0  0  0  0  0  0
  187.4890  178.1780  141.1700 O   0  0  0  0  0  0  0  0  0  0  0  0
  188.7280  178.8080  141.2920 C   0  0  0  0  0  2  0  0  0  0  0  0
  189.5930  178.0440  142.2390 C   0  0  0  0  0  0  0  0  0  0  0  0
  189.6460  176.7040  142.1440 C   0  0  0  0  0  3  0  0  0  0  0  0
  190.8340  176.5630  144.3570 C   0  0  2  0  0  3  0  0  0  0  0  0
  190.5120  175.8540  143.0390 C   0  0  0  0  0  2  0  0  0  0  0  0
  190.2650  178.7940  143.3680 C   0  0  0  0  0  2  0  0  0  0  0  0
  191.3470  177.9710  144.0690 C   0  0  0  0  0  2  0  0  0  0  0  0
  191.8610  175.7690  145.1610 C   0  0  0  0  0  2  0  0  0  0  0  0
  192.3050  174.6550  144.4430 O   0  0  0  0  0  1  0  0  0  0  0  0
  1  5  1  0  0  0  0
  2 12  2  0  0  0  0
  3  8  2  0  0  0  0
  3 12  1  0  0  0  0
  4 15  1  0  0  0  0
  4 10  1  0  0  0  0
  5 10  2  0  0  0  0
  6 16  2  0  0  0  0
  6  9  1  0  0  0  0
  7  1  2  0  0  0  0
  7 14  1  0  0  0  0
  9 13  2  0  0  0  0
 11 17  1  0  0  0  0
 11 15  2  0  0  0  0
 12 20  1  0  0  0  0
 13 14  1  0  0  0  0
 13 11  1  0  0  0  0
 14  4  2  0  0  0  0
 15  2  1  0  0  0  0
 16  7  1  0  0  0  0
 17 22  1  6  0  0  0
 17  3  1  0  0  0  0
 18 19  1  0  0  0  0
 20 18  1  0  0  0  0
 20 21  2  0  0  0  0
 23 24  1  0  0  0  0
 23 22  1  0  0  0  0
 24 25  1  0  0  0  0
 25 29  1  0  0  0  0
 26 25  2  0  0  0  0
 26 28  1  0  0  0  0
 27 31  1  6  0  0  0
 28 27  1  0  0  0  0
 29 30  1  0  0  0  0
 30 27  1  0  0  0  0
 32 31  1  0  0  0  0
M  END
>  <MODEL>
9

>  <REMARK>
 VINA RESULT:      -9.0      3.268      5.852
  Name = 
  6 active torsions:
  status: ('A' for Active; 'I' for Inactive)
    1  A    between atoms: C_2  and  C_3
    2  A    between atoms: C_2  and  O_13
    3  A    between atoms: C_10  and  C_17
    4  A    between atoms: O_13  and  N_20
    5  A    between atoms: C_18  and  C_24
    6  A    between atoms: N_20  and  C_32
                            x       y       z     vdW  Elec       q    Type
                         _______ _______ _______ _____ _____    ______ ____

>  <TORSDO>
F 6

$$$$
