=
 OpenBabel10222422113D

 29 34  0  0  1  0  0  0  0  0999 V2000
  186.1910  178.2820  144.9630 C   0  0  0  0  0  0  0  0  0  0  0  0
  187.3400  177.9470  144.3560 N   0  0  0  0  0  0  0  0  0  0  0  0
  189.8620  175.7970  142.9110 C   0  0  0  0  0  3  0  0  0  0  0  0
  188.2710  176.8680  144.6090 C   0  0  1  0  0  3  0  0  0  0  0  0
  189.4450  178.1680  146.3980 O   0  0  0  0  0  1  0  0  0  0  0  0
  184.5860  178.4610  146.6840 N   0  0  0  0  0  0  0  0  0  0  0  0
  185.7910  178.3880  142.7710 C   0  0  1  0  0  3  0  0  0  0  0  0
  183.9110  178.8370  144.3970 C   0  0  0  0  0  3  0  0  0  0  0  0
  188.5890  176.4520  143.1980 C   0  0  1  0  0  3  0  0  0  0  0  0
  190.7270  176.8120  144.9230 C   0  0  0  0  0  0  0  0  0  0  0  0
  191.9040  177.1430  145.6530 N   0  0  0  0  0  1  0  0  0  0  0  0
  187.8850  177.0620  142.2920 N   0  0  0  0  0  2  0  0  0  0  0  0
  189.5320  177.3120  145.3060 C   0  0  0  0  0  0  0  0  0  0  0  0
  185.2290  178.5890  144.0260 C   0  0  0  0  0  0  0  0  0  0  0  0
  187.0830  177.9590  143.0460 C   0  0  2  0  0  3  0  0  0  0  0  0
  183.6160  178.7840  145.7710 C   0  0  0  0  0  3  0  0  0  0  0  0
  190.8410  175.9690  143.7520 N   0  0  0  0  0  0  0  0  0  0  0  0
  185.8710  178.1840  146.3120 C   0  0  0  0  0  3  0  0  0  0  0  0
  185.0630  178.2460  141.4770 C   0  0  0  0  0  2  0  0  0  0  0  0
  185.5310  179.2520  140.5390 N   0  0  0  0  0  2  0  0  0  0  0  0
  180.9260  178.8560  138.9840 C   0  0  0  0  0  3  0  0  0  0  0  0
  182.2400  179.0350  139.1170 C   0  0  0  0  0  0  0  0  0  0  0  0
  180.6410  181.2130  138.3470 C   0  0  0  0  0  3  0  0  0  0  0  0
  184.1090  180.3770  138.9810 N   0  0  0  0  0  0  0  0  0  0  0  0
  182.0290  181.3990  138.4910 O   0  0  0  0  0  0  0  0  0  0  0  0
  182.8310  180.3160  138.8600 C   0  0  0  0  0  0  0  0  0  0  0  0
  180.0830  180.0090  138.5740 C   0  0  0  0  0  3  0  0  0  0  0  0
  183.4350  177.8200  139.5990 S   0  0  0  0  0  0  0  0  0  0  0  0
  184.7400  179.1000  139.3310 C   0  0  2  0  0  3  0  0  0  0  0  0
  1 18  1  0  0  0  0
  2  4  1  0  0  0  0
  2  1  1  0  0  0  0
  3 17  2  0  0  0  0
  4 13  1  6  0  0  0
  7 19  1  1  0  0  0
  7 15  1  0  0  0  0
  7 14  1  0  0  0  0
  8 16  2  0  0  0  0
  9  3  1  6  0  0  0
  9  4  1  0  0  0  0
 10 13  2  0  0  0  0
 10 11  1  0  0  0  0
 12  9  1  0  0  0  0
 13  5  1  0  0  0  0
 14  8  1  0  0  0  0
 14  1  2  0  0  0  0
 15 12  1  1  0  0  0
 15  2  1  0  0  0  0
 16  6  1  0  0  0  0
 17 10  1  0  0  0  0
 18  6  2  0  0  0  0
 20 19  1  0  0  0  0
 21 22  2  0  0  0  0
 22 28  1  0  0  0  0
 23 25  1  0  0  0  0
 23 27  2  0  0  0  0
 24 29  1  0  0  0  0
 25 26  1  0  0  0  0
 26 24  2  0  0  0  0
 26 22  1  0  0  0  0
 27 21  1  0  0  0  0
 29 28  1  0  0  0  0
 29 20  1  1  0  0  0
M  END
>  <MODEL>
1

>  <REMARK>
 VINA RESULT:      -9.2      0.000      0.000
  Name = 
  3 active torsions:
  status: ('A' for Active; 'I' for Inactive)
    1  A    between atoms: C_9  and  C_13
    2  A    between atoms: C_13  and  N_20
    3  A    between atoms: N_20  and  C_29
                            x       y       z     vdW  Elec       q    Type
                         _______ _______ _______ _____ _____    ______ ____

>  <TORSDO>
F 3

$$$$
=
 OpenBabel10222422113D

 29 34  0  0  1  0  0  0  0  0999 V2000
  186.1830  178.3700  144.4670 C   0  0  0  0  0  0  0  0  0  0  0  0
  187.3920  178.0140  144.0040 N   0  0  0  0  0  0  0  0  0  0  0  0
  190.0330  175.8160  142.8820 C   0  0  0  0  0  3  0  0  0  0  0  0
  188.2680  176.9220  144.3730 C   0  0  1  0  0  3  0  0  0  0  0  0
  189.2400  178.2160  146.2830 O   0  0  0  0  0  1  0  0  0  0  0  0
  184.3860  178.5850  145.9830 N   0  0  0  0  0  0  0  0  0  0  0  0
  186.0510  178.4690  142.2430 C   0  0  1  0  0  3  0  0  0  0  0  0
  183.9980  178.9570  143.6290 C   0  0  0  0  0  3  0  0  0  0  0  0
  188.7460  176.4920  143.0110 C   0  0  1  0  0  3  0  0  0  0  0  0
  190.6670  176.8300  144.9790 C   0  0  0  0  0  0  0  0  0  0  0  0
  191.7540  177.1480  145.8430 N   0  0  0  0  0  1  0  0  0  0  0  0
  188.1660  177.1080  142.0250 N   0  0  0  0  0  2  0  0  0  0  0  0
  189.4430  177.3520  145.2130 C   0  0  0  0  0  0  0  0  0  0  0  0
  185.3460  178.6870  143.4200 C   0  0  0  0  0  0  0  0  0  0  0  0
  187.2940  178.0210  142.6730 C   0  0  2  0  0  3  0  0  0  0  0  0
  183.5390  178.9180  144.9580 C   0  0  0  0  0  3  0  0  0  0  0  0
  190.9070  175.9780  143.8340 N   0  0  0  0  0  0  0  0  0  0  0  0
  185.7020  178.2870  145.7690 C   0  0  0  0  0  3  0  0  0  0  0  0
  185.4810  178.3300  140.8720 C   0  0  0  0  0  2  0  0  0  0  0  0
  184.9580  179.6110  140.4260 N   0  0  0  0  0  2  0  0  0  0  0  0
  182.1080  175.9720  138.8710 C   0  0  0  0  0  3  0  0  0  0  0  0
  182.6670  177.1430  139.1780 C   0  0  0  0  0  0  0  0  0  0  0  0
  180.1940  176.4710  140.3310 C   0  0  0  0  0  3  0  0  0  0  0  0
  182.6140  179.1670  140.2770 N   0  0  0  0  0  0  0  0  0  0  0  0
  180.7890  177.7060  140.6540 O   0  0  0  0  0  0  0  0  0  0  0  0
  182.0120  178.0500  140.0740 C   0  0  0  0  0  0  0  0  0  0  0  0
  180.7990  175.6210  139.4800 C   0  0  0  0  0  3  0  0  0  0  0  0
  184.2140  177.7700  138.5870 S   0  0  0  0  0  0  0  0  0  0  0  0
  183.8610  179.3240  139.5210 C   0  0  2  0  0  3  0  0  0  0  0  0
  1 18  1  0  0  0  0
  2  4  1  0  0  0  0
  2  1  1  0  0  0  0
  3 17  2  0  0  0  0
  4 13  1  1  0  0  0
  7 19  1  6  0  0  0
  7 15  1  0  0  0  0
  7 14  1  0  0  0  0
  8 16  2  0  0  0  0
  9  3  1  1  0  0  0
  9  4  1  0  0  0  0
 10 13  2  0  0  0  0
 10 11  1  0  0  0  0
 12  9  1  0  0  0  0
 13  5  1  0  0  0  0
 14  8  1  0  0  0  0
 14  1  2  0  0  0  0
 15 12  1  1  0  0  0
 15  2  1  0  0  0  0
 16  6  1  0  0  0  0
 17 10  1  0  0  0  0
 18  6  2  0  0  0  0
 20 19  1  0  0  0  0
 21 22  2  0  0  0  0
 21 27  1  0  0  0  0
 22 26  1  0  0  0  0
 23 25  1  0  0  0  0
 26 24  2  0  0  0  0
 26 25  1  0  0  0  0
 27 23  2  0  0  0  0
 28 22  1  0  0  0  0
 28 29  1  0  0  0  0
 29 24  1  0  0  0  0
 29 20  1  1  0  0  0
M  END
>  <MODEL>
2

>  <REMARK>
 VINA RESULT:      -8.8      1.513      1.863
  Name = 
  3 active torsions:
  status: ('A' for Active; 'I' for Inactive)
    1  A    between atoms: C_9  and  C_13
    2  A    between atoms: C_13  and  N_20
    3  A    between atoms: N_20  and  C_29
                            x       y       z     vdW  Elec       q    Type
                         _______ _______ _______ _____ _____    ______ ____

>  <TORSDO>
F 3

$$$$
=
 OpenBabel10222422113D

 29 34  0  0  1  0  0  0  0  0999 V2000
  189.9230  177.0630  142.5540 C   0  0  0  0  0  0  0  0  0  0  0  0
  189.6770  176.9220  143.8660 N   0  0  0  0  0  0  0  0  0  0  0  0
  189.2620  177.9040  147.3200 C   0  0  0  0  0  3  0  0  0  0  0  0
  190.3240  177.5030  145.0230 C   0  0  1  0  0  3  0  0  0  0  0  0
  192.1040  175.7430  145.0370 O   0  0  0  0  0  1  0  0  0  0  0  0
  191.1500  177.4780  140.5800 N   0  0  0  0  0  0  0  0  0  0  0  0
  187.7130  177.2450  142.7950 C   0  0  1  0  0  3  0  0  0  0  0  0
  188.7380  177.5340  140.5050 C   0  0  0  0  0  3  0  0  0  0  0  0
  189.1200  177.8220  145.8690 C   0  0  1  0  0  3  0  0  0  0  0  0
  191.2290  176.5200  147.1080 C   0  0  0  0  0  0  0  0  0  0  0  0
  192.1570  175.6930  147.8020 N   0  0  0  0  0  1  0  0  0  0  0  0
  187.9820  177.6060  145.2790 N   0  0  0  0  0  2  0  0  0  0  0  0
  191.2220  176.5410  145.7570 C   0  0  0  0  0  0  0  0  0  0  0  0
  188.7430  177.2310  141.8630 C   0  0  0  0  0  0  0  0  0  0  0  0
  188.3600  177.0850  144.0140 C   0  0  2  0  0  3  0  0  0  0  0  0
  189.9890  177.6330  139.8690 C   0  0  0  0  0  3  0  0  0  0  0  0
  190.2760  177.2980  147.8700 N   0  0  0  0  0  0  0  0  0  0  0  0
  191.1520  177.2150  141.9210 C   0  0  0  0  0  3  0  0  0  0  0  0
  186.3230  177.7430  142.5850 C   0  0  0  0  0  2  0  0  0  0  0  0
  185.8560  178.4140  143.7860 N   0  0  0  0  0  2  0  0  0  0  0  0
  181.5920  178.5280  141.4240 C   0  0  0  0  0  3  0  0  0  0  0  0
  182.6640  178.7660  142.1800 C   0  0  0  0  0  0  0  0  0  0  0  0
  180.1620  178.4660  143.4230 C   0  0  0  0  0  3  0  0  0  0  0  0
  183.6260  179.1460  144.2390 N   0  0  0  0  0  0  0  0  0  0  0  0
  181.2970  178.7160  144.2180 O   0  0  0  0  0  0  0  0  0  0  0  0
  182.5410  178.8790  143.6030 C   0  0  0  0  0  0  0  0  0  0  0  0
  180.2700  178.3730  142.0840 C   0  0  0  0  0  3  0  0  0  0  0  0
  184.3310  178.9780  141.6220 S   0  0  0  0  0  0  0  0  0  0  0  0
  184.7990  179.3200  143.3760 C   0  0  2  0  0  3  0  0  0  0  0  0
  1  2  1  0  0  0  0
  2 15  1  0  0  0  0
  2  4  1  0  0  0  0
  3 17  2  0  0  0  0
  4 13  1  1  0  0  0
  4  9  1  0  0  0  0
  5 13  1  0  0  0  0
  6 18  2  0  0  0  0
  7 19  1  1  0  0  0
  7 15  1  0  0  0  0
  8 14  1  0  0  0  0
  9  3  1  1  0  0  0
 10 11  1  0  0  0  0
 10 17  1  0  0  0  0
 12  9  1  0  0  0  0
 13 10  2  0  0  0  0
 14  1  2  0  0  0  0
 14  7  1  0  0  0  0
 15 12  1  1  0  0  0
 16  8  2  0  0  0  0
 16  6  1  0  0  0  0
 18  1  1  0  0  0  0
 19 20  1  0  0  0  0
 21 27  1  0  0  0  0
 21 22  2  0  0  0  0
 22 26  1  0  0  0  0
 23 25  1  0  0  0  0
 26 25  1  0  0  0  0
 26 24  2  0  0  0  0
 27 23  2  0  0  0  0
 28 22  1  0  0  0  0
 28 29  1  0  0  0  0
 29 20  1  1  0  0  0
 29 24  1  0  0  0  0
M  END
>  <MODEL>
3

>  <REMARK>
 VINA RESULT:      -8.6      2.799      4.529
  Name = 
  3 active torsions:
  status: ('A' for Active; 'I' for Inactive)
    1  A    between atoms: C_9  and  C_13
    2  A    between atoms: C_13  and  N_20
    3  A    between atoms: N_20  and  C_29
                            x       y       z     vdW  Elec       q    Type
                         _______ _______ _______ _____ _____    ______ ____

>  <TORSDO>
F 3

$$$$
=
 OpenBabel10222422113D

 29 34  0  0  1  0  0  0  0  0999 V2000
  183.3750  178.5440  141.8630 C   0  0  0  0  0  0  0  0  0  0  0  0
  184.5850  178.2380  141.3690 N   0  0  0  0  0  0  0  0  0  0  0  0
  187.8950  178.8010  140.0300 C   0  0  0  0  0  3  0  0  0  0  0  0
  185.3470  178.8260  140.2870 C   0  0  1  0  0  3  0  0  0  0  0  0
  184.1540  177.4500  138.5680 O   0  0  0  0  0  1  0  0  0  0  0  0
  181.1630  179.3680  141.9090 N   0  0  0  0  0  0  0  0  0  0  0  0
  184.7160  178.2720  143.6240 C   0  0  1  0  0  3  0  0  0  0  0  0
  182.3150  178.9620  143.9910 C   0  0  0  0  0  3  0  0  0  0  0  0
  186.7220  178.8270  140.8990 C   0  0  1  0  0  3  0  0  0  0  0  0
  186.4860  177.8500  138.3160 C   0  0  0  0  0  0  0  0  0  0  0  0
  186.4620  177.1590  137.0710 N   0  0  0  0  0  1  0  0  0  0  0  0
  186.7520  178.4490  142.1420 N   0  0  0  0  0  2  0  0  0  0  0  0
  185.3480  177.9930  139.0300 C   0  0  0  0  0  0  0  0  0  0  0  0
  183.4090  178.5430  143.2410 C   0  0  0  0  0  0  0  0  0  0  0  0
  185.3970  178.1300  142.4220 C   0  0  2  0  0  3  0  0  0  0  0  0
  181.1690  179.3590  143.2790 C   0  0  0  0  0  3  0  0  0  0  0  0
  187.7460  178.3560  138.8150 N   0  0  0  0  0  0  0  0  0  0  0  0
  182.2520  178.9890  141.1750 C   0  0  0  0  0  3  0  0  0  0  0  0
  185.3220  178.5080  144.9670 C   0  0  0  0  0  2  0  0  0  0  0  0
  186.2700  177.4480  145.2690 N   0  0  0  0  0  2  0  0  0  0  0  0
  190.5340  176.6050  147.4790 C   0  0  0  0  0  3  0  0  0  0  0  0
  189.5160  177.0760  146.7590 C   0  0  0  0  0  0  0  0  0  0  0  0
  191.8380  176.2120  145.4330 C   0  0  0  0  0  3  0  0  0  0  0  0
  188.5900  177.6540  144.7300 N   0  0  0  0  0  0  0  0  0  0  0  0
  190.7610  176.7090  144.6750 O   0  0  0  0  0  0  0  0  0  0  0  0
  189.6090  177.1520  145.3310 C   0  0  0  0  0  0  0  0  0  0  0  0
  191.7620  176.1510  146.7760 C   0  0  0  0  0  3  0  0  0  0  0  0
  187.9620  177.6620  147.3710 S   0  0  0  0  0  0  0  0  0  0  0  0
  187.5190  178.0930  145.6310 C   0  0  2  0  0  3  0  0  0  0  0  0
  1 14  1  0  0  0  0
  2  1  1  0  0  0  0
  2 15  1  0  0  0  0
  4 13  1  6  0  0  0
  4  9  1  0  0  0  0
  4  2  1  0  0  0  0
  5 13  1  0  0  0  0
  6 16  2  0  0  0  0
  7 19  1  6  0  0  0
  9  3  1  6  0  0  0
  9 12  1  0  0  0  0
 10 17  1  0  0  0  0
 10 13  2  0  0  0  0
 11 10  1  0  0  0  0
 14  7  1  0  0  0  0
 14  8  2  0  0  0  0
 15 12  1  6  0  0  0
 15  7  1  0  0  0  0
 16  8  1  0  0  0  0
 17  3  2  0  0  0  0
 18  1  2  0  0  0  0
 18  6  1  0  0  0  0
 19 20  1  0  0  0  0
 22 28  1  0  0  0  0
 22 21  2  0  0  0  0
 23 27  2  0  0  0  0
 24 26  2  0  0  0  0
 24 29  1  0  0  0  0
 25 26  1  0  0  0  0
 25 23  1  0  0  0  0
 26 22  1  0  0  0  0
 27 21  1  0  0  0  0
 29 20  1  6  0  0  0
 29 28  1  0  0  0  0
M  END
>  <MODEL>
4

>  <REMARK>
 VINA RESULT:      -8.5      2.826      7.709
  Name = 
  3 active torsions:
  status: ('A' for Active; 'I' for Inactive)
    1  A    between atoms: C_9  and  C_13
    2  A    between atoms: C_13  and  N_20
    3  A    between atoms: N_20  and  C_29
                            x       y       z     vdW  Elec       q    Type
                         _______ _______ _______ _____ _____    ______ ____

>  <TORSDO>
F 3

$$$$
=
 OpenBabel10222422113D

 29 34  0  0  1  0  0  0  0  0999 V2000
  187.2620  177.8540  146.2010 C   0  0  0  0  0  0  0  0  0  0  0  0
  186.4100  177.8650  145.1640 N   0  0  0  0  0  0  0  0  0  0  0  0
  184.6750  179.1630  142.2700 C   0  0  0  0  0  3  0  0  0  0  0  0
  185.5230  178.8990  144.6730 C   0  0  1  0  0  3  0  0  0  0  0  0
  183.7290  178.2720  146.3030 O   0  0  0  0  0  1  0  0  0  0  0  0
  188.1750  178.4260  148.3020 N   0  0  0  0  0  0  0  0  0  0  0  0
  188.3710  176.9770  144.4760 C   0  0  1  0  0  3  0  0  0  0  0  0
  189.5560  177.2820  146.6850 C   0  0  0  0  0  3  0  0  0  0  0  0
  185.7300  178.7450  143.1890 C   0  0  1  0  0  3  0  0  0  0  0  0
  183.1150  178.9040  144.0940 C   0  0  0  0  0  0  0  0  0  0  0  0
  181.7410  178.7870  144.4500 N   0  0  0  0  0  1  0  0  0  0  0  0
  186.6560  177.8930  142.8660 N   0  0  0  0  0  2  0  0  0  0  0  0
  184.0740  178.6590  145.0130 C   0  0  0  0  0  0  0  0  0  0  0  0
  188.4610  177.2880  145.8270 C   0  0  0  0  0  0  0  0  0  0  0  0
  187.0940  177.3910  144.1200 C   0  0  2  0  0  3  0  0  0  0  0  0
  189.3720  177.8550  147.9570 C   0  0  0  0  0  3  0  0  0  0  0  0
  183.4600  179.2480  142.7310 N   0  0  0  0  0  0  0  0  0  0  0  0
  187.1130  178.4610  147.4430 C   0  0  0  0  0  3  0  0  0  0  0  0
  189.5010  176.6810  143.5490 C   0  0  0  0  0  2  0  0  0  0  0  0
  188.9890  176.4610  142.2070 N   0  0  0  0  0  2  0  0  0  0  0  0
  190.2090  177.2790  137.5570 C   0  0  0  0  0  3  0  0  0  0  0  0
  189.9170  177.3570  138.8550 C   0  0  0  0  0  0  0  0  0  0  0  0
  188.2870  178.7100  137.0100 C   0  0  0  0  0  3  0  0  0  0  0  0
  188.6200  178.1700  140.5770 N   0  0  0  0  0  0  0  0  0  0  0  0
  187.9810  178.7890  138.3810 O   0  0  0  0  0  0  0  0  0  0  0  0
  188.7960  178.1280  139.3040 C   0  0  0  0  0  0  0  0  0  0  0  0
  189.3470  177.9980  136.5830 C   0  0  0  0  0  3  0  0  0  0  0  0
  190.7890  176.5840  140.1890 S   0  0  0  0  0  0  0  0  0  0  0  0
  189.6300  177.4390  141.3470 C   0  0  2  0  0  3  0  0  0  0  0  0
  1 18  1  0  0  0  0
  2  1  1  0  0  0  0
  3 17  2  0  0  0  0
  4 13  1  6  0  0  0
  4  2  1  0  0  0  0
  7 19  1  6  0  0  0
  7 14  1  0  0  0  0
  8 16  2  0  0  0  0
  9  3  1  6  0  0  0
  9  4  1  0  0  0  0
 10 11  1  0  0  0  0
 10 13  2  0  0  0  0
 12  9  1  0  0  0  0
 13  5  1  0  0  0  0
 14  1  2  0  0  0  0
 14  8  1  0  0  0  0
 15 12  1  6  0  0  0
 15  7  1  0  0  0  0
 15  2  1  0  0  0  0
 16  6  1  0  0  0  0
 17 10  1  0  0  0  0
 18  6  2  0  0  0  0
 20 19  1  0  0  0  0
 21 22  2  0  0  0  0
 22 26  1  0  0  0  0
 22 28  1  0  0  0  0
 23 25  1  0  0  0  0
 24 29  1  0  0  0  0
 25 26  1  0  0  0  0
 26 24  2  0  0  0  0
 27 23  2  0  0  0  0
 27 21  1  0  0  0  0
 28 29  1  0  0  0  0
 29 20  1  1  0  0  0
M  END
>  <MODEL>
5

>  <REMARK>
 VINA RESULT:      -8.5      3.443      6.034
  Name = 
  3 active torsions:
  status: ('A' for Active; 'I' for Inactive)
    1  A    between atoms: C_9  and  C_13
    2  A    between atoms: C_13  and  N_20
    3  A    between atoms: N_20  and  C_29
                            x       y       z     vdW  Elec       q    Type
                         _______ _______ _______ _____ _____    ______ ____

>  <TORSDO>
F 3

$$$$
=
 OpenBabel10222422113D

 29 34  0  0  1  0  0  0  0  0999 V2000
  187.1080  178.0960  143.3670 C   0  0  0  0  0  0  0  0  0  0  0  0
  188.4070  177.7590  143.3960 N   0  0  0  0  0  0  0  0  0  0  0  0
  191.3090  175.6050  143.3460 C   0  0  0  0  0  3  0  0  0  0  0  0
  189.0930  176.6720  144.0610 C   0  0  1  0  0  3  0  0  0  0  0  0
  189.2440  177.9500  146.2090 O   0  0  0  0  0  1  0  0  0  0  0  0
  184.8660  178.2720  144.0850 N   0  0  0  0  0  0  0  0  0  0  0  0
  187.8300  178.2230  141.2600 C   0  0  1  0  0  3  0  0  0  0  0  0
  185.3970  178.6710  141.7640 C   0  0  0  0  0  3  0  0  0  0  0  0
  190.0590  176.2650  142.9800 C   0  0  1  0  0  3  0  0  0  0  0  0
  191.0810  176.5970  145.5350 C   0  0  0  0  0  0  0  0  0  0  0  0
  191.7520  176.9150  146.7500 N   0  0  0  0  0  1  0  0  0  0  0  0
  189.8890  176.8880  141.8530 N   0  0  0  0  0  2  0  0  0  0  0  0
  189.8530  177.1020  145.2900 C   0  0  0  0  0  0  0  0  0  0  0  0
  186.7270  178.4180  142.0820 C   0  0  0  0  0  0  0  0  0  0  0  0
  188.8220  177.7830  142.1270 C   0  0  2  0  0  3  0  0  0  0  0  0
  184.4670  178.6090  142.8180 C   0  0  0  0  0  3  0  0  0  0  0  0
  191.7520  175.7630  144.5600 N   0  0  0  0  0  0  0  0  0  0  0  0
  186.1690  177.9900  144.3860 C   0  0  0  0  0  3  0  0  0  0  0  0
  187.8280  178.0970  139.7740 C   0  0  0  0  0  2  0  0  0  0  0  0
  188.9800  178.7880  139.2220 N   0  0  0  0  0  2  0  0  0  0  0  0
  190.1250  174.4350  137.3460 C   0  0  0  0  0  3  0  0  0  0  0  0
  189.7480  175.6940  137.5680 C   0  0  0  0  0  0  0  0  0  0  0  0
  187.8680  173.8680  136.5550 C   0  0  0  0  0  3  0  0  0  0  0  0
  188.1510  177.3550  137.4980 N   0  0  0  0  0  0  0  0  0  0  0  0
  187.4720  175.1980  136.7930 O   0  0  0  0  0  0  0  0  0  0  0  0
  188.4070  176.1130  137.2840 C   0  0  0  0  0  0  0  0  0  0  0  0
  189.1300  173.4720  136.8070 C   0  0  0  0  0  3  0  0  0  0  0  0
  190.7490  177.0070  138.2090 S   0  0  0  0  0  0  0  0  0  0  0  0
  189.3030  178.1320  137.9680 C   0  0  2  0  0  3  0  0  0  0  0  0
  1  2  1  0  0  0  0
  1 18  1  0  0  0  0
  2  4  1  0  0  0  0
  3 17  2  0  0  0  0
  4 13  1  1  0  0  0
  6 18  2  0  0  0  0
  7 19  1  6  0  0  0
  7 14  1  0  0  0  0
  7 15  1  0  0  0  0
  8 14  1  0  0  0  0
  8 16  2  0  0  0  0
  9  3  1  1  0  0  0
  9  4  1  0  0  0  0
 10 11  1  0  0  0  0
 12  9  1  0  0  0  0
 13 10  2  0  0  0  0
 13  5  1  0  0  0  0
 14  1  2  0  0  0  0
 15 12  1  6  0  0  0
 15  2  1  0  0  0  0
 16  6  1  0  0  0  0
 17 10  1  0  0  0  0
 20 19  1  0  0  0  0
 21 22  2  0  0  0  0
 22 28  1  0  0  0  0
 23 25  1  0  0  0  0
 23 27  2  0  0  0  0
 24 29  1  0  0  0  0
 25 26  1  0  0  0  0
 26 24  2  0  0  0  0
 26 22  1  0  0  0  0
 27 21  1  0  0  0  0
 29 28  1  0  0  0  0
 29 20  1  1  0  0  0
M  END
>  <MODEL>
6

>  <REMARK>
 VINA RESULT:      -8.4      3.719      5.026
  Name = 
  3 active torsions:
  status: ('A' for Active; 'I' for Inactive)
    1  A    between atoms: C_9  and  C_13
    2  A    between atoms: C_13  and  N_20
    3  A    between atoms: N_20  and  C_29
                            x       y       z     vdW  Elec       q    Type
                         _______ _______ _______ _____ _____    ______ ____

>  <TORSDO>
F 3

$$$$
=
 OpenBabel10222422113D

 29 34  0  0  1  0  0  0  0  0999 V2000
  187.4820  178.0450  142.9890 C   0  0  0  0  0  0  0  0  0  0  0  0
  188.7640  177.7220  143.2210 N   0  0  0  0  0  0  0  0  0  0  0  0
  191.6480  175.5960  143.6990 C   0  0  0  0  0  3  0  0  0  0  0  0
  189.3500  176.6770  144.0340 C   0  0  1  0  0  3  0  0  0  0  0  0
  189.1900  178.0650  146.1110 O   0  0  0  0  0  1  0  0  0  0  0  0
  185.1600  178.2350  143.3700 N   0  0  0  0  0  0  0  0  0  0  0  0
  188.4990  178.0710  141.0040 C   0  0  1  0  0  3  0  0  0  0  0  0
  186.0170  178.5200  141.1310 C   0  0  0  0  0  3  0  0  0  0  0  0
  190.4620  176.2250  143.1250 C   0  0  1  0  0  3  0  0  0  0  0  0
  191.1070  176.6970  145.7780 C   0  0  0  0  0  0  0  0  0  0  0  0
  191.5960  177.0840  147.0590 N   0  0  0  0  0  1  0  0  0  0  0  0
  190.4540  176.7870  141.9530 N   0  0  0  0  0  2  0  0  0  0  0  0
  189.9250  177.1780  145.3340 C   0  0  0  0  0  0  0  0  0  0  0  0
  187.2890  178.2960  141.6480 C   0  0  0  0  0  0  0  0  0  0  0  0
  189.3570  177.6850  142.0260 C   0  0  2  0  0  3  0  0  0  0  0  0
  184.9460  178.5030  142.0430 C   0  0  0  0  0  3  0  0  0  0  0  0
  191.9120  175.8210  144.9550 N   0  0  0  0  0  0  0  0  0  0  0  0
  186.4070  177.9820  143.8680 C   0  0  0  0  0  3  0  0  0  0  0  0
  188.7090  177.8680  139.5420 C   0  0  0  0  0  2  0  0  0  0  0  0
  188.9660  179.1470  138.9010 N   0  0  0  0  0  2  0  0  0  0  0  0
  187.9920  175.7320  135.5600 C   0  0  0  0  0  3  0  0  0  0  0  0
  188.2520  176.8530  136.2320 C   0  0  0  0  0  0  0  0  0  0  0  0
  185.7910  176.6040  134.9000 C   0  0  0  0  0  3  0  0  0  0  0  0
  187.6540  178.9730  136.9100 N   0  0  0  0  0  0  0  0  0  0  0  0
  186.0680  177.7860  135.6130 O   0  0  0  0  0  0  0  0  0  0  0  0
  187.2960  177.9200  136.2660 C   0  0  0  0  0  0  0  0  0  0  0  0
  186.6910  175.6040  134.8540 C   0  0  0  0  0  3  0  0  0  0  0  0
  189.7200  177.2270  137.1500 S   0  0  0  0  0  0  0  0  0  0  0  0
  189.0070  178.9010  137.4720 C   0  0  2  0  0  3  0  0  0  0  0  0
  1  2  1  0  0  0  0
  1 18  1  0  0  0  0
  2  4  1  0  0  0  0
  3 17  2  0  0  0  0
  4 13  1  1  0  0  0
  6 18  2  0  0  0  0
  7 19  1  6  0  0  0
  7 14  1  0  0  0  0
  7 15  1  0  0  0  0
  8 14  1  0  0  0  0
  8 16  2  0  0  0  0
  9  3  1  1  0  0  0
  9  4  1  0  0  0  0
 10 11  1  0  0  0  0
 12  9  1  0  0  0  0
 13 10  2  0  0  0  0
 13  5  1  0  0  0  0
 14  1  2  0  0  0  0
 15 12  1  6  0  0  0
 15  2  1  0  0  0  0
 16  6  1  0  0  0  0
 17 10  1  0  0  0  0
 20 19  1  0  0  0  0
 21 22  2  0  0  0  0
 22 26  1  0  0  0  0
 22 28  1  0  0  0  0
 23 25  1  0  0  0  0
 24 29  1  0  0  0  0
 25 26  1  0  0  0  0
 26 24  2  0  0  0  0
 27 23  2  0  0  0  0
 27 21  1  0  0  0  0
 28 29  1  0  0  0  0
 29 20  1  1  0  0  0
M  END
>  <MODEL>
7

>  <REMARK>
 VINA RESULT:      -8.4      3.392      4.360
  Name = 
  3 active torsions:
  status: ('A' for Active; 'I' for Inactive)
    1  A    between atoms: C_9  and  C_13
    2  A    between atoms: C_13  and  N_20
    3  A    between atoms: N_20  and  C_29
                            x       y       z     vdW  Elec       q    Type
                         _______ _______ _______ _____ _____    ______ ____

>  <TORSDO>
F 3

$$$$
=
 OpenBabel10222422113D

 29 34  0  0  1  0  0  0  0  0999 V2000
  186.0330  178.1910  145.4300 C   0  0  0  0  0  0  0  0  0  0  0  0
  185.6230  178.1050  144.1550 N   0  0  0  0  0  0  0  0  0  0  0  0
  185.0290  179.1620  140.7490 C   0  0  0  0  0  3  0  0  0  0  0  0
  184.9420  179.0610  143.3070 C   0  0  1  0  0  3  0  0  0  0  0  0
  182.6980  178.4130  144.2080 O   0  0  0  0  0  1  0  0  0  0  0  0
  186.0900  178.9150  147.6760 N   0  0  0  0  0  0  0  0  0  0  0  0
  187.7290  177.2970  144.2900 C   0  0  1  0  0  3  0  0  0  0  0  0
  188.0080  177.7740  146.7540 C   0  0  0  0  0  3  0  0  0  0  0  0
  185.6850  178.8490  142.0150 C   0  0  1  0  0  3  0  0  0  0  0  0
  182.9180  178.9030  141.8900 C   0  0  0  0  0  0  0  0  0  0  0  0
  181.5140  178.7250  141.7280 N   0  0  0  0  0  1  0  0  0  0  0  0
  186.6940  178.0360  142.1090 N   0  0  0  0  0  2  0  0  0  0  0  0
  183.4790  178.7570  143.1100 C   0  0  0  0  0  0  0  0  0  0  0  0
  187.3050  177.6770  145.5570 C   0  0  0  0  0  0  0  0  0  0  0  0
  186.6580  177.6200  143.4660 C   0  0  2  0  0  3  0  0  0  0  0  0
  187.3490  178.3960  147.8300 C   0  0  0  0  0  3  0  0  0  0  0  0
  183.7270  179.2000  140.7280 N   0  0  0  0  0  0  0  0  0  0  0  0
  185.4170  178.8480  146.4890 C   0  0  0  0  0  3  0  0  0  0  0  0
  189.1300  177.0210  143.8600 C   0  0  0  0  0  2  0  0  0  0  0  0
  189.1300  176.4490  142.5240 N   0  0  0  0  0  2  0  0  0  0  0  0
  192.9990  176.9160  139.5930 C   0  0  0  0  0  3  0  0  0  0  0  0
  191.8420  177.0350  140.2440 C   0  0  0  0  0  0  0  0  0  0  0  0
  191.8040  176.5110  137.4840 C   0  0  0  0  0  3  0  0  0  0  0  0
  189.5380  177.0760  140.2540 N   0  0  0  0  0  0  0  0  0  0  0  0
  190.5840  176.6350  138.1750 O   0  0  0  0  0  0  0  0  0  0  0  0
  190.5970  176.9090  139.5450 C   0  0  0  0  0  0  0  0  0  0  0  0
  192.9760  176.6420  138.1340 C   0  0  0  0  0  3  0  0  0  0  0  0
  191.6210  177.3510  141.9730 S   0  0  0  0  0  0  0  0  0  0  0  0
  189.8010  177.4010  141.6590 C   0  0  2  0  0  3  0  0  0  0  0  0
  1 14  2  0  0  0  0
  1 18  1  0  0  0  0
  2  1  1  0  0  0  0
  4 13  1  6  0  0  0
  4  2  1  0  0  0  0
  6 16  1  0  0  0  0
  7 19  1  6  0  0  0
  7 14  1  0  0  0  0
  8 16  2  0  0  0  0
  9  3  1  6  0  0  0
  9 12  1  0  0  0  0
  9  4  1  0  0  0  0
 10 13  2  0  0  0  0
 11 10  1  0  0  0  0
 13  5  1  0  0  0  0
 14  8  1  0  0  0  0
 15 12  1  6  0  0  0
 15  2  1  0  0  0  0
 15  7  1  0  0  0  0
 17  3  2  0  0  0  0
 17 10  1  0  0  0  0
 18  6  2  0  0  0  0
 20 19  1  0  0  0  0
 21 22  2  0  0  0  0
 22 28  1  0  0  0  0
 23 27  2  0  0  0  0
 23 25  1  0  0  0  0
 24 29  1  0  0  0  0
 25 26  1  0  0  0  0
 26 22  1  0  0  0  0
 26 24  2  0  0  0  0
 27 21  1  0  0  0  0
 29 28  1  0  0  0  0
 29 20  1  1  0  0  0
M  END
>  <MODEL>
8

>  <REMARK>
 VINA RESULT:      -8.3      3.559      7.052
  Name = 
  3 active torsions:
  status: ('A' for Active; 'I' for Inactive)
    1  A    between atoms: C_9  and  C_13
    2  A    between atoms: C_13  and  N_20
    3  A    between atoms: N_20  and  C_29
                            x       y       z     vdW  Elec       q    Type
                         _______ _______ _______ _____ _____    ______ ____

>  <TORSDO>
F 3

$$$$
=
 OpenBabel10222422113D

 29 34  0  0  1  0  0  0  0  0999 V2000
  189.0170  177.0900  144.7480 C   0  0  0  0  0  0  0  0  0  0  0  0
  187.8460  177.4000  144.1680 N   0  0  0  0  0  0  0  0  0  0  0  0
  185.3630  179.4470  142.5220 C   0  0  0  0  0  3  0  0  0  0  0  0
  187.0120  178.5780  144.2790 C   0  0  1  0  0  3  0  0  0  0  0  0
  185.9040  177.7200  146.3540 O   0  0  0  0  0  1  0  0  0  0  0  0
  190.7410  177.0990  146.3600 N   0  0  0  0  0  0  0  0  0  0  0  0
  189.2300  176.5580  142.5920 C   0  0  1  0  0  3  0  0  0  0  0  0
  191.2020  176.2630  144.1420 C   0  0  0  0  0  3  0  0  0  0  0  0
  186.6090  178.7560  142.8390 C   0  0  1  0  0  3  0  0  0  0  0  0
  184.5990  178.8850  144.7420 C   0  0  0  0  0  0  0  0  0  0  0  0
  183.4660  178.7850  145.5990 N   0  0  0  0  0  1  0  0  0  0  0  0
  187.1960  177.9380  142.0170 N   0  0  0  0  0  2  0  0  0  0  0  0
  185.7850  178.3680  145.1300 C   0  0  0  0  0  0  0  0  0  0  0  0
  189.8770  176.5430  143.8210 C   0  0  0  0  0  0  0  0  0  0  0  0
  187.9960  177.1310  142.8690 C   0  0  2  0  0  3  0  0  0  0  0  0
  191.6100  176.5400  145.4590 C   0  0  0  0  0  3  0  0  0  0  0  0
  184.4460  179.5080  143.4450 N   0  0  0  0  0  0  0  0  0  0  0  0
  189.4510  177.4040  146.0300 C   0  0  0  0  0  3  0  0  0  0  0  0
  189.8580  176.4060  141.2480 C   0  0  0  0  0  2  0  0  0  0  0  0
  190.4550  177.6670  140.8400 N   0  0  0  0  0  2  0  0  0  0  0  0
  187.4890  176.0910  137.3050 C   0  0  0  0  0  3  0  0  0  0  0  0
  188.3550  176.7490  138.0750 C   0  0  0  0  0  0  0  0  0  0  0  0
  185.9400  177.9980  137.3670 C   0  0  0  0  0  3  0  0  0  0  0  0
  188.9780  178.6410  139.2330 N   0  0  0  0  0  0  0  0  0  0  0  0
  186.8560  178.6900  138.1820 O   0  0  0  0  0  0  0  0  0  0  0  0
  188.0640  178.0780  138.5260 C   0  0  0  0  0  0  0  0  0  0  0  0
  186.2140  176.7550  136.9290 C   0  0  0  0  0  3  0  0  0  0  0  0
  189.9230  176.1630  138.6530 S   0  0  0  0  0  0  0  0  0  0  0  0
  190.1790  177.8220  139.4240 C   0  0  2  0  0  3  0  0  0  0  0  0
  1 18  1  0  0  0  0
  2  4  1  0  0  0  0
  2  1  1  0  0  0  0
  3 17  2  0  0  0  0
  4 13  1  1  0  0  0
  7 19  1  6  0  0  0
  7 15  1  0  0  0  0
  7 14  1  0  0  0  0
  8 16  2  0  0  0  0
  9  3  1  1  0  0  0
  9  4  1  0  0  0  0
 10 13  2  0  0  0  0
 10 11  1  0  0  0  0
 12  9  1  0  0  0  0
 13  5  1  0  0  0  0
 14  8  1  0  0  0  0
 14  1  2  0  0  0  0
 15 12  1  6  0  0  0
 15  2  1  0  0  0  0
 16  6  1  0  0  0  0
 17 10  1  0  0  0  0
 18  6  2  0  0  0  0
 20 19  1  0  0  0  0
 21 22  2  0  0  0  0
 22 26  1  0  0  0  0
 22 28  1  0  0  0  0
 23 25  1  0  0  0  0
 24 29  1  0  0  0  0
 25 26  1  0  0  0  0
 26 24  2  0  0  0  0
 27 21  1  0  0  0  0
 27 23  2  0  0  0  0
 28 29  1  0  0  0  0
 29 20  1  1  0  0  0
M  END
>  <MODEL>
9

>  <REMARK>
 VINA RESULT:      -8.3      3.185      5.536
  Name = 
  3 active torsions:
  status: ('A' for Active; 'I' for Inactive)
    1  A    between atoms: C_9  and  C_13
    2  A    between atoms: C_13  and  N_20
    3  A    between atoms: N_20  and  C_29
                            x       y       z     vdW  Elec       q    Type
                         _______ _______ _______ _____ _____    ______ ____

>  <TORSDO>
F 3

$$$$
