=
 OpenBabel10232409233D

 52 53  0  0  1  0  0  0  0  0999 V2000
  184.7220  178.3490  141.7600 N   0  0  0  0  0  0  0  0  0  0  0  0
  186.2600  177.9840  143.6570 C   0  0  0  0  0  2  0  0  0  0  0  0
  185.3980  179.0160  142.8910 C   0  0  2  0  0  3  0  0  0  0  0  0
  183.8490  178.8130  144.8850 C   0  0  0  0  0  2  0  0  0  0  0  0
  184.9980  179.0960  146.9610 O   0  0  0  0  0  1  0  0  0  0  0  0
  184.9570  178.3030  145.8140 C   0  0  2  0  0  3  0  0  0  0  0  0
  186.3480  178.2770  145.1580 C   0  0  1  0  0  3  0  0  0  0  0  0
  184.4090  179.7520  143.8230 C   0  0  0  0  0  2  0  0  0  0  0  0
  187.2080  177.2270  145.8420 C   0  0  0  0  0  2  0  0  0  0  0  0
  188.2020  177.8950  146.7720 C   0  0  0  0  0  2  0  0  0  0  0  0
  188.9260  176.8610  147.6160 C   0  0  0  0  0  2  0  0  0  0  0  0
  190.4040  176.8230  147.2530 C   0  0  0  0  0  1  0  0  0  0  0  0
  183.2770  178.5890  141.7630 C   0  0  0  0  0  2  0  0  0  0  0  0
  182.7820  178.7440  140.3410 C   0  0  0  0  0  2  0  0  0  0  0  0
  181.7510  177.6720  140.0470 C   0  0  0  0  0  2  0  0  0  0  0  0
  182.4510  176.3330  139.8840 C   0  0  0  0  0  2  0  0  0  0  0  0
  183.8950  176.3300  137.9870 O   0  0  0  0  0  0  0  0  0  0  0  0
  182.7490  176.0720  138.4440 C   0  0  0  0  0  0  0  0  0  0  0  0
  181.7300  175.5410  137.5890 N   0  0  0  0  0  2  0  0  0  0  0  0
  181.9570  175.2750  136.1780 C   0  0  0  0  0  2  0  0  0  0  0  0
  182.2950  173.8060  135.9790 C   0  0  0  0  0  2  0  0  0  0  0  0
  186.0770  173.2280  135.9280 N   0  0  0  0  0  2  0  0  0  0  0  0
  183.6760  173.6570  135.5380 N   0  0  0  0  0  2  0  0  0  0  0  0
  184.4720  172.8550  137.5850 O   0  0  0  0  0  0  0  0  0  0  0  0
  184.7300  173.2350  136.4080 C   0  0  0  0  0  0  0  0  0  0  0  0
  187.2110  172.9180  136.7840 C   0  0  0  0  0  2  0  0  0  0  0  0
  188.1060  171.8910  136.1070 C   0  0  0  0  0  1  0  0  0  0  0  0
  185.2880  178.8030  140.4790 C   0  0  0  0  0  2  0  0  0  0  0  0
  186.7790  178.4820  140.3090 C   0  0  0  0  0  2  0  0  0  0  0  0
  187.1090  178.3000  138.9390 O   0  0  0  0  0  0  0  0  0  0  0  0
  188.4090  178.4550  138.4530 C   0  0  0  0  0  0  0  0  0  0  0  0
  188.6800  179.3720  137.6290 O   0  0  0  0  0  0  0  0  0  0  0  0
  189.4720  177.5020  138.8980 C   0  0  2  0  0  3  0  0  0  0  0  0
  190.2630  178.0570  139.9470 O   0  0  0  0  0  0  0  0  0  0  0  0
  189.4250  176.1780  143.0130 C   0  0  0  0  0  3  0  0  0  0  0  0
  190.6410  176.2110  143.7010 C   0  0  0  0  0  3  0  0  0  0  0  0
  190.4060  177.4550  141.2000 C   0  0  0  0  0  0  0  0  0  0  0  0
  191.7380  176.8700  143.1450 C   0  0  0  0  0  3  0  0  0  0  0  0
  189.3090  176.7980  141.7660 C   0  0  0  0  0  3  0  0  0  0  0  0
  191.6220  177.4910  141.8990 C   0  0  0  0  0  3  0  0  0  0  0  0
  190.3520  177.1400  137.7150 C   0  0  0  0  0  2  0  0  0  0  0  0
  191.4390  176.1420  138.1010 C   0  0  0  0  0  2  0  0  0  0  0  0
  193.3140  174.8670  136.9500 C   0  0  0  0  0  0  0  0  0  0  0  0
  193.8860  174.4170  135.7230 N   0  0  0  0  0  2  0  0  0  0  0  0
  192.0710  175.5720  136.9180 N   0  0  0  0  0  2  0  0  0  0  0  0
  193.8980  174.6410  138.0480 O   0  0  0  0  0  0  0  0  0  0  0  0
  195.2310  173.8710  135.6390 C   0  0  0  0  0  2  0  0  0  0  0  0
  196.1820  174.9560  135.2560 C   0  0  0  0  0  3  0  0  0  0  0  0
  197.2540  175.3220  135.9640 C   0  0  0  0  0  3  0  0  0  0  0  0
  197.7230  174.7110  137.2200 C   0  0  0  0  0  0  0  0  0  0  0  0
  198.7190  173.6140  137.1550 C   0  0  0  0  0  1  0  0  0  0  0  0
  197.2720  175.0690  138.3410 O   0  0  0  0  0  0  0  0  0  0  0  0
  1 13  1  0  0  0  0
  2  7  1  0  0  0  0
  3  1  1  6  0  0  0
  3  2  1  0  0  0  0
  3  8  1  0  0  0  0
  4  6  1  0  0  0  0
  6  5  1  1  0  0  0
  7  6  1  0  0  0  0
  7  9  1  1  0  0  0
  8  4  1  0  0  0  0
  9 10  1  0  0  0  0
 10 11  1  0  0  0  0
 12 11  1  0  0  0  0
 14 13  1  0  0  0  0
 15 14  1  0  0  0  0
 16 15  1  0  0  0  0
 17 18  2  0  0  0  0
 18 16  1  0  0  0  0
 19 18  1  0  0  0  0
 20 19  1  0  0  0  0
 21 20  1  0  0  0  0
 22 25  1  0  0  0  0
 22 26  1  0  0  0  0
 23 21  1  0  0  0  0
 23 25  1  0  0  0  0
 25 24  2  0  0  0  0
 27 26  1  0  0  0  0
 28  1  1  0  0  0  0
 29 28  1  0  0  0  0
 30 29  1  0  0  0  0
 31 33  1  0  0  0  0
 31 30  1  0  0  0  0
 32 31  2  0  0  0  0
 33 41  1  6  0  0  0
 33 34  1  0  0  0  0
 34 37  1  0  0  0  0
 35 36  1  0  0  0  0
 37 39  1  0  0  0  0
 37 40  2  0  0  0  0
 38 36  2  0  0  0  0
 39 35  2  0  0  0  0
 40 38  1  0  0  0  0
 41 42  1  0  0  0  0
 43 46  2  0  0  0  0
 44 43  1  0  0  0  0
 45 43  1  0  0  0  0
 45 42  1  0  0  0  0
 47 44  1  0  0  0  0
 48 47  1  0  0  0  0
 48 49  2  0  0  0  0
 49 50  1  0  0  0  0
 50 52  2  0  0  0  0
 51 50  1  0  0  0  0
M  END
>  <MODEL>
1

>  <REMARK>
 VINA RESULT:      -6.8      0.000      0.000
  Name = 
  26 active torsions:
  status: ('A' for Active; 'I' for Inactive)
    1  A    between atoms: C_1  and  N_24
    2  A    between atoms: C_1  and  C_28
    3  A    between atoms: O_2  and  C_12
    4  A    between atoms: O_2  and  C_21
    5  A    between atoms: N_3  and  C_20
    6  A    between atoms: C_5  and  C_8
    7  A    between atoms: C_5  and  N_43
    8  A    between atoms: C_7  and  C_11
    9  A    between atoms: C_8  and  N_22
   10  A    between atoms: C_10  and  N_13
   11  A    between atoms: C_11  and  C_49
   12  A    between atoms: C_12  and  C_48
   13  A    between atoms: N_13  and  C_36
   14  A    between atoms: N_13  and  C_48
   15  A    between atoms: C_16  and  O_40
   16  A    between atoms: C_19  and  C_38
   17  A    between atoms: C_21  and  C_42
   18  A    between atoms: N_27  and  C_31
   19  A    between atoms: C_31  and  C_47
   20  A    between atoms: C_35  and  C_36
   21  A    between atoms: C_35  and  C_37
   22  A    between atoms: C_37  and  C_45
   23  A    between atoms: C_39  and  C_45
   24  A    between atoms: O_40  and  C_42
   25  A    between atoms: C_42  and  C_47
   26  A    between atoms: C_49  and  C_50
                            x       y       z     vdW  Elec       q    Type
                         _______ _______ _______ _____ _____    ______ ____

>  <TORSDO>
F 26

$$$$
=
 OpenBabel10232409233D

 52 53  0  0  1  0  0  0  0  0999 V2000
  184.7910  178.2870  141.5510 N   0  0  0  0  0  0  0  0  0  0  0  0
  186.2030  177.9600  143.5490 C   0  0  0  0  0  2  0  0  0  0  0  0
  185.3580  178.9660  142.7330 C   0  0  2  0  0  3  0  0  0  0  0  0
  183.6790  178.6820  144.6090 C   0  0  0  0  0  2  0  0  0  0  0  0
  184.6660  178.9860  146.7640 O   0  0  0  0  0  1  0  0  0  0  0  0
  184.7380  178.2050  145.6100 C   0  0  2  0  0  3  0  0  0  0  0  0
  186.1720  178.2390  145.0560 C   0  0  1  0  0  3  0  0  0  0  0  0
  184.2770  179.6530  143.5970 C   0  0  0  0  0  2  0  0  0  0  0  0
  187.0220  177.2160  145.7910 C   0  0  0  0  0  2  0  0  0  0  0  0
  187.4410  177.7630  147.1420 C   0  0  0  0  0  2  0  0  0  0  0  0
  188.4910  176.8710  147.7800 C   0  0  0  0  0  2  0  0  0  0  0  0
  189.8870  177.3930  147.4720 C   0  0  0  0  0  1  0  0  0  0  0  0
  183.3530  178.5300  141.4120 C   0  0  0  0  0  2  0  0  0  0  0  0
  183.0660  179.1370  140.0550 C   0  0  0  0  0  2  0  0  0  0  0  0
  181.7380  178.6180  139.5430 C   0  0  0  0  0  2  0  0  0  0  0  0
  181.3230  177.4040  140.3570 C   0  0  0  0  0  2  0  0  0  0  0  0
  180.5820  175.1750  139.9510 O   0  0  0  0  0  0  0  0  0  0  0  0
  180.9150  176.2850  139.4560 C   0  0  0  0  0  0  0  0  0  0  0  0
  180.9150  176.4770  138.0370 N   0  0  0  0  0  2  0  0  0  0  0  0
  180.5380  175.4240  137.1090 C   0  0  0  0  0  2  0  0  0  0  0  0
  181.7140  175.0890  136.2060 C   0  0  0  0  0  2  0  0  0  0  0  0
  185.3600  175.9040  137.0310 N   0  0  0  0  0  2  0  0  0  0  0  0
  182.9210  175.7610  136.6710 N   0  0  0  0  0  2  0  0  0  0  0  0
  184.4050  174.2340  135.7050 O   0  0  0  0  0  0  0  0  0  0  0  0
  184.2360  175.2480  136.4400 C   0  0  0  0  0  0  0  0  0  0  0  0
  186.7130  175.3810  136.9320 C   0  0  0  0  0  2  0  0  0  0  0  0
  187.5210  176.2150  135.9510 C   0  0  0  0  0  1  0  0  0  0  0  0
  185.4790  178.7220  140.3240 C   0  0  0  0  0  2  0  0  0  0  0  0
  187.0080  178.6020  140.3930 C   0  0  0  0  0  2  0  0  0  0  0  0
  187.5180  177.9340  139.2470 O   0  0  0  0  0  0  0  0  0  0  0  0
  188.8000  178.1750  138.7470 C   0  0  0  0  0  0  0  0  0  0  0  0
  189.0370  179.2110  138.0670 O   0  0  0  0  0  0  0  0  0  0  0  0
  189.8820  177.1750  139.0020 C   0  0  2  0  0  3  0  0  0  0  0  0
  190.7730  177.6200  140.0220 O   0  0  0  0  0  0  0  0  0  0  0  0
  191.6330  177.1430  143.5810 C   0  0  0  0  0  3  0  0  0  0  0  0
  190.5070  176.4620  144.0510 C   0  0  0  0  0  3  0  0  0  0  0  0
  190.6690  177.2200  141.3570 C   0  0  0  0  0  0  0  0  0  0  0  0
  189.4640  176.1520  143.1760 C   0  0  0  0  0  3  0  0  0  0  0  0
  191.7120  177.5210  142.2390 C   0  0  0  0  0  3  0  0  0  0  0  0
  189.5450  176.5290  141.8340 C   0  0  0  0  0  3  0  0  0  0  0  0
  190.6460  176.9210  137.7150 C   0  0  0  0  0  2  0  0  0  0  0  0
  192.1120  176.5930  137.9800 C   0  0  0  0  0  2  0  0  0  0  0  0
  193.7100  174.6620  137.5550 C   0  0  0  0  0  0  0  0  0  0  0  0
  193.8690  173.2820  137.2260 N   0  0  0  0  0  2  0  0  0  0  0  0
  192.3900  175.1870  137.7210 N   0  0  0  0  0  2  0  0  0  0  0  0
  194.7220  175.4050  137.6990 O   0  0  0  0  0  0  0  0  0  0  0  0
  195.1500  172.7100  136.8460 C   0  0  0  0  0  2  0  0  0  0  0  0
  194.9440  171.3080  136.3740 C   0  0  0  0  0  3  0  0  0  0  0  0
  195.9200  170.4280  136.1380 C   0  0  0  0  0  3  0  0  0  0  0  0
  197.3640  170.6500  136.3280 C   0  0  0  0  0  0  0  0  0  0  0  0
  198.0260  170.0740  137.5240 C   0  0  0  0  0  1  0  0  0  0  0  0
  198.0400  171.3460  135.5240 O   0  0  0  0  0  0  0  0  0  0  0  0
  2  7  1  0  0  0  0
  3  1  1  6  0  0  0
  3  2  1  0  0  0  0
  3  8  1  0  0  0  0
  4  6  1  0  0  0  0
  6  5  1  1  0  0  0
  7  6  1  0  0  0  0
  7  9  1  1  0  0  0
  8  4  1  0  0  0  0
  9 10  1  0  0  0  0
 10 11  1  0  0  0  0
 12 11  1  0  0  0  0
 13  1  1  0  0  0  0
 14 13  1  0  0  0  0
 15 14  1  0  0  0  0
 15 16  1  0  0  0  0
 18 17  2  0  0  0  0
 18 16  1  0  0  0  0
 19 18  1  0  0  0  0
 20 19  1  0  0  0  0
 21 23  1  0  0  0  0
 21 20  1  0  0  0  0
 24 25  2  0  0  0  0
 25 23  1  0  0  0  0
 25 22  1  0  0  0  0
 26 22  1  0  0  0  0
 27 26  1  0  0  0  0
 28 29  1  0  0  0  0
 28  1  1  0  0  0  0
 30 29  1  0  0  0  0
 31 33  1  0  0  0  0
 31 30  1  0  0  0  0
 32 31  2  0  0  0  0
 33 41  1  6  0  0  0
 33 34  1  0  0  0  0
 34 37  1  0  0  0  0
 35 36  1  0  0  0  0
 37 40  2  0  0  0  0
 37 39  1  0  0  0  0
 38 36  2  0  0  0  0
 39 35  2  0  0  0  0
 40 38  1  0  0  0  0
 41 42  1  0  0  0  0
 43 46  2  0  0  0  0
 43 45  1  0  0  0  0
 44 43  1  0  0  0  0
 45 42  1  0  0  0  0
 47 44  1  0  0  0  0
 48 47  1  0  0  0  0
 49 50  1  0  0  0  0
 49 48  2  0  0  0  0
 50 51  1  0  0  0  0
 52 50  2  0  0  0  0
M  END
>  <MODEL>
2

>  <REMARK>
 VINA RESULT:      -6.3      1.676      2.032
  Name = 
  26 active torsions:
  status: ('A' for Active; 'I' for Inactive)
    1  A    between atoms: C_1  and  N_24
    2  A    between atoms: C_1  and  C_28
    3  A    between atoms: O_2  and  C_12
    4  A    between atoms: O_2  and  C_21
    5  A    between atoms: N_3  and  C_20
    6  A    between atoms: C_5  and  C_8
    7  A    between atoms: C_5  and  N_43
    8  A    between atoms: C_7  and  C_11
    9  A    between atoms: C_8  and  N_22
   10  A    between atoms: C_10  and  N_13
   11  A    between atoms: C_11  and  C_49
   12  A    between atoms: C_12  and  C_48
   13  A    between atoms: N_13  and  C_36
   14  A    between atoms: N_13  and  C_48
   15  A    between atoms: C_16  and  O_40
   16  A    between atoms: C_19  and  C_38
   17  A    between atoms: C_21  and  C_42
   18  A    between atoms: N_27  and  C_31
   19  A    between atoms: C_31  and  C_47
   20  A    between atoms: C_35  and  C_36
   21  A    between atoms: C_35  and  C_37
   22  A    between atoms: C_37  and  C_45
   23  A    between atoms: C_39  and  C_45
   24  A    between atoms: O_40  and  C_42
   25  A    between atoms: C_42  and  C_47
   26  A    between atoms: C_49  and  C_50
                            x       y       z     vdW  Elec       q    Type
                         _______ _______ _______ _____ _____    ______ ____

>  <TORSDO>
F 26

$$$$
=
 OpenBabel10232409233D

 52 53  0  0  1  0  0  0  0  0999 V2000
  188.5550  177.4100  141.1690 N   0  0  0  0  0  0  0  0  0  0  0  0
  188.4990  177.0620  143.6120 C   0  0  0  0  0  2  0  0  0  0  0  0
  189.2050  176.6950  142.2860 C   0  0  2  0  0  3  0  0  0  0  0  0
  191.0440  178.2110  143.1460 C   0  0  0  0  0  2  0  0  0  0  0  0
  191.7060  177.6600  145.3750 O   0  0  0  0  0  1  0  0  0  0  0  0
  190.6110  178.0610  144.6090 C   0  0  2  0  0  3  0  0  0  0  0  0
  189.4520  177.0710  144.8130 C   0  0  1  0  0  3  0  0  0  0  0  0
  190.7270  176.9510  142.3470 C   0  0  0  0  0  2  0  0  0  0  0  0
  188.6920  177.4370  146.0760 C   0  0  0  0  0  2  0  0  0  0  0  0
  187.2600  177.8010  145.7320 C   0  0  0  0  0  2  0  0  0  0  0  0
  186.4690  178.1140  146.9900 C   0  0  0  0  0  2  0  0  0  0  0  0
  185.0480  178.5270  146.6330 C   0  0  0  0  0  1  0  0  0  0  0  0
  187.9650  178.6800  141.5970 C   0  0  0  0  0  2  0  0  0  0  0  0
  186.5300  178.7630  141.1220 C   0  0  0  0  0  2  0  0  0  0  0  0
  185.6690  179.3540  142.2200 C   0  0  0  0  0  2  0  0  0  0  0  0
  184.7510  178.2770  142.7750 C   0  0  0  0  0  2  0  0  0  0  0  0
  182.9840  179.3790  143.9350 O   0  0  0  0  0  0  0  0  0  0  0  0
  183.3520  178.7890  142.8840 C   0  0  0  0  0  0  0  0  0  0  0  0
  182.4370  178.6000  141.8000 N   0  0  0  0  0  2  0  0  0  0  0  0
  181.0620  179.0680  141.8510 C   0  0  0  0  0  2  0  0  0  0  0  0
  180.6480  179.5980  140.4870 C   0  0  0  0  0  2  0  0  0  0  0  0
  181.5510  177.6390  137.3270 N   0  0  0  0  0  2  0  0  0  0  0  0
  180.7540  178.5500  139.4800 N   0  0  0  0  0  2  0  0  0  0  0  0
  182.3790  179.6420  138.2020 O   0  0  0  0  0  0  0  0  0  0  0  0
  181.5940  178.6600  138.3280 C   0  0  0  0  0  0  0  0  0  0  0  0
  182.2910  177.7340  136.0800 C   0  0  0  0  0  2  0  0  0  0  0  0
  181.9310  176.5690  135.1720 C   0  0  0  0  0  1  0  0  0  0  0  0
  189.5190  177.6610  140.0850 C   0  0  0  0  0  2  0  0  0  0  0  0
  189.3980  176.6870  138.9060 C   0  0  0  0  0  2  0  0  0  0  0  0
  190.1890  177.1170  137.8060 O   0  0  0  0  0  0  0  0  0  0  0  0
  189.6360  177.4360  136.5640 C   0  0  0  0  0  0  0  0  0  0  0  0
  188.7480  178.3280  136.4690 O   0  0  0  0  0  0  0  0  0  0  0  0
  190.0870  176.6870  135.3510 C   0  0  2  0  0  3  0  0  0  0  0  0
  189.0590  175.8300  134.8570 O   0  0  0  0  0  0  0  0  0  0  0  0
  186.3680  174.2540  136.8340 C   0  0  0  0  0  3  0  0  0  0  0  0
  186.9800  173.0650  137.2390 C   0  0  0  0  0  3  0  0  0  0  0  0
  188.3860  174.9010  135.6550 C   0  0  0  0  0  0  0  0  0  0  0  0
  188.2960  172.7940  136.8600 C   0  0  0  0  0  3  0  0  0  0  0  0
  187.0700  175.1690  136.0440 C   0  0  0  0  0  3  0  0  0  0  0  0
  188.9970  173.7090  136.0720 C   0  0  0  0  0  3  0  0  0  0  0  0
  191.3240  175.8760  135.6910 C   0  0  0  0  0  2  0  0  0  0  0  0
  192.3680  175.9390  134.5800 C   0  0  0  0  0  2  0  0  0  0  0  0
  194.7220  175.7680  135.5240 C   0  0  0  0  0  0  0  0  0  0  0  0
  195.8660  174.9490  135.7620 N   0  0  0  0  0  2  0  0  0  0  0  0
  193.5590  175.1800  134.9360 N   0  0  0  0  0  2  0  0  0  0  0  0
  194.7380  176.9940  135.8320 O   0  0  0  0  0  0  0  0  0  0  0  0
  197.1500  175.4960  136.1690 C   0  0  0  0  0  2  0  0  0  0  0  0
  198.1950  175.0880  135.1830 C   0  0  0  0  0  3  0  0  0  0  0  0
  199.3320  174.4560  135.4890 C   0  0  0  0  0  3  0  0  0  0  0  0
  199.7530  174.0110  136.8290 C   0  0  0  0  0  0  0  0  0  0  0  0
  199.6560  172.5710  137.1690 C   0  0  0  0  0  1  0  0  0  0  0  0
  200.1550  174.8250  137.7020 O   0  0  0  0  0  0  0  0  0  0  0  0
  1 13  1  0  0  0  0
  2  7  1  0  0  0  0
  3  1  1  6  0  0  0
  3  8  1  0  0  0  0
  3  2  1  0  0  0  0
  4  6  1  0  0  0  0
  6  7  1  0  0  0  0
  6  5  1  1  0  0  0
  7  9  1  1  0  0  0
  8  4  1  0  0  0  0
 10  9  1  0  0  0  0
 10 11  1  0  0  0  0
 12 11  1  0  0  0  0
 14 13  1  0  0  0  0
 14 15  1  0  0  0  0
 15 16  1  0  0  0  0
 16 18  1  0  0  0  0
 18 17  2  0  0  0  0
 19 20  1  0  0  0  0
 19 18  1  0  0  0  0
 21 20  1  0  0  0  0
 22 25  1  0  0  0  0
 23 21  1  0  0  0  0
 24 25  2  0  0  0  0
 25 23  1  0  0  0  0
 26 22  1  0  0  0  0
 27 26  1  0  0  0  0
 28  1  1  0  0  0  0
 29 28  1  0  0  0  0
 30 29  1  0  0  0  0
 31 30  1  0  0  0  0
 32 31  2  0  0  0  0
 33 41  1  1  0  0  0
 33 31  1  0  0  0  0
 34 33  1  0  0  0  0
 34 37  1  0  0  0  0
 35 36  1  0  0  0  0
 37 39  1  0  0  0  0
 37 40  2  0  0  0  0
 38 36  2  0  0  0  0
 39 35  2  0  0  0  0
 40 38  1  0  0  0  0
 42 45  1  0  0  0  0
 42 41  1  0  0  0  0
 43 44  1  0  0  0  0
 43 46  2  0  0  0  0
 44 47  1  0  0  0  0
 45 43  1  0  0  0  0
 48 49  2  0  0  0  0
 48 47  1  0  0  0  0
 49 50  1  0  0  0  0
 50 51  1  0  0  0  0
 50 52  2  0  0  0  0
M  END
>  <MODEL>
3

>  <REMARK>
 VINA RESULT:      -6.0      2.346      5.108
  Name = 
  26 active torsions:
  status: ('A' for Active; 'I' for Inactive)
    1  A    between atoms: C_1  and  N_24
    2  A    between atoms: C_1  and  C_28
    3  A    between atoms: O_2  and  C_12
    4  A    between atoms: O_2  and  C_21
    5  A    between atoms: N_3  and  C_20
    6  A    between atoms: C_5  and  C_8
    7  A    between atoms: C_5  and  N_43
    8  A    between atoms: C_7  and  C_11
    9  A    between atoms: C_8  and  N_22
   10  A    between atoms: C_10  and  N_13
   11  A    between atoms: C_11  and  C_49
   12  A    between atoms: C_12  and  C_48
   13  A    between atoms: N_13  and  C_36
   14  A    between atoms: N_13  and  C_48
   15  A    between atoms: C_16  and  O_40
   16  A    between atoms: C_19  and  C_38
   17  A    between atoms: C_21  and  C_42
   18  A    between atoms: N_27  and  C_31
   19  A    between atoms: C_31  and  C_47
   20  A    between atoms: C_35  and  C_36
   21  A    between atoms: C_35  and  C_37
   22  A    between atoms: C_37  and  C_45
   23  A    between atoms: C_39  and  C_45
   24  A    between atoms: O_40  and  C_42
   25  A    between atoms: C_42  and  C_47
   26  A    between atoms: C_49  and  C_50
                            x       y       z     vdW  Elec       q    Type
                         _______ _______ _______ _____ _____    ______ ____

>  <TORSDO>
F 26

$$$$
=
 OpenBabel10232409233D

 52 53  0  0  1  0  0  0  0  0999 V2000
  189.4680  177.2130  141.9190 N   0  0  0  0  0  0  0  0  0  0  0  0
  188.0100  176.8190  143.8720 C   0  0  0  0  0  2  0  0  0  0  0  0
  189.4300  176.6470  143.2820 C   0  0  2  0  0  3  0  0  0  0  0  0
  190.0340  178.5300  144.8660 C   0  0  0  0  0  2  0  0  0  0  0  0
  189.2990  178.1090  147.1000 O   0  0  0  0  0  1  0  0  0  0  0  0
  188.8420  178.2600  145.7910 C   0  0  2  0  0  3  0  0  0  0  0  0
  188.0150  177.0260  145.3900 C   0  0  1  0  0  3  0  0  0  0  0  0
  190.5170  177.2460  144.2020 C   0  0  0  0  0  2  0  0  0  0  0  0
  186.5910  177.1870  145.8970 C   0  0  0  0  0  2  0  0  0  0  0  0
  186.1830  178.6460  145.8430 C   0  0  0  0  0  2  0  0  0  0  0  0
  184.7520  178.7850  145.3570 C   0  0  0  0  0  2  0  0  0  0  0  0
  184.6600  178.4470  143.8750 C   0  0  0  0  0  1  0  0  0  0  0  0
  190.2350  176.3730  140.9960 C   0  0  0  0  0  2  0  0  0  0  0  0
  191.2960  177.2070  140.3080 C   0  0  0  0  0  2  0  0  0  0  0  0
  191.3730  176.8170  138.8460 C   0  0  0  0  0  2  0  0  0  0  0  0
  190.0610  176.1750  138.4250 C   0  0  0  0  0  2  0  0  0  0  0  0
  189.5980  174.0950  137.3570 O   0  0  0  0  0  0  0  0  0  0  0  0
  190.2990  175.1430  137.3730 C   0  0  0  0  0  0  0  0  0  0  0  0
  191.3250  175.3440  136.3950 N   0  0  0  0  0  2  0  0  0  0  0  0
  191.6090  174.3720  135.3530 C   0  0  0  0  0  2  0  0  0  0  0  0
  193.0540  173.9110  135.4600 C   0  0  0  0  0  2  0  0  0  0  0  0
  195.3230  174.9740  138.3520 N   0  0  0  0  0  2  0  0  0  0  0  0
  193.7700  174.7060  136.4500 N   0  0  0  0  0  2  0  0  0  0  0  0
  195.1260  172.9530  137.1950 O   0  0  0  0  0  0  0  0  0  0  0  0
  194.7520  174.1520  137.3300 C   0  0  0  0  0  0  0  0  0  0  0  0
  196.2430  174.4540  139.3510 C   0  0  0  0  0  2  0  0  0  0  0  0
  196.3340  175.4190  140.5230 C   0  0  0  0  0  1  0  0  0  0  0  0
  188.1040  177.3920  141.3950 C   0  0  0  0  0  2  0  0  0  0  0  0
  187.8630  178.7600  140.7410 C   0  0  0  0  0  2  0  0  0  0  0  0
  186.7590  178.7100  139.8480 O   0  0  0  0  0  0  0  0  0  0  0  0
  186.9180  178.6150  138.4640 C   0  0  0  0  0  0  0  0  0  0  0  0
  188.0100  178.9380  137.9200 O   0  0  0  0  0  0  0  0  0  0  0  0
  185.7660  178.1530  137.6280 C   0  0  2  0  0  3  0  0  0  0  0  0
  184.8580  177.3570  138.3880 O   0  0  0  0  0  0  0  0  0  0  0  0
  181.5660  179.0240  138.5140 C   0  0  0  0  0  3  0  0  0  0  0  0
  181.2070  178.8310  139.8500 C   0  0  0  0  0  3  0  0  0  0  0  0
  183.6510  177.8460  138.8940 C   0  0  0  0  0  0  0  0  0  0  0  0
  182.0690  178.1520  140.7130 C   0  0  0  0  0  3  0  0  0  0  0  0
  182.7840  178.5320  138.0380 C   0  0  0  0  0  3  0  0  0  0  0  0
  183.2880  177.6620  140.2370 C   0  0  0  0  0  3  0  0  0  0  0  0
  186.2890  177.3600  136.4430 C   0  0  0  0  0  2  0  0  0  0  0  0
  185.1560  176.8040  135.5870 C   0  0  0  0  0  2  0  0  0  0  0  0
  185.6010  174.3090  135.7870 C   0  0  0  0  0  0  0  0  0  0  0  0
  186.0390  173.1100  135.1480 N   0  0  0  0  0  2  0  0  0  0  0  0
  185.5150  175.5120  135.0180 N   0  0  0  0  0  2  0  0  0  0  0  0
  185.2920  174.3040  137.0120 O   0  0  0  0  0  0  0  0  0  0  0  0
  186.3440  171.8950  135.8860 C   0  0  0  0  0  2  0  0  0  0  0  0
  185.6740  170.7350  135.2250 C   0  0  0  0  0  3  0  0  0  0  0  0
  184.3820  170.4220  135.3520 C   0  0  0  0  0  3  0  0  0  0  0  0
  183.3730  171.1680  136.1240 C   0  0  0  0  0  0  0  0  0  0  0  0
  182.1560  171.6560  135.4290 C   0  0  0  0  0  1  0  0  0  0  0  0
  183.5340  171.4330  137.3450 O   0  0  0  0  0  0  0  0  0  0  0  0
  2  7  1  0  0  0  0
  3  1  1  6  0  0  0
  3  2  1  0  0  0  0
  3  8  1  0  0  0  0
  4  6  1  0  0  0  0
  6  5  1  1  0  0  0
  7  6  1  0  0  0  0
  7  9  1  6  0  0  0
  8  4  1  0  0  0  0
 10  9  1  0  0  0  0
 11 10  1  0  0  0  0
 12 11  1  0  0  0  0
 13  1  1  0  0  0  0
 14 13  1  0  0  0  0
 15 14  1  0  0  0  0
 16 15  1  0  0  0  0
 17 18  2  0  0  0  0
 18 16  1  0  0  0  0
 19 18  1  0  0  0  0
 20 21  1  0  0  0  0
 20 19  1  0  0  0  0
 21 23  1  0  0  0  0
 22 26  1  0  0  0  0
 23 25  1  0  0  0  0
 24 25  2  0  0  0  0
 25 22  1  0  0  0  0
 26 27  1  0  0  0  0
 28  1  1  0  0  0  0
 29 28  1  0  0  0  0
 30 29  1  0  0  0  0
 31 30  1  0  0  0  0
 32 31  2  0  0  0  0
 33 41  1  6  0  0  0
 33 34  1  0  0  0  0
 33 31  1  0  0  0  0
 34 37  1  0  0  0  0
 35 36  1  0  0  0  0
 36 38  2  0  0  0  0
 37 40  2  0  0  0  0
 39 35  2  0  0  0  0
 39 37  1  0  0  0  0
 40 38  1  0  0  0  0
 42 41  1  0  0  0  0
 43 46  2  0  0  0  0
 44 43  1  0  0  0  0
 44 47  1  0  0  0  0
 45 42  1  0  0  0  0
 45 43  1  0  0  0  0
 48 49  2  0  0  0  0
 48 47  1  0  0  0  0
 49 50  1  0  0  0  0
 50 52  2  0  0  0  0
 51 50  1  0  0  0  0
M  END
>  <MODEL>
4

>  <REMARK>
 VINA RESULT:      -5.8      2.146      8.209
  Name = 
  26 active torsions:
  status: ('A' for Active; 'I' for Inactive)
    1  A    between atoms: C_1  and  N_24
    2  A    between atoms: C_1  and  C_28
    3  A    between atoms: O_2  and  C_12
    4  A    between atoms: O_2  and  C_21
    5  A    between atoms: N_3  and  C_20
    6  A    between atoms: C_5  and  C_8
    7  A    between atoms: C_5  and  N_43
    8  A    between atoms: C_7  and  C_11
    9  A    between atoms: C_8  and  N_22
   10  A    between atoms: C_10  and  N_13
   11  A    between atoms: C_11  and  C_49
   12  A    between atoms: C_12  and  C_48
   13  A    between atoms: N_13  and  C_36
   14  A    between atoms: N_13  and  C_48
   15  A    between atoms: C_16  and  O_40
   16  A    between atoms: C_19  and  C_38
   17  A    between atoms: C_21  and  C_42
   18  A    between atoms: N_27  and  C_31
   19  A    between atoms: C_31  and  C_47
   20  A    between atoms: C_35  and  C_36
   21  A    between atoms: C_35  and  C_37
   22  A    between atoms: C_37  and  C_45
   23  A    between atoms: C_39  and  C_45
   24  A    between atoms: O_40  and  C_42
   25  A    between atoms: C_42  and  C_47
   26  A    between atoms: C_49  and  C_50
                            x       y       z     vdW  Elec       q    Type
                         _______ _______ _______ _____ _____    ______ ____

>  <TORSDO>
F 26

$$$$
=
 OpenBabel10232409233D

 52 53  0  0  1  0  0  0  0  0999 V2000
  182.1130  177.9590  139.7130 N   0  0  0  0  0  0  0  0  0  0  0  0
  182.4630  175.7850  138.5960 C   0  0  0  0  0  2  0  0  0  0  0  0
  181.4500  176.6980  139.3260 C   0  0  2  0  0  3  0  0  0  0  0  0
  180.4990  177.0600  137.0060 C   0  0  0  0  0  2  0  0  0  0  0  0
  180.0810  175.0030  135.8640 O   0  0  0  0  0  1  0  0  0  0  0  0
  181.0930  175.7580  136.4570 C   0  0  2  0  0  3  0  0  0  0  0  0
  181.8100  174.9100  137.5200 C   0  0  1  0  0  3  0  0  0  0  0  0
  180.1720  176.9330  138.4900 C   0  0  0  0  0  2  0  0  0  0  0  0
  182.8620  174.0430  136.8490 C   0  0  0  0  0  2  0  0  0  0  0  0
  184.0450  173.8500  137.7780 C   0  0  0  0  0  2  0  0  0  0  0  0
  184.9590  172.7520  137.2630 C   0  0  0  0  0  2  0  0  0  0  0  0
  184.1550  171.7120  136.4940 C   0  0  0  0  0  1  0  0  0  0  0  0
  181.7050  178.4100  141.0450 C   0  0  0  0  0  2  0  0  0  0  0  0
  182.8680  178.2820  142.0060 C   0  0  0  0  0  2  0  0  0  0  0  0
  182.5240  178.9790  143.3080 C   0  0  0  0  0  2  0  0  0  0  0  0
  183.7240  179.7830  143.7810 C   0  0  0  0  0  2  0  0  0  0  0  0
  185.3630  178.0700  144.0280 O   0  0  0  0  0  0  0  0  0  0  0  0
  184.6360  178.9270  144.5980 C   0  0  0  0  0  0  0  0  0  0  0  0
  184.6720  179.0800  146.0200 N   0  0  0  0  0  2  0  0  0  0  0  0
  185.5320  178.2710  146.8690 C   0  0  0  0  0  2  0  0  0  0  0  0
  186.7460  177.8080  146.0790 C   0  0  0  0  0  2  0  0  0  0  0  0
  190.0880  176.8280  147.6640 N   0  0  0  0  0  2  0  0  0  0  0  0
  187.7550  177.2570  146.9750 N   0  0  0  0  0  2  0  0  0  0  0  0
  189.5640  178.3200  145.9430 O   0  0  0  0  0  0  0  0  0  0  0  0
  189.1550  177.5020  146.8150 C   0  0  0  0  0  0  0  0  0  0  0  0
  191.5270  176.9420  147.4910 C   0  0  0  0  0  2  0  0  0  0  0  0
  192.0700  175.6850  146.8290 C   0  0  0  0  0  1  0  0  0  0  0  0
  183.5770  177.8050  139.6790 C   0  0  0  0  0  2  0  0  0  0  0  0
  184.3030  178.9270  138.9240 C   0  0  0  0  0  2  0  0  0  0  0  0
  185.6690  178.5960  138.7110 O   0  0  0  0  0  0  0  0  0  0  0  0
  186.5930  178.5140  139.7550 C   0  0  0  0  0  0  0  0  0  0  0  0
  186.3460  179.0490  140.8710 O   0  0  0  0  0  0  0  0  0  0  0  0
  187.8920  177.8100  139.5260 C   0  0  2  0  0  3  0  0  0  0  0  0
  188.9200  178.3280  140.3670 O   0  0  0  0  0  0  0  0  0  0  0  0
  191.5890  176.7930  142.4060 C   0  0  0  0  0  3  0  0  0  0  0  0
  190.8440  176.1010  143.3650 C   0  0  0  0  0  3  0  0  0  0  0  0
  189.5420  177.5760  141.3680 C   0  0  0  0  0  0  0  0  0  0  0  0
  189.4490  176.1390  143.3250 C   0  0  0  0  0  3  0  0  0  0  0  0
  190.9390  177.5270  141.4110 C   0  0  0  0  0  3  0  0  0  0  0  0
  188.8000  176.8730  142.3290 C   0  0  0  0  0  3  0  0  0  0  0  0
  188.2900  177.9490  138.0670 C   0  0  0  0  0  2  0  0  0  0  0  0
  188.4430  176.5920  137.3880 C   0  0  0  0  0  2  0  0  0  0  0  0
  190.8870  175.9380  137.1370 C   0  0  0  0  0  0  0  0  0  0  0  0
  192.0710  175.9920  136.3430 N   0  0  0  0  0  2  0  0  0  0  0  0
  189.6850  176.5230  136.6290 N   0  0  0  0  0  2  0  0  0  0  0  0
  190.9020  175.3770  138.2700 O   0  0  0  0  0  0  0  0  0  0  0  0
  193.3750  175.6030  136.8530 C   0  0  0  0  0  2  0  0  0  0  0  0
  194.4350  176.0890  135.9210 C   0  0  0  0  0  3  0  0  0  0  0  0
  195.6930  175.6400  135.8890 C   0  0  0  0  0  3  0  0  0  0  0  0
  196.2620  174.5700  136.7260 C   0  0  0  0  0  0  0  0  0  0  0  0
  196.1220  173.1620  136.2820 C   0  0  0  0  0  1  0  0  0  0  0  0
  196.8270  174.8160  137.8250 O   0  0  0  0  0  0  0  0  0  0  0  0
  1 13  1  0  0  0  0
  2  3  1  0  0  0  0
  3  1  1  6  0  0  0
  4  8  1  0  0  0  0
  6  5  1  1  0  0  0
  6  4  1  0  0  0  0
  6  7  1  0  0  0  0
  7  9  1  6  0  0  0
  7  2  1  0  0  0  0
  8  3  1  0  0  0  0
  9 10  1  0  0  0  0
 11 10  1  0  0  0  0
 12 11  1  0  0  0  0
 13 14  1  0  0  0  0
 14 15  1  0  0  0  0
 15 16  1  0  0  0  0
 16 18  1  0  0  0  0
 17 18  2  0  0  0  0
 18 19  1  0  0  0  0
 19 20  1  0  0  0  0
 21 20  1  0  0  0  0
 21 23  1  0  0  0  0
 24 25  2  0  0  0  0
 25 23  1  0  0  0  0
 25 22  1  0  0  0  0
 26 22  1  0  0  0  0
 27 26  1  0  0  0  0
 28  1  1  0  0  0  0
 29 28  1  0  0  0  0
 30 29  1  0  0  0  0
 30 31  1  0  0  0  0
 31 32  2  0  0  0  0
 33 41  1  6  0  0  0
 33 31  1  0  0  0  0
 33 34  1  0  0  0  0
 34 37  1  0  0  0  0
 35 36  1  0  0  0  0
 37 39  1  0  0  0  0
 37 40  2  0  0  0  0
 38 36  2  0  0  0  0
 39 35  2  0  0  0  0
 40 38  1  0  0  0  0
 42 41  1  0  0  0  0
 43 46  2  0  0  0  0
 44 47  1  0  0  0  0
 44 43  1  0  0  0  0
 45 43  1  0  0  0  0
 45 42  1  0  0  0  0
 48 47  1  0  0  0  0
 49 48  2  0  0  0  0
 49 50  1  0  0  0  0
 50 52  2  0  0  0  0
 51 50  1  0  0  0  0
M  END
>  <MODEL>
5

>  <REMARK>
 VINA RESULT:      -5.8      2.303      7.156
  Name = 
  26 active torsions:
  status: ('A' for Active; 'I' for Inactive)
    1  A    between atoms: C_1  and  N_24
    2  A    between atoms: C_1  and  C_28
    3  A    between atoms: O_2  and  C_12
    4  A    between atoms: O_2  and  C_21
    5  A    between atoms: N_3  and  C_20
    6  A    between atoms: C_5  and  C_8
    7  A    between atoms: C_5  and  N_43
    8  A    between atoms: C_7  and  C_11
    9  A    between atoms: C_8  and  N_22
   10  A    between atoms: C_10  and  N_13
   11  A    between atoms: C_11  and  C_49
   12  A    between atoms: C_12  and  C_48
   13  A    between atoms: N_13  and  C_36
   14  A    between atoms: N_13  and  C_48
   15  A    between atoms: C_16  and  O_40
   16  A    between atoms: C_19  and  C_38
   17  A    between atoms: C_21  and  C_42
   18  A    between atoms: N_27  and  C_31
   19  A    between atoms: C_31  and  C_47
   20  A    between atoms: C_35  and  C_36
   21  A    between atoms: C_35  and  C_37
   22  A    between atoms: C_37  and  C_45
   23  A    between atoms: C_39  and  C_45
   24  A    between atoms: O_40  and  C_42
   25  A    between atoms: C_42  and  C_47
   26  A    between atoms: C_49  and  C_50
                            x       y       z     vdW  Elec       q    Type
                         _______ _______ _______ _____ _____    ______ ____

>  <TORSDO>
F 26

$$$$
=
 OpenBabel10232409233D

 52 53  0  0  1  0  0  0  0  0999 V2000
  184.7880  177.6890  138.8880 N   0  0  0  0  0  0  0  0  0  0  0  0
  184.2550  178.2590  141.2310 C   0  0  0  0  0  2  0  0  0  0  0  0
  184.3000  178.7680  139.7700 C   0  0  2  0  0  3  0  0  0  0  0  0
  181.7810  178.5300  139.8830 C   0  0  0  0  0  2  0  0  0  0  0  0
  180.8500  179.6140  141.7990 O   0  0  0  0  0  1  0  0  0  0  0  0
  181.7460  178.6170  141.4130 C   0  0  2  0  0  3  0  0  0  0  0  0
  183.1210  178.8890  142.0470 C   0  0  1  0  0  3  0  0  0  0  0  0
  182.9400  179.3390  139.3110 C   0  0  0  0  0  2  0  0  0  0  0  0
  183.1390  178.3440  143.4660 C   0  0  0  0  0  2  0  0  0  0  0  0
  183.5150  179.4450  144.4390 C   0  0  0  0  0  2  0  0  0  0  0  0
  185.0190  179.4930  144.6390 C   0  0  0  0  0  2  0  0  0  0  0  0
  185.5840  178.0830  144.7510 C   0  0  0  0  0  1  0  0  0  0  0  0
  183.7190  177.1280  138.0610 C   0  0  0  0  0  2  0  0  0  0  0  0
  184.3090  176.5180  136.8070 C   0  0  0  0  0  2  0  0  0  0  0  0
  183.3520  176.7220  135.6490 C   0  0  0  0  0  2  0  0  0  0  0  0
  183.2130  175.4210  134.8760 C   0  0  0  0  0  2  0  0  0  0  0  0
  181.2960  174.1070  134.3460 O   0  0  0  0  0  0  0  0  0  0  0  0
  181.9350  174.7360  135.2320 C   0  0  0  0  0  0  0  0  0  0  0  0
  181.4380  174.8070  136.5720 N   0  0  0  0  0  2  0  0  0  0  0  0
  180.1960  174.1700  136.9780 C   0  0  0  0  0  2  0  0  0  0  0  0
  180.4990  172.8910  137.7420 C   0  0  0  0  0  2  0  0  0  0  0  0
  182.1370  170.2270  135.5390 N   0  0  0  0  0  2  0  0  0  0  0  0
  180.7090  171.7840  136.8190 N   0  0  0  0  0  2  0  0  0  0  0  0
  183.0100  171.6180  137.2010 O   0  0  0  0  0  0  0  0  0  0  0  0
  182.0010  171.2320  136.5460 C   0  0  0  0  0  0  0  0  0  0  0  0
  183.4290  169.6980  135.1300 C   0  0  0  0  0  2  0  0  0  0  0  0
  183.7790  168.4790  135.9670 C   0  0  0  0  0  1  0  0  0  0  0  0
  185.8690  178.1820  138.0190 C   0  0  0  0  0  2  0  0  0  0  0  0
  187.2240  178.3180  138.7260 C   0  0  0  0  0  2  0  0  0  0  0  0
  188.2840  177.8770  137.8870 O   0  0  0  0  0  0  0  0  0  0  0  0
  188.7990  176.5810  137.9480 C   0  0  0  0  0  0  0  0  0  0  0  0
  188.0740  175.5890  137.6590 O   0  0  0  0  0  0  0  0  0  0  0  0
  190.2140  176.3790  138.3900 C   0  0  2  0  0  3  0  0  0  0  0  0
  190.7220  175.1210  137.9500 O   0  0  0  0  0  0  0  0  0  0  0  0
  194.2830  175.1320  136.9740 C   0  0  0  0  0  3  0  0  0  0  0  0
  194.2070  174.7260  135.6390 C   0  0  0  0  0  3  0  0  0  0  0  0
  191.8690  174.9900  137.1630 C   0  0  0  0  0  0  0  0  0  0  0  0
  192.9650  174.4580  135.0620 C   0  0  0  0  0  3  0  0  0  0  0  0
  193.1170  175.2640  137.7330 C   0  0  0  0  0  3  0  0  0  0  0  0
  191.7990  174.5900  135.8200 C   0  0  0  0  0  3  0  0  0  0  0  0
  190.2880  176.4720  139.9030 C   0  0  0  0  0  2  0  0  0  0  0  0
  191.2930  177.5260  140.3590 C   0  0  0  0  0  2  0  0  0  0  0  0
  190.8140  177.5660  142.8550 C   0  0  0  0  0  0  0  0  0  0  0  0
  191.3180  177.4010  144.1800 N   0  0  0  0  0  2  0  0  0  0  0  0
  191.6810  177.3130  141.7470 N   0  0  0  0  0  2  0  0  0  0  0  0
  189.6170  177.9280  142.6670 O   0  0  0  0  0  0  0  0  0  0  0  0
  190.5780  177.8220  145.3580 C   0  0  0  0  0  2  0  0  0  0  0  0
  190.4560  176.6700  146.3010 C   0  0  0  0  0  3  0  0  0  0  0  0
  189.7570  176.6820  147.4400 C   0  0  0  0  0  3  0  0  0  0  0  0
  188.9550  177.8020  147.9620 C   0  0  0  0  0  0  0  0  0  0  0  0
  187.4970  177.8260  147.6900 C   0  0  0  0  0  1  0  0  0  0  0  0
  189.4800  178.7550  148.5980 O   0  0  0  0  0  0  0  0  0  0  0  0
  2  7  1  0  0  0  0
  3  1  1  6  0  0  0
  3  2  1  0  0  0  0
  4  6  1  0  0  0  0
  6  5  1  6  0  0  0
  6  7  1  0  0  0  0
  7  9  1  1  0  0  0
  8  3  1  0  0  0  0
  8  4  1  0  0  0  0
  9 10  1  0  0  0  0
 10 11  1  0  0  0  0
 11 12  1  0  0  0  0
 13  1  1  0  0  0  0
 14 13  1  0  0  0  0
 15 14  1  0  0  0  0
 16 18  1  0  0  0  0
 16 15  1  0  0  0  0
 17 18  2  0  0  0  0
 18 19  1  0  0  0  0
 19 20  1  0  0  0  0
 20 21  1  0  0  0  0
 22 25  1  0  0  0  0
 23 21  1  0  0  0  0
 25 23  1  0  0  0  0
 25 24  2  0  0  0  0
 26 22  1  0  0  0  0
 26 27  1  0  0  0  0
 28 29  1  0  0  0  0
 28  1  1  0  0  0  0
 30 31  1  0  0  0  0
 30 29  1  0  0  0  0
 31 33  1  0  0  0  0
 32 31  2  0  0  0  0
 33 41  1  1  0  0  0
 34 33  1  0  0  0  0
 35 39  1  0  0  0  0
 36 35  2  0  0  0  0
 37 39  2  0  0  0  0
 37 34  1  0  0  0  0
 38 36  1  0  0  0  0
 38 40  2  0  0  0  0
 40 37  1  0  0  0  0
 41 42  1  0  0  0  0
 42 45  1  0  0  0  0
 43 44  1  0  0  0  0
 44 47  1  0  0  0  0
 45 43  1  0  0  0  0
 46 43  2  0  0  0  0
 47 48  1  0  0  0  0
 48 49  2  0  0  0  0
 49 50  1  0  0  0  0
 50 52  2  0  0  0  0
 51 50  1  0  0  0  0
M  END
>  <MODEL>
6

>  <REMARK>
 VINA RESULT:      -5.2      2.708      6.566
  Name = 
  26 active torsions:
  status: ('A' for Active; 'I' for Inactive)
    1  A    between atoms: C_1  and  N_24
    2  A    between atoms: C_1  and  C_28
    3  A    between atoms: O_2  and  C_12
    4  A    between atoms: O_2  and  C_21
    5  A    between atoms: N_3  and  C_20
    6  A    between atoms: C_5  and  C_8
    7  A    between atoms: C_5  and  N_43
    8  A    between atoms: C_7  and  C_11
    9  A    between atoms: C_8  and  N_22
   10  A    between atoms: C_10  and  N_13
   11  A    between atoms: C_11  and  C_49
   12  A    between atoms: C_12  and  C_48
   13  A    between atoms: N_13  and  C_36
   14  A    between atoms: N_13  and  C_48
   15  A    between atoms: C_16  and  O_40
   16  A    between atoms: C_19  and  C_38
   17  A    between atoms: C_21  and  C_42
   18  A    between atoms: N_27  and  C_31
   19  A    between atoms: C_31  and  C_47
   20  A    between atoms: C_35  and  C_36
   21  A    between atoms: C_35  and  C_37
   22  A    between atoms: C_37  and  C_45
   23  A    between atoms: C_39  and  C_45
   24  A    between atoms: O_40  and  C_42
   25  A    between atoms: C_42  and  C_47
   26  A    between atoms: C_49  and  C_50
                            x       y       z     vdW  Elec       q    Type
                         _______ _______ _______ _____ _____    ______ ____

>  <TORSDO>
F 26

$$$$
=
 OpenBabel10232409233D

 52 53  0  0  1  0  0  0  0  0999 V2000
  187.6570  177.1500  143.4590 N   0  0  0  0  0  0  0  0  0  0  0  0
  189.2690  177.4160  145.3100 C   0  0  0  0  0  2  0  0  0  0  0  0
  188.0820  178.0510  144.5480 C   0  0  2  0  0  3  0  0  0  0  0  0
  186.7490  177.3910  146.5990 C   0  0  0  0  0  2  0  0  0  0  0  0
  187.7740  178.1340  148.6260 O   0  0  0  0  0  1  0  0  0  0  0  0
  187.9870  177.3360  147.5020 C   0  0  2  0  0  3  0  0  0  0  0  0
  189.2840  177.7750  146.8000 C   0  0  1  0  0  3  0  0  0  0  0  0
  186.9200  178.4270  145.4940 C   0  0  0  0  0  2  0  0  0  0  0  0
  190.4730  177.1180  147.4800 C   0  0  0  0  0  2  0  0  0  0  0  0
  191.6040  176.9360  146.4860 C   0  0  0  0  0  2  0  0  0  0  0  0
  192.4240  175.7050  146.8260 C   0  0  0  0  0  2  0  0  0  0  0  0
  192.9420  175.7920  148.2550 C   0  0  0  0  0  1  0  0  0  0  0  0
  186.2010  177.0180  143.3890 C   0  0  0  0  0  2  0  0  0  0  0  0
  185.6300  178.1140  142.5140 C   0  0  0  0  0  2  0  0  0  0  0  0
  184.1260  178.1680  142.6910 C   0  0  0  0  0  2  0  0  0  0  0  0
  183.5330  179.1310  141.6740 C   0  0  0  0  0  2  0  0  0  0  0  0
  185.2300  179.5370  140.0510 O   0  0  0  0  0  0  0  0  0  0  0  0
  184.1640  178.9290  140.3360 C   0  0  0  0  0  0  0  0  0  0  0  0
  183.5500  178.0550  139.3830 N   0  0  0  0  0  2  0  0  0  0  0  0
  184.1110  177.8250  138.0620 C   0  0  0  0  0  2  0  0  0  0  0  0
  184.9540  176.5590  138.0740 C   0  0  0  0  0  2  0  0  0  0  0  0
  185.1150  173.8840  135.3430 N   0  0  0  0  0  2  0  0  0  0  0  0
  184.6500  175.7360  136.9100 N   0  0  0  0  0  2  0  0  0  0  0  0
  186.3030  174.1390  137.3390 O   0  0  0  0  0  0  0  0  0  0  0  0
  185.4030  174.5690  136.5640 C   0  0  0  0  0  0  0  0  0  0  0  0
  185.9070  172.7600  134.8710 C   0  0  0  0  0  2  0  0  0  0  0  0
  185.3260  171.4580  135.4000 C   0  0  0  0  0  1  0  0  0  0  0  0
  188.1660  177.6290  142.1630 C   0  0  0  0  0  2  0  0  0  0  0  0
  189.5960  177.1700  141.8470 C   0  0  0  0  0  2  0  0  0  0  0  0
  189.7890  177.0320  140.4460 O   0  0  0  0  0  0  0  0  0  0  0  0
  191.0550  177.0720  139.8560 C   0  0  0  0  0  0  0  0  0  0  0  0
  192.0090  177.6680  140.4280 O   0  0  0  0  0  0  0  0  0  0  0  0
  191.2580  176.4250  138.5230 C   0  0  2  0  0  3  0  0  0  0  0  0
  192.4890  176.8320  137.9290 O   0  0  0  0  0  0  0  0  0  0  0  0
  194.6750  173.8870  137.5040 C   0  0  0  0  0  3  0  0  0  0  0  0
  195.1810  174.0990  136.2180 C   0  0  0  0  0  3  0  0  0  0  0  0
  193.3910  175.9380  137.3460 C   0  0  0  0  0  0  0  0  0  0  0  0
  194.7990  175.2310  135.4970 C   0  0  0  0  0  3  0  0  0  0  0  0
  193.7830  174.8040  138.0650 C   0  0  0  0  0  3  0  0  0  0  0  0
  193.9080  176.1490  136.0590 C   0  0  0  0  0  3  0  0  0  0  0  0
  190.0960  176.7760  137.6100 C   0  0  0  0  0  2  0  0  0  0  0  0
  189.3990  175.5300  137.0730 C   0  0  0  0  0  2  0  0  0  0  0  0
  190.8980  173.8880  135.8410 C   0  0  0  0  0  0  0  0  0  0  0  0
  191.7150  172.7190  135.9090 N   0  0  0  0  0  2  0  0  0  0  0  0
  190.3100  174.3930  137.0420 N   0  0  0  0  0  2  0  0  0  0  0  0
  190.7030  174.4670  134.7350 O   0  0  0  0  0  0  0  0  0  0  0  0
  192.1890  172.0250  134.7240 C   0  0  0  0  0  2  0  0  0  0  0  0
  191.5360  170.6840  134.6430 C   0  0  0  0  0  3  0  0  0  0  0  0
  192.1180  169.5270  134.9710 C   0  0  0  0  0  3  0  0  0  0  0  0
  193.4800  169.3530  135.5040 C   0  0  0  0  0  0  0  0  0  0  0  0
  193.8200  169.9610  136.8140 C   0  0  0  0  0  1  0  0  0  0  0  0
  194.3710  168.7360  134.8610 O   0  0  0  0  0  0  0  0  0  0  0  0
  2  7  1  0  0  0  0
  3  1  1  6  0  0  0
  3  2  1  0  0  0  0
  3  8  1  0  0  0  0
  4  6  1  0  0  0  0
  6  5  1  1  0  0  0
  7  9  1  1  0  0  0
  7  6  1  0  0  0  0
  8  4  1  0  0  0  0
 10 11  1  0  0  0  0
 10  9  1  0  0  0  0
 11 12  1  0  0  0  0
 13  1  1  0  0  0  0
 14 15  1  0  0  0  0
 14 13  1  0  0  0  0
 16 15  1  0  0  0  0
 17 18  2  0  0  0  0
 18 16  1  0  0  0  0
 19 18  1  0  0  0  0
 20 21  1  0  0  0  0
 20 19  1  0  0  0  0
 22 25  1  0  0  0  0
 23 21  1  0  0  0  0
 25 23  1  0  0  0  0
 25 24  2  0  0  0  0
 26 22  1  0  0  0  0
 26 27  1  0  0  0  0
 28  1  1  0  0  0  0
 29 28  1  0  0  0  0
 30 29  1  0  0  0  0
 31 32  2  0  0  0  0
 31 30  1  0  0  0  0
 33 41  1  6  0  0  0
 33 31  1  0  0  0  0
 34 33  1  0  0  0  0
 35 39  1  0  0  0  0
 36 35  2  0  0  0  0
 37 34  1  0  0  0  0
 37 39  2  0  0  0  0
 38 40  2  0  0  0  0
 38 36  1  0  0  0  0
 40 37  1  0  0  0  0
 42 41  1  0  0  0  0
 43 44  1  0  0  0  0
 43 45  1  0  0  0  0
 45 42  1  0  0  0  0
 46 43  2  0  0  0  0
 47 44  1  0  0  0  0
 48 47  1  0  0  0  0
 48 49  2  0  0  0  0
 49 50  1  0  0  0  0
 50 51  1  0  0  0  0
 52 50  2  0  0  0  0
M  END
>  <MODEL>
7

>  <REMARK>
 VINA RESULT:      -5.1      2.469      4.420
  Name = 
  26 active torsions:
  status: ('A' for Active; 'I' for Inactive)
    1  A    between atoms: C_1  and  N_24
    2  A    between atoms: C_1  and  C_28
    3  A    between atoms: O_2  and  C_12
    4  A    between atoms: O_2  and  C_21
    5  A    between atoms: N_3  and  C_20
    6  A    between atoms: C_5  and  C_8
    7  A    between atoms: C_5  and  N_43
    8  A    between atoms: C_7  and  C_11
    9  A    between atoms: C_8  and  N_22
   10  A    between atoms: C_10  and  N_13
   11  A    between atoms: C_11  and  C_49
   12  A    between atoms: C_12  and  C_48
   13  A    between atoms: N_13  and  C_36
   14  A    between atoms: N_13  and  C_48
   15  A    between atoms: C_16  and  O_40
   16  A    between atoms: C_19  and  C_38
   17  A    between atoms: C_21  and  C_42
   18  A    between atoms: N_27  and  C_31
   19  A    between atoms: C_31  and  C_47
   20  A    between atoms: C_35  and  C_36
   21  A    between atoms: C_35  and  C_37
   22  A    between atoms: C_37  and  C_45
   23  A    between atoms: C_39  and  C_45
   24  A    between atoms: O_40  and  C_42
   25  A    between atoms: C_42  and  C_47
   26  A    between atoms: C_49  and  C_50
                            x       y       z     vdW  Elec       q    Type
                         _______ _______ _______ _____ _____    ______ ____

>  <TORSDO>
F 26

$$$$
=
 OpenBabel10232409233D

 52 53  0  0  1  0  0  0  0  0999 V2000
  186.2420  177.2960  136.6810 N   0  0  0  0  0  0  0  0  0  0  0  0
  184.6180  177.6790  138.5010 C   0  0  0  0  0  2  0  0  0  0  0  0
  184.8340  177.6330  136.9700 C   0  0  2  0  0  3  0  0  0  0  0  0
  183.5790  175.4370  137.1210 C   0  0  0  0  0  2  0  0  0  0  0  0
  181.5220  175.6480  138.3190 O   0  0  0  0  0  1  0  0  0  0  0  0
  182.9020  175.8070  138.4460 C   0  0  2  0  0  3  0  0  0  0  0  0
  183.2110  177.2380  138.9190 C   0  0  1  0  0  3  0  0  0  0  0  0
  183.8410  176.6760  136.2720 C   0  0  0  0  0  2  0  0  0  0  0  0
  183.0730  177.3100  140.4310 C   0  0  0  0  0  2  0  0  0  0  0  0
  183.8410  178.5040  140.9650 C   0  0  0  0  0  2  0  0  0  0  0  0
  184.6370  178.1210  142.1990 C   0  0  0  0  0  2  0  0  0  0  0  0
  184.5860  179.2390  143.2310 C   0  0  0  0  0  1  0  0  0  0  0  0
  186.7660  178.0480  135.5400 C   0  0  0  0  0  2  0  0  0  0  0  0
  187.9410  177.3080  134.9360 C   0  0  0  0  0  2  0  0  0  0  0  0
  187.5330  175.8820  134.6250 C   0  0  0  0  0  2  0  0  0  0  0  0
  188.6570  174.9390  135.0210 C   0  0  0  0  0  2  0  0  0  0  0  0
  188.7370  172.6010  135.4780 O   0  0  0  0  0  0  0  0  0  0  0  0
  188.1010  173.6820  135.6050 C   0  0  0  0  0  0  0  0  0  0  0  0
  186.8490  173.7100  136.2970 N   0  0  0  0  0  2  0  0  0  0  0  0
  186.2530  172.5180  136.8790 C   0  0  0  0  0  2  0  0  0  0  0  0
  185.5760  171.6980  135.7920 C   0  0  0  0  0  2  0  0  0  0  0  0
  181.8270  172.4070  135.5120 N   0  0  0  0  0  2  0  0  0  0  0  0
  184.2930  172.2890  135.4340 N   0  0  0  0  0  2  0  0  0  0  0  0
  183.0410  171.0130  136.9420 O   0  0  0  0  0  0  0  0  0  0  0  0
  183.0530  171.8580  136.0030 C   0  0  0  0  0  0  0  0  0  0  0  0
  180.5250  171.9400  135.9610 C   0  0  0  0  0  2  0  0  0  0  0  0
  180.0330  172.8050  137.1110 C   0  0  0  0  0  1  0  0  0  0  0  0
  187.0860  177.5490  137.8600 C   0  0  0  0  0  2  0  0  0  0  0  0
  188.0560  178.7270  137.6900 C   0  0  0  0  0  2  0  0  0  0  0  0
  188.7570  178.9890  138.8980 O   0  0  0  0  0  0  0  0  0  0  0  0
  188.3670  178.4440  140.1240 C   0  0  0  0  0  0  0  0  0  0  0  0
  187.5150  179.0340  140.8440 O   0  0  0  0  0  0  0  0  0  0  0  0
  188.9960  177.1690  140.5880 C   0  0  2  0  0  3  0  0  0  0  0  0
  188.6930  176.9070  141.9570 O   0  0  0  0  0  0  0  0  0  0  0  0
  191.4870  175.8240  144.1140 C   0  0  0  0  0  3  0  0  0  0  0  0
  191.6150  176.9180  144.9740 C   0  0  0  0  0  3  0  0  0  0  0  0
  189.6550  176.9260  142.9710 C   0  0  0  0  0  0  0  0  0  0  0  0
  190.7620  178.0140  144.8400 C   0  0  0  0  0  3  0  0  0  0  0  0
  190.5100  175.8290  143.1160 C   0  0  0  0  0  3  0  0  0  0  0  0
  189.7840  178.0180  143.8430 C   0  0  0  0  0  3  0  0  0  0  0  0
  190.4990  177.2470  140.3900 C   0  0  0  0  0  2  0  0  0  0  0  0
  190.9340  176.6000  139.0790 C   0  0  0  0  0  2  0  0  0  0  0  0
  193.0670  175.6790  138.0470 C   0  0  0  0  0  0  0  0  0  0  0  0
  194.4900  175.5850  138.1080 N   0  0  0  0  0  2  0  0  0  0  0  0
  192.3850  176.4950  139.0030 N   0  0  0  0  0  2  0  0  0  0  0  0
  192.4230  175.0510  137.1590 O   0  0  0  0  0  0  0  0  0  0  0  0
  195.2470  174.6330  137.3120 C   0  0  0  0  0  2  0  0  0  0  0  0
  195.5900  173.4480  138.1530 C   0  0  0  0  0  3  0  0  0  0  0  0
  196.3310  172.4110  137.7510 C   0  0  0  0  0  3  0  0  0  0  0  0
  196.9730  172.2530  136.4350 C   0  0  0  0  0  0  0  0  0  0  0  0
  196.2510  171.5170  135.3690 C   0  0  0  0  0  1  0  0  0  0  0  0
  198.1320  172.6920  136.2050 O   0  0  0  0  0  0  0  0  0  0  0  0
  1 28  1  0  0  0  0
  2  7  1  0  0  0  0
  3  1  1  1  0  0  0
  3  2  1  0  0  0  0
  4  6  1  0  0  0  0
  6  5  1  6  0  0  0
  6  7  1  0  0  0  0
  7  9  1  1  0  0  0
  8  3  1  0  0  0  0
  8  4  1  0  0  0  0
  9 10  1  0  0  0  0
 10 11  1  0  0  0  0
 11 12  1  0  0  0  0
 13  1  1  0  0  0  0
 14 13  1  0  0  0  0
 15 14  1  0  0  0  0
 15 16  1  0  0  0  0
 16 18  1  0  0  0  0
 17 18  2  0  0  0  0
 18 19  1  0  0  0  0
 19 20  1  0  0  0  0
 21 20  1  0  0  0  0
 22 26  1  0  0  0  0
 22 25  1  0  0  0  0
 23 21  1  0  0  0  0
 23 25  1  0  0  0  0
 25 24  2  0  0  0  0
 26 27  1  0  0  0  0
 29 28  1  0  0  0  0
 29 30  1  0  0  0  0
 30 31  1  0  0  0  0
 31 33  1  0  0  0  0
 31 32  2  0  0  0  0
 33 41  1  1  0  0  0
 33 34  1  0  0  0  0
 34 37  1  0  0  0  0
 35 36  1  0  0  0  0
 37 39  1  0  0  0  0
 37 40  2  0  0  0  0
 38 36  2  0  0  0  0
 39 35  2  0  0  0  0
 40 38  1  0  0  0  0
 42 41  1  0  0  0  0
 43 44  1  0  0  0  0
 43 45  1  0  0  0  0
 45 42  1  0  0  0  0
 46 43  2  0  0  0  0
 47 44  1  0  0  0  0
 47 48  1  0  0  0  0
 49 48  2  0  0  0  0
 50 49  1  0  0  0  0
 51 50  1  0  0  0  0
 52 50  2  0  0  0  0
M  END
>  <MODEL>
8

>  <REMARK>
 VINA RESULT:      -5.1      2.302      5.113
  Name = 
  26 active torsions:
  status: ('A' for Active; 'I' for Inactive)
    1  A    between atoms: C_1  and  N_24
    2  A    between atoms: C_1  and  C_28
    3  A    between atoms: O_2  and  C_12
    4  A    between atoms: O_2  and  C_21
    5  A    between atoms: N_3  and  C_20
    6  A    between atoms: C_5  and  C_8
    7  A    between atoms: C_5  and  N_43
    8  A    between atoms: C_7  and  C_11
    9  A    between atoms: C_8  and  N_22
   10  A    between atoms: C_10  and  N_13
   11  A    between atoms: C_11  and  C_49
   12  A    between atoms: C_12  and  C_48
   13  A    between atoms: N_13  and  C_36
   14  A    between atoms: N_13  and  C_48
   15  A    between atoms: C_16  and  O_40
   16  A    between atoms: C_19  and  C_38
   17  A    between atoms: C_21  and  C_42
   18  A    between atoms: N_27  and  C_31
   19  A    between atoms: C_31  and  C_47
   20  A    between atoms: C_35  and  C_36
   21  A    between atoms: C_35  and  C_37
   22  A    between atoms: C_37  and  C_45
   23  A    between atoms: C_39  and  C_45
   24  A    between atoms: O_40  and  C_42
   25  A    between atoms: C_42  and  C_47
   26  A    between atoms: C_49  and  C_50
                            x       y       z     vdW  Elec       q    Type
                         _______ _______ _______ _____ _____    ______ ____

>  <TORSDO>
F 26

$$$$
=
 OpenBabel10232409233D

 52 53  0  0  1  0  0  0  0  0999 V2000
  189.7360  177.7240  139.5180 N   0  0  0  0  0  0  0  0  0  0  0  0
  189.4810  177.3960  137.0840 C   0  0  0  0  0  2  0  0  0  0  0  0
  190.4790  177.5980  138.2480 C   0  0  2  0  0  3  0  0  0  0  0  0
  190.9530  175.1300  137.9270 C   0  0  0  0  0  2  0  0  0  0  0  0
  191.4280  174.5850  135.6490 O   0  0  0  0  0  1  0  0  0  0  0  0
  190.4460  175.1250  136.4800 C   0  0  2  0  0  3  0  0  0  0  0  0
  190.0430  176.5160  135.9620 C   0  0  1  0  0  3  0  0  0  0  0  0
  191.5490  176.4840  138.2960 C   0  0  0  0  0  2  0  0  0  0  0  0
  189.0110  176.3630  134.8570 C   0  0  0  0  0  2  0  0  0  0  0  0
  187.9190  175.4060  135.2960 C   0  0  0  0  0  2  0  0  0  0  0  0
  186.5520  176.0490  135.1530 C   0  0  0  0  0  2  0  0  0  0  0  0
  185.9650  176.3570  136.5240 C   0  0  0  0  0  1  0  0  0  0  0  0
  188.3740  177.1960  139.4140 C   0  0  0  0  0  2  0  0  0  0  0  0
  187.3940  178.3380  139.2540 C   0  0  0  0  0  2  0  0  0  0  0  0
  186.4570  178.3680  140.4460 C   0  0  0  0  0  2  0  0  0  0  0  0
  185.1100  178.9230  140.0140 C   0  0  0  0  0  2  0  0  0  0  0  0
  183.6370  177.5400  141.2770 O   0  0  0  0  0  0  0  0  0  0  0  0
  184.0510  177.8770  140.1360 C   0  0  0  0  0  0  0  0  0  0  0  0
  183.5210  177.2580  138.9590 N   0  0  0  0  0  2  0  0  0  0  0  0
  182.4970  176.2280  139.0150 C   0  0  0  0  0  2  0  0  0  0  0  0
  181.6880  176.2370  137.7270 C   0  0  0  0  0  2  0  0  0  0  0  0
  182.4170  172.9170  135.9710 N   0  0  0  0  0  2  0  0  0  0  0  0
  182.1950  175.2330  136.8010 N   0  0  0  0  0  2  0  0  0  0  0  0
  180.8590  173.4950  137.6140 O   0  0  0  0  0  0  0  0  0  0  0  0
  181.7840  173.8630  136.8370 C   0  0  0  0  0  0  0  0  0  0  0  0
  182.1320  171.4930  136.0270 C   0  0  0  0  0  2  0  0  0  0  0  0
  183.3670  170.7010  135.6290 C   0  0  0  0  0  1  0  0  0  0  0  0
  190.4460  177.0290  140.6040 C   0  0  0  0  0  2  0  0  0  0  0  0
  189.6540  176.9510  141.9160 C   0  0  0  0  0  2  0  0  0  0  0  0
  189.5360  178.2330  142.5180 O   0  0  0  0  0  0  0  0  0  0  0  0
  190.1350  178.5460  143.7400 C   0  0  0  0  0  0  0  0  0  0  0  0
  191.2330  179.1670  143.7750 O   0  0  0  0  0  0  0  0  0  0  0  0
  189.4750  178.1090  145.0080 C   0  0  2  0  0  3  0  0  0  0  0  0
  189.8690  176.7880  145.3720 O   0  0  0  0  0  0  0  0  0  0  0  0
  192.8290  175.2800  146.9860 C   0  0  0  0  0  3  0  0  0  0  0  0
  192.8490  175.9510  148.2120 C   0  0  0  0  0  3  0  0  0  0  0  0
  190.8490  176.5180  146.3320 C   0  0  0  0  0  0  0  0  0  0  0  0
  191.8690  176.9000  148.5040 C   0  0  0  0  0  3  0  0  0  0  0  0
  191.8310  175.5640  146.0500 C   0  0  0  0  0  3  0  0  0  0  0  0
  190.8710  177.1820  147.5680 C   0  0  0  0  0  3  0  0  0  0  0  0
  187.9670  178.1760  144.8400 C   0  0  0  0  0  2  0  0  0  0  0  0
  187.2380  177.9730  146.1650 C   0  0  0  0  0  2  0  0  0  0  0  0
  185.0030  178.5730  145.1120 C   0  0  0  0  0  0  0  0  0  0  0  0
  183.8140  179.3590  145.1780 N   0  0  0  0  0  2  0  0  0  0  0  0
  185.9590  178.6700  146.1710 N   0  0  0  0  0  2  0  0  0  0  0  0
  185.2050  177.8010  144.1310 O   0  0  0  0  0  0  0  0  0  0  0  0
  182.8870  179.4740  144.0640 C   0  0  0  0  0  2  0  0  0  0  0  0
  181.6440  178.7080  144.3760 C   0  0  0  0  0  3  0  0  0  0  0  0
  180.5390  178.7020  143.6250 C   0  0  0  0  0  3  0  0  0  0  0  0
  180.3460  179.4070  142.3460 C   0  0  0  0  0  0  0  0  0  0  0  0
  180.4970  178.6490  141.0800 C   0  0  0  0  0  1  0  0  0  0  0  0
  180.0960  180.6410  142.2990 O   0  0  0  0  0  0  0  0  0  0  0  0
  1 28  1  0  0  0  0
  2  3  1  0  0  0  0
  3  8  1  0  0  0  0
  3  1  1  1  0  0  0
  4  8  1  0  0  0  0
  6  5  1  6  0  0  0
  6  4  1  0  0  0  0
  7  9  1  6  0  0  0
  7  6  1  0  0  0  0
  7  2  1  0  0  0  0
  9 10  1  0  0  0  0
 11 10  1  0  0  0  0
 11 12  1  0  0  0  0
 13  1  1  0  0  0  0
 14 13  1  0  0  0  0
 14 15  1  0  0  0  0
 16 18  1  0  0  0  0
 16 15  1  0  0  0  0
 18 17  2  0  0  0  0
 19 20  1  0  0  0  0
 19 18  1  0  0  0  0
 21 20  1  0  0  0  0
 22 26  1  0  0  0  0
 22 25  1  0  0  0  0
 23 25  1  0  0  0  0
 23 21  1  0  0  0  0
 25 24  2  0  0  0  0
 27 26  1  0  0  0  0
 28 29  1  0  0  0  0
 29 30  1  0  0  0  0
 30 31  1  0  0  0  0
 31 32  2  0  0  0  0
 31 33  1  0  0  0  0
 33 41  1  6  0  0  0
 33 34  1  0  0  0  0
 34 37  1  0  0  0  0
 35 36  1  0  0  0  0
 36 38  2  0  0  0  0
 37 40  2  0  0  0  0
 39 37  1  0  0  0  0
 39 35  2  0  0  0  0
 40 38  1  0  0  0  0
 41 42  1  0  0  0  0
 42 45  1  0  0  0  0
 43 44  1  0  0  0  0
 43 45  1  0  0  0  0
 46 43  2  0  0  0  0
 47 48  1  0  0  0  0
 47 44  1  0  0  0  0
 49 48  2  0  0  0  0
 50 49  1  0  0  0  0
 51 50  1  0  0  0  0
 52 50  2  0  0  0  0
M  END
>  <MODEL>
9

>  <REMARK>
 VINA RESULT:      -5.0      3.168      9.473
  Name = 
  26 active torsions:
  status: ('A' for Active; 'I' for Inactive)
    1  A    between atoms: C_1  and  N_24
    2  A    between atoms: C_1  and  C_28
    3  A    between atoms: O_2  and  C_12
    4  A    between atoms: O_2  and  C_21
    5  A    between atoms: N_3  and  C_20
    6  A    between atoms: C_5  and  C_8
    7  A    between atoms: C_5  and  N_43
    8  A    between atoms: C_7  and  C_11
    9  A    between atoms: C_8  and  N_22
   10  A    between atoms: C_10  and  N_13
   11  A    between atoms: C_11  and  C_49
   12  A    between atoms: C_12  and  C_48
   13  A    between atoms: N_13  and  C_36
   14  A    between atoms: N_13  and  C_48
   15  A    between atoms: C_16  and  O_40
   16  A    between atoms: C_19  and  C_38
   17  A    between atoms: C_21  and  C_42
   18  A    between atoms: N_27  and  C_31
   19  A    between atoms: C_31  and  C_47
   20  A    between atoms: C_35  and  C_36
   21  A    between atoms: C_35  and  C_37
   22  A    between atoms: C_37  and  C_45
   23  A    between atoms: C_39  and  C_45
   24  A    between atoms: O_40  and  C_42
   25  A    between atoms: C_42  and  C_47
   26  A    between atoms: C_49  and  C_50
                            x       y       z     vdW  Elec       q    Type
                         _______ _______ _______ _____ _____    ______ ____

>  <TORSDO>
F 26

$$$$
