=
 OpenBabel10232408433D

 30 32  0  0  1  0  0  0  0  0999 V2000
  187.3050  178.3260  139.0470 C   0  0  0  0  0  0  0  0  0  0  0  0
  190.4480  177.1000  137.7600 O   0  0  0  0  0  0  0  0  0  0  0  0
  187.6230  178.3930  140.4850 C   0  0  0  0  0  0  0  0  0  0  0  0
  188.8350  177.9790  140.9280 C   0  0  0  0  0  0  0  0  0  0  0  0
  189.7800  177.1960  140.0490 C   0  0  0  0  0  2  0  0  0  0  0  0
  186.1720  178.6820  138.6290 O   0  0  0  0  0  0  0  0  0  0  0  0
  188.2900  177.8840  138.1160 N   0  0  0  0  0  2  0  0  0  0  0  0
  189.5480  177.4050  138.5850 C   0  0  0  0  0  0  0  0  0  0  0  0
  189.1010  177.2420  143.3230 C   0  0  0  0  0  0  0  0  0  0  0  0
  188.5570  176.1300  143.0850 O   0  0  0  0  0  0  0  0  0  0  0  0
  189.2580  178.2110  142.2760 N   0  0  0  0  0  2  0  0  0  0  0  0
  187.4060  178.1640  145.4990 O   0  0  0  0  0  1  0  0  0  0  0  0
  191.3120  176.9810  146.4520 C   0  0  2  0  0  3  0  0  0  0  0  0
  189.5850  177.5350  144.7100 C   0  0  1  0  0  3  0  0  0  0  0  0
  188.4730  177.2980  145.7420 C   0  0  1  0  0  3  0  0  0  0  0  0
  190.2020  176.6670  147.4480 C   0  0  0  0  0  2  0  0  0  0  0  0
  188.9880  177.5420  147.1580 C   0  0  0  0  0  2  0  0  0  0  0  0
  190.8260  176.7000  145.0340 C   0  0  0  0  0  2  0  0  0  0  0  0
  192.4280  176.1890  146.7290 O   0  0  0  0  0  0  0  0  0  0  0  0
  193.2720  176.5290  148.8170 O   0  0  0  0  0  1  0  0  0  0  0  0
  192.3020  175.8530  148.0770 C   0  0  0  0  0  2  0  0  0  0  0  0
  186.6230  178.9160  141.3700 N   0  0  0  0  0  2  0  0  0  0  0  0
  185.8810  178.1020  142.2360 N   0  0  0  0  0  2  0  0  0  0  0  0
  182.2260  178.6850  141.8340 C   0  0  0  0  0  3  0  0  0  0  0  0
  182.7960  178.9370  144.1750 C   0  0  0  0  0  3  0  0  0  0  0  0
  183.5640  178.4090  141.5380 C   0  0  0  0  0  3  0  0  0  0  0  0
  180.1660  179.2920  143.5240 Cl  0  0  0  0  0  0  0  0  0  0  0  0
  184.1340  178.6600  143.8790 C   0  0  0  0  0  3  0  0  0  0  0  0
  184.5220  178.3960  142.5580 C   0  0  0  0  0  0  0  0  0  0  0  0
  181.8420  178.9470  143.1530 C   0  0  0  0  0  0  0  0  0  0  0  0
  1  3  1  0  0  0  0
  2  8  2  0  0  0  0
  3  4  2  0  0  0  0
  3 22  1  0  0  0  0
  4 11  1  0  0  0  0
  5  4  1  0  0  0  0
  6  1  2  0  0  0  0
  7  8  1  0  0  0  0
  7  1  1  0  0  0  0
  8  5  1  0  0  0  0
 10  9  2  0  0  0  0
 11  9  1  0  0  0  0
 13 19  1  1  0  0  0
 13 16  1  0  0  0  0
 14  9  1  6  0  0  0
 14 18  1  0  0  0  0
 14 15  1  0  0  0  0
 15 12  1  6  0  0  0
 15 17  1  0  0  0  0
 17 16  1  0  0  0  0
 18 13  1  0  0  0  0
 19 21  1  0  0  0  0
 21 20  1  0  0  0  0
 22 23  1  0  0  0  0
 23 29  1  0  0  0  0
 24 30  1  0  0  0  0
 26 24  2  0  0  0  0
 26 29  1  0  0  0  0
 28 25  1  0  0  0  0
 29 28  2  0  0  0  0
 30 27  1  0  0  0  0
 30 25  2  0  0  0  0
M  END
>  <MODEL>
1

>  <REMARK>
 VINA RESULT:      -9.1      0.000      0.000
  Name = 
  7 active torsions:
  status: ('A' for Active; 'I' for Inactive)
    1  A    between atoms: N_4  and  N_10
    2  A    between atoms: N_4  and  C_18
    3  A    between atoms: C_5  and  C_15
    4  A    between atoms: C_9  and  O_11
    5  A    between atoms: N_10  and  C_12
    6  A    between atoms: O_11  and  C_24
    7  A    between atoms: C_19  and  N_22
                            x       y       z     vdW  Elec       q    Type
                         _______ _______ _______ _____ _____    ______ ____

>  <TORSDO>
F 7

$$$$
=
 OpenBabel10232408433D

 30 32  0  0  1  0  0  0  0  0999 V2000
  188.8000  178.3630  139.3210 C   0  0  0  0  0  0  0  0  0  0  0  0
  192.0640  176.8320  139.1490 O   0  0  0  0  0  0  0  0  0  0  0  0
  188.5460  178.2670  140.7700 C   0  0  0  0  0  0  0  0  0  0  0  0
  189.4490  177.6570  141.5750 C   0  0  0  0  0  0  0  0  0  0  0  0
  190.5800  176.8290  141.0180 C   0  0  0  0  0  2  0  0  0  0  0  0
  187.9530  178.9030  138.5610 O   0  0  0  0  0  0  0  0  0  0  0  0
  190.0200  177.8700  138.7740 N   0  0  0  0  0  2  0  0  0  0  0  0
  190.9500  177.1870  139.6120 C   0  0  0  0  0  0  0  0  0  0  0  0
  188.6960  176.7000  143.7810 C   0  0  0  0  0  0  0  0  0  0  0  0
  188.1780  175.6980  143.2170 O   0  0  0  0  0  0  0  0  0  0  0  0
  189.3400  177.7170  143.0020 N   0  0  0  0  0  2  0  0  0  0  0  0
  190.9660  176.3030  145.5560 O   0  0  0  0  0  1  0  0  0  0  0  0
  187.4580  177.8850  147.2180 C   0  0  2  0  0  3  0  0  0  0  0  0
  188.6350  176.8080  145.2740 C   0  0  1  0  0  3  0  0  0  0  0  0
  189.9870  177.2540  145.8490 C   0  0  1  0  0  3  0  0  0  0  0  0
  188.7960  178.3960  147.7400 C   0  0  0  0  0  2  0  0  0  0  0  0
  189.9030  177.4180  147.3640 C   0  0  0  0  0  2  0  0  0  0  0  0
  187.5130  177.7580  145.6990 C   0  0  0  0  0  2  0  0  0  0  0  0
  186.4450  178.7750  147.5760 O   0  0  0  0  0  0  0  0  0  0  0  0
  184.3430  178.6600  146.7050 O   0  0  0  0  0  1  0  0  0  0  0  0
  185.6810  178.9310  146.4190 C   0  0  0  0  0  2  0  0  0  0  0  0
  187.3360  178.8470  141.2790 N   0  0  0  0  0  2  0  0  0  0  0  0
  186.1040  178.7230  140.6210 N   0  0  0  0  0  2  0  0  0  0  0  0
  183.6880  178.9140  143.4470 C   0  0  0  0  0  3  0  0  0  0  0  0
  182.4470  178.6250  141.3870 C   0  0  0  0  0  3  0  0  0  0  0  0
  184.8860  178.8900  142.7280 C   0  0  0  0  0  3  0  0  0  0  0  0
  180.9670  178.8130  143.6750 Cl  0  0  0  0  0  0  0  0  0  0  0  0
  183.6460  178.6020  140.6680 C   0  0  0  0  0  3  0  0  0  0  0  0
  184.8700  178.7340  141.3380 C   0  0  0  0  0  0  0  0  0  0  0  0
  182.4680  178.7830  142.7760 C   0  0  0  0  0  0  0  0  0  0  0  0
  1  3  1  0  0  0  0
  2  8  2  0  0  0  0
  3 22  1  0  0  0  0
  3  4  2  0  0  0  0
  4 11  1  0  0  0  0
  5  4  1  0  0  0  0
  6  1  2  0  0  0  0
  7  1  1  0  0  0  0
  7  8  1  0  0  0  0
  8  5  1  0  0  0  0
 10  9  2  0  0  0  0
 11  9  1  0  0  0  0
 13 19  1  6  0  0  0
 13 16  1  0  0  0  0
 14  9  1  6  0  0  0
 14 18  1  0  0  0  0
 14 15  1  0  0  0  0
 15 12  1  1  0  0  0
 15 17  1  0  0  0  0
 17 16  1  0  0  0  0
 18 13  1  0  0  0  0
 21 20  1  0  0  0  0
 21 19  1  0  0  0  0
 23 22  1  0  0  0  0
 23 29  1  0  0  0  0
 25 30  2  0  0  0  0
 26 24  2  0  0  0  0
 28 29  2  0  0  0  0
 28 25  1  0  0  0  0
 29 26  1  0  0  0  0
 30 24  1  0  0  0  0
 30 27  1  0  0  0  0
M  END
>  <MODEL>
2

>  <REMARK>
 VINA RESULT:      -8.9      1.524      3.154
  Name = 
  7 active torsions:
  status: ('A' for Active; 'I' for Inactive)
    1  A    between atoms: N_4  and  N_10
    2  A    between atoms: N_4  and  C_18
    3  A    between atoms: C_5  and  C_15
    4  A    between atoms: C_9  and  O_11
    5  A    between atoms: N_10  and  C_12
    6  A    between atoms: O_11  and  C_24
    7  A    between atoms: C_19  and  N_22
                            x       y       z     vdW  Elec       q    Type
                         _______ _______ _______ _____ _____    ______ ____

>  <TORSDO>
F 7

$$$$
=
 OpenBabel10232408433D

 30 32  0  0  1  0  0  0  0  0999 V2000
  189.1570  176.9350  147.1050 C   0  0  0  0  0  0  0  0  0  0  0  0
  192.5760  175.7820  146.9750 O   0  0  0  0  0  0  0  0  0  0  0  0
  189.0610  177.6040  145.7940 C   0  0  0  0  0  0  0  0  0  0  0  0
  190.1490  177.6700  144.9890 C   0  0  0  0  0  0  0  0  0  0  0  0
  191.5310  177.3260  145.4860 C   0  0  0  0  0  2  0  0  0  0  0  0
  188.1600  176.8930  147.8730 O   0  0  0  0  0  0  0  0  0  0  0  0
  190.3740  176.3040  147.4980 N   0  0  0  0  0  2  0  0  0  0  0  0
  191.5310  176.4120  146.6730 C   0  0  0  0  0  0  0  0  0  0  0  0
  189.8280  177.2490  142.5250 C   0  0  0  0  0  0  0  0  0  0  0  0
  189.7240  176.0060  142.7080 O   0  0  0  0  0  0  0  0  0  0  0  0
  190.0500  178.1290  143.6360 N   0  0  0  0  0  2  0  0  0  0  0  0
  191.9040  177.0540  140.4980 O   0  0  0  0  0  1  0  0  0  0  0  0
  188.1200  178.3760  139.2750 C   0  0  2  0  0  3  0  0  0  0  0  0
  189.7100  177.7930  141.1340 C   0  0  1  0  0  3  0  0  0  0  0  0
  190.5550  176.9730  140.1500 C   0  0  1  0  0  3  0  0  0  0  0  0
  188.9170  177.4940  138.3220 C   0  0  0  0  0  2  0  0  0  0  0  0
  190.3870  177.4950  138.7250 C   0  0  0  0  0  2  0  0  0  0  0  0
  188.2440  177.8400  140.6980 C   0  0  0  0  0  2  0  0  0  0  0  0
  186.7770  178.3840  138.8940 O   0  0  0  0  0  0  0  0  0  0  0  0
  185.4090  177.4720  137.3180 O   0  0  0  0  0  1  0  0  0  0  0  0
  186.7360  177.6380  137.7160 C   0  0  0  0  0  2  0  0  0  0  0  0
  187.7930  178.1560  145.4150 N   0  0  0  0  0  0  0  0  0  0  0  0
  186.9660  177.5580  144.4540 N   0  0  0  0  0  0  0  0  0  0  0  0
  183.9000  178.5490  142.5890 C   0  0  0  0  0  3  0  0  0  0  0  0
  183.5340  178.9560  144.9480 C   0  0  0  0  0  3  0  0  0  0  0  0
  185.1870  178.0810  142.8690 C   0  0  0  0  0  3  0  0  0  0  0  0
  181.4620  179.5700  143.2780 Cl  0  0  0  0  0  0  0  0  0  0  0  0
  184.8220  178.4870  145.2280 C   0  0  0  0  0  3  0  0  0  0  0  0
  185.6530  178.0490  144.1880 C   0  0  0  0  0  0  0  0  0  0  0  0
  183.0730  178.9850  143.6290 C   0  0  0  0  0  0  0  0  0  0  0  0
  1  7  1  0  0  0  0
  1  6  2  0  0  0  0
  3  1  1  0  0  0  0
  4  5  1  0  0  0  0
  4  3  2  0  0  0  0
  5  8  1  0  0  0  0
  8  2  2  0  0  0  0
  8  7  1  0  0  0  0
  9 10  2  0  0  0  0
  9 11  1  0  0  0  0
 11  4  1  0  0  0  0
 13 19  1  6  0  0  0
 13 18  1  0  0  0  0
 14  9  1  1  0  0  0
 15 12  1  1  0  0  0
 15 14  1  0  0  0  0
 16 17  1  0  0  0  0
 16 13  1  0  0  0  0
 17 15  1  0  0  0  0
 18 14  1  0  0  0  0
 20 21  1  0  0  0  0
 21 19  1  0  0  0  0
 22  3  1  0  0  0  0
 23 22  2  0  0  0  0
 24 26  2  0  0  0  0
 24 30  1  0  0  0  0
 25 28  1  0  0  0  0
 26 29  1  0  0  0  0
 27 30  1  0  0  0  0
 29 23  1  0  0  0  0
 29 28  2  0  0  0  0
 30 25  2  0  0  0  0
M  END
>  <MODEL>
3

>  <REMARK>
 VINA RESULT:      -8.9      1.821      6.655
  Name = 
  7 active torsions:
  status: ('A' for Active; 'I' for Inactive)
    1  A    between atoms: N_4  and  N_10
    2  A    between atoms: N_4  and  C_18
    3  A    between atoms: C_5  and  C_15
    4  A    between atoms: C_9  and  O_11
    5  A    between atoms: N_10  and  C_12
    6  A    between atoms: O_11  and  C_24
    7  A    between atoms: C_19  and  N_22
                            x       y       z     vdW  Elec       q    Type
                         _______ _______ _______ _____ _____    ______ ____

>  <TORSDO>
F 7

$$$$
=
 OpenBabel10232408433D

 30 32  0  0  1  0  0  0  0  0999 V2000
  189.7730  177.5760  147.2670 C   0  0  0  0  0  0  0  0  0  0  0  0
  192.7490  175.5320  147.2180 O   0  0  0  0  0  0  0  0  0  0  0  0
  189.3990  177.5200  145.8420 C   0  0  0  0  0  0  0  0  0  0  0  0
  190.1860  176.8550  144.9630 C   0  0  0  0  0  0  0  0  0  0  0  0
  191.5760  176.3950  145.3280 C   0  0  0  0  0  2  0  0  0  0  0  0
  189.0630  178.2150  148.0870 O   0  0  0  0  0  0  0  0  0  0  0  0
  190.9280  176.8800  147.7310 N   0  0  0  0  0  2  0  0  0  0  0  0
  191.7820  176.2200  146.8010 C   0  0  0  0  0  0  0  0  0  0  0  0
  190.0790  177.4790  142.5240 C   0  0  0  0  0  0  0  0  0  0  0  0
  190.7490  178.5290  142.7190 O   0  0  0  0  0  0  0  0  0  0  0  0
  189.7620  176.6070  143.6180 N   0  0  0  0  0  2  0  0  0  0  0  0
  187.7050  178.5890  141.2620 O   0  0  0  0  0  1  0  0  0  0  0  0
  190.3620  176.4370  138.8380 C   0  0  2  0  0  3  0  0  0  0  0  0
  189.6260  177.1530  141.1330 C   0  0  1  0  0  3  0  0  0  0  0  0
  188.8560  178.3290  140.5160 C   0  0  1  0  0  3  0  0  0  0  0  0
  189.6650  177.6520  138.2390 C   0  0  0  0  0  2  0  0  0  0  0  0
  188.4460  178.0140  139.0800 C   0  0  0  0  0  2  0  0  0  0  0  0
  190.8170  176.7520  140.2600 C   0  0  0  0  0  2  0  0  0  0  0  0
  191.4690  176.1000  138.0580 O   0  0  0  0  0  0  0  0  0  0  0  0
  190.4880  174.0690  137.7400 O   0  0  0  0  0  1  0  0  0  0  0  0
  190.9760  175.2090  137.1030 C   0  0  0  0  0  2  0  0  0  0  0  0
  188.1860  178.1740  145.4410 N   0  0  0  0  0  0  0  0  0  0  0  0
  186.9230  177.7620  145.8890 N   0  0  0  0  0  0  0  0  0  0  0  0
  184.5180  178.3360  143.1060 C   0  0  0  0  0  3  0  0  0  0  0  0
  183.4430  178.9340  145.1920 C   0  0  0  0  0  3  0  0  0  0  0  0
  185.6820  177.9970  143.8030 C   0  0  0  0  0  3  0  0  0  0  0  0
  181.9420  179.2280  142.9290 Cl  0  0  0  0  0  0  0  0  0  0  0  0
  184.6060  178.5940  145.8890 C   0  0  0  0  0  3  0  0  0  0  0  0
  185.7300  178.1240  145.1950 C   0  0  0  0  0  0  0  0  0  0  0  0
  183.3980  178.8030  143.8010 C   0  0  0  0  0  0  0  0  0  0  0  0
  1  7  1  0  0  0  0
  1  6  2  0  0  0  0
  3  1  1  0  0  0  0
  4  5  1  0  0  0  0
  4  3  2  0  0  0  0
  5  8  1  0  0  0  0
  8  2  2  0  0  0  0
  8  7  1  0  0  0  0
  9 10  2  0  0  0  0
  9 11  1  0  0  0  0
 11  4  1  0  0  0  0
 13 19  1  6  0  0  0
 13 18  1  0  0  0  0
 14  9  1  1  0  0  0
 15 14  1  0  0  0  0
 15 12  1  1  0  0  0
 16 13  1  0  0  0  0
 16 17  1  0  0  0  0
 17 15  1  0  0  0  0
 18 14  1  0  0  0  0
 21 20  1  0  0  0  0
 21 19  1  0  0  0  0
 22  3  1  0  0  0  0
 22 23  2  0  0  0  0
 24 30  2  0  0  0  0
 24 26  1  0  0  0  0
 25 28  2  0  0  0  0
 26 29  2  0  0  0  0
 27 30  1  0  0  0  0
 29 23  1  0  0  0  0
 29 28  1  0  0  0  0
 30 25  1  0  0  0  0
M  END
>  <MODEL>
4

>  <REMARK>
 VINA RESULT:      -8.9      2.191      6.441
  Name = 
  7 active torsions:
  status: ('A' for Active; 'I' for Inactive)
    1  A    between atoms: N_4  and  N_10
    2  A    between atoms: N_4  and  C_18
    3  A    between atoms: C_5  and  C_15
    4  A    between atoms: C_9  and  O_11
    5  A    between atoms: N_10  and  C_12
    6  A    between atoms: O_11  and  C_24
    7  A    between atoms: C_19  and  N_22
                            x       y       z     vdW  Elec       q    Type
                         _______ _______ _______ _____ _____    ______ ____

>  <TORSDO>
F 7

$$$$
=
 OpenBabel10232408433D

 30 32  0  0  1  0  0  0  0  0999 V2000
  189.1250  178.5220  138.8300 C   0  0  0  0  0  0  0  0  0  0  0  0
  192.0680  176.4550  138.5030 O   0  0  0  0  0  0  0  0  0  0  0  0
  188.6640  178.1040  140.1660 C   0  0  0  0  0  0  0  0  0  0  0  0
  189.3300  177.1340  140.8370 C   0  0  0  0  0  0  0  0  0  0  0  0
  190.3650  176.2670  140.1640 C   0  0  0  0  0  2  0  0  0  0  0  0
  188.4970  179.4030  138.1860 O   0  0  0  0  0  0  0  0  0  0  0  0
  190.3050  177.9500  138.2690 N   0  0  0  0  0  2  0  0  0  0  0  0
  190.9790  176.8970  138.9530 C   0  0  0  0  0  0  0  0  0  0  0  0
  189.8010  177.3750  143.3010 C   0  0  0  0  0  0  0  0  0  0  0  0
  190.7850  178.1310  143.0820 O   0  0  0  0  0  0  0  0  0  0  0  0
  189.0400  176.8400  142.2090 N   0  0  0  0  0  2  0  0  0  0  0  0
  191.6340  176.2580  145.2630 O   0  0  0  0  0  1  0  0  0  0  0  0
  187.9180  177.6240  146.6390 C   0  0  2  0  0  3  0  0  0  0  0  0
  189.4340  177.0490  144.7170 C   0  0  1  0  0  3  0  0  0  0  0  0
  190.6510  177.1730  145.6430 C   0  0  1  0  0  3  0  0  0  0  0  0
  189.1360  177.8270  147.5330 C   0  0  0  0  0  2  0  0  0  0  0  0
  190.2590  176.8970  147.0920 C   0  0  0  0  0  2  0  0  0  0  0  0
  188.2830  177.9400  145.1920 C   0  0  0  0  0  2  0  0  0  0  0  0
  186.8860  178.4660  147.0550 O   0  0  0  0  0  0  0  0  0  0  0  0
  184.6180  178.5230  146.8470 O   0  0  0  0  0  1  0  0  0  0  0  0
  185.8090  178.1490  146.2260 C   0  0  0  0  0  2  0  0  0  0  0  0
  187.5160  178.7660  140.7160 N   0  0  0  0  0  2  0  0  0  0  0  0
  186.2280  178.6110  140.1830 N   0  0  0  0  0  2  0  0  0  0  0  0
  182.6500  178.6310  141.2080 C   0  0  0  0  0  3  0  0  0  0  0  0
  184.0220  178.8800  143.1880 C   0  0  0  0  0  3  0  0  0  0  0  0
  183.8000  178.5800  140.4160 C   0  0  0  0  0  3  0  0  0  0  0  0
  181.3190  178.8450  143.5840 Cl  0  0  0  0  0  0  0  0  0  0  0  0
  185.1730  178.8270  142.3960 C   0  0  0  0  0  3  0  0  0  0  0  0
  185.0650  178.6770  141.0070 C   0  0  0  0  0  0  0  0  0  0  0  0
  182.7600  178.7800  142.5940 C   0  0  0  0  0  0  0  0  0  0  0  0
  1  3  1  0  0  0  0
  2  8  2  0  0  0  0
  3 22  1  0  0  0  0
  3  4  2  0  0  0  0
  4 11  1  0  0  0  0
  5  4  1  0  0  0  0
  6  1  2  0  0  0  0
  7  1  1  0  0  0  0
  7  8  1  0  0  0  0
  8  5  1  0  0  0  0
 10  9  2  0  0  0  0
 11  9  1  0  0  0  0
 13 19  1  1  0  0  0
 13 16  1  0  0  0  0
 14  9  1  6  0  0  0
 14 18  1  0  0  0  0
 14 15  1  0  0  0  0
 15 12  1  6  0  0  0
 15 17  1  0  0  0  0
 17 16  1  0  0  0  0
 18 13  1  0  0  0  0
 21 20  1  0  0  0  0
 21 19  1  0  0  0  0
 23 22  1  0  0  0  0
 23 29  1  0  0  0  0
 24 30  1  0  0  0  0
 26 29  1  0  0  0  0
 26 24  2  0  0  0  0
 28 25  1  0  0  0  0
 29 28  2  0  0  0  0
 30 25  2  0  0  0  0
 30 27  1  0  0  0  0
M  END
>  <MODEL>
5

>  <REMARK>
 VINA RESULT:      -8.6      1.599      3.024
  Name = 
  7 active torsions:
  status: ('A' for Active; 'I' for Inactive)
    1  A    between atoms: N_4  and  N_10
    2  A    between atoms: N_4  and  C_18
    3  A    between atoms: C_5  and  C_15
    4  A    between atoms: C_9  and  O_11
    5  A    between atoms: N_10  and  C_12
    6  A    between atoms: O_11  and  C_24
    7  A    between atoms: C_19  and  N_22
                            x       y       z     vdW  Elec       q    Type
                         _______ _______ _______ _____ _____    ______ ____

>  <TORSDO>
F 7

$$$$
=
 OpenBabel10232408433D

 30 32  0  0  1  0  0  0  0  0999 V2000
  188.7860  178.4100  139.0360 C   0  0  0  0  0  0  0  0  0  0  0  0
  191.9960  177.2560  140.2210 O   0  0  0  0  0  0  0  0  0  0  0  0
  188.0190  178.3740  140.2940 C   0  0  0  0  0  0  0  0  0  0  0  0
  188.6040  177.9220  141.4290 C   0  0  0  0  0  0  0  0  0  0  0  0
  189.9270  177.1970  141.4090 C   0  0  0  0  0  2  0  0  0  0  0  0
  188.2430  178.8020  137.9690 O   0  0  0  0  0  0  0  0  0  0  0  0
  190.1600  178.0270  139.0240 N   0  0  0  0  0  2  0  0  0  0  0  0
  190.7630  177.5080  140.2070 C   0  0  0  0  0  0  0  0  0  0  0  0
  187.7260  176.9460  143.5800 C   0  0  0  0  0  0  0  0  0  0  0  0
  188.0660  175.7810  143.2390 O   0  0  0  0  0  0  0  0  0  0  0  0
  187.9660  178.0560  142.7040 N   0  0  0  0  0  2  0  0  0  0  0  0
  189.1240  176.8540  146.1290 O   0  0  0  0  0  1  0  0  0  0  0  0
  185.1790  178.2700  146.1310 C   0  0  2  0  0  3  0  0  0  0  0  0
  187.0750  177.1540  144.9130 C   0  0  1  0  0  3  0  0  0  0  0  0
  188.0680  177.7430  145.9240 C   0  0  1  0  0  3  0  0  0  0  0  0
  186.1770  178.9190  147.0820 C   0  0  0  0  0  2  0  0  0  0  0  0
  187.3840  178.0070  147.2640 C   0  0  0  0  0  2  0  0  0  0  0  0
  185.8350  178.0410  144.7730 C   0  0  0  0  0  2  0  0  0  0  0  0
  184.0680  179.1020  145.9780 O   0  0  0  0  0  0  0  0  0  0  0  0
  182.3520  178.7840  144.5140 O   0  0  0  0  0  1  0  0  0  0  0  0
  183.7250  178.9960  144.6290 C   0  0  0  0  0  2  0  0  0  0  0  0
  186.6630  178.8410  140.2660 N   0  0  0  0  0  2  0  0  0  0  0  0
  185.7490  178.4490  139.2770 N   0  0  0  0  0  2  0  0  0  0  0  0
  182.4990  178.5040  141.0910 C   0  0  0  0  0  3  0  0  0  0  0  0
  182.1910  177.3410  138.9890 C   0  0  0  0  0  3  0  0  0  0  0  0
  183.8480  178.7040  140.7830 C   0  0  0  0  0  3  0  0  0  0  0  0
  179.9820  177.5720  140.5800 Cl  0  0  0  0  0  0  0  0  0  0  0  0
  183.5390  177.5430  138.6800 C   0  0  0  0  0  3  0  0  0  0  0  0
  184.3730  178.2250  139.5780 C   0  0  0  0  0  0  0  0  0  0  0  0
  181.6710  177.8230  140.1940 C   0  0  0  0  0  0  0  0  0  0  0  0
  1  3  1  0  0  0  0
  3  4  2  0  0  0  0
  4 11  1  0  0  0  0
  5  4  1  0  0  0  0
  6  1  2  0  0  0  0
  7  1  1  0  0  0  0
  7  8  1  0  0  0  0
  8  2  2  0  0  0  0
  8  5  1  0  0  0  0
 10  9  2  0  0  0  0
 11  9  1  0  0  0  0
 13 19  1  6  0  0  0
 13 16  1  0  0  0  0
 14  9  1  6  0  0  0
 14 15  1  0  0  0  0
 15 12  1  1  0  0  0
 15 17  1  0  0  0  0
 16 17  1  0  0  0  0
 18 14  1  0  0  0  0
 18 13  1  0  0  0  0
 20 21  1  0  0  0  0
 21 19  1  0  0  0  0
 22  3  1  0  0  0  0
 23 29  1  0  0  0  0
 23 22  1  0  0  0  0
 25 30  1  0  0  0  0
 26 24  1  0  0  0  0
 28 25  2  0  0  0  0
 28 29  1  0  0  0  0
 29 26  2  0  0  0  0
 30 27  1  0  0  0  0
 30 24  2  0  0  0  0
M  END
>  <MODEL>
6

>  <REMARK>
 VINA RESULT:      -8.3      2.302      4.284
  Name = 
  7 active torsions:
  status: ('A' for Active; 'I' for Inactive)
    1  A    between atoms: N_4  and  N_10
    2  A    between atoms: N_4  and  C_18
    3  A    between atoms: C_5  and  C_15
    4  A    between atoms: C_9  and  O_11
    5  A    between atoms: N_10  and  C_12
    6  A    between atoms: O_11  and  C_24
    7  A    between atoms: C_19  and  N_22
                            x       y       z     vdW  Elec       q    Type
                         _______ _______ _______ _____ _____    ______ ____

>  <TORSDO>
F 7

$$$$
=
 OpenBabel10232408433D

 30 32  0  0  1  0  0  0  0  0999 V2000
  189.1170  178.5780  138.4820 C   0  0  0  0  0  0  0  0  0  0  0  0
  191.5340  176.1920  137.2570 O   0  0  0  0  0  0  0  0  0  0  0  0
  188.9310  178.0750  139.8550 C   0  0  0  0  0  0  0  0  0  0  0  0
  189.5780  176.9540  140.2570 C   0  0  0  0  0  0  0  0  0  0  0  0
  190.2730  176.0410  139.2770 C   0  0  0  0  0  2  0  0  0  0  0  0
  188.4980  179.6020  138.0890 O   0  0  0  0  0  0  0  0  0  0  0  0
  190.0230  177.9230  137.5960 N   0  0  0  0  0  2  0  0  0  0  0  0
  190.6690  176.7190  138.0020 C   0  0  0  0  0  0  0  0  0  0  0  0
  190.3610  177.2060  142.6390 C   0  0  0  0  0  0  0  0  0  0  0  0
  191.0960  178.1850  142.3380 O   0  0  0  0  0  0  0  0  0  0  0  0
  189.5850  176.5460  141.6290 N   0  0  0  0  0  2  0  0  0  0  0  0
  192.0110  175.0830  143.7490 O   0  0  0  0  0  1  0  0  0  0  0  0
  189.7980  177.4230  146.4310 C   0  0  2  0  0  3  0  0  0  0  0  0
  190.3080  176.7460  144.0640 C   0  0  1  0  0  3  0  0  0  0  0  0
  191.6680  176.1970  144.5160 C   0  0  1  0  0  3  0  0  0  0  0  0
  191.1830  176.9510  146.8600 C   0  0  0  0  0  2  0  0  0  0  0  0
  191.6230  175.7840  145.9850 C   0  0  0  0  0  2  0  0  0  0  0  0
  189.8380  177.8810  144.9770 C   0  0  0  0  0  2  0  0  0  0  0  0
  189.3920  178.4830  147.2440 O   0  0  0  0  0  0  0  0  0  0  0  0
  187.7350  177.1290  148.0250 O   0  0  0  0  0  1  0  0  0  0  0  0
  188.8570  177.8770  148.3810 C   0  0  0  0  0  2  0  0  0  0  0  0
  188.0670  178.8140  140.7290 N   0  0  0  0  0  2  0  0  0  0  0  0
  186.7460  178.4230  140.9930 N   0  0  0  0  0  2  0  0  0  0  0  0
  184.5430  179.1660  143.9000 C   0  0  0  0  0  3  0  0  0  0  0  0
  186.2900  177.6520  144.6220 C   0  0  0  0  0  3  0  0  0  0  0  0
  185.0790  179.1700  142.6090 C   0  0  0  0  0  3  0  0  0  0  0  0
  184.4760  178.4020  146.5230 Cl  0  0  0  0  0  0  0  0  0  0  0  0
  186.8250  177.6540  143.3310 C   0  0  0  0  0  3  0  0  0  0  0  0
  186.2210  178.4150  142.3200 C   0  0  0  0  0  0  0  0  0  0  0  0
  185.1480  178.4060  144.9060 C   0  0  0  0  0  0  0  0  0  0  0  0
  1  3  1  0  0  0  0
  2  8  2  0  0  0  0
  3  4  2  0  0  0  0
  3 22  1  0  0  0  0
  4 11  1  0  0  0  0
  5  4  1  0  0  0  0
  6  1  2  0  0  0  0
  7  8  1  0  0  0  0
  7  1  1  0  0  0  0
  8  5  1  0  0  0  0
 10  9  2  0  0  0  0
 11  9  1  0  0  0  0
 13 16  1  0  0  0  0
 13 19  1  1  0  0  0
 14  9  1  6  0  0  0
 14 15  1  0  0  0  0
 14 18  1  0  0  0  0
 15 12  1  6  0  0  0
 15 17  1  0  0  0  0
 17 16  1  0  0  0  0
 18 13  1  0  0  0  0
 19 21  1  0  0  0  0
 20 21  1  0  0  0  0
 22 23  1  0  0  0  0
 23 29  1  0  0  0  0
 24 30  1  0  0  0  0
 25 30  2  0  0  0  0
 26 24  2  0  0  0  0
 28 25  1  0  0  0  0
 29 26  1  0  0  0  0
 29 28  2  0  0  0  0
 30 27  1  0  0  0  0
M  END
>  <MODEL>
7

>  <REMARK>
 VINA RESULT:      -8.1      2.182      2.922
  Name = 
  7 active torsions:
  status: ('A' for Active; 'I' for Inactive)
    1  A    between atoms: N_4  and  N_10
    2  A    between atoms: N_4  and  C_18
    3  A    between atoms: C_5  and  C_15
    4  A    between atoms: C_9  and  O_11
    5  A    between atoms: N_10  and  C_12
    6  A    between atoms: O_11  and  C_24
    7  A    between atoms: C_19  and  N_22
                            x       y       z     vdW  Elec       q    Type
                         _______ _______ _______ _____ _____    ______ ____

>  <TORSDO>
F 7

$$$$
=
 OpenBabel10232408433D

 30 32  0  0  1  0  0  0  0  0999 V2000
  190.3800  177.5080  145.6440 C   0  0  0  0  0  0  0  0  0  0  0  0
  188.9500  178.2040  148.8860 O   0  0  0  0  0  0  0  0  0  0  0  0
  189.1530  177.2280  144.8760 C   0  0  0  0  0  0  0  0  0  0  0  0
  187.9500  177.2390  145.4990 C   0  0  0  0  0  0  0  0  0  0  0  0
  187.8310  177.2580  147.0020 C   0  0  0  0  0  2  0  0  0  0  0  0
  191.5060  177.4730  145.0810 O   0  0  0  0  0  0  0  0  0  0  0  0
  190.2970  177.8500  147.0260 N   0  0  0  0  0  2  0  0  0  0  0  0
  189.0370  177.8160  147.6920 C   0  0  0  0  0  0  0  0  0  0  0  0
  185.7860  178.2550  144.7010 C   0  0  0  0  0  0  0  0  0  0  0  0
  186.0080  179.3250  145.3280 O   0  0  0  0  0  0  0  0  0  0  0  0
  186.7250  177.1720  144.7590 N   0  0  0  0  0  2  0  0  0  0  0  0
  183.1510  179.0890  145.6060 O   0  0  0  0  0  1  0  0  0  0  0  0
  183.5780  178.0630  141.5640 C   0  0  2  0  0  3  0  0  0  0  0  0
  184.5320  178.1320  143.8900 C   0  0  1  0  0  3  0  0  0  0  0  0
  183.5240  179.2260  144.2680 C   0  0  1  0  0  3  0  0  0  0  0  0
  182.6350  179.2060  141.9210 C   0  0  0  0  0  2  0  0  0  0  0  0
  182.2720  179.1330  143.4000 C   0  0  0  0  0  2  0  0  0  0  0  0
  184.8530  178.1690  142.3940 C   0  0  0  0  0  2  0  0  0  0  0  0
  183.8970  178.1250  140.2070 O   0  0  0  0  0  0  0  0  0  0  0  0
  184.4320  180.0970  139.1990 O   0  0  0  0  0  1  0  0  0  0  0  0
  184.8580  179.1320  140.1120 C   0  0  0  0  0  2  0  0  0  0  0  0
  189.2870  176.9650  143.4720 N   0  0  0  0  0  0  0  0  0  0  0  0
  189.2080  177.9750  142.5030 N   0  0  0  0  0  0  0  0  0  0  0  0
  188.7300  178.0200  138.8120 C   0  0  0  0  0  3  0  0  0  0  0  0
  190.6400  176.6220  139.3260 C   0  0  0  0  0  3  0  0  0  0  0  0
  188.5450  178.2700  140.1750 C   0  0  0  0  0  3  0  0  0  0  0  0
  190.0090  176.8840  136.6810 Cl  0  0  0  0  0  0  0  0  0  0  0  0
  190.4560  176.8740  140.6890 C   0  0  0  0  0  3  0  0  0  0  0  0
  189.4070  177.6990  141.1180 C   0  0  0  0  0  0  0  0  0  0  0  0
  189.7780  177.1970  138.3880 C   0  0  0  0  0  0  0  0  0  0  0  0
  1  7  1  0  0  0  0
  3  4  2  0  0  0  0
  3  1  1  0  0  0  0
  4  5  1  0  0  0  0
  5  8  1  0  0  0  0
  6  1  2  0  0  0  0
  7  8  1  0  0  0  0
  8  2  2  0  0  0  0
  9 11  1  0  0  0  0
  9 10  2  0  0  0  0
 11  4  1  0  0  0  0
 13 19  1  6  0  0  0
 13 16  1  0  0  0  0
 13 18  1  0  0  0  0
 14 15  1  0  0  0  0
 14  9  1  1  0  0  0
 15 12  1  1  0  0  0
 16 17  1  0  0  0  0
 17 15  1  0  0  0  0
 18 14  1  0  0  0  0
 20 21  1  0  0  0  0
 21 19  1  0  0  0  0
 22  3  1  0  0  0  0
 23 22  2  0  0  0  0
 24 26  1  0  0  0  0
 25 28  2  0  0  0  0
 26 29  2  0  0  0  0
 27 30  1  0  0  0  0
 28 29  1  0  0  0  0
 29 23  1  0  0  0  0
 30 24  2  0  0  0  0
 30 25  1  0  0  0  0
M  END
>  <MODEL>
8

>  <REMARK>
 VINA RESULT:      -8.1      3.206      7.902
  Name = 
  7 active torsions:
  status: ('A' for Active; 'I' for Inactive)
    1  A    between atoms: N_4  and  N_10
    2  A    between atoms: N_4  and  C_18
    3  A    between atoms: C_5  and  C_15
    4  A    between atoms: C_9  and  O_11
    5  A    between atoms: N_10  and  C_12
    6  A    between atoms: O_11  and  C_24
    7  A    between atoms: C_19  and  N_22
                            x       y       z     vdW  Elec       q    Type
                         _______ _______ _______ _____ _____    ______ ____

>  <TORSDO>
F 7

$$$$
=
 OpenBabel10232408433D

 30 32  0  0  1  0  0  0  0  0999 V2000
  192.1800  176.7960  139.5110 C   0  0  0  0  0  0  0  0  0  0  0  0
  190.0040  175.3680  137.0080 O   0  0  0  0  0  0  0  0  0  0  0  0
  191.1790  177.4020  140.4070 C   0  0  0  0  0  0  0  0  0  0  0  0
  189.8640  177.3390  140.0900 C   0  0  0  0  0  0  0  0  0  0  0  0
  189.3930  176.9120  138.7220 C   0  0  0  0  0  2  0  0  0  0  0  0
  193.4080  176.8740  139.7810 O   0  0  0  0  0  0  0  0  0  0  0  0
  191.7620  176.0910  138.3440 N   0  0  0  0  0  2  0  0  0  0  0  0
  190.3830  176.0640  137.9860 C   0  0  0  0  0  0  0  0  0  0  0  0
  187.6720  178.4570  140.6370 C   0  0  0  0  0  0  0  0  0  0  0  0
  187.4920  178.7880  139.4340 O   0  0  0  0  0  0  0  0  0  0  0  0
  188.8510  177.7350  141.0220 N   0  0  0  0  0  2  0  0  0  0  0  0
  185.0480  179.5390  140.0030 O   0  0  0  0  0  1  0  0  0  0  0  0
  185.7460  178.3400  143.9580 C   0  0  2  0  0  3  0  0  0  0  0  0
  186.6360  178.8220  141.6560 C   0  0  1  0  0  3  0  0  0  0  0  0
  185.2210  178.6680  141.0800 C   0  0  1  0  0  3  0  0  0  0  0  0
  184.3600  178.1070  143.3690 C   0  0  0  0  0  2  0  0  0  0  0  0
  184.1680  178.9860  142.1390 C   0  0  0  0  0  2  0  0  0  0  0  0
  186.8100  177.9840  142.9250 C   0  0  0  0  0  2  0  0  0  0  0  0
  185.9130  177.5440  145.0930 O   0  0  0  0  0  0  0  0  0  0  0  0
  184.5870  178.4150  146.7280 O   0  0  0  0  0  1  0  0  0  0  0  0
  185.8630  178.4360  146.1650 C   0  0  0  0  0  2  0  0  0  0  0  0
  191.6490  178.0340  141.6070 N   0  0  0  0  0  2  0  0  0  0  0  0
  192.0230  177.3080  142.7460 N   0  0  0  0  0  2  0  0  0  0  0  0
  190.8960  176.6040  146.2230 C   0  0  0  0  0  3  0  0  0  0  0  0
  189.5200  178.3750  145.3090 C   0  0  0  0  0  3  0  0  0  0  0  0
  191.6070  176.5350  145.0220 C   0  0  0  0  0  3  0  0  0  0  0  0
  188.9630  177.6110  147.8720 Cl  0  0  0  0  0  0  0  0  0  0  0  0
  190.2320  178.3070  144.1080 C   0  0  0  0  0  3  0  0  0  0  0  0
  191.2780  177.3860  143.9600 C   0  0  0  0  0  0  0  0  0  0  0  0
  189.8540  177.5250  146.3670 C   0  0  0  0  0  0  0  0  0  0  0  0
  1  6  2  0  0  0  0
  1  3  1  0  0  0  0
  2  8  2  0  0  0  0
  3 22  1  0  0  0  0
  4  3  2  0  0  0  0
  4 11  1  0  0  0  0
  5  4  1  0  0  0  0
  7  1  1  0  0  0  0
  8  7  1  0  0  0  0
  8  5  1  0  0  0  0
  9 11  1  0  0  0  0
 10  9  2  0  0  0  0
 13 19  1  1  0  0  0
 14  9  1  6  0  0  0
 14 18  1  0  0  0  0
 15 12  1  6  0  0  0
 15 14  1  0  0  0  0
 15 17  1  0  0  0  0
 16 13  1  0  0  0  0
 17 16  1  0  0  0  0
 18 13  1  0  0  0  0
 19 21  1  0  0  0  0
 21 20  1  0  0  0  0
 22 23  1  0  0  0  0
 23 29  1  0  0  0  0
 24 30  1  0  0  0  0
 25 30  2  0  0  0  0
 26 24  2  0  0  0  0
 28 25  1  0  0  0  0
 29 28  2  0  0  0  0
 29 26  1  0  0  0  0
 30 27  1  0  0  0  0
M  END
>  <MODEL>
9

>  <REMARK>
 VINA RESULT:      -8.0      3.177      6.185
  Name = 
  7 active torsions:
  status: ('A' for Active; 'I' for Inactive)
    1  A    between atoms: N_4  and  N_10
    2  A    between atoms: N_4  and  C_18
    3  A    between atoms: C_5  and  C_15
    4  A    between atoms: C_9  and  O_11
    5  A    between atoms: N_10  and  C_12
    6  A    between atoms: O_11  and  C_24
    7  A    between atoms: C_19  and  N_22
                            x       y       z     vdW  Elec       q    Type
                         _______ _______ _______ _____ _____    ______ ____

>  <TORSDO>
F 7

$$$$
