=
 OpenBabel10232410093D

 62 65  0  0  1  0  0  0  0  0999 V2000
  190.4680  174.5400  135.6000 C   0  0  0  0  0  0  0  0  0  0  0  0
  190.4240  174.6880  134.3460 O   0  0  0  0  0  0  0  0  0  0  0  0
  189.4440  173.7840  136.2540 N   0  0  0  0  0  2  0  0  0  0  0  0
  184.6070  173.6570  135.2290 N   0  0  0  0  0  2  0  0  0  0  0  0
  186.2680  172.1190  135.9730 N   0  0  0  0  0  0  0  0  0  0  0  0
  187.6900  172.0270  136.2250 C   0  0  0  0  0  2  0  0  0  0  0  0
  185.9440  173.3160  135.6170 C   0  0  0  0  0  0  0  0  0  0  0  0
  188.2580  173.2640  135.5610 C   0  0  1  0  0  3  0  0  0  0  0  0
  187.0830  174.2570  135.4790 C   0  0  2  0  0  3  0  0  0  0  0  0
  187.1100  177.5090  137.5660 C   0  0  0  0  0  1  0  0  0  0  0  0
  187.2180  176.6000  136.3920 C   0  0  0  0  0  0  0  0  0  0  0  0
  187.3950  177.0820  135.2360 O   0  0  0  0  0  0  0  0  0  0  0  0
  187.0800  175.1890  136.5970 N   0  0  0  0  0  2  0  0  0  0  0  0
  183.6630  172.6130  134.8430 C   0  0  0  0  0  2  0  0  0  0  0  0
  182.4600  172.5300  135.7880 C   0  0  1  0  0  3  0  0  0  0  0  0
  181.4480  173.4530  135.3170 N   0  0  0  0  0  0  0  0  0  0  0  0
  180.8380  174.3040  136.0720 C   0  0  0  0  0  3  0  0  0  0  0  0
  181.1250  174.4740  137.5410 C   0  0  0  0  0  2  0  0  0  0  0  0
  184.2370  178.5000  141.0460 C   0  0  0  0  0  3  0  0  0  0  0  0
  183.9300  179.2640  138.7160 C   0  0  0  0  0  2  0  0  0  0  0  0
  182.1090  175.5260  137.7790 N   0  0  0  0  0  0  0  0  0  0  0  0
  182.5420  175.7430  139.1730 C   0  0  0  0  0  2  0  0  0  0  0  0
  183.1490  177.5770  137.0170 C   0  0  0  0  0  3  0  0  0  0  0  0
  184.6200  179.3130  140.0460 C   0  0  0  0  0  3  0  0  0  0  0  0
  183.6960  177.7950  138.3970 C   0  0  2  0  0  3  0  0  0  0  0  0
  182.7150  177.2340  139.4350 C   0  0  2  0  0  3  0  0  0  0  0  0
  183.0740  177.5450  140.8930 C   0  0  0  0  0  2  0  0  0  0  0  0
  182.4160  176.4870  136.7500 C   0  0  0  0  0  3  0  0  0  0  0  0
  181.9040  171.1760  135.8110 N   0  0  0  0  0  2  0  0  0  0  0  0
  183.0400  170.2580  135.6920 C   0  0  0  0  0  2  0  0  0  0  0  0
  182.5710  168.9620  135.0690 C   0  0  0  0  0  2  0  0  0  0  0  0
  181.0420  168.8980  135.0680 C   0  0  0  0  0  1  0  0  0  0  0  0
  191.6690  175.0620  136.3600 C   0  0  2  0  0  3  0  0  0  0  0  0
  192.4360  172.7030  136.0350 C   0  0  0  0  0  1  0  0  0  0  0  0
  192.8840  174.1500  136.2460 C   0  0  0  0  0  2  0  0  0  0  0  0
  191.3330  175.2420  137.8290 C   0  0  0  0  0  2  0  0  0  0  0  0
  190.7960  177.3300  139.1410 C   0  0  0  0  0  0  0  0  0  0  0  0
  190.5840  176.4700  138.0250 N   0  0  0  0  0  2  0  0  0  0  0  0
  189.9520  178.2340  139.3860 O   0  0  0  0  0  0  0  0  0  0  0  0
  193.4660  177.1430  139.2950 S   0  0  0  0  0  0  0  0  0  0  0  0
  191.9860  177.1960  139.9890 C   0  0  0  0  0  0  0  0  0  0  0  0
  191.8810  177.0060  141.4460 C   0  0  0  0  0  3  0  0  0  0  0  0
  190.9440  177.5780  142.1650 C   0  0  0  0  0  0  0  0  0  0  0  0
  190.0230  178.1860  142.8510 C   0  0  0  0  0  0  0  0  0  0  0  0
  190.3560  179.2050  143.7480 O   0  0  0  0  0  0  0  0  0  0  0  0
  191.2380  178.9740  144.7660 O   0  0  0  0  0  0  0  0  0  0  0  0
  191.8010  176.1030  146.9820 C   0  0  0  0  0  0  0  0  0  0  0  0
  191.9960  177.1650  146.0440 N   0  0  0  0  0  0  0  0  0  0  0  0
  192.8070  175.5550  147.5260 O   0  0  0  0  0  0  0  0  0  0  0  0
  190.4180  175.6550  147.3580 C   0  0  0  0  0  2  0  0  0  0  0  0
  189.6580  177.7090  146.1730 C   0  0  0  0  0  3  0  0  0  0  0  0
  191.0100  177.9230  145.6520 C   0  0  0  0  0  0  0  0  0  0  0  0
  189.3720  176.7030  146.9990 C   0  0  0  0  0  0  0  0  0  0  0  0
  188.0680  176.6170  147.4960 O   0  0  0  0  0  0  0  0  0  0  0  0
  188.3540  178.6710  148.6370 C   0  0  0  0  0  1  0  0  0  0  0  0
  187.3390  177.7140  148.0350 C   0  0  1  0  0  3  0  0  0  0  0  0
  186.5810  178.4170  146.8940 C   0  0  0  0  0  3  0  0  0  0  0  0
  185.9110  177.4660  146.1040 O   0  0  0  0  0  1  0  0  0  0  0  0
  185.6660  179.3240  147.4370 O   0  0  0  0  0  1  0  0  0  0  0  0
  188.5770  177.8290  142.6650 C   0  0  0  0  0  2  0  0  0  0  0  0
  188.4910  176.5540  142.0900 O   0  0  0  0  0  0  0  0  0  0  0  0
  188.5190  175.7120  143.1190 O   0  0  0  0  0  1  0  0  0  0  0  0
  1  3  1  0  0  0  0
  1 33  1  0  0  0  0
  2  1  2  0  0  0  0
  4  7  1  0  0  0  0
  5  6  1  0  0  0  0
  7  5  2  0  0  0  0
  8  6  1  0  0  0  0
  8  3  1  1  0  0  0
  9  8  1  0  0  0  0
  9  7  1  0  0  0  0
  9 13  1  1  0  0  0
 11 13  1  0  0  0  0
 11 10  1  0  0  0  0
 12 11  2  0  0  0  0
 14  4  1  0  0  0  0
 15 14  1  6  0  0  0
 15 29  1  0  0  0  0
 16 15  1  0  0  0  0
 16 17  2  0  0  0  0
 17 18  1  0  0  0  0
 18 21  1  0  0  0  0
 20 24  1  0  0  0  0
 21 22  1  0  0  0  0
 24 19  2  0  0  0  0
 25 23  1  6  0  0  0
 25 20  1  0  0  0  0
 25 26  1  0  0  0  0
 26 22  1  1  0  0  0
 26 27  1  0  0  0  0
 27 19  1  0  0  0  0
 28 23  2  0  0  0  0
 28 21  1  0  0  0  0
 30 29  1  0  0  0  0
 31 30  1  0  0  0  0
 32 31  1  0  0  0  0
 33 35  1  1  0  0  0
 33 36  1  0  0  0  0
 34 35  1  0  0  0  0
 36 38  1  0  0  0  0
 37 39  2  0  0  0  0
 37 41  1  0  0  0  0
 38 37  1  0  0  0  0
 40 41  2  0  0  0  0
 41 42  1  0  0  0  0
 42 43  2  0  0  0  0
 43 44  2  0  0  0  0
 44 45  1  0  0  0  0
 45 46  1  0  0  0  0
 46 52  1  0  0  0  0
 47 50  1  0  0  0  0
 47 49  2  0  0  0  0
 48 47  1  0  0  0  0
 51 53  2  0  0  0  0
 52 48  2  0  0  0  0
 52 51  1  0  0  0  0
 53 50  1  0  0  0  0
 53 54  1  0  0  0  0
 54 56  1  0  0  0  0
 56 55  1  6  0  0  0
 57 59  1  0  0  0  0
 57 56  1  0  0  0  0
 58 57  1  0  0  0  0
 60 44  1  0  0  0  0
 61 60  1  0  0  0  0
 61 62  1  0  0  0  0
M  END
>  <MODEL>
1

>  <REMARK>
 VINA RESULT:      -6.0      0.000      0.000
  Name = 
  24 active torsions:
  status: ('A' for Active; 'I' for Inactive)
    1  A    between atoms: C_1  and  C_9
    2  A    between atoms: C_1  and  N_35
    3  A    between atoms: C_1  and  N_61
    4  A    between atoms: C_4  and  O_34
    5  A    between atoms: C_4  and  C_58
    6  A    between atoms: N_5  and  C_9
    7  A    between atoms: C_6  and  C_10
    8  A    between atoms: C_6  and  C_27
    9  A    between atoms: C_6  and  C_59
   10  A    between atoms: C_8  and  C_24
   11  A    between atoms: C_10  and  N_45
   12  A    between atoms: C_14  and  C_39
   13  A    between atoms: O_15  and  O_46
   14  A    between atoms: O_15  and  C_58
   15  A    between atoms: C_18  and  C_52
   16  A    between atoms: O_21  and  C_52
   17  A    between atoms: O_21  and  C_56
   18  A    between atoms: C_24  and  N_35
   19  A    between atoms: C_25  and  N_40
   20  A    between atoms: N_26  and  C_33
   21  A    between atoms: C_30  and  C_39
   22  A    between atoms: C_33  and  C_62
   23  A    between atoms: N_41  and  C_48
   24  A    between atoms: O_46  and  C_55
                            x       y       z     vdW  Elec       q    Type
                         _______ _______ _______ _____ _____    ______ ____

>  <TORSDO>
F 24

$$$$
=
 OpenBabel10232410093D

 62 65  0  0  1  0  0  0  0  0999 V2000
  188.0910  177.3880  144.0430 C   0  0  0  0  0  0  0  0  0  0  0  0
  187.4700  176.2880  144.0060 O   0  0  0  0  0  0  0  0  0  0  0  0
  188.1360  178.2090  142.8720 N   0  0  0  0  0  2  0  0  0  0  0  0
  188.5120  177.1370  138.0580 N   0  0  0  0  0  2  0  0  0  0  0  0
  187.2100  178.5980  139.4180 N   0  0  0  0  0  0  0  0  0  0  0  0
  186.9650  178.9310  140.8050 C   0  0  0  0  0  2  0  0  0  0  0  0
  188.1350  177.7040  139.3200 C   0  0  0  0  0  0  0  0  0  0  0  0
  187.6000  177.7890  141.5710 C   0  0  1  0  0  3  0  0  0  0  0  0
  188.6500  177.1920  140.6140 C   0  0  2  0  0  3  0  0  0  0  0  0
  192.4850  177.6610  140.6750 C   0  0  0  0  0  1  0  0  0  0  0  0
  191.1580  177.0110  140.4900 C   0  0  0  0  0  0  0  0  0  0  0  0
  191.0890  175.8520  139.9860 O   0  0  0  0  0  0  0  0  0  0  0  0
  189.9780  177.7360  140.8560 N   0  0  0  0  0  2  0  0  0  0  0  0
  187.6230  177.2460  136.9070 C   0  0  0  0  0  2  0  0  0  0  0  0
  188.2180  176.6170  135.6430 C   0  0  1  0  0  3  0  0  0  0  0  0
  188.6080  175.2570  135.9530 N   0  0  0  0  0  0  0  0  0  0  0  0
  189.7700  174.7600  135.6930 C   0  0  0  0  0  3  0  0  0  0  0  0
  190.8920  175.5440  135.0620 C   0  0  0  0  0  2  0  0  0  0  0  0
  195.5320  172.0260  137.1280 C   0  0  0  0  0  3  0  0  0  0  0  0
  195.1070  174.0110  138.5370 C   0  0  0  0  0  2  0  0  0  0  0  0
  192.1620  175.3070  135.7410 N   0  0  0  0  0  0  0  0  0  0  0  0
  192.8470  174.0280  135.4670 C   0  0  0  0  0  2  0  0  0  0  0  0
  193.6220  175.8190  137.6060 C   0  0  0  0  0  3  0  0  0  0  0  0
  195.9760  172.8860  138.0610 C   0  0  0  0  0  3  0  0  0  0  0  0
  194.4120  174.5790  137.3090 C   0  0  2  0  0  3  0  0  0  0  0  0
  193.4810  173.4970  136.7460 C   0  0  2  0  0  3  0  0  0  0  0  0
  194.1330  172.1210  136.5600 C   0  0  0  0  0  2  0  0  0  0  0  0
  192.5730  176.1460  136.8370 C   0  0  0  0  0  3  0  0  0  0  0  0
  187.2400  176.6020  134.5540 N   0  0  0  0  0  2  0  0  0  0  0  0
  186.3070  175.5120  134.8480 C   0  0  0  0  0  2  0  0  0  0  0  0
  184.9300  175.8840  134.3460 C   0  0  0  0  0  2  0  0  0  0  0  0
  184.7480  177.4030  134.3770 C   0  0  0  0  0  1  0  0  0  0  0  0
  188.6650  177.8630  145.3610 C   0  0  2  0  0  3  0  0  0  0  0  0
  190.3380  176.9550  146.9840 C   0  0  0  0  0  1  0  0  0  0  0  0
  190.1190  177.4550  145.5560 C   0  0  0  0  0  2  0  0  0  0  0  0
  187.8490  177.3240  146.5230 C   0  0  0  0  0  2  0  0  0  0  0  0
  186.2920  179.2180  147.1210 C   0  0  0  0  0  0  0  0  0  0  0  0
  187.4350  178.4120  147.3910 N   0  0  0  0  0  2  0  0  0  0  0  0
  186.1350  180.2920  147.7630 O   0  0  0  0  0  0  0  0  0  0  0  0
  184.6060  177.3270  146.2440 S   0  0  0  0  0  0  0  0  0  0  0  0
  185.2890  178.8080  146.1300 C   0  0  0  0  0  0  0  0  0  0  0  0
  184.9520  179.6560  144.9740 C   0  0  0  0  0  3  0  0  0  0  0  0
  184.0260  179.3260  144.1040 C   0  0  0  0  0  0  0  0  0  0  0  0
  183.1260  178.9530  143.2450 C   0  0  0  0  0  0  0  0  0  0  0  0
  183.4880  178.5930  141.9430 O   0  0  0  0  0  0  0  0  0  0  0  0
  183.4970  179.5220  140.9410 O   0  0  0  0  0  0  0  0  0  0  0  0
  181.6140  180.0910  137.8430 C   0  0  0  0  0  0  0  0  0  0  0  0
  182.3380  180.2940  139.0590 N   0  0  0  0  0  0  0  0  0  0  0  0
  181.4390  181.0630  137.0480 O   0  0  0  0  0  0  0  0  0  0  0  0
  181.0890  178.7310  137.4790 C   0  0  0  0  0  2  0  0  0  0  0  0
  182.5060  177.9150  139.3570 C   0  0  0  0  0  3  0  0  0  0  0  0
  182.7600  179.2930  139.7810 C   0  0  0  0  0  0  0  0  0  0  0  0
  181.7820  177.6320  138.2740 C   0  0  0  0  0  0  0  0  0  0  0  0
  181.6480  176.2880  137.9110 O   0  0  0  0  0  0  0  0  0  0  0  0
  180.7550  175.7220  140.0280 C   0  0  0  0  0  1  0  0  0  0  0  0
  181.5460  175.2120  138.8360 C   0  0  1  0  0  3  0  0  0  0  0  0
  180.7840  174.0520  138.1690 C   0  0  0  0  0  3  0  0  0  0  0  0
  179.9890  173.3890  139.1190 O   0  0  0  0  0  1  0  0  0  0  0  0
  179.9850  174.5570  137.1380 O   0  0  0  0  0  1  0  0  0  0  0  0
  181.6820  178.8650  143.6460 C   0  0  0  0  0  2  0  0  0  0  0  0
  180.9000  178.6780  142.4980 O   0  0  0  0  0  0  0  0  0  0  0  0
  180.3220  179.8560  142.2830 O   0  0  0  0  0  1  0  0  0  0  0  0
  1 33  1  0  0  0  0
  2  1  2  0  0  0  0
  3  1  1  0  0  0  0
  4  7  1  0  0  0  0
  5  6  1  0  0  0  0
  6  8  1  0  0  0  0
  7  5  2  0  0  0  0
  7  9  1  0  0  0  0
  8  3  1  1  0  0  0
  9 13  1  1  0  0  0
  9  8  1  0  0  0  0
 11 10  1  0  0  0  0
 11 13  1  0  0  0  0
 12 11  2  0  0  0  0
 14  4  1  0  0  0  0
 15 16  1  0  0  0  0
 15 14  1  1  0  0  0
 17 16  2  0  0  0  0
 18 17  1  0  0  0  0
 18 21  1  0  0  0  0
 19 24  2  0  0  0  0
 21 28  1  0  0  0  0
 22 21  1  0  0  0  0
 24 20  1  0  0  0  0
 25 23  1  1  0  0  0
 25 20  1  0  0  0  0
 26 22  1  6  0  0  0
 26 25  1  0  0  0  0
 27 26  1  0  0  0  0
 27 19  1  0  0  0  0
 28 23  2  0  0  0  0
 29 30  1  0  0  0  0
 29 15  1  0  0  0  0
 31 32  1  0  0  0  0
 31 30  1  0  0  0  0
 33 35  1  1  0  0  0
 33 36  1  0  0  0  0
 35 34  1  0  0  0  0
 36 38  1  0  0  0  0
 37 38  1  0  0  0  0
 37 39  2  0  0  0  0
 41 40  2  0  0  0  0
 41 37  1  0  0  0  0
 42 41  1  0  0  0  0
 43 42  2  0  0  0  0
 44 60  1  0  0  0  0
 44 43  2  0  0  0  0
 45 44  1  0  0  0  0
 46 45  1  0  0  0  0
 47 48  1  0  0  0  0
 48 52  2  0  0  0  0
 49 47  2  0  0  0  0
 50 47  1  0  0  0  0
 50 53  1  0  0  0  0
 51 52  1  0  0  0  0
 52 46  1  0  0  0  0
 53 51  2  0  0  0  0
 54 53  1  0  0  0  0
 54 56  1  0  0  0  0
 56 55  1  1  0  0  0
 57 56  1  0  0  0  0
 57 58  1  0  0  0  0
 59 57  1  0  0  0  0
 61 60  1  0  0  0  0
 62 61  1  0  0  0  0
M  END
>  <MODEL>
2

>  <REMARK>
 VINA RESULT:      -5.8      3.647      9.846
  Name = 
  24 active torsions:
  status: ('A' for Active; 'I' for Inactive)
    1  A    between atoms: C_1  and  C_9
    2  A    between atoms: C_1  and  N_35
    3  A    between atoms: C_1  and  N_61
    4  A    between atoms: C_4  and  O_34
    5  A    between atoms: C_4  and  C_58
    6  A    between atoms: N_5  and  C_9
    7  A    between atoms: C_6  and  C_10
    8  A    between atoms: C_6  and  C_27
    9  A    between atoms: C_6  and  C_59
   10  A    between atoms: C_8  and  C_24
   11  A    between atoms: C_10  and  N_45
   12  A    between atoms: C_14  and  C_39
   13  A    between atoms: O_15  and  O_46
   14  A    between atoms: O_15  and  C_58
   15  A    between atoms: C_18  and  C_52
   16  A    between atoms: O_21  and  C_52
   17  A    between atoms: O_21  and  C_56
   18  A    between atoms: C_24  and  N_35
   19  A    between atoms: C_25  and  N_40
   20  A    between atoms: N_26  and  C_33
   21  A    between atoms: C_30  and  C_39
   22  A    between atoms: C_33  and  C_62
   23  A    between atoms: N_41  and  C_48
   24  A    between atoms: O_46  and  C_55
                            x       y       z     vdW  Elec       q    Type
                         _______ _______ _______ _____ _____    ______ ____

>  <TORSDO>
F 24

$$$$
=
 OpenBabel10232410093D

 62 65  0  0  1  0  0  0  0  0999 V2000
  188.3380  177.4850  144.2250 C   0  0  0  0  0  0  0  0  0  0  0  0
  187.5890  176.4780  144.0820 O   0  0  0  0  0  0  0  0  0  0  0  0
  188.7360  178.2340  143.0720 N   0  0  0  0  0  2  0  0  0  0  0  0
  189.8160  176.1900  138.7000 N   0  0  0  0  0  2  0  0  0  0  0  0
  189.0020  178.2870  139.4850 N   0  0  0  0  0  0  0  0  0  0  0  0
  188.5840  178.9530  140.7000 C   0  0  0  0  0  2  0  0  0  0  0  0
  189.4210  177.0930  139.7390 C   0  0  0  0  0  0  0  0  0  0  0  0
  188.4230  177.8240  141.6970 C   0  0  1  0  0  3  0  0  0  0  0  0
  189.3020  176.6790  141.1590 C   0  0  2  0  0  3  0  0  0  0  0  0
  192.3600  175.7000  143.3090 C   0  0  0  0  0  1  0  0  0  0  0  0
  190.9650  175.7190  142.7880 C   0  0  0  0  0  0  0  0  0  0  0  0
  190.1200  174.8820  143.2180 O   0  0  0  0  0  0  0  0  0  0  0  0
  190.6210  176.6710  141.7740 N   0  0  0  0  0  2  0  0  0  0  0  0
  189.3980  176.4240  137.3220 C   0  0  0  0  0  2  0  0  0  0  0  0
  190.2690  175.6760  136.3080 C   0  0  1  0  0  3  0  0  0  0  0  0
  190.8940  174.5580  136.9840 N   0  0  0  0  0  0  0  0  0  0  0  0
  192.1070  174.1710  136.7720 C   0  0  0  0  0  3  0  0  0  0  0  0
  193.0470  174.8570  135.8150 C   0  0  0  0  0  2  0  0  0  0  0  0
  197.1260  170.4260  137.1980 C   0  0  0  0  0  3  0  0  0  0  0  0
  198.1140  172.6910  137.1680 C   0  0  0  0  0  2  0  0  0  0  0  0
  194.3760  174.2540  135.8420 N   0  0  0  0  0  0  0  0  0  0  0  0
  194.4550  172.8030  136.1040 C   0  0  0  0  0  2  0  0  0  0  0  0
  196.7620  174.5510  136.1420 C   0  0  0  0  0  3  0  0  0  0  0  0
  198.2250  171.1960  137.1210 C   0  0  0  0  0  3  0  0  0  0  0  0
  196.9100  173.0690  136.3180 C   0  0  2  0  0  3  0  0  0  0  0  0
  195.6550  172.5020  136.9930 C   0  0  2  0  0  3  0  0  0  0  0  0
  195.7490  171.0220  137.3870 C   0  0  0  0  0  2  0  0  0  0  0  0
  195.5540  175.0810  135.9020 C   0  0  0  0  0  3  0  0  0  0  0  0
  189.4630  175.1750  135.1930 N   0  0  0  0  0  2  0  0  0  0  0  0
  188.0860  175.6040  135.4490 C   0  0  0  0  0  2  0  0  0  0  0  0
  187.1320  174.5230  134.9930 C   0  0  0  0  0  2  0  0  0  0  0  0
  187.5210  173.1780  135.6130 C   0  0  0  0  0  1  0  0  0  0  0  0
  188.6920  177.9460  145.6230 C   0  0  2  0  0  3  0  0  0  0  0  0
  190.0250  176.4600  147.1300 C   0  0  0  0  0  1  0  0  0  0  0  0
  190.0960  177.5340  146.0440 C   0  0  0  0  0  2  0  0  0  0  0  0
  187.7010  177.3950  146.6330 C   0  0  0  0  0  2  0  0  0  0  0  0
  186.0680  179.2250  147.2280 C   0  0  0  0  0  0  0  0  0  0  0  0
  187.2350  178.4560  147.5070 N   0  0  0  0  0  2  0  0  0  0  0  0
  185.8630  180.2840  147.8810 O   0  0  0  0  0  0  0  0  0  0  0  0
  184.2630  177.4040  146.4430 S   0  0  0  0  0  0  0  0  0  0  0  0
  185.0960  178.7930  146.2160 C   0  0  0  0  0  0  0  0  0  0  0  0
  184.9220  179.5240  144.9490 C   0  0  0  0  0  3  0  0  0  0  0  0
  183.9060  179.3090  144.1460 C   0  0  0  0  0  0  0  0  0  0  0  0
  182.9060  179.0480  143.3590 C   0  0  0  0  0  0  0  0  0  0  0  0
  183.1130  178.4290  142.1230 O   0  0  0  0  0  0  0  0  0  0  0  0
  184.3110  178.5480  141.4770 O   0  0  0  0  0  0  0  0  0  0  0  0
  185.4960  178.3770  138.0070 C   0  0  0  0  0  0  0  0  0  0  0  0
  185.3520  178.7240  139.3870 N   0  0  0  0  0  0  0  0  0  0  0  0
  186.5610  178.6830  137.3910 O   0  0  0  0  0  0  0  0  0  0  0  0
  184.4150  177.6200  137.2890 C   0  0  0  0  0  2  0  0  0  0  0  0
  183.4480  177.2670  139.5560 C   0  0  0  0  0  3  0  0  0  0  0  0
  184.4030  178.2200  140.1250 C   0  0  0  0  0  0  0  0  0  0  0  0
  183.4650  176.9370  138.2650 C   0  0  0  0  0  0  0  0  0  0  0  0
  182.5570  175.9690  137.8260 O   0  0  0  0  0  0  0  0  0  0  0  0
  181.6270  173.8940  137.1720 C   0  0  0  0  0  1  0  0  0  0  0  0
  182.7850  174.5660  137.8880 C   0  0  1  0  0  3  0  0  0  0  0  0
  184.1010  174.2420  137.1560 C   0  0  0  0  0  3  0  0  0  0  0  0
  184.8900  173.3850  137.9420 O   0  0  0  0  0  1  0  0  0  0  0  0
  183.8110  173.6410  135.9280 O   0  0  0  0  0  1  0  0  0  0  0  0
  181.5020  179.3730  143.7800 C   0  0  0  0  0  2  0  0  0  0  0  0
  180.6470  179.2100  142.6830 O   0  0  0  0  0  0  0  0  0  0  0  0
  180.4680  180.4370  142.2040 O   0  0  0  0  0  1  0  0  0  0  0  0
  1 33  1  0  0  0  0
  2  1  2  0  0  0  0
  3  1  1  0  0  0  0
  4  7  1  0  0  0  0
  5  7  2  0  0  0  0
  5  6  1  0  0  0  0
  6  8  1  0  0  0  0
  7  9  1  0  0  0  0
  8  3  1  1  0  0  0
  9  8  1  0  0  0  0
  9 13  1  1  0  0  0
 11 12  2  0  0  0  0
 11 10  1  0  0  0  0
 13 11  1  0  0  0  0
 14  4  1  0  0  0  0
 15 16  1  0  0  0  0
 15 14  1  1  0  0  0
 17 16  2  0  0  0  0
 18 21  1  0  0  0  0
 18 17  1  0  0  0  0
 19 27  1  0  0  0  0
 21 28  1  0  0  0  0
 21 22  1  0  0  0  0
 24 20  1  0  0  0  0
 24 19  2  0  0  0  0
 25 23  1  1  0  0  0
 25 26  1  0  0  0  0
 25 20  1  0  0  0  0
 26 22  1  6  0  0  0
 26 27  1  0  0  0  0
 28 23  2  0  0  0  0
 29 30  1  0  0  0  0
 29 15  1  0  0  0  0
 31 30  1  0  0  0  0
 31 32  1  0  0  0  0
 33 35  1  1  0  0  0
 33 36  1  0  0  0  0
 35 34  1  0  0  0  0
 36 38  1  0  0  0  0
 37 38  1  0  0  0  0
 37 39  2  0  0  0  0
 41 40  2  0  0  0  0
 41 37  1  0  0  0  0
 42 41  1  0  0  0  0
 43 42  2  0  0  0  0
 44 60  1  0  0  0  0
 44 43  2  0  0  0  0
 45 44  1  0  0  0  0
 46 45  1  0  0  0  0
 47 48  1  0  0  0  0
 48 52  2  0  0  0  0
 49 47  2  0  0  0  0
 50 47  1  0  0  0  0
 50 53  1  0  0  0  0
 51 52  1  0  0  0  0
 52 46  1  0  0  0  0
 53 51  2  0  0  0  0
 54 56  1  0  0  0  0
 54 53  1  0  0  0  0
 56 55  1  6  0  0  0
 57 56  1  0  0  0  0
 57 58  1  0  0  0  0
 59 57  1  0  0  0  0
 61 60  1  0  0  0  0
 62 61  1  0  0  0  0
M  END
>  <MODEL>
3

>  <REMARK>
 VINA RESULT:      -5.7      3.525     10.375
  Name = 
  24 active torsions:
  status: ('A' for Active; 'I' for Inactive)
    1  A    between atoms: C_1  and  C_9
    2  A    between atoms: C_1  and  N_35
    3  A    between atoms: C_1  and  N_61
    4  A    between atoms: C_4  and  O_34
    5  A    between atoms: C_4  and  C_58
    6  A    between atoms: N_5  and  C_9
    7  A    between atoms: C_6  and  C_10
    8  A    between atoms: C_6  and  C_27
    9  A    between atoms: C_6  and  C_59
   10  A    between atoms: C_8  and  C_24
   11  A    between atoms: C_10  and  N_45
   12  A    between atoms: C_14  and  C_39
   13  A    between atoms: O_15  and  O_46
   14  A    between atoms: O_15  and  C_58
   15  A    between atoms: C_18  and  C_52
   16  A    between atoms: O_21  and  C_52
   17  A    between atoms: O_21  and  C_56
   18  A    between atoms: C_24  and  N_35
   19  A    between atoms: C_25  and  N_40
   20  A    between atoms: N_26  and  C_33
   21  A    between atoms: C_30  and  C_39
   22  A    between atoms: C_33  and  C_62
   23  A    between atoms: N_41  and  C_48
   24  A    between atoms: O_46  and  C_55
                            x       y       z     vdW  Elec       q    Type
                         _______ _______ _______ _____ _____    ______ ____

>  <TORSDO>
F 24

$$$$
=
 OpenBabel10232410093D

 62 65  0  0  1  0  0  0  0  0999 V2000
  188.5690  177.1890  145.1920 C   0  0  0  0  0  0  0  0  0  0  0  0
  187.5820  176.5200  144.7750 O   0  0  0  0  0  0  0  0  0  0  0  0
  189.4620  177.7890  144.2470 N   0  0  0  0  0  2  0  0  0  0  0  0
  191.0240  175.9410  139.9330 N   0  0  0  0  0  2  0  0  0  0  0  0
  190.4660  178.0870  140.8060 N   0  0  0  0  0  0  0  0  0  0  0  0
  189.9370  178.7200  141.9940 C   0  0  0  0  0  2  0  0  0  0  0  0
  190.5970  176.8160  140.9850 C   0  0  0  0  0  0  0  0  0  0  0  0
  189.3680  177.5680  142.7980 C   0  0  1  0  0  3  0  0  0  0  0  0
  190.1130  176.3170  142.2960 C   0  0  2  0  0  3  0  0  0  0  0  0
  192.6100  174.3930  144.5320 C   0  0  0  0  0  1  0  0  0  0  0  0
  191.3740  174.7020  143.7590 C   0  0  0  0  0  0  0  0  0  0  0  0
  190.4730  173.8240  143.6350 O   0  0  0  0  0  0  0  0  0  0  0  0
  191.2530  175.9870  143.1400 N   0  0  0  0  0  2  0  0  0  0  0  0
  190.9500  176.3720  138.5410 C   0  0  0  0  0  2  0  0  0  0  0  0
  191.3500  175.2640  137.5620 C   0  0  1  0  0  3  0  0  0  0  0  0
  190.6630  175.4960  136.3080 N   0  0  0  0  0  0  0  0  0  0  0  0
  189.8680  174.6460  135.7510 C   0  0  0  0  0  3  0  0  0  0  0  0
  189.5220  173.3080  136.3500 C   0  0  0  0  0  2  0  0  0  0  0  0
  183.4010  172.8790  137.0770 C   0  0  0  0  0  3  0  0  0  0  0  0
  184.3880  170.9320  135.9180 C   0  0  0  0  0  2  0  0  0  0  0  0
  188.1790  172.8800  135.9720 N   0  0  0  0  0  0  0  0  0  0  0  0
  187.0430  173.5800  136.6040 C   0  0  0  0  0  2  0  0  0  0  0  0
  186.7530  171.1360  135.0790 C   0  0  0  0  0  3  0  0  0  0  0  0
  183.2260  171.8040  136.2890 C   0  0  0  0  0  3  0  0  0  0  0  0
  185.5550  171.8600  135.6170 C   0  0  2  0  0  3  0  0  0  0  0  0
  185.9320  172.5860  136.9160 C   0  0  2  0  0  3  0  0  0  0  0  0
  184.7530  173.2250  137.6610 C   0  0  0  0  0  2  0  0  0  0  0  0
  187.9790  171.6510  135.2470 C   0  0  0  0  0  3  0  0  0  0  0  0
  192.7950  175.2680  137.3270 N   0  0  0  0  0  2  0  0  0  0  0  0
  193.1700  173.8860  137.0200 C   0  0  0  0  0  2  0  0  0  0  0  0
  194.3950  173.5100  137.8240 C   0  0  0  0  0  2  0  0  0  0  0  0
  195.0770  174.7680  138.3670 C   0  0  0  0  0  1  0  0  0  0  0  0
  188.7110  177.4410  146.6780 C   0  0  2  0  0  3  0  0  0  0  0  0
  191.0750  177.0610  147.4030 C   0  0  0  0  0  1  0  0  0  0  0  0
  189.6670  176.4680  147.3550 C   0  0  0  0  0  2  0  0  0  0  0  0
  187.3600  177.3520  147.3650 C   0  0  0  0  0  2  0  0  0  0  0  0
  186.0450  179.5040  147.2680 C   0  0  0  0  0  0  0  0  0  0  0  0
  186.9870  178.6470  147.9050 N   0  0  0  0  0  2  0  0  0  0  0  0
  185.9570  180.7040  147.6430 O   0  0  0  0  0  0  0  0  0  0  0  0
  184.3930  177.5790  146.4000 S   0  0  0  0  0  0  0  0  0  0  0  0
  185.1640  179.0080  146.2030 C   0  0  0  0  0  0  0  0  0  0  0  0
  185.0320  179.7120  144.9160 C   0  0  0  0  0  3  0  0  0  0  0  0
  184.0800  179.4360  144.0560 C   0  0  0  0  0  0  0  0  0  0  0  0
  183.1430  179.1150  143.2150 C   0  0  0  0  0  0  0  0  0  0  0  0
  183.4560  178.4900  142.0040 O   0  0  0  0  0  0  0  0  0  0  0  0
  183.1200  179.0730  140.8140 O   0  0  0  0  0  0  0  0  0  0  0  0
  181.8810  177.0390  138.0220 C   0  0  0  0  0  0  0  0  0  0  0  0
  181.9570  177.8010  139.2290 N   0  0  0  0  0  0  0  0  0  0  0  0
  180.7480  176.7840  137.5120 O   0  0  0  0  0  0  0  0  0  0  0  0
  183.1280  176.5680  137.3300 C   0  0  0  0  0  2  0  0  0  0  0  0
  184.3180  178.0990  138.8920 C   0  0  0  0  0  3  0  0  0  0  0  0
  183.0840  178.3020  139.6530 C   0  0  0  0  0  0  0  0  0  0  0  0
  184.3540  177.3470  137.7920 C   0  0  0  0  0  0  0  0  0  0  0  0
  185.5630  177.2650  137.0950 O   0  0  0  0  0  0  0  0  0  0  0  0
  187.7030  176.7970  137.9890 C   0  0  0  0  0  1  0  0  0  0  0  0
  186.7710  177.8940  137.5060 C   0  0  1  0  0  3  0  0  0  0  0  0
  187.3980  178.6070  136.2940 C   0  0  0  0  0  3  0  0  0  0  0  0
  188.7820  178.3660  136.2570 O   0  0  0  0  0  1  0  0  0  0  0  0
  186.7950  178.1410  135.1210 O   0  0  0  0  0  1  0  0  0  0  0  0
  181.7030  179.3760  143.5450 C   0  0  0  0  0  2  0  0  0  0  0  0
  180.9120  178.3800  142.9570 O   0  0  0  0  0  0  0  0  0  0  0  0
  180.0310  179.0400  142.2110 O   0  0  0  0  0  1  0  0  0  0  0  0
  1 33  1  0  0  0  0
  2  1  2  0  0  0  0
  3  1  1  0  0  0  0
  4  7  1  0  0  0  0
  5  7  2  0  0  0  0
  5  6  1  0  0  0  0
  6  8  1  0  0  0  0
  7  9  1  0  0  0  0
  8  3  1  1  0  0  0
  9  8  1  0  0  0  0
  9 13  1  1  0  0  0
 11 10  1  0  0  0  0
 12 11  2  0  0  0  0
 13 11  1  0  0  0  0
 14  4  1  0  0  0  0
 15 14  1  1  0  0  0
 16 15  1  0  0  0  0
 17 16  2  0  0  0  0
 17 18  1  0  0  0  0
 19 27  1  0  0  0  0
 20 24  1  0  0  0  0
 21 18  1  0  0  0  0
 21 22  1  0  0  0  0
 23 28  2  0  0  0  0
 24 19  2  0  0  0  0
 25 23  1  1  0  0  0
 25 20  1  0  0  0  0
 25 26  1  0  0  0  0
 26 22  1  6  0  0  0
 26 27  1  0  0  0  0
 28 21  1  0  0  0  0
 29 15  1  0  0  0  0
 30 29  1  0  0  0  0
 30 31  1  0  0  0  0
 31 32  1  0  0  0  0
 33 35  1  1  0  0  0
 33 36  1  0  0  0  0
 35 34  1  0  0  0  0
 36 38  1  0  0  0  0
 37 39  2  0  0  0  0
 37 38  1  0  0  0  0
 41 40  2  0  0  0  0
 41 37  1  0  0  0  0
 42 41  1  0  0  0  0
 43 42  2  0  0  0  0
 44 60  1  0  0  0  0
 44 43  2  0  0  0  0
 45 44  1  0  0  0  0
 46 45  1  0  0  0  0
 47 48  1  0  0  0  0
 48 52  2  0  0  0  0
 49 47  2  0  0  0  0
 50 53  1  0  0  0  0
 50 47  1  0  0  0  0
 51 52  1  0  0  0  0
 52 46  1  0  0  0  0
 53 51  2  0  0  0  0
 54 56  1  0  0  0  0
 54 53  1  0  0  0  0
 56 55  1  6  0  0  0
 57 56  1  0  0  0  0
 58 57  1  0  0  0  0
 59 57  1  0  0  0  0
 61 60  1  0  0  0  0
 62 61  1  0  0  0  0
M  END
>  <MODEL>
4

>  <REMARK>
 VINA RESULT:      -4.9      3.032      9.760
  Name = 
  24 active torsions:
  status: ('A' for Active; 'I' for Inactive)
    1  A    between atoms: C_1  and  C_9
    2  A    between atoms: C_1  and  N_35
    3  A    between atoms: C_1  and  N_61
    4  A    between atoms: C_4  and  O_34
    5  A    between atoms: C_4  and  C_58
    6  A    between atoms: N_5  and  C_9
    7  A    between atoms: C_6  and  C_10
    8  A    between atoms: C_6  and  C_27
    9  A    between atoms: C_6  and  C_59
   10  A    between atoms: C_8  and  C_24
   11  A    between atoms: C_10  and  N_45
   12  A    between atoms: C_14  and  C_39
   13  A    between atoms: O_15  and  O_46
   14  A    between atoms: O_15  and  C_58
   15  A    between atoms: C_18  and  C_52
   16  A    between atoms: O_21  and  C_52
   17  A    between atoms: O_21  and  C_56
   18  A    between atoms: C_24  and  N_35
   19  A    between atoms: C_25  and  N_40
   20  A    between atoms: N_26  and  C_33
   21  A    between atoms: C_30  and  C_39
   22  A    between atoms: C_33  and  C_62
   23  A    between atoms: N_41  and  C_48
   24  A    between atoms: O_46  and  C_55
                            x       y       z     vdW  Elec       q    Type
                         _______ _______ _______ _____ _____    ______ ____

>  <TORSDO>
F 24

$$$$
=
 OpenBabel10232410093D

 62 65  0  0  1  0  0  0  0  0999 V2000
  190.0630  178.1850  144.2990 C   0  0  0  0  0  0  0  0  0  0  0  0
  191.2820  178.4830  144.1580 O   0  0  0  0  0  0  0  0  0  0  0  0
  189.2730  177.8940  143.1420 N   0  0  0  0  0  2  0  0  0  0  0  0
  188.7990  177.7980  138.2190 N   0  0  0  0  0  2  0  0  0  0  0  0
  190.2140  176.7900  139.8500 N   0  0  0  0  0  0  0  0  0  0  0  0
  190.4880  176.8040  141.2700 C   0  0  0  0  0  2  0  0  0  0  0  0
  189.2230  177.5660  139.5680 C   0  0  0  0  0  0  0  0  0  0  0  0
  189.7700  178.0420  141.7680 C   0  0  1  0  0  3  0  0  0  0  0  0
  188.6750  178.3230  140.7220 C   0  0  2  0  0  3  0  0  0  0  0  0
  184.9390  177.9340  141.6290 C   0  0  0  0  0  1  0  0  0  0  0  0
  186.2450  178.5830  141.3270 C   0  0  0  0  0  0  0  0  0  0  0  0
  186.3160  179.8430  141.2370 O   0  0  0  0  0  0  0  0  0  0  0  0
  187.3930  177.7540  141.1100 N   0  0  0  0  0  2  0  0  0  0  0  0
  189.6890  177.4930  137.1050 C   0  0  0  0  0  2  0  0  0  0  0  0
  188.9530  177.4340  135.7630 C   0  0  1  0  0  3  0  0  0  0  0  0
  189.8040  176.7550  134.8070 N   0  0  0  0  0  0  0  0  0  0  0  0
  190.3400  175.5990  135.0100 C   0  0  0  0  0  3  0  0  0  0  0  0
  190.1230  174.7840  136.2580 C   0  0  0  0  0  2  0  0  0  0  0  0
  195.7430  173.4980  138.4800 C   0  0  0  0  0  3  0  0  0  0  0  0
  195.1360  172.1380  136.5070 C   0  0  0  0  0  2  0  0  0  0  0  0
  191.2600  173.9120  136.5360 N   0  0  0  0  0  0  0  0  0  0  0  0
  192.2250  174.3650  137.5580 C   0  0  0  0  0  2  0  0  0  0  0  0
  192.7280  172.1430  135.7710 C   0  0  0  0  0  3  0  0  0  0  0  0
  195.9580  172.4010  137.7330 C   0  0  0  0  0  3  0  0  0  0  0  0
  193.7000  172.5000  136.8560 C   0  0  2  0  0  3  0  0  0  0  0  0
  193.6420  174.0100  137.1240 C   0  0  2  0  0  3  0  0  0  0  0  0
  194.7100  174.5330  138.0930 C   0  0  0  0  0  2  0  0  0  0  0  0
  191.5750  172.8170  135.6550 C   0  0  0  0  0  3  0  0  0  0  0  0
  187.6900  176.7030  135.8880 N   0  0  0  0  0  2  0  0  0  0  0  0
  186.6420  177.5950  135.3870 C   0  0  0  0  0  2  0  0  0  0  0  0
  185.3000  177.1330  135.9100 C   0  0  0  0  0  2  0  0  0  0  0  0
  185.3760  176.8890  137.4190 C   0  0  0  0  0  1  0  0  0  0  0  0
  189.5020  178.0240  145.6960 C   0  0  2  0  0  3  0  0  0  0  0  0
  189.2490  176.5370  147.6910 C   0  0  0  0  0  1  0  0  0  0  0  0
  190.0520  176.8000  146.4170 C   0  0  0  0  0  2  0  0  0  0  0  0
  187.9880  177.9240  145.6540 C   0  0  0  0  0  2  0  0  0  0  0  0
  186.0750  179.1940  146.7030 C   0  0  0  0  0  0  0  0  0  0  0  0
  187.4060  178.6860  146.7450 N   0  0  0  0  0  2  0  0  0  0  0  0
  185.7210  180.0520  147.5570 O   0  0  0  0  0  0  0  0  0  0  0  0
  184.7600  177.1250  145.6200 S   0  0  0  0  0  0  0  0  0  0  0  0
  185.1110  178.7200  145.7040 C   0  0  0  0  0  0  0  0  0  0  0  0
  184.5230  179.6280  144.7030 C   0  0  0  0  0  3  0  0  0  0  0  0
  183.3550  179.4030  144.1480 C   0  0  0  0  0  0  0  0  0  0  0  0
  182.2120  179.1330  143.5940 C   0  0  0  0  0  0  0  0  0  0  0  0
  182.1370  178.7830  142.2420 O   0  0  0  0  0  0  0  0  0  0  0  0
  181.0550  179.1420  141.4890 O   0  0  0  0  0  0  0  0  0  0  0  0
  181.2450  180.6380  138.1440 C   0  0  0  0  0  0  0  0  0  0  0  0
  181.0730  180.4550  139.5510 N   0  0  0  0  0  0  0  0  0  0  0  0
  181.3710  181.8100  137.6750 O   0  0  0  0  0  0  0  0  0  0  0  0
  181.3160  179.4580  137.2190 C   0  0  0  0  0  2  0  0  0  0  0  0
  181.5130  178.1060  139.3000 C   0  0  0  0  0  3  0  0  0  0  0  0
  181.1900  179.2830  140.1090 C   0  0  0  0  0  0  0  0  0  0  0  0
  181.6260  178.1710  137.9730 C   0  0  0  0  0  0  0  0  0  0  0  0
  182.0010  177.0100  137.2920 O   0  0  0  0  0  0  0  0  0  0  0  0
  180.5520  175.9130  135.7760 C   0  0  0  0  0  1  0  0  0  0  0  0
  181.1800  175.8560  137.1580 C   0  0  1  0  0  3  0  0  0  0  0  0
  182.0640  174.6000  137.2710 C   0  0  0  0  0  3  0  0  0  0  0  0
  181.2640  173.4450  137.2480 O   0  0  0  0  0  1  0  0  0  0  0  0
  182.9740  174.5780  136.2100 O   0  0  0  0  0  1  0  0  0  0  0  0
  180.9500  179.1560  144.4070 C   0  0  0  0  0  2  0  0  0  0  0  0
  179.9850  178.3600  143.7740 O   0  0  0  0  0  0  0  0  0  0  0  0
  180.1590  177.1440  144.2820 O   0  0  0  0  0  1  0  0  0  0  0  0
  1 33  1  0  0  0  0
  2  1  2  0  0  0  0
  3  1  1  0  0  0  0
  4  7  1  0  0  0  0
  5  6  1  0  0  0  0
  6  8  1  0  0  0  0
  7  5  2  0  0  0  0
  7  9  1  0  0  0  0
  8  3  1  1  0  0  0
  9 13  1  1  0  0  0
  9  8  1  0  0  0  0
 11 10  1  0  0  0  0
 12 11  2  0  0  0  0
 13 11  1  0  0  0  0
 14  4  1  0  0  0  0
 15 29  1  0  0  0  0
 15 14  1  1  0  0  0
 16 17  2  0  0  0  0
 16 15  1  0  0  0  0
 17 18  1  0  0  0  0
 18 21  1  0  0  0  0
 20 25  1  0  0  0  0
 20 24  1  0  0  0  0
 21 22  1  0  0  0  0
 24 19  2  0  0  0  0
 25 23  1  6  0  0  0
 25 26  1  0  0  0  0
 26 22  1  1  0  0  0
 26 27  1  0  0  0  0
 27 19  1  0  0  0  0
 28 23  2  0  0  0  0
 28 21  1  0  0  0  0
 30 29  1  0  0  0  0
 30 31  1  0  0  0  0
 31 32  1  0  0  0  0
 33 36  1  6  0  0  0
 33 35  1  0  0  0  0
 35 34  1  0  0  0  0
 36 38  1  0  0  0  0
 37 38  1  0  0  0  0
 37 39  2  0  0  0  0
 40 41  2  0  0  0  0
 41 37  1  0  0  0  0
 42 41  1  0  0  0  0
 43 42  2  0  0  0  0
 44 43  2  0  0  0  0
 44 60  1  0  0  0  0
 45 44  1  0  0  0  0
 46 45  1  0  0  0  0
 47 48  1  0  0  0  0
 48 52  2  0  0  0  0
 49 47  2  0  0  0  0
 50 53  1  0  0  0  0
 50 47  1  0  0  0  0
 51 52  1  0  0  0  0
 52 46  1  0  0  0  0
 53 51  2  0  0  0  0
 54 53  1  0  0  0  0
 56 55  1  6  0  0  0
 56 57  1  0  0  0  0
 56 54  1  0  0  0  0
 58 57  1  0  0  0  0
 59 57  1  0  0  0  0
 61 62  1  0  0  0  0
 61 60  1  0  0  0  0
M  END
>  <MODEL>
5

>  <REMARK>
 VINA RESULT:      -4.9      3.524     10.173
  Name = 
  24 active torsions:
  status: ('A' for Active; 'I' for Inactive)
    1  A    between atoms: C_1  and  C_9
    2  A    between atoms: C_1  and  N_35
    3  A    between atoms: C_1  and  N_61
    4  A    between atoms: C_4  and  O_34
    5  A    between atoms: C_4  and  C_58
    6  A    between atoms: N_5  and  C_9
    7  A    between atoms: C_6  and  C_10
    8  A    between atoms: C_6  and  C_27
    9  A    between atoms: C_6  and  C_59
   10  A    between atoms: C_8  and  C_24
   11  A    between atoms: C_10  and  N_45
   12  A    between atoms: C_14  and  C_39
   13  A    between atoms: O_15  and  O_46
   14  A    between atoms: O_15  and  C_58
   15  A    between atoms: C_18  and  C_52
   16  A    between atoms: O_21  and  C_52
   17  A    between atoms: O_21  and  C_56
   18  A    between atoms: C_24  and  N_35
   19  A    between atoms: C_25  and  N_40
   20  A    between atoms: N_26  and  C_33
   21  A    between atoms: C_30  and  C_39
   22  A    between atoms: C_33  and  C_62
   23  A    between atoms: N_41  and  C_48
   24  A    between atoms: O_46  and  C_55
                            x       y       z     vdW  Elec       q    Type
                         _______ _______ _______ _____ _____    ______ ____

>  <TORSDO>
F 24

$$$$
=
 OpenBabel10232410093D

 62 65  0  0  1  0  0  0  0  0999 V2000
  189.6730  176.7970  138.9690 C   0  0  0  0  0  0  0  0  0  0  0  0
  189.7050  178.0590  138.9330 O   0  0  0  0  0  0  0  0  0  0  0  0
  189.3640  176.1360  140.2000 N   0  0  0  0  0  2  0  0  0  0  0  0
  191.0050  178.0580  144.4510 N   0  0  0  0  0  2  0  0  0  0  0  0
  189.3330  176.4990  143.7780 N   0  0  0  0  0  0  0  0  0  0  0  0
  188.7280  175.9350  142.5920 C   0  0  0  0  0  2  0  0  0  0  0  0
  190.2920  177.3030  143.4640 C   0  0  0  0  0  0  0  0  0  0  0  0
  189.1970  176.8450  141.4750 C   0  0  1  0  0  3  0  0  0  0  0  0
  190.4820  177.5080  142.0060 C   0  0  2  0  0  3  0  0  0  0  0  0
  193.9020  176.6980  140.4000 C   0  0  0  0  0  1  0  0  0  0  0  0
  192.6540  177.4390  140.7340 C   0  0  0  0  0  0  0  0  0  0  0  0
  192.4870  178.6180  140.3070 O   0  0  0  0  0  0  0  0  0  0  0  0
  191.6790  176.8040  141.5690 N   0  0  0  0  0  2  0  0  0  0  0  0
  190.4350  178.2560  145.7800 C   0  0  0  0  0  2  0  0  0  0  0  0
  190.9790  177.2570  146.8060 C   0  0  1  0  0  3  0  0  0  0  0  0
  189.9470  176.2790  147.0790 N   0  0  0  0  0  0  0  0  0  0  0  0
  188.7040  176.5720  147.2660 C   0  0  0  0  0  3  0  0  0  0  0  0
  188.1540  177.9730  147.1900 C   0  0  0  0  0  2  0  0  0  0  0  0
  184.5640  178.0780  142.1620 C   0  0  0  0  0  3  0  0  0  0  0  0
  183.5800  179.2670  144.0920 C   0  0  0  0  0  2  0  0  0  0  0  0
  186.8760  178.0120  146.4860 N   0  0  0  0  0  0  0  0  0  0  0  0
  186.8740  177.6120  145.0650 C   0  0  0  0  0  2  0  0  0  0  0  0
  184.6310  178.9120  146.3530 C   0  0  0  0  0  3  0  0  0  0  0  0
  183.4730  178.5860  142.7610 C   0  0  0  0  0  3  0  0  0  0  0  0
  184.5410  178.4390  144.9320 C   0  0  2  0  0  3  0  0  0  0  0  0
  185.9260  178.5080  144.2780 C   0  0  2  0  0  3  0  0  0  0  0  0
  185.9420  178.2130  142.7720 C   0  0  0  0  0  2  0  0  0  0  0  0
  185.7410  178.6820  147.0680 C   0  0  0  0  0  3  0  0  0  0  0  0
  192.1680  176.5730  146.2940 N   0  0  0  0  0  2  0  0  0  0  0  0
  192.5830  175.6270  147.3340 C   0  0  0  0  0  2  0  0  0  0  0  0
  192.4560  176.2870  148.6890 C   0  0  0  0  0  2  0  0  0  0  0  0
  193.8420  176.5320  149.2900 C   0  0  0  0  0  1  0  0  0  0  0  0
  189.8430  176.0210  137.6800 C   0  0  2  0  0  3  0  0  0  0  0  0
  191.1580  176.1040  135.5530 C   0  0  0  0  0  1  0  0  0  0  0  0
  190.2710  176.9000  136.5120 C   0  0  0  0  0  2  0  0  0  0  0  0
  188.5510  175.3160  137.3080 C   0  0  0  0  0  2  0  0  0  0  0  0
  186.2560  175.9800  136.4960 C   0  0  0  0  0  0  0  0  0  0  0  0
  187.4770  176.2820  137.1650 N   0  0  0  0  0  2  0  0  0  0  0  0
  185.4790  176.9240  136.1850 O   0  0  0  0  0  0  0  0  0  0  0  0
  186.6060  173.8260  134.9400 S   0  0  0  0  0  0  0  0  0  0  0  0
  185.8800  174.5960  136.1870 C   0  0  0  0  0  0  0  0  0  0  0  0
  184.7920  173.9100  136.9050 C   0  0  0  0  0  3  0  0  0  0  0  0
  183.7650  173.3760  136.2850 C   0  0  0  0  0  0  0  0  0  0  0  0
  182.7490  172.8860  135.6420 C   0  0  0  0  0  0  0  0  0  0  0  0
  181.4800  173.4600  135.7680 O   0  0  0  0  0  0  0  0  0  0  0  0
  180.6590  173.1110  136.8040 O   0  0  0  0  0  0  0  0  0  0  0  0
  180.0970  174.3540  140.2110 C   0  0  0  0  0  0  0  0  0  0  0  0
  180.2130  173.5010  139.0690 N   0  0  0  0  0  0  0  0  0  0  0  0
  180.0510  173.8440  141.3710 O   0  0  0  0  0  0  0  0  0  0  0  0
  180.0670  175.8470  140.0550 C   0  0  0  0  0  2  0  0  0  0  0  0
  180.7530  175.4040  137.7030 C   0  0  0  0  0  3  0  0  0  0  0  0
  180.5150  173.9710  137.8910 C   0  0  0  0  0  0  0  0  0  0  0  0
  180.6030  176.2800  138.6960 C   0  0  0  0  0  0  0  0  0  0  0  0
  180.9160  177.6180  138.4400 O   0  0  0  0  0  0  0  0  0  0  0  0
  182.4820  178.5690  136.9430 C   0  0  0  0  0  1  0  0  0  0  0  0
  182.2400  178.1360  138.3780 C   0  0  1  0  0  3  0  0  0  0  0  0
  182.3410  179.3580  139.3090 C   0  0  0  0  0  3  0  0  0  0  0  0
  181.7410  179.0710  140.5470 O   0  0  0  0  0  1  0  0  0  0  0  0
  183.6860  179.6920  139.4890 O   0  0  0  0  0  1  0  0  0  0  0  0
  182.9250  171.7140  134.7200 C   0  0  0  0  0  2  0  0  0  0  0  0
  183.5020  170.6550  135.4320 O   0  0  0  0  0  0  0  0  0  0  0  0
  182.6170  169.6660  135.3510 O   0  0  0  0  0  1  0  0  0  0  0  0
  1  3  1  0  0  0  0
  2  1  2  0  0  0  0
  4 14  1  0  0  0  0
  6  5  1  0  0  0  0
  7  5  2  0  0  0  0
  7  4  1  0  0  0  0
  8  3  1  6  0  0  0
  8  9  1  0  0  0  0
  8  6  1  0  0  0  0
  9 13  1  6  0  0  0
  9  7  1  0  0  0  0
 10 11  1  0  0  0  0
 11 13  1  0  0  0  0
 12 11  2  0  0  0  0
 15 14  1  6  0  0  0
 15 16  1  0  0  0  0
 16 17  2  0  0  0  0
 18 17  1  0  0  0  0
 19 24  2  0  0  0  0
 19 27  1  0  0  0  0
 21 28  1  0  0  0  0
 21 18  1  0  0  0  0
 22 21  1  0  0  0  0
 23 28  2  0  0  0  0
 24 20  1  0  0  0  0
 25 20  1  6  0  0  0
 25 23  1  0  0  0  0
 26 27  1  6  0  0  0
 26 25  1  0  0  0  0
 26 22  1  0  0  0  0
 29 15  1  0  0  0  0
 29 30  1  0  0  0  0
 30 31  1  0  0  0  0
 31 32  1  0  0  0  0
 33 35  1  6  0  0  0
 33  1  1  0  0  0  0
 34 35  1  0  0  0  0
 36 33  1  0  0  0  0
 37 38  1  0  0  0  0
 38 36  1  0  0  0  0
 39 37  2  0  0  0  0
 40 41  2  0  0  0  0
 41 37  1  0  0  0  0
 41 42  1  0  0  0  0
 43 42  2  0  0  0  0
 44 45  1  0  0  0  0
 44 43  2  0  0  0  0
 45 46  1  0  0  0  0
 46 52  1  0  0  0  0
 47 49  2  0  0  0  0
 48 47  1  0  0  0  0
 50 47  1  0  0  0  0
 51 52  1  0  0  0  0
 51 53  2  0  0  0  0
 52 48  2  0  0  0  0
 53 50  1  0  0  0  0
 54 53  1  0  0  0  0
 56 55  1  6  0  0  0
 56 54  1  0  0  0  0
 56 57  1  0  0  0  0
 57 59  1  0  0  0  0
 57 58  1  0  0  0  0
 60 61  1  0  0  0  0
 60 44  1  0  0  0  0
 62 61  1  0  0  0  0
M  END
>  <MODEL>
6

>  <REMARK>
 VINA RESULT:      -4.3      3.504     10.399
  Name = 
  24 active torsions:
  status: ('A' for Active; 'I' for Inactive)
    1  A    between atoms: C_1  and  C_9
    2  A    between atoms: C_1  and  N_35
    3  A    between atoms: C_1  and  N_61
    4  A    between atoms: C_4  and  O_34
    5  A    between atoms: C_4  and  C_58
    6  A    between atoms: N_5  and  C_9
    7  A    between atoms: C_6  and  C_10
    8  A    between atoms: C_6  and  C_27
    9  A    between atoms: C_6  and  C_59
   10  A    between atoms: C_8  and  C_24
   11  A    between atoms: C_10  and  N_45
   12  A    between atoms: C_14  and  C_39
   13  A    between atoms: O_15  and  O_46
   14  A    between atoms: O_15  and  C_58
   15  A    between atoms: C_18  and  C_52
   16  A    between atoms: O_21  and  C_52
   17  A    between atoms: O_21  and  C_56
   18  A    between atoms: C_24  and  N_35
   19  A    between atoms: C_25  and  N_40
   20  A    between atoms: N_26  and  C_33
   21  A    between atoms: C_30  and  C_39
   22  A    between atoms: C_33  and  C_62
   23  A    between atoms: N_41  and  C_48
   24  A    between atoms: O_46  and  C_55
                            x       y       z     vdW  Elec       q    Type
                         _______ _______ _______ _____ _____    ______ ____

>  <TORSDO>
F 24

$$$$
=
 OpenBabel10232410093D

 62 65  0  0  1  0  0  0  0  0999 V2000
  190.3030  178.3180  144.0260 C   0  0  0  0  0  0  0  0  0  0  0  0
  191.3410  179.0190  143.8560 O   0  0  0  0  0  0  0  0  0  0  0  0
  189.7590  177.5900  142.9210 N   0  0  0  0  0  2  0  0  0  0  0  0
  189.2840  177.5900  137.9970 N   0  0  0  0  0  2  0  0  0  0  0  0
  190.5990  176.4400  139.6180 N   0  0  0  0  0  0  0  0  0  0  0  0
  190.8720  176.4140  141.0380 C   0  0  0  0  0  2  0  0  0  0  0  0
  189.6840  177.3070  139.3440 C   0  0  0  0  0  0  0  0  0  0  0  0
  190.2690  177.7070  141.5490 C   0  0  1  0  0  3  0  0  0  0  0  0
  189.2060  178.0980  140.5050 C   0  0  2  0  0  3  0  0  0  0  0  0
  185.4840  178.0520  141.5420 C   0  0  0  0  0  1  0  0  0  0  0  0
  186.8490  178.5720  141.2550 C   0  0  0  0  0  0  0  0  0  0  0  0
  187.0740  179.8160  141.3070 O   0  0  0  0  0  0  0  0  0  0  0  0
  187.8760  177.6440  140.8870 N   0  0  0  0  0  2  0  0  0  0  0  0
  190.1450  177.2170  136.8800 C   0  0  0  0  0  2  0  0  0  0  0  0
  189.5730  176.0560  136.0600 C   0  0  1  0  0  3  0  0  0  0  0  0
  190.5410  175.6960  135.0460 N   0  0  0  0  0  0  0  0  0  0  0  0
  191.8200  175.7530  135.2140 C   0  0  0  0  0  3  0  0  0  0  0  0
  192.4750  176.1690  136.5050 C   0  0  0  0  0  2  0  0  0  0  0  0
  196.7090  171.8480  135.2430 C   0  0  0  0  0  3  0  0  0  0  0  0
  196.4070  172.2450  137.6640 C   0  0  0  0  0  2  0  0  0  0  0  0
  193.6940  175.4060  136.7600 N   0  0  0  0  0  0  0  0  0  0  0  0
  194.2740  174.6600  135.6260 C   0  0  0  0  0  2  0  0  0  0  0  0
  195.1220  174.2920  138.3690 C   0  0  0  0  0  3  0  0  0  0  0  0
  197.1910  171.7330  136.4930 C   0  0  0  0  0  3  0  0  0  0  0  0
  195.8110  173.5800  137.2430 C   0  0  2  0  0  3  0  0  0  0  0  0
  194.8110  173.3190  136.1100 C   0  0  2  0  0  3  0  0  0  0  0  0
  195.3460  172.4450  134.9680 C   0  0  0  0  0  2  0  0  0  0  0  0
  194.1350  175.1620  138.1090 C   0  0  0  0  0  3  0  0  0  0  0  0
  189.3100  174.8920  136.9100 N   0  0  0  0  0  2  0  0  0  0  0  0
  188.6750  173.8880  136.0530 C   0  0  0  0  0  2  0  0  0  0  0  0
  188.2150  172.7250  136.9030 C   0  0  0  0  0  2  0  0  0  0  0  0
  186.7060  172.8100  137.1430 C   0  0  0  0  0  1  0  0  0  0  0  0
  189.7370  178.1700  145.4220 C   0  0  2  0  0  3  0  0  0  0  0  0
  191.6080  176.5100  145.4640 C   0  0  0  0  0  1  0  0  0  0  0  0
  190.3680  177.0210  146.1980 C   0  0  0  0  0  2  0  0  0  0  0  0
  188.2350  177.9520  145.3680 C   0  0  0  0  0  2  0  0  0  0  0  0
  186.2550  178.8150  146.6730 C   0  0  0  0  0  0  0  0  0  0  0  0
  187.6190  178.4100  146.6000 N   0  0  0  0  0  2  0  0  0  0  0  0
  185.8550  179.4360  147.6960 O   0  0  0  0  0  0  0  0  0  0  0  0
  185.1830  176.9640  145.0590 S   0  0  0  0  0  0  0  0  0  0  0  0
  185.3100  178.5030  145.5940 C   0  0  0  0  0  0  0  0  0  0  0  0
  184.5430  179.5570  144.9080 C   0  0  0  0  0  3  0  0  0  0  0  0
  183.4740  179.2970  144.1920 C   0  0  0  0  0  0  0  0  0  0  0  0
  182.4390  179.0010  143.4650 C   0  0  0  0  0  0  0  0  0  0  0  0
  182.4780  179.1470  142.0750 O   0  0  0  0  0  0  0  0  0  0  0  0
  181.7990  178.2800  141.2650 O   0  0  0  0  0  0  0  0  0  0  0  0
  180.9770  180.3130  138.3220 C   0  0  0  0  0  0  0  0  0  0  0  0
  181.2480  179.8960  139.6630 N   0  0  0  0  0  0  0  0  0  0  0  0
  180.9840  181.5490  138.0370 O   0  0  0  0  0  0  0  0  0  0  0  0
  180.7190  179.3040  137.2410 C   0  0  0  0  0  2  0  0  0  0  0  0
  181.5180  177.6310  138.9040 C   0  0  0  0  0  3  0  0  0  0  0  0
  181.5000  178.6510  139.9550 C   0  0  0  0  0  0  0  0  0  0  0  0
  181.2110  177.9180  137.6380 C   0  0  0  0  0  0  0  0  0  0  0  0
  181.3190  176.8940  136.6930 O   0  0  0  0  0  0  0  0  0  0  0  0
  183.6630  177.2250  136.6970 C   0  0  0  0  0  1  0  0  0  0  0  0
  182.4960  176.6140  135.9420 C   0  0  1  0  0  3  0  0  0  0  0  0
  182.6790  175.0880  135.8550 C   0  0  0  0  0  3  0  0  0  0  0  0
  184.0420  174.7600  135.9580 O   0  0  0  0  0  1  0  0  0  0  0  0
  181.9560  174.4760  136.8840 O   0  0  0  0  0  1  0  0  0  0  0  0
  181.1920  178.4600  144.1020 C   0  0  0  0  0  2  0  0  0  0  0  0
  180.0830  178.8560  143.3430 O   0  0  0  0  0  0  0  0  0  0  0  0
  179.9860  180.1670  143.5390 O   0  0  0  0  0  1  0  0  0  0  0  0
  1 33  1  0  0  0  0
  2  1  2  0  0  0  0
  3  1  1  0  0  0  0
  4  7  1  0  0  0  0
  5  6  1  0  0  0  0
  6  8  1  0  0  0  0
  7  5  2  0  0  0  0
  7  9  1  0  0  0  0
  8  3  1  1  0  0  0
  9 13  1  1  0  0  0
  9  8  1  0  0  0  0
 11 12  2  0  0  0  0
 11 10  1  0  0  0  0
 13 11  1  0  0  0  0
 14  4  1  0  0  0  0
 15 14  1  1  0  0  0
 15 29  1  0  0  0  0
 16 17  2  0  0  0  0
 16 15  1  0  0  0  0
 17 18  1  0  0  0  0
 18 21  1  0  0  0  0
 19 24  2  0  0  0  0
 21 28  1  0  0  0  0
 22 26  1  0  0  0  0
 22 21  1  0  0  0  0
 24 20  1  0  0  0  0
 25 20  1  1  0  0  0
 25 23  1  0  0  0  0
 26 27  1  6  0  0  0
 26 25  1  0  0  0  0
 27 19  1  0  0  0  0
 28 23  2  0  0  0  0
 30 31  1  0  0  0  0
 30 29  1  0  0  0  0
 31 32  1  0  0  0  0
 33 36  1  6  0  0  0
 33 35  1  0  0  0  0
 34 35  1  0  0  0  0
 36 38  1  0  0  0  0
 37 39  2  0  0  0  0
 38 37  1  0  0  0  0
 40 41  2  0  0  0  0
 41 37  1  0  0  0  0
 42 41  1  0  0  0  0
 43 42  2  0  0  0  0
 44 60  1  0  0  0  0
 44 43  2  0  0  0  0
 45 44  1  0  0  0  0
 46 45  1  0  0  0  0
 47 48  1  0  0  0  0
 48 52  2  0  0  0  0
 49 47  2  0  0  0  0
 50 53  1  0  0  0  0
 50 47  1  0  0  0  0
 51 52  1  0  0  0  0
 52 46  1  0  0  0  0
 53 51  2  0  0  0  0
 54 53  1  0  0  0  0
 56 54  1  0  0  0  0
 56 55  1  1  0  0  0
 57 56  1  0  0  0  0
 57 58  1  0  0  0  0
 57 59  1  0  0  0  0
 61 62  1  0  0  0  0
 61 60  1  0  0  0  0
M  END
>  <MODEL>
7

>  <REMARK>
 VINA RESULT:      -4.1      3.528     10.414
  Name = 
  24 active torsions:
  status: ('A' for Active; 'I' for Inactive)
    1  A    between atoms: C_1  and  C_9
    2  A    between atoms: C_1  and  N_35
    3  A    between atoms: C_1  and  N_61
    4  A    between atoms: C_4  and  O_34
    5  A    between atoms: C_4  and  C_58
    6  A    between atoms: N_5  and  C_9
    7  A    between atoms: C_6  and  C_10
    8  A    between atoms: C_6  and  C_27
    9  A    between atoms: C_6  and  C_59
   10  A    between atoms: C_8  and  C_24
   11  A    between atoms: C_10  and  N_45
   12  A    between atoms: C_14  and  C_39
   13  A    between atoms: O_15  and  O_46
   14  A    between atoms: O_15  and  C_58
   15  A    between atoms: C_18  and  C_52
   16  A    between atoms: O_21  and  C_52
   17  A    between atoms: O_21  and  C_56
   18  A    between atoms: C_24  and  N_35
   19  A    between atoms: C_25  and  N_40
   20  A    between atoms: N_26  and  C_33
   21  A    between atoms: C_30  and  C_39
   22  A    between atoms: C_33  and  C_62
   23  A    between atoms: N_41  and  C_48
   24  A    between atoms: O_46  and  C_55
                            x       y       z     vdW  Elec       q    Type
                         _______ _______ _______ _____ _____    ______ ____

>  <TORSDO>
F 24

$$$$
=
 OpenBabel10232410093D

 62 65  0  0  1  0  0  0  0  0999 V2000
  189.7020  176.5280  136.7640 C   0  0  0  0  0  0  0  0  0  0  0  0
  189.2780  176.6950  137.9410 O   0  0  0  0  0  0  0  0  0  0  0  0
  188.8300  176.7860  135.6590 N   0  0  0  0  0  2  0  0  0  0  0  0
  183.9980  175.7300  135.6530 N   0  0  0  0  0  2  0  0  0  0  0  0
  185.4370  177.2980  134.5810 N   0  0  0  0  0  0  0  0  0  0  0  0
  186.8140  177.7400  134.5660 C   0  0  0  0  0  2  0  0  0  0  0  0
  185.2850  176.3040  135.3890 C   0  0  0  0  0  0  0  0  0  0  0  0
  187.4090  177.1210  135.8150 C   0  0  1  0  0  3  0  0  0  0  0  0
  186.5040  175.9180  136.1420 C   0  0  2  0  0  3  0  0  0  0  0  0
  187.2220  172.1690  135.5460 C   0  0  0  0  0  1  0  0  0  0  0  0
  186.7280  173.4110  136.2010 C   0  0  0  0  0  0  0  0  0  0  0  0
  186.0230  173.3340  137.2490 O   0  0  0  0  0  0  0  0  0  0  0  0
  187.0350  174.6750  135.6020 N   0  0  0  0  0  2  0  0  0  0  0  0
  182.7820  176.4730  135.3420 C   0  0  0  0  0  2  0  0  0  0  0  0
  181.9060  176.7100  136.5750 C   0  0  1  0  0  3  0  0  0  0  0  0
  180.6630  177.3130  136.1410 N   0  0  0  0  0  0  0  0  0  0  0  0
  180.0890  178.3000  136.7420 C   0  0  0  0  0  3  0  0  0  0  0  0
  180.6560  178.9810  137.9600 C   0  0  0  0  0  2  0  0  0  0  0  0
  180.0290  184.2900  134.8620 C   0  0  0  0  0  3  0  0  0  0  0  0
  181.5190  184.4730  136.8250 C   0  0  0  0  0  2  0  0  0  0  0  0
  180.6040  180.4350  137.8370 N   0  0  0  0  0  0  0  0  0  0  0  0
  179.9880  180.9880  136.6150 C   0  0  0  0  0  2  0  0  0  0  0  0
  181.5050  182.5860  138.4920 C   0  0  0  0  0  3  0  0  0  0  0  0
  180.6410  185.0720  135.7680 C   0  0  0  0  0  3  0  0  0  0  0  0
  180.8180  183.2160  137.3170 C   0  0  2  0  0  3  0  0  0  0  0  0
  180.7640  182.2160  136.1550 C   0  0  2  0  0  3  0  0  0  0  0  0
  180.2380  182.7920  134.8340 C   0  0  0  0  0  2  0  0  0  0  0  0
  181.3730  181.2720  138.7220 C   0  0  0  0  0  3  0  0  0  0  0  0
  181.6160  175.4510  137.2630 N   0  0  0  0  0  2  0  0  0  0  0  0
  180.3930  175.6730  138.0390 C   0  0  0  0  0  2  0  0  0  0  0  0
  180.7170  175.6020  139.5140 C   0  0  0  0  0  2  0  0  0  0  0  0
  179.9860  174.4230  140.1610 C   0  0  0  0  0  1  0  0  0  0  0  0
  191.1600  176.1780  136.5510 C   0  0  2  0  0  3  0  0  0  0  0  0
  192.5650  174.1620  136.0830 C   0  0  0  0  0  1  0  0  0  0  0  0
  191.3530  174.9780  135.6330 C   0  0  0  0  0  2  0  0  0  0  0  0
  191.8370  175.8870  137.8780 C   0  0  0  0  0  2  0  0  0  0  0  0
  193.0410  177.5930  139.2970 C   0  0  0  0  0  0  0  0  0  0  0  0
  192.9220  176.8270  138.1020 N   0  0  0  0  0  2  0  0  0  0  0  0
  193.8460  178.5630  139.3250 O   0  0  0  0  0  0  0  0  0  0  0  0
  190.6630  176.9500  140.3550 S   0  0  0  0  0  0  0  0  0  0  0  0
  192.2620  177.2580  140.4960 C   0  0  0  0  0  0  0  0  0  0  0  0
  192.8610  177.2910  141.8420 C   0  0  0  0  0  3  0  0  0  0  0  0
  192.1900  176.9570  142.9190 C   0  0  0  0  0  0  0  0  0  0  0  0
  191.4870  176.6500  143.9680 C   0  0  0  0  0  0  0  0  0  0  0  0
  191.1340  177.6280  144.9020 O   0  0  0  0  0  0  0  0  0  0  0  0
  190.6820  177.2750  146.1430 O   0  0  0  0  0  0  0  0  0  0  0  0
  187.5220  177.3080  148.0080 C   0  0  0  0  0  0  0  0  0  0  0  0
  188.8870  177.1040  147.6360 N   0  0  0  0  0  0  0  0  0  0  0  0
  187.1800  177.1940  149.2240 O   0  0  0  0  0  0  0  0  0  0  0  0
  186.4950  177.6920  146.9820 C   0  0  0  0  0  2  0  0  0  0  0  0
  188.4460  178.0730  145.4810 C   0  0  0  0  0  3  0  0  0  0  0  0
  189.3370  177.4510  146.4630 C   0  0  0  0  0  0  0  0  0  0  0  0
  187.1440  178.2400  145.7170 C   0  0  0  0  0  0  0  0  0  0  0  0
  186.3850  178.9030  144.7480 O   0  0  0  0  0  0  0  0  0  0  0  0
  184.0350  179.0540  144.5180 C   0  0  0  0  0  1  0  0  0  0  0  0
  185.2840  178.3260  144.0560 C   0  0  1  0  0  3  0  0  0  0  0  0
  185.4780  178.5430  142.5440 C   0  0  0  0  0  3  0  0  0  0  0  0
  186.8330  178.3900  142.2050 O   0  0  0  0  0  1  0  0  0  0  0  0
  184.6970  177.6210  141.8410 O   0  0  0  0  0  1  0  0  0  0  0  0
  191.0090  175.2420  144.1770 C   0  0  0  0  0  2  0  0  0  0  0  0
  192.0650  174.4720  144.6820 O   0  0  0  0  0  0  0  0  0  0  0  0
  192.3640  175.0280  145.8520 O   0  0  0  0  0  1  0  0  0  0  0  0
  1  2  2  0  0  0  0
  3  1  1  0  0  0  0
  5  7  2  0  0  0  0
  6  5  1  0  0  0  0
  6  8  1  0  0  0  0
  7  4  1  0  0  0  0
  7  9  1  0  0  0  0
  8  3  1  6  0  0  0
  8  9  1  0  0  0  0
  9 13  1  6  0  0  0
 10 11  1  0  0  0  0
 11 12  2  0  0  0  0
 13 11  1  0  0  0  0
 14  4  1  0  0  0  0
 15 14  1  6  0  0  0
 15 29  1  0  0  0  0
 16 15  1  0  0  0  0
 16 17  2  0  0  0  0
 17 18  1  0  0  0  0
 19 24  2  0  0  0  0
 21 18  1  0  0  0  0
 21 28  1  0  0  0  0
 22 21  1  0  0  0  0
 23 28  2  0  0  0  0
 24 20  1  0  0  0  0
 25 20  1  6  0  0  0
 25 23  1  0  0  0  0
 26 27  1  6  0  0  0
 26 22  1  0  0  0  0
 26 25  1  0  0  0  0
 27 19  1  0  0  0  0
 29 30  1  0  0  0  0
 30 31  1  0  0  0  0
 31 32  1  0  0  0  0
 33 35  1  6  0  0  0
 33  1  1  0  0  0  0
 33 36  1  0  0  0  0
 35 34  1  0  0  0  0
 36 38  1  0  0  0  0
 37 39  2  0  0  0  0
 37 41  1  0  0  0  0
 38 37  1  0  0  0  0
 40 41  2  0  0  0  0
 41 42  1  0  0  0  0
 42 43  2  0  0  0  0
 43 44  2  0  0  0  0
 44 60  1  0  0  0  0
 44 45  1  0  0  0  0
 45 46  1  0  0  0  0
 46 52  1  0  0  0  0
 47 49  2  0  0  0  0
 48 47  1  0  0  0  0
 50 47  1  0  0  0  0
 51 53  2  0  0  0  0
 51 52  1  0  0  0  0
 52 48  2  0  0  0  0
 53 50  1  0  0  0  0
 54 53  1  0  0  0  0
 56 55  1  1  0  0  0
 56 54  1  0  0  0  0
 57 56  1  0  0  0  0
 58 57  1  0  0  0  0
 59 57  1  0  0  0  0
 60 61  1  0  0  0  0
 61 62  1  0  0  0  0
M  END
>  <MODEL>
8

>  <REMARK>
 VINA RESULT:      -3.9      3.028      4.603
  Name = 
  24 active torsions:
  status: ('A' for Active; 'I' for Inactive)
    1  A    between atoms: C_1  and  C_9
    2  A    between atoms: C_1  and  N_35
    3  A    between atoms: C_1  and  N_61
    4  A    between atoms: C_4  and  O_34
    5  A    between atoms: C_4  and  C_58
    6  A    between atoms: N_5  and  C_9
    7  A    between atoms: C_6  and  C_10
    8  A    between atoms: C_6  and  C_27
    9  A    between atoms: C_6  and  C_59
   10  A    between atoms: C_8  and  C_24
   11  A    between atoms: C_10  and  N_45
   12  A    between atoms: C_14  and  C_39
   13  A    between atoms: O_15  and  O_46
   14  A    between atoms: O_15  and  C_58
   15  A    between atoms: C_18  and  C_52
   16  A    between atoms: O_21  and  C_52
   17  A    between atoms: O_21  and  C_56
   18  A    between atoms: C_24  and  N_35
   19  A    between atoms: C_25  and  N_40
   20  A    between atoms: N_26  and  C_33
   21  A    between atoms: C_30  and  C_39
   22  A    between atoms: C_33  and  C_62
   23  A    between atoms: N_41  and  C_48
   24  A    between atoms: O_46  and  C_55
                            x       y       z     vdW  Elec       q    Type
                         _______ _______ _______ _____ _____    ______ ____

>  <TORSDO>
F 24

$$$$
=
 OpenBabel10232410093D

 62 65  0  0  1  0  0  0  0  0999 V2000
  191.2390  176.9290  140.5460 C   0  0  0  0  0  0  0  0  0  0  0  0
  190.9320  175.7130  140.6920 O   0  0  0  0  0  0  0  0  0  0  0  0
  191.0290  177.8420  141.6280 N   0  0  0  0  0  2  0  0  0  0  0  0
  187.1310  177.6280  144.6650 N   0  0  0  0  0  2  0  0  0  0  0  0
  189.3750  178.4220  144.7690 N   0  0  0  0  0  0  0  0  0  0  0  0
  190.5950  178.4660  143.9920 C   0  0  0  0  0  2  0  0  0  0  0  0
  188.4240  177.8700  144.0950 C   0  0  0  0  0  0  0  0  0  0  0  0
  190.3520  177.4700  142.8770 C   0  0  1  0  0  3  0  0  0  0  0  0
  188.8200  177.3570  142.7600 C   0  0  2  0  0  3  0  0  0  0  0  0
  186.3980  179.1880  140.3700 C   0  0  0  0  0  1  0  0  0  0  0  0
  186.9010  178.2020  141.3650 C   0  0  0  0  0  0  0  0  0  0  0  0
  186.1010  177.3790  141.8970 O   0  0  0  0  0  0  0  0  0  0  0  0
  188.2870  178.2330  141.7270 N   0  0  0  0  0  2  0  0  0  0  0  0
  186.9530  177.6280  146.1130 C   0  0  0  0  0  2  0  0  0  0  0  0
  186.3160  178.9230  146.6270 C   0  0  1  0  0  3  0  0  0  0  0  0
  184.9090  178.6760  146.8600 N   0  0  0  0  0  0  0  0  0  0  0  0
  184.0210  178.6100  145.9260 C   0  0  0  0  0  3  0  0  0  0  0  0
  184.3390  178.7490  144.4600 C   0  0  0  0  0  2  0  0  0  0  0  0
  181.3810  177.1700  139.2700 C   0  0  0  0  0  3  0  0  0  0  0  0
  180.2080  178.9110  140.5730 C   0  0  0  0  0  2  0  0  0  0  0  0
  183.1560  178.5420  143.6310 N   0  0  0  0  0  0  0  0  0  0  0  0
  183.3120  177.7010  142.4270 C   0  0  0  0  0  2  0  0  0  0  0  0
  180.9700  179.3240  142.9370 C   0  0  0  0  0  3  0  0  0  0  0  0
  180.2420  177.8330  139.5320 C   0  0  0  0  0  3  0  0  0  0  0  0
  181.0370  178.4130  141.7480 C   0  0  2  0  0  3  0  0  0  0  0  0
  182.4920  178.2810  141.2810 C   0  0  2  0  0  3  0  0  0  0  0  0
  182.6790  177.5120  139.9670 C   0  0  0  0  0  2  0  0  0  0  0  0
  181.9790  179.3520  143.8200 C   0  0  0  0  0  3  0  0  0  0  0  0
  186.9430  179.3560  147.8770 N   0  0  0  0  0  2  0  0  0  0  0  0
  187.8000  178.2520  148.3170 C   0  0  0  0  0  2  0  0  0  0  0  0
  189.2430  178.7040  148.3060 C   0  0  0  0  0  2  0  0  0  0  0  0
  190.1590  177.5430  147.9090 C   0  0  0  0  0  1  0  0  0  0  0  0
  191.9370  177.3630  139.2740 C   0  0  2  0  0  3  0  0  0  0  0  0
  189.8100  178.4940  138.5960 C   0  0  0  0  0  1  0  0  0  0  0  0
  190.9690  177.6140  138.1250 C   0  0  0  0  0  2  0  0  0  0  0  0
  192.9480  176.3180  138.8380 C   0  0  0  0  0  2  0  0  0  0  0  0
  193.6620  176.2150  136.4190 C   0  0  0  0  0  0  0  0  0  0  0  0
  193.7210  176.8110  137.7120 N   0  0  0  0  0  2  0  0  0  0  0  0
  194.5360  176.5220  135.5630 O   0  0  0  0  0  0  0  0  0  0  0  0
  192.3180  173.9740  137.0170 S   0  0  0  0  0  0  0  0  0  0  0  0
  192.5940  175.2730  136.0630 C   0  0  0  0  0  0  0  0  0  0  0  0
  191.8260  175.4100  134.8140 C   0  0  0  0  0  3  0  0  0  0  0  0
  190.5700  175.7910  134.7970 C   0  0  0  0  0  0  0  0  0  0  0  0
  189.3190  176.1400  134.8190 C   0  0  0  0  0  0  0  0  0  0  0  0
  188.3170  175.2280  134.4710 O   0  0  0  0  0  0  0  0  0  0  0  0
  187.6460  174.5310  135.4370 O   0  0  0  0  0  0  0  0  0  0  0  0
  187.9030  170.8870  135.0820 C   0  0  0  0  0  0  0  0  0  0  0  0
  188.2240  172.2680  135.2650 N   0  0  0  0  0  0  0  0  0  0  0  0
  188.7590  170.0000  135.3810 O   0  0  0  0  0  0  0  0  0  0  0  0
  186.5520  170.4730  134.5750 C   0  0  0  0  0  2  0  0  0  0  0  0
  185.9090  172.8450  134.9740 C   0  0  0  0  0  3  0  0  0  0  0  0
  187.3090  173.1960  135.2160 C   0  0  0  0  0  0  0  0  0  0  0  0
  185.5290  171.5910  134.7270 C   0  0  0  0  0  0  0  0  0  0  0  0
  184.1620  171.3410  134.5730 O   0  0  0  0  0  0  0  0  0  0  0  0
  182.3680  171.6950  136.0750 C   0  0  0  0  0  1  0  0  0  0  0  0
  183.3530  170.6740  135.5350 C   0  0  1  0  0  3  0  0  0  0  0  0
  182.5860  169.5360  134.8380 C   0  0  0  0  0  3  0  0  0  0  0  0
  183.3400  168.3510  134.8790 O   0  0  0  0  0  1  0  0  0  0  0  0
  181.3560  169.3480  135.4760 O   0  0  0  0  0  1  0  0  0  0  0  0
  188.9220  177.5200  135.2540 C   0  0  0  0  0  2  0  0  0  0  0  0
  187.6260  177.4770  135.7840 O   0  0  0  0  0  0  0  0  0  0  0  0
  187.3930  178.7130  136.2170 O   0  0  0  0  0  1  0  0  0  0  0  0
  1  2  2  0  0  0  0
  1  3  1  0  0  0  0
  4 14  1  0  0  0  0
  6  5  1  0  0  0  0
  7  4  1  0  0  0  0
  7  5  2  0  0  0  0
  8  3  1  6  0  0  0
  8  6  1  0  0  0  0
  9 13  1  6  0  0  0
  9  8  1  0  0  0  0
  9  7  1  0  0  0  0
 10 11  1  0  0  0  0
 11 13  1  0  0  0  0
 11 12  2  0  0  0  0
 15 14  1  1  0  0  0
 15 16  1  0  0  0  0
 15 29  1  0  0  0  0
 17 16  2  0  0  0  0
 18 17  1  0  0  0  0
 19 24  2  0  0  0  0
 19 27  1  0  0  0  0
 21 28  1  0  0  0  0
 21 18  1  0  0  0  0
 22 21  1  0  0  0  0
 23 28  2  0  0  0  0
 24 20  1  0  0  0  0
 25 20  1  6  0  0  0
 25 23  1  0  0  0  0
 26 27  1  6  0  0  0
 26 25  1  0  0  0  0
 26 22  1  0  0  0  0
 29 30  1  0  0  0  0
 31 30  1  0  0  0  0
 32 31  1  0  0  0  0
 33 35  1  6  0  0  0
 33  1  1  0  0  0  0
 35 34  1  0  0  0  0
 36 33  1  0  0  0  0
 37 38  1  0  0  0  0
 38 36  1  0  0  0  0
 39 37  2  0  0  0  0
 41 37  1  0  0  0  0
 41 40  2  0  0  0  0
 42 41  1  0  0  0  0
 43 42  2  0  0  0  0
 43 44  2  0  0  0  0
 44 60  1  0  0  0  0
 45 44  1  0  0  0  0
 45 46  1  0  0  0  0
 47 48  1  0  0  0  0
 47 49  2  0  0  0  0
 50 53  1  0  0  0  0
 50 47  1  0  0  0  0
 51 52  1  0  0  0  0
 52 48  2  0  0  0  0
 52 46  1  0  0  0  0
 53 51  2  0  0  0  0
 54 53  1  0  0  0  0
 54 56  1  0  0  0  0
 56 55  1  6  0  0  0
 57 58  1  0  0  0  0
 57 59  1  0  0  0  0
 57 56  1  0  0  0  0
 60 61  1  0  0  0  0
 61 62  1  0  0  0  0
M  END
>  <MODEL>
9

>  <REMARK>
 VINA RESULT:      -3.5      3.307     10.055
  Name = 
  24 active torsions:
  status: ('A' for Active; 'I' for Inactive)
    1  A    between atoms: C_1  and  C_9
    2  A    between atoms: C_1  and  N_35
    3  A    between atoms: C_1  and  N_61
    4  A    between atoms: C_4  and  O_34
    5  A    between atoms: C_4  and  C_58
    6  A    between atoms: N_5  and  C_9
    7  A    between atoms: C_6  and  C_10
    8  A    between atoms: C_6  and  C_27
    9  A    between atoms: C_6  and  C_59
   10  A    between atoms: C_8  and  C_24
   11  A    between atoms: C_10  and  N_45
   12  A    between atoms: C_14  and  C_39
   13  A    between atoms: O_15  and  O_46
   14  A    between atoms: O_15  and  C_58
   15  A    between atoms: C_18  and  C_52
   16  A    between atoms: O_21  and  C_52
   17  A    between atoms: O_21  and  C_56
   18  A    between atoms: C_24  and  N_35
   19  A    between atoms: C_25  and  N_40
   20  A    between atoms: N_26  and  C_33
   21  A    between atoms: C_30  and  C_39
   22  A    between atoms: C_33  and  C_62
   23  A    between atoms: N_41  and  C_48
   24  A    between atoms: O_46  and  C_55
                            x       y       z     vdW  Elec       q    Type
                         _______ _______ _______ _____ _____    ______ ____

>  <TORSDO>
F 24

$$$$
