=
 OpenBabel10232409413D

 35 40  0  0  1  0  0  0  0  0999 V2000
  188.5840  177.7150  145.0190 N   0  0  0  0  0  0  0  0  0  0  0  0
  191.1530  177.0080  147.5660 C   0  0  2  0  0  3  0  0  0  0  0  0
  190.9050  176.9000  145.1380 C   0  0  0  0  0  2  0  0  0  0  0  0
  189.8870  177.8890  145.6770 C   0  0  2  0  0  3  0  0  0  0  0  0
  191.2340  175.5410  147.1940 C   0  0  0  0  0  2  0  0  0  0  0  0
  189.8050  177.5760  147.1610 C   0  0  0  0  0  2  0  0  0  0  0  0
  191.8520  176.5820  146.2820 C   0  0  2  0  0  3  0  0  0  0  0  0
  188.6840  176.6650  144.0870 N   0  0  0  0  0  2  0  0  0  0  0  0
  188.0320  177.1190  142.8690 C   0  0  0  0  0  2  0  0  0  0  0  0
  188.9660  178.0320  142.0900 C   0  0  0  0  0  2  0  0  0  0  0  0
  189.3690  177.7560  139.6000 C   0  0  0  0  0  0  0  0  0  0  0  0
  189.5390  177.3210  140.9520 N   0  0  0  0  0  2  0  0  0  0  0  0
  188.6390  178.7510  139.3410 O   0  0  0  0  0  0  0  0  0  0  0  0
  191.5670  176.1290  138.8030 S   0  0  0  0  0  0  0  0  0  0  0  0
  190.6760  176.3620  136.0130 S   0  0  0  0  0  0  0  0  0  0  0  0
  192.1130  176.5370  137.1130 C   0  0  2  0  0  3  0  0  0  0  0  0
  189.6860  177.1920  137.2440 C   0  0  0  0  0  3  0  0  0  0  0  0
  190.0680  177.0620  138.5070 C   0  0  0  0  0  0  0  0  0  0  0  0
  194.9790  173.9270  137.1850 C   0  0  0  0  0  2  0  0  0  0  0  0
  193.2950  175.6890  136.6440 C   0  0  2  0  0  3  0  0  0  0  0  0
  193.8430  174.7770  137.7470 C   0  0  0  0  0  2  0  0  0  0  0  0
  195.3790  175.7170  135.4970 C   0  0  0  0  0  2  0  0  0  0  0  0
  196.0360  174.8180  136.5420 C   0  0  0  0  0  2  0  0  0  0  0  0
  194.3570  176.5530  136.1240 N   0  0  0  0  0  2  0  0  0  0  0  0
  187.5440  177.3580  145.9980 C   0  0  0  0  0  2  0  0  0  0  0  0
  186.1180  177.4470  145.4450 C   0  0  0  0  0  2  0  0  0  0  0  0
  184.1320  178.9460  145.4710 C   0  0  0  0  0  2  0  0  0  0  0  0
  184.8160  179.2620  144.1540 C   0  0  1  0  0  3  0  0  0  0  0  0
  185.6440  178.8980  145.3930 C   0  0  2  0  0  3  0  0  0  0  0  0
  184.5800  178.1120  143.1790 C   0  0  0  0  0  2  0  0  0  0  0  0
  185.4660  179.1290  141.0100 C   0  0  0  0  0  3  0  0  0  0  0  0
  184.9220  179.4790  139.8270 N   0  0  0  0  0  0  0  0  0  0  0  0
  183.3270  178.6790  141.1170 O   0  0  0  0  0  0  0  0  0  0  0  0
  184.4470  178.6390  141.7930 C   0  0  0  0  0  0  0  0  0  0  0  0
  183.6080  179.1850  139.9380 C   0  0  0  0  0  3  0  0  0  0  0  0
  1 25  1  0  0  0  0
  2  6  1  6  0  0  0
  3  4  1  0  0  0  0
  4  1  1  6  0  0  0
  4  6  1  0  0  0  0
  5  2  1  0  0  0  0
  7  3  1  6  0  0  0
  7  5  1  0  0  0  0
  7  2  1  0  0  0  0
  8  1  1  0  0  0  0
  9  8  1  0  0  0  0
 10  9  1  0  0  0  0
 11 12  1  0  0  0  0
 12 10  1  0  0  0  0
 13 11  2  0  0  0  0
 15 17  1  0  0  0  0
 16 15  1  6  0  0  0
 16 14  1  0  0  0  0
 17 18  2  0  0  0  0
 18 14  1  0  0  0  0
 18 11  1  0  0  0  0
 19 21  1  0  0  0  0
 20 16  1  0  0  0  0
 20 21  1  1  0  0  0
 22 24  1  0  0  0  0
 22 23  1  0  0  0  0
 23 19  1  0  0  0  0
 24 20  1  0  0  0  0
 26 25  1  0  0  0  0
 28 30  1  6  0  0  0
 28 29  1  0  0  0  0
 28 27  1  0  0  0  0
 29 26  1  6  0  0  0
 29 27  1  0  0  0  0
 31 34  2  0  0  0  0
 32 35  2  0  0  0  0
 32 31  1  0  0  0  0
 33 34  1  0  0  0  0
 34 30  1  0  0  0  0
 35 33  1  0  0  0  0
M  END
>  <MODEL>
1

>  <REMARK>
 VINA RESULT:      -8.0      0.000      0.000
  Name = 
  12 active torsions:
  status: ('A' for Active; 'I' for Inactive)
    1  A    between atoms: C_5  and  C_17
    2  A    between atoms: C_9  and  C_23
    3  A    between atoms: C_11  and  N_19
    4  A    between atoms: N_13  and  C_15
    5  A    between atoms: C_14  and  C_29
    6  A    between atoms: C_15  and  C_34
    7  A    between atoms: N_19  and  N_28
    8  A    between atoms: N_19  and  C_33
    9  A    between atoms: N_28  and  C_34
   10  A    between atoms: C_29  and  C_31
   11  A    between atoms: C_32  and  C_33
   12  A    between atoms: C_32  and  C_35
                            x       y       z     vdW  Elec       q    Type
                         _______ _______ _______ _____ _____    ______ ____

>  <TORSDO>
F 12

$$$$
=
 OpenBabel10232409413D

 35 40  0  0  1  0  0  0  0  0999 V2000
  184.2080  176.1640  137.7900 N   0  0  0  0  0  0  0  0  0  0  0  0
  185.8020  173.3740  135.9830 C   0  0  2  0  0  3  0  0  0  0  0  0
  184.1370  173.7020  137.7410 C   0  0  0  0  0  2  0  0  0  0  0  0
  184.2230  174.9780  136.9210 C   0  0  2  0  0  3  0  0  0  0  0  0
  186.3970  172.7880  137.2470 C   0  0  0  0  0  2  0  0  0  0  0  0
  185.5360  174.8580  136.1690 C   0  0  0  0  0  2  0  0  0  0  0  0
  184.9120  172.6420  136.9780 C   0  0  2  0  0  3  0  0  0  0  0  0
  184.5110  177.2970  137.0150 N   0  0  0  0  0  2  0  0  0  0  0  0
  185.3530  178.1560  137.8340 C   0  0  0  0  0  2  0  0  0  0  0  0
  186.8190  177.8820  137.5350 C   0  0  0  0  0  2  0  0  0  0  0  0
  188.5820  178.1770  139.3360 C   0  0  0  0  0  0  0  0  0  0  0  0
  187.5090  177.4410  138.7410 N   0  0  0  0  0  2  0  0  0  0  0  0
  189.0210  179.2180  138.7770 O   0  0  0  0  0  0  0  0  0  0  0  0
  188.2990  177.9980  142.1640 S   0  0  0  0  0  0  0  0  0  0  0  0
  190.9900  176.8310  142.3190 S   0  0  0  0  0  0  0  0  0  0  0  0
  189.9130  178.1280  143.0000 C   0  0  2  0  0  3  0  0  0  0  0  0
  190.3860  177.2420  140.6920 C   0  0  0  0  0  3  0  0  0  0  0  0
  189.1590  177.7390  140.6150 C   0  0  0  0  0  0  0  0  0  0  0  0
  190.7040  177.0980  146.6530 C   0  0  0  0  0  2  0  0  0  0  0  0
  189.8080  178.0410  144.5220 C   0  0  2  0  0  3  0  0  0  0  0  0
  190.8380  177.0840  145.1330 C   0  0  0  0  0  2  0  0  0  0  0  0
  188.3220  177.7710  146.3600 C   0  0  0  0  0  2  0  0  0  0  0  0
  189.2660  176.7950  147.0580 C   0  0  0  0  0  2  0  0  0  0  0  0
  188.4530  177.6450  144.9090 N   0  0  0  0  0  2  0  0  0  0  0  0
  182.8760  176.3610  138.3870 C   0  0  0  0  0  2  0  0  0  0  0  0
  182.9030  176.5690  139.9040 C   0  0  0  0  0  2  0  0  0  0  0  0
  182.4190  179.0100  139.8800 C   0  0  0  0  0  2  0  0  0  0  0  0
  182.4490  178.6530  141.3550 C   0  0  1  0  0  3  0  0  0  0  0  0
  181.9120  177.6540  140.3230 C   0  0  2  0  0  3  0  0  0  0  0  0
  183.8950  178.4190  141.7840 C   0  0  0  0  0  2  0  0  0  0  0  0
  183.0900  179.1790  144.0860 C   0  0  0  0  0  3  0  0  0  0  0  0
  183.5940  179.1380  145.3350 N   0  0  0  0  0  0  0  0  0  0  0  0
  185.0580  178.2280  143.9640 O   0  0  0  0  0  0  0  0  0  0  0  0
  184.0270  178.6100  143.2540 C   0  0  0  0  0  0  0  0  0  0  0  0
  184.8030  178.5460  145.2130 C   0  0  0  0  0  3  0  0  0  0  0  0
  1 25  1  0  0  0  0
  2  6  1  1  0  0  0
  2  7  1  0  0  0  0
  2  5  1  0  0  0  0
  4  3  1  0  0  0  0
  4  1  1  1  0  0  0
  6  4  1  0  0  0  0
  7  5  1  1  0  0  0
  7  3  1  0  0  0  0
  8  1  1  0  0  0  0
  8  9  1  0  0  0  0
 10  9  1  0  0  0  0
 10 12  1  0  0  0  0
 11 18  1  0  0  0  0
 12 11  1  0  0  0  0
 13 11  2  0  0  0  0
 15 16  1  0  0  0  0
 16 14  1  6  0  0  0
 16 20  1  0  0  0  0
 17 15  1  0  0  0  0
 18 17  2  0  0  0  0
 18 14  1  0  0  0  0
 19 23  1  0  0  0  0
 20 24  1  0  0  0  0
 20 21  1  6  0  0  0
 21 19  1  0  0  0  0
 22 23  1  0  0  0  0
 24 22  1  0  0  0  0
 25 26  1  0  0  0  0
 27 29  1  0  0  0  0
 27 28  1  0  0  0  0
 28 30  1  6  0  0  0
 29 26  1  6  0  0  0
 29 28  1  0  0  0  0
 30 34  1  0  0  0  0
 31 32  1  0  0  0  0
 33 35  1  0  0  0  0
 34 33  1  0  0  0  0
 34 31  2  0  0  0  0
 35 32  2  0  0  0  0
M  END
>  <MODEL>
2

>  <REMARK>
 VINA RESULT:      -7.6      3.403      7.900
  Name = 
  12 active torsions:
  status: ('A' for Active; 'I' for Inactive)
    1  A    between atoms: C_5  and  C_17
    2  A    between atoms: C_9  and  C_23
    3  A    between atoms: C_11  and  N_19
    4  A    between atoms: N_13  and  C_15
    5  A    between atoms: C_14  and  C_29
    6  A    between atoms: C_15  and  C_34
    7  A    between atoms: N_19  and  N_28
    8  A    between atoms: N_19  and  C_33
    9  A    between atoms: N_28  and  C_34
   10  A    between atoms: C_29  and  C_31
   11  A    between atoms: C_32  and  C_33
   12  A    between atoms: C_32  and  C_35
                            x       y       z     vdW  Elec       q    Type
                         _______ _______ _______ _____ _____    ______ ____

>  <TORSDO>
F 12

$$$$
=
 OpenBabel10232409413D

 35 40  0  0  1  0  0  0  0  0999 V2000
  186.0580  176.2220  137.3270 N   0  0  0  0  0  0  0  0  0  0  0  0
  184.6270  173.1060  135.9720 C   0  0  2  0  0  3  0  0  0  0  0  0
  183.9950  174.8890  137.5180 C   0  0  0  0  0  2  0  0  0  0  0  0
  185.0690  175.4240  136.5860 C   0  0  2  0  0  3  0  0  0  0  0  0
  184.5190  172.4650  137.3410 C   0  0  0  0  0  2  0  0  0  0  0  0
  185.6990  174.1820  135.9820 C   0  0  0  0  0  2  0  0  0  0  0  0
  183.5460  173.5570  136.9440 C   0  0  2  0  0  3  0  0  0  0  0  0
  187.3390  175.9350  136.8240 N   0  0  0  0  0  2  0  0  0  0  0  0
  187.8800  177.1830  136.3070 C   0  0  0  0  0  2  0  0  0  0  0  0
  189.3420  177.3170  136.7020 C   0  0  0  0  0  2  0  0  0  0  0  0
  189.2950  177.9280  139.1640 C   0  0  0  0  0  0  0  0  0  0  0  0
  189.5210  176.9870  138.1100 N   0  0  0  0  0  2  0  0  0  0  0  0
  188.9990  179.1230  138.8930 O   0  0  0  0  0  0  0  0  0  0  0  0
  188.2920  178.1780  141.8180 S   0  0  0  0  0  0  0  0  0  0  0  0
  190.3710  176.3170  142.7360 S   0  0  0  0  0  0  0  0  0  0  0  0
  189.6140  177.9400  143.0490 C   0  0  2  0  0  3  0  0  0  0  0  0
  190.3380  176.6850  140.9910 C   0  0  0  0  0  3  0  0  0  0  0  0
  189.3800  177.5000  140.5680 C   0  0  0  0  0  0  0  0  0  0  0  0
  189.4580  177.5110  146.9000 C   0  0  0  0  0  2  0  0  0  0  0  0
  189.1200  178.0700  144.4900 C   0  0  2  0  0  3  0  0  0  0  0  0
  189.9810  177.2830  145.4850 C   0  0  0  0  0  2  0  0  0  0  0  0
  187.2160  177.9740  145.9130 C   0  0  0  0  0  2  0  0  0  0  0  0
  187.9720  177.1750  146.9730 C   0  0  0  0  0  2  0  0  0  0  0  0
  187.7220  177.6470  144.5810 N   0  0  0  0  0  2  0  0  0  0  0  0
  185.8100  177.6620  137.1490 C   0  0  0  0  0  2  0  0  0  0  0  0
  185.3560  178.3730  138.4270 C   0  0  0  0  0  2  0  0  0  0  0  0
  183.3790  179.7260  139.1020 C   0  0  0  0  0  2  0  0  0  0  0  0
  183.2760  178.4720  139.9500 C   0  0  1  0  0  3  0  0  0  0  0  0
  183.8320  178.4030  138.5220 C   0  0  2  0  0  3  0  0  0  0  0  0
  184.3340  178.5220  141.0490 C   0  0  0  0  0  2  0  0  0  0  0  0
  184.3090  178.6000  143.6020 C   0  0  0  0  0  3  0  0  0  0  0  0
  183.3590  178.7720  144.5430 N   0  0  0  0  0  0  0  0  0  0  0  0
  182.3990  178.8470  142.5630 O   0  0  0  0  0  0  0  0  0  0  0  0
  183.6790  178.6460  142.3800 C   0  0  0  0  0  0  0  0  0  0  0  0
  182.2030  178.9200  143.8590 C   0  0  0  0  0  3  0  0  0  0  0  0
  2  6  1  1  0  0  0
  2  7  1  0  0  0  0
  2  5  1  0  0  0  0
  4  1  1  1  0  0  0
  4  3  1  0  0  0  0
  6  4  1  0  0  0  0
  7  5  1  1  0  0  0
  7  3  1  0  0  0  0
  8  1  1  0  0  0  0
  9 10  1  0  0  0  0
  9  8  1  0  0  0  0
 10 12  1  0  0  0  0
 11 18  1  0  0  0  0
 12 11  1  0  0  0  0
 13 11  2  0  0  0  0
 15 16  1  0  0  0  0
 16 14  1  6  0  0  0
 16 20  1  0  0  0  0
 17 15  1  0  0  0  0
 18 17  2  0  0  0  0
 18 14  1  0  0  0  0
 19 23  1  0  0  0  0
 20 24  1  0  0  0  0
 20 21  1  1  0  0  0
 21 19  1  0  0  0  0
 22 23  1  0  0  0  0
 24 22  1  0  0  0  0
 25  1  1  0  0  0  0
 25 26  1  0  0  0  0
 27 28  1  0  0  0  0
 28 30  1  1  0  0  0
 29 26  1  1  0  0  0
 29 27  1  0  0  0  0
 29 28  1  0  0  0  0
 30 34  1  0  0  0  0
 31 32  1  0  0  0  0
 33 35  1  0  0  0  0
 34 33  1  0  0  0  0
 34 31  2  0  0  0  0
 35 32  2  0  0  0  0
M  END
>  <MODEL>
3

>  <REMARK>
 VINA RESULT:      -7.5      3.292      8.117
  Name = 
  12 active torsions:
  status: ('A' for Active; 'I' for Inactive)
    1  A    between atoms: C_5  and  C_17
    2  A    between atoms: C_9  and  C_23
    3  A    between atoms: C_11  and  N_19
    4  A    between atoms: N_13  and  C_15
    5  A    between atoms: C_14  and  C_29
    6  A    between atoms: C_15  and  C_34
    7  A    between atoms: N_19  and  N_28
    8  A    between atoms: N_19  and  C_33
    9  A    between atoms: N_28  and  C_34
   10  A    between atoms: C_29  and  C_31
   11  A    between atoms: C_32  and  C_33
   12  A    between atoms: C_32  and  C_35
                            x       y       z     vdW  Elec       q    Type
                         _______ _______ _______ _____ _____    ______ ____

>  <TORSDO>
F 12

$$$$
=
 OpenBabel10232409413D

 35 40  0  0  1  0  0  0  0  0999 V2000
  185.9440  176.0500  136.0600 N   0  0  0  0  0  0  0  0  0  0  0  0
  186.5630  172.4660  136.6600 C   0  0  2  0  0  3  0  0  0  0  0  0
  185.8690  173.9210  134.8240 C   0  0  0  0  0  2  0  0  0  0  0  0
  186.6190  174.7620  135.8420 C   0  0  2  0  0  3  0  0  0  0  0  0
  185.1360  172.0800  136.3270 C   0  0  0  0  0  2  0  0  0  0  0  0
  186.6230  173.9170  137.1030 C   0  0  0  0  0  2  0  0  0  0  0  0
  186.0880  172.4690  135.2130 C   0  0  2  0  0  3  0  0  0  0  0  0
  185.3310  176.0310  137.3260 N   0  0  0  0  0  2  0  0  0  0  0  0
  183.9030  176.2000  137.1070 C   0  0  0  0  0  2  0  0  0  0  0  0
  183.4560  177.5600  137.6190 C   0  0  0  0  0  2  0  0  0  0  0  0
  184.1770  178.8620  139.6750 C   0  0  0  0  0  0  0  0  0  0  0  0
  183.6960  177.6660  139.0540 N   0  0  0  0  0  2  0  0  0  0  0  0
  184.4850  179.8610  138.9710 O   0  0  0  0  0  0  0  0  0  0  0  0
  185.8710  179.1700  141.9430 S   0  0  0  0  0  0  0  0  0  0  0  0
  183.5400  178.7750  143.6880 S   0  0  0  0  0  0  0  0  0  0  0  0
  185.2430  178.2250  143.3700 C   0  0  2  0  0  3  0  0  0  0  0  0
  183.2430  178.7310  141.9290 C   0  0  0  0  0  3  0  0  0  0  0  0
  184.2880  178.9410  141.1390 C   0  0  0  0  0  0  0  0  0  0  0  0
  188.0570  177.4930  145.9350 C   0  0  0  0  0  2  0  0  0  0  0  0
  186.1260  178.3580  144.6110 C   0  0  2  0  0  3  0  0  0  0  0  0
  187.1860  177.2550  144.7050 C   0  0  0  0  0  2  0  0  0  0  0  0
  186.1380  178.7060  146.9640 C   0  0  0  0  0  2  0  0  0  0  0  0
  187.1870  177.6170  147.1810 C   0  0  0  0  0  2  0  0  0  0  0  0
  185.2960  178.3710  145.8170 N   0  0  0  0  0  2  0  0  0  0  0  0
  186.9110  177.1610  136.0370 C   0  0  0  0  0  2  0  0  0  0  0  0
  187.1390  177.8080  137.4060 C   0  0  0  0  0  2  0  0  0  0  0  0
  189.6240  177.7170  137.5100 C   0  0  0  0  0  2  0  0  0  0  0  0
  189.2340  178.5610  138.7100 C   0  0  1  0  0  3  0  0  0  0  0  0
  188.4240  178.6350  137.4100 C   0  0  2  0  0  3  0  0  0  0  0  0
  188.6410  177.6560  139.7870 C   0  0  0  0  0  2  0  0  0  0  0  0
  190.7440  176.9410  141.0470 C   0  0  0  0  0  3  0  0  0  0  0  0
  191.2470  177.1760  142.2750 N   0  0  0  0  0  0  0  0  0  0  0  0
  189.3260  178.2360  142.0960 O   0  0  0  0  0  0  0  0  0  0  0  0
  189.5450  177.6100  140.9680 C   0  0  0  0  0  0  0  0  0  0  0  0
  190.3440  177.9750  142.8840 C   0  0  0  0  0  3  0  0  0  0  0  0
  1  8  1  0  0  0  0
  2  5  1  1  0  0  0
  2  6  1  0  0  0  0
  3  4  1  0  0  0  0
  4  1  1  1  0  0  0
  4  6  1  0  0  0  0
  7  3  1  1  0  0  0
  7  5  1  0  0  0  0
  7  2  1  0  0  0  0
  9  8  1  0  0  0  0
  9 10  1  0  0  0  0
 10 12  1  0  0  0  0
 11 18  1  0  0  0  0
 12 11  1  0  0  0  0
 13 11  2  0  0  0  0
 16 14  1  6  0  0  0
 16 15  1  0  0  0  0
 16 20  1  0  0  0  0
 17 15  1  0  0  0  0
 18 17  2  0  0  0  0
 18 14  1  0  0  0  0
 19 23  1  0  0  0  0
 20 21  1  1  0  0  0
 20 24  1  0  0  0  0
 21 19  1  0  0  0  0
 22 23  1  0  0  0  0
 24 22  1  0  0  0  0
 25  1  1  0  0  0  0
 25 26  1  0  0  0  0
 27 28  1  0  0  0  0
 28 30  1  1  0  0  0
 29 26  1  1  0  0  0
 29 27  1  0  0  0  0
 29 28  1  0  0  0  0
 30 34  1  0  0  0  0
 31 32  1  0  0  0  0
 32 35  2  0  0  0  0
 33 35  1  0  0  0  0
 34 31  2  0  0  0  0
 34 33  1  0  0  0  0
M  END
>  <MODEL>
4

>  <REMARK>
 VINA RESULT:      -7.2      3.720      9.501
  Name = 
  12 active torsions:
  status: ('A' for Active; 'I' for Inactive)
    1  A    between atoms: C_5  and  C_17
    2  A    between atoms: C_9  and  C_23
    3  A    between atoms: C_11  and  N_19
    4  A    between atoms: N_13  and  C_15
    5  A    between atoms: C_14  and  C_29
    6  A    between atoms: C_15  and  C_34
    7  A    between atoms: N_19  and  N_28
    8  A    between atoms: N_19  and  C_33
    9  A    between atoms: N_28  and  C_34
   10  A    between atoms: C_29  and  C_31
   11  A    between atoms: C_32  and  C_33
   12  A    between atoms: C_32  and  C_35
                            x       y       z     vdW  Elec       q    Type
                         _______ _______ _______ _____ _____    ______ ____

>  <TORSDO>
F 12

$$$$
=
 OpenBabel10232409413D

 35 40  0  0  1  0  0  0  0  0999 V2000
  188.0510  177.9990  142.6860 N   0  0  0  0  0  0  0  0  0  0  0  0
  191.0570  176.1350  143.7240 C   0  0  2  0  0  3  0  0  0  0  0  0
  190.1380  178.3890  143.9330 C   0  0  0  0  0  2  0  0  0  0  0  0
  188.9920  177.4300  143.6620 C   0  0  2  0  0  3  0  0  0  0  0  0
  191.9890  177.0480  142.9530 C   0  0  0  0  0  2  0  0  0  0  0  0
  189.6640  176.1800  143.1220 C   0  0  0  0  0  2  0  0  0  0  0  0
  191.3560  177.5350  144.2410 C   0  0  2  0  0  3  0  0  0  0  0  0
  188.3860  177.5260  141.4040 N   0  0  0  0  0  2  0  0  0  0  0  0
  187.7100  178.3860  140.4460 C   0  0  0  0  0  2  0  0  0  0  0  0
  188.6190  178.6500  139.2550 C   0  0  0  0  0  2  0  0  0  0  0  0
  190.0380  177.1800  137.7500 C   0  0  0  0  0  0  0  0  0  0  0  0
  189.5110  177.5180  139.0360 N   0  0  0  0  0  2  0  0  0  0  0  0
  189.6760  177.8250  136.7290 O   0  0  0  0  0  0  0  0  0  0  0  0
  192.7260  176.3190  138.1250 S   0  0  0  0  0  0  0  0  0  0  0  0
  192.0450  173.7660  136.8410 S   0  0  0  0  0  0  0  0  0  0  0  0
  193.2320  175.1440  136.8270 C   0  0  2  0  0  3  0  0  0  0  0  0
  190.7280  174.9570  137.0080 C   0  0  0  0  0  3  0  0  0  0  0  0
  191.0250  176.0980  137.6160 C   0  0  0  0  0  0  0  0  0  0  0  0
  196.4760  173.1050  136.2320 C   0  0  0  0  0  2  0  0  0  0  0  0
  194.6720  174.6570  136.9870 C   0  0  2  0  0  3  0  0  0  0  0  0
  195.0110  173.4910  136.0510 C   0  0  0  0  0  2  0  0  0  0  0  0
  196.3510  174.0210  138.5470 C   0  0  0  0  0  2  0  0  0  0  0  0
  196.7680  172.8200  137.7010 C   0  0  0  0  0  2  0  0  0  0  0  0
  194.9220  174.2820  138.3790 N   0  0  0  0  0  2  0  0  0  0  0  0
  186.6710  177.5780  142.9800 C   0  0  0  0  0  2  0  0  0  0  0  0
  185.8220  178.6660  143.6450 C   0  0  0  0  0  2  0  0  0  0  0  0
  183.8160  179.1440  145.0380 C   0  0  0  0  0  2  0  0  0  0  0  0
  184.7340  178.3680  145.9660 C   0  0  1  0  0  3  0  0  0  0  0  0
  184.6910  178.0490  144.4660 C   0  0  2  0  0  3  0  0  0  0  0  0
  185.8880  179.2690  146.3980 C   0  0  0  0  0  2  0  0  0  0  0  0
  187.4420  177.2850  146.8100 C   0  0  0  0  0  3  0  0  0  0  0  0
  188.2990  176.9300  147.7880 N   0  0  0  0  0  0  0  0  0  0  0  0
  187.3770  178.8540  148.3340 O   0  0  0  0  0  0  0  0  0  0  0  0
  186.8800  178.4840  147.1810 C   0  0  0  0  0  0  0  0  0  0  0  0
  188.2270  177.9220  148.7020 C   0  0  0  0  0  3  0  0  0  0  0  0
  1 25  1  0  0  0  0
  2  5  1  6  0  0  0
  2  7  1  0  0  0  0
  3  7  1  0  0  0  0
  4  1  1  6  0  0  0
  4  3  1  0  0  0  0
  6  4  1  0  0  0  0
  6  2  1  0  0  0  0
  7  5  1  6  0  0  0
  8  1  1  0  0  0  0
  9  8  1  0  0  0  0
 10  9  1  0  0  0  0
 11 12  1  0  0  0  0
 12 10  1  0  0  0  0
 13 11  2  0  0  0  0
 15 17  1  0  0  0  0
 16 15  1  1  0  0  0
 16 20  1  0  0  0  0
 16 14  1  0  0  0  0
 17 18  2  0  0  0  0
 18 11  1  0  0  0  0
 18 14  1  0  0  0  0
 19 23  1  0  0  0  0
 20 21  1  6  0  0  0
 20 24  1  0  0  0  0
 21 19  1  0  0  0  0
 23 22  1  0  0  0  0
 24 22  1  0  0  0  0
 25 26  1  0  0  0  0
 27 28  1  0  0  0  0
 28 30  1  6  0  0  0
 29 26  1  6  0  0  0
 29 27  1  0  0  0  0
 29 28  1  0  0  0  0
 30 34  1  0  0  0  0
 31 34  2  0  0  0  0
 31 32  1  0  0  0  0
 32 35  2  0  0  0  0
 33 35  1  0  0  0  0
 34 33  1  0  0  0  0
M  END
>  <MODEL>
5

>  <REMARK>
 VINA RESULT:      -7.2      2.463      3.935
  Name = 
  12 active torsions:
  status: ('A' for Active; 'I' for Inactive)
    1  A    between atoms: C_5  and  C_17
    2  A    between atoms: C_9  and  C_23
    3  A    between atoms: C_11  and  N_19
    4  A    between atoms: N_13  and  C_15
    5  A    between atoms: C_14  and  C_29
    6  A    between atoms: C_15  and  C_34
    7  A    between atoms: N_19  and  N_28
    8  A    between atoms: N_19  and  C_33
    9  A    between atoms: N_28  and  C_34
   10  A    between atoms: C_29  and  C_31
   11  A    between atoms: C_32  and  C_33
   12  A    between atoms: C_32  and  C_35
                            x       y       z     vdW  Elec       q    Type
                         _______ _______ _______ _____ _____    ______ ____

>  <TORSDO>
F 12

$$$$
=
 OpenBabel10232409413D

 35 40  0  0  1  0  0  0  0  0999 V2000
  184.9070  176.3830  136.4510 N   0  0  0  0  0  0  0  0  0  0  0  0
  185.8910  172.8580  136.0130 C   0  0  2  0  0  3  0  0  0  0  0  0
  184.5270  174.2020  137.5290 C   0  0  0  0  0  2  0  0  0  0  0  0
  184.6610  174.9530  136.2160 C   0  0  2  0  0  3  0  0  0  0  0  0
  186.5710  172.7950  137.3650 C   0  0  0  0  0  2  0  0  0  0  0  0
  185.8380  174.2940  135.5210 C   0  0  0  0  0  2  0  0  0  0  0  0
  185.0570  172.8000  137.2850 C   0  0  2  0  0  3  0  0  0  0  0  0
  184.4560  176.7150  137.7410 N   0  0  0  0  0  2  0  0  0  0  0  0
  183.4840  177.7860  137.5860 C   0  0  0  0  0  2  0  0  0  0  0  0
  182.7850  178.0480  138.9120 C   0  0  0  0  0  2  0  0  0  0  0  0
  184.6330  178.8640  140.4470 C   0  0  0  0  0  0  0  0  0  0  0  0
  183.7120  177.8560  140.0210 N   0  0  0  0  0  2  0  0  0  0  0  0
  184.7230  179.9490  139.8110 O   0  0  0  0  0  0  0  0  0  0  0  0
  187.2430  178.5460  141.5400 S   0  0  0  0  0  0  0  0  0  0  0  0
  186.0400  178.0890  144.1800 S   0  0  0  0  0  0  0  0  0  0  0  0
  187.2270  177.4240  142.9760 C   0  0  2  0  0  3  0  0  0  0  0  0
  184.9170  178.4130  142.8310 C   0  0  0  0  0  3  0  0  0  0  0  0
  185.4600  178.6510  141.6450 C   0  0  0  0  0  0  0  0  0  0  0  0
  190.1010  177.4860  145.5780 C   0  0  0  0  0  2  0  0  0  0  0  0
  188.6110  177.2200  143.5920 C   0  0  2  0  0  3  0  0  0  0  0  0
  188.7130  177.7790  145.0160 C   0  0  0  0  0  2  0  0  0  0  0  0
  190.9530  177.4350  143.2360 C   0  0  0  0  0  2  0  0  0  0  0  0
  191.1740  178.0130  144.6320 C   0  0  0  0  0  2  0  0  0  0  0  0
  189.6350  177.8200  142.7360 N   0  0  0  0  0  2  0  0  0  0  0  0
  186.3470  176.6860  136.3790 C   0  0  0  0  0  2  0  0  0  0  0  0
  186.9350  177.2040  137.6950 C   0  0  0  0  0  2  0  0  0  0  0  0
  189.0900  177.8030  136.6040 C   0  0  0  0  0  2  0  0  0  0  0  0
  189.3200  178.1120  138.0720 C   0  0  1  0  0  3  0  0  0  0  0  0
  187.9400  178.3260  137.4390 C   0  0  2  0  0  3  0  0  0  0  0  0
  189.4790  176.8030  138.8410 C   0  0  0  0  0  2  0  0  0  0  0  0
  191.9870  176.5480  138.4370 C   0  0  0  0  0  3  0  0  0  0  0  0
  192.7800  175.5820  137.9310 N   0  0  0  0  0  0  0  0  0  0  0  0
  190.6940  174.8800  137.8590 O   0  0  0  0  0  0  0  0  0  0  0  0
  190.6940  176.0830  138.3740 C   0  0  0  0  0  0  0  0  0  0  0  0
  191.9430  174.5780  137.5900 C   0  0  0  0  0  3  0  0  0  0  0  0
  1  8  1  0  0  0  0
  2  6  1  1  0  0  0
  2  7  1  0  0  0  0
  2  5  1  0  0  0  0
  4  1  1  1  0  0  0
  4  3  1  0  0  0  0
  6  4  1  0  0  0  0
  7  5  1  1  0  0  0
  7  3  1  0  0  0  0
  9  8  1  0  0  0  0
  9 10  1  0  0  0  0
 10 12  1  0  0  0  0
 11 18  1  0  0  0  0
 12 11  1  0  0  0  0
 13 11  2  0  0  0  0
 14 18  1  0  0  0  0
 16 14  1  6  0  0  0
 16 20  1  0  0  0  0
 16 15  1  0  0  0  0
 17 15  1  0  0  0  0
 18 17  2  0  0  0  0
 20 21  1  1  0  0  0
 21 19  1  0  0  0  0
 22 23  1  0  0  0  0
 23 19  1  0  0  0  0
 24 22  1  0  0  0  0
 24 20  1  0  0  0  0
 25  1  1  0  0  0  0
 25 26  1  0  0  0  0
 27 29  1  0  0  0  0
 27 28  1  0  0  0  0
 28 30  1  1  0  0  0
 29 26  1  1  0  0  0
 29 28  1  0  0  0  0
 32 31  1  0  0  0  0
 33 34  1  0  0  0  0
 34 31  2  0  0  0  0
 34 30  1  0  0  0  0
 35 33  1  0  0  0  0
 35 32  2  0  0  0  0
M  END
>  <MODEL>
6

>  <REMARK>
 VINA RESULT:      -7.1      3.460      8.862
  Name = 
  12 active torsions:
  status: ('A' for Active; 'I' for Inactive)
    1  A    between atoms: C_5  and  C_17
    2  A    between atoms: C_9  and  C_23
    3  A    between atoms: C_11  and  N_19
    4  A    between atoms: N_13  and  C_15
    5  A    between atoms: C_14  and  C_29
    6  A    between atoms: C_15  and  C_34
    7  A    between atoms: N_19  and  N_28
    8  A    between atoms: N_19  and  C_33
    9  A    between atoms: N_28  and  C_34
   10  A    between atoms: C_29  and  C_31
   11  A    between atoms: C_32  and  C_33
   12  A    between atoms: C_32  and  C_35
                            x       y       z     vdW  Elec       q    Type
                         _______ _______ _______ _____ _____    ______ ____

>  <TORSDO>
F 12

$$$$
=
 OpenBabel10232409413D

 35 40  0  0  1  0  0  0  0  0999 V2000
  183.4600  178.8050  140.1370 N   0  0  0  0  0  0  0  0  0  0  0  0
  184.5760  178.4490  143.6320 C   0  0  2  0  0  3  0  0  0  0  0  0
  182.4970  178.8160  142.4040 C   0  0  0  0  0  2  0  0  0  0  0  0
  183.4990  178.1700  141.4630 C   0  0  2  0  0  3  0  0  0  0  0  0
  184.0970  179.8350  144.0120 C   0  0  0  0  0  2  0  0  0  0  0  0
  184.8420  178.3780  142.1390 C   0  0  0  0  0  2  0  0  0  0  0  0
  183.0890  178.7230  143.8000 C   0  0  2  0  0  3  0  0  0  0  0  0
  184.2260  178.0340  139.2440 N   0  0  0  0  0  2  0  0  0  0  0  0
  185.2140  178.9260  138.6570 C   0  0  0  0  0  2  0  0  0  0  0  0
  186.3900  178.1200  138.1260 C   0  0  0  0  0  2  0  0  0  0  0  0
  188.4790  178.2330  139.5610 C   0  0  0  0  0  0  0  0  0  0  0  0
  187.2190  177.6450  139.2270 N   0  0  0  0  0  2  0  0  0  0  0  0
  188.9560  179.1570  138.8460 O   0  0  0  0  0  0  0  0  0  0  0  0
  188.5080  177.9310  142.3920 S   0  0  0  0  0  0  0  0  0  0  0  0
  191.2620  176.9250  142.2180 S   0  0  0  0  0  0  0  0  0  0  0  0
  190.1920  178.1280  143.0610 C   0  0  2  0  0  3  0  0  0  0  0  0
  190.4670  177.3600  140.6800 C   0  0  0  0  0  3  0  0  0  0  0  0
  189.2130  177.7840  140.7530 C   0  0  0  0  0  0  0  0  0  0  0  0
  191.3080  176.8730  146.5560 C   0  0  0  0  0  2  0  0  0  0  0  0
  190.2530  177.9780  144.5810 C   0  0  2  0  0  3  0  0  0  0  0  0
  191.2670  176.9200  145.0310 C   0  0  0  0  0  2  0  0  0  0  0  0
  188.9680  177.7330  146.5680 C   0  0  0  0  0  2  0  0  0  0  0  0
  189.9060  176.6580  147.1140 C   0  0  0  0  0  2  0  0  0  0  0  0
  188.9240  177.6660  145.1090 N   0  0  0  0  0  2  0  0  0  0  0  0
  182.0810  178.8640  139.6230 C   0  0  0  0  0  2  0  0  0  0  0  0
  181.9720  179.4640  138.2180 C   0  0  0  0  0  2  0  0  0  0  0  0
  180.4300  180.2140  136.4150 C   0  0  0  0  0  2  0  0  0  0  0  0
  180.0760  181.0990  137.5960 C   0  0  1  0  0  3  0  0  0  0  0  0
  180.5100  179.6440  137.8150 C   0  0  2  0  0  3  0  0  0  0  0  0
  181.1790  182.1350  137.7940 C   0  0  0  0  0  2  0  0  0  0  0  0
  180.8690  183.6290  135.7460 C   0  0  0  0  0  3  0  0  0  0  0  0
  180.4400  184.8900  135.5400 N   0  0  0  0  0  0  0  0  0  0  0  0
  180.3690  184.4750  137.7010 O   0  0  0  0  0  0  0  0  0  0  0  0
  180.8180  183.4020  137.1020 C   0  0  0  0  0  0  0  0  0  0  0  0
  180.1440  185.3700  136.7680 C   0  0  0  0  0  3  0  0  0  0  0  0
  2  6  1  6  0  0  0
  2  7  1  0  0  0  0
  2  5  1  0  0  0  0
  4  1  1  6  0  0  0
  4  6  1  0  0  0  0
  4  3  1  0  0  0  0
  7  3  1  6  0  0  0
  7  5  1  0  0  0  0
  8  1  1  0  0  0  0
  9  8  1  0  0  0  0
 10  9  1  0  0  0  0
 10 12  1  0  0  0  0
 11 18  1  0  0  0  0
 12 11  1  0  0  0  0
 13 11  2  0  0  0  0
 14 16  1  0  0  0  0
 16 15  1  6  0  0  0
 16 20  1  0  0  0  0
 17 18  2  0  0  0  0
 17 15  1  0  0  0  0
 18 14  1  0  0  0  0
 19 23  1  0  0  0  0
 20 21  1  6  0  0  0
 20 24  1  0  0  0  0
 21 19  1  0  0  0  0
 22 23  1  0  0  0  0
 24 22  1  0  0  0  0
 25  1  1  0  0  0  0
 26 25  1  0  0  0  0
 27 28  1  0  0  0  0
 27 29  1  0  0  0  0
 28 30  1  1  0  0  0
 28 29  1  0  0  0  0
 29 26  1  1  0  0  0
 31 34  2  0  0  0  0
 32 31  1  0  0  0  0
 32 35  2  0  0  0  0
 34 33  1  0  0  0  0
 34 30  1  0  0  0  0
 35 33  1  0  0  0  0
M  END
>  <MODEL>
7

>  <REMARK>
 VINA RESULT:      -7.1      3.534      7.834
  Name = 
  12 active torsions:
  status: ('A' for Active; 'I' for Inactive)
    1  A    between atoms: C_5  and  C_17
    2  A    between atoms: C_9  and  C_23
    3  A    between atoms: C_11  and  N_19
    4  A    between atoms: N_13  and  C_15
    5  A    between atoms: C_14  and  C_29
    6  A    between atoms: C_15  and  C_34
    7  A    between atoms: N_19  and  N_28
    8  A    between atoms: N_19  and  C_33
    9  A    between atoms: N_28  and  C_34
   10  A    between atoms: C_29  and  C_31
   11  A    between atoms: C_32  and  C_33
   12  A    between atoms: C_32  and  C_35
                            x       y       z     vdW  Elec       q    Type
                         _______ _______ _______ _____ _____    ______ ____

>  <TORSDO>
F 12

$$$$
=
 OpenBabel10232409413D

 35 40  0  0  1  0  0  0  0  0999 V2000
  189.5790  177.8720  140.0090 N   0  0  0  0  0  0  0  0  0  0  0  0
  187.7330  177.0430  136.9280 C   0  0  2  0  0  3  0  0  0  0  0  0
  188.9870  178.9200  137.8610 C   0  0  0  0  0  2  0  0  0  0  0  0
  189.4370  177.6510  138.5620 C   0  0  2  0  0  3  0  0  0  0  0  0
  186.7340  178.1650  137.1280 C   0  0  0  0  0  2  0  0  0  0  0  0
  188.3430  176.6430  138.2600 C   0  0  0  0  0  2  0  0  0  0  0  0
  188.1450  178.4860  136.6740 C   0  0  2  0  0  3  0  0  0  0  0  0
  188.3640  177.5470  140.6380 N   0  0  0  0  0  2  0  0  0  0  0  0
  187.8150  178.7880  141.1640 C   0  0  0  0  0  2  0  0  0  0  0  0
  186.6030  178.4920  142.0330 C   0  0  0  0  0  2  0  0  0  0  0  0
  184.0740  178.4520  141.8190 C   0  0  0  0  0  0  0  0  0  0  0  0
  185.3790  178.5900  141.2470 N   0  0  0  0  0  2  0  0  0  0  0  0
  183.9460  178.1600  143.0390 O   0  0  0  0  0  0  0  0  0  0  0  0
  182.9970  179.3610  139.3440 S   0  0  0  0  0  0  0  0  0  0  0  0
  180.2940  178.8860  140.3920 S   0  0  0  0  0  0  0  0  0  0  0  0
  181.3550  180.1170  139.5760 C   0  0  2  0  0  3  0  0  0  0  0  0
  181.6560  178.4940  141.4760 C   0  0  0  0  0  3  0  0  0  0  0  0
  182.8780  178.6770  140.9940 C   0  0  0  0  0  0  0  0  0  0  0  0
  180.4280  180.3010  135.8150 C   0  0  0  0  0  2  0  0  0  0  0  0
  180.7400  180.6230  138.2710 C   0  0  2  0  0  3  0  0  0  0  0  0
  181.1260  179.7650  137.0610 C   0  0  0  0  0  2  0  0  0  0  0  0
  180.3560  182.5380  136.9130 C   0  0  0  0  0  2  0  0  0  0  0  0
  180.7320  181.7850  135.6390 C   0  0  0  0  0  2  0  0  0  0  0  0
  181.1190  182.0190  138.0470 N   0  0  0  0  0  2  0  0  0  0  0  0
  190.6300  177.0070  140.5720 C   0  0  0  0  0  2  0  0  0  0  0  0
  190.4320  176.6820  142.0560 C   0  0  0  0  0  2  0  0  0  0  0  0
  191.5970  177.1460  144.2060 C   0  0  0  0  0  2  0  0  0  0  0  0
  190.3380  177.9910  144.2770 C   0  0  1  0  0  3  0  0  0  0  0  0
  191.0500  177.7660  142.9370 C   0  0  2  0  0  3  0  0  0  0  0  0
  189.1380  177.0810  144.5270 C   0  0  0  0  0  2  0  0  0  0  0  0
  189.1550  176.9850  147.0790 C   0  0  0  0  0  3  0  0  0  0  0  0
  188.3360  177.4210  148.0570 N   0  0  0  0  0  0  0  0  0  0  0  0
  187.4580  177.9720  146.1150 O   0  0  0  0  0  0  0  0  0  0  0  0
  188.5780  177.3390  145.8820 C   0  0  0  0  0  0  0  0  0  0  0  0
  187.3080  178.0210  147.4190 C   0  0  0  0  0  3  0  0  0  0  0  0
  1 25  1  0  0  0  0
  1  8  1  0  0  0  0
  2  5  1  1  0  0  0
  2  6  1  0  0  0  0
  3  4  1  0  0  0  0
  4  1  1  1  0  0  0
  6  4  1  0  0  0  0
  7  2  1  0  0  0  0
  7  5  1  1  0  0  0
  7  3  1  0  0  0  0
  8  9  1  0  0  0  0
  9 10  1  0  0  0  0
 11 13  2  0  0  0  0
 12 11  1  0  0  0  0
 12 10  1  0  0  0  0
 14 18  1  0  0  0  0
 15 17  1  0  0  0  0
 16 14  1  6  0  0  0
 16 15  1  0  0  0  0
 18 17  2  0  0  0  0
 18 11  1  0  0  0  0
 19 21  1  0  0  0  0
 20 21  1  6  0  0  0
 20 16  1  0  0  0  0
 22 24  1  0  0  0  0
 23 19  1  0  0  0  0
 23 22  1  0  0  0  0
 24 20  1  0  0  0  0
 25 26  1  0  0  0  0
 27 28  1  0  0  0  0
 28 30  1  6  0  0  0
 29 26  1  6  0  0  0
 29 27  1  0  0  0  0
 29 28  1  0  0  0  0
 30 34  1  0  0  0  0
 31 32  1  0  0  0  0
 33 35  1  0  0  0  0
 34 33  1  0  0  0  0
 34 31  2  0  0  0  0
 35 32  2  0  0  0  0
M  END
>  <MODEL>
8

>  <REMARK>
 VINA RESULT:      -7.0      3.914      9.404
  Name = 
  12 active torsions:
  status: ('A' for Active; 'I' for Inactive)
    1  A    between atoms: C_5  and  C_17
    2  A    between atoms: C_9  and  C_23
    3  A    between atoms: C_11  and  N_19
    4  A    between atoms: N_13  and  C_15
    5  A    between atoms: C_14  and  C_29
    6  A    between atoms: C_15  and  C_34
    7  A    between atoms: N_19  and  N_28
    8  A    between atoms: N_19  and  C_33
    9  A    between atoms: N_28  and  C_34
   10  A    between atoms: C_29  and  C_31
   11  A    between atoms: C_32  and  C_33
   12  A    between atoms: C_32  and  C_35
                            x       y       z     vdW  Elec       q    Type
                         _______ _______ _______ _____ _____    ______ ____

>  <TORSDO>
F 12

$$$$
=
 OpenBabel10232409413D

 35 40  0  0  1  0  0  0  0  0999 V2000
  183.5750  178.5780  140.5430 N   0  0  0  0  0  0  0  0  0  0  0  0
  184.7600  178.4220  144.0300 C   0  0  2  0  0  3  0  0  0  0  0  0
  182.6820  178.8540  142.8210 C   0  0  0  0  0  2  0  0  0  0  0  0
  183.6020  178.0530  141.9160 C   0  0  2  0  0  3  0  0  0  0  0  0
  184.4030  179.8690  144.3020 C   0  0  0  0  0  2  0  0  0  0  0  0
  184.9770  178.2070  142.5420 C   0  0  0  0  0  2  0  0  0  0  0  0
  183.3040  178.8280  144.2060 C   0  0  2  0  0  3  0  0  0  0  0  0
  184.5890  177.9500  139.7980 N   0  0  0  0  0  2  0  0  0  0  0  0
  184.8470  178.7930  138.6410 C   0  0  0  0  0  2  0  0  0  0  0  0
  186.2490  178.5310  138.1110 C   0  0  0  0  0  2  0  0  0  0  0  0
  188.4300  178.3080  139.3890 C   0  0  0  0  0  0  0  0  0  0  0  0
  187.0760  177.9170  139.1430 N   0  0  0  0  0  2  0  0  0  0  0  0
  188.9850  179.1660  138.6510 O   0  0  0  0  0  0  0  0  0  0  0  0
  188.3510  177.2920  142.0480 S   0  0  0  0  0  0  0  0  0  0  0  0
  191.2700  176.9780  141.9730 S   0  0  0  0  0  0  0  0  0  0  0  0
  189.8940  177.6630  142.9440 C   0  0  2  0  0  3  0  0  0  0  0  0
  190.4930  177.6180  140.4990 C   0  0  0  0  0  3  0  0  0  0  0  0
  189.1720  177.7300  140.5190 C   0  0  0  0  0  0  0  0  0  0  0  0
  188.7930  177.1100  146.6200 C   0  0  0  0  0  2  0  0  0  0  0  0
  189.8940  177.1380  144.3790 C   0  0  2  0  0  3  0  0  0  0  0  0
  188.7570  177.7250  145.2240 C   0  0  0  0  0  2  0  0  0  0  0  0
  191.2330  176.7170  146.3000 C   0  0  0  0  0  2  0  0  0  0  0  0
  190.1750  177.2900  147.2390 C   0  0  0  0  0  2  0  0  0  0  0  0
  191.1870  177.4060  145.0110 N   0  0  0  0  0  2  0  0  0  0  0  0
  182.2850  178.2860  139.8940 C   0  0  0  0  0  2  0  0  0  0  0  0
  181.9630  176.7910  139.8060 C   0  0  0  0  0  2  0  0  0  0  0  0
  180.9400  174.9840  138.4350 C   0  0  0  0  0  2  0  0  0  0  0  0
  182.0510  175.5300  137.5570 C   0  0  1  0  0  3  0  0  0  0  0  0
  181.2650  176.4620  138.4880 C   0  0  2  0  0  3  0  0  0  0  0  0
  183.3970  175.0620  138.1030 C   0  0  0  0  0  2  0  0  0  0  0  0
  184.8480  172.9980  137.7080 C   0  0  0  0  0  3  0  0  0  0  0  0
  184.9850  172.1040  136.7080 N   0  0  0  0  0  0  0  0  0  0  0  0
  183.4560  173.5760  136.1220 O   0  0  0  0  0  0  0  0  0  0  0  0
  183.8930  173.9050  137.3100 C   0  0  0  0  0  0  0  0  0  0  0  0
  184.1110  172.4980  135.7560 C   0  0  0  0  0  3  0  0  0  0  0  0
  2  6  1  6  0  0  0
  2  7  1  0  0  0  0
  2  5  1  0  0  0  0
  4  1  1  6  0  0  0
  4  6  1  0  0  0  0
  4  3  1  0  0  0  0
  7  3  1  6  0  0  0
  7  5  1  0  0  0  0
  8  1  1  0  0  0  0
  9  8  1  0  0  0  0
 10  9  1  0  0  0  0
 10 12  1  0  0  0  0
 11 18  1  0  0  0  0
 12 11  1  0  0  0  0
 13 11  2  0  0  0  0
 14 16  1  0  0  0  0
 16 15  1  6  0  0  0
 16 20  1  0  0  0  0
 17 18  2  0  0  0  0
 17 15  1  0  0  0  0
 18 14  1  0  0  0  0
 19 23  1  0  0  0  0
 20 24  1  0  0  0  0
 20 21  1  1  0  0  0
 21 19  1  0  0  0  0
 22 23  1  0  0  0  0
 24 22  1  0  0  0  0
 25  1  1  0  0  0  0
 26 25  1  0  0  0  0
 27 29  1  0  0  0  0
 28 30  1  1  0  0  0
 28 27  1  0  0  0  0
 28 29  1  0  0  0  0
 29 26  1  1  0  0  0
 32 31  1  0  0  0  0
 33 34  1  0  0  0  0
 34 31  2  0  0  0  0
 34 30  1  0  0  0  0
 35 33  1  0  0  0  0
 35 32  2  0  0  0  0
M  END
>  <MODEL>
9

>  <REMARK>
 VINA RESULT:      -7.0      3.555      7.495
  Name = 
  12 active torsions:
  status: ('A' for Active; 'I' for Inactive)
    1  A    between atoms: C_5  and  C_17
    2  A    between atoms: C_9  and  C_23
    3  A    between atoms: C_11  and  N_19
    4  A    between atoms: N_13  and  C_15
    5  A    between atoms: C_14  and  C_29
    6  A    between atoms: C_15  and  C_34
    7  A    between atoms: N_19  and  N_28
    8  A    between atoms: N_19  and  C_33
    9  A    between atoms: N_28  and  C_34
   10  A    between atoms: C_29  and  C_31
   11  A    between atoms: C_32  and  C_33
   12  A    between atoms: C_32  and  C_35
                            x       y       z     vdW  Elec       q    Type
                         _______ _______ _______ _____ _____    ______ ____

>  <TORSDO>
F 12

$$$$
