=
 OpenBabel10232409293D

 53 60  0  0  1  0  0  0  0  0999 V2000
  189.6580  177.6850  141.3890 C   0  0  1  0  0  3  0  0  0  0  0  0
  190.4910  176.5140  141.6610 N   0  0  0  0  0  2  0  0  0  0  0  0
  189.4640  177.8570  139.8690 C   0  0  1  0  0  3  0  0  0  0  0  0
  191.8760  176.8380  141.2960 C   0  0  0  0  0  2  0  0  0  0  0  0
  190.7130  177.3960  139.0930 C   0  0  0  0  0  2  0  0  0  0  0  0
  191.9880  177.5380  139.9180 C   0  0  2  0  0  3  0  0  0  0  0  0
  188.3520  177.2720  143.4510 C   0  0  2  0  0  3  0  0  0  0  0  0
  188.9420  177.5620  145.6600 C   0  0  1  0  0  3  0  0  0  0  0  0
  186.0500  178.2210  143.7310 C   0  0  2  0  0  3  0  0  0  0  0  0
  187.1700  178.1670  141.5940 N   0  0  0  0  0  0  0  0  0  0  0  0
  187.6370  177.6040  145.6130 C   0  0  1  0  0  3  0  0  0  0  0  0
  186.0590  178.5350  142.4290 C   0  0  0  0  0  3  0  0  0  0  0  0
  187.0900  177.2610  144.2680 C   0  0  2  0  0  3  0  0  0  0  0  0
  187.0380  177.3010  146.8630 N   0  0  0  0  0  2  0  0  0  0  0  0
  188.0520  178.3230  149.0990 Cl  0  0  0  0  0  0  0  0  0  0  0  0
  189.4370  177.2290  147.0360 C   0  0  0  0  0  2  0  0  0  0  0  0
  189.5640  177.2130  144.3440 C   0  0  0  0  0  2  0  0  0  0  0  0
  188.1200  177.0820  147.8230 C   0  0  2  0  0  3  0  0  0  0  0  0
  188.3710  177.6230  142.1630 C   0  0  1  0  0  3  0  0  0  0  0  0
  184.4250  179.9360  144.2220 N   0  0  0  0  0  1  0  0  0  0  0  0
  184.8640  178.5930  144.5600 C   0  0  0  0  0  2  0  0  0  0  0  0
  193.1630  176.9650  139.1500 C   0  0  0  0  0  2  0  0  0  0  0  0
  194.1930  176.8870  136.4980 O   0  0  0  0  0  0  0  0  0  0  0  0
  193.2880  176.0670  136.7960 C   0  0  0  0  0  0  0  0  0  0  0  0
  192.6770  176.1000  138.0870 N   0  0  0  0  0  2  0  0  0  0  0  0
  192.8360  175.0560  135.7870 C   0  0  0  0  0  2  0  0  0  0  0  0
  193.8770  174.1510  135.5080 O   0  0  0  0  0  0  0  0  0  0  0  0
  193.8660  173.2950  136.5150 O   0  0  0  0  0  0  0  0  0  0  0  0
  195.2090  173.0630  136.8130 C   0  0  0  0  0  2  0  0  0  0  0  0
  196.9620  173.6990  138.3940 C   0  0  0  0  0  2  0  0  0  0  0  0
  196.1140  174.7980  138.1730 O   0  0  0  0  0  0  0  0  0  0  0  0
  195.5040  173.5290  138.2270 C   0  0  1  0  0  3  0  0  0  0  0  0
  188.3670  177.1120  139.4200 O   0  0  0  0  0  0  0  0  0  0  0  0
  187.6750  176.0200  137.4040 C   0  0  0  0  0  1  0  0  0  0  0  0
  188.3850  177.2160  138.0200 C   0  0  1  0  0  3  0  0  0  0  0  0
  188.4340  179.3640  137.0030 O   0  0  0  0  0  0  0  0  0  0  0  0
  187.7300  178.4920  137.5700 C   0  0  0  0  0  0  0  0  0  0  0  0
  186.3260  178.7250  137.7070 N   0  0  0  0  0  2  0  0  0  0  0  0
  185.4530  177.8840  138.5030 C   0  0  0  0  0  2  0  0  0  0  0  0
  184.0870  177.8270  137.8530 C   0  0  2  0  0  3  0  0  0  0  0  0
  181.7330  178.9240  138.0320 C   0  0  2  0  0  3  0  0  0  0  0  0
  183.0740  178.5960  138.7420 C   0  0  1  0  0  3  0  0  0  0  0  0
  180.2560  175.8480  138.9440 C   0  0  0  0  0  1  0  0  0  0  0  0
  184.3380  176.0320  136.2750 O   0  0  0  0  0  1  0  0  0  0  0  0
  183.7470  176.3730  137.4890 C   0  0  2  0  0  3  0  0  0  0  0  0
  181.4960  176.9090  136.3900 C   0  0  0  0  0  2  0  0  0  0  0  0
  181.7870  177.8780  139.1630 C   0  0  2  0  0  0  0  0  0  0  0  0
  181.6830  176.3750  138.8240 C   0  0  2  0  0  3  0  0  0  0  0  0
  181.6770  178.4200  136.5730 C   0  0  0  0  0  2  0  0  0  0  0  0
  182.2470  176.0870  137.4480 C   0  0  2  0  0  3  0  0  0  0  0  0
  180.4830  179.6490  140.4160 C   0  0  0  0  0  1  0  0  0  0  0  0
  181.3210  178.3860  140.5340 C   0  0  0  0  0  3  0  0  0  0  0  0
  182.4810  178.6000  141.5000 C   0  0  0  0  0  1  0  0  0  0  0  0
  1  2  1  6  0  0  0
  1 19  1  0  0  0  0
  3 33  1  6  0  0  0
  3  1  1  0  0  0  0
  4  2  1  0  0  0  0
  5  3  1  0  0  0  0
  5  6  1  0  0  0  0
  6 22  1  6  0  0  0
  6  4  1  0  0  0  0
  7 13  1  0  0  0  0
  7 17  1  1  0  0  0
  8 17  1  6  0  0  0
  8 16  1  0  0  0  0
  9 13  1  0  0  0  0
  9 21  1  6  0  0  0
 10 19  1  0  0  0  0
 10 12  2  0  0  0  0
 11  8  1  0  0  0  0
 11 14  1  1  0  0  0
 12  9  1  0  0  0  0
 13 11  1  0  0  0  0
 14 18  1  0  0  0  0
 16 18  1  0  0  0  0
 18 15  1  0  0  0  0
 19  7  1  0  0  0  0
 20 21  1  0  0  0  0
 23 24  2  0  0  0  0
 24 25  1  0  0  0  0
 25 22  1  0  0  0  0
 26 24  1  0  0  0  0
 27 26  1  0  0  0  0
 27 28  1  0  0  0  0
 28 29  1  0  0  0  0
 29 32  1  0  0  0  0
 31 32  1  0  0  0  0
 31 30  1  0  0  0  0
 32 30  1  0  0  0  0
 34 35  1  0  0  0  0
 35 33  1  0  0  0  0
 36 37  2  0  0  0  0
 37 38  1  0  0  0  0
 37 35  1  0  0  0  0
 38 39  1  0  0  0  0
 40 39  1  0  0  0  0
 40 42  1  0  0  0  0
 41 42  1  0  0  0  0
 41 47  1  0  0  0  0
 42 47  1  0  0  0  0
 44 45  1  0  0  0  0
 45 40  1  0  0  0  0
 46 49  1  0  0  0  0
 46 50  1  0  0  0  0
 47 52  1  0  0  0  0
 48 43  1  0  0  0  0
 48 47  1  0  0  0  0
 49 41  1  0  0  0  0
 50 45  1  0  0  0  0
 50 48  1  0  0  0  0
 51 52  1  0  0  0  0
 52 53  1  0  0  0  0
M  END
>  <MODEL>
1

>  <REMARK>
 VINA RESULT:      -8.4      0.000      0.000
  Name = 
  15 active torsions:
  status: ('A' for Active; 'I' for Inactive)
    1  A    between atoms: C_2  and  C_32
    2  A    between atoms: C_3  and  C_53
    3  A    between atoms: C_7  and  C_13
    4  A    between atoms: C_7  and  O_40
    5  A    between atoms: C_12  and  C_23
    6  A    between atoms: C_18  and  O_35
    7  A    between atoms: C_21  and  C_38
    8  A    between atoms: C_32  and  N_44
    9  A    between atoms: C_34  and  N_47
   10  A    between atoms: C_34  and  C_51
   11  A    between atoms: O_35  and  C_37
   12  A    between atoms: C_36  and  C_37
   13  A    between atoms: O_39  and  O_40
   14  A    between atoms: O_39  and  C_41
   15  A    between atoms: C_41  and  C_43
                            x       y       z     vdW  Elec       q    Type
                         _______ _______ _______ _____ _____    ______ ____

>  <TORSDO>
F 15

$$$$
=
 OpenBabel10232409293D

 53 60  0  0  1  0  0  0  0  0999 V2000
  189.6700  177.6760  141.4060 C   0  0  1  0  0  3  0  0  0  0  0  0
  190.5010  176.5090  141.6960 N   0  0  0  0  0  2  0  0  0  0  0  0
  189.4730  177.8250  139.8840 C   0  0  1  0  0  3  0  0  0  0  0  0
  191.8860  176.8240  141.3230 C   0  0  0  0  0  2  0  0  0  0  0  0
  190.7210  177.3500  139.1130 C   0  0  0  0  0  2  0  0  0  0  0  0
  191.9980  177.5030  139.9340 C   0  0  2  0  0  3  0  0  0  0  0  0
  188.3620  177.2670  143.4680 C   0  0  2  0  0  3  0  0  0  0  0  0
  188.9620  177.5290  145.6770 C   0  0  1  0  0  3  0  0  0  0  0  0
  186.0760  178.2500  143.7610 C   0  0  2  0  0  3  0  0  0  0  0  0
  187.1890  178.1950  141.6210 N   0  0  0  0  0  0  0  0  0  0  0  0
  187.6570  177.5920  145.6340 C   0  0  1  0  0  3  0  0  0  0  0  0
  186.0870  178.5740  142.4620 C   0  0  0  0  0  3  0  0  0  0  0  0
  187.1010  177.2690  144.2870 C   0  0  2  0  0  3  0  0  0  0  0  0
  187.0560  177.2890  146.8830 N   0  0  0  0  0  2  0  0  0  0  0  0
  188.0920  178.2770  149.1250 Cl  0  0  0  0  0  0  0  0  0  0  0  0
  189.4540  177.1780  147.0490 C   0  0  0  0  0  2  0  0  0  0  0  0
  189.5740  177.1810  144.3570 C   0  0  0  0  0  2  0  0  0  0  0  0
  188.1370  177.0450  147.8390 C   0  0  2  0  0  3  0  0  0  0  0  0
  188.3830  177.6290  142.1820 C   0  0  1  0  0  3  0  0  0  0  0  0
  184.3950  179.9310  144.1760 N   0  0  0  0  0  1  0  0  0  0  0  0
  184.8970  178.6340  144.5960 C   0  0  0  0  0  2  0  0  0  0  0  0
  193.1700  176.9160  139.1740 C   0  0  0  0  0  2  0  0  0  0  0  0
  194.7920  175.5920  137.2460 O   0  0  0  0  0  0  0  0  0  0  0  0
  193.5990  175.8370  136.9350 C   0  0  0  0  0  0  0  0  0  0  0  0
  192.7510  176.5630  137.8270 N   0  0  0  0  0  2  0  0  0  0  0  0
  193.0640  175.3780  135.6130 C   0  0  0  0  0  2  0  0  0  0  0  0
  191.6680  175.5520  135.5690 O   0  0  0  0  0  0  0  0  0  0  0  0
  191.2130  174.5080  134.8980 O   0  0  0  0  0  0  0  0  0  0  0  0
  190.8390  173.5830  135.8730 C   0  0  0  0  0  2  0  0  0  0  0  0
  188.5840  172.7010  136.2180 C   0  0  0  0  0  2  0  0  0  0  0  0
  188.6170  173.4420  135.0240 O   0  0  0  0  0  0  0  0  0  0  0  0
  189.7580  172.6710  135.3210 C   0  0  1  0  0  3  0  0  0  0  0  0
  188.3750  177.0740  139.4480 O   0  0  0  0  0  0  0  0  0  0  0  0
  187.6230  176.0070  137.4400 C   0  0  0  0  0  1  0  0  0  0  0  0
  188.3730  177.1830  138.0490 C   0  0  1  0  0  3  0  0  0  0  0  0
  188.4640  179.3440  137.0620 O   0  0  0  0  0  0  0  0  0  0  0  0
  187.7420  178.4770  137.6130 C   0  0  0  0  0  0  0  0  0  0  0  0
  186.3420  178.7320  137.7460 N   0  0  0  0  0  2  0  0  0  0  0  0
  185.4500  177.8950  138.5260 C   0  0  0  0  0  2  0  0  0  0  0  0
  184.0940  177.8500  137.8550 C   0  0  2  0  0  3  0  0  0  0  0  0
  181.7560  178.9880  137.9800 C   0  0  2  0  0  3  0  0  0  0  0  0
  183.0800  178.6490  138.7160 C   0  0  1  0  0  3  0  0  0  0  0  0
  180.2140  175.9510  138.9140 C   0  0  0  0  0  1  0  0  0  0  0  0
  184.3400  176.0280  136.3090 O   0  0  0  0  0  1  0  0  0  0  0  0
  183.7360  176.3960  137.5080 C   0  0  2  0  0  3  0  0  0  0  0  0
  181.5110  176.9530  136.3650 C   0  0  0  0  0  2  0  0  0  0  0  0
  181.7750  177.9590  139.1280 C   0  0  2  0  0  0  0  0  0  0  0  0
  181.6510  176.4520  138.8090 C   0  0  2  0  0  3  0  0  0  0  0  0
  181.7150  178.4630  136.5280 C   0  0  0  0  0  2  0  0  0  0  0  0
  182.2320  176.1340  137.4470 C   0  0  2  0  0  3  0  0  0  0  0  0
  180.5900  179.8360  140.3450 C   0  0  0  0  0  1  0  0  0  0  0  0
  181.2950  178.4950  140.4830 C   0  0  0  0  0  3  0  0  0  0  0  0
  182.4240  178.5850  141.5050 C   0  0  0  0  0  1  0  0  0  0  0  0
  1  2  1  6  0  0  0
  1 19  1  0  0  0  0
  3 33  1  6  0  0  0
  3  1  1  0  0  0  0
  4  2  1  0  0  0  0
  5  3  1  0  0  0  0
  5  6  1  0  0  0  0
  6 22  1  6  0  0  0
  6  4  1  0  0  0  0
  7 13  1  0  0  0  0
  7 17  1  1  0  0  0
  8 17  1  6  0  0  0
  8 16  1  0  0  0  0
  9 13  1  0  0  0  0
  9 21  1  6  0  0  0
 10 19  1  0  0  0  0
 10 12  2  0  0  0  0
 11  8  1  0  0  0  0
 11 14  1  1  0  0  0
 12  9  1  0  0  0  0
 13 11  1  0  0  0  0
 14 18  1  0  0  0  0
 16 18  1  0  0  0  0
 18 15  1  0  0  0  0
 19  7  1  0  0  0  0
 20 21  1  0  0  0  0
 24 23  2  0  0  0  0
 24 25  1  0  0  0  0
 25 22  1  0  0  0  0
 26 24  1  0  0  0  0
 27 26  1  0  0  0  0
 28 27  1  0  0  0  0
 28 29  1  0  0  0  0
 31 32  1  0  0  0  0
 31 30  1  0  0  0  0
 32 29  1  0  0  0  0
 32 30  1  0  0  0  0
 34 35  1  0  0  0  0
 35 33  1  0  0  0  0
 36 37  2  0  0  0  0
 37 38  1  0  0  0  0
 37 35  1  0  0  0  0
 38 39  1  0  0  0  0
 40 39  1  0  0  0  0
 40 42  1  0  0  0  0
 41 42  1  0  0  0  0
 41 47  1  0  0  0  0
 42 47  1  0  0  0  0
 44 45  1  0  0  0  0
 45 40  1  0  0  0  0
 46 49  1  0  0  0  0
 46 50  1  0  0  0  0
 47 52  1  0  0  0  0
 48 43  1  0  0  0  0
 48 47  1  0  0  0  0
 49 41  1  0  0  0  0
 50 45  1  0  0  0  0
 50 48  1  0  0  0  0
 51 52  1  0  0  0  0
 52 53  1  0  0  0  0
M  END
>  <MODEL>
2

>  <REMARK>
 VINA RESULT:      -8.2      1.223      2.073
  Name = 
  15 active torsions:
  status: ('A' for Active; 'I' for Inactive)
    1  A    between atoms: C_2  and  C_32
    2  A    between atoms: C_3  and  C_53
    3  A    between atoms: C_7  and  C_13
    4  A    between atoms: C_7  and  O_40
    5  A    between atoms: C_12  and  C_23
    6  A    between atoms: C_18  and  O_35
    7  A    between atoms: C_21  and  C_38
    8  A    between atoms: C_32  and  N_44
    9  A    between atoms: C_34  and  N_47
   10  A    between atoms: C_34  and  C_51
   11  A    between atoms: O_35  and  C_37
   12  A    between atoms: C_36  and  C_37
   13  A    between atoms: O_39  and  O_40
   14  A    between atoms: O_39  and  C_41
   15  A    between atoms: C_41  and  C_43
                            x       y       z     vdW  Elec       q    Type
                         _______ _______ _______ _____ _____    ______ ____

>  <TORSDO>
F 15

$$$$
=
 OpenBabel10232409293D

 53 60  0  0  1  0  0  0  0  0999 V2000
  189.6070  177.5330  140.6620 C   0  0  1  0  0  3  0  0  0  0  0  0
  190.3950  176.3100  140.8060 N   0  0  0  0  0  2  0  0  0  0  0  0
  189.2180  177.7440  139.1850 C   0  0  1  0  0  3  0  0  0  0  0  0
  191.7350  176.5580  140.2570 C   0  0  0  0  0  2  0  0  0  0  0  0
  190.3180  177.2240  138.2400 C   0  0  0  0  0  2  0  0  0  0  0  0
  191.7010  177.2740  138.8830 C   0  0  2  0  0  3  0  0  0  0  0  0
  188.5780  177.1930  142.8880 C   0  0  2  0  0  3  0  0  0  0  0  0
  189.4770  177.4730  144.9920 C   0  0  1  0  0  3  0  0  0  0  0  0
  186.3790  178.2460  143.4660 C   0  0  2  0  0  3  0  0  0  0  0  0
  187.1930  178.1260  141.1980 N   0  0  0  0  0  0  0  0  0  0  0  0
  188.1810  177.5720  145.1220 C   0  0  1  0  0  3  0  0  0  0  0  0
  186.2240  178.5500  142.1720 C   0  0  0  0  0  3  0  0  0  0  0  0
  187.4400  177.2440  143.8690 C   0  0  2  0  0  3  0  0  0  0  0  0
  187.7460  177.3060  146.4470 N   0  0  0  0  0  2  0  0  0  0  0  0
  189.0990  178.2980  148.5100 Cl  0  0  0  0  0  0  0  0  0  0  0  0
  190.1410  177.1290  146.2920 C   0  0  0  0  0  2  0  0  0  0  0  0
  189.8970  177.0870  143.6080 C   0  0  0  0  0  2  0  0  0  0  0  0
  188.9380  177.0460  147.2530 C   0  0  2  0  0  3  0  0  0  0  0  0
  188.4360  177.5350  141.6050 C   0  0  1  0  0  3  0  0  0  0  0  0
  184.5500  179.7630  143.8850 N   0  0  0  0  0  1  0  0  0  0  0  0
  185.3340  178.6770  144.4450 C   0  0  0  0  0  2  0  0  0  0  0  0
  192.7220  176.6460  137.9560 C   0  0  0  0  0  2  0  0  0  0  0  0
  194.0480  174.1690  137.5000 O   0  0  0  0  0  0  0  0  0  0  0  0
  194.5020  174.9160  138.4030 C   0  0  0  0  0  0  0  0  0  0  0  0
  193.8420  176.1400  138.7320 N   0  0  0  0  0  2  0  0  0  0  0  0
  195.7370  174.5160  139.1500 C   0  0  0  0  0  2  0  0  0  0  0  0
  196.6850  173.9720  138.2630 O   0  0  0  0  0  0  0  0  0  0  0  0
  197.2970  175.0170  137.7330 O   0  0  0  0  0  0  0  0  0  0  0  0
  197.5540  174.6570  136.4110 C   0  0  0  0  0  2  0  0  0  0  0  0
  196.2330  175.6020  134.5830 C   0  0  0  0  0  2  0  0  0  0  0  0
  196.0720  176.3950  135.7320 O   0  0  0  0  0  0  0  0  0  0  0  0
  197.3560  175.8610  135.5080 C   0  0  1  0  0  3  0  0  0  0  0  0
  188.0260  177.0740  138.8840 O   0  0  0  0  0  0  0  0  0  0  0  0
  187.6520  175.6510  136.9940 C   0  0  0  0  0  1  0  0  0  0  0  0
  187.9410  177.0620  137.4830 C   0  0  1  0  0  3  0  0  0  0  0  0
  187.1870  179.1850  136.7230 O   0  0  0  0  0  0  0  0  0  0  0  0
  186.8700  178.0020  137.0030 C   0  0  0  0  0  0  0  0  0  0  0  0
  185.5180  177.5860  136.7950 N   0  0  0  0  0  2  0  0  0  0  0  0
  184.9980  176.3120  137.2550 C   0  0  0  0  0  2  0  0  0  0  0  0
  183.4880  176.3270  137.1600 C   0  0  2  0  0  3  0  0  0  0  0  0
  181.4840  177.9810  137.3220 C   0  0  2  0  0  3  0  0  0  0  0  0
  182.9630  177.6880  137.6890 C   0  0  1  0  0  3  0  0  0  0  0  0
  180.2290  176.3410  140.1870 C   0  0  0  0  0  1  0  0  0  0  0  0
  182.9620  173.9980  136.8920 O   0  0  0  0  0  1  0  0  0  0  0  0
  182.9170  175.0520  137.8010 C   0  0  2  0  0  3  0  0  0  0  0  0
  180.4670  175.5780  137.2640 C   0  0  0  0  0  2  0  0  0  0  0  0
  181.8850  177.6770  138.7790 C   0  0  2  0  0  0  0  0  0  0  0  0
  181.5360  176.3070  139.4020 C   0  0  2  0  0  3  0  0  0  0  0  0
  180.8270  176.8540  136.4950 C   0  0  0  0  0  2  0  0  0  0  0  0
  181.4990  175.2220  138.3450 C   0  0  2  0  0  3  0  0  0  0  0  0
  182.6400  180.0880  138.9360 C   0  0  0  0  0  1  0  0  0  0  0  0
  182.0280  178.9120  139.6790 C   0  0  0  0  0  3  0  0  0  0  0  0
  182.8130  178.6140  140.9530 C   0  0  0  0  0  1  0  0  0  0  0  0
  1  2  1  6  0  0  0
  1 19  1  0  0  0  0
  3 33  1  6  0  0  0
  3  1  1  0  0  0  0
  4  2  1  0  0  0  0
  5  6  1  0  0  0  0
  5  3  1  0  0  0  0
  6 22  1  6  0  0  0
  6  4  1  0  0  0  0
  7 17  1  1  0  0  0
  7 13  1  0  0  0  0
  8 17  1  6  0  0  0
  8 11  1  0  0  0  0
  8 16  1  0  0  0  0
  9 13  1  0  0  0  0
  9 21  1  6  0  0  0
 10 19  1  0  0  0  0
 10 12  2  0  0  0  0
 11 14  1  1  0  0  0
 12  9  1  0  0  0  0
 13 11  1  0  0  0  0
 14 18  1  0  0  0  0
 16 18  1  0  0  0  0
 18 15  1  0  0  0  0
 19  7  1  0  0  0  0
 20 21  1  0  0  0  0
 22 25  1  0  0  0  0
 23 24  2  0  0  0  0
 24 25  1  0  0  0  0
 24 26  1  0  0  0  0
 27 26  1  0  0  0  0
 28 27  1  0  0  0  0
 29 28  1  0  0  0  0
 30 32  1  0  0  0  0
 30 31  1  0  0  0  0
 32 31  1  0  0  0  0
 32 29  1  0  0  0  0
 34 35  1  0  0  0  0
 35 33  1  0  0  0  0
 36 37  2  0  0  0  0
 37 35  1  0  0  0  0
 38 37  1  0  0  0  0
 38 39  1  0  0  0  0
 40 39  1  0  0  0  0
 40 42  1  0  0  0  0
 40 45  1  0  0  0  0
 41 42  1  0  0  0  0
 41 47  1  0  0  0  0
 42 47  1  0  0  0  0
 44 45  1  0  0  0  0
 45 50  1  0  0  0  0
 46 50  1  0  0  0  0
 47 48  1  0  0  0  0
 47 52  1  0  0  0  0
 48 43  1  0  0  0  0
 49 46  1  0  0  0  0
 49 41  1  0  0  0  0
 50 48  1  0  0  0  0
 51 52  1  0  0  0  0
 52 53  1  0  0  0  0
M  END
>  <MODEL>
3

>  <REMARK>
 VINA RESULT:      -7.9      1.306      1.846
  Name = 
  15 active torsions:
  status: ('A' for Active; 'I' for Inactive)
    1  A    between atoms: C_2  and  C_32
    2  A    between atoms: C_3  and  C_53
    3  A    between atoms: C_7  and  C_13
    4  A    between atoms: C_7  and  O_40
    5  A    between atoms: C_12  and  C_23
    6  A    between atoms: C_18  and  O_35
    7  A    between atoms: C_21  and  C_38
    8  A    between atoms: C_32  and  N_44
    9  A    between atoms: C_34  and  N_47
   10  A    between atoms: C_34  and  C_51
   11  A    between atoms: O_35  and  C_37
   12  A    between atoms: C_36  and  C_37
   13  A    between atoms: O_39  and  O_40
   14  A    between atoms: O_39  and  C_41
   15  A    between atoms: C_41  and  C_43
                            x       y       z     vdW  Elec       q    Type
                         _______ _______ _______ _____ _____    ______ ____

>  <TORSDO>
F 15

$$$$
=
 OpenBabel10232409293D

 53 60  0  0  1  0  0  0  0  0999 V2000
  189.4670  177.7110  141.0910 C   0  0  1  0  0  3  0  0  0  0  0  0
  190.2860  176.5430  141.4110 N   0  0  0  0  0  2  0  0  0  0  0  0
  189.2550  177.8110  139.5680 C   0  0  1  0  0  3  0  0  0  0  0  0
  191.6710  176.8260  141.0120 C   0  0  0  0  0  2  0  0  0  0  0  0
  190.4860  177.2930  138.7990 C   0  0  0  0  0  2  0  0  0  0  0  0
  191.7750  177.4550  139.5990 C   0  0  2  0  0  3  0  0  0  0  0  0
  188.1710  177.3390  143.1670 C   0  0  2  0  0  3  0  0  0  0  0  0
  188.8080  177.5640  145.3700 C   0  0  1  0  0  3  0  0  0  0  0  0
  185.9280  178.4070  143.4950 C   0  0  2  0  0  3  0  0  0  0  0  0
  187.0120  178.3240  141.3410 N   0  0  0  0  0  0  0  0  0  0  0  0
  187.5060  177.6770  145.3440 C   0  0  1  0  0  3  0  0  0  0  0  0
  185.9350  178.7390  142.1980 C   0  0  0  0  0  3  0  0  0  0  0  0
  186.9220  177.3840  144.0030 C   0  0  2  0  0  3  0  0  0  0  0  0
  186.9100  177.3890  146.5990 N   0  0  0  0  0  2  0  0  0  0  0  0
  188.0110  178.3220  148.8340 Cl  0  0  0  0  0  0  0  0  0  0  0  0
  189.3040  177.1850  146.7340 C   0  0  0  0  0  2  0  0  0  0  0  0
  189.3900  177.2010  144.0400 C   0  0  0  0  0  2  0  0  0  0  0  0
  187.9920  177.0970  147.5390 C   0  0  2  0  0  3  0  0  0  0  0  0
  188.1900  177.7080  141.8840 C   0  0  1  0  0  3  0  0  0  0  0  0
  183.5400  178.7390  143.5910 N   0  0  0  0  0  1  0  0  0  0  0  0
  184.7760  178.8310  144.3480 C   0  0  0  0  0  2  0  0  0  0  0  0
  192.9300  176.8270  138.8460 C   0  0  0  0  0  2  0  0  0  0  0  0
  194.6390  175.8050  136.8120 O   0  0  0  0  0  0  0  0  0  0  0  0
  193.4350  176.0060  136.5150 C   0  0  0  0  0  0  0  0  0  0  0  0
  192.5400  176.5850  137.4660 N   0  0  0  0  0  2  0  0  0  0  0  0
  192.9350  175.6490  135.1490 C   0  0  0  0  0  2  0  0  0  0  0  0
  191.5550  175.3750  135.1940 O   0  0  0  0  0  0  0  0  0  0  0  0
  191.4710  174.0690  135.3820 O   0  0  0  0  0  0  0  0  0  0  0  0
  190.4690  173.6380  134.5120 C   0  0  0  0  0  2  0  0  0  0  0  0
  188.0740  173.1470  134.5150 C   0  0  0  0  0  2  0  0  0  0  0  0
  188.7960  171.9460  134.6240 O   0  0  0  0  0  0  0  0  0  0  0  0
  189.3150  173.0600  135.3110 C   0  0  1  0  0  3  0  0  0  0  0  0
  188.1410  177.0610  139.1700 O   0  0  0  0  0  0  0  0  0  0  0  0
  187.5050  175.9560  137.1430 C   0  0  0  0  0  1  0  0  0  0  0  0
  188.0500  177.2260  137.7790 C   0  0  1  0  0  3  0  0  0  0  0  0
  187.6820  179.3950  136.8790 O   0  0  0  0  0  0  0  0  0  0  0  0
  187.1670  178.3930  137.4350 C   0  0  0  0  0  0  0  0  0  0  0  0
  185.7550  178.3820  137.6600 N   0  0  0  0  0  2  0  0  0  0  0  0
  185.0840  177.3720  138.4550 C   0  0  0  0  0  2  0  0  0  0  0  0
  183.7760  177.9320  138.9710 C   0  0  2  0  0  3  0  0  0  0  0  0
  181.2860  177.2430  139.2880 C   0  0  2  0  0  3  0  0  0  0  0  0
  182.6190  176.9930  138.5350 C   0  0  1  0  0  3  0  0  0  0  0  0
  180.2070  179.7010  136.9920 C   0  0  0  0  0  1  0  0  0  0  0  0
  184.3580  180.2000  139.5090 O   0  0  0  0  0  1  0  0  0  0  0  0
  183.6620  179.4170  138.5920 C   0  0  2  0  0  3  0  0  0  0  0  0
  181.4190  179.8050  139.7680 C   0  0  0  0  0  2  0  0  0  0  0  0
  181.4250  177.6080  137.7970 C   0  0  2  0  0  0  0  0  0  0  0  0
  181.5500  179.0890  137.3780 C   0  0  2  0  0  3  0  0  0  0  0  0
  181.3770  178.3790  140.3300 C   0  0  0  0  0  2  0  0  0  0  0  0
  182.2210  179.9070  138.4620 C   0  0  2  0  0  3  0  0  0  0  0  0
  180.0080  175.5240  137.5480 C   0  0  0  0  0  1  0  0  0  0  0  0
  180.8200  176.5860  136.8240 C   0  0  0  0  0  3  0  0  0  0  0  0
  181.8740  175.9400  135.9310 C   0  0  0  0  0  1  0  0  0  0  0  0
  1  2  1  6  0  0  0
  1 19  1  0  0  0  0
  3 33  1  6  0  0  0
  3  1  1  0  0  0  0
  4  2  1  0  0  0  0
  5  3  1  0  0  0  0
  5  6  1  0  0  0  0
  6 22  1  6  0  0  0
  6  4  1  0  0  0  0
  7 13  1  0  0  0  0
  7 17  1  1  0  0  0
  8 17  1  6  0  0  0
  8 16  1  0  0  0  0
  9 13  1  0  0  0  0
  9 21  1  6  0  0  0
 10 19  1  0  0  0  0
 10 12  2  0  0  0  0
 11  8  1  0  0  0  0
 11 14  1  1  0  0  0
 12  9  1  0  0  0  0
 13 11  1  0  0  0  0
 14 18  1  0  0  0  0
 16 18  1  0  0  0  0
 18 15  1  0  0  0  0
 19  7  1  0  0  0  0
 20 21  1  0  0  0  0
 24 23  2  0  0  0  0
 24 25  1  0  0  0  0
 25 22  1  0  0  0  0
 26 27  1  0  0  0  0
 26 24  1  0  0  0  0
 27 28  1  0  0  0  0
 29 32  1  0  0  0  0
 29 28  1  0  0  0  0
 30 31  1  0  0  0  0
 30 32  1  0  0  0  0
 31 32  1  0  0  0  0
 34 35  1  0  0  0  0
 35 33  1  0  0  0  0
 36 37  2  0  0  0  0
 37 38  1  0  0  0  0
 37 35  1  0  0  0  0
 38 39  1  0  0  0  0
 39 40  1  0  0  0  0
 41 49  1  0  0  0  0
 42 40  1  0  0  0  0
 42 41  1  0  0  0  0
 43 48  1  0  0  0  0
 45 40  1  0  0  0  0
 45 44  1  0  0  0  0
 46 49  1  0  0  0  0
 47 42  1  0  0  0  0
 47 41  1  0  0  0  0
 48 47  1  0  0  0  0
 48 50  1  0  0  0  0
 50 45  1  0  0  0  0
 50 46  1  0  0  0  0
 52 51  1  0  0  0  0
 52 47  1  0  0  0  0
 53 52  1  0  0  0  0
M  END
>  <MODEL>
4

>  <REMARK>
 VINA RESULT:      -7.8      1.607      2.999
  Name = 
  15 active torsions:
  status: ('A' for Active; 'I' for Inactive)
    1  A    between atoms: C_2  and  C_32
    2  A    between atoms: C_3  and  C_53
    3  A    between atoms: C_7  and  C_13
    4  A    between atoms: C_7  and  O_40
    5  A    between atoms: C_12  and  C_23
    6  A    between atoms: C_18  and  O_35
    7  A    between atoms: C_21  and  C_38
    8  A    between atoms: C_32  and  N_44
    9  A    between atoms: C_34  and  N_47
   10  A    between atoms: C_34  and  C_51
   11  A    between atoms: O_35  and  C_37
   12  A    between atoms: C_36  and  C_37
   13  A    between atoms: O_39  and  O_40
   14  A    between atoms: O_39  and  C_41
   15  A    between atoms: C_41  and  C_43
                            x       y       z     vdW  Elec       q    Type
                         _______ _______ _______ _____ _____    ______ ____

>  <TORSDO>
F 15

$$$$
=
 OpenBabel10232409293D

 53 60  0  0  1  0  0  0  0  0999 V2000
  189.6370  177.6870  141.2210 C   0  0  1  0  0  3  0  0  0  0  0  0
  190.4860  176.5340  141.5200 N   0  0  0  0  0  2  0  0  0  0  0  0
  189.4080  177.7980  139.7010 C   0  0  1  0  0  3  0  0  0  0  0  0
  191.8600  176.8550  141.1120 C   0  0  0  0  0  2  0  0  0  0  0  0
  190.6440  177.3180  138.9150 C   0  0  0  0  0  2  0  0  0  0  0  0
  191.9360  177.5020  139.7050 C   0  0  2  0  0  3  0  0  0  0  0  0
  188.3720  177.2810  143.3100 C   0  0  2  0  0  3  0  0  0  0  0  0
  189.0210  177.5390  145.5060 C   0  0  1  0  0  3  0  0  0  0  0  0
  186.0980  178.2740  143.6540 C   0  0  2  0  0  3  0  0  0  0  0  0
  187.1650  178.2170  141.4900 N   0  0  0  0  0  0  0  0  0  0  0  0
  187.7160  177.6080  145.4910 C   0  0  1  0  0  3  0  0  0  0  0  0
  186.0820  178.6000  142.3550 C   0  0  0  0  0  3  0  0  0  0  0  0
  187.1300  177.2890  144.1570 C   0  0  2  0  0  3  0  0  0  0  0  0
  187.1410  177.3060  146.7530 N   0  0  0  0  0  2  0  0  0  0  0  0
  188.2290  178.2870  148.9730 Cl  0  0  0  0  0  0  0  0  0  0  0  0
  189.5420  177.1840  146.8670 C   0  0  0  0  0  2  0  0  0  0  0  0
  189.6040  177.1890  144.1730 C   0  0  0  0  0  2  0  0  0  0  0  0
  188.2410  177.0560  147.6850 C   0  0  2  0  0  3  0  0  0  0  0  0
  188.3680  177.6440  142.0250 C   0  0  1  0  0  3  0  0  0  0  0  0
  184.2840  179.8360  143.9620 N   0  0  0  0  0  1  0  0  0  0  0  0
  184.9400  178.6640  144.5140 C   0  0  0  0  0  2  0  0  0  0  0  0
  193.0980  176.9100  138.9340 C   0  0  0  0  0  2  0  0  0  0  0  0
  194.4340  176.8720  136.4210 O   0  0  0  0  0  0  0  0  0  0  0  0
  193.3640  176.2210  136.5220 C   0  0  0  0  0  0  0  0  0  0  0  0
  192.6060  176.2560  137.7330 N   0  0  0  0  0  2  0  0  0  0  0  0
  192.8700  175.4130  135.3610 C   0  0  0  0  0  2  0  0  0  0  0  0
  192.9840  174.0380  135.6440 O   0  0  0  0  0  0  0  0  0  0  0  0
  194.2350  173.8730  136.0380 O   0  0  0  0  0  0  0  0  0  0  0  0
  194.2150  172.7430  136.8560 C   0  0  0  0  0  2  0  0  0  0  0  0
  195.7550  171.0230  137.6610 C   0  0  0  0  0  2  0  0  0  0  0  0
  196.2680  171.5930  136.4830 O   0  0  0  0  0  0  0  0  0  0  0  0
  195.6140  172.4650  137.3750 C   0  0  1  0  0  3  0  0  0  0  0  0
  188.3090  177.0270  139.3050 O   0  0  0  0  0  0  0  0  0  0  0  0
  187.7430  175.8580  137.2920 C   0  0  0  0  0  1  0  0  0  0  0  0
  188.2360  177.1590  137.9090 C   0  0  1  0  0  3  0  0  0  0  0  0
  187.8140  179.2960  136.9560 O   0  0  0  0  0  0  0  0  0  0  0  0
  187.3220  178.2890  137.5250 C   0  0  0  0  0  0  0  0  0  0  0  0
  185.9080  178.2370  137.7260 N   0  0  0  0  0  2  0  0  0  0  0  0
  185.2550  177.2220  138.5320 C   0  0  0  0  0  2  0  0  0  0  0  0
  183.9310  177.7580  139.0320 C   0  0  2  0  0  3  0  0  0  0  0  0
  181.4440  177.0350  139.2890 C   0  0  2  0  0  3  0  0  0  0  0  0
  182.7940  176.8140  138.5580 C   0  0  1  0  0  3  0  0  0  0  0  0
  180.3790  179.5190  137.0140 C   0  0  0  0  0  1  0  0  0  0  0  0
  184.4750  180.0230  139.6190 O   0  0  0  0  0  1  0  0  0  0  0  0
  183.8070  179.2480  138.6750 C   0  0  2  0  0  3  0  0  0  0  0  0
  181.5370  179.5890  139.8140 C   0  0  0  0  0  2  0  0  0  0  0  0
  181.6070  177.4260  137.8070 C   0  0  2  0  0  0  0  0  0  0  0  0
  181.7220  178.9160  137.4150 C   0  0  2  0  0  3  0  0  0  0  0  0
  181.5020  178.1540  140.3510 C   0  0  0  0  0  2  0  0  0  0  0  0
  182.3620  179.7230  138.5260 C   0  0  2  0  0  3  0  0  0  0  0  0
  181.0470  174.9990  137.3590 C   0  0  0  0  0  1  0  0  0  0  0  0
  181.0330  176.4150  136.8050 C   0  0  0  0  0  3  0  0  0  0  0  0
  181.7390  176.4700  135.4550 C   0  0  0  0  0  1  0  0  0  0  0  0
  1  2  1  6  0  0  0
  1 19  1  0  0  0  0
  3 33  1  6  0  0  0
  3  1  1  0  0  0  0
  4  2  1  0  0  0  0
  5  3  1  0  0  0  0
  5  6  1  0  0  0  0
  6 22  1  6  0  0  0
  6  4  1  0  0  0  0
  7 13  1  0  0  0  0
  7 17  1  1  0  0  0
  8 17  1  6  0  0  0
  8 16  1  0  0  0  0
  9 13  1  0  0  0  0
  9 21  1  6  0  0  0
 10 19  1  0  0  0  0
 10 12  2  0  0  0  0
 11  8  1  0  0  0  0
 11 14  1  1  0  0  0
 12  9  1  0  0  0  0
 13 11  1  0  0  0  0
 14 18  1  0  0  0  0
 16 18  1  0  0  0  0
 18 15  1  0  0  0  0
 19  7  1  0  0  0  0
 20 21  1  0  0  0  0
 23 24  2  0  0  0  0
 24 25  1  0  0  0  0
 25 22  1  0  0  0  0
 26 27  1  0  0  0  0
 26 24  1  0  0  0  0
 27 28  1  0  0  0  0
 28 29  1  0  0  0  0
 29 32  1  0  0  0  0
 31 32  1  0  0  0  0
 31 30  1  0  0  0  0
 32 30  1  0  0  0  0
 34 35  1  0  0  0  0
 35 33  1  0  0  0  0
 36 37  2  0  0  0  0
 37 38  1  0  0  0  0
 37 35  1  0  0  0  0
 38 39  1  0  0  0  0
 39 40  1  0  0  0  0
 41 49  1  0  0  0  0
 42 40  1  0  0  0  0
 42 41  1  0  0  0  0
 43 48  1  0  0  0  0
 45 40  1  0  0  0  0
 45 44  1  0  0  0  0
 46 49  1  0  0  0  0
 47 42  1  0  0  0  0
 47 41  1  0  0  0  0
 48 47  1  0  0  0  0
 48 50  1  0  0  0  0
 50 45  1  0  0  0  0
 50 46  1  0  0  0  0
 52 51  1  0  0  0  0
 52 47  1  0  0  0  0
 53 52  1  0  0  0  0
M  END
>  <MODEL>
5

>  <REMARK>
 VINA RESULT:      -7.8      1.068      2.140
  Name = 
  15 active torsions:
  status: ('A' for Active; 'I' for Inactive)
    1  A    between atoms: C_2  and  C_32
    2  A    between atoms: C_3  and  C_53
    3  A    between atoms: C_7  and  C_13
    4  A    between atoms: C_7  and  O_40
    5  A    between atoms: C_12  and  C_23
    6  A    between atoms: C_18  and  O_35
    7  A    between atoms: C_21  and  C_38
    8  A    between atoms: C_32  and  N_44
    9  A    between atoms: C_34  and  N_47
   10  A    between atoms: C_34  and  C_51
   11  A    between atoms: O_35  and  C_37
   12  A    between atoms: C_36  and  C_37
   13  A    between atoms: O_39  and  O_40
   14  A    between atoms: O_39  and  C_41
   15  A    between atoms: C_41  and  C_43
                            x       y       z     vdW  Elec       q    Type
                         _______ _______ _______ _____ _____    ______ ____

>  <TORSDO>
F 15

$$$$
=
 OpenBabel10232409293D

 53 60  0  0  1  0  0  0  0  0999 V2000
  189.4750  177.7200  140.9710 C   0  0  1  0  0  3  0  0  0  0  0  0
  190.3020  176.5380  141.2120 N   0  0  0  0  0  2  0  0  0  0  0  0
  189.1910  177.8730  139.4640 C   0  0  1  0  0  3  0  0  0  0  0  0
  191.6680  176.8310  140.7580 C   0  0  0  0  0  2  0  0  0  0  0  0
  190.3820  177.3770  138.6210 C   0  0  0  0  0  2  0  0  0  0  0  0
  191.7080  177.5070  139.3640 C   0  0  2  0  0  3  0  0  0  0  0  0
  188.2870  177.3420  143.1110 C   0  0  2  0  0  3  0  0  0  0  0  0
  189.0200  177.6120  145.2780 C   0  0  1  0  0  3  0  0  0  0  0  0
  186.0350  178.3560  143.5310 C   0  0  2  0  0  3  0  0  0  0  0  0
  187.0190  178.2720  141.3300 N   0  0  0  0  0  0  0  0  0  0  0  0
  187.7160  177.6910  145.3120 C   0  0  1  0  0  3  0  0  0  0  0  0
  185.9720  178.6710  142.2310 C   0  0  0  0  0  3  0  0  0  0  0  0
  187.0780  177.3660  144.0030 C   0  0  2  0  0  3  0  0  0  0  0  0
  187.1870  177.4040  146.5970 N   0  0  0  0  0  2  0  0  0  0  0  0
  188.3660  178.3950  148.7660 Cl  0  0  0  0  0  0  0  0  0  0  0  0
  189.5890  177.2640  146.6220 C   0  0  0  0  0  2  0  0  0  0  0  0
  189.5490  177.2470  143.9270 C   0  0  0  0  0  2  0  0  0  0  0  0
  188.3200  177.1530  147.4890 C   0  0  2  0  0  3  0  0  0  0  0  0
  188.2360  177.6940  141.8230 C   0  0  1  0  0  3  0  0  0  0  0  0
  183.9360  179.5370  143.6880 N   0  0  0  0  0  1  0  0  0  0  0  0
  184.9130  178.7610  144.4320 C   0  0  0  0  0  2  0  0  0  0  0  0
  192.8230  176.9010  138.5350 C   0  0  0  0  0  2  0  0  0  0  0  0
  192.6060  176.0280  135.8350 O   0  0  0  0  0  0  0  0  0  0  0  0
  192.4240  175.1750  136.7390 C   0  0  0  0  0  0  0  0  0  0  0  0
  192.4460  175.5610  138.1150 N   0  0  0  0  0  2  0  0  0  0  0  0
  192.1660  173.7450  136.3750 C   0  0  0  0  0  2  0  0  0  0  0  0
  193.3430  173.1520  135.8790 O   0  0  0  0  0  0  0  0  0  0  0  0
  193.9920  172.7300  136.9500 O   0  0  0  0  0  0  0  0  0  0  0  0
  194.8970  171.7800  136.4790 C   0  0  0  0  0  2  0  0  0  0  0  0
  196.0100  169.8420  137.4720 C   0  0  0  0  0  2  0  0  0  0  0  0
  195.3380  170.5580  138.4770 O   0  0  0  0  0  0  0  0  0  0  0  0
  194.6970  170.4730  137.2250 C   0  0  1  0  0  3  0  0  0  0  0  0
  188.0560  177.1410  139.0950 O   0  0  0  0  0  0  0  0  0  0  0  0
  187.7780  175.7510  137.1640 C   0  0  0  0  0  1  0  0  0  0  0  0
  188.0360  177.1550  137.6910 C   0  0  1  0  0  3  0  0  0  0  0  0
  187.2910  179.3010  136.9910 O   0  0  0  0  0  0  0  0  0  0  0  0
  186.9830  178.0980  137.1800 C   0  0  0  0  0  0  0  0  0  0  0  0
  185.6620  177.6660  136.8420 N   0  0  0  0  0  2  0  0  0  0  0  0
  185.1400  176.3580  137.1870 C   0  0  0  0  0  2  0  0  0  0  0  0
  183.6280  176.4110  137.1930 C   0  0  2  0  0  3  0  0  0  0  0  0
  181.6800  178.1370  137.1330 C   0  0  2  0  0  3  0  0  0  0  0  0
  183.1750  177.8720  137.4550 C   0  0  1  0  0  3  0  0  0  0  0  0
  180.6010  177.1850  140.3590 C   0  0  0  0  0  1  0  0  0  0  0  0
  183.0290  174.0990  137.4620 O   0  0  0  0  0  1  0  0  0  0  0  0
  183.0750  175.3220  138.1270 C   0  0  2  0  0  3  0  0  0  0  0  0
  180.6050  175.8170  137.6550 C   0  0  0  0  0  2  0  0  0  0  0  0
  182.1800  178.1310  138.5920 C   0  0  2  0  0  0  0  0  0  0  0  0
  181.8450  176.9370  139.5130 C   0  0  2  0  0  3  0  0  0  0  0  0
  180.9380  176.8880  136.6100 C   0  0  0  0  0  2  0  0  0  0  0  0
  181.7050  175.6570  138.7150 C   0  0  2  0  0  3  0  0  0  0  0  0
  181.5900  180.5910  138.5040 C   0  0  0  0  0  1  0  0  0  0  0  0
  182.4180  179.5210  139.1980 C   0  0  0  0  0  3  0  0  0  0  0  0
  183.8930  179.9060  139.2080 C   0  0  0  0  0  1  0  0  0  0  0  0
  1  2  1  6  0  0  0
  1 19  1  0  0  0  0
  3 33  1  6  0  0  0
  3  1  1  0  0  0  0
  4  2  1  0  0  0  0
  5  6  1  0  0  0  0
  5  3  1  0  0  0  0
  6 22  1  6  0  0  0
  6  4  1  0  0  0  0
  7 17  1  1  0  0  0
  7 13  1  0  0  0  0
  8 17  1  6  0  0  0
  8 11  1  0  0  0  0
  8 16  1  0  0  0  0
  9 13  1  0  0  0  0
  9 21  1  6  0  0  0
 10 19  1  0  0  0  0
 10 12  2  0  0  0  0
 11 14  1  1  0  0  0
 12  9  1  0  0  0  0
 13 11  1  0  0  0  0
 14 18  1  0  0  0  0
 16 18  1  0  0  0  0
 18 15  1  0  0  0  0
 19  7  1  0  0  0  0
 20 21  1  0  0  0  0
 23 24  2  0  0  0  0
 24 25  1  0  0  0  0
 25 22  1  0  0  0  0
 26 24  1  0  0  0  0
 27 26  1  0  0  0  0
 27 28  1  0  0  0  0
 29 28  1  0  0  0  0
 29 32  1  0  0  0  0
 30 31  1  0  0  0  0
 32 30  1  0  0  0  0
 32 31  1  0  0  0  0
 34 35  1  0  0  0  0
 35 33  1  0  0  0  0
 36 37  2  0  0  0  0
 37 35  1  0  0  0  0
 38 37  1  0  0  0  0
 38 39  1  0  0  0  0
 39 40  1  0  0  0  0
 40 42  1  0  0  0  0
 40 45  1  0  0  0  0
 41 42  1  0  0  0  0
 41 47  1  0  0  0  0
 42 47  1  0  0  0  0
 44 45  1  0  0  0  0
 45 50  1  0  0  0  0
 46 50  1  0  0  0  0
 47 52  1  0  0  0  0
 47 48  1  0  0  0  0
 48 43  1  0  0  0  0
 49 41  1  0  0  0  0
 49 46  1  0  0  0  0
 50 48  1  0  0  0  0
 51 52  1  0  0  0  0
 52 53  1  0  0  0  0
M  END
>  <MODEL>
6

>  <REMARK>
 VINA RESULT:      -7.7      1.240      1.505
  Name = 
  15 active torsions:
  status: ('A' for Active; 'I' for Inactive)
    1  A    between atoms: C_2  and  C_32
    2  A    between atoms: C_3  and  C_53
    3  A    between atoms: C_7  and  C_13
    4  A    between atoms: C_7  and  O_40
    5  A    between atoms: C_12  and  C_23
    6  A    between atoms: C_18  and  O_35
    7  A    between atoms: C_21  and  C_38
    8  A    between atoms: C_32  and  N_44
    9  A    between atoms: C_34  and  N_47
   10  A    between atoms: C_34  and  C_51
   11  A    between atoms: O_35  and  C_37
   12  A    between atoms: C_36  and  C_37
   13  A    between atoms: O_39  and  O_40
   14  A    between atoms: O_39  and  C_41
   15  A    between atoms: C_41  and  C_43
                            x       y       z     vdW  Elec       q    Type
                         _______ _______ _______ _____ _____    ______ ____

>  <TORSDO>
F 15

$$$$
=
 OpenBabel10232409293D

 53 60  0  0  1  0  0  0  0  0999 V2000
  189.6700  177.6660  140.5860 C   0  0  1  0  0  3  0  0  0  0  0  0
  190.4910  176.5430  141.0380 N   0  0  0  0  0  2  0  0  0  0  0  0
  189.5260  177.6340  139.0520 C   0  0  1  0  0  3  0  0  0  0  0  0
  191.8880  176.8190  140.6790 C   0  0  0  0  0  2  0  0  0  0  0  0
  190.7980  177.0780  138.3840 C   0  0  0  0  0  2  0  0  0  0  0  0
  192.0470  177.3300  139.2240 C   0  0  2  0  0  3  0  0  0  0  0  0
  188.2720  177.3570  142.6060 C   0  0  2  0  0  3  0  0  0  0  0  0
  188.8130  177.6030  144.8320 C   0  0  1  0  0  3  0  0  0  0  0  0
  186.0420  178.4800  142.8140 C   0  0  2  0  0  3  0  0  0  0  0  0
  187.2210  178.3370  140.7140 N   0  0  0  0  0  0  0  0  0  0  0  0
  187.5170  177.7450  144.7440 C   0  0  1  0  0  3  0  0  0  0  0  0
  186.1160  178.7910  141.5140 C   0  0  0  0  0  3  0  0  0  0  0  0
  186.9870  177.4440  143.3820 C   0  0  2  0  0  3  0  0  0  0  0  0
  186.8570  177.4910  145.9750 N   0  0  0  0  0  2  0  0  0  0  0  0
  187.8760  178.4360  148.2430 Cl  0  0  0  0  0  0  0  0  0  0  0  0
  189.2370  177.2360  146.2230 C   0  0  0  0  0  2  0  0  0  0  0  0
  189.4460  177.2060  143.5360 C   0  0  0  0  0  2  0  0  0  0  0  0
  187.8880  177.1910  146.9680 C   0  0  2  0  0  3  0  0  0  0  0  0
  188.3580  177.7040  141.3190 C   0  0  1  0  0  3  0  0  0  0  0  0
  183.6850  178.9960  142.7570 N   0  0  0  0  0  1  0  0  0  0  0  0
  184.8620  178.9440  143.6060 C   0  0  0  0  0  2  0  0  0  0  0  0
  193.2440  176.6640  138.5780 C   0  0  0  0  0  2  0  0  0  0  0  0
  194.8050  176.8180  136.2020 O   0  0  0  0  0  0  0  0  0  0  0  0
  193.7270  176.1730  136.1510 C   0  0  0  0  0  0  0  0  0  0  0  0
  192.8610  176.1170  137.2860 N   0  0  0  0  0  2  0  0  0  0  0  0
  193.3380  175.4700  134.8870 C   0  0  0  0  0  2  0  0  0  0  0  0
  193.1420  174.0980  135.1360 O   0  0  0  0  0  0  0  0  0  0  0  0
  191.9580  173.8210  134.6190 O   0  0  0  0  0  0  0  0  0  0  0  0
  191.2750  173.1290  135.6180 C   0  0  0  0  0  2  0  0  0  0  0  0
  189.2020  173.1830  136.9140 C   0  0  0  0  0  2  0  0  0  0  0  0
  190.2040  173.8800  137.6100 O   0  0  0  0  0  0  0  0  0  0  0  0
  190.1960  174.0180  136.2080 C   0  0  1  0  0  3  0  0  0  0  0  0
  188.4420  176.8340  138.6700 O   0  0  0  0  0  0  0  0  0  0  0  0
  188.5150  178.8500  137.3790 C   0  0  0  0  0  1  0  0  0  0  0  0
  187.7660  177.5600  137.6770 C   0  0  1  0  0  3  0  0  0  0  0  0
  188.3130  177.0580  135.4180 O   0  0  0  0  0  0  0  0  0  0  0  0
  187.6240  176.7450  136.4210 C   0  0  0  0  0  0  0  0  0  0  0  0
  186.7820  175.5920  136.3430 N   0  0  0  0  0  2  0  0  0  0  0  0
  185.8100  175.2470  137.3620 C   0  0  0  0  0  2  0  0  0  0  0  0
  184.4300  175.2090  136.7420 C   0  0  2  0  0  3  0  0  0  0  0  0
  182.5210  176.8130  135.9970 C   0  0  2  0  0  3  0  0  0  0  0  0
  183.7710  176.6060  136.8920 C   0  0  1  0  0  3  0  0  0  0  0  0
  180.3140  175.4730  138.4070 C   0  0  0  0  0  1  0  0  0  0  0  0
  184.0000  172.8510  136.5770 O   0  0  0  0  0  1  0  0  0  0  0  0
  183.6520  173.9990  137.2830 C   0  0  2  0  0  3  0  0  0  0  0  0
  181.5560  174.3920  135.8630 C   0  0  0  0  0  2  0  0  0  0  0  0
  182.3790  176.6880  137.5270 C   0  0  2  0  0  0  0  0  0  0  0  0
  181.8130  175.3880  138.1400 C   0  0  2  0  0  3  0  0  0  0  0  0
  182.1820  175.5830  135.1280 C   0  0  0  0  0  2  0  0  0  0  0  0
  182.1360  174.1900  137.2710 C   0  0  2  0  0  3  0  0  0  0  0  0
  181.8360  179.1520  137.3290 C   0  0  0  0  0  1  0  0  0  0  0  0
  182.2120  178.0190  138.2710 C   0  0  0  0  0  3  0  0  0  0  0  0
  183.4470  178.3870  139.0870 C   0  0  0  0  0  1  0  0  0  0  0  0
  1  2  1  1  0  0  0
  1 19  1  0  0  0  0
  3 33  1  1  0  0  0
  3  1  1  0  0  0  0
  4  2  1  0  0  0  0
  5  3  1  0  0  0  0
  5  6  1  0  0  0  0
  6 22  1  6  0  0  0
  6  4  1  0  0  0  0
  7 13  1  0  0  0  0
  7 17  1  1  0  0  0
  8 17  1  6  0  0  0
  8 16  1  0  0  0  0
  9 13  1  0  0  0  0
  9 21  1  6  0  0  0
 10 19  1  0  0  0  0
 10 12  2  0  0  0  0
 11  8  1  0  0  0  0
 11 14  1  1  0  0  0
 12  9  1  0  0  0  0
 13 11  1  0  0  0  0
 14 18  1  0  0  0  0
 16 18  1  0  0  0  0
 18 15  1  0  0  0  0
 19  7  1  0  0  0  0
 20 21  1  0  0  0  0
 24 23  2  0  0  0  0
 24 25  1  0  0  0  0
 25 22  1  0  0  0  0
 26 27  1  0  0  0  0
 26 24  1  0  0  0  0
 28 27  1  0  0  0  0
 28 29  1  0  0  0  0
 29 32  1  0  0  0  0
 30 31  1  0  0  0  0
 32 30  1  0  0  0  0
 32 31  1  0  0  0  0
 34 35  1  0  0  0  0
 35 33  1  0  0  0  0
 36 37  2  0  0  0  0
 37 35  1  0  0  0  0
 38 37  1  0  0  0  0
 38 39  1  0  0  0  0
 40 42  1  0  0  0  0
 40 45  1  0  0  0  0
 40 39  1  0  0  0  0
 41 42  1  0  0  0  0
 41 47  1  0  0  0  0
 42 47  1  0  0  0  0
 44 45  1  0  0  0  0
 46 50  1  0  0  0  0
 47 48  1  0  0  0  0
 47 52  1  0  0  0  0
 48 43  1  0  0  0  0
 49 46  1  0  0  0  0
 49 41  1  0  0  0  0
 50 45  1  0  0  0  0
 50 48  1  0  0  0  0
 51 52  1  0  0  0  0
 52 53  1  0  0  0  0
M  END
>  <MODEL>
7

>  <REMARK>
 VINA RESULT:      -7.6      1.683      2.430
  Name = 
  15 active torsions:
  status: ('A' for Active; 'I' for Inactive)
    1  A    between atoms: C_2  and  C_32
    2  A    between atoms: C_3  and  C_53
    3  A    between atoms: C_7  and  C_13
    4  A    between atoms: C_7  and  O_40
    5  A    between atoms: C_12  and  C_23
    6  A    between atoms: C_18  and  O_35
    7  A    between atoms: C_21  and  C_38
    8  A    between atoms: C_32  and  N_44
    9  A    between atoms: C_34  and  N_47
   10  A    between atoms: C_34  and  C_51
   11  A    between atoms: O_35  and  C_37
   12  A    between atoms: C_36  and  C_37
   13  A    between atoms: O_39  and  O_40
   14  A    between atoms: O_39  and  C_41
   15  A    between atoms: C_41  and  C_43
                            x       y       z     vdW  Elec       q    Type
                         _______ _______ _______ _____ _____    ______ ____

>  <TORSDO>
F 15

$$$$
=
 OpenBabel10232409293D

 53 60  0  0  1  0  0  0  0  0999 V2000
  189.6290  177.5980  140.0990 C   0  0  1  0  0  3  0  0  0  0  0  0
  190.5520  176.5490  140.5290 N   0  0  0  0  0  2  0  0  0  0  0  0
  189.2810  177.4220  138.6080 C   0  0  1  0  0  3  0  0  0  0  0  0
  191.8740  176.8360  139.9580 C   0  0  0  0  0  2  0  0  0  0  0  0
  190.4760  176.8480  137.8210 C   0  0  0  0  0  2  0  0  0  0  0  0
  191.8130  177.2160  138.4560 C   0  0  2  0  0  3  0  0  0  0  0  0
  188.5020  177.2990  142.2840 C   0  0  2  0  0  3  0  0  0  0  0  0
  189.3400  177.5030  144.4210 C   0  0  1  0  0  3  0  0  0  0  0  0
  186.3510  178.4780  142.7960 C   0  0  2  0  0  3  0  0  0  0  0  0
  187.2370  178.3310  140.5570 N   0  0  0  0  0  0  0  0  0  0  0  0
  188.0480  177.6800  144.5070 C   0  0  1  0  0  3  0  0  0  0  0  0
  186.2610  178.8030  141.5010 C   0  0  0  0  0  3  0  0  0  0  0  0
  187.3350  177.4100  143.2240 C   0  0  2  0  0  3  0  0  0  0  0  0
  187.5510  177.4270  145.8120 N   0  0  0  0  0  2  0  0  0  0  0  0
  188.8860  178.3160  147.9330 Cl  0  0  0  0  0  0  0  0  0  0  0  0
  189.9350  177.1070  145.7390 C   0  0  0  0  0  2  0  0  0  0  0  0
  189.7850  177.1060  143.0480 C   0  0  0  0  0  2  0  0  0  0  0  0
  188.6960  177.0880  146.6560 C   0  0  2  0  0  3  0  0  0  0  0  0
  188.4270  177.6610  141.0000 C   0  0  1  0  0  3  0  0  0  0  0  0
  184.0100  178.4050  143.3760 N   0  0  0  0  0  1  0  0  0  0  0  0
  185.3000  178.9620  143.7420 C   0  0  0  0  0  2  0  0  0  0  0  0
  192.9410  176.5320  137.7110 C   0  0  0  0  0  2  0  0  0  0  0  0
  194.8140  174.4930  137.0500 O   0  0  0  0  0  0  0  0  0  0  0  0
  194.7800  174.8890  138.2420 C   0  0  0  0  0  0  0  0  0  0  0  0
  193.8150  175.8580  138.6570 N   0  0  0  0  0  2  0  0  0  0  0  0
  195.7480  174.3320  139.2410 C   0  0  0  0  0  2  0  0  0  0  0  0
  196.9190  173.9000  138.5910 O   0  0  0  0  0  0  0  0  0  0  0  0
  197.6620  174.9850  138.4650 O   0  0  0  0  0  0  0  0  0  0  0  0
  198.7410  174.6000  137.6700 C   0  0  0  0  0  2  0  0  0  0  0  0
  199.5830  174.6260  135.3740 C   0  0  0  0  0  2  0  0  0  0  0  0
  198.7060  173.5390  135.5370 O   0  0  0  0  0  0  0  0  0  0  0  0
  198.3650  174.7310  136.2050 C   0  0  1  0  0  3  0  0  0  0  0  0
  188.1930  176.5550  138.4490 O   0  0  0  0  0  0  0  0  0  0  0  0
  188.0280  178.4050  136.9370 C   0  0  0  0  0  1  0  0  0  0  0  0
  187.3450  177.1760  137.5190 C   0  0  1  0  0  3  0  0  0  0  0  0
  187.7950  175.3370  136.0800 O   0  0  0  0  0  0  0  0  0  0  0  0
  186.9720  176.2240  136.4160 C   0  0  0  0  0  0  0  0  0  0  0  0
  185.6930  176.2510  135.7780 N   0  0  0  0  0  2  0  0  0  0  0  0
  184.7410  177.3330  135.9470 C   0  0  0  0  0  2  0  0  0  0  0  0
  183.5880  176.8530  136.8030 C   0  0  2  0  0  3  0  0  0  0  0  0
  182.9970  174.9680  138.4980 C   0  0  2  0  0  3  0  0  0  0  0  0
  183.9120  175.4310  137.3330 C   0  0  1  0  0  3  0  0  0  0  0  0
  180.5470  173.6420  136.3250 C   0  0  0  0  0  1  0  0  0  0  0  0
  181.8180  178.3510  136.1760 O   0  0  0  0  0  1  0  0  0  0  0  0
  182.2660  177.0400  136.0420 C   0  0  2  0  0  3  0  0  0  0  0  0
  180.7640  176.1980  137.9400 C   0  0  0  0  0  2  0  0  0  0  0  0
  182.8820  174.3190  137.1040 C   0  0  2  0  0  0  0  0  0  0  0  0
  181.6780  174.6580  136.1970 C   0  0  2  0  0  3  0  0  0  0  0  0
  181.9440  176.0230  138.9020 C   0  0  0  0  0  2  0  0  0  0  0  0
  181.1720  176.0600  136.4650 C   0  0  2  0  0  3  0  0  0  0  0  0
  184.9000  172.9250  137.7290 C   0  0  0  0  0  1  0  0  0  0  0  0
  183.5870  172.9630  136.9640 C   0  0  0  0  0  3  0  0  0  0  0  0
  183.8030  172.5690  135.5060 C   0  0  0  0  0  1  0  0  0  0  0  0
  1  2  1  1  0  0  0
  1 19  1  0  0  0  0
  3 33  1  1  0  0  0
  3  1  1  0  0  0  0
  4  2  1  0  0  0  0
  5  6  1  0  0  0  0
  5  3  1  0  0  0  0
  6 22  1  6  0  0  0
  6  4  1  0  0  0  0
  7 17  1  1  0  0  0
  7 13  1  0  0  0  0
  8 17  1  6  0  0  0
  8 11  1  0  0  0  0
  8 16  1  0  0  0  0
  9 13  1  0  0  0  0
  9 21  1  6  0  0  0
 10 19  1  0  0  0  0
 10 12  2  0  0  0  0
 11 14  1  1  0  0  0
 12  9  1  0  0  0  0
 13 11  1  0  0  0  0
 14 18  1  0  0  0  0
 16 18  1  0  0  0  0
 18 15  1  0  0  0  0
 19  7  1  0  0  0  0
 20 21  1  0  0  0  0
 22 25  1  0  0  0  0
 23 24  2  0  0  0  0
 24 25  1  0  0  0  0
 24 26  1  0  0  0  0
 27 26  1  0  0  0  0
 28 27  1  0  0  0  0
 29 28  1  0  0  0  0
 30 31  1  0  0  0  0
 30 32  1  0  0  0  0
 31 32  1  0  0  0  0
 32 29  1  0  0  0  0
 34 35  1  0  0  0  0
 35 33  1  0  0  0  0
 36 37  2  0  0  0  0
 37 35  1  0  0  0  0
 38 39  1  0  0  0  0
 38 37  1  0  0  0  0
 39 40  1  0  0  0  0
 40 42  1  0  0  0  0
 41 49  1  0  0  0  0
 42 41  1  0  0  0  0
 45 44  1  0  0  0  0
 45 50  1  0  0  0  0
 45 40  1  0  0  0  0
 46 49  1  0  0  0  0
 47 42  1  0  0  0  0
 47 41  1  0  0  0  0
 48 43  1  0  0  0  0
 48 50  1  0  0  0  0
 48 47  1  0  0  0  0
 50 46  1  0  0  0  0
 52 47  1  0  0  0  0
 52 51  1  0  0  0  0
 53 52  1  0  0  0  0
M  END
>  <MODEL>
8

>  <REMARK>
 VINA RESULT:      -7.3      1.917      3.138
  Name = 
  15 active torsions:
  status: ('A' for Active; 'I' for Inactive)
    1  A    between atoms: C_2  and  C_32
    2  A    between atoms: C_3  and  C_53
    3  A    between atoms: C_7  and  C_13
    4  A    between atoms: C_7  and  O_40
    5  A    between atoms: C_12  and  C_23
    6  A    between atoms: C_18  and  O_35
    7  A    between atoms: C_21  and  C_38
    8  A    between atoms: C_32  and  N_44
    9  A    between atoms: C_34  and  N_47
   10  A    between atoms: C_34  and  C_51
   11  A    between atoms: O_35  and  C_37
   12  A    between atoms: C_36  and  C_37
   13  A    between atoms: O_39  and  O_40
   14  A    between atoms: O_39  and  C_41
   15  A    between atoms: C_41  and  C_43
                            x       y       z     vdW  Elec       q    Type
                         _______ _______ _______ _____ _____    ______ ____

>  <TORSDO>
F 15

$$$$
=
 OpenBabel10232409293D

 53 60  0  0  1  0  0  0  0  0999 V2000
  186.9240  178.0980  140.9390 C   0  0  1  0  0  3  0  0  0  0  0  0
  186.1810  179.3410  141.1410 N   0  0  0  0  0  2  0  0  0  0  0  0
  187.1760  177.8670  139.4360 C   0  0  1  0  0  3  0  0  0  0  0  0
  184.7930  179.1240  140.7150 C   0  0  0  0  0  2  0  0  0  0  0  0
  186.0090  178.4080  138.5870 C   0  0  0  0  0  2  0  0  0  0  0  0
  184.6880  178.3970  139.3500 C   0  0  2  0  0  3  0  0  0  0  0  0
  188.1230  178.2190  143.1020 C   0  0  2  0  0  3  0  0  0  0  0  0
  187.4480  177.5690  145.2070 C   0  0  1  0  0  3  0  0  0  0  0  0
  190.4440  177.3050  143.3420 C   0  0  2  0  0  3  0  0  0  0  0  0
  189.4170  177.6620  141.1880 N   0  0  0  0  0  0  0  0  0  0  0  0
  188.7550  177.5730  145.2180 C   0  0  1  0  0  3  0  0  0  0  0  0
  190.5030  177.2000  142.0090 C   0  0  0  0  0  3  0  0  0  0  0  0
  189.3470  178.1380  143.9710 C   0  0  2  0  0  3  0  0  0  0  0  0
  189.2870  177.6920  146.5280 N   0  0  0  0  0  2  0  0  0  0  0  0
  188.2140  176.3020  148.5250 Cl  0  0  0  0  0  0  0  0  0  0  0  0
  186.8820  177.6660  146.5920 C   0  0  0  0  0  2  0  0  0  0  0  0
  186.8720  178.1020  143.9330 C   0  0  0  0  0  2  0  0  0  0  0  0
  188.1570  177.7260  147.4560 C   0  0  2  0  0  3  0  0  0  0  0  0
  188.1730  178.0740  141.7750 C   0  0  1  0  0  3  0  0  0  0  0  0
  191.7200  175.3950  144.0820 N   0  0  0  0  0  1  0  0  0  0  0  0
  191.6050  176.8410  144.1600 C   0  0  0  0  0  2  0  0  0  0  0  0
  183.6040  179.0430  138.5100 C   0  0  0  0  0  2  0  0  0  0  0  0
  181.3660  178.5370  140.1950 O   0  0  0  0  0  0  0  0  0  0  0  0
  181.4220  177.9230  139.1000 C   0  0  0  0  0  0  0  0  0  0  0  0
  182.5530  178.0760  138.2400 N   0  0  0  0  0  2  0  0  0  0  0  0
  180.3020  177.0130  138.6970 C   0  0  0  0  0  2  0  0  0  0  0  0
  180.7910  175.7110  138.4800 O   0  0  0  0  0  0  0  0  0  0  0  0
  180.6140  175.4900  137.1890 O   0  0  0  0  0  0  0  0  0  0  0  0
  180.0030  174.2380  137.1120 C   0  0  0  0  0  2  0  0  0  0  0  0
  180.3650  171.8330  137.3670 C   0  0  0  0  0  2  0  0  0  0  0  0
  181.1160  172.3040  136.2770 O   0  0  0  0  0  0  0  0  0  0  0  0
  181.0270  173.1540  137.3970 C   0  0  1  0  0  3  0  0  0  0  0  0
  188.3520  178.5050  139.0240 O   0  0  0  0  0  0  0  0  0  0  0  0
  188.9830  179.2590  136.8400 C   0  0  0  0  0  1  0  0  0  0  0  0
  188.5750  178.0770  137.7060 C   0  0  1  0  0  3  0  0  0  0  0  0
  190.5090  176.9940  138.5660 O   0  0  0  0  0  0  0  0  0  0  0  0
  189.6380  177.0140  137.6610 C   0  0  0  0  0  0  0  0  0  0  0  0
  189.6590  175.9910  136.6640 N   0  0  0  0  0  2  0  0  0  0  0  0
  188.8280  176.0190  135.4760 C   0  0  0  0  0  2  0  0  0  0  0  0
  188.0870  174.7050  135.3540 C   0  0  2  0  0  3  0  0  0  0  0  0
  185.8340  173.7470  134.4690 C   0  0  2  0  0  3  0  0  0  0  0  0
  186.6100  174.9920  134.9740 C   0  0  1  0  0  3  0  0  0  0  0  0
  184.8490  172.7820  137.7210 C   0  0  0  0  0  1  0  0  0  0  0  0
  189.5540  173.1750  136.4860 O   0  0  0  0  0  1  0  0  0  0  0  0
  188.3410  173.8490  136.6050 C   0  0  2  0  0  3  0  0  0  0  0  0
  186.9910  171.8240  135.8020 C   0  0  0  0  0  2  0  0  0  0  0  0
  185.5050  174.3750  135.8380 C   0  0  2  0  0  0  0  0  0  0  0  0
  185.9480  173.6630  137.1350 C   0  0  2  0  0  3  0  0  0  0  0  0
  186.6930  172.4630  134.4410 C   0  0  0  0  0  2  0  0  0  0  0  0
  187.2150  172.8630  136.9120 C   0  0  2  0  0  3  0  0  0  0  0  0
  183.2070  174.8120  134.8700 C   0  0  0  0  0  1  0  0  0  0  0  0
  184.2700  175.2850  135.8490 C   0  0  0  0  0  3  0  0  0  0  0  0
  184.6230  176.7470  135.5930 C   0  0  0  0  0  1  0  0  0  0  0  0
  1  2  1  6  0  0  0
  1 19  1  0  0  0  0
  3 33  1  6  0  0  0
  3  1  1  0  0  0  0
  4  2  1  0  0  0  0
  5  6  1  0  0  0  0
  5  3  1  0  0  0  0
  6 22  1  6  0  0  0
  6  4  1  0  0  0  0
  7 17  1  1  0  0  0
  7 13  1  0  0  0  0
  8 17  1  6  0  0  0
  8 11  1  0  0  0  0
  8 16  1  0  0  0  0
  9 13  1  0  0  0  0
  9 21  1  6  0  0  0
 10 19  1  0  0  0  0
 10 12  2  0  0  0  0
 11 14  1  1  0  0  0
 12  9  1  0  0  0  0
 13 11  1  0  0  0  0
 14 18  1  0  0  0  0
 16 18  1  0  0  0  0
 18 15  1  0  0  0  0
 19  7  1  0  0  0  0
 20 21  1  0  0  0  0
 24 23  2  0  0  0  0
 25 22  1  0  0  0  0
 25 24  1  0  0  0  0
 26 24  1  0  0  0  0
 27 26  1  0  0  0  0
 28 27  1  0  0  0  0
 29 28  1  0  0  0  0
 29 32  1  0  0  0  0
 30 32  1  0  0  0  0
 31 30  1  0  0  0  0
 31 32  1  0  0  0  0
 34 35  1  0  0  0  0
 35 33  1  0  0  0  0
 37 35  1  0  0  0  0
 37 36  2  0  0  0  0
 38 37  1  0  0  0  0
 39 38  1  0  0  0  0
 40 39  1  0  0  0  0
 40 45  1  0  0  0  0
 41 42  1  0  0  0  0
 41 47  1  0  0  0  0
 42 40  1  0  0  0  0
 42 47  1  0  0  0  0
 44 45  1  0  0  0  0
 45 50  1  0  0  0  0
 46 50  1  0  0  0  0
 47 52  1  0  0  0  0
 47 48  1  0  0  0  0
 48 43  1  0  0  0  0
 49 41  1  0  0  0  0
 49 46  1  0  0  0  0
 50 48  1  0  0  0  0
 51 52  1  0  0  0  0
 53 52  1  0  0  0  0
M  END
>  <MODEL>
9

>  <REMARK>
 VINA RESULT:      -7.1      2.949      7.614
  Name = 
  15 active torsions:
  status: ('A' for Active; 'I' for Inactive)
    1  A    between atoms: C_2  and  C_32
    2  A    between atoms: C_3  and  C_53
    3  A    between atoms: C_7  and  C_13
    4  A    between atoms: C_7  and  O_40
    5  A    between atoms: C_12  and  C_23
    6  A    between atoms: C_18  and  O_35
    7  A    between atoms: C_21  and  C_38
    8  A    between atoms: C_32  and  N_44
    9  A    between atoms: C_34  and  N_47
   10  A    between atoms: C_34  and  C_51
   11  A    between atoms: O_35  and  C_37
   12  A    between atoms: C_36  and  C_37
   13  A    between atoms: O_39  and  O_40
   14  A    between atoms: O_39  and  C_41
   15  A    between atoms: C_41  and  C_43
                            x       y       z     vdW  Elec       q    Type
                         _______ _______ _______ _____ _____    ______ ____

>  <TORSDO>
F 15

$$$$
