=
 OpenBabel10232410013D

 26 30  0  0  1  0  0  0  0  0999 V2000
  183.8740  179.1580  144.8630 C   0  0  0  0  0  1  0  0  0  0  0  0
  184.9280  178.2320  144.2810 C   0  0  1  0  0  3  0  0  0  0  0  0
  186.1580  177.9350  138.8600 N   0  0  0  0  0  0  0  0  0  0  0  0
  184.1460  177.1100  137.8840 N   0  0  0  0  0  2  0  0  0  0  0  0
  183.2470  178.1010  140.3170 C   0  0  0  0  0  0  0  0  0  0  0  0
  182.7350  176.9620  138.2680 C   0  0  0  0  0  2  0  0  0  0  0  0
  185.2370  179.2030  140.5700 N   0  0  0  0  0  0  0  0  0  0  0  0
  182.6080  177.1320  139.7240 N   0  0  0  0  0  0  0  0  0  0  0  0
  184.2160  178.9570  139.5780 C   0  0  1  0  0  3  0  0  0  0  0  0
  184.7200  178.6750  141.7960 C   0  0  0  0  0  0  0  0  0  0  0  0
  184.9040  178.0900  138.6000 C   0  0  0  0  0  0  0  0  0  0  0  0
  185.4370  178.7730  143.0280 N   0  0  0  0  0  2  0  0  0  0  0  0
  186.5120  178.7580  140.0140 C   0  0  0  0  0  2  0  0  0  0  0  0
  183.5910  178.0450  141.6930 N   0  0  0  0  0  0  0  0  0  0  0  0
  188.0600  177.7360  147.0490 C   0  0  0  0  0  0  0  0  0  0  0  0
  186.8760  178.2400  147.4670 N   0  0  0  0  0  0  0  0  0  0  0  0
  185.8900  178.3910  146.5730 N   0  0  0  0  0  0  0  0  0  0  0  0
  190.0090  177.0100  146.8590 C   0  0  0  0  0  0  0  0  0  0  0  0
  187.2730  177.5240  144.8020 C   0  0  0  0  0  3  0  0  0  0  0  0
  186.0480  178.0510  145.2500 C   0  0  0  0  0  0  0  0  0  0  0  0
  188.2650  177.3850  145.7610 C   0  0  0  0  0  0  0  0  0  0  0  0
  189.1540  177.5130  147.7920 N   0  0  0  0  0  0  0  0  0  0  0  0
  189.4830  176.9320  145.6440 O   0  0  0  0  0  0  0  0  0  0  0  0
  191.3810  176.5920  147.1680 C   0  0  0  0  0  0  0  0  0  0  0  0
  192.0690  175.5820  146.3190 C   0  0  0  0  0  1  0  0  0  0  0  0
  192.0000  177.0890  148.1880 N   0  0  0  0  0  2  0  0  0  0  0  0
  2  1  1  1  0  0  0
  2 20  1  0  0  0  0
  3 13  1  0  0  0  0
  4  6  1  0  0  0  0
  4 11  1  0  0  0  0
  5 14  1  0  0  0  0
  6  8  1  0  0  0  0
  7 10  1  0  0  0  0
  8  5  2  0  0  0  0
  9 11  1  6  0  0  0
  9  5  1  0  0  0  0
  9  7  1  0  0  0  0
 10 12  1  0  0  0  0
 11  3  2  0  0  0  0
 12  2  1  0  0  0  0
 13  7  1  0  0  0  0
 14 10  2  0  0  0  0
 15 16  1  0  0  0  0
 15 22  1  0  0  0  0
 17 16  2  0  0  0  0
 18 24  1  0  0  0  0
 18 22  2  0  0  0  0
 19 20  2  0  0  0  0
 19 21  1  0  0  0  0
 20 17  1  0  0  0  0
 21 15  2  0  0  0  0
 23 21  1  0  0  0  0
 23 18  1  0  0  0  0
 24 26  2  0  0  0  0
 25 24  1  0  0  0  0
M  END
>  <MODEL>
1

>  <REMARK>
 VINA RESULT:      -8.0      0.000      0.000
  Name = 
  3 active torsions:
  status: ('A' for Active; 'I' for Inactive)
    1  A    between atoms: C_1  and  C_14
    2  A    between atoms: C_18  and  C_22
    3  A    between atoms: N_21  and  C_22
                            x       y       z     vdW  Elec       q    Type
                         _______ _______ _______ _____ _____    ______ ____

>  <TORSDO>
F 3

$$$$
=
 OpenBabel10232410013D

 26 30  0  0  1  0  0  0  0  0999 V2000
  188.0690  178.0650  139.8660 C   0  0  0  0  0  1  0  0  0  0  0  0
  189.0810  177.0350  140.3390 C   0  0  1  0  0  3  0  0  0  0  0  0
  194.1830  175.6060  138.6340 N   0  0  0  0  0  0  0  0  0  0  0  0
  193.7860  173.7210  137.2300 N   0  0  0  0  0  2  0  0  0  0  0  0
  191.2880  174.9320  137.2960 C   0  0  0  0  0  0  0  0  0  0  0  0
  192.6440  173.1000  136.5450 C   0  0  0  0  0  2  0  0  0  0  0  0
  192.2550  176.8110  138.1750 N   0  0  0  0  0  0  0  0  0  0  0  0
  191.3920  173.6490  137.0920 N   0  0  0  0  0  0  0  0  0  0  0  0
  192.4530  175.8420  137.1230 C   0  0  1  0  0  3  0  0  0  0  0  0
  190.9610  176.5290  138.7210 C   0  0  0  0  0  0  0  0  0  0  0  0
  193.6510  175.1050  137.5710 C   0  0  0  0  0  0  0  0  0  0  0  0
  190.3900  177.3160  139.7680 N   0  0  0  0  0  2  0  0  0  0  0  0
  193.4570  176.8190  139.0030 C   0  0  0  0  0  2  0  0  0  0  0  0
  190.3800  175.4720  138.2450 N   0  0  0  0  0  0  0  0  0  0  0  0
  189.3530  177.0320  144.5400 C   0  0  0  0  0  0  0  0  0  0  0  0
  190.3720  176.5280  143.8070 N   0  0  0  0  0  0  0  0  0  0  0  0
  190.2700  176.5360  142.4710 N   0  0  0  0  0  0  0  0  0  0  0  0
  188.0580  177.6940  146.0380 C   0  0  0  0  0  0  0  0  0  0  0  0
  188.0970  177.5690  142.5790 C   0  0  0  0  0  3  0  0  0  0  0  0
  189.1630  177.0400  141.8290 C   0  0  0  0  0  0  0  0  0  0  0  0
  188.2450  177.5400  143.9570 C   0  0  0  0  0  0  0  0  0  0  0  0
  189.2770  177.1100  145.8770 N   0  0  0  0  0  0  0  0  0  0  0  0
  187.4370  177.9530  144.8950 O   0  0  0  0  0  0  0  0  0  0  0  0
  187.4850  178.0100  147.3520 C   0  0  0  0  0  0  0  0  0  0  0  0
  188.2560  177.7330  148.5940 C   0  0  0  0  0  1  0  0  0  0  0  0
  186.3010  178.5210  147.4410 N   0  0  0  0  0  2  0  0  0  0  0  0
  2  1  1  1  0  0  0
  2 20  1  0  0  0  0
  3 13  1  0  0  0  0
  4 11  1  0  0  0  0
  5 14  1  0  0  0  0
  6  8  1  0  0  0  0
  6  4  1  0  0  0  0
  7 10  1  0  0  0  0
  7 13  1  0  0  0  0
  8  5  2  0  0  0  0
  9  5  1  1  0  0  0
  9 11  1  0  0  0  0
  9  7  1  0  0  0  0
 10 12  1  0  0  0  0
 11  3  2  0  0  0  0
 12  2  1  0  0  0  0
 14 10  2  0  0  0  0
 15 22  1  0  0  0  0
 16 15  2  0  0  0  0
 17 16  1  0  0  0  0
 18 24  1  0  0  0  0
 19 21  2  0  0  0  0
 20 17  2  0  0  0  0
 20 19  1  0  0  0  0
 21 15  1  0  0  0  0
 21 23  1  0  0  0  0
 22 18  2  0  0  0  0
 23 18  1  0  0  0  0
 24 26  2  0  0  0  0
 24 25  1  0  0  0  0
M  END
>  <MODEL>
2

>  <REMARK>
 VINA RESULT:      -7.7      5.202      6.755
  Name = 
  3 active torsions:
  status: ('A' for Active; 'I' for Inactive)
    1  A    between atoms: C_1  and  C_14
    2  A    between atoms: C_18  and  C_22
    3  A    between atoms: N_21  and  C_22
                            x       y       z     vdW  Elec       q    Type
                         _______ _______ _______ _____ _____    ______ ____

>  <TORSDO>
F 3

$$$$
=
 OpenBabel10232410013D

 26 30  0  0  1  0  0  0  0  0999 V2000
  186.2100  179.1800  141.8460 C   0  0  0  0  0  1  0  0  0  0  0  0
  187.1510  177.9870  141.8470 C   0  0  1  0  0  3  0  0  0  0  0  0
  190.1480  177.0170  137.2590 N   0  0  0  0  0  0  0  0  0  0  0  0
  188.5190  177.0530  135.5190 N   0  0  0  0  0  2  0  0  0  0  0  0
  187.2180  178.4130  137.5610 C   0  0  0  0  0  0  0  0  0  0  0  0
  187.1340  177.5100  135.3400 C   0  0  0  0  0  2  0  0  0  0  0  0
  189.2160  178.6120  138.6610 N   0  0  0  0  0  0  0  0  0  0  0  0
  186.5340  177.7700  136.6580 N   0  0  0  0  0  0  0  0  0  0  0  0
  188.6480  178.7690  137.3420 C   0  0  1  0  0  3  0  0  0  0  0  0
  188.1050  178.3860  139.5360 C   0  0  0  0  0  0  0  0  0  0  0  0
  189.2600  177.6620  136.5810 C   0  0  0  0  0  0  0  0  0  0  0  0
  188.2690  178.2260  140.9460 N   0  0  0  0  0  2  0  0  0  0  0  0
  190.3220  177.6640  138.5570 C   0  0  0  0  0  2  0  0  0  0  0  0
  186.9550  178.2710  138.9490 N   0  0  0  0  0  0  0  0  0  0  0  0
  188.5290  177.2590  145.7570 C   0  0  0  0  0  0  0  0  0  0  0  0
  187.2060  177.4480  145.5420 N   0  0  0  0  0  0  0  0  0  0  0  0
  186.7840  177.6790  144.2920 N   0  0  0  0  0  0  0  0  0  0  0  0
  190.4330  176.9140  146.5400 C   0  0  0  0  0  0  0  0  0  0  0  0
  189.0310  177.5310  143.4370 C   0  0  0  0  0  3  0  0  0  0  0  0
  187.6540  177.7290  143.2280 C   0  0  0  0  0  0  0  0  0  0  0  0
  189.4220  177.2960  144.7460 C   0  0  0  0  0  0  0  0  0  0  0  0
  189.1320  177.0160  146.9300 N   0  0  0  0  0  0  0  0  0  0  0  0
  190.6120  177.0810  145.2370 O   0  0  0  0  0  0  0  0  0  0  0  0
  191.5330  176.6430  147.4740 C   0  0  0  0  0  0  0  0  0  0  0  0
  192.3570  175.4120  147.3270 C   0  0  0  0  0  1  0  0  0  0  0  0
  191.7870  177.4650  148.4380 N   0  0  0  0  0  2  0  0  0  0  0  0
  2  1  1  1  0  0  0
  2 20  1  0  0  0  0
  3 13  1  0  0  0  0
  4 11  1  0  0  0  0
  5 14  1  0  0  0  0
  6  4  1  0  0  0  0
  6  8  1  0  0  0  0
  7 10  1  0  0  0  0
  8  5  2  0  0  0  0
  9 11  1  6  0  0  0
  9  5  1  0  0  0  0
  9  7  1  0  0  0  0
 10 12  1  0  0  0  0
 11  3  2  0  0  0  0
 12  2  1  0  0  0  0
 13  7  1  0  0  0  0
 14 10  2  0  0  0  0
 15 22  1  0  0  0  0
 16 15  1  0  0  0  0
 17 16  2  0  0  0  0
 18 22  2  0  0  0  0
 18 24  1  0  0  0  0
 19 21  1  0  0  0  0
 20 19  2  0  0  0  0
 20 17  1  0  0  0  0
 21 23  1  0  0  0  0
 21 15  2  0  0  0  0
 23 18  1  0  0  0  0
 24 26  2  0  0  0  0
 25 24  1  0  0  0  0
M  END
>  <MODEL>
3

>  <REMARK>
 VINA RESULT:      -7.7      2.529      3.462
  Name = 
  3 active torsions:
  status: ('A' for Active; 'I' for Inactive)
    1  A    between atoms: C_1  and  C_14
    2  A    between atoms: C_18  and  C_22
    3  A    between atoms: N_21  and  C_22
                            x       y       z     vdW  Elec       q    Type
                         _______ _______ _______ _____ _____    ______ ____

>  <TORSDO>
F 3

$$$$
=
 OpenBabel10232410013D

 26 30  0  0  1  0  0  0  0  0999 V2000
  184.8600  179.1930  144.3780 C   0  0  0  0  0  1  0  0  0  0  0  0
  185.4040  178.1860  143.3790 C   0  0  1  0  0  3  0  0  0  0  0  0
  183.8840  178.0200  138.0270 N   0  0  0  0  0  0  0  0  0  0  0  0
  181.5620  177.4940  138.1310 N   0  0  0  0  0  2  0  0  0  0  0  0
  182.0520  178.4610  140.6870 C   0  0  0  0  0  0  0  0  0  0  0  0
  180.4920  177.4980  139.1390 C   0  0  0  0  0  2  0  0  0  0  0  0
  184.0510  179.3010  139.9530 N   0  0  0  0  0  0  0  0  0  0  0  0
  181.0900  177.6080  140.4800 N   0  0  0  0  0  0  0  0  0  0  0  0
  182.6610  179.2300  139.5670 C   0  0  1  0  0  3  0  0  0  0  0  0
  184.1090  178.7770  141.2850 C   0  0  0  0  0  0  0  0  0  0  0  0
  182.6880  178.3380  138.3910 C   0  0  0  0  0  0  0  0  0  0  0  0
  185.3280  178.7250  142.0280 N   0  0  0  0  0  2  0  0  0  0  0  0
  184.8430  178.7350  138.8650 C   0  0  0  0  0  2  0  0  0  0  0  0
  182.9940  178.2940  141.7370 N   0  0  0  0  0  0  0  0  0  0  0  0
  189.4010  177.2180  144.2760 C   0  0  0  0  0  0  0  0  0  0  0  0
  189.0300  177.3830  142.9850 N   0  0  0  0  0  0  0  0  0  0  0  0
  187.7540  177.6910  142.7160 N   0  0  0  0  0  0  0  0  0  0  0  0
  190.4010  176.8810  146.0770 C   0  0  0  0  0  0  0  0  0  0  0  0
  187.1900  177.6750  145.0580 C   0  0  0  0  0  3  0  0  0  0  0  0
  186.8170  177.8420  143.7120 C   0  0  0  0  0  0  0  0  0  0  0  0
  188.5200  177.3570  145.2890 C   0  0  0  0  0  0  0  0  0  0  0  0
  190.6240  176.9120  144.7340 N   0  0  0  0  0  0  0  0  0  0  0  0
  189.1460  177.1460  146.4140 O   0  0  0  0  0  0  0  0  0  0  0  0
  191.4510  176.5860  147.0600 C   0  0  0  0  0  0  0  0  0  0  0  0
  192.3680  175.4320  146.8550 C   0  0  0  0  0  1  0  0  0  0  0  0
  191.5790  177.3180  148.1170 N   0  0  0  0  0  2  0  0  0  0  0  0
  2 20  1  0  0  0  0
  2  1  1  1  0  0  0
  3 11  2  0  0  0  0
  3 13  1  0  0  0  0
  4 11  1  0  0  0  0
  4  6  1  0  0  0  0
  5 14  1  0  0  0  0
  6  8  1  0  0  0  0
  7 10  1  0  0  0  0
  8  5  2  0  0  0  0
  9 11  1  6  0  0  0
  9  7  1  0  0  0  0
  9  5  1  0  0  0  0
 10 14  2  0  0  0  0
 10 12  1  0  0  0  0
 12  2  1  0  0  0  0
 13  7  1  0  0  0  0
 15 22  1  0  0  0  0
 15 21  1  0  0  0  0
 16 15  2  0  0  0  0
 17 16  1  0  0  0  0
 17 20  2  0  0  0  0
 18 23  1  0  0  0  0
 18 24  1  0  0  0  0
 19 21  2  0  0  0  0
 20 19  1  0  0  0  0
 21 23  1  0  0  0  0
 22 18  2  0  0  0  0
 24 26  2  0  0  0  0
 25 24  1  0  0  0  0
M  END
>  <MODEL>
4

>  <REMARK>
 VINA RESULT:      -7.7      1.762      2.084
  Name = 
  3 active torsions:
  status: ('A' for Active; 'I' for Inactive)
    1  A    between atoms: C_1  and  C_14
    2  A    between atoms: C_18  and  C_22
    3  A    between atoms: N_21  and  C_22
                            x       y       z     vdW  Elec       q    Type
                         _______ _______ _______ _____ _____    ______ ____

>  <TORSDO>
F 3

$$$$
=
 OpenBabel10232410013D

 26 30  0  0  1  0  0  0  0  0999 V2000
  190.7330  176.7240  141.9210 C   0  0  0  0  0  1  0  0  0  0  0  0
  190.0270  177.3260  140.7180 C   0  0  1  0  0  3  0  0  0  0  0  0
  190.7800  175.6220  135.4730 N   0  0  0  0  0  0  0  0  0  0  0  0
  193.0600  176.1660  135.0400 N   0  0  0  0  0  2  0  0  0  0  0  0
  192.9850  176.1500  137.8150 C   0  0  0  0  0  0  0  0  0  0  0  0
  194.2570  176.5210  135.8150 C   0  0  0  0  0  2  0  0  0  0  0  0
  190.9560  175.0930  137.7250 N   0  0  0  0  0  0  0  0  0  0  0  0
  193.8580  176.8830  137.1840 N   0  0  0  0  0  0  0  0  0  0  0  0
  192.2730  175.0340  137.1340 C   0  0  1  0  0  3  0  0  0  0  0  0
  191.0520  176.0490  138.7870 C   0  0  0  0  0  0  0  0  0  0  0  0
  192.0320  175.4580  135.7400 C   0  0  0  0  0  0  0  0  0  0  0  0
  189.9470  176.3500  139.6410 N   0  0  0  0  0  2  0  0  0  0  0  0
  189.9890  175.2390  136.6400 C   0  0  0  0  0  2  0  0  0  0  0  0
  192.1900  176.6670  138.8710 N   0  0  0  0  0  0  0  0  0  0  0  0
  186.1560  178.6200  141.7470 C   0  0  0  0  0  0  0  0  0  0  0  0
  186.6000  178.7890  140.4800 N   0  0  0  0  0  0  0  0  0  0  0  0
  187.8340  178.3720  140.1690 N   0  0  0  0  0  0  0  0  0  0  0  0
  185.0780  178.5610  143.5340 C   0  0  0  0  0  0  0  0  0  0  0  0
  188.2090  177.5960  142.4180 C   0  0  0  0  0  3  0  0  0  0  0  0
  188.6580  177.7810  141.0980 C   0  0  0  0  0  0  0  0  0  0  0  0
  186.9260  178.0420  142.6950 C   0  0  0  0  0  0  0  0  0  0  0  0
  184.9590  178.9700  142.2400 N   0  0  0  0  0  0  0  0  0  0  0  0
  186.2510  178.0070  143.8110 O   0  0  0  0  0  0  0  0  0  0  0  0
  184.0090  178.7170  144.5280 C   0  0  0  0  0  0  0  0  0  0  0  0
  182.5870  178.7890  144.0960 C   0  0  0  0  0  1  0  0  0  0  0  0
  184.2950  178.8040  145.7850 N   0  0  0  0  0  2  0  0  0  0  0  0
  2 20  1  0  0  0  0
  2  1  1  1  0  0  0
  3 11  2  0  0  0  0
  3 13  1  0  0  0  0
  4 11  1  0  0  0  0
  4  6  1  0  0  0  0
  5 14  1  0  0  0  0
  6  8  1  0  0  0  0
  7 10  1  0  0  0  0
  8  5  2  0  0  0  0
  9 11  1  6  0  0  0
  9  7  1  0  0  0  0
  9  5  1  0  0  0  0
 10 14  2  0  0  0  0
 10 12  1  0  0  0  0
 12  2  1  0  0  0  0
 13  7  1  0  0  0  0
 15 22  1  0  0  0  0
 15 21  1  0  0  0  0
 16 15  2  0  0  0  0
 17 16  1  0  0  0  0
 17 20  2  0  0  0  0
 18 23  1  0  0  0  0
 18 24  1  0  0  0  0
 19 21  2  0  0  0  0
 20 19  1  0  0  0  0
 21 23  1  0  0  0  0
 22 18  2  0  0  0  0
 24 26  2  0  0  0  0
 25 24  1  0  0  0  0
M  END
>  <MODEL>
5

>  <REMARK>
 VINA RESULT:      -7.6      5.024      7.694
  Name = 
  3 active torsions:
  status: ('A' for Active; 'I' for Inactive)
    1  A    between atoms: C_1  and  C_14
    2  A    between atoms: C_18  and  C_22
    3  A    between atoms: N_21  and  C_22
                            x       y       z     vdW  Elec       q    Type
                         _______ _______ _______ _____ _____    ______ ____

>  <TORSDO>
F 3

$$$$
=
 OpenBabel10232410013D

 26 30  0  0  1  0  0  0  0  0999 V2000
  182.1640  179.3070  143.4470 C   0  0  0  0  0  1  0  0  0  0  0  0
  183.3510  178.4220  143.1060 C   0  0  1  0  0  3  0  0  0  0  0  0
  186.1030  177.7190  138.3200 N   0  0  0  0  0  0  0  0  0  0  0  0
  184.8050  176.0810  137.1740 N   0  0  0  0  0  2  0  0  0  0  0  0
  182.9920  177.0590  139.0350 C   0  0  0  0  0  0  0  0  0  0  0  0
  183.4590  175.4990  137.2730 C   0  0  0  0  0  2  0  0  0  0  0  0
  184.3910  178.8290  139.4240 N   0  0  0  0  0  0  0  0  0  0  0  0
  182.8770  175.8440  138.5800 N   0  0  0  0  0  0  0  0  0  0  0  0
  183.8220  178.0760  138.3310 C   0  0  1  0  0  3  0  0  0  0  0  0
  183.7340  178.3550  140.6040 C   0  0  0  0  0  0  0  0  0  0  0  0
  184.9900  177.3690  137.7690 C   0  0  0  0  0  0  0  0  0  0  0  0
  184.0040  178.9010  141.8960 N   0  0  0  0  0  2  0  0  0  0  0  0
  185.8440  178.7890  139.2800 C   0  0  0  0  0  2  0  0  0  0  0  0
  182.9300  177.3530  140.4230 N   0  0  0  0  0  0  0  0  0  0  0  0
  186.0610  178.3840  146.3270 C   0  0  0  0  0  0  0  0  0  0  0  0
  184.7850  178.7870  146.5350 N   0  0  0  0  0  0  0  0  0  0  0  0
  183.9360  178.7930  145.4990 N   0  0  0  0  0  0  0  0  0  0  0  0
  188.0740  177.8500  146.4700 C   0  0  0  0  0  0  0  0  0  0  0  0
  185.6440  177.9810  144.0090 C   0  0  0  0  0  3  0  0  0  0  0  0
  184.3230  178.4040  144.2380 C   0  0  0  0  0  0  0  0  0  0  0  0
  186.4890  177.9910  145.1080 C   0  0  0  0  0  0  0  0  0  0  0  0
  187.0450  178.3110  147.2350 N   0  0  0  0  0  0  0  0  0  0  0  0
  187.7470  177.6580  145.2000 O   0  0  0  0  0  0  0  0  0  0  0  0
  189.4160  177.5880  147.0030 C   0  0  0  0  0  0  0  0  0  0  0  0
  190.4500  176.9430  146.1490 C   0  0  0  0  0  1  0  0  0  0  0  0
  189.7080  177.9060  148.2210 N   0  0  0  0  0  2  0  0  0  0  0  0
  2  1  1  1  0  0  0
  2 20  1  0  0  0  0
  3 13  1  0  0  0  0
  4  6  1  0  0  0  0
  4 11  1  0  0  0  0
  5 14  1  0  0  0  0
  6  8  1  0  0  0  0
  7 10  1  0  0  0  0
  8  5  2  0  0  0  0
  9 11  1  1  0  0  0
  9  5  1  0  0  0  0
  9  7  1  0  0  0  0
 10 12  1  0  0  0  0
 11  3  2  0  0  0  0
 12  2  1  0  0  0  0
 13  7  1  0  0  0  0
 14 10  2  0  0  0  0
 15 16  1  0  0  0  0
 15 22  1  0  0  0  0
 17 16  2  0  0  0  0
 18 24  1  0  0  0  0
 18 22  2  0  0  0  0
 19 20  2  0  0  0  0
 19 21  1  0  0  0  0
 20 17  1  0  0  0  0
 21 23  1  0  0  0  0
 21 15  2  0  0  0  0
 23 18  1  0  0  0  0
 24 26  2  0  0  0  0
 25 24  1  0  0  0  0
M  END
>  <MODEL>
6

>  <REMARK>
 VINA RESULT:      -7.6      1.258      1.882
  Name = 
  3 active torsions:
  status: ('A' for Active; 'I' for Inactive)
    1  A    between atoms: C_1  and  C_14
    2  A    between atoms: C_18  and  C_22
    3  A    between atoms: N_21  and  C_22
                            x       y       z     vdW  Elec       q    Type
                         _______ _______ _______ _____ _____    ______ ____

>  <TORSDO>
F 3

$$$$
=
 OpenBabel10232410013D

 26 30  0  0  1  0  0  0  0  0999 V2000
  192.2910  177.6630  140.6480 C   0  0  0  0  0  1  0  0  0  0  0  0
  191.0520  176.8120  140.8670 C   0  0  1  0  0  3  0  0  0  0  0  0
  188.2290  177.0740  145.6560 N   0  0  0  0  0  0  0  0  0  0  0  0
  189.8770  176.5450  147.2950 N   0  0  0  0  0  2  0  0  0  0  0  0
  191.4370  177.3050  145.1290 C   0  0  0  0  0  0  0  0  0  0  0  0
  191.3420  176.4700  147.3760 C   0  0  0  0  0  2  0  0  0  0  0  0
  189.5760  178.1980  144.1390 N   0  0  0  0  0  0  0  0  0  0  0  0
  191.9040  176.4720  146.0160 N   0  0  0  0  0  0  0  0  0  0  0  0
  190.2520  178.1600  145.4150 C   0  0  1  0  0  3  0  0  0  0  0  0
  190.4670  177.5690  143.2110 C   0  0  0  0  0  0  0  0  0  0  0  0
  189.3350  177.3640  146.2550 C   0  0  0  0  0  0  0  0  0  0  0  0
  190.1600  177.4560  141.8200 N   0  0  0  0  0  2  0  0  0  0  0  0
  188.2120  177.7180  144.3460 C   0  0  0  0  0  2  0  0  0  0  0  0
  191.5360  177.0530  143.7350 N   0  0  0  0  0  0  0  0  0  0  0  0
  189.0750  176.1590  137.2080 C   0  0  0  0  0  0  0  0  0  0  0  0
  190.0780  175.3300  137.5800 N   0  0  0  0  0  0  0  0  0  0  0  0
  190.6970  175.5520  138.7470 N   0  0  0  0  0  0  0  0  0  0  0  0
  187.5070  177.1550  136.2550 C   0  0  0  0  0  0  0  0  0  0  0  0
  189.3000  177.4600  139.2000 C   0  0  0  0  0  3  0  0  0  0  0  0
  190.3430  176.5930  139.5720 C   0  0  0  0  0  0  0  0  0  0  0  0
  188.6880  177.1940  137.9850 C   0  0  0  0  0  0  0  0  0  0  0  0
  188.3440  176.0940  136.0860 N   0  0  0  0  0  0  0  0  0  0  0  0
  187.7080  177.8150  137.3870 O   0  0  0  0  0  0  0  0  0  0  0  0
  186.4780  177.5300  135.2780 C   0  0  0  0  0  0  0  0  0  0  0  0
  185.1350  176.8890  135.3170 C   0  0  0  0  0  1  0  0  0  0  0  0
  186.7330  178.4130  134.3690 N   0  0  0  0  0  2  0  0  0  0  0  0
  2  1  1  6  0  0  0
  2 12  1  0  0  0  0
  3 11  2  0  0  0  0
  4  6  1  0  0  0  0
  5  8  2  0  0  0  0
  7 13  1  0  0  0  0
  7  9  1  0  0  0  0
  8  6  1  0  0  0  0
  9  5  1  6  0  0  0
  9 11  1  0  0  0  0
 10 14  2  0  0  0  0
 10  7  1  0  0  0  0
 11  4  1  0  0  0  0
 12 10  1  0  0  0  0
 13  3  1  0  0  0  0
 14  5  1  0  0  0  0
 15 16  2  0  0  0  0
 15 21  1  0  0  0  0
 16 17  1  0  0  0  0
 17 20  2  0  0  0  0
 18 23  1  0  0  0  0
 19 20  1  0  0  0  0
 20  2  1  0  0  0  0
 21 19  2  0  0  0  0
 22 18  2  0  0  0  0
 22 15  1  0  0  0  0
 23 21  1  0  0  0  0
 24 25  1  0  0  0  0
 24 18  1  0  0  0  0
 26 24  2  0  0  0  0
M  END
>  <MODEL>
7

>  <REMARK>
 VINA RESULT:      -7.3      4.009      9.550
  Name = 
  3 active torsions:
  status: ('A' for Active; 'I' for Inactive)
    1  A    between atoms: C_1  and  C_14
    2  A    between atoms: C_18  and  C_22
    3  A    between atoms: N_21  and  C_22
                            x       y       z     vdW  Elec       q    Type
                         _______ _______ _______ _____ _____    ______ ____

>  <TORSDO>
F 3

$$$$
=
 OpenBabel10232410013D

 26 30  0  0  1  0  0  0  0  0999 V2000
  188.2390  178.0670  139.4700 C   0  0  0  0  0  1  0  0  0  0  0  0
  189.2160  177.0340  140.0050 C   0  0  1  0  0  3  0  0  0  0  0  0
  194.2530  175.3610  138.3300 N   0  0  0  0  0  0  0  0  0  0  0  0
  193.7750  173.4850  136.9390 N   0  0  0  0  0  2  0  0  0  0  0  0
  191.3350  174.8090  136.9860 C   0  0  0  0  0  0  0  0  0  0  0  0
  192.6080  172.9110  136.2540 C   0  0  0  0  0  2  0  0  0  0  0  0
  192.3840  176.6490  137.8540 N   0  0  0  0  0  0  0  0  0  0  0  0
  191.3820  173.5210  136.7920 N   0  0  0  0  0  0  0  0  0  0  0  0
  192.5410  175.6630  136.8100 C   0  0  1  0  0  3  0  0  0  0  0  0
  191.0770  176.4300  138.3980 C   0  0  0  0  0  0  0  0  0  0  0  0
  193.7030  174.8760  137.2680 C   0  0  0  0  0  0  0  0  0  0  0  0
  190.5390  177.2510  139.4360 N   0  0  0  0  0  2  0  0  0  0  0  0
  193.5830  176.6080  138.6870 C   0  0  0  0  0  2  0  0  0  0  0  0
  190.4500  175.3970  137.9280 N   0  0  0  0  0  0  0  0  0  0  0  0
  189.3620  177.2630  144.2060 C   0  0  0  0  0  0  0  0  0  0  0  0
  188.2510  177.6800  143.5550 N   0  0  0  0  0  0  0  0  0  0  0  0
  188.2210  177.6000  142.2180 N   0  0  0  0  0  0  0  0  0  0  0  0
  190.8300  176.7440  145.5960 C   0  0  0  0  0  0  0  0  0  0  0  0
  190.4420  176.6710  142.1580 C   0  0  0  0  0  3  0  0  0  0  0  0
  189.2830  177.1100  141.4940 C   0  0  0  0  0  0  0  0  0  0  0  0
  190.4300  176.7720  143.5400 C   0  0  0  0  0  0  0  0  0  0  0  0
  189.5730  177.2640  145.5300 N   0  0  0  0  0  0  0  0  0  0  0  0
  191.3470  176.4480  144.4110 O   0  0  0  0  0  0  0  0  0  0  0  0
  191.5450  176.5280  146.8600 C   0  0  0  0  0  0  0  0  0  0  0  0
  192.4850  175.3830  147.0060 C   0  0  0  0  0  1  0  0  0  0  0  0
  191.3560  177.3240  147.8600 N   0  0  0  0  0  2  0  0  0  0  0  0
  2  1  1  6  0  0  0
  2 20  1  0  0  0  0
  3 13  1  0  0  0  0
  4 11  1  0  0  0  0
  5 14  1  0  0  0  0
  6  8  1  0  0  0  0
  6  4  1  0  0  0  0
  7 10  1  0  0  0  0
  7 13  1  0  0  0  0
  8  5  2  0  0  0  0
  9  5  1  1  0  0  0
  9 11  1  0  0  0  0
  9  7  1  0  0  0  0
 10 12  1  0  0  0  0
 11  3  2  0  0  0  0
 12  2  1  0  0  0  0
 14 10  2  0  0  0  0
 15 22  1  0  0  0  0
 16 15  1  0  0  0  0
 17 16  2  0  0  0  0
 18 24  1  0  0  0  0
 19 21  1  0  0  0  0
 20 19  2  0  0  0  0
 20 17  1  0  0  0  0
 21 15  2  0  0  0  0
 21 23  1  0  0  0  0
 22 18  2  0  0  0  0
 23 18  1  0  0  0  0
 24 25  1  0  0  0  0
 24 26  2  0  0  0  0
M  END
>  <MODEL>
8

>  <REMARK>
 VINA RESULT:      -7.3      5.309      6.667
  Name = 
  3 active torsions:
  status: ('A' for Active; 'I' for Inactive)
    1  A    between atoms: C_1  and  C_14
    2  A    between atoms: C_18  and  C_22
    3  A    between atoms: N_21  and  C_22
                            x       y       z     vdW  Elec       q    Type
                         _______ _______ _______ _____ _____    ______ ____

>  <TORSDO>
F 3

$$$$
=
 OpenBabel10232410013D

 26 30  0  0  1  0  0  0  0  0999 V2000
  185.2050  178.3550  146.5830 C   0  0  0  0  0  1  0  0  0  0  0  0
  185.6270  178.5530  145.1370 C   0  0  1  0  0  3  0  0  0  0  0  0
  189.8470  176.3260  142.2710 N   0  0  0  0  0  0  0  0  0  0  0  0
  191.6930  177.7250  142.8340 N   0  0  0  0  0  2  0  0  0  0  0  0
  189.9180  178.2460  144.9040 C   0  0  0  0  0  0  0  0  0  0  0  0
  192.0240  178.7260  143.8580 C   0  0  0  0  0  2  0  0  0  0  0  0
  188.7060  176.4050  144.2890 N   0  0  0  0  0  0  0  0  0  0  0  0
  190.7900  179.1450  144.5430 N   0  0  0  0  0  0  0  0  0  0  0  0
  190.0710  176.8170  144.5160 C   0  0  1  0  0  3  0  0  0  0  0  0
  187.8930  177.4990  144.7290 C   0  0  0  0  0  0  0  0  0  0  0  0
  190.6560  176.7950  143.1610 C   0  0  0  0  0  0  0  0  0  0  0  0
  186.4660  177.4450  144.7010 N   0  0  0  0  0  2  0  0  0  0  0  0
  188.6220  175.8800  142.9290 C   0  0  0  0  0  2  0  0  0  0  0  0
  188.5460  178.5610  145.0890 N   0  0  0  0  0  0  0  0  0  0  0  0
  182.2120  178.8590  142.6960 C   0  0  0  0  0  0  0  0  0  0  0  0
  182.0770  178.9300  144.0410 N   0  0  0  0  0  0  0  0  0  0  0  0
  183.1740  178.8310  144.8030 N   0  0  0  0  0  0  0  0  0  0  0  0
  181.9490  178.8090  140.6250 C   0  0  0  0  0  0  0  0  0  0  0  0
  184.5800  178.5860  142.8630 C   0  0  0  0  0  3  0  0  0  0  0  0
  184.4260  178.6590  144.2590 C   0  0  0  0  0  0  0  0  0  0  0  0
  183.4190  178.6930  142.1130 C   0  0  0  0  0  0  0  0  0  0  0  0
  181.2370  178.9390  141.7790 N   0  0  0  0  0  0  0  0  0  0  0  0
  183.2530  178.6620  140.8190 O   0  0  0  0  0  0  0  0  0  0  0  0
  181.3330  178.8330  139.2930 C   0  0  0  0  0  0  0  0  0  0  0  0
  181.8620  179.7380  138.2370 C   0  0  0  0  0  1  0  0  0  0  0  0
  180.3190  178.0770  139.0300 N   0  0  0  0  0  2  0  0  0  0  0  0
  2  1  1  1  0  0  0
  3 13  1  0  0  0  0
  3 11  2  0  0  0  0
  4 11  1  0  0  0  0
  4  6  1  0  0  0  0
  5 14  1  0  0  0  0
  6  8  1  0  0  0  0
  7  9  1  0  0  0  0
  7 10  1  0  0  0  0
  8  5  2  0  0  0  0
  9 11  1  6  0  0  0
  9  5  1  0  0  0  0
 10 14  2  0  0  0  0
 12 10  1  0  0  0  0
 12  2  1  0  0  0  0
 13  7  1  0  0  0  0
 15 16  1  0  0  0  0
 16 17  2  0  0  0  0
 18 23  1  0  0  0  0
 18 22  2  0  0  0  0
 19 20  2  0  0  0  0
 20 17  1  0  0  0  0
 20  2  1  0  0  0  0
 21 15  2  0  0  0  0
 21 19  1  0  0  0  0
 22 15  1  0  0  0  0
 23 21  1  0  0  0  0
 24 18  1  0  0  0  0
 25 24  1  0  0  0  0
 26 24  2  0  0  0  0
M  END
>  <MODEL>
9

>  <REMARK>
 VINA RESULT:      -7.3      3.214      7.934
  Name = 
  3 active torsions:
  status: ('A' for Active; 'I' for Inactive)
    1  A    between atoms: C_1  and  C_14
    2  A    between atoms: C_18  and  C_22
    3  A    between atoms: N_21  and  C_22
                            x       y       z     vdW  Elec       q    Type
                         _______ _______ _______ _____ _____    ______ ____

>  <TORSDO>
F 3

$$$$
