=
 OpenBabel10232408483D

 55 57  0  0  1  0  0  0  0  0999 V2000
  186.7050  178.3750  139.4990 N   0  0  0  0  0  0  0  0  0  0  0  0
  185.5720  178.5980  138.9030 C   0  0  0  0  0  0  0  0  0  0  0  0
  183.3380  179.5120  139.1320 C   0  0  0  0  0  2  0  0  0  0  0  0
  184.3980  178.9490  139.7120 C   0  0  0  0  0  0  0  0  0  0  0  0
  184.5100  178.9610  141.1990 C   0  0  0  0  0  2  0  0  0  0  0  0
  183.2400  179.0560  141.7790 O   0  0  0  0  0  0  0  0  0  0  0  0
  183.3850  178.4380  143.0250 C   0  0  0  0  0  2  0  0  0  0  0  0
  184.0540  179.3910  143.9960 C   0  0  0  0  0  2  0  0  0  0  0  0
  183.5100  179.1980  145.3320 N   0  0  0  0  0  2  0  0  0  0  0  0
  184.4980  178.4400  146.0750 C   0  0  0  0  0  2  0  0  0  0  0  0
  185.8850  178.8050  145.5800 C   0  0  0  0  0  2  0  0  0  0  0  0
  189.0670  177.7550  145.7420 C   0  0  1  0  0  3  0  0  0  0  0  0
  189.5510  177.3320  144.3430 C   0  0  1  0  0  3  0  0  0  0  0  0
  188.4230  177.0760  143.3340 C   0  0  2  0  0  3  0  0  0  0  0  0
  187.7070  177.1430  146.0750 C   0  0  0  0  0  2  0  0  0  0  0  0
  187.1630  177.8740  143.6700 C   0  0  0  0  0  2  0  0  0  0  0  0
  188.1340  175.7060  143.2790 O   0  0  0  0  0  1  0  0  0  0  0  0
  186.6190  177.5770  145.0760 C   0  0  2  0  0  3  0  0  0  0  0  0
  192.1860  176.3200  147.2980 O   0  0  0  0  0  1  0  0  0  0  0  0
  190.0810  177.3880  146.7750 C   0  0  0  0  0  0  0  0  0  0  0  0
  191.2660  176.7000  146.3790 N   0  0  0  0  0  2  0  0  0  0  0  0
  189.8770  177.6550  147.9920 O   0  0  0  0  0  0  0  0  0  0  0  0
  190.6250  179.4710  144.3020 O   0  0  0  0  0  0  0  0  0  0  0  0
  190.5300  178.3180  143.7940 C   0  0  0  0  0  0  0  0  0  0  0  0
  191.3420  177.9460  142.7220 O   0  0  0  0  0  0  0  0  0  0  0  0
  192.0320  176.7050  142.7040 C   0  0  0  0  0  1  0  0  0  0  0  0
  185.4280  178.4700  137.4140 C   0  0  0  0  0  2  0  0  0  0  0  0
  185.2350  174.7750  136.6010 C   0  0  0  0  0  3  0  0  0  0  0  0
  184.8850  177.1370  137.0200 C   0  0  0  0  0  0  0  0  0  0  0  0
  185.7340  176.0260  136.9800 C   0  0  0  0  0  3  0  0  0  0  0  0
  183.5370  176.9960  136.6680 C   0  0  0  0  0  3  0  0  0  0  0  0
  183.0400  175.7450  136.2890 C   0  0  0  0  0  3  0  0  0  0  0  0
  183.8890  174.6290  136.2520 C   0  0  0  0  0  0  0  0  0  0  0  0
  183.0090  172.4390  136.7420 N   0  0  0  0  0  0  0  0  0  0  0  0
  183.3950  173.3060  135.8600 C   0  0  0  0  0  3  0  0  0  0  0  0
  182.5300  171.1430  136.3760 C   0  0  0  0  0  0  0  0  0  0  0  0
  183.4970  170.0270  136.2040 C   0  0  0  0  0  1  0  0  0  0  0  0
  181.3000  170.9330  136.1940 O   0  0  0  0  0  0  0  0  0  0  0  0
  187.9420  177.9790  138.8310 C   0  0  0  0  0  2  0  0  0  0  0  0
  188.8970  177.3420  139.8220 C   0  0  0  0  0  2  0  0  0  0  0  0
  190.3230  177.7170  139.4620 C   0  0  0  0  0  2  0  0  0  0  0  0
  192.3380  176.4160  138.6570 C   0  0  0  0  0  0  0  0  0  0  0  0
  193.1010  177.1160  139.3770 O   0  0  0  0  0  0  0  0  0  0  0  0
  190.9270  176.6550  138.6710 N   0  0  0  0  0  2  0  0  0  0  0  0
  192.3420  173.5280  136.2060 C   0  0  0  0  0  0  0  0  0  0  0  0
  192.8950  175.3310  137.8290 C   0  0  0  0  0  0  0  0  0  0  0  0
  193.5550  173.3520  135.5260 O   0  0  0  0  0  0  0  0  0  0  0  0
  196.4320  175.1050  136.8840 O   0  0  0  0  0  1  0  0  0  0  0  0
  194.3400  174.9900  138.0020 C   0  0  0  0  0  2  0  0  0  0  0  0
  192.0790  174.6210  137.1050 N   0  0  0  0  0  0  0  0  0  0  0  0
  195.0690  174.8860  136.6770 C   0  0  2  0  0  3  0  0  0  0  0  0
  194.8610  173.5080  136.0690 C   0  0  1  0  0  3  0  0  0  0  0  0
  191.3810  172.7790  135.8900 O   0  0  0  0  0  0  0  0  0  0  0  0
  196.5780  172.0900  136.9670 O   0  0  0  0  0  1  0  0  0  0  0  0
  195.2090  172.3600  137.0200 C   0  0  0  0  0  2  0  0  0  0  0  0
  2  1  2  0  0  0  0
  2  4  1  0  0  0  0
  3  4  2  0  0  0  0
  4  5  1  0  0  0  0
  5  6  1  0  0  0  0
  6  7  1  0  0  0  0
  7  8  1  0  0  0  0
  8  9  1  0  0  0  0
  9 10  1  0  0  0  0
 11 10  1  0  0  0  0
 12 15  1  0  0  0  0
 12 20  1  1  0  0  0
 13 24  1  6  0  0  0
 13 12  1  0  0  0  0
 14 17  1  1  0  0  0
 14 16  1  0  0  0  0
 14 13  1  0  0  0  0
 16 18  1  0  0  0  0
 18 11  1  1  0  0  0
 18 15  1  0  0  0  0
 20 22  2  0  0  0  0
 21 20  1  0  0  0  0
 21 19  1  0  0  0  0
 24 23  2  0  0  0  0
 25 24  1  0  0  0  0
 26 25  1  0  0  0  0
 27  2  1  0  0  0  0
 28 30  1  0  0  0  0
 29 27  1  0  0  0  0
 30 29  2  0  0  0  0
 31 29  1  0  0  0  0
 32 31  2  0  0  0  0
 33 32  1  0  0  0  0
 33 28  2  0  0  0  0
 35 33  1  0  0  0  0
 35 34  2  0  0  0  0
 36 34  1  0  0  0  0
 37 36  1  0  0  0  0
 38 36  2  0  0  0  0
 39  1  1  0  0  0  0
 39 40  1  0  0  0  0
 41 40  1  0  0  0  0
 42 44  1  0  0  0  0
 42 43  2  0  0  0  0
 44 41  1  0  0  0  0
 45 50  1  0  0  0  0
 46 49  1  0  0  0  0
 46 42  1  0  0  0  0
 47 52  1  0  0  0  0
 47 45  1  0  0  0  0
 50 46  2  0  0  0  0
 51 48  1  1  0  0  0
 51 49  1  0  0  0  0
 52 51  1  0  0  0  0
 52 55  1  1  0  0  0
 53 45  2  0  0  0  0
 54 55  1  0  0  0  0
M  END
>  <MODEL>
1

>  <REMARK>
 VINA RESULT:      -7.4      0.000      0.000
  Name = 
  22 active torsions:
  status: ('A' for Active; 'I' for Inactive)
    1  A    between atoms: C_1  and  N_6
    2  A    between atoms: C_2  and  C_18
    3  A    between atoms: C_2  and  C_20
    4  A    between atoms: C_4  and  C_19
    5  A    between atoms: O_8  and  C_15
    6  A    between atoms: O_8  and  C_45
    7  A    between atoms: N_9  and  C_20
    8  A    between atoms: C_10  and  C_15
    9  A    between atoms: C_10  and  N_55
   10  A    between atoms: C_11  and  C_30
   11  A    between atoms: C_12  and  C_37
   12  A    between atoms: C_16  and  C_54
   13  A    between atoms: C_18  and  N_33
   14  A    between atoms: O_22  and  C_37
   15  A    between atoms: C_28  and  C_53
   16  A    between atoms: C_36  and  C_41
   17  A    between atoms: C_36  and  N_55
   18  A    between atoms: C_41  and  C_49
   19  A    between atoms: C_45  and  C_52
   20  A    between atoms: C_46  and  C_52
   21  A    between atoms: C_46  and  C_54
   22  A    between atoms: C_48  and  C_50
                            x       y       z     vdW  Elec       q    Type
                         _______ _______ _______ _____ _____    ______ ____

>  <TORSDO>
F 22

$$$$
=
 OpenBabel10232408483D

 55 57  0  0  1  0  0  0  0  0999 V2000
  189.9480  178.1770  138.0340 N   0  0  0  0  0  0  0  0  0  0  0  0
  190.2230  177.3670  139.0140 C   0  0  0  0  0  0  0  0  0  0  0  0
  192.5610  177.2340  139.6430 C   0  0  0  0  0  2  0  0  0  0  0  0
  191.5190  176.6770  139.0250 C   0  0  0  0  0  0  0  0  0  0  0  0
  191.7440  175.5280  138.1020 C   0  0  0  0  0  2  0  0  0  0  0  0
  190.6330  174.6770  138.1080 O   0  0  0  0  0  0  0  0  0  0  0  0
  190.7680  173.9300  136.9340 C   0  0  0  0  0  2  0  0  0  0  0  0
  191.0310  174.8550  135.7630 C   0  0  0  0  0  2  0  0  0  0  0  0
  191.7820  174.1510  134.7340 N   0  0  0  0  0  2  0  0  0  0  0  0
  193.1800  174.2460  135.1050 C   0  0  0  0  0  2  0  0  0  0  0  0
  193.8270  172.8800  134.9670 C   0  0  0  0  0  2  0  0  0  0  0  0
  196.3860  173.3990  137.0750 C   0  0  1  0  0  3  0  0  0  0  0  0
  196.9820  172.0500  137.5160 C   0  0  1  0  0  3  0  0  0  0  0  0
  196.0660  170.8430  137.2730 C   0  0  2  0  0  3  0  0  0  0  0  0
  194.8630  173.4070  137.1980 C   0  0  0  0  0  2  0  0  0  0  0  0
  195.0960  171.0870  136.1160 C   0  0  0  0  0  2  0  0  0  0  0  0
  195.3620  170.5330  138.4440 O   0  0  0  0  0  1  0  0  0  0  0  0
  194.2070  172.3220  136.3250 C   0  0  2  0  0  3  0  0  0  0  0  0
  197.1770  175.6660  139.9810 O   0  0  0  0  0  1  0  0  0  0  0  0
  196.9880  174.5160  137.8630 C   0  0  0  0  0  0  0  0  0  0  0  0
  196.6770  174.6420  139.2480 N   0  0  0  0  0  2  0  0  0  0  0  0
  197.7410  175.3600  137.3000 O   0  0  0  0  0  0  0  0  0  0  0  0
  198.5760  172.2970  135.7480 O   0  0  0  0  0  0  0  0  0  0  0  0
  198.3210  171.8260  136.8920 C   0  0  0  0  0  0  0  0  0  0  0  0
  199.2850  171.0990  137.5920 O   0  0  0  0  0  0  0  0  0  0  0  0
  199.2190  169.6850  137.7040 C   0  0  0  0  0  1  0  0  0  0  0  0
  189.2350  177.0960  140.1110 C   0  0  0  0  0  2  0  0  0  0  0  0
  190.7300  176.0520  143.4310 C   0  0  0  0  0  3  0  0  0  0  0  0
  189.8670  177.1700  141.4600 C   0  0  0  0  0  0  0  0  0  0  0  0
  190.1470  175.9920  142.1610 C   0  0  0  0  0  3  0  0  0  0  0  0
  190.1610  178.4110  142.0390 C   0  0  0  0  0  3  0  0  0  0  0  0
  190.7430  178.4700  143.3100 C   0  0  0  0  0  3  0  0  0  0  0  0
  191.0280  177.2890  144.0110 C   0  0  0  0  0  0  0  0  0  0  0  0
  191.1370  176.6560  146.3350 N   0  0  0  0  0  0  0  0  0  0  0  0
  191.6390  177.3220  145.3440 C   0  0  0  0  0  3  0  0  0  0  0  0
  191.7180  176.6820  147.6410 C   0  0  0  0  0  0  0  0  0  0  0  0
  192.6260  175.5820  148.0590 C   0  0  0  0  0  1  0  0  0  0  0  0
  191.4700  177.6220  148.4430 O   0  0  0  0  0  0  0  0  0  0  0  0
  188.6890  178.9000  137.8700 C   0  0  0  0  0  2  0  0  0  0  0  0
  187.6140  177.9720  137.3370 C   0  0  0  0  0  2  0  0  0  0  0  0
  186.2480  178.5720  137.6130 C   0  0  0  0  0  2  0  0  0  0  0  0
  184.6830  178.8110  139.5860 C   0  0  0  0  0  0  0  0  0  0  0  0
  183.7100  179.0270  138.8130 O   0  0  0  0  0  0  0  0  0  0  0  0
  185.9820  178.5560  139.0440 N   0  0  0  0  0  2  0  0  0  0  0  0
  182.7630  178.8170  142.8520 C   0  0  0  0  0  0  0  0  0  0  0  0
  184.4740  178.7900  141.0450 C   0  0  0  0  0  0  0  0  0  0  0  0
  183.4430  178.2170  143.9200 O   0  0  0  0  0  0  0  0  0  0  0  0
  186.9960  177.6340  143.4450 O   0  0  0  0  0  1  0  0  0  0  0  0
  185.6770  178.8960  141.9260 C   0  0  0  0  0  2  0  0  0  0  0  0
  183.2550  178.8370  141.4990 N   0  0  0  0  0  0  0  0  0  0  0  0
  185.6840  177.8470  143.0200 C   0  0  2  0  0  3  0  0  0  0  0  0
  184.8360  178.3060  144.1960 C   0  0  1  0  0  3  0  0  0  0  0  0
  181.5880  179.2200  143.0580 O   0  0  0  0  0  0  0  0  0  0  0  0
  185.4260  179.6500  146.0950 O   0  0  0  0  0  1  0  0  0  0  0  0
  185.2120  179.6950  144.7160 C   0  0  0  0  0  2  0  0  0  0  0  0
  1  2  2  0  0  0  0
  2  4  1  0  0  0  0
  2 27  1  0  0  0  0
  4  3  2  0  0  0  0
  5  6  1  0  0  0  0
  5  4  1  0  0  0  0
  7  6  1  0  0  0  0
  8  7  1  0  0  0  0
  9 10  1  0  0  0  0
  9  8  1  0  0  0  0
 11 10  1  0  0  0  0
 12 15  1  0  0  0  0
 12 13  1  0  0  0  0
 12 20  1  1  0  0  0
 13 24  1  6  0  0  0
 14 13  1  0  0  0  0
 14 17  1  1  0  0  0
 16 18  1  0  0  0  0
 16 14  1  0  0  0  0
 18 11  1  6  0  0  0
 18 15  1  0  0  0  0
 20 21  1  0  0  0  0
 21 19  1  0  0  0  0
 22 20  2  0  0  0  0
 23 24  2  0  0  0  0
 24 25  1  0  0  0  0
 25 26  1  0  0  0  0
 27 29  1  0  0  0  0
 28 33  1  0  0  0  0
 29 31  2  0  0  0  0
 29 30  1  0  0  0  0
 30 28  2  0  0  0  0
 31 32  1  0  0  0  0
 32 33  2  0  0  0  0
 33 35  1  0  0  0  0
 34 36  1  0  0  0  0
 35 34  2  0  0  0  0
 36 37  1  0  0  0  0
 36 38  2  0  0  0  0
 39  1  1  0  0  0  0
 40 41  1  0  0  0  0
 40 39  1  0  0  0  0
 41 44  1  0  0  0  0
 42 46  1  0  0  0  0
 43 42  2  0  0  0  0
 44 42  1  0  0  0  0
 45 53  2  0  0  0  0
 45 47  1  0  0  0  0
 46 50  2  0  0  0  0
 46 49  1  0  0  0  0
 47 52  1  0  0  0  0
 49 51  1  0  0  0  0
 50 45  1  0  0  0  0
 51 48  1  1  0  0  0
 51 52  1  0  0  0  0
 52 55  1  6  0  0  0
 55 54  1  0  0  0  0
M  END
>  <MODEL>
2

>  <REMARK>
 VINA RESULT:      -7.1      3.262     11.248
  Name = 
  22 active torsions:
  status: ('A' for Active; 'I' for Inactive)
    1  A    between atoms: C_1  and  N_6
    2  A    between atoms: C_2  and  C_18
    3  A    between atoms: C_2  and  C_20
    4  A    between atoms: C_4  and  C_19
    5  A    between atoms: O_8  and  C_15
    6  A    between atoms: O_8  and  C_45
    7  A    between atoms: N_9  and  C_20
    8  A    between atoms: C_10  and  C_15
    9  A    between atoms: C_10  and  N_55
   10  A    between atoms: C_11  and  C_30
   11  A    between atoms: C_12  and  C_37
   12  A    between atoms: C_16  and  C_54
   13  A    between atoms: C_18  and  N_33
   14  A    between atoms: O_22  and  C_37
   15  A    between atoms: C_28  and  C_53
   16  A    between atoms: C_36  and  C_41
   17  A    between atoms: C_36  and  N_55
   18  A    between atoms: C_41  and  C_49
   19  A    between atoms: C_45  and  C_52
   20  A    between atoms: C_46  and  C_52
   21  A    between atoms: C_46  and  C_54
   22  A    between atoms: C_48  and  C_50
                            x       y       z     vdW  Elec       q    Type
                         _______ _______ _______ _____ _____    ______ ____

>  <TORSDO>
F 22

$$$$
=
 OpenBabel10232408483D

 55 57  0  0  1  0  0  0  0  0999 V2000
  187.7920  177.4390  137.7260 N   0  0  0  0  0  0  0  0  0  0  0  0
  188.1100  176.8340  136.6200 C   0  0  0  0  0  0  0  0  0  0  0  0
  186.7530  175.7680  134.9160 C   0  0  0  0  0  2  0  0  0  0  0  0
  187.2680  175.7280  136.1460 C   0  0  0  0  0  0  0  0  0  0  0  0
  186.7460  174.7330  137.1250 C   0  0  0  0  0  2  0  0  0  0  0  0
  186.0090  173.7430  136.4630 O   0  0  0  0  0  0  0  0  0  0  0  0
  185.2080  173.1860  137.4630 C   0  0  0  0  0  2  0  0  0  0  0  0
  184.1680  174.1940  137.9100 C   0  0  0  0  0  2  0  0  0  0  0  0
  182.9430  174.0130  137.1450 N   0  0  0  0  0  2  0  0  0  0  0  0
  182.3670  175.3310  136.9680 C   0  0  0  0  0  2  0  0  0  0  0  0
  183.4430  176.2870  136.4900 C   0  0  0  0  0  2  0  0  0  0  0  0
  183.3090  178.1130  139.3010 C   0  0  1  0  0  3  0  0  0  0  0  0
  181.9540  178.8390  139.3900 C   0  0  1  0  0  3  0  0  0  0  0  0
  181.1930  178.9230  138.0600 C   0  0  2  0  0  3  0  0  0  0  0  0
  183.9510  178.2890  137.9260 C   0  0  0  0  0  2  0  0  0  0  0  0
  181.5650  177.7800  137.1150 C   0  0  0  0  0  2  0  0  0  0  0  0
  181.4350  180.1600  137.4490 O   0  0  0  0  0  1  0  0  0  0  0  0
  183.0680  177.7240  136.8000 C   0  0  2  0  0  3  0  0  0  0  0  0
  185.0590  178.3250  142.6330 O   0  0  0  0  0  1  0  0  0  0  0  0
  184.2260  178.5910  140.3800 C   0  0  0  0  0  0  0  0  0  0  0  0
  184.2660  177.8940  141.6230 N   0  0  0  0  0  2  0  0  0  0  0  0
  184.9360  179.6200  140.2030 O   0  0  0  0  0  0  0  0  0  0  0  0
  180.8060  177.0050  140.4130 O   0  0  0  0  0  0  0  0  0  0  0  0
  181.0910  178.2350  140.4500 C   0  0  0  0  0  0  0  0  0  0  0  0
  180.6150  179.0440  141.4820 O   0  0  0  0  0  0  0  0  0  0  0  0
  180.2810  178.5130  142.7550 C   0  0  0  0  0  1  0  0  0  0  0  0
  189.3340  177.2140  135.8390 C   0  0  0  0  0  2  0  0  0  0  0  0
  192.2760  175.5230  137.5230 C   0  0  0  0  0  3  0  0  0  0  0  0
  190.4700  176.2800  136.0950 C   0  0  0  0  0  0  0  0  0  0  0  0
  191.2030  176.3870  137.2800 C   0  0  0  0  0  3  0  0  0  0  0  0
  190.8200  175.3130  135.1440 C   0  0  0  0  0  3  0  0  0  0  0  0
  191.8930  174.4490  135.3880 C   0  0  0  0  0  3  0  0  0  0  0  0
  192.6260  174.5530  136.5780 C   0  0  0  0  0  0  0  0  0  0  0  0
  194.3970  173.7150  137.9840 N   0  0  0  0  0  0  0  0  0  0  0  0
  193.7550  173.6610  136.8600 C   0  0  0  0  0  3  0  0  0  0  0  0
  195.5030  172.8550  138.2710 C   0  0  0  0  0  0  0  0  0  0  0  0
  195.4560  171.4340  137.8370 C   0  0  0  0  0  1  0  0  0  0  0  0
  196.5150  173.2840  138.8880 O   0  0  0  0  0  0  0  0  0  0  0  0
  188.5540  178.5250  138.3380 C   0  0  0  0  0  2  0  0  0  0  0  0
  188.3000  178.5690  139.8330 C   0  0  0  0  0  2  0  0  0  0  0  0
  189.0980  177.4720  140.5130 C   0  0  0  0  0  2  0  0  0  0  0  0
  189.5620  177.7690  142.9820 C   0  0  0  0  0  0  0  0  0  0  0  0
  190.6950  178.2620  142.7300 O   0  0  0  0  0  0  0  0  0  0  0  0
  188.7020  177.3700  141.9110 N   0  0  0  0  0  2  0  0  0  0  0  0
  187.1210  177.4380  145.8610 C   0  0  0  0  0  0  0  0  0  0  0  0
  189.1120  177.6340  144.3790 C   0  0  0  0  0  0  0  0  0  0  0  0
  187.6500  176.8030  146.9940 O   0  0  0  0  0  0  0  0  0  0  0  0
  191.2640  176.4560  147.1070 O   0  0  0  0  0  1  0  0  0  0  0  0
  190.1380  177.7450  145.4600 C   0  0  0  0  0  2  0  0  0  0  0  0
  187.8320  177.5800  144.6170 N   0  0  0  0  0  0  0  0  0  0  0  0
  190.0310  176.6240  146.4740 C   0  0  2  0  0  3  0  0  0  0  0  0
  188.9670  176.9520  147.5110 C   0  0  1  0  0  3  0  0  0  0  0  0
  185.9040  177.7590  145.8850 O   0  0  0  0  0  0  0  0  0  0  0  0
  187.9420  178.7720  148.6930 O   0  0  0  0  0  1  0  0  0  0  0  0
  189.1560  178.3200  148.1690 C   0  0  0  0  0  2  0  0  0  0  0  0
  1 39  1  0  0  0  0
  2  1  2  0  0  0  0
  3  4  2  0  0  0  0
  4  2  1  0  0  0  0
  4  5  1  0  0  0  0
  6  5  1  0  0  0  0
  6  7  1  0  0  0  0
  7  8  1  0  0  0  0
  9  8  1  0  0  0  0
 10  9  1  0  0  0  0
 11 10  1  0  0  0  0
 12 13  1  0  0  0  0
 12 20  1  1  0  0  0
 13 24  1  1  0  0  0
 14 17  1  6  0  0  0
 14 13  1  0  0  0  0
 15 12  1  0  0  0  0
 16 14  1  0  0  0  0
 18 11  1  1  0  0  0
 18 16  1  0  0  0  0
 18 15  1  0  0  0  0
 20 21  1  0  0  0  0
 21 19  1  0  0  0  0
 22 20  2  0  0  0  0
 23 24  2  0  0  0  0
 24 25  1  0  0  0  0
 25 26  1  0  0  0  0
 27 29  1  0  0  0  0
 27  2  1  0  0  0  0
 29 30  2  0  0  0  0
 30 28  1  0  0  0  0
 31 32  2  0  0  0  0
 31 29  1  0  0  0  0
 32 33  1  0  0  0  0
 33 35  1  0  0  0  0
 33 28  2  0  0  0  0
 34 36  1  0  0  0  0
 35 34  2  0  0  0  0
 36 38  2  0  0  0  0
 37 36  1  0  0  0  0
 39 40  1  0  0  0  0
 40 41  1  0  0  0  0
 41 44  1  0  0  0  0
 42 46  1  0  0  0  0
 43 42  2  0  0  0  0
 44 42  1  0  0  0  0
 45 53  2  0  0  0  0
 45 47  1  0  0  0  0
 46 50  2  0  0  0  0
 46 49  1  0  0  0  0
 47 52  1  0  0  0  0
 49 51  1  0  0  0  0
 50 45  1  0  0  0  0
 51 48  1  1  0  0  0
 51 52  1  0  0  0  0
 52 55  1  6  0  0  0
 55 54  1  0  0  0  0
M  END
>  <MODEL>
3

>  <REMARK>
 VINA RESULT:      -7.1      2.416      9.332
  Name = 
  22 active torsions:
  status: ('A' for Active; 'I' for Inactive)
    1  A    between atoms: C_1  and  N_6
    2  A    between atoms: C_2  and  C_18
    3  A    between atoms: C_2  and  C_20
    4  A    between atoms: C_4  and  C_19
    5  A    between atoms: O_8  and  C_15
    6  A    between atoms: O_8  and  C_45
    7  A    between atoms: N_9  and  C_20
    8  A    between atoms: C_10  and  C_15
    9  A    between atoms: C_10  and  N_55
   10  A    between atoms: C_11  and  C_30
   11  A    between atoms: C_12  and  C_37
   12  A    between atoms: C_16  and  C_54
   13  A    between atoms: C_18  and  N_33
   14  A    between atoms: O_22  and  C_37
   15  A    between atoms: C_28  and  C_53
   16  A    between atoms: C_36  and  C_41
   17  A    between atoms: C_36  and  N_55
   18  A    between atoms: C_41  and  C_49
   19  A    between atoms: C_45  and  C_52
   20  A    between atoms: C_46  and  C_52
   21  A    between atoms: C_46  and  C_54
   22  A    between atoms: C_48  and  C_50
                            x       y       z     vdW  Elec       q    Type
                         _______ _______ _______ _____ _____    ______ ____

>  <TORSDO>
F 22

$$$$
=
 OpenBabel10232408483D

 55 57  0  0  1  0  0  0  0  0999 V2000
  183.9290  178.2120  143.3900 N   0  0  0  0  0  0  0  0  0  0  0  0
  183.7930  178.6240  142.1650 C   0  0  0  0  0  0  0  0  0  0  0  0
  182.8800  177.0210  140.5930 C   0  0  0  0  0  2  0  0  0  0  0  0
  182.6880  178.0980  141.3540 C   0  0  0  0  0  0  0  0  0  0  0  0
  181.4690  178.9310  141.1480 C   0  0  0  0  0  2  0  0  0  0  0  0
  180.8210  178.5560  139.9650 O   0  0  0  0  0  0  0  0  0  0  0  0
  180.6440  179.7600  139.2760 C   0  0  0  0  0  2  0  0  0  0  0  0
  181.4220  179.7260  137.9750 C   0  0  0  0  0  2  0  0  0  0  0  0
  181.0650  178.5380  137.2150 N   0  0  0  0  0  2  0  0  0  0  0  0
  181.9030  178.5350  136.0330 C   0  0  0  0  0  2  0  0  0  0  0  0
  182.1520  177.1020  135.6000 C   0  0  0  0  0  2  0  0  0  0  0  0
  183.6050  174.2460  136.5950 C   0  0  1  0  0  3  0  0  0  0  0  0
  182.5300  173.1730  136.8520 C   0  0  1  0  0  3  0  0  0  0  0  0
  181.1090  173.7290  137.0190 C   0  0  2  0  0  3  0  0  0  0  0  0
  183.2480  175.5700  137.2680 C   0  0  0  0  0  2  0  0  0  0  0  0
  180.9260  175.0600  136.2890 C   0  0  0  0  0  2  0  0  0  0  0  0
  180.8100  173.8740  138.3800 O   0  0  0  0  0  1  0  0  0  0  0  0
  181.9160  176.1410  136.7490 C   0  0  2  0  0  3  0  0  0  0  0  0
  187.3400  173.7650  136.7530 O   0  0  0  0  0  1  0  0  0  0  0  0
  184.9410  173.7610  137.0530 C   0  0  0  0  0  0  0  0  0  0  0  0
  186.1170  174.2150  136.3850 N   0  0  0  0  0  2  0  0  0  0  0  0
  185.0280  172.9330  138.0020 O   0  0  0  0  0  0  0  0  0  0  0  0
  182.1560  172.3840  134.6240 O   0  0  0  0  0  0  0  0  0  0  0  0
  182.5590  172.1210  135.7910 C   0  0  0  0  0  0  0  0  0  0  0  0
  183.0450  170.8520  136.1070 O   0  0  0  0  0  0  0  0  0  0  0  0
  184.2880  170.3820  135.6060 C   0  0  0  0  0  1  0  0  0  0  0  0
  184.7590  179.5960  141.5510 C   0  0  0  0  0  2  0  0  0  0  0  0
  187.7350  177.9910  139.8410 C   0  0  0  0  0  3  0  0  0  0  0  0
  185.6100  178.9500  140.5090 C   0  0  0  0  0  0  0  0  0  0  0  0
  186.9260  178.5870  140.8150 C   0  0  0  0  0  3  0  0  0  0  0  0
  185.1080  178.7260  139.2210 C   0  0  0  0  0  3  0  0  0  0  0  0
  185.9180  178.1310  138.2480 C   0  0  0  0  0  3  0  0  0  0  0  0
  187.2360  177.7630  138.5550 C   0  0  0  0  0  0  0  0  0  0  0  0
  188.5720  177.8060  136.5490 N   0  0  0  0  0  0  0  0  0  0  0  0
  188.1060  177.1360  137.5550 C   0  0  0  0  0  3  0  0  0  0  0  0
  189.4170  177.2070  135.5630 C   0  0  0  0  0  0  0  0  0  0  0  0
  190.2730  176.0520  135.9370 C   0  0  0  0  0  1  0  0  0  0  0  0
  189.4480  177.6470  134.3820 O   0  0  0  0  0  0  0  0  0  0  0  0
  184.9990  178.6160  144.2990 C   0  0  0  0  0  2  0  0  0  0  0  0
  184.4500  178.8360  145.6960 C   0  0  0  0  0  2  0  0  0  0  0  0
  185.3370  178.1290  146.7040 C   0  0  0  0  0  2  0  0  0  0  0  0
  187.8520  177.8600  146.6890 C   0  0  0  0  0  0  0  0  0  0  0  0
  187.9290  178.3390  147.8540 O   0  0  0  0  0  0  0  0  0  0  0  0
  186.5750  177.7090  146.0630 N   0  0  0  0  0  2  0  0  0  0  0  0
  191.4080  176.6170  146.2890 C   0  0  0  0  0  0  0  0  0  0  0  0
  189.0740  177.4260  145.9880 C   0  0  0  0  0  0  0  0  0  0  0  0
  191.6470  175.9310  145.0900 O   0  0  0  0  0  0  0  0  0  0  0  0
  189.1240  176.2870  142.5020 O   0  0  0  0  0  1  0  0  0  0  0  0
  189.1170  177.5680  144.5010 C   0  0  0  0  0  2  0  0  0  0  0  0
  190.1100  177.0860  146.7000 N   0  0  0  0  0  0  0  0  0  0  0  0
  189.5970  176.3050  143.8150 C   0  0  2  0  0  3  0  0  0  0  0  0
  191.1160  176.2530  143.8100 C   0  0  1  0  0  3  0  0  0  0  0  0
  192.3500  176.6850  147.1220 O   0  0  0  0  0  0  0  0  0  0  0  0
  192.2200  177.2730  141.9380 O   0  0  0  0  0  1  0  0  0  0  0  0
  191.7690  177.5140  143.2390 C   0  0  0  0  0  2  0  0  0  0  0  0
  1 39  1  0  0  0  0
  2  1  2  0  0  0  0
  3  4  2  0  0  0  0
  4  2  1  0  0  0  0
  5  4  1  0  0  0  0
  6  5  1  0  0  0  0
  7  6  1  0  0  0  0
  8  7  1  0  0  0  0
  9  8  1  0  0  0  0
 10  9  1  0  0  0  0
 11 10  1  0  0  0  0
 12 13  1  0  0  0  0
 12 20  1  1  0  0  0
 12 15  1  0  0  0  0
 13 24  1  6  0  0  0
 13 14  1  0  0  0  0
 14 17  1  1  0  0  0
 16 18  1  0  0  0  0
 16 14  1  0  0  0  0
 18 11  1  6  0  0  0
 18 15  1  0  0  0  0
 20 22  2  0  0  0  0
 21 19  1  0  0  0  0
 21 20  1  0  0  0  0
 23 24  2  0  0  0  0
 24 25  1  0  0  0  0
 26 25  1  0  0  0  0
 27  2  1  0  0  0  0
 28 30  1  0  0  0  0
 29 30  2  0  0  0  0
 29 27  1  0  0  0  0
 31 29  1  0  0  0  0
 32 33  1  0  0  0  0
 32 31  2  0  0  0  0
 33 28  2  0  0  0  0
 34 35  2  0  0  0  0
 35 33  1  0  0  0  0
 36 37  1  0  0  0  0
 36 34  1  0  0  0  0
 38 36  2  0  0  0  0
 39 40  1  0  0  0  0
 40 41  1  0  0  0  0
 42 43  2  0  0  0  0
 44 42  1  0  0  0  0
 44 41  1  0  0  0  0
 45 50  1  0  0  0  0
 45 53  2  0  0  0  0
 46 42  1  0  0  0  0
 46 50  2  0  0  0  0
 47 45  1  0  0  0  0
 49 46  1  0  0  0  0
 51 48  1  6  0  0  0
 51 49  1  0  0  0  0
 52 55  1  1  0  0  0
 52 51  1  0  0  0  0
 52 47  1  0  0  0  0
 54 55  1  0  0  0  0
M  END
>  <MODEL>
4

>  <REMARK>
 VINA RESULT:      -6.9      2.966      8.929
  Name = 
  22 active torsions:
  status: ('A' for Active; 'I' for Inactive)
    1  A    between atoms: C_1  and  N_6
    2  A    between atoms: C_2  and  C_18
    3  A    between atoms: C_2  and  C_20
    4  A    between atoms: C_4  and  C_19
    5  A    between atoms: O_8  and  C_15
    6  A    between atoms: O_8  and  C_45
    7  A    between atoms: N_9  and  C_20
    8  A    between atoms: C_10  and  C_15
    9  A    between atoms: C_10  and  N_55
   10  A    between atoms: C_11  and  C_30
   11  A    between atoms: C_12  and  C_37
   12  A    between atoms: C_16  and  C_54
   13  A    between atoms: C_18  and  N_33
   14  A    between atoms: O_22  and  C_37
   15  A    between atoms: C_28  and  C_53
   16  A    between atoms: C_36  and  C_41
   17  A    between atoms: C_36  and  N_55
   18  A    between atoms: C_41  and  C_49
   19  A    between atoms: C_45  and  C_52
   20  A    between atoms: C_46  and  C_52
   21  A    between atoms: C_46  and  C_54
   22  A    between atoms: C_48  and  C_50
                            x       y       z     vdW  Elec       q    Type
                         _______ _______ _______ _____ _____    ______ ____

>  <TORSDO>
F 22

$$$$
=
 OpenBabel10232408483D

 55 57  0  0  1  0  0  0  0  0999 V2000
  190.3650  175.3600  138.1040 N   0  0  0  0  0  0  0  0  0  0  0  0
  190.6820  175.1270  136.8650 C   0  0  0  0  0  0  0  0  0  0  0  0
  190.6060  173.5710  135.0070 C   0  0  0  0  0  2  0  0  0  0  0  0
  190.1390  173.9350  136.2020 C   0  0  0  0  0  0  0  0  0  0  0  0
  188.8800  173.3220  136.7130 C   0  0  0  0  0  2  0  0  0  0  0  0
  188.4180  172.3490  135.8180 O   0  0  0  0  0  0  0  0  0  0  0  0
  187.0950  172.7210  135.5610 C   0  0  0  0  0  2  0  0  0  0  0  0
  186.3760  173.0000  136.8660 C   0  0  0  0  0  2  0  0  0  0  0  0
  185.1670  172.1940  136.9460 N   0  0  0  0  0  2  0  0  0  0  0  0
  184.0530  173.0950  136.7220 C   0  0  0  0  0  2  0  0  0  0  0  0
  184.0860  174.1990  137.7620 C   0  0  0  0  0  2  0  0  0  0  0  0
  185.3090  177.3180  137.9480 C   0  0  1  0  0  3  0  0  0  0  0  0
  184.1710  178.3080  138.2620 C   0  0  1  0  0  3  0  0  0  0  0  0
  182.7630  177.7590  137.9970 C   0  0  2  0  0  3  0  0  0  0  0  0
  184.9290  176.3700  136.8110 C   0  0  0  0  0  2  0  0  0  0  0  0
  182.7140  176.2350  138.1090 C   0  0  0  0  0  2  0  0  0  0  0  0
  182.3200  178.1710  136.7340 O   0  0  0  0  0  1  0  0  0  0  0  0
  183.6860  175.5290  137.1520 C   0  0  2  0  0  3  0  0  0  0  0  0
  188.6380  179.0230  138.4110 O   0  0  0  0  0  1  0  0  0  0  0  0
  186.5660  178.0570  137.6260 C   0  0  0  0  0  0  0  0  0  0  0  0
  187.5070  178.3230  138.6640 N   0  0  0  0  0  2  0  0  0  0  0  0
  186.7800  178.4690  136.4520 O   0  0  0  0  0  0  0  0  0  0  0  0
  184.8390  179.9300  139.8900 O   0  0  0  0  0  0  0  0  0  0  0  0
  184.2790  178.8210  139.6610 C   0  0  0  0  0  0  0  0  0  0  0  0
  183.7460  178.0650  140.7050 O   0  0  0  0  0  0  0  0  0  0  0  0
  184.2870  178.1160  142.0170 C   0  0  0  0  0  1  0  0  0  0  0  0
  191.6150  176.0290  136.1090 C   0  0  0  0  0  2  0  0  0  0  0  0
  195.3210  175.6700  135.4100 C   0  0  0  0  0  3  0  0  0  0  0  0
  193.0300  175.5650  136.1980 C   0  0  0  0  0  0  0  0  0  0  0  0
  193.9930  176.1070  135.3420 C   0  0  0  0  0  3  0  0  0  0  0  0
  193.3950  174.5730  137.1170 C   0  0  0  0  0  3  0  0  0  0  0  0
  194.7220  174.1360  137.1850 C   0  0  0  0  0  3  0  0  0  0  0  0
  195.6890  174.6820  136.3290 C   0  0  0  0  0  0  0  0  0  0  0  0
  198.0360  175.0470  136.7440 N   0  0  0  0  0  0  0  0  0  0  0  0
  197.0880  174.2440  136.3800 C   0  0  0  0  0  3  0  0  0  0  0  0
  199.4050  174.6360  136.7930 C   0  0  0  0  0  0  0  0  0  0  0  0
  199.8600  173.7390  137.8860 C   0  0  0  0  0  1  0  0  0  0  0  0
  200.2310  175.0260  135.9240 O   0  0  0  0  0  0  0  0  0  0  0  0
  190.8590  176.4800  138.9010 C   0  0  0  0  0  2  0  0  0  0  0  0
  190.5190  176.2760  140.3650 C   0  0  0  0  0  2  0  0  0  0  0  0
  190.8710  177.5290  141.1450 C   0  0  0  0  0  2  0  0  0  0  0  0
  189.1740  177.9730  142.9680 C   0  0  0  0  0  0  0  0  0  0  0  0
  188.4300  178.5840  142.1530 O   0  0  0  0  0  0  0  0  0  0  0  0
  190.4060  177.4020  142.5190 N   0  0  0  0  0  2  0  0  0  0  0  0
  186.8050  177.6570  145.9070 C   0  0  0  0  0  0  0  0  0  0  0  0
  188.7590  177.8200  144.3740 C   0  0  0  0  0  0  0  0  0  0  0  0
  187.3430  176.9770  147.0090 O   0  0  0  0  0  0  0  0  0  0  0  0
  190.9440  176.5030  147.0100 O   0  0  0  0  0  1  0  0  0  0  0  0
  189.8180  177.8700  145.4270 C   0  0  0  0  0  2  0  0  0  0  0  0
  187.4850  177.8040  144.6470 N   0  0  0  0  0  0  0  0  0  0  0  0
  189.7000  176.7290  146.4170 C   0  0  2  0  0  3  0  0  0  0  0  0
  188.6780  177.0670  147.4910 C   0  0  1  0  0  3  0  0  0  0  0  0
  185.6010  178.0190  145.9730 O   0  0  0  0  0  0  0  0  0  0  0  0
  188.3780  178.4100  149.4580 O   0  0  0  0  0  1  0  0  0  0  0  0
  188.9320  178.4120  148.1760 C   0  0  0  0  0  2  0  0  0  0  0  0
  1 39  1  0  0  0  0
  2  1  2  0  0  0  0
  3  4  2  0  0  0  0
  4  5  1  0  0  0  0
  4  2  1  0  0  0  0
  6  5  1  0  0  0  0
  7  6  1  0  0  0  0
  7  8  1  0  0  0  0
  8  9  1  0  0  0  0
 10  9  1  0  0  0  0
 10 11  1  0  0  0  0
 12 20  1  6  0  0  0
 12 13  1  0  0  0  0
 13 24  1  1  0  0  0
 14 17  1  6  0  0  0
 14 16  1  0  0  0  0
 14 13  1  0  0  0  0
 15 18  1  0  0  0  0
 15 12  1  0  0  0  0
 18 11  1  1  0  0  0
 18 16  1  0  0  0  0
 19 21  1  0  0  0  0
 20 21  1  0  0  0  0
 22 20  2  0  0  0  0
 24 23  2  0  0  0  0
 24 25  1  0  0  0  0
 25 26  1  0  0  0  0
 27 29  1  0  0  0  0
 27  2  1  0  0  0  0
 28 33  1  0  0  0  0
 29 31  2  0  0  0  0
 30 28  2  0  0  0  0
 30 29  1  0  0  0  0
 31 32  1  0  0  0  0
 33 35  1  0  0  0  0
 33 32  2  0  0  0  0
 34 36  1  0  0  0  0
 35 34  2  0  0  0  0
 36 37  1  0  0  0  0
 38 36  2  0  0  0  0
 39 40  1  0  0  0  0
 40 41  1  0  0  0  0
 41 44  1  0  0  0  0
 42 46  1  0  0  0  0
 43 42  2  0  0  0  0
 44 42  1  0  0  0  0
 45 53  2  0  0  0  0
 45 47  1  0  0  0  0
 46 50  2  0  0  0  0
 46 49  1  0  0  0  0
 47 52  1  0  0  0  0
 49 51  1  0  0  0  0
 50 45  1  0  0  0  0
 51 48  1  1  0  0  0
 51 52  1  0  0  0  0
 52 55  1  6  0  0  0
 55 54  1  0  0  0  0
M  END
>  <MODEL>
5

>  <REMARK>
 VINA RESULT:      -6.7      2.666     10.341
  Name = 
  22 active torsions:
  status: ('A' for Active; 'I' for Inactive)
    1  A    between atoms: C_1  and  N_6
    2  A    between atoms: C_2  and  C_18
    3  A    between atoms: C_2  and  C_20
    4  A    between atoms: C_4  and  C_19
    5  A    between atoms: O_8  and  C_15
    6  A    between atoms: O_8  and  C_45
    7  A    between atoms: N_9  and  C_20
    8  A    between atoms: C_10  and  C_15
    9  A    between atoms: C_10  and  N_55
   10  A    between atoms: C_11  and  C_30
   11  A    between atoms: C_12  and  C_37
   12  A    between atoms: C_16  and  C_54
   13  A    between atoms: C_18  and  N_33
   14  A    between atoms: O_22  and  C_37
   15  A    between atoms: C_28  and  C_53
   16  A    between atoms: C_36  and  C_41
   17  A    between atoms: C_36  and  N_55
   18  A    between atoms: C_41  and  C_49
   19  A    between atoms: C_45  and  C_52
   20  A    between atoms: C_46  and  C_52
   21  A    between atoms: C_46  and  C_54
   22  A    between atoms: C_48  and  C_50
                            x       y       z     vdW  Elec       q    Type
                         _______ _______ _______ _____ _____    ______ ____

>  <TORSDO>
F 22

$$$$
=
 OpenBabel10232408483D

 55 57  0  0  1  0  0  0  0  0999 V2000
  186.2900  178.7050  142.4180 N   0  0  0  0  0  0  0  0  0  0  0  0
  185.9350  178.3220  143.6090 C   0  0  0  0  0  0  0  0  0  0  0  0
  185.2700  179.1570  145.7850 C   0  0  0  0  0  2  0  0  0  0  0  0
  185.1760  179.2470  144.4590 C   0  0  0  0  0  0  0  0  0  0  0  0
  184.0850  180.0670  143.8580 C   0  0  0  0  0  2  0  0  0  0  0  0
  182.8600  179.3970  143.9670 O   0  0  0  0  0  0  0  0  0  0  0  0
  182.7160  178.7440  142.7380 C   0  0  0  0  0  2  0  0  0  0  0  0
  181.3380  179.0190  142.1690 C   0  0  0  0  0  2  0  0  0  0  0  0
  181.2340  178.4540  140.8320 N   0  0  0  0  0  2  0  0  0  0  0  0
  182.5500  178.5600  140.2340 C   0  0  0  0  0  2  0  0  0  0  0  0
  183.0710  177.1700  139.9210 C   0  0  0  0  0  2  0  0  0  0  0  0
  184.2410  174.9360  137.7080 C   0  0  1  0  0  3  0  0  0  0  0  0
  184.3690  175.5920  136.3210 C   0  0  1  0  0  3  0  0  0  0  0  0
  183.5720  176.8930  136.1590 C   0  0  2  0  0  3  0  0  0  0  0  0
  182.8800  175.2220  138.3400 C   0  0  0  0  0  2  0  0  0  0  0  0
  183.3610  177.6030  137.4980 C   0  0  0  0  0  2  0  0  0  0  0  0
  182.3400  176.6270  135.5480 O   0  0  0  0  0  1  0  0  0  0  0  0
  182.6390  176.7300  138.5350 C   0  0  2  0  0  3  0  0  0  0  0  0
  183.6730  171.2920  136.9320 O   0  0  0  0  0  1  0  0  0  0  0  0
  184.4830  173.4660  137.6120 C   0  0  0  0  0  0  0  0  0  0  0  0
  183.5000  172.6330  137.0010 N   0  0  0  0  0  2  0  0  0  0  0  0
  185.5340  172.9590  138.0960 O   0  0  0  0  0  0  0  0  0  0  0  0
  186.2620  175.3530  134.8760 O   0  0  0  0  0  0  0  0  0  0  0  0
  185.8030  175.8080  135.9610 C   0  0  0  0  0  0  0  0  0  0  0  0
  186.6230  176.5240  136.8340 O   0  0  0  0  0  0  0  0  0  0  0  0
  187.6480  177.3840  136.3600 C   0  0  0  0  0  1  0  0  0  0  0  0
  186.3130  176.9710  144.1450 C   0  0  0  0  0  2  0  0  0  0  0  0
  189.8660  177.0810  145.4530 C   0  0  0  0  0  3  0  0  0  0  0  0
  187.4700  177.0490  145.0830 C   0  0  0  0  0  0  0  0  0  0  0  0
  188.7740  177.0190  144.5790 C   0  0  0  0  0  3  0  0  0  0  0  0
  187.2590  177.1290  146.4650 C   0  0  0  0  0  3  0  0  0  0  0  0
  188.3510  177.1900  147.3370 C   0  0  0  0  0  3  0  0  0  0  0  0
  189.6590  177.1640  146.8330 C   0  0  0  0  0  0  0  0  0  0  0  0
  191.8000  176.3850  147.6220 N   0  0  0  0  0  0  0  0  0  0  0  0
  190.8220  177.2280  147.7240 C   0  0  0  0  0  3  0  0  0  0  0  0
  192.9380  176.4310  148.4870 C   0  0  0  0  0  0  0  0  0  0  0  0
  192.9780  177.4260  149.5890 C   0  0  0  0  0  1  0  0  0  0  0  0
  193.9070  175.6410  148.3260 O   0  0  0  0  0  0  0  0  0  0  0  0
  187.0790  177.9110  141.4800 C   0  0  0  0  0  2  0  0  0  0  0  0
  188.5440  178.2950  141.5640 C   0  0  0  0  0  2  0  0  0  0  0  0
  188.9830  178.9020  140.2450 C   0  0  0  0  0  2  0  0  0  0  0  0
  190.8360  177.3450  139.5080 C   0  0  0  0  0  0  0  0  0  0  0  0
  191.5850  177.7690  140.4310 O   0  0  0  0  0  0  0  0  0  0  0  0
  189.5080  177.8610  139.3740 N   0  0  0  0  0  2  0  0  0  0  0  0
  190.6650  174.2650  137.3090 C   0  0  0  0  0  0  0  0  0  0  0  0
  191.3170  176.2960  138.5910 C   0  0  0  0  0  0  0  0  0  0  0  0
  191.6200  174.2380  136.2830 O   0  0  0  0  0  0  0  0  0  0  0  0
  194.3620  176.6020  136.5690 O   0  0  0  0  0  1  0  0  0  0  0  0
  192.7830  176.2360  138.3040 C   0  0  0  0  0  2  0  0  0  0  0  0
  190.4770  175.3820  138.1980 N   0  0  0  0  0  0  0  0  0  0  0  0
  193.0740  176.1260  136.8210 C   0  0  2  0  0  3  0  0  0  0  0  0
  192.9700  174.6770  136.3700 C   0  0  1  0  0  3  0  0  0  0  0  0
  189.8240  173.3300  137.3510 O   0  0  0  0  0  0  0  0  0  0  0  0
  194.0860  172.5540  136.4750 O   0  0  0  0  0  1  0  0  0  0  0  0
  193.8160  173.7140  137.2060 C   0  0  0  0  0  2  0  0  0  0  0  0
  1  2  2  0  0  0  0
  2 27  1  0  0  0  0
  2  4  1  0  0  0  0
  4  3  2  0  0  0  0
  5  6  1  0  0  0  0
  5  4  1  0  0  0  0
  7  6  1  0  0  0  0
  8  7  1  0  0  0  0
  9  8  1  0  0  0  0
 10  9  1  0  0  0  0
 11 10  1  0  0  0  0
 12 20  1  6  0  0  0
 12 15  1  0  0  0  0
 13 24  1  1  0  0  0
 13 12  1  0  0  0  0
 14 17  1  1  0  0  0
 14 13  1  0  0  0  0
 14 16  1  0  0  0  0
 15 18  1  0  0  0  0
 16 18  1  0  0  0  0
 18 11  1  1  0  0  0
 19 21  1  0  0  0  0
 20 22  2  0  0  0  0
 21 20  1  0  0  0  0
 23 24  2  0  0  0  0
 24 25  1  0  0  0  0
 26 25  1  0  0  0  0
 27 29  1  0  0  0  0
 28 33  1  0  0  0  0
 29 31  2  0  0  0  0
 30 29  1  0  0  0  0
 30 28  2  0  0  0  0
 31 32  1  0  0  0  0
 33 32  2  0  0  0  0
 33 35  1  0  0  0  0
 34 35  2  0  0  0  0
 34 36  1  0  0  0  0
 36 37  1  0  0  0  0
 38 36  2  0  0  0  0
 39 40  1  0  0  0  0
 39  1  1  0  0  0  0
 41 40  1  0  0  0  0
 42 43  2  0  0  0  0
 44 42  1  0  0  0  0
 44 41  1  0  0  0  0
 45 53  2  0  0  0  0
 45 50  1  0  0  0  0
 46 42  1  0  0  0  0
 47 52  1  0  0  0  0
 47 45  1  0  0  0  0
 49 46  1  0  0  0  0
 50 46  2  0  0  0  0
 51 48  1  1  0  0  0
 51 49  1  0  0  0  0
 52 51  1  0  0  0  0
 52 55  1  1  0  0  0
 54 55  1  0  0  0  0
M  END
>  <MODEL>
6

>  <REMARK>
 VINA RESULT:      -6.2      2.380      8.434
  Name = 
  22 active torsions:
  status: ('A' for Active; 'I' for Inactive)
    1  A    between atoms: C_1  and  N_6
    2  A    between atoms: C_2  and  C_18
    3  A    between atoms: C_2  and  C_20
    4  A    between atoms: C_4  and  C_19
    5  A    between atoms: O_8  and  C_15
    6  A    between atoms: O_8  and  C_45
    7  A    between atoms: N_9  and  C_20
    8  A    between atoms: C_10  and  C_15
    9  A    between atoms: C_10  and  N_55
   10  A    between atoms: C_11  and  C_30
   11  A    between atoms: C_12  and  C_37
   12  A    between atoms: C_16  and  C_54
   13  A    between atoms: C_18  and  N_33
   14  A    between atoms: O_22  and  C_37
   15  A    between atoms: C_28  and  C_53
   16  A    between atoms: C_36  and  C_41
   17  A    between atoms: C_36  and  N_55
   18  A    between atoms: C_41  and  C_49
   19  A    between atoms: C_45  and  C_52
   20  A    between atoms: C_46  and  C_52
   21  A    between atoms: C_46  and  C_54
   22  A    between atoms: C_48  and  C_50
                            x       y       z     vdW  Elec       q    Type
                         _______ _______ _______ _____ _____    ______ ____

>  <TORSDO>
F 22

$$$$
=
 OpenBabel10232408483D

 55 57  0  0  1  0  0  0  0  0999 V2000
  185.6400  178.1800  138.2440 N   0  0  0  0  0  0  0  0  0  0  0  0
  184.3680  178.0550  138.4780 C   0  0  0  0  0  0  0  0  0  0  0  0
  182.6510  177.6890  140.1500 C   0  0  0  0  0  2  0  0  0  0  0  0
  183.8930  178.0800  139.8670 C   0  0  0  0  0  0  0  0  0  0  0  0
  184.6790  178.8190  140.8960 C   0  0  0  0  0  2  0  0  0  0  0  0
  183.9210  178.9750  142.0630 O   0  0  0  0  0  0  0  0  0  0  0  0
  184.8500  179.3900  143.0220 C   0  0  0  0  0  2  0  0  0  0  0  0
  184.2750  179.1980  144.4120 C   0  0  0  0  0  2  0  0  0  0  0  0
  185.3210  178.7580  145.3230 N   0  0  0  0  0  2  0  0  0  0  0  0
  186.1160  177.7840  144.6010 C   0  0  0  0  0  2  0  0  0  0  0  0
  186.8850  176.9320  145.5940 C   0  0  0  0  0  2  0  0  0  0  0  0
  190.1490  177.4910  145.0530 C   0  0  1  0  0  3  0  0  0  0  0  0
  190.9410  177.2680  146.3550 C   0  0  1  0  0  3  0  0  0  0  0  0
  190.0830  177.2760  147.6280 C   0  0  2  0  0  3  0  0  0  0  0  0
  188.9230  178.3740  145.2870 C   0  0  0  0  0  2  0  0  0  0  0  0
  188.6380  176.8590  147.3450 C   0  0  0  0  0  2  0  0  0  0  0  0
  190.1180  178.5450  148.2200 O   0  0  0  0  0  1  0  0  0  0  0  0
  187.9480  177.7500  146.3010 C   0  0  2  0  0  3  0  0  0  0  0  0
  191.9820  177.9030  141.7860 O   0  0  0  0  0  1  0  0  0  0  0  0
  191.0320  178.0780  144.0020 C   0  0  0  0  0  0  0  0  0  0  0  0
  191.1590  177.4160  142.7450 N   0  0  0  0  0  2  0  0  0  0  0  0
  191.6860  179.1330  144.2350 O   0  0  0  0  0  0  0  0  0  0  0  0
  192.6270  175.7710  147.1580 O   0  0  0  0  0  0  0  0  0  0  0  0
  191.7530  176.0160  146.2790 C   0  0  0  0  0  0  0  0  0  0  0  0
  191.5270  175.1210  145.2330 O   0  0  0  0  0  0  0  0  0  0  0  0
  192.4820  174.1340  144.8740 C   0  0  0  0  0  1  0  0  0  0  0  0
  183.3800  177.8500  137.3660 C   0  0  0  0  0  2  0  0  0  0  0  0
  183.4060  174.0620  137.3820 C   0  0  0  0  0  3  0  0  0  0  0  0
  183.3630  176.4360  136.8910 C   0  0  0  0  0  0  0  0  0  0  0  0
  183.4110  175.3920  137.8190 C   0  0  0  0  0  3  0  0  0  0  0  0
  183.3230  176.1490  135.5210 C   0  0  0  0  0  3  0  0  0  0  0  0
  183.3190  174.8190  135.0850 C   0  0  0  0  0  3  0  0  0  0  0  0
  183.3630  173.7710  136.0150 C   0  0  0  0  0  0  0  0  0  0  0  0
  184.2230  171.5190  136.0420 N   0  0  0  0  0  0  0  0  0  0  0  0
  183.3580  172.3690  135.5860 C   0  0  0  0  0  3  0  0  0  0  0  0
  184.2350  170.1500  135.6290 C   0  0  0  0  0  0  0  0  0  0  0  0
  185.4360  169.6040  134.9440 C   0  0  0  0  0  1  0  0  0  0  0  0
  183.2420  169.4020  135.8350 O   0  0  0  0  0  0  0  0  0  0  0  0
  186.2600  178.1340  136.9210 C   0  0  0  0  0  2  0  0  0  0  0  0
  187.7580  178.3410  137.0330 C   0  0  0  0  0  2  0  0  0  0  0  0
  188.3440  177.2960  137.9650 C   0  0  0  0  0  2  0  0  0  0  0  0
  190.5420  176.0480  138.0640 C   0  0  0  0  0  0  0  0  0  0  0  0
  190.5130  176.0570  139.3250 O   0  0  0  0  0  0  0  0  0  0  0  0
  189.4710  176.6360  137.3210 N   0  0  0  0  0  2  0  0  0  0  0  0
  192.3470  173.4070  136.0330 C   0  0  0  0  0  0  0  0  0  0  0  0
  191.6620  175.4000  137.3570 C   0  0  0  0  0  0  0  0  0  0  0  0
  193.4440  173.8900  135.3070 O   0  0  0  0  0  0  0  0  0  0  0  0
  194.6590  177.1870  136.2260 O   0  0  0  0  0  1  0  0  0  0  0  0
  193.0180  176.0160  137.4820 C   0  0  0  0  0  2  0  0  0  0  0  0
  191.4540  174.2470  136.7900 N   0  0  0  0  0  0  0  0  0  0  0  0
  193.7040  176.1720  136.1390 C   0  0  2  0  0  3  0  0  0  0  0  0
  194.3800  174.8710  135.7390 C   0  0  1  0  0  3  0  0  0  0  0  0
  192.0340  172.1970  135.8840 O   0  0  0  0  0  0  0  0  0  0  0  0
  196.3200  175.2370  137.1050 O   0  0  0  0  0  1  0  0  0  0  0  0
  195.3160  174.3110  136.8130 C   0  0  0  0  0  2  0  0  0  0  0  0
  1  2  2  0  0  0  0
  2  4  1  0  0  0  0
  4  3  2  0  0  0  0
  4  5  1  0  0  0  0
  5  6  1  0  0  0  0
  6  7  1  0  0  0  0
  7  8  1  0  0  0  0
  8  9  1  0  0  0  0
 10  9  1  0  0  0  0
 10 11  1  0  0  0  0
 12 20  1  6  0  0  0
 12 15  1  0  0  0  0
 12 13  1  0  0  0  0
 13 24  1  6  0  0  0
 13 14  1  0  0  0  0
 14 17  1  6  0  0  0
 15 18  1  0  0  0  0
 16 14  1  0  0  0  0
 18 11  1  6  0  0  0
 18 16  1  0  0  0  0
 19 21  1  0  0  0  0
 20 22  2  0  0  0  0
 21 20  1  0  0  0  0
 24 23  2  0  0  0  0
 25 24  1  0  0  0  0
 26 25  1  0  0  0  0
 27  2  1  0  0  0  0
 28 30  1  0  0  0  0
 29 27  1  0  0  0  0
 29 30  2  0  0  0  0
 31 29  1  0  0  0  0
 32 31  2  0  0  0  0
 32 33  1  0  0  0  0
 33 28  2  0  0  0  0
 35 33  1  0  0  0  0
 35 34  2  0  0  0  0
 36 38  2  0  0  0  0
 36 34  1  0  0  0  0
 37 36  1  0  0  0  0
 39 40  1  0  0  0  0
 39  1  1  0  0  0  0
 40 41  1  0  0  0  0
 42 43  2  0  0  0  0
 44 41  1  0  0  0  0
 44 42  1  0  0  0  0
 45 50  1  0  0  0  0
 46 49  1  0  0  0  0
 46 42  1  0  0  0  0
 47 52  1  0  0  0  0
 47 45  1  0  0  0  0
 50 46  2  0  0  0  0
 51 48  1  1  0  0  0
 51 49  1  0  0  0  0
 52 51  1  0  0  0  0
 52 55  1  1  0  0  0
 53 45  2  0  0  0  0
 55 54  1  0  0  0  0
M  END
>  <MODEL>
7

>  <REMARK>
 VINA RESULT:      -6.0      1.616      2.605
  Name = 
  22 active torsions:
  status: ('A' for Active; 'I' for Inactive)
    1  A    between atoms: C_1  and  N_6
    2  A    between atoms: C_2  and  C_18
    3  A    between atoms: C_2  and  C_20
    4  A    between atoms: C_4  and  C_19
    5  A    between atoms: O_8  and  C_15
    6  A    between atoms: O_8  and  C_45
    7  A    between atoms: N_9  and  C_20
    8  A    between atoms: C_10  and  C_15
    9  A    between atoms: C_10  and  N_55
   10  A    between atoms: C_11  and  C_30
   11  A    between atoms: C_12  and  C_37
   12  A    between atoms: C_16  and  C_54
   13  A    between atoms: C_18  and  N_33
   14  A    between atoms: O_22  and  C_37
   15  A    between atoms: C_28  and  C_53
   16  A    between atoms: C_36  and  C_41
   17  A    between atoms: C_36  and  N_55
   18  A    between atoms: C_41  and  C_49
   19  A    between atoms: C_45  and  C_52
   20  A    between atoms: C_46  and  C_52
   21  A    between atoms: C_46  and  C_54
   22  A    between atoms: C_48  and  C_50
                            x       y       z     vdW  Elec       q    Type
                         _______ _______ _______ _____ _____    ______ ____

>  <TORSDO>
F 22

$$$$
=
 OpenBabel10232408483D

 55 57  0  0  1  0  0  0  0  0999 V2000
  189.3200  174.6000  137.6910 N   0  0  0  0  0  0  0  0  0  0  0  0
  190.0930  175.6020  137.3930 C   0  0  0  0  0  0  0  0  0  0  0  0
  189.4510  177.8800  137.9200 C   0  0  0  0  0  2  0  0  0  0  0  0
  190.1090  176.7760  138.2750 C   0  0  0  0  0  0  0  0  0  0  0  0
  191.0930  176.8400  139.3920 C   0  0  0  0  0  2  0  0  0  0  0  0
  190.5730  176.2140  140.5320 O   0  0  0  0  0  0  0  0  0  0  0  0
  190.8820  177.0910  141.5760 C   0  0  0  0  0  2  0  0  0  0  0  0
  191.3650  176.3070  142.7800 C   0  0  0  0  0  2  0  0  0  0  0  0
  191.5270  177.1990  143.9180 N   0  0  0  0  0  2  0  0  0  0  0  0
  190.5550  178.2610  143.7530 C   0  0  0  0  0  2  0  0  0  0  0  0
  189.7810  178.4370  145.0470 C   0  0  0  0  0  2  0  0  0  0  0  0
  186.6360  178.4120  143.8790 C   0  0  1  0  0  3  0  0  0  0  0  0
  185.6600  178.0410  145.0120 C   0  0  1  0  0  3  0  0  0  0  0  0
  186.3230  177.3740  146.2250 C   0  0  2  0  0  3  0  0  0  0  0  0
  187.8200  177.4480  143.8200 C   0  0  0  0  0  2  0  0  0  0  0  0
  187.7900  177.7800  146.3700 C   0  0  0  0  0  2  0  0  0  0  0  0
  186.2100  175.9810  146.1250 O   0  0  0  0  0  1  0  0  0  0  0  0
  188.6320  177.4500  145.1280 C   0  0  2  0  0  3  0  0  0  0  0  0
  185.6130  179.5370  140.4300 O   0  0  0  0  0  1  0  0  0  0  0  0
  185.9200  178.4540  142.5690 C   0  0  0  0  0  0  0  0  0  0  0  0
  186.2700  179.4510  141.6120 N   0  0  0  0  0  2  0  0  0  0  0  0
  184.9910  177.6340  142.3240 O   0  0  0  0  0  0  0  0  0  0  0  0
  185.4290  180.3300  145.6680 O   0  0  0  0  0  0  0  0  0  0  0  0
  184.8590  179.2270  145.4390 C   0  0  0  0  0  0  0  0  0  0  0  0
  183.4760  179.1010  145.5710 O   0  0  0  0  0  0  0  0  0  0  0  0
  182.6450  178.7910  144.4620 C   0  0  0  0  0  1  0  0  0  0  0  0
  190.9400  175.6010  136.1540 C   0  0  0  0  0  2  0  0  0  0  0  0
  194.6940  175.8900  136.5680 C   0  0  0  0  0  3  0  0  0  0  0  0
  192.3600  175.2480  136.4500 C   0  0  0  0  0  0  0  0  0  0  0  0
  193.3590  176.2150  136.3030 C   0  0  0  0  0  3  0  0  0  0  0  0
  192.6990  173.9500  136.8520 C   0  0  0  0  0  3  0  0  0  0  0  0
  194.0340  173.6260  137.1160 C   0  0  0  0  0  3  0  0  0  0  0  0
  195.0370  174.5960  136.9730 C   0  0  0  0  0  0  0  0  0  0  0  0
  197.3740  175.1750  137.1020 N   0  0  0  0  0  0  0  0  0  0  0  0
  196.4440  174.2840  137.2440 C   0  0  0  0  0  3  0  0  0  0  0  0
  198.7510  174.8850  137.3580 C   0  0  0  0  0  0  0  0  0  0  0  0
  199.2160  174.7270  138.7610 C   0  0  0  0  0  1  0  0  0  0  0  0
  199.5750  174.7630  136.4120 O   0  0  0  0  0  0  0  0  0  0  0  0
  189.1710  173.3870  136.8900 C   0  0  0  0  0  2  0  0  0  0  0  0
  187.8230  173.3770  136.1950 C   0  0  0  0  0  2  0  0  0  0  0  0
  186.7790  172.7910  137.1270 C   0  0  0  0  0  2  0  0  0  0  0  0
  184.2940  173.2290  137.3150 C   0  0  0  0  0  0  0  0  0  0  0  0
  184.0590  171.9890  137.3450 O   0  0  0  0  0  0  0  0  0  0  0  0
  185.6430  173.6970  137.2260 N   0  0  0  0  0  2  0  0  0  0  0  0
  180.8230  174.6370  136.7470 C   0  0  0  0  0  0  0  0  0  0  0  0
  183.1820  174.1920  137.4040 C   0  0  0  0  0  0  0  0  0  0  0  0
  180.4030  175.5440  137.7290 O   0  0  0  0  0  0  0  0  0  0  0  0
  182.9800  176.8380  139.9370 O   0  0  0  0  0  1  0  0  0  0  0  0
  183.4600  175.5280  138.0150 C   0  0  0  0  0  2  0  0  0  0  0  0
  182.0590  173.9010  136.8120 N   0  0  0  0  0  0  0  0  0  0  0  0
  182.4230  175.9130  139.0510 C   0  0  2  0  0  3  0  0  0  0  0  0
  181.2060  176.5240  138.3760 C   0  0  1  0  0  3  0  0  0  0  0  0
  180.0020  174.3320  135.8420 O   0  0  0  0  0  0  0  0  0  0  0  0
  180.7470  178.7880  137.7210 O   0  0  0  0  0  1  0  0  0  0  0  0
  181.5450  177.6780  137.4310 C   0  0  0  0  0  2  0  0  0  0  0  0
  2  1  2  0  0  0  0
  2  4  1  0  0  0  0
  3  4  2  0  0  0  0
  4  5  1  0  0  0  0
  5  6  1  0  0  0  0
  6  7  1  0  0  0  0
  7  8  1  0  0  0  0
  8  9  1  0  0  0  0
 10  9  1  0  0  0  0
 10 11  1  0  0  0  0
 12 20  1  6  0  0  0
 12 13  1  0  0  0  0
 13 24  1  1  0  0  0
 13 14  1  0  0  0  0
 14 17  1  6  0  0  0
 14 16  1  0  0  0  0
 15 12  1  0  0  0  0
 15 18  1  0  0  0  0
 18 11  1  6  0  0  0
 18 16  1  0  0  0  0
 19 21  1  0  0  0  0
 21 20  1  0  0  0  0
 22 20  2  0  0  0  0
 24 25  1  0  0  0  0
 24 23  2  0  0  0  0
 26 25  1  0  0  0  0
 27 29  1  0  0  0  0
 27  2  1  0  0  0  0
 28 33  1  0  0  0  0
 29 31  2  0  0  0  0
 30 29  1  0  0  0  0
 30 28  2  0  0  0  0
 31 32  1  0  0  0  0
 33 32  2  0  0  0  0
 33 35  1  0  0  0  0
 34 35  2  0  0  0  0
 34 36  1  0  0  0  0
 36 37  1  0  0  0  0
 38 36  2  0  0  0  0
 39  1  1  0  0  0  0
 40 39  1  0  0  0  0
 40 41  1  0  0  0  0
 41 44  1  0  0  0  0
 42 43  2  0  0  0  0
 42 46  1  0  0  0  0
 44 42  1  0  0  0  0
 45 50  1  0  0  0  0
 45 47  1  0  0  0  0
 46 49  1  0  0  0  0
 47 52  1  0  0  0  0
 49 51  1  0  0  0  0
 50 46  2  0  0  0  0
 51 48  1  1  0  0  0
 52 55  1  6  0  0  0
 52 51  1  0  0  0  0
 53 45  2  0  0  0  0
 55 54  1  0  0  0  0
M  END
>  <MODEL>
8

>  <REMARK>
 VINA RESULT:      -6.0      2.748      9.627
  Name = 
  22 active torsions:
  status: ('A' for Active; 'I' for Inactive)
    1  A    between atoms: C_1  and  N_6
    2  A    between atoms: C_2  and  C_18
    3  A    between atoms: C_2  and  C_20
    4  A    between atoms: C_4  and  C_19
    5  A    between atoms: O_8  and  C_15
    6  A    between atoms: O_8  and  C_45
    7  A    between atoms: N_9  and  C_20
    8  A    between atoms: C_10  and  C_15
    9  A    between atoms: C_10  and  N_55
   10  A    between atoms: C_11  and  C_30
   11  A    between atoms: C_12  and  C_37
   12  A    between atoms: C_16  and  C_54
   13  A    between atoms: C_18  and  N_33
   14  A    between atoms: O_22  and  C_37
   15  A    between atoms: C_28  and  C_53
   16  A    between atoms: C_36  and  C_41
   17  A    between atoms: C_36  and  N_55
   18  A    between atoms: C_41  and  C_49
   19  A    between atoms: C_45  and  C_52
   20  A    between atoms: C_46  and  C_52
   21  A    between atoms: C_46  and  C_54
   22  A    between atoms: C_48  and  C_50
                            x       y       z     vdW  Elec       q    Type
                         _______ _______ _______ _____ _____    ______ ____

>  <TORSDO>
F 22

$$$$
=
 OpenBabel10232408483D

 55 57  0  0  1  0  0  0  0  0999 V2000
  188.8650  177.6900  141.2580 N   0  0  0  0  0  0  0  0  0  0  0  0
  188.0650  177.3700  142.2320 C   0  0  0  0  0  0  0  0  0  0  0  0
  186.0810  177.9170  143.5130 C   0  0  0  0  0  2  0  0  0  0  0  0
  186.8930  178.2120  142.4970 C   0  0  0  0  0  0  0  0  0  0  0  0
  186.4470  179.1930  141.4670 C   0  0  0  0  0  2  0  0  0  0  0  0
  185.1010  179.5250  141.6650 O   0  0  0  0  0  0  0  0  0  0  0  0
  184.4120  178.7160  140.7560 C   0  0  0  0  0  2  0  0  0  0  0  0
  183.0520  178.3540  141.3200 C   0  0  0  0  0  2  0  0  0  0  0  0
  182.1780  177.9000  140.2480 N   0  0  0  0  0  2  0  0  0  0  0  0
  182.8590  176.8000  139.5960 C   0  0  0  0  0  2  0  0  0  0  0  0
  181.8510  175.9840  138.8080 C   0  0  0  0  0  2  0  0  0  0  0  0
  184.5930  174.8590  137.2360 C   0  0  1  0  0  3  0  0  0  0  0  0
  185.0710  175.9000  136.2070 C   0  0  1  0  0  3  0  0  0  0  0  0
  184.0150  176.9490  135.8310 C   0  0  2  0  0  3  0  0  0  0  0  0
  183.0920  174.5980  137.1150 C   0  0  0  0  0  2  0  0  0  0  0  0
  182.9970  177.1620  136.9520 C   0  0  0  0  0  2  0  0  0  0  0  0
  183.3670  176.5720  134.6480 O   0  0  0  0  0  1  0  0  0  0  0  0
  182.2640  175.8730  137.3530 C   0  0  2  0  0  3  0  0  0  0  0  0
  186.4960  172.0330  135.6240 O   0  0  0  0  0  1  0  0  0  0  0  0
  185.3660  173.5900  137.0880 C   0  0  0  0  0  0  0  0  0  0  0  0
  185.8260  173.1970  135.7960 N   0  0  0  0  0  2  0  0  0  0  0  0
  185.5840  172.8550  138.0910 O   0  0  0  0  0  0  0  0  0  0  0  0
  186.3740  177.1450  137.7820 O   0  0  0  0  0  0  0  0  0  0  0  0
  186.3300  176.5640  136.6610 C   0  0  0  0  0  0  0  0  0  0  0  0
  187.4550  176.5240  135.8370 O   0  0  0  0  0  0  0  0  0  0  0  0
  188.1330  177.7060  135.4410 C   0  0  0  0  0  1  0  0  0  0  0  0
  188.3330  176.1820  143.1100 C   0  0  0  0  0  2  0  0  0  0  0  0
  191.1990  176.8830  145.4850 C   0  0  0  0  0  3  0  0  0  0  0  0
  189.0870  176.5590  144.3420 C   0  0  0  0  0  0  0  0  0  0  0  0
  190.4850  176.5420  144.3320 C   0  0  0  0  0  3  0  0  0  0  0  0
  188.4030  176.9080  145.5130 C   0  0  0  0  0  3  0  0  0  0  0  0
  189.1180  177.2500  146.6650 C   0  0  0  0  0  3  0  0  0  0  0  0
  190.5200  177.2360  146.6560 C   0  0  0  0  0  0  0  0  0  0  0  0
  192.3200  176.8910  148.2230 N   0  0  0  0  0  0  0  0  0  0  0  0
  191.2950  177.5900  147.8490 C   0  0  0  0  0  3  0  0  0  0  0  0
  193.0820  177.2210  149.3870 C   0  0  0  0  0  0  0  0  0  0  0  0
  193.8220  176.1500  150.1030 C   0  0  0  0  0  1  0  0  0  0  0  0
  193.1340  178.4050  149.8140 O   0  0  0  0  0  0  0  0  0  0  0  0
  190.0860  176.9720  140.9030 C   0  0  0  0  0  2  0  0  0  0  0  0
  190.6590  177.5130  139.6070 C   0  0  0  0  0  2  0  0  0  0  0  0
  190.6130  176.4310  138.5440 C   0  0  0  0  0  2  0  0  0  0  0  0
  192.2440  174.7630  137.5650 C   0  0  0  0  0  0  0  0  0  0  0  0
  191.2950  174.0010  137.2330 O   0  0  0  0  0  0  0  0  0  0  0  0
  191.9660  176.0100  138.2100 N   0  0  0  0  0  2  0  0  0  0  0  0
  195.3850  172.6440  137.5860 C   0  0  0  0  0  0  0  0  0  0  0  0
  193.6350  174.3850  137.2590 C   0  0  0  0  0  0  0  0  0  0  0  0
  196.2270  172.8540  136.4850 O   0  0  0  0  0  0  0  0  0  0  0  0
  195.5770  175.8260  134.5010 O   0  0  0  0  0  1  0  0  0  0  0  0
  194.5010  175.3920  136.5730 C   0  0  0  0  0  2  0  0  0  0  0  0
  194.0920  173.2610  137.7340 N   0  0  0  0  0  0  0  0  0  0  0  0
  195.2420  174.8030  135.3890 C   0  0  2  0  0  3  0  0  0  0  0  0
  196.5060  174.1000  135.8570 C   0  0  1  0  0  3  0  0  0  0  0  0
  195.7080  171.7470  138.4070 O   0  0  0  0  0  0  0  0  0  0  0  0
  198.3930  175.5800  135.9530 O   0  0  0  0  0  1  0  0  0  0  0  0
  197.4050  174.9750  136.7330 C   0  0  0  0  0  2  0  0  0  0  0  0
  1  2  2  0  0  0  0
  2  4  1  0  0  0  0
  2 27  1  0  0  0  0
  4  3  2  0  0  0  0
  5  6  1  0  0  0  0
  5  4  1  0  0  0  0
  7  8  1  0  0  0  0
  7  6  1  0  0  0  0
  9  8  1  0  0  0  0
 10  9  1  0  0  0  0
 11 10  1  0  0  0  0
 12 20  1  6  0  0  0
 13 24  1  1  0  0  0
 13 12  1  0  0  0  0
 14 17  1  6  0  0  0
 14 13  1  0  0  0  0
 14 16  1  0  0  0  0
 15 12  1  0  0  0  0
 15 18  1  0  0  0  0
 16 18  1  0  0  0  0
 18 11  1  1  0  0  0
 19 21  1  0  0  0  0
 20 22  2  0  0  0  0
 21 20  1  0  0  0  0
 24 23  2  0  0  0  0
 25 24  1  0  0  0  0
 26 25  1  0  0  0  0
 27 29  1  0  0  0  0
 28 33  1  0  0  0  0
 29 31  2  0  0  0  0
 30 29  1  0  0  0  0
 30 28  2  0  0  0  0
 31 32  1  0  0  0  0
 33 32  2  0  0  0  0
 33 35  1  0  0  0  0
 34 36  1  0  0  0  0
 35 34  2  0  0  0  0
 36 38  2  0  0  0  0
 36 37  1  0  0  0  0
 39  1  1  0  0  0  0
 40 39  1  0  0  0  0
 41 40  1  0  0  0  0
 42 44  1  0  0  0  0
 43 42  2  0  0  0  0
 44 41  1  0  0  0  0
 45 50  1  0  0  0  0
 45 53  2  0  0  0  0
 46 42  1  0  0  0  0
 46 50  2  0  0  0  0
 47 45  1  0  0  0  0
 49 46  1  0  0  0  0
 51 48  1  6  0  0  0
 51 52  1  0  0  0  0
 51 49  1  0  0  0  0
 52 47  1  0  0  0  0
 52 55  1  1  0  0  0
 54 55  1  0  0  0  0
M  END
>  <MODEL>
9

>  <REMARK>
 VINA RESULT:      -6.0      2.603      8.628
  Name = 
  22 active torsions:
  status: ('A' for Active; 'I' for Inactive)
    1  A    between atoms: C_1  and  N_6
    2  A    between atoms: C_2  and  C_18
    3  A    between atoms: C_2  and  C_20
    4  A    between atoms: C_4  and  C_19
    5  A    between atoms: O_8  and  C_15
    6  A    between atoms: O_8  and  C_45
    7  A    between atoms: N_9  and  C_20
    8  A    between atoms: C_10  and  C_15
    9  A    between atoms: C_10  and  N_55
   10  A    between atoms: C_11  and  C_30
   11  A    between atoms: C_12  and  C_37
   12  A    between atoms: C_16  and  C_54
   13  A    between atoms: C_18  and  N_33
   14  A    between atoms: O_22  and  C_37
   15  A    between atoms: C_28  and  C_53
   16  A    between atoms: C_36  and  C_41
   17  A    between atoms: C_36  and  N_55
   18  A    between atoms: C_41  and  C_49
   19  A    between atoms: C_45  and  C_52
   20  A    between atoms: C_46  and  C_52
   21  A    between atoms: C_46  and  C_54
   22  A    between atoms: C_48  and  C_50
                            x       y       z     vdW  Elec       q    Type
                         _______ _______ _______ _____ _____    ______ ____

>  <TORSDO>
F 22

$$$$
