=
 OpenBabel10232407533D

 26 30  0  0  1  0  0  0  0  0999 V2000
  188.3380  177.4520  141.4340 C   0  0  2  0  0  3  0  0  0  0  0  0
  188.2240  178.7680  141.0380 C   0  0  0  0  0  2  0  0  0  0  0  0
  187.2030  178.2410  141.9930 N   0  0  0  0  0  0  0  0  0  0  0  0
  192.2230  176.3640  142.8590 O   0  0  0  0  0  1  0  0  0  0  0  0
  188.8950  176.4760  143.7280 C   0  0  2  0  0  3  0  0  0  0  0  0
  190.4480  178.9260  144.0300 C   0  0  0  0  0  0  0  0  0  0  0  0
  191.1340  180.0500  144.1600 C   0  0  0  0  0  2  0  0  0  0  0  0
  191.0250  176.1080  144.9190 C   0  0  0  0  0  2  0  0  0  0  0  0
  191.1980  175.6530  143.4830 C   0  0  1  0  0  3  0  0  0  0  0  0
  189.8170  178.2930  145.2260 C   0  0  0  0  0  2  0  0  0  0  0  0
  189.6690  176.7870  145.0110 C   0  0  1  0  0  3  0  0  0  0  0  0
  189.8700  175.8250  142.7440 C   0  0  2  0  0  3  0  0  0  0  0  0
  190.3180  178.3300  142.7750 O   0  0  0  0  0  0  0  0  0  0  0  0
  189.3940  177.2600  142.5180 C   0  0  1  0  0  0  0  0  0  0  0  0
  184.4180  179.1900  145.3910 N   0  0  0  0  0  0  0  0  0  0  0  0
  186.2880  178.1660  144.2570 N   0  0  0  0  0  2  0  0  0  0  0  0
  183.6400  178.7780  143.1440 C   0  0  0  0  0  2  0  0  0  0  0  0
  185.4890  178.4550  145.4190 C   0  0  0  0  0  0  0  0  0  0  0  0
  183.8610  179.8220  144.2100 C   0  0  0  0  0  2  0  0  0  0  0  0
  184.8710  178.6650  142.3060 C   0  0  0  0  0  0  0  0  0  0  0  0
  186.0690  178.3720  142.8480 C   0  0  0  0  0  0  0  0  0  0  0  0
  185.9400  177.9170  146.7280 C   0  0  0  0  0  1  0  0  0  0  0  0
  184.1000  178.3810  138.5000 C   0  0  0  0  0  1  0  0  0  0  0  0
  184.7830  178.8340  140.8800 N   0  0  0  0  0  2  0  0  0  0  0  0
  183.1340  177.2010  140.3520 N   0  0  0  0  0  2  0  0  0  0  0  0
  183.9910  178.0820  139.9510 C   0  0  0  0  0  0  0  0  0  0  0  0
  1  2  1  6  0  0  0
  1  3  1  0  0  0  0
  1 14  1  0  0  0  0
  2  3  1  0  0  0  0
  3 21  1  0  0  0  0
  4  9  1  0  0  0  0
  5 11  1  0  0  0  0
  6  7  2  0  0  0  0
  6 10  1  0  0  0  0
  8 11  1  0  0  0  0
  9  8  1  0  0  0  0
 11 10  1  0  0  0  0
 12  9  1  0  0  0  0
 12  5  1  0  0  0  0
 13  6  1  0  0  0  0
 14 12  1  0  0  0  0
 14 13  1  0  0  0  0
 14  5  1  0  0  0  0
 15 18  2  0  0  0  0
 16 18  1  0  0  0  0
 17 19  1  0  0  0  0
 18 22  1  0  0  0  0
 19 15  1  0  0  0  0
 20 21  2  0  0  0  0
 20 17  1  0  0  0  0
 21 16  1  0  0  0  0
 23 26  1  0  0  0  0
 24 20  1  0  0  0  0
 26 25  2  0  0  0  0
 26 24  1  0  0  0  0
M  END
>  <MODEL>
1

>  <REMARK>
 VINA RESULT:      -7.8      0.000      0.000
  Name = 
  3 active torsions:
  status: ('A' for Active; 'I' for Inactive)
    1  A    between atoms: C_2  and  C_26
    2  A    between atoms: N_12  and  C_21
    3  A    between atoms: N_18  and  C_19
                            x       y       z     vdW  Elec       q    Type
                         _______ _______ _______ _____ _____    ______ ____

>  <TORSDO>
F 3

$$$$
=
 OpenBabel10232407533D

 26 30  0  0  1  0  0  0  0  0999 V2000
  187.8680  176.5460  143.0790 C   0  0  2  0  0  3  0  0  0  0  0  0
  186.9580  177.5760  143.2000 C   0  0  0  0  0  2  0  0  0  0  0  0
  187.6540  177.1170  144.4400 N   0  0  0  0  0  0  0  0  0  0  0  0
  190.4040  178.4240  140.1910 O   0  0  0  0  0  1  0  0  0  0  0  0
  190.3010  175.9500  142.5810 C   0  0  2  0  0  3  0  0  0  0  0  0
  190.8110  178.6750  143.4860 C   0  0  0  0  0  0  0  0  0  0  0  0
  191.0290  179.9070  143.9150 C   0  0  0  0  0  2  0  0  0  0  0  0
  192.0640  177.0710  141.2680 C   0  0  0  0  0  2  0  0  0  0  0  0
  190.7770  177.1080  140.4660 C   0  0  1  0  0  3  0  0  0  0  0  0
  191.8340  177.6120  143.7140 C   0  0  0  0  0  2  0  0  0  0  0  0
  191.7170  176.5270  142.6430 C   0  0  1  0  0  3  0  0  0  0  0  0
  189.6860  176.3710  141.2440 C   0  0  2  0  0  3  0  0  0  0  0  0
  189.6250  178.3700  142.8160 O   0  0  0  0  0  0  0  0  0  0  0  0
  189.2150  177.0210  142.5440 C   0  0  1  0  0  0  0  0  0  0  0  0
  189.5880  177.9050  148.4210 N   0  0  0  0  0  0  0  0  0  0  0  0
  189.3350  176.9740  146.2070 N   0  0  0  0  0  0  0  0  0  0  0  0
  187.2220  177.4910  148.1790 C   0  0  0  0  0  2  0  0  0  0  0  0
  190.0600  177.2140  147.4270 C   0  0  0  0  0  0  0  0  0  0  0  0
  188.2790  178.5290  148.4650 C   0  0  0  0  0  2  0  0  0  0  0  0
  186.9710  177.4400  146.7080 C   0  0  1  0  0  3  0  0  0  0  0  0
  187.9610  177.1890  145.8310 C   0  0  0  0  0  0  0  0  0  0  0  0
  191.4410  176.6770  147.5350 C   0  0  0  0  0  1  0  0  0  0  0  0
  183.5450  178.8270  145.4800 C   0  0  0  0  0  1  0  0  0  0  0  0
  185.6350  177.6250  146.2050 N   0  0  0  0  0  2  0  0  0  0  0  0
  185.5720  179.9960  146.0100 N   0  0  0  0  0  2  0  0  0  0  0  0
  184.9590  178.8610  145.9350 C   0  0  0  0  0  0  0  0  0  0  0  0
  1  2  1  6  0  0  0
  1  3  1  0  0  0  0
  2  3  1  0  0  0  0
  3 21  1  0  0  0  0
  4  9  1  0  0  0  0
  5 11  1  0  0  0  0
  6 10  1  0  0  0  0
  6  7  2  0  0  0  0
  8 11  1  0  0  0  0
  9 12  1  0  0  0  0
  9  8  1  0  0  0  0
 11 10  1  0  0  0  0
 12 14  1  0  0  0  0
 12  5  1  0  0  0  0
 13  6  1  0  0  0  0
 14  5  1  0  0  0  0
 14 13  1  0  0  0  0
 14  1  1  0  0  0  0
 15 19  1  0  0  0  0
 16 18  1  0  0  0  0
 17 19  1  0  0  0  0
 18 22  1  0  0  0  0
 18 15  2  0  0  0  0
 20 17  1  0  0  0  0
 21 16  2  0  0  0  0
 21 20  1  0  0  0  0
 23 26  1  0  0  0  0
 24 20  1  0  0  0  0
 26 25  2  0  0  0  0
 26 24  1  0  0  0  0
M  END
>  <MODEL>
2

>  <REMARK>
 VINA RESULT:      -7.5      2.620      4.281
  Name = 
  3 active torsions:
  status: ('A' for Active; 'I' for Inactive)
    1  A    between atoms: C_2  and  C_26
    2  A    between atoms: N_12  and  C_21
    3  A    between atoms: N_18  and  C_19
                            x       y       z     vdW  Elec       q    Type
                         _______ _______ _______ _____ _____    ______ ____

>  <TORSDO>
F 3

$$$$
=
 OpenBabel10232407533D

 26 30  0  0  1  0  0  0  0  0999 V2000
  191.6820  176.6640  140.9580 C   0  0  2  0  0  3  0  0  0  0  0  0
  192.0760  177.7060  140.1440 C   0  0  0  0  0  2  0  0  0  0  0  0
  190.9650  176.8320  139.6610 N   0  0  0  0  0  0  0  0  0  0  0  0
  190.5670  179.2720  144.1610 O   0  0  0  0  0  1  0  0  0  0  0  0
  190.3950  176.0130  143.0660 C   0  0  2  0  0  3  0  0  0  0  0  0
  188.4100  177.8850  142.0370 C   0  0  0  0  0  0  0  0  0  0  0  0
  187.5100  178.7240  141.5500 C   0  0  0  0  0  2  0  0  0  0  0  0
  189.3280  177.3400  144.8530 C   0  0  0  0  0  2  0  0  0  0  0  0
  190.6890  177.9410  144.5620 C   0  0  1  0  0  3  0  0  0  0  0  0
  187.9720  176.6990  142.8320 C   0  0  0  0  0  2  0  0  0  0  0  0
  189.0780  176.2740  143.7990 C   0  0  1  0  0  3  0  0  0  0  0  0
  191.3870  177.0990  143.4930 C   0  0  2  0  0  3  0  0  0  0  0  0
  189.7680  178.1120  141.8120 O   0  0  0  0  0  0  0  0  0  0  0  0
  190.7750  177.1260  142.0930 C   0  0  1  0  0  0  0  0  0  0  0  0
  187.6500  176.8360  136.6250 N   0  0  0  0  0  0  0  0  0  0  0  0
  188.7430  177.2560  138.7360 N   0  0  0  0  0  2  0  0  0  0  0  0
  189.1000  174.9380  136.9700 C   0  0  0  0  0  2  0  0  0  0  0  0
  187.6430  177.3590  137.8140 C   0  0  0  0  0  0  0  0  0  0  0  0
  188.7410  176.0750  136.0460 C   0  0  0  0  0  2  0  0  0  0  0  0
  190.1450  175.3990  137.9320 C   0  0  0  0  0  0  0  0  0  0  0  0
  189.9440  176.4610  138.7360 C   0  0  0  0  0  0  0  0  0  0  0  0
  186.4530  178.1430  138.2320 C   0  0  0  0  0  1  0  0  0  0  0  0
  193.7510  173.9870  137.5210 C   0  0  0  0  0  1  0  0  0  0  0  0
  191.3860  174.6790  138.0380 N   0  0  0  0  0  2  0  0  0  0  0  0
  192.7310  175.9080  136.5080 N   0  0  0  0  0  2  0  0  0  0  0  0
  192.5970  174.8970  137.3020 C   0  0  0  0  0  0  0  0  0  0  0  0
  1  2  1  6  0  0  0
  1 14  1  0  0  0  0
  3  2  1  0  0  0  0
  3  1  1  0  0  0  0
  4  9  1  0  0  0  0
  5 12  1  0  0  0  0
  5 11  1  0  0  0  0
  6 10  1  0  0  0  0
  7  6  2  0  0  0  0
  9  8  1  0  0  0  0
 10 11  1  0  0  0  0
 11  8  1  0  0  0  0
 12  9  1  0  0  0  0
 13  6  1  0  0  0  0
 13 14  1  0  0  0  0
 14  5  1  0  0  0  0
 14 12  1  0  0  0  0
 15 18  2  0  0  0  0
 17 20  1  0  0  0  0
 18 22  1  0  0  0  0
 18 16  1  0  0  0  0
 19 15  1  0  0  0  0
 19 17  1  0  0  0  0
 20 24  1  0  0  0  0
 20 21  2  0  0  0  0
 21 16  1  0  0  0  0
 21  3  1  0  0  0  0
 25 26  2  0  0  0  0
 26 23  1  0  0  0  0
 26 24  1  0  0  0  0
M  END
>  <MODEL>
3

>  <REMARK>
 VINA RESULT:      -7.2      3.928      6.381
  Name = 
  3 active torsions:
  status: ('A' for Active; 'I' for Inactive)
    1  A    between atoms: C_2  and  C_26
    2  A    between atoms: N_12  and  C_21
    3  A    between atoms: N_18  and  C_19
                            x       y       z     vdW  Elec       q    Type
                         _______ _______ _______ _____ _____    ______ ____

>  <TORSDO>
F 3

$$$$
=
 OpenBabel10232407533D

 26 30  0  0  1  0  0  0  0  0999 V2000
  189.3920  178.1360  138.8890 C   0  0  2  0  0  3  0  0  0  0  0  0
  189.5470  177.1110  139.7990 C   0  0  0  0  0  2  0  0  0  0  0  0
  188.3630  178.0060  139.9610 N   0  0  0  0  0  0  0  0  0  0  0  0
  189.5830  176.2210  135.0680 O   0  0  0  0  0  1  0  0  0  0  0  0
  188.0110  178.7290  136.8230 C   0  0  2  0  0  3  0  0  0  0  0  0
  186.9820  176.0190  137.1370 C   0  0  0  0  0  0  0  0  0  0  0  0
  186.5110  174.7930  137.3020 C   0  0  0  0  0  2  0  0  0  0  0  0
  187.6600  177.5930  134.6610 C   0  0  0  0  0  2  0  0  0  0  0  0
  189.1390  177.5410  134.9920 C   0  0  1  0  0  3  0  0  0  0  0  0
  186.1040  177.0870  136.5730 C   0  0  0  0  0  2  0  0  0  0  0  0
  186.9510  178.1550  135.8810 C   0  0  1  0  0  3  0  0  0  0  0  0
  189.3820  178.2880  136.3040 C   0  0  2  0  0  3  0  0  0  0  0  0
  188.3010  176.3110  137.4860 O   0  0  0  0  0  0  0  0  0  0  0  0
  188.7990  177.6560  137.5680 C   0  0  1  0  0  0  0  0  0  0  0  0
  184.0500  178.5770  141.0940 N   0  0  0  0  0  0  0  0  0  0  0  0
  186.0300  178.6880  139.7150 N   0  0  0  0  0  0  0  0  0  0  0  0
  185.8670  178.9740  142.6330 C   0  0  0  0  0  2  0  0  0  0  0  0
  184.6220  178.8590  139.9620 C   0  0  0  0  0  0  0  0  0  0  0  0
  184.7230  178.0590  142.2710 C   0  0  0  0  0  2  0  0  0  0  0  0
  187.1010  178.5200  141.9250 C   0  0  1  0  0  3  0  0  0  0  0  0
  187.1450  178.4110  140.5840 C   0  0  0  0  0  0  0  0  0  0  0  0
  183.7710  179.3450  138.8450 C   0  0  0  0  0  1  0  0  0  0  0  0
  189.8750  176.9400  144.1550 C   0  0  0  0  0  1  0  0  0  0  0  0
  188.2890  178.2240  142.6810 N   0  0  0  0  0  2  0  0  0  0  0  0
  187.8710  175.9590  143.2760 N   0  0  0  0  0  2  0  0  0  0  0  0
  188.6130  177.0120  143.3740 C   0  0  0  0  0  0  0  0  0  0  0  0
  1  2  1  1  0  0  0
  1  3  1  0  0  0  0
  2  3  1  0  0  0  0
  3 21  1  0  0  0  0
  5 14  1  0  0  0  0
  6  7  2  0  0  0  0
  6 13  1  0  0  0  0
  8  9  1  0  0  0  0
  8 11  1  0  0  0  0
  9  4  1  0  0  0  0
  9 12  1  0  0  0  0
 10  6  1  0  0  0  0
 11 10  1  0  0  0  0
 11  5  1  0  0  0  0
 12  5  1  0  0  0  0
 12 14  1  0  0  0  0
 13 14  1  0  0  0  0
 14  1  1  0  0  0  0
 15 19  1  0  0  0  0
 16 18  1  0  0  0  0
 16 21  2  0  0  0  0
 18 15  2  0  0  0  0
 19 17  1  0  0  0  0
 20 17  1  0  0  0  0
 20 24  1  0  0  0  0
 21 20  1  0  0  0  0
 22 18  1  0  0  0  0
 24 26  1  0  0  0  0
 25 26  2  0  0  0  0
 26 23  1  0  0  0  0
M  END
>  <MODEL>
4

>  <REMARK>
 VINA RESULT:      -7.2      3.503      6.531
  Name = 
  3 active torsions:
  status: ('A' for Active; 'I' for Inactive)
    1  A    between atoms: C_2  and  C_26
    2  A    between atoms: N_12  and  C_21
    3  A    between atoms: N_18  and  C_19
                            x       y       z     vdW  Elec       q    Type
                         _______ _______ _______ _____ _____    ______ ____

>  <TORSDO>
F 3

$$$$
=
 OpenBabel10232407533D

 26 30  0  0  1  0  0  0  0  0999 V2000
  187.2920  178.2210  144.0080 C   0  0  2  0  0  3  0  0  0  0  0  0
  186.3450  177.2230  143.9110 C   0  0  0  0  0  2  0  0  0  0  0  0
  186.5370  178.1120  142.7260 N   0  0  0  0  0  0  0  0  0  0  0  0
  190.5480  176.8120  141.6160 O   0  0  0  0  0  1  0  0  0  0  0  0
  189.0790  176.5380  144.7160 C   0  0  2  0  0  3  0  0  0  0  0  0
  190.8940  178.7780  144.2810 C   0  0  0  0  0  0  0  0  0  0  0  0
  191.7040  179.8080  144.0960 C   0  0  0  0  0  2  0  0  0  0  0  0
  191.2180  175.8410  143.7020 C   0  0  0  0  0  2  0  0  0  0  0  0
  190.1710  175.9060  142.6080 C   0  0  1  0  0  3  0  0  0  0  0  0
  191.2060  177.7620  145.3290 C   0  0  0  0  0  2  0  0  0  0  0  0
  190.5850  176.4150  144.9580 C   0  0  1  0  0  3  0  0  0  0  0  0
  188.8260  176.2860  143.2280 C   0  0  2  0  0  3  0  0  0  0  0  0
  189.7510  178.6410  143.4920 O   0  0  0  0  0  0  0  0  0  0  0  0
  188.7100  177.7000  143.7970 C   0  0  1  0  0  0  0  0  0  0  0  0
  186.3420  178.4230  138.2460 N   0  0  0  0  0  0  0  0  0  0  0  0
  187.3540  178.3640  140.4380 N   0  0  0  0  0  0  0  0  0  0  0  0
  184.7580  179.5200  139.7000 C   0  0  0  0  0  2  0  0  0  0  0  0
  187.4000  178.4130  139.0000 C   0  0  0  0  0  0  0  0  0  0  0  0
  184.9710  178.3940  138.7200 C   0  0  0  0  0  2  0  0  0  0  0  0
  185.0750  179.0390  141.0770 C   0  0  1  0  0  3  0  0  0  0  0  0
  186.2810  178.5230  141.3850 C   0  0  0  0  0  0  0  0  0  0  0  0
  188.7330  178.4080  138.3430 C   0  0  0  0  0  1  0  0  0  0  0  0
  181.8390  179.0580  143.2430 C   0  0  0  0  0  1  0  0  0  0  0  0
  184.0890  179.1550  142.1190 N   0  0  0  0  0  2  0  0  0  0  0  0
  182.2090  178.1650  141.0480 N   0  0  0  0  0  2  0  0  0  0  0  0
  182.7040  178.7880  142.0660 C   0  0  0  0  0  0  0  0  0  0  0  0
  1  2  1  1  0  0  0
  3  2  1  0  0  0  0
  3  1  1  0  0  0  0
  4  9  1  0  0  0  0
  5 11  1  0  0  0  0
  6 10  1  0  0  0  0
  7  6  2  0  0  0  0
  8 11  1  0  0  0  0
  9 12  1  0  0  0  0
  9  8  1  0  0  0  0
 11 10  1  0  0  0  0
 12 14  1  0  0  0  0
 12  5  1  0  0  0  0
 13 14  1  0  0  0  0
 13  6  1  0  0  0  0
 14  1  1  0  0  0  0
 14  5  1  0  0  0  0
 15 19  1  0  0  0  0
 15 18  2  0  0  0  0
 16 21  2  0  0  0  0
 17 20  1  0  0  0  0
 18 16  1  0  0  0  0
 19 17  1  0  0  0  0
 20 21  1  0  0  0  0
 20 24  1  0  0  0  0
 21  3  1  0  0  0  0
 22 18  1  0  0  0  0
 25 26  2  0  0  0  0
 26 24  1  0  0  0  0
 26 23  1  0  0  0  0
M  END
>  <MODEL>
5

>  <REMARK>
 VINA RESULT:      -7.1      1.603      3.538
  Name = 
  3 active torsions:
  status: ('A' for Active; 'I' for Inactive)
    1  A    between atoms: C_2  and  C_26
    2  A    between atoms: N_12  and  C_21
    3  A    between atoms: N_18  and  C_19
                            x       y       z     vdW  Elec       q    Type
                         _______ _______ _______ _____ _____    ______ ____

>  <TORSDO>
F 3

$$$$
=
 OpenBabel10232407533D

 26 30  0  0  1  0  0  0  0  0999 V2000
  187.5260  177.5870  144.5790 C   0  0  2  0  0  3  0  0  0  0  0  0
  187.0810  176.3500  144.1610 C   0  0  0  0  0  2  0  0  0  0  0  0
  186.9760  177.4860  143.1960 N   0  0  0  0  0  0  0  0  0  0  0  0
  191.1910  179.7900  144.4490 O   0  0  0  0  0  1  0  0  0  0  0  0
  189.6740  176.8900  143.3860 C   0  0  2  0  0  3  0  0  0  0  0  0
  190.7900  176.9150  146.0790 C   0  0  0  0  0  0  0  0  0  0  0  0
  191.2790  176.9140  147.3090 C   0  0  0  0  0  2  0  0  0  0  0  0
  191.9820  177.7610  143.4470 C   0  0  0  0  0  2  0  0  0  0  0  0
  191.0310  178.9390  143.3550 C   0  0  1  0  0  3  0  0  0  0  0  0
  191.3160  175.9530  145.0650 C   0  0  0  0  0  2  0  0  0  0  0  0
  191.1330  176.5190  143.6570 C   0  0  1  0  0  3  0  0  0  0  0  0
  189.5970  178.4140  143.2630 C   0  0  2  0  0  3  0  0  0  0  0  0
  189.7870  177.8190  145.7300 O   0  0  0  0  0  0  0  0  0  0  0  0
  189.0440  177.7140  144.5040 C   0  0  1  0  0  0  0  0  0  0  0  0
  186.7330  178.4160  138.8060 N   0  0  0  0  0  0  0  0  0  0  0  0
  187.7530  178.1530  140.9780 N   0  0  0  0  0  0  0  0  0  0  0  0
  185.0430  179.1130  140.3820 C   0  0  0  0  0  2  0  0  0  0  0  0
  187.7880  178.4130  139.5630 C   0  0  0  0  0  0  0  0  0  0  0  0
  185.3750  178.1690  139.2530 C   0  0  0  0  0  2  0  0  0  0  0  0
  185.4150  178.4750  141.6790 C   0  0  1  0  0  3  0  0  0  0  0  0
  186.6710  178.0550  141.9250 C   0  0  0  0  0  0  0  0  0  0  0  0
  189.1110  178.6490  138.9290 C   0  0  0  0  0  1  0  0  0  0  0  0
  183.1730  178.8070  144.8460 C   0  0  0  0  0  1  0  0  0  0  0  0
  184.4260  178.3320  142.7150 N   0  0  0  0  0  2  0  0  0  0  0  0
  184.8590  180.2870  144.0000 N   0  0  0  0  0  2  0  0  0  0  0  0
  184.2150  179.1770  143.8540 C   0  0  0  0  0  0  0  0  0  0  0  0
  1  2  1  1  0  0  0
  3  2  1  0  0  0  0
  3  1  1  0  0  0  0
  5 11  1  0  0  0  0
  5 14  1  0  0  0  0
  6  7  2  0  0  0  0
  8 11  1  0  0  0  0
  9  8  1  0  0  0  0
  9  4  1  0  0  0  0
 10  6  1  0  0  0  0
 11 10  1  0  0  0  0
 12  9  1  0  0  0  0
 12  5  1  0  0  0  0
 12 14  1  0  0  0  0
 13  6  1  0  0  0  0
 14  1  1  0  0  0  0
 14 13  1  0  0  0  0
 15 19  1  0  0  0  0
 15 18  2  0  0  0  0
 16 21  2  0  0  0  0
 17 20  1  0  0  0  0
 18 16  1  0  0  0  0
 19 17  1  0  0  0  0
 20 21  1  0  0  0  0
 20 24  1  0  0  0  0
 21  3  1  0  0  0  0
 22 18  1  0  0  0  0
 24 26  1  0  0  0  0
 26 25  2  0  0  0  0
 26 23  1  0  0  0  0
M  END
>  <MODEL>
6

>  <REMARK>
 VINA RESULT:      -7.1      1.712      4.042
  Name = 
  3 active torsions:
  status: ('A' for Active; 'I' for Inactive)
    1  A    between atoms: C_2  and  C_26
    2  A    between atoms: N_12  and  C_21
    3  A    between atoms: N_18  and  C_19
                            x       y       z     vdW  Elec       q    Type
                         _______ _______ _______ _____ _____    ______ ____

>  <TORSDO>
F 3

$$$$
=
 OpenBabel10232407533D

 26 30  0  0  1  0  0  0  0  0999 V2000
  187.8830  177.3150  142.0110 C   0  0  2  0  0  3  0  0  0  0  0  0
  187.3380  178.5750  141.8760 C   0  0  0  0  0  2  0  0  0  0  0  0
  187.2330  177.9150  143.2120 N   0  0  0  0  0  0  0  0  0  0  0  0
  191.8880  178.0540  140.6990 O   0  0  0  0  0  1  0  0  0  0  0  0
  189.9800  176.0610  142.7570 C   0  0  2  0  0  3  0  0  0  0  0  0
  190.7810  178.6720  143.7780 C   0  0  0  0  0  0  0  0  0  0  0  0
  191.1240  179.8600  144.2510 C   0  0  0  0  0  2  0  0  0  0  0  0
  192.3900  176.4990  142.4530 C   0  0  0  0  0  2  0  0  0  0  0  0
  191.6910  176.7410  141.1290 C   0  0  1  0  0  3  0  0  0  0  0  0
  191.2250  177.4310  144.4800 C   0  0  0  0  0  2  0  0  0  0  0  0
  191.3060  176.2670  143.4920 C   0  0  1  0  0  3  0  0  0  0  0  0
  190.2030  176.4230  141.2860 C   0  0  2  0  0  3  0  0  0  0  0  0
  190.0080  178.5810  142.6190 O   0  0  0  0  0  0  0  0  0  0  0  0
  189.3970  177.3530  142.1920 C   0  0  1  0  0  0  0  0  0  0  0  0
  187.1280  178.3840  147.6810 N   0  0  0  0  0  0  0  0  0  0  0  0
  187.9330  177.6260  145.5340 N   0  0  0  0  0  2  0  0  0  0  0  0
  185.1420  178.0060  146.3620 C   0  0  0  0  0  2  0  0  0  0  0  0
  188.0190  177.7680  146.9640 C   0  0  0  0  0  0  0  0  0  0  0  0
  185.9240  179.0110  147.1700 C   0  0  0  0  0  2  0  0  0  0  0  0
  185.5860  178.0690  144.9380 C   0  0  0  0  0  0  0  0  0  0  0  0
  186.8740  177.8790  144.5920 C   0  0  0  0  0  0  0  0  0  0  0  0
  189.2150  177.2140  147.6500 C   0  0  0  0  0  1  0  0  0  0  0  0
  182.4350  178.9420  142.8240 C   0  0  0  0  0  1  0  0  0  0  0  0
  184.6200  178.3010  143.8980 N   0  0  0  0  0  2  0  0  0  0  0  0
  182.8770  179.3300  145.1490 N   0  0  0  0  0  2  0  0  0  0  0  0
  183.3010  178.8500  144.0280 C   0  0  0  0  0  0  0  0  0  0  0  0
  1  2  1  6  0  0  0
  1 14  1  0  0  0  0
  1  3  1  0  0  0  0
  2  3  1  0  0  0  0
  3 21  1  0  0  0  0
  4  9  1  0  0  0  0
  5 11  1  0  0  0  0
  6  7  2  0  0  0  0
  6 10  1  0  0  0  0
  8 11  1  0  0  0  0
  9 12  1  0  0  0  0
  9  8  1  0  0  0  0
 11 10  1  0  0  0  0
 12 14  1  0  0  0  0
 12  5  1  0  0  0  0
 13  6  1  0  0  0  0
 14 13  1  0  0  0  0
 14  5  1  0  0  0  0
 16 18  1  0  0  0  0
 17 19  1  0  0  0  0
 18 22  1  0  0  0  0
 18 15  2  0  0  0  0
 19 15  1  0  0  0  0
 20 17  1  0  0  0  0
 21 20  2  0  0  0  0
 21 16  1  0  0  0  0
 23 26  1  0  0  0  0
 24 26  1  0  0  0  0
 24 20  1  0  0  0  0
 26 25  2  0  0  0  0
M  END
>  <MODEL>
7

>  <REMARK>
 VINA RESULT:      -7.0      1.936      2.737
  Name = 
  3 active torsions:
  status: ('A' for Active; 'I' for Inactive)
    1  A    between atoms: C_2  and  C_26
    2  A    between atoms: N_12  and  C_21
    3  A    between atoms: N_18  and  C_19
                            x       y       z     vdW  Elec       q    Type
                         _______ _______ _______ _____ _____    ______ ____

>  <TORSDO>
F 3

$$$$
=
 OpenBabel10232407533D

 26 30  0  0  1  0  0  0  0  0999 V2000
  185.1660  178.4440  142.0040 C   0  0  2  0  0  3  0  0  0  0  0  0
  185.8190  179.5920  142.4040 C   0  0  0  0  0  2  0  0  0  0  0  0
  186.6490  178.4790  141.8530 N   0  0  0  0  0  0  0  0  0  0  0  0
  183.3250  180.6680  138.8460 O   0  0  0  0  0  1  0  0  0  0  0  0
  183.4120  177.5780  140.3600 C   0  0  2  0  0  3  0  0  0  0  0  0
  185.4640  178.1610  138.3720 C   0  0  0  0  0  0  0  0  0  0  0  0
  186.4110  178.4130  137.4820 C   0  0  0  0  0  2  0  0  0  0  0  0
  182.4740  178.5010  138.2720 C   0  0  0  0  0  2  0  0  0  0  0  0
  182.5320  179.6140  139.3010 C   0  0  1  0  0  3  0  0  0  0  0  0
  184.5130  177.0310  138.1500 C   0  0  0  0  0  2  0  0  0  0  0  0
  183.1920  177.3040  138.8710 C   0  0  1  0  0  3  0  0  0  0  0  0
  183.0620  179.0460  140.6180 C   0  0  2  0  0  3  0  0  0  0  0  0
  185.3530  178.9530  139.5150 O   0  0  0  0  0  0  0  0  0  0  0  0
  184.5220  178.5910  140.6290 C   0  0  1  0  0  0  0  0  0  0  0  0
  190.6300  177.6630  139.9320 N   0  0  0  0  0  0  0  0  0  0  0  0
  188.2580  178.0980  140.0550 N   0  0  0  0  0  0  0  0  0  0  0  0
  189.8830  176.5190  141.9210 C   0  0  0  0  0  2  0  0  0  0  0  0
  189.4950  177.9020  139.3460 C   0  0  0  0  0  0  0  0  0  0  0  0
  190.8310  177.5520  141.3640 C   0  0  0  0  0  2  0  0  0  0  0  0
  188.6070  177.1860  142.3140 C   0  0  1  0  0  3  0  0  0  0  0  0
  187.8790  177.8940  141.4290 C   0  0  0  0  0  0  0  0  0  0  0  0
  189.4780  178.0220  137.8650 C   0  0  0  0  0  1  0  0  0  0  0  0
  188.0300  177.2650  146.1650 C   0  0  0  0  0  1  0  0  0  0  0  0
  188.1120  177.0460  143.6580 N   0  0  0  0  0  2  0  0  0  0  0  0
  189.6630  178.4130  144.8350 N   0  0  0  0  0  2  0  0  0  0  0  0
  188.6670  177.5900  144.8620 C   0  0  0  0  0  0  0  0  0  0  0  0
  1  2  1  1  0  0  0
  3  1  1  0  0  0  0
  3  2  1  0  0  0  0
  4  9  1  0  0  0  0
  5 12  1  0  0  0  0
  5 14  1  0  0  0  0
  6 13  1  0  0  0  0
  7  6  2  0  0  0  0
  8 11  1  0  0  0  0
  8  9  1  0  0  0  0
  9 12  1  0  0  0  0
 10  6  1  0  0  0  0
 10 11  1  0  0  0  0
 11  5  1  0  0  0  0
 12 14  1  0  0  0  0
 13 14  1  0  0  0  0
 14  1  1  0  0  0  0
 15 19  1  0  0  0  0
 16 21  2  0  0  0  0
 17 20  1  0  0  0  0
 18 15  2  0  0  0  0
 18 16  1  0  0  0  0
 19 17  1  0  0  0  0
 20 24  1  0  0  0  0
 21  3  1  0  0  0  0
 21 20  1  0  0  0  0
 22 18  1  0  0  0  0
 24 26  1  0  0  0  0
 25 26  2  0  0  0  0
 26 23  1  0  0  0  0
M  END
>  <MODEL>
8

>  <REMARK>
 VINA RESULT:      -6.8      2.870      7.322
  Name = 
  3 active torsions:
  status: ('A' for Active; 'I' for Inactive)
    1  A    between atoms: C_2  and  C_26
    2  A    between atoms: N_12  and  C_21
    3  A    between atoms: N_18  and  C_19
                            x       y       z     vdW  Elec       q    Type
                         _______ _______ _______ _____ _____    ______ ____

>  <TORSDO>
F 3

$$$$
=
 OpenBabel10232407533D

 26 30  0  0  1  0  0  0  0  0999 V2000
  187.7870  179.0430  141.8180 C   0  0  2  0  0  3  0  0  0  0  0  0
  186.5790  178.4050  141.6260 C   0  0  0  0  0  2  0  0  0  0  0  0
  187.5500  178.4050  140.4900 N   0  0  0  0  0  0  0  0  0  0  0  0
  190.8500  176.0820  142.2140 O   0  0  0  0  0  1  0  0  0  0  0  0
  188.1490  177.4920  143.8150 C   0  0  2  0  0  3  0  0  0  0  0  0
  190.7050  178.8810  144.0120 C   0  0  0  0  0  0  0  0  0  0  0  0
  191.8550  179.5320  144.0990 C   0  0  0  0  0  2  0  0  0  0  0  0
  189.9980  175.9880  144.4530 C   0  0  0  0  0  2  0  0  0  0  0  0
  189.7160  175.7960  142.9760 C   0  0  1  0  0  3  0  0  0  0  0  0
  190.0370  178.3750  145.2480 C   0  0  0  0  0  2  0  0  0  0  0  0
  189.1600  177.1670  144.9160 C   0  0  1  0  0  3  0  0  0  0  0  0
  188.5370  176.6830  142.5750 C   0  0  2  0  0  3  0  0  0  0  0  0
  190.1210  178.6650  142.7630 O   0  0  0  0  0  0  0  0  0  0  0  0
  188.7730  178.1930  142.6110 C   0  0  1  0  0  0  0  0  0  0  0  0
  189.3910  176.3240  136.9570 N   0  0  0  0  0  0  0  0  0  0  0  0
  189.3150  177.4980  139.0660 N   0  0  0  0  0  2  0  0  0  0  0  0
  187.5580  177.8800  136.7450 C   0  0  0  0  0  2  0  0  0  0  0  0
  189.9920  176.7950  138.0080 C   0  0  0  0  0  0  0  0  0  0  0  0
  187.9710  176.4300  136.6810 C   0  0  0  0  0  2  0  0  0  0  0  0
  187.1490  178.2130  138.1420 C   0  0  0  0  0  0  0  0  0  0  0  0
  187.9840  178.0350  139.1830 C   0  0  0  0  0  0  0  0  0  0  0  0
  191.4530  176.5610  138.1480 C   0  0  0  0  0  1  0  0  0  0  0  0
  183.3350  178.9180  138.4930 C   0  0  0  0  0  1  0  0  0  0  0  0
  185.8460  178.7720  138.3900 N   0  0  0  0  0  2  0  0  0  0  0  0
  184.4750  176.8710  137.9780 N   0  0  0  0  0  2  0  0  0  0  0  0
  184.5710  178.1310  138.2460 C   0  0  0  0  0  0  0  0  0  0  0  0
  1  2  1  1  0  0  0
  1 14  1  0  0  0  0
  3  2  1  0  0  0  0
  3  1  1  0  0  0  0
  4  9  1  0  0  0  0
  5 11  1  0  0  0  0
  6  7  2  0  0  0  0
  6 10  1  0  0  0  0
  8 11  1  0  0  0  0
  9  8  1  0  0  0  0
 11 10  1  0  0  0  0
 12 14  1  0  0  0  0
 12  9  1  0  0  0  0
 12  5  1  0  0  0  0
 13  6  1  0  0  0  0
 14 13  1  0  0  0  0
 14  5  1  0  0  0  0
 15 18  2  0  0  0  0
 16 21  1  0  0  0  0
 17 20  1  0  0  0  0
 18 22  1  0  0  0  0
 18 16  1  0  0  0  0
 19 17  1  0  0  0  0
 19 15  1  0  0  0  0
 20 24  1  0  0  0  0
 20 21  2  0  0  0  0
 21  3  1  0  0  0  0
 25 26  2  0  0  0  0
 26 24  1  0  0  0  0
 26 23  1  0  0  0  0
M  END
>  <MODEL>
9

>  <REMARK>
 VINA RESULT:      -6.8      2.516      4.587
  Name = 
  3 active torsions:
  status: ('A' for Active; 'I' for Inactive)
    1  A    between atoms: C_2  and  C_26
    2  A    between atoms: N_12  and  C_21
    3  A    between atoms: N_18  and  C_19
                            x       y       z     vdW  Elec       q    Type
                         _______ _______ _______ _____ _____    ______ ____

>  <TORSDO>
F 3

$$$$
