=
 OpenBabel10232407523D

 26 31  0  0  1  0  0  0  0  0999 V2000
  189.6520  177.4080  141.5310 N   0  0  0  0  0  0  0  0  0  0  0  0
  191.0930  178.7190  143.1830 C   0  0  0  0  0  2  0  0  0  0  0  0
  190.6260  177.3750  142.6460 C   0  0  0  0  0  0  0  0  0  0  0  0
  192.0370  177.8590  142.3450 C   0  0  0  0  0  2  0  0  0  0  0  0
  191.5530  176.0200  145.2600 C   0  0  2  0  0  0  0  0  0  0  0  0
  189.5080  177.1950  145.9190 C   0  0  0  0  0  3  0  0  0  0  0  0
  191.3170  176.6170  147.5260 C   0  0  0  0  0  3  0  0  0  0  0  0
  190.5340  176.1790  143.6170 C   0  0  1  0  0  0  0  0  0  0  0  0
  192.1100  176.0030  146.5250 C   0  0  0  0  0  3  0  0  0  0  0  0
  190.3100  176.5920  144.9690 C   0  0  0  0  0  0  0  0  0  0  0  0
  190.0450  177.2000  147.2300 C   0  0  0  0  0  2  0  0  0  0  0  0
  191.7800  175.6290  143.9020 O   0  0  0  0  0  0  0  0  0  0  0  0
  190.2110  177.4570  140.1650 C   0  0  0  0  0  2  0  0  0  0  0  0
  189.1970  177.7230  139.0880 C   0  0  0  0  0  0  0  0  0  0  0  0
  188.4540  176.7930  138.6760 O   0  0  0  0  0  0  0  0  0  0  0  0
  189.0510  179.0310  138.5480 N   0  0  0  0  0  1  0  0  0  0  0  0
  188.6280  178.4300  141.7500 C   0  0  0  0  0  2  0  0  0  0  0  0
  187.3970  177.8150  142.4040 C   0  0  0  0  0  2  0  0  0  0  0  0
  187.2640  178.2480  143.8580 C   0  0  0  0  0  2  0  0  0  0  0  0
  182.5050  178.7280  144.5730 O   0  0  0  0  0  1  0  0  0  0  0  0
  185.8680  178.1480  145.9290 C   0  0  0  0  0  2  0  0  0  0  0  0
  185.9530  177.7590  144.4620 C   0  0  1  0  0  3  0  0  0  0  0  0
  183.8640  178.9220  144.8070 C   0  0  1  0  0  0  0  0  0  0  0  0
  184.4380  178.5880  146.1690 C   0  0  0  0  0  2  0  0  0  0  0  0
  184.7310  178.3180  143.7310 C   0  0  1  0  0  3  0  0  0  0  0  0
  184.6010  179.8390  143.8600 C   0  0  0  0  0  2  0  0  0  0  0  0
  1 17  1  0  0  0  0
  1  3  1  0  0  0  0
  3  2  1  0  0  0  0
  4  3  1  0  0  0  0
  4  2  1  0  0  0  0
  5  9  1  1  0  0  0
  6 11  1  0  0  0  0
  8  3  1  6  0  0  0
  8 12  1  0  0  0  0
  8 10  1  0  0  0  0
  8  5  1  0  0  0  0
  9  7  2  0  0  0  0
 10  5  1  0  0  0  0
 10  6  2  0  0  0  0
 11  7  1  0  0  0  0
 12  5  1  0  0  0  0
 13  1  1  0  0  0  0
 14 13  1  0  0  0  0
 15 14  2  0  0  0  0
 16 14  1  0  0  0  0
 17 18  1  0  0  0  0
 18 19  1  0  0  0  0
 21 24  1  0  0  0  0
 22 19  1  6  0  0  0
 22 21  1  0  0  0  0
 23 20  1  6  0  0  0
 23 24  1  0  0  0  0
 25 26  1  6  0  0  0
 25 22  1  0  0  0  0
 25 23  1  0  0  0  0
 26 23  1  0  0  0  0
M  END
>  <MODEL>
1

>  <REMARK>
 VINA RESULT:      -8.0      0.000      0.000
  Name = 
  8 active torsions:
  status: ('A' for Active; 'I' for Inactive)
    1  A    between atoms: C_5  and  C_8
    2  A    between atoms: C_6  and  N_9
    3  A    between atoms: C_6  and  C_11
    4  A    between atoms: C_7  and  C_8
    5  A    between atoms: C_7  and  C_18
    6  A    between atoms: N_9  and  C_12
    7  A    between atoms: N_9  and  C_18
    8  A    between atoms: C_12  and  C_16
                            x       y       z     vdW  Elec       q    Type
                         _______ _______ _______ _____ _____    ______ ____

>  <TORSDO>
F 8

$$$$
=
 OpenBabel10232407523D

 26 31  0  0  1  0  0  0  0  0999 V2000
  189.5640  177.3350  142.5790 N   0  0  0  0  0  0  0  0  0  0  0  0
  190.5180  179.1380  144.1160 C   0  0  0  0  0  2  0  0  0  0  0  0
  190.1980  177.6710  143.8750 C   0  0  0  0  0  0  0  0  0  0  0  0
  191.6440  178.1440  143.8360 C   0  0  0  0  0  2  0  0  0  0  0  0
  189.6010  177.4350  146.8940 C   0  0  2  0  0  0  0  0  0  0  0  0
  187.3780  177.6370  145.8860 C   0  0  0  0  0  3  0  0  0  0  0  0
  187.8640  178.2840  148.2390 C   0  0  0  0  0  3  0  0  0  0  0  0
  189.8290  176.7820  145.0820 C   0  0  1  0  0  0  0  0  0  0  0  0
  189.2310  177.9230  148.1330 C   0  0  0  0  0  3  0  0  0  0  0  0
  188.7170  177.3000  145.8190 C   0  0  0  0  0  0  0  0  0  0  0  0
  186.9590  178.1450  147.1410 C   0  0  0  0  0  2  0  0  0  0  0  0
  190.7150  176.9370  146.1450 O   0  0  0  0  0  0  0  0  0  0  0  0
  190.3210  176.4320  141.6870 C   0  0  0  0  0  2  0  0  0  0  0  0
  190.9270  177.1080  140.4890 C   0  0  0  0  0  0  0  0  0  0  0  0
  192.0300  177.7060  140.5920 O   0  0  0  0  0  0  0  0  0  0  0  0
  190.2730  177.0500  139.2260 N   0  0  0  0  0  1  0  0  0  0  0  0
  189.0970  178.5370  141.8880 C   0  0  0  0  0  2  0  0  0  0  0  0
  187.6820  178.3310  141.3660 C   0  0  0  0  0  2  0  0  0  0  0  0
  186.6770  178.2280  142.5060 C   0  0  0  0  0  2  0  0  0  0  0  0
  182.3890  180.0130  143.8550 O   0  0  0  0  0  1  0  0  0  0  0  0
  184.4410  178.2240  141.3890 C   0  0  0  0  0  2  0  0  0  0  0  0
  185.4220  179.0420  142.2120 C   0  0  1  0  0  3  0  0  0  0  0  0
  183.2870  179.0800  143.3410 C   0  0  1  0  0  0  0  0  0  0  0  0
  183.0650  178.5230  141.9500 C   0  0  0  0  0  2  0  0  0  0  0  0
  184.7230  179.5150  143.4890 C   0  0  1  0  0  3  0  0  0  0  0  0
  184.1720  178.3610  144.3310 C   0  0  0  0  0  2  0  0  0  0  0  0
  1  3  1  0  0  0  0
  3  2  1  0  0  0  0
  4  3  1  0  0  0  0
  4  2  1  0  0  0  0
  5  9  1  1  0  0  0
  6 11  1  0  0  0  0
  8  3  1  6  0  0  0
  8 10  1  0  0  0  0
  8 12  1  0  0  0  0
  8  5  1  0  0  0  0
  9  7  2  0  0  0  0
 10  6  2  0  0  0  0
 10  5  1  0  0  0  0
 11  7  1  0  0  0  0
 12  5  1  0  0  0  0
 13  1  1  0  0  0  0
 14 15  2  0  0  0  0
 14 13  1  0  0  0  0
 16 14  1  0  0  0  0
 17  1  1  0  0  0  0
 18 17  1  0  0  0  0
 18 19  1  0  0  0  0
 21 24  1  0  0  0  0
 21 22  1  0  0  0  0
 22 19  1  1  0  0  0
 22 25  1  0  0  0  0
 23 25  1  0  0  0  0
 23 20  1  1  0  0  0
 23 26  1  0  0  0  0
 24 23  1  0  0  0  0
 25 26  1  1  0  0  0
M  END
>  <MODEL>
2

>  <REMARK>
 VINA RESULT:      -7.9      1.745      2.547
  Name = 
  8 active torsions:
  status: ('A' for Active; 'I' for Inactive)
    1  A    between atoms: C_5  and  C_8
    2  A    between atoms: C_6  and  N_9
    3  A    between atoms: C_6  and  C_11
    4  A    between atoms: C_7  and  C_8
    5  A    between atoms: C_7  and  C_18
    6  A    between atoms: N_9  and  C_12
    7  A    between atoms: N_9  and  C_18
    8  A    between atoms: C_12  and  C_16
                            x       y       z     vdW  Elec       q    Type
                         _______ _______ _______ _____ _____    ______ ____

>  <TORSDO>
F 8

$$$$
=
 OpenBabel10232407523D

 26 31  0  0  1  0  0  0  0  0999 V2000
  189.5210  177.4410  141.5880 N   0  0  0  0  0  0  0  0  0  0  0  0
  190.8320  178.8300  143.2850 C   0  0  0  0  0  2  0  0  0  0  0  0
  190.4690  177.4630  142.7260 C   0  0  0  0  0  0  0  0  0  0  0  0
  191.8510  178.0440  142.4630 C   0  0  0  0  0  2  0  0  0  0  0  0
  191.4800  176.1170  145.3130 C   0  0  2  0  0  0  0  0  0  0  0  0
  189.3990  177.2040  146.0100 C   0  0  0  0  0  3  0  0  0  0  0  0
  191.2490  176.6800  147.5880 C   0  0  0  0  0  3  0  0  0  0  0  0
  190.4360  176.2540  143.6840 C   0  0  1  0  0  0  0  0  0  0  0  0
  192.0530  176.1080  146.5710 C   0  0  0  0  0  3  0  0  0  0  0  0
  190.2120  176.6430  145.0440 C   0  0  0  0  0  0  0  0  0  0  0  0
  189.9530  177.2150  147.3150 C   0  0  0  0  0  2  0  0  0  0  0  0
  191.7060  175.7500  143.9480 O   0  0  0  0  0  0  0  0  0  0  0  0
  190.0980  177.6370  140.2430 C   0  0  0  0  0  2  0  0  0  0  0  0
  189.0810  177.8380  139.1540 C   0  0  0  0  0  0  0  0  0  0  0  0
  188.3180  176.8940  138.8210 O   0  0  0  0  0  0  0  0  0  0  0  0
  188.9550  179.1040  138.5160 N   0  0  0  0  0  1  0  0  0  0  0  0
  188.3750  178.3160  141.8350 C   0  0  0  0  0  2  0  0  0  0  0  0
  187.4140  177.6640  142.8210 C   0  0  0  0  0  2  0  0  0  0  0  0
  185.9700  178.0470  142.5280 C   0  0  0  0  0  2  0  0  0  0  0  0
  185.2540  179.2450  147.1590 O   0  0  0  0  0  1  0  0  0  0  0  0
  183.9280  178.7870  143.7640 C   0  0  0  0  0  2  0  0  0  0  0  0
  185.4230  178.9950  143.5870 C   0  0  1  0  0  3  0  0  0  0  0  0
  184.9910  178.6310  145.9360 C   0  0  1  0  0  0  0  0  0  0  0  0
  183.6610  178.8720  145.2540 C   0  0  0  0  0  2  0  0  0  0  0  0
  186.1110  178.8140  144.9430 C   0  0  1  0  0  3  0  0  0  0  0  0
  185.8460  177.4410  145.5680 C   0  0  0  0  0  2  0  0  0  0  0  0
  1 17  1  0  0  0  0
  1  3  1  0  0  0  0
  3  2  1  0  0  0  0
  4  3  1  0  0  0  0
  4  2  1  0  0  0  0
  5  9  1  1  0  0  0
  6 11  1  0  0  0  0
  8  3  1  6  0  0  0
  8 12  1  0  0  0  0
  8 10  1  0  0  0  0
  8  5  1  0  0  0  0
  9  7  2  0  0  0  0
 10  5  1  0  0  0  0
 10  6  2  0  0  0  0
 11  7  1  0  0  0  0
 12  5  1  0  0  0  0
 13  1  1  0  0  0  0
 14 13  1  0  0  0  0
 15 14  2  0  0  0  0
 16 14  1  0  0  0  0
 17 18  1  0  0  0  0
 19 18  1  0  0  0  0
 21 24  1  0  0  0  0
 22 19  1  6  0  0  0
 22 21  1  0  0  0  0
 22 25  1  0  0  0  0
 23 20  1  1  0  0  0
 24 23  1  0  0  0  0
 25 26  1  6  0  0  0
 25 23  1  0  0  0  0
 26 23  1  0  0  0  0
M  END
>  <MODEL>
3

>  <REMARK>
 VINA RESULT:      -7.9      0.917      1.362
  Name = 
  8 active torsions:
  status: ('A' for Active; 'I' for Inactive)
    1  A    between atoms: C_5  and  C_8
    2  A    between atoms: C_6  and  N_9
    3  A    between atoms: C_6  and  C_11
    4  A    between atoms: C_7  and  C_8
    5  A    between atoms: C_7  and  C_18
    6  A    between atoms: N_9  and  C_12
    7  A    between atoms: N_9  and  C_18
    8  A    between atoms: C_12  and  C_16
                            x       y       z     vdW  Elec       q    Type
                         _______ _______ _______ _____ _____    ______ ____

>  <TORSDO>
F 8

$$$$
=
 OpenBabel10232407523D

 26 31  0  0  1  0  0  0  0  0999 V2000
  188.5270  177.8190  140.4910 N   0  0  0  0  0  0  0  0  0  0  0  0
  191.0530  177.7510  140.8680 C   0  0  0  0  0  2  0  0  0  0  0  0
  189.6890  177.1080  141.0720 C   0  0  0  0  0  0  0  0  0  0  0  0
  190.6790  176.4870  140.0960 C   0  0  0  0  0  2  0  0  0  0  0  0
  190.7570  176.0070  143.7510 C   0  0  2  0  0  0  0  0  0  0  0  0
  189.6330  178.0860  144.3940 C   0  0  0  0  0  3  0  0  0  0  0  0
  191.4670  177.0670  145.7310 C   0  0  0  0  0  3  0  0  0  0  0  0
  189.4360  176.2950  142.3590 C   0  0  1  0  0  0  0  0  0  0  0  0
  191.6170  175.9800  144.8330 C   0  0  0  0  0  3  0  0  0  0  0  0
  189.8090  177.0140  143.5390 C   0  0  0  0  0  0  0  0  0  0  0  0
  190.4980  178.0960  145.5170 C   0  0  0  0  0  2  0  0  0  0  0  0
  190.3940  175.3040  142.5580 O   0  0  0  0  0  0  0  0  0  0  0  0
  188.7150  178.4070  139.1480 C   0  0  0  0  0  2  0  0  0  0  0  0
  187.7860  177.8660  138.0980 C   0  0  0  0  0  0  0  0  0  0  0  0
  188.0470  176.7770  137.5240 O   0  0  0  0  0  0  0  0  0  0  0  0
  186.5920  178.5660  137.7680 N   0  0  0  0  0  1  0  0  0  0  0  0
  187.9580  178.7730  141.4420 C   0  0  0  0  0  2  0  0  0  0  0  0
  186.4370  178.6960  141.4230 C   0  0  0  0  0  2  0  0  0  0  0  0
  185.9010  177.9580  142.6430 C   0  0  0  0  0  2  0  0  0  0  0  0
  185.4870  179.4080  147.2380 O   0  0  0  0  0  1  0  0  0  0  0  0
  183.9180  178.6210  144.0120 C   0  0  0  0  0  2  0  0  0  0  0  0
  185.3700  178.9320  143.6880 C   0  0  1  0  0  3  0  0  0  0  0  0
  185.1720  178.6950  146.0840 C   0  0  1  0  0  0  0  0  0  0  0  0
  183.7730  178.7860  145.5120 C   0  0  0  0  0  2  0  0  0  0  0  0
  186.1840  178.8960  144.9840 C   0  0  1  0  0  3  0  0  0  0  0  0
  186.0880  177.5520  145.7130 C   0  0  0  0  0  2  0  0  0  0  0  0
  1  3  1  0  0  0  0
  1 17  1  0  0  0  0
  2  3  1  0  0  0  0
  4  2  1  0  0  0  0
  4  3  1  0  0  0  0
  5  9  1  1  0  0  0
  6 11  1  0  0  0  0
  8  3  1  6  0  0  0
  8 12  1  0  0  0  0
  8 10  1  0  0  0  0
  8  5  1  0  0  0  0
  9  7  2  0  0  0  0
 10  5  1  0  0  0  0
 10  6  2  0  0  0  0
 11  7  1  0  0  0  0
 12  5  1  0  0  0  0
 13  1  1  0  0  0  0
 14 13  1  0  0  0  0
 15 14  2  0  0  0  0
 16 14  1  0  0  0  0
 18 17  1  0  0  0  0
 18 19  1  0  0  0  0
 21 24  1  0  0  0  0
 22 19  1  6  0  0  0
 22 21  1  0  0  0  0
 22 25  1  0  0  0  0
 23 20  1  1  0  0  0
 24 23  1  0  0  0  0
 25 26  1  6  0  0  0
 25 23  1  0  0  0  0
 26 23  1  0  0  0  0
M  END
>  <MODEL>
4

>  <REMARK>
 VINA RESULT:      -7.7      1.585      2.100
  Name = 
  8 active torsions:
  status: ('A' for Active; 'I' for Inactive)
    1  A    between atoms: C_5  and  C_8
    2  A    between atoms: C_6  and  N_9
    3  A    between atoms: C_6  and  C_11
    4  A    between atoms: C_7  and  C_8
    5  A    between atoms: C_7  and  C_18
    6  A    between atoms: N_9  and  C_12
    7  A    between atoms: N_9  and  C_18
    8  A    between atoms: C_12  and  C_16
                            x       y       z     vdW  Elec       q    Type
                         _______ _______ _______ _____ _____    ______ ____

>  <TORSDO>
F 8

$$$$
=
 OpenBabel10232407523D

 26 31  0  0  1  0  0  0  0  0999 V2000
  189.7910  177.5140  142.2470 N   0  0  0  0  0  0  0  0  0  0  0  0
  190.4880  179.1990  144.0360 C   0  0  0  0  0  2  0  0  0  0  0  0
  190.2260  177.7530  143.6430 C   0  0  0  0  0  0  0  0  0  0  0  0
  191.6560  178.2320  143.8490 C   0  0  0  0  0  2  0  0  0  0  0  0
  189.3910  177.2460  146.5710 C   0  0  2  0  0  0  0  0  0  0  0  0
  187.2720  177.7530  145.4520 C   0  0  0  0  0  3  0  0  0  0  0  0
  187.6350  178.0960  147.8890 C   0  0  0  0  0  3  0  0  0  0  0  0
  189.6990  176.7750  144.7140 C   0  0  1  0  0  0  0  0  0  0  0  0
  188.9720  177.6290  147.8310 C   0  0  0  0  0  3  0  0  0  0  0  0
  188.5800  177.3070  145.4330 C   0  0  0  0  0  0  0  0  0  0  0  0
  186.8050  178.1570  146.7270 C   0  0  0  0  0  2  0  0  0  0  0  0
  190.5130  176.7350  145.8420 O   0  0  0  0  0  0  0  0  0  0  0  0
  190.8590  177.3820  141.2350 C   0  0  0  0  0  2  0  0  0  0  0  0
  190.3630  177.1730  139.8320 C   0  0  0  0  0  0  0  0  0  0  0  0
  189.8520  178.1300  139.1930 O   0  0  0  0  0  0  0  0  0  0  0  0
  190.4940  175.9020  139.2070 N   0  0  0  0  0  1  0  0  0  0  0  0
  188.7550  178.4640  141.8430 C   0  0  0  0  0  2  0  0  0  0  0  0
  187.3820  177.8080  141.9050 C   0  0  0  0  0  2  0  0  0  0  0  0
  186.2820  178.8380  142.1250 C   0  0  0  0  0  2  0  0  0  0  0  0
  181.7540  177.7470  140.8200 O   0  0  0  0  0  1  0  0  0  0  0  0
  184.1040  179.0220  143.3370 C   0  0  0  0  0  2  0  0  0  0  0  0
  184.9430  178.1660  142.4020 C   0  0  1  0  0  3  0  0  0  0  0  0
  182.7830  178.5050  141.3730 C   0  0  1  0  0  0  0  0  0  0  0  0
  182.6830  178.9530  142.8160 C   0  0  0  0  0  2  0  0  0  0  0  0
  184.1450  177.9080  141.1220 C   0  0  1  0  0  3  0  0  0  0  0  0
  183.7210  179.1960  140.4100 C   0  0  0  0  0  2  0  0  0  0  0  0
  1  3  1  0  0  0  0
  3  4  1  0  0  0  0
  3  2  1  0  0  0  0
  4  2  1  0  0  0  0
  5  9  1  1  0  0  0
  6 11  1  0  0  0  0
  8  3  1  6  0  0  0
  8 10  1  0  0  0  0
  8 12  1  0  0  0  0
  8  5  1  0  0  0  0
  9  7  2  0  0  0  0
 10  6  2  0  0  0  0
 10  5  1  0  0  0  0
 11  7  1  0  0  0  0
 12  5  1  0  0  0  0
 13  1  1  0  0  0  0
 14 13  1  0  0  0  0
 15 14  2  0  0  0  0
 16 14  1  0  0  0  0
 17 18  1  0  0  0  0
 17  1  1  0  0  0  0
 18 19  1  0  0  0  0
 22 19  1  6  0  0  0
 22 21  1  0  0  0  0
 23 20  1  6  0  0  0
 23 24  1  0  0  0  0
 24 21  1  0  0  0  0
 25 26  1  6  0  0  0
 25 23  1  0  0  0  0
 25 22  1  0  0  0  0
 26 23  1  0  0  0  0
M  END
>  <MODEL>
5

>  <REMARK>
 VINA RESULT:      -7.6      1.917      2.615
  Name = 
  8 active torsions:
  status: ('A' for Active; 'I' for Inactive)
    1  A    between atoms: C_5  and  C_8
    2  A    between atoms: C_6  and  N_9
    3  A    between atoms: C_6  and  C_11
    4  A    between atoms: C_7  and  C_8
    5  A    between atoms: C_7  and  C_18
    6  A    between atoms: N_9  and  C_12
    7  A    between atoms: N_9  and  C_18
    8  A    between atoms: C_12  and  C_16
                            x       y       z     vdW  Elec       q    Type
                         _______ _______ _______ _____ _____    ______ ____

>  <TORSDO>
F 8

$$$$
=
 OpenBabel10232407523D

 26 31  0  0  1  0  0  0  0  0999 V2000
  188.8300  177.6430  141.5570 N   0  0  0  0  0  0  0  0  0  0  0  0
  189.8240  175.5960  142.7170 C   0  0  0  0  0  2  0  0  0  0  0  0
  189.2980  177.0200  142.8160 C   0  0  0  0  0  0  0  0  0  0  0  0
  188.4690  175.8690  143.3680 C   0  0  0  0  0  2  0  0  0  0  0  0
  189.7570  177.6920  145.7940 C   0  0  2  0  0  0  0  0  0  0  0  0
  191.7950  176.4900  145.1570 C   0  0  0  0  0  3  0  0  0  0  0  0
  190.9610  176.5990  147.4980 C   0  0  0  0  0  3  0  0  0  0  0  0
  189.9020  177.9630  143.8780 C   0  0  1  0  0  0  0  0  0  0  0  0
  189.8410  177.3910  147.1400 C   0  0  0  0  0  3  0  0  0  0  0  0
  190.6900  177.2600  144.8440 C   0  0  0  0  0  0  0  0  0  0  0  0
  191.9150  176.1590  146.5300 C   0  0  0  0  0  2  0  0  0  0  0  0
  188.9620  178.3740  144.8190 O   0  0  0  0  0  0  0  0  0  0  0  0
  189.8330  177.8000  140.4830 C   0  0  0  0  0  2  0  0  0  0  0  0
  189.6350  176.8810  139.3100 C   0  0  0  0  0  0  0  0  0  0  0  0
  188.6130  176.9940  138.5840 O   0  0  0  0  0  0  0  0  0  0  0  0
  190.6150  175.8980  138.9960 N   0  0  0  0  0  1  0  0  0  0  0  0
  188.0960  178.8820  141.8180 C   0  0  0  0  0  2  0  0  0  0  0  0
  186.6440  178.7390  141.3820 C   0  0  0  0  0  2  0  0  0  0  0  0
  185.8160  178.0120  142.4330 C   0  0  0  0  0  2  0  0  0  0  0  0
  185.2280  179.3410  147.0460 O   0  0  0  0  0  1  0  0  0  0  0  0
  183.7980  178.7340  143.7180 C   0  0  0  0  0  2  0  0  0  0  0  0
  185.2790  178.9790  143.4800 C   0  0  1  0  0  3  0  0  0  0  0  0
  184.9410  178.6800  145.8540 C   0  0  1  0  0  0  0  0  0  0  0  0
  183.5810  178.8610  145.2120 C   0  0  0  0  0  2  0  0  0  0  0  0
  186.0190  178.8610  144.8150 C   0  0  1  0  0  3  0  0  0  0  0  0
  185.8170  177.5030  145.4930 C   0  0  0  0  0  2  0  0  0  0  0  0
  1 17  1  0  0  0  0
  1  3  1  0  0  0  0
  2  3  1  0  0  0  0
  2  4  1  0  0  0  0
  3  4  1  0  0  0  0
  5  9  1  1  0  0  0
  6 11  1  0  0  0  0
  8  3  1  6  0  0  0
  8 12  1  0  0  0  0
  8 10  1  0  0  0  0
  8  5  1  0  0  0  0
  9  7  2  0  0  0  0
 10  6  2  0  0  0  0
 10  5  1  0  0  0  0
 11  7  1  0  0  0  0
 12  5  1  0  0  0  0
 13  1  1  0  0  0  0
 14 13  1  0  0  0  0
 15 14  2  0  0  0  0
 16 14  1  0  0  0  0
 18 17  1  0  0  0  0
 18 19  1  0  0  0  0
 21 24  1  0  0  0  0
 22 19  1  6  0  0  0
 22 21  1  0  0  0  0
 22 25  1  0  0  0  0
 23 20  1  1  0  0  0
 24 23  1  0  0  0  0
 25 26  1  6  0  0  0
 25 23  1  0  0  0  0
 26 23  1  0  0  0  0
M  END
>  <MODEL>
6

>  <REMARK>
 VINA RESULT:      -7.6      1.613      2.336
  Name = 
  8 active torsions:
  status: ('A' for Active; 'I' for Inactive)
    1  A    between atoms: C_5  and  C_8
    2  A    between atoms: C_6  and  N_9
    3  A    between atoms: C_6  and  C_11
    4  A    between atoms: C_7  and  C_8
    5  A    between atoms: C_7  and  C_18
    6  A    between atoms: N_9  and  C_12
    7  A    between atoms: N_9  and  C_18
    8  A    between atoms: C_12  and  C_16
                            x       y       z     vdW  Elec       q    Type
                         _______ _______ _______ _____ _____    ______ ____

>  <TORSDO>
F 8

$$$$
=
 OpenBabel10232407523D

 26 31  0  0  1  0  0  0  0  0999 V2000
  189.6440  177.4530  142.4870 N   0  0  0  0  0  0  0  0  0  0  0  0
  190.4800  179.1970  144.1560 C   0  0  0  0  0  2  0  0  0  0  0  0
  190.2200  177.7360  143.8220 C   0  0  0  0  0  0  0  0  0  0  0  0
  191.6490  178.2590  143.8610 C   0  0  0  0  0  2  0  0  0  0  0  0
  189.7380  177.2690  146.8350 C   0  0  2  0  0  0  0  0  0  0  0  0
  187.4930  177.7050  145.9570 C   0  0  0  0  0  3  0  0  0  0  0  0
  188.1220  178.1050  148.3300 C   0  0  0  0  0  3  0  0  0  0  0  0
  189.8430  176.7680  144.9640 C   0  0  1  0  0  0  0  0  0  0  0  0
  189.4540  177.6670  148.1280 C   0  0  0  0  0  3  0  0  0  0  0  0
  188.8010  177.2880  145.7960 C   0  0  0  0  0  0  0  0  0  0  0  0
  187.1630  178.1240  147.2700 C   0  0  0  0  0  2  0  0  0  0  0  0
  190.7810  176.7690  145.9920 O   0  0  0  0  0  0  0  0  0  0  0  0
  188.2330  177.0150  142.4560 C   0  0  0  0  0  2  0  0  0  0  0  0
  187.2440  178.1230  142.2190 C   0  0  0  0  0  0  0  0  0  0  0  0
  187.5660  179.1170  141.5180 O   0  0  0  0  0  0  0  0  0  0  0  0
  185.9310  178.0390  142.7620 N   0  0  0  0  0  1  0  0  0  0  0  0
  190.5160  176.5750  141.7070 C   0  0  0  0  0  2  0  0  0  0  0  0
  190.9890  177.2850  140.4450 C   0  0  0  0  0  2  0  0  0  0  0  0
  190.5070  176.5710  139.1900 C   0  0  0  0  0  2  0  0  0  0  0  0
  187.4880  179.5350  136.8460 O   0  0  0  0  0  1  0  0  0  0  0  0
  189.9620  176.8220  136.7640 C   0  0  0  0  0  2  0  0  0  0  0  0
  190.2180  177.5600  138.0670 C   0  0  1  0  0  3  0  0  0  0  0  0
  188.1120  178.3330  137.1710 C   0  0  1  0  0  0  0  0  0  0  0  0
  188.8140  177.5430  136.0860 C   0  0  0  0  0  2  0  0  0  0  0  0
  189.0130  178.4530  138.3740 C   0  0  1  0  0  3  0  0  0  0  0  0
  187.6980  177.6730  138.4660 C   0  0  0  0  0  2  0  0  0  0  0  0
  1  3  1  0  0  0  0
  3  4  1  0  0  0  0
  3  2  1  0  0  0  0
  4  2  1  0  0  0  0
  5  9  1  1  0  0  0
  6 11  1  0  0  0  0
  8  3  1  6  0  0  0
  8 10  1  0  0  0  0
  8 12  1  0  0  0  0
  8  5  1  0  0  0  0
  9  7  2  0  0  0  0
 10  6  2  0  0  0  0
 10  5  1  0  0  0  0
 11  7  1  0  0  0  0
 12  5  1  0  0  0  0
 13  1  1  0  0  0  0
 14 13  1  0  0  0  0
 14 16  1  0  0  0  0
 15 14  2  0  0  0  0
 17  1  1  0  0  0  0
 18 17  1  0  0  0  0
 19 18  1  0  0  0  0
 21 22  1  0  0  0  0
 22 25  1  0  0  0  0
 22 19  1  1  0  0  0
 23 20  1  6  0  0  0
 23 25  1  0  0  0  0
 23 26  1  0  0  0  0
 24 21  1  0  0  0  0
 24 23  1  0  0  0  0
 25 26  1  1  0  0  0
M  END
>  <MODEL>
7

>  <REMARK>
 VINA RESULT:      -7.6      2.452      5.287
  Name = 
  8 active torsions:
  status: ('A' for Active; 'I' for Inactive)
    1  A    between atoms: C_5  and  C_8
    2  A    between atoms: C_6  and  N_9
    3  A    between atoms: C_6  and  C_11
    4  A    between atoms: C_7  and  C_8
    5  A    between atoms: C_7  and  C_18
    6  A    between atoms: N_9  and  C_12
    7  A    between atoms: N_9  and  C_18
    8  A    between atoms: C_12  and  C_16
                            x       y       z     vdW  Elec       q    Type
                         _______ _______ _______ _____ _____    ______ ____

>  <TORSDO>
F 8

$$$$
=
 OpenBabel10232407523D

 26 31  0  0  1  0  0  0  0  0999 V2000
  190.1950  177.4420  144.9010 N   0  0  0  0  0  0  0  0  0  0  0  0
  190.1620  175.4360  143.3190 C   0  0  0  0  0  2  0  0  0  0  0  0
  190.6750  176.8310  143.6390 C   0  0  0  0  0  0  0  0  0  0  0  0
  191.6100  175.6360  143.7610 C   0  0  0  0  0  2  0  0  0  0  0  0
  190.9530  177.2930  140.6000 C   0  0  2  0  0  0  0  0  0  0  0  0
  188.6640  178.0190  141.0820 C   0  0  0  0  0  3  0  0  0  0  0  0
  189.3920  177.2310  138.8370 C   0  0  0  0  0  3  0  0  0  0  0  0
  190.9870  177.7940  142.4740 C   0  0  1  0  0  0  0  0  0  0  0  0
  190.7230  177.0000  139.2690 C   0  0  0  0  0  3  0  0  0  0  0  0
  189.9690  177.7780  141.4680 C   0  0  0  0  0  0  0  0  0  0  0  0
  188.3860  177.7280  139.7230 C   0  0  0  0  0  2  0  0  0  0  0  0
  191.9610  177.2910  141.6160 O   0  0  0  0  0  0  0  0  0  0  0  0
  190.0360  176.5350  146.0560 C   0  0  0  0  0  2  0  0  0  0  0  0
  190.6220  177.0540  147.3390 C   0  0  0  0  0  0  0  0  0  0  0  0
  189.8940  177.6680  148.1630 O   0  0  0  0  0  0  0  0  0  0  0  0
  191.9940  176.8310  147.6430 N   0  0  0  0  0  1  0  0  0  0  0  0
  189.0090  178.2670  144.6740 C   0  0  0  0  0  2  0  0  0  0  0  0
  187.7460  177.4750  144.9820 C   0  0  0  0  0  2  0  0  0  0  0  0
  186.6120  178.3860  145.4320 C   0  0  0  0  0  2  0  0  0  0  0  0
  183.5200  178.3970  141.7140 O   0  0  0  0  0  1  0  0  0  0  0  0
  184.1640  178.8680  145.2980 C   0  0  0  0  0  2  0  0  0  0  0  0
  185.2870  177.9740  144.8030 C   0  0  1  0  0  3  0  0  0  0  0  0
  184.1320  178.8610  142.8750 C   0  0  1  0  0  0  0  0  0  0  0  0
  183.2840  179.1510  144.0970 C   0  0  0  0  0  2  0  0  0  0  0  0
  185.3260  178.0320  143.2730 C   0  0  1  0  0  3  0  0  0  0  0  0
  185.5140  179.4530  142.7330 C   0  0  0  0  0  2  0  0  0  0  0  0
  1 13  1  0  0  0  0
  2  3  1  0  0  0  0
  2  4  1  0  0  0  0
  3  4  1  0  0  0  0
  3  1  1  0  0  0  0
  5  9  1  6  0  0  0
  5 10  1  0  0  0  0
  5 12  1  0  0  0  0
  5  8  1  0  0  0  0
  6 10  2  0  0  0  0
  7  9  2  0  0  0  0
  7 11  1  0  0  0  0
  8  3  1  1  0  0  0
 10  8  1  0  0  0  0
 11  6  1  0  0  0  0
 12  8  1  0  0  0  0
 13 14  1  0  0  0  0
 14 16  1  0  0  0  0
 14 15  2  0  0  0  0
 17  1  1  0  0  0  0
 17 18  1  0  0  0  0
 18 19  1  0  0  0  0
 22 21  1  0  0  0  0
 22 19  1  1  0  0  0
 23 20  1  6  0  0  0
 23 25  1  0  0  0  0
 23 24  1  0  0  0  0
 24 21  1  0  0  0  0
 25 26  1  1  0  0  0
 25 22  1  0  0  0  0
 26 23  1  0  0  0  0
M  END
>  <MODEL>
8

>  <REMARK>
 VINA RESULT:      -7.5      2.149      4.964
  Name = 
  8 active torsions:
  status: ('A' for Active; 'I' for Inactive)
    1  A    between atoms: C_5  and  C_8
    2  A    between atoms: C_6  and  N_9
    3  A    between atoms: C_6  and  C_11
    4  A    between atoms: C_7  and  C_8
    5  A    between atoms: C_7  and  C_18
    6  A    between atoms: N_9  and  C_12
    7  A    between atoms: N_9  and  C_18
    8  A    between atoms: C_12  and  C_16
                            x       y       z     vdW  Elec       q    Type
                         _______ _______ _______ _____ _____    ______ ____

>  <TORSDO>
F 8

$$$$
=
 OpenBabel10232407523D

 26 31  0  0  1  0  0  0  0  0999 V2000
  189.9530  177.6610  142.2380 N   0  0  0  0  0  0  0  0  0  0  0  0
  190.5060  179.3310  144.0900 C   0  0  0  0  0  2  0  0  0  0  0  0
  190.3180  177.8860  143.6560 C   0  0  0  0  0  0  0  0  0  0  0  0
  191.7180  178.4140  143.9340 C   0  0  0  0  0  2  0  0  0  0  0  0
  189.4080  177.2740  146.5410 C   0  0  2  0  0  0  0  0  0  0  0  0
  187.3120  177.7580  145.3720 C   0  0  0  0  0  3  0  0  0  0  0  0
  187.5900  178.0400  147.8270 C   0  0  0  0  0  3  0  0  0  0  0  0
  189.7850  176.8650  144.6830 C   0  0  1  0  0  0  0  0  0  0  0  0
  188.9400  177.6100  147.7980 C   0  0  0  0  0  3  0  0  0  0  0  0
  188.6310  177.3470  145.3800 C   0  0  0  0  0  0  0  0  0  0  0  0
  186.7950  178.1130  146.6420 C   0  0  0  0  0  2  0  0  0  0  0  0
  190.5650  176.8130  145.8340 O   0  0  0  0  0  0  0  0  0  0  0  0
  188.5440  177.3110  141.9650 C   0  0  0  0  0  2  0  0  0  0  0  0
  187.7710  178.3710  141.2320 C   0  0  0  0  0  0  0  0  0  0  0  0
  188.1660  178.7780  140.1090 O   0  0  0  0  0  0  0  0  0  0  0  0
  186.5730  178.8990  141.7910 N   0  0  0  0  0  1  0  0  0  0  0  0
  190.8900  176.7470  141.5860 C   0  0  0  0  0  2  0  0  0  0  0  0
  191.3000  177.2910  140.2240 C   0  0  0  0  0  2  0  0  0  0  0  0
  190.7930  176.4050  139.0950 C   0  0  0  0  0  2  0  0  0  0  0  0
  192.5460  174.6850  134.9280 O   0  0  0  0  0  1  0  0  0  0  0  0
  193.1080  176.3420  138.1570 C   0  0  0  0  0  2  0  0  0  0  0  0
  191.6400  176.5700  137.8390 C   0  0  1  0  0  3  0  0  0  0  0  0
  192.4900  174.9120  136.3010 C   0  0  1  0  0  0  0  0  0  0  0  0
  193.6750  175.5470  136.9980 C   0  0  0  0  0  2  0  0  0  0  0  0
  191.2220  175.6080  136.7240 C   0  0  1  0  0  3  0  0  0  0  0  0
  191.4550  174.1370  137.0830 C   0  0  0  0  0  2  0  0  0  0  0  0
  1  3  1  0  0  0  0
  3  4  1  0  0  0  0
  3  2  1  0  0  0  0
  4  2  1  0  0  0  0
  5  9  1  1  0  0  0
  6 10  2  0  0  0  0
  6 11  1  0  0  0  0
  8  3  1  6  0  0  0
  8 10  1  0  0  0  0
  8 12  1  0  0  0  0
  8  5  1  0  0  0  0
  9  7  2  0  0  0  0
 10  5  1  0  0  0  0
 11  7  1  0  0  0  0
 12  5  1  0  0  0  0
 13  1  1  0  0  0  0
 14 16  1  0  0  0  0
 14 13  1  0  0  0  0
 15 14  2  0  0  0  0
 17  1  1  0  0  0  0
 18 17  1  0  0  0  0
 19 18  1  0  0  0  0
 22 21  1  0  0  0  0
 22 19  1  1  0  0  0
 23 20  1  6  0  0  0
 23 25  1  0  0  0  0
 23 24  1  0  0  0  0
 23 26  1  0  0  0  0
 24 21  1  0  0  0  0
 25 26  1  1  0  0  0
 25 22  1  0  0  0  0
M  END
>  <MODEL>
9

>  <REMARK>
 VINA RESULT:      -7.3      2.748      6.639
  Name = 
  8 active torsions:
  status: ('A' for Active; 'I' for Inactive)
    1  A    between atoms: C_5  and  C_8
    2  A    between atoms: C_6  and  N_9
    3  A    between atoms: C_6  and  C_11
    4  A    between atoms: C_7  and  C_8
    5  A    between atoms: C_7  and  C_18
    6  A    between atoms: N_9  and  C_12
    7  A    between atoms: N_9  and  C_18
    8  A    between atoms: C_12  and  C_16
                            x       y       z     vdW  Elec       q    Type
                         _______ _______ _______ _____ _____    ______ ____

>  <TORSDO>
F 8

$$$$
