=
 OpenBabel10232408143D

 32 34  0  0  1  0  0  0  0  0999 V2000
  186.2230  176.6510  136.5820 C   0  0  0  0  0  0  0  0  0  0  0  0
  187.1670  175.7880  137.3720 C   0  0  0  0  0  2  0  0  0  0  0  0
  188.8580  177.3350  142.1000 N   0  0  0  0  0  0  0  0  0  0  0  0
  186.5320  177.0540  135.3860 N   0  0  0  0  0  0  0  0  0  0  0  0
  189.8340  176.9690  136.1050 N   0  0  0  0  0  0  0  0  0  0  0  0
  188.6130  178.3820  141.1070 C   0  0  0  0  0  2  0  0  0  0  0  0
  188.8770  177.6880  135.2700 C   0  0  0  0  0  2  0  0  0  0  0  0
  188.2840  176.5940  137.9470 C   0  0  0  0  0  0  0  0  0  0  0  0
  190.9040  176.0610  139.3240 N   0  0  0  0  0  0  0  0  0  0  0  0
  187.8010  176.7580  134.7330 C   0  0  0  0  0  2  0  0  0  0  0  0
  188.1270  177.1430  139.1080 N   0  0  0  0  0  0  0  0  0  0  0  0
  189.6120  176.5410  137.3150 C   0  0  0  0  0  0  0  0  0  0  0  0
  190.3370  177.0640  140.2380 C   0  0  2  0  0  3  0  0  0  0  0  0
  190.6860  175.8630  138.0550 C   0  0  0  0  0  0  0  0  0  0  0  0
  189.8940  176.4610  141.5470 C   0  0  0  0  0  2  0  0  0  0  0  0
  189.1670  177.9140  139.7800 C   0  0  2  0  0  3  0  0  0  0  0  0
  184.8740  178.0520  138.1040 C   0  0  0  0  0  1  0  0  0  0  0  0
  184.9930  177.0350  137.1190 O   0  0  0  0  0  0  0  0  0  0  0  0
  189.4180  177.9880  143.2710 C   0  0  0  0  0  2  0  0  0  0  0  0
  186.5390  177.6620  145.3950 C   0  0  0  0  0  3  0  0  0  0  0  0
  188.9640  177.2900  144.5050 C   0  0  0  0  0  3  0  0  0  0  0  0
  187.7540  177.4750  144.9500 C   0  0  0  0  0  0  0  0  0  0  0  0
  185.5210  178.1340  143.1870 C   0  0  0  0  0  1  0  0  0  0  0  0
  185.5350  178.3330  144.6240 N   0  0  0  0  0  0  0  0  0  0  0  0
  183.1380  178.8010  144.5530 C   0  0  0  0  0  1  0  0  0  0  0  0
  184.4620  179.1140  145.2280 C   0  0  0  0  0  2  0  0  0  0  0  0
  191.5330  174.8590  137.3390 C   0  0  0  0  0  2  0  0  0  0  0  0
  192.8650  175.4620  136.9100 C   0  0  0  0  0  2  0  0  0  0  0  0
  194.5080  175.7540  138.6060 O   0  0  0  0  0  0  0  0  0  0  0  0
  193.9840  174.9680  137.7740 C   0  0  0  0  0  0  0  0  0  0  0  0
  194.4440  173.6510  137.6960 O   0  0  0  0  0  0  0  0  0  0  0  0
  195.4140  173.1310  138.5920 C   0  0  0  0  0  1  0  0  0  0  0  0
  1 18  1  0  0  0  0
  1  2  1  0  0  0  0
  2  8  1  0  0  0  0
  3 19  1  0  0  0  0
  4  1  2  0  0  0  0
  5 12  2  0  0  0  0
  6  3  1  0  0  0  0
  7  5  1  0  0  0  0
  8 11  2  0  0  0  0
  9 13  1  0  0  0  0
 10  7  1  0  0  0  0
 10  4  1  0  0  0  0
 11 16  1  0  0  0  0
 12  8  1  0  0  0  0
 12 14  1  0  0  0  0
 13 15  1  1  0  0  0
 14  9  2  0  0  0  0
 15  3  1  0  0  0  0
 16 13  1  0  0  0  0
 16  6  1  1  0  0  0
 18 17  1  0  0  0  0
 19 21  1  0  0  0  0
 21 22  2  0  0  0  0
 22 20  2  0  0  0  0
 23 24  1  0  0  0  0
 24 26  1  0  0  0  0
 24 20  1  0  0  0  0
 25 26  1  0  0  0  0
 27 14  1  0  0  0  0
 28 27  1  0  0  0  0
 28 30  1  0  0  0  0
 30 29  2  0  0  0  0
 31 30  1  0  0  0  0
 31 32  1  0  0  0  0
M  END
>  <MODEL>
1

>  <REMARK>
 VINA RESULT:      -6.9      0.000      0.000
  Name = 
  9 active torsions:
  status: ('A' for Active; 'I' for Inactive)
    1  A    between atoms: C_3  and  O_15
    2  A    between atoms: C_5  and  N_28
    3  A    between atoms: N_6  and  C_13
    4  A    between atoms: C_9  and  N_28
    5  A    between atoms: C_13  and  C_17
    6  A    between atoms: C_14  and  C_25
    7  A    between atoms: C_14  and  C_31
    8  A    between atoms: O_18  and  C_31
    9  A    between atoms: C_25  and  C_29
                            x       y       z     vdW  Elec       q    Type
                         _______ _______ _______ _____ _____    ______ ____

>  <TORSDO>
F 9

$$$$
=
 OpenBabel10232408143D

 32 34  0  0  1  0  0  0  0  0999 V2000
  180.9970  177.9070  140.3740 C   0  0  0  0  0  0  0  0  0  0  0  0
  182.3830  177.3430  140.2370 C   0  0  0  0  0  2  0  0  0  0  0  0
  185.9030  177.9740  144.0860 N   0  0  0  0  0  0  0  0  0  0  0  0
  180.5270  178.7420  139.4960 N   0  0  0  0  0  0  0  0  0  0  0  0
  183.6290  179.8760  138.7720 N   0  0  0  0  0  0  0  0  0  0  0  0
  184.9390  179.0570  143.8830 C   0  0  0  0  0  2  0  0  0  0  0  0
  182.2410  180.3260  138.8110 C   0  0  0  0  0  2  0  0  0  0  0  0
  183.4160  178.3380  140.6500 C   0  0  0  0  0  0  0  0  0  0  0  0
  186.4070  178.6010  140.4990 N   0  0  0  0  0  0  0  0  0  0  0  0
  181.2900  179.2320  138.3540 C   0  0  0  0  0  2  0  0  0  0  0  0
  183.7730  178.3910  141.8930 N   0  0  0  0  0  0  0  0  0  0  0  0
  184.1820  179.0540  139.6180 C   0  0  0  0  0  0  0  0  0  0  0  0
  186.1950  178.9360  141.9150 C   0  0  2  0  0  3  0  0  0  0  0  0
  185.6060  178.7180  139.4790 C   0  0  0  0  0  0  0  0  0  0  0  0
  186.6600  177.8410  142.8400 C   0  0  0  0  0  2  0  0  0  0  0  0
  184.8020  179.2940  142.3960 C   0  0  2  0  0  3  0  0  0  0  0  0
  180.0870  178.3270  142.6310 C   0  0  0  0  0  1  0  0  0  0  0  0
  180.1840  177.5440  141.4500 O   0  0  0  0  0  0  0  0  0  0  0  0
  186.8290  178.4210  145.1140 C   0  0  0  0  0  2  0  0  0  0  0  0
  190.0010  176.8600  144.4740 C   0  0  0  0  0  3  0  0  0  0  0  0
  187.6690  177.2790  145.5680 C   0  0  0  0  0  3  0  0  0  0  0  0
  188.8330  177.0690  145.0230 C   0  0  0  0  0  0  0  0  0  0  0  0
  190.8150  179.1680  144.0960 C   0  0  0  0  0  1  0  0  0  0  0  0
  190.6230  177.8170  143.6070 N   0  0  0  0  0  0  0  0  0  0  0  0
  190.2120  176.5480  141.5600 C   0  0  0  0  0  1  0  0  0  0  0  0
  191.1680  177.4650  142.3010 C   0  0  0  0  0  2  0  0  0  0  0  0
  186.1520  178.4410  138.1140 C   0  0  0  0  0  2  0  0  0  0  0  0
  187.4190  177.5970  138.1840 C   0  0  0  0  0  2  0  0  0  0  0  0
  188.5130  179.5360  137.3460 O   0  0  0  0  0  0  0  0  0  0  0  0
  188.6370  178.4300  137.9330 C   0  0  0  0  0  0  0  0  0  0  0  0
  189.9050  178.0200  138.3530 O   0  0  0  0  0  0  0  0  0  0  0  0
  190.5610  176.8900  137.8010 C   0  0  0  0  0  1  0  0  0  0  0  0
  1 18  1  0  0  0  0
  2  1  1  0  0  0  0
  2  8  1  0  0  0  0
  3 19  1  0  0  0  0
  4  1  2  0  0  0  0
  5  7  1  0  0  0  0
  5 12  2  0  0  0  0
  6  3  1  0  0  0  0
  8 11  2  0  0  0  0
  9 13  1  0  0  0  0
 10  7  1  0  0  0  0
 10  4  1  0  0  0  0
 11 16  1  0  0  0  0
 12  8  1  0  0  0  0
 13 16  1  0  0  0  0
 13 15  1  1  0  0  0
 14 12  1  0  0  0  0
 14  9  2  0  0  0  0
 15  3  1  0  0  0  0
 16  6  1  1  0  0  0
 18 17  1  0  0  0  0
 19 21  1  0  0  0  0
 20 22  2  0  0  0  0
 22 21  2  0  0  0  0
 24 23  1  0  0  0  0
 24 20  1  0  0  0  0
 25 26  1  0  0  0  0
 26 24  1  0  0  0  0
 27 28  1  0  0  0  0
 27 14  1  0  0  0  0
 29 30  2  0  0  0  0
 30 28  1  0  0  0  0
 30 31  1  0  0  0  0
 32 31  1  0  0  0  0
M  END
>  <MODEL>
2

>  <REMARK>
 VINA RESULT:      -6.8      3.103      5.914
  Name = 
  9 active torsions:
  status: ('A' for Active; 'I' for Inactive)
    1  A    between atoms: C_3  and  O_15
    2  A    between atoms: C_5  and  N_28
    3  A    between atoms: N_6  and  C_13
    4  A    between atoms: C_9  and  N_28
    5  A    between atoms: C_13  and  C_17
    6  A    between atoms: C_14  and  C_25
    7  A    between atoms: C_14  and  C_31
    8  A    between atoms: O_18  and  C_31
    9  A    between atoms: C_25  and  C_29
                            x       y       z     vdW  Elec       q    Type
                         _______ _______ _______ _____ _____    ______ ____

>  <TORSDO>
F 9

$$$$
=
 OpenBabel10232408143D

 32 34  0  0  1  0  0  0  0  0999 V2000
  186.5270  176.3440  136.4290 C   0  0  0  0  0  0  0  0  0  0  0  0
  187.4930  175.6090  137.3170 C   0  0  0  0  0  2  0  0  0  0  0  0
  188.6440  177.4610  142.0970 N   0  0  0  0  0  0  0  0  0  0  0  0
  186.8830  176.7440  135.2460 N   0  0  0  0  0  0  0  0  0  0  0  0
  190.1110  177.0340  136.2070 N   0  0  0  0  0  0  0  0  0  0  0  0
  188.3670  178.4480  141.0510 C   0  0  0  0  0  2  0  0  0  0  0  0
  189.1500  177.6220  135.2790 C   0  0  0  0  0  2  0  0  0  0  0  0
  188.4720  176.5460  137.9430 C   0  0  0  0  0  0  0  0  0  0  0  0
  191.0190  176.3370  139.5260 N   0  0  0  0  0  0  0  0  0  0  0  0
  188.2220  176.5670  134.6980 C   0  0  0  0  0  2  0  0  0  0  0  0
  188.1690  177.1080  139.0680 N   0  0  0  0  0  0  0  0  0  0  0  0
  189.8420  176.6190  137.4120 C   0  0  0  0  0  0  0  0  0  0  0  0
  190.2820  177.2980  140.3600 C   0  0  2  0  0  3  0  0  0  0  0  0
  190.9220  176.0810  138.2530 C   0  0  0  0  0  0  0  0  0  0  0  0
  189.8050  176.6880  141.6540 C   0  0  0  0  0  2  0  0  0  0  0  0
  189.0680  178.0040  139.7870 C   0  0  2  0  0  3  0  0  0  0  0  0
  184.1830  175.6470  136.7740 C   0  0  0  0  0  1  0  0  0  0  0  0
  185.2250  176.6080  136.8600 O   0  0  0  0  0  0  0  0  0  0  0  0
  189.0410  178.2040  143.2820 C   0  0  0  0  0  2  0  0  0  0  0  0
  189.2690  177.0620  146.6810 C   0  0  0  0  0  3  0  0  0  0  0  0
  189.8810  177.3450  144.1590 C   0  0  0  0  0  3  0  0  0  0  0  0
  189.5760  177.2030  145.4180 C   0  0  0  0  0  0  0  0  0  0  0  0
  187.9920  177.9920  148.5890 C   0  0  0  0  0  1  0  0  0  0  0  0
  188.0200  177.5140  147.2200 N   0  0  0  0  0  0  0  0  0  0  0  0
  186.0600  178.8980  146.7600 C   0  0  0  0  0  1  0  0  0  0  0  0
  186.8040  177.6180  146.4220 C   0  0  0  0  0  2  0  0  0  0  0  0
  191.9210  175.1530  137.6380 C   0  0  0  0  0  2  0  0  0  0  0  0
  193.3430  175.6710  137.8200 C   0  0  0  0  0  2  0  0  0  0  0  0
  193.9680  173.4260  137.3400 O   0  0  0  0  0  0  0  0  0  0  0  0
  194.3350  174.5510  137.7680 C   0  0  0  0  0  0  0  0  0  0  0  0
  195.6640  174.7310  138.1610 O   0  0  0  0  0  0  0  0  0  0  0  0
  196.0870  174.5770  139.5070 C   0  0  0  0  0  1  0  0  0  0  0  0
  1 18  1  0  0  0  0
  1  2  1  0  0  0  0
  2  8  1  0  0  0  0
  3 19  1  0  0  0  0
  4  1  2  0  0  0  0
  5 12  2  0  0  0  0
  6  3  1  0  0  0  0
  7  5  1  0  0  0  0
  8 11  2  0  0  0  0
  9 13  1  0  0  0  0
 10  4  1  0  0  0  0
 10  7  1  0  0  0  0
 11 16  1  0  0  0  0
 12  8  1  0  0  0  0
 12 14  1  0  0  0  0
 13 15  1  1  0  0  0
 14  9  2  0  0  0  0
 15  3  1  0  0  0  0
 16 13  1  0  0  0  0
 16  6  1  1  0  0  0
 17 18  1  0  0  0  0
 19 21  1  0  0  0  0
 20 24  1  0  0  0  0
 21 22  2  0  0  0  0
 22 20  2  0  0  0  0
 24 23  1  0  0  0  0
 26 25  1  0  0  0  0
 26 24  1  0  0  0  0
 27 28  1  0  0  0  0
 27 14  1  0  0  0  0
 29 30  2  0  0  0  0
 30 28  1  0  0  0  0
 30 31  1  0  0  0  0
 31 32  1  0  0  0  0
M  END
>  <MODEL>
3

>  <REMARK>
 VINA RESULT:      -6.8      1.455      1.862
  Name = 
  9 active torsions:
  status: ('A' for Active; 'I' for Inactive)
    1  A    between atoms: C_3  and  O_15
    2  A    between atoms: C_5  and  N_28
    3  A    between atoms: N_6  and  C_13
    4  A    between atoms: C_9  and  N_28
    5  A    between atoms: C_13  and  C_17
    6  A    between atoms: C_14  and  C_25
    7  A    between atoms: C_14  and  C_31
    8  A    between atoms: O_18  and  C_31
    9  A    between atoms: C_25  and  C_29
                            x       y       z     vdW  Elec       q    Type
                         _______ _______ _______ _____ _____    ______ ____

>  <TORSDO>
F 9

$$$$
=
 OpenBabel10232408143D

 32 34  0  0  1  0  0  0  0  0999 V2000
  186.1960  177.1130  136.5060 C   0  0  0  0  0  0  0  0  0  0  0  0
  187.0160  176.1590  137.3280 C   0  0  0  0  0  2  0  0  0  0  0  0
  188.8900  177.6180  142.0150 N   0  0  0  0  0  0  0  0  0  0  0  0
  186.5570  177.4340  135.3000 N   0  0  0  0  0  0  0  0  0  0  0  0
  189.8180  176.9370  136.0400 N   0  0  0  0  0  0  0  0  0  0  0  0
  188.7860  178.6570  140.9880 C   0  0  0  0  0  2  0  0  0  0  0  0
  188.9660  177.7490  135.1780 C   0  0  0  0  0  2  0  0  0  0  0  0
  188.2290  176.8280  137.8840 C   0  0  0  0  0  0  0  0  0  0  0  0
  190.7530  175.9980  139.2920 N   0  0  0  0  0  0  0  0  0  0  0  0
  187.7770  176.9530  134.6630 C   0  0  0  0  0  2  0  0  0  0  0  0
  188.1440  177.4300  139.0260 N   0  0  0  0  0  0  0  0  0  0  0  0
  189.5390  176.5800  137.2610 C   0  0  0  0  0  0  0  0  0  0  0  0
  190.3220  177.0950  140.1710 C   0  0  2  0  0  3  0  0  0  0  0  0
  190.5140  175.7910  138.0280 C   0  0  0  0  0  0  0  0  0  0  0  0
  189.8020  176.5980  141.4960 C   0  0  0  0  0  2  0  0  0  0  0  0
  189.2760  178.0770  139.6800 C   0  0  2  0  0  3  0  0  0  0  0  0
  184.8520  177.9290  138.4100 C   0  0  0  0  0  1  0  0  0  0  0  0
  185.0260  177.6730  137.0240 O   0  0  0  0  0  0  0  0  0  0  0  0
  189.5290  178.2290  143.1690 C   0  0  0  0  0  2  0  0  0  0  0  0
  189.0390  177.0250  146.5180 C   0  0  0  0  0  3  0  0  0  0  0  0
  190.0090  177.1720  144.0990 C   0  0  0  0  0  3  0  0  0  0  0  0
  189.5260  177.0980  145.3060 C   0  0  0  0  0  0  0  0  0  0  0  0
  187.8520  178.2970  148.2810 C   0  0  0  0  0  1  0  0  0  0  0  0
  187.8890  177.7760  146.9280 N   0  0  0  0  0  0  0  0  0  0  0  0
  185.5740  178.5450  146.7960 C   0  0  0  0  0  1  0  0  0  0  0  0
  186.8090  178.1320  146.0150 C   0  0  0  0  0  2  0  0  0  0  0  0
  191.2210  174.6610  137.3490 C   0  0  0  0  0  2  0  0  0  0  0  0
  192.7150  174.6810  137.6510 C   0  0  0  0  0  2  0  0  0  0  0  0
  193.8280  176.7640  137.3650 O   0  0  0  0  0  0  0  0  0  0  0  0
  193.4200  175.7060  136.8190 C   0  0  0  0  0  0  0  0  0  0  0  0
  193.6560  175.5080  135.4560 O   0  0  0  0  0  0  0  0  0  0  0  0
  194.3180  176.4710  134.6510 C   0  0  0  0  0  1  0  0  0  0  0  0
  1 18  1  0  0  0  0
  1  2  1  0  0  0  0
  2  8  1  0  0  0  0
  3 19  1  0  0  0  0
  4  1  2  0  0  0  0
  5 12  2  0  0  0  0
  6  3  1  0  0  0  0
  7  5  1  0  0  0  0
  8 11  2  0  0  0  0
  9 13  1  0  0  0  0
 10  7  1  0  0  0  0
 10  4  1  0  0  0  0
 11 16  1  0  0  0  0
 12  8  1  0  0  0  0
 12 14  1  0  0  0  0
 13 15  1  1  0  0  0
 14  9  2  0  0  0  0
 15  3  1  0  0  0  0
 16 13  1  0  0  0  0
 16  6  1  1  0  0  0
 18 17  1  0  0  0  0
 19 21  1  0  0  0  0
 20 24  1  0  0  0  0
 21 22  2  0  0  0  0
 22 20  2  0  0  0  0
 24 23  1  0  0  0  0
 26 25  1  0  0  0  0
 26 24  1  0  0  0  0
 27 28  1  0  0  0  0
 27 14  1  0  0  0  0
 30 29  2  0  0  0  0
 30 28  1  0  0  0  0
 31 30  1  0  0  0  0
 32 31  1  0  0  0  0
M  END
>  <MODEL>
4

>  <REMARK>
 VINA RESULT:      -6.8      1.443      1.921
  Name = 
  9 active torsions:
  status: ('A' for Active; 'I' for Inactive)
    1  A    between atoms: C_3  and  O_15
    2  A    between atoms: C_5  and  N_28
    3  A    between atoms: N_6  and  C_13
    4  A    between atoms: C_9  and  N_28
    5  A    between atoms: C_13  and  C_17
    6  A    between atoms: C_14  and  C_25
    7  A    between atoms: C_14  and  C_31
    8  A    between atoms: O_18  and  C_31
    9  A    between atoms: C_25  and  C_29
                            x       y       z     vdW  Elec       q    Type
                         _______ _______ _______ _____ _____    ______ ____

>  <TORSDO>
F 9

$$$$
=
 OpenBabel10232408143D

 32 34  0  0  1  0  0  0  0  0999 V2000
  190.4660  176.5120  141.7890 C   0  0  0  0  0  0  0  0  0  0  0  0
  189.2630  176.2110  142.6380 C   0  0  0  0  0  2  0  0  0  0  0  0
  184.5450  178.1250  141.3420 N   0  0  0  0  0  0  0  0  0  0  0  0
  191.5140  177.0870  142.2970 N   0  0  0  0  0  0  0  0  0  0  0  0
  189.6390  178.6660  144.6250 N   0  0  0  0  0  0  0  0  0  0  0  0
  185.7090  178.9550  141.0230 C   0  0  0  0  0  2  0  0  0  0  0  0
  190.8660  178.8400  143.8530 C   0  0  0  0  0  2  0  0  0  0  0  0
  188.4530  177.4410  142.8840 C   0  0  0  0  0  0  0  0  0  0  0  0
  186.1530  178.2480  144.6450 N   0  0  0  0  0  0  0  0  0  0  0  0
  191.6070  177.5230  143.6850 C   0  0  0  0  0  2  0  0  0  0  0  0
  187.5300  177.7620  142.0380 N   0  0  0  0  0  0  0  0  0  0  0  0
  188.5430  178.1140  144.1900 C   0  0  0  0  0  0  0  0  0  0  0  0
  185.6750  178.7620  143.3520 C   0  0  2  0  0  3  0  0  0  0  0  0
  187.3670  178.0420  145.0700 C   0  0  0  0  0  0  0  0  0  0  0  0
  184.5400  177.9410  142.7930 C   0  0  0  0  0  2  0  0  0  0  0  0
  186.6530  178.9160  142.2030 C   0  0  2  0  0  3  0  0  0  0  0  0
  190.1160  177.1010  139.4150 C   0  0  0  0  0  1  0  0  0  0  0  0
  190.4800  176.1780  140.4320 O   0  0  0  0  0  0  0  0  0  0  0  0
  183.3670  178.9030  140.9960 C   0  0  0  0  0  2  0  0  0  0  0  0
  182.1410  176.4040  138.7250 C   0  0  0  0  0  3  0  0  0  0  0  0
  182.2050  177.9960  140.7920 C   0  0  0  0  0  3  0  0  0  0  0  0
  182.1720  177.2010  139.7610 C   0  0  0  0  0  0  0  0  0  0  0  0
  183.7720  174.8340  137.7210 C   0  0  0  0  0  1  0  0  0  0  0  0
  183.2840  176.1890  137.8890 N   0  0  0  0  0  0  0  0  0  0  0  0
  185.3000  177.5480  137.6460 C   0  0  0  0  0  1  0  0  0  0  0  0
  183.9090  177.2540  137.1130 C   0  0  0  0  0  2  0  0  0  0  0  0
  187.5610  177.6580  146.5020 C   0  0  0  0  0  2  0  0  0  0  0  0
  188.8540  176.8750  146.6960 C   0  0  0  0  0  2  0  0  0  0  0  0
  189.1370  178.1780  148.6670 O   0  0  0  0  0  0  0  0  0  0  0  0
  189.6920  177.4770  147.7800 C   0  0  0  0  0  0  0  0  0  0  0  0
  191.0710  177.2610  147.8460 O   0  0  0  0  0  0  0  0  0  0  0  0
  191.7010  176.1640  147.2040 C   0  0  0  0  0  1  0  0  0  0  0  0
  1  4  2  0  0  0  0
  1  2  1  0  0  0  0
  2  8  1  0  0  0  0
  3 15  1  0  0  0  0
  4 10  1  0  0  0  0
  6  3  1  0  0  0  0
  7  5  1  0  0  0  0
  8 12  1  0  0  0  0
  9 14  2  0  0  0  0
 10  7  1  0  0  0  0
 11 16  1  0  0  0  0
 11  8  2  0  0  0  0
 12  5  2  0  0  0  0
 12 14  1  0  0  0  0
 13 15  1  6  0  0  0
 13  9  1  0  0  0  0
 14 27  1  0  0  0  0
 16  6  1  6  0  0  0
 16 13  1  0  0  0  0
 17 18  1  0  0  0  0
 18  1  1  0  0  0  0
 19  3  1  0  0  0  0
 20 22  2  0  0  0  0
 21 19  1  0  0  0  0
 22 21  2  0  0  0  0
 23 24  1  0  0  0  0
 24 20  1  0  0  0  0
 26 25  1  0  0  0  0
 26 24  1  0  0  0  0
 27 28  1  0  0  0  0
 28 30  1  0  0  0  0
 30 31  1  0  0  0  0
 30 29  2  0  0  0  0
 32 31  1  0  0  0  0
M  END
>  <MODEL>
5

>  <REMARK>
 VINA RESULT:      -6.8      3.624      7.789
  Name = 
  9 active torsions:
  status: ('A' for Active; 'I' for Inactive)
    1  A    between atoms: C_3  and  O_15
    2  A    between atoms: C_5  and  N_28
    3  A    between atoms: N_6  and  C_13
    4  A    between atoms: C_9  and  N_28
    5  A    between atoms: C_13  and  C_17
    6  A    between atoms: C_14  and  C_25
    7  A    between atoms: C_14  and  C_31
    8  A    between atoms: O_18  and  C_31
    9  A    between atoms: C_25  and  C_29
                            x       y       z     vdW  Elec       q    Type
                         _______ _______ _______ _____ _____    ______ ____

>  <TORSDO>
F 9

$$$$
=
 OpenBabel10232408143D

 32 34  0  0  1  0  0  0  0  0999 V2000
  186.4330  178.7920  141.5360 C   0  0  0  0  0  0  0  0  0  0  0  0
  187.8480  179.1840  141.8570 C   0  0  0  0  0  2  0  0  0  0  0  0
  191.8380  177.3270  138.9880 N   0  0  0  0  0  0  0  0  0  0  0  0
  185.6810  178.2220  142.4290 N   0  0  0  0  0  0  0  0  0  0  0  0
  188.3660  176.8570  143.9630 N   0  0  0  0  0  0  0  0  0  0  0  0
  190.6840  176.4440  139.1700 C   0  0  0  0  0  2  0  0  0  0  0  0
  186.9510  176.5960  143.7160 C   0  0  0  0  0  2  0  0  0  0  0  0
  188.7540  177.9980  141.8440 C   0  0  0  0  0  0  0  0  0  0  0  0
  191.5830  177.3780  142.6540 N   0  0  0  0  0  0  0  0  0  0  0  0
  186.1340  177.8770  143.7710 C   0  0  0  0  0  2  0  0  0  0  0  0
  189.3120  177.6480  140.7310 N   0  0  0  0  0  0  0  0  0  0  0  0
  189.1920  177.4110  143.1210 C   0  0  0  0  0  0  0  0  0  0  0  0
  191.5720  176.7940  141.3050 C   0  0  2  0  0  3  0  0  0  0  0  0
  190.6050  177.5760  143.4910 C   0  0  0  0  0  0  0  0  0  0  0  0
  192.3730  177.6080  140.3200 C   0  0  0  0  0  2  0  0  0  0  0  0
  190.2460  176.5340  140.6150 C   0  0  2  0  0  3  0  0  0  0  0  0
  184.5010  179.1530  140.0400 C   0  0  0  0  0  1  0  0  0  0  0  0
  185.8980  179.0340  140.2690 O   0  0  0  0  0  0  0  0  0  0  0  0
  192.8420  176.5620  138.2660 C   0  0  0  0  0  2  0  0  0  0  0  0
  193.6000  173.3130  136.9350 C   0  0  0  0  0  3  0  0  0  0  0  0
  192.1980  175.4260  137.5550 C   0  0  0  0  0  3  0  0  0  0  0  0
  192.8960  174.3710  137.2450 C   0  0  0  0  0  0  0  0  0  0  0  0
  195.3780  171.7230  137.6020 C   0  0  0  0  0  1  0  0  0  0  0  0
  194.9180  173.0900  137.4510 N   0  0  0  0  0  0  0  0  0  0  0  0
  196.0580  174.3280  139.2220 C   0  0  0  0  0  1  0  0  0  0  0  0
  195.8540  174.1740  137.7250 C   0  0  0  0  0  2  0  0  0  0  0  0
  190.9380  178.0490  144.8710 C   0  0  0  0  0  2  0  0  0  0  0  0
  191.6040  176.9480  145.6880 C   0  0  0  0  0  2  0  0  0  0  0  0
  191.8280  176.8730  148.0550 O   0  0  0  0  0  0  0  0  0  0  0  0
  191.0400  176.8900  147.0740 C   0  0  0  0  0  0  0  0  0  0  0  0
  189.6630  176.8760  147.3050 O   0  0  0  0  0  0  0  0  0  0  0  0
  189.0290  177.8010  148.1750 C   0  0  0  0  0  1  0  0  0  0  0  0
  1  2  1  0  0  0  0
  1  4  2  0  0  0  0
  3  6  1  0  0  0  0
  3 15  1  0  0  0  0
  4 10  1  0  0  0  0
  7 10  1  0  0  0  0
  7  5  1  0  0  0  0
  8  2  1  0  0  0  0
  8 12  1  0  0  0  0
  9 14  2  0  0  0  0
 11  8  2  0  0  0  0
 12 14  1  0  0  0  0
 12  5  2  0  0  0  0
 13 15  1  6  0  0  0
 13  9  1  0  0  0  0
 14 27  1  0  0  0  0
 16  6  1  6  0  0  0
 16 11  1  0  0  0  0
 16 13  1  0  0  0  0
 17 18  1  0  0  0  0
 18  1  1  0  0  0  0
 19  3  1  0  0  0  0
 20 22  2  0  0  0  0
 20 24  1  0  0  0  0
 21 19  1  0  0  0  0
 22 21  2  0  0  0  0
 24 23  1  0  0  0  0
 24 26  1  0  0  0  0
 26 25  1  0  0  0  0
 27 28  1  0  0  0  0
 28 30  1  0  0  0  0
 30 31  1  0  0  0  0
 30 29  2  0  0  0  0
 31 32  1  0  0  0  0
M  END
>  <MODEL>
6

>  <REMARK>
 VINA RESULT:      -6.7      3.602      8.349
  Name = 
  9 active torsions:
  status: ('A' for Active; 'I' for Inactive)
    1  A    between atoms: C_3  and  O_15
    2  A    between atoms: C_5  and  N_28
    3  A    between atoms: N_6  and  C_13
    4  A    between atoms: C_9  and  N_28
    5  A    between atoms: C_13  and  C_17
    6  A    between atoms: C_14  and  C_25
    7  A    between atoms: C_14  and  C_31
    8  A    between atoms: O_18  and  C_31
    9  A    between atoms: C_25  and  C_29
                            x       y       z     vdW  Elec       q    Type
                         _______ _______ _______ _____ _____    ______ ____

>  <TORSDO>
F 9

$$$$
=
 OpenBabel10232408143D

 32 34  0  0  1  0  0  0  0  0999 V2000
  180.7050  178.2090  140.8320 C   0  0  0  0  0  0  0  0  0  0  0  0
  182.0190  177.5570  140.5070 C   0  0  0  0  0  2  0  0  0  0  0  0
  186.0130  177.7850  143.9140 N   0  0  0  0  0  0  0  0  0  0  0  0
  180.1960  179.1090  140.0450 N   0  0  0  0  0  0  0  0  0  0  0  0
  183.2630  180.0570  138.9850 N   0  0  0  0  0  0  0  0  0  0  0  0
  185.1140  178.9390  143.8670 C   0  0  0  0  0  2  0  0  0  0  0  0
  181.9260  180.5990  139.2080 C   0  0  0  0  0  2  0  0  0  0  0  0
  183.1640  178.4610  140.8230 C   0  0  0  0  0  0  0  0  0  0  0  0
  186.1280  178.5230  140.3150 N   0  0  0  0  0  0  0  0  0  0  0  0
  180.8500  179.5930  138.8350 C   0  0  0  0  0  2  0  0  0  0  0  0
  183.6710  178.4380  142.0140 N   0  0  0  0  0  0  0  0  0  0  0  0
  183.8510  179.1640  139.7290 C   0  0  0  0  0  0  0  0  0  0  0  0
  186.1120  178.8140  141.7570 C   0  0  2  0  0  3  0  0  0  0  0  0
  185.2210  178.7380  139.4050 C   0  0  0  0  0  0  0  0  0  0  0  0
  186.6030  177.6520  142.5820 C   0  0  0  0  0  2  0  0  0  0  0  0
  184.8160  179.2460  142.4160 C   0  0  2  0  0  3  0  0  0  0  0  0
  180.1640  178.5500  143.2170 C   0  0  0  0  0  1  0  0  0  0  0  0
  180.0030  177.8580  141.9870 O   0  0  0  0  0  0  0  0  0  0  0  0
  187.0850  178.1240  144.8350 C   0  0  0  0  0  2  0  0  0  0  0  0
  190.4700  177.2310  145.6450 C   0  0  0  0  0  3  0  0  0  0  0  0
  188.4030  177.8800  144.1880 C   0  0  0  0  0  3  0  0  0  0  0  0
  189.4350  177.5560  144.9140 C   0  0  0  0  0  0  0  0  0  0  0  0
  191.5550  176.5400  147.7610 C   0  0  0  0  0  1  0  0  0  0  0  0
  190.3490  176.8690  147.0260 N   0  0  0  0  0  0  0  0  0  0  0  0
  188.9800  178.2290  148.5250 C   0  0  0  0  0  1  0  0  0  0  0  0
  189.0860  176.9260  147.7520 C   0  0  0  0  0  2  0  0  0  0  0  0
  185.5770  178.4800  137.9750 C   0  0  0  0  0  2  0  0  0  0  0  0
  186.7890  177.5640  137.8630 C   0  0  0  0  0  2  0  0  0  0  0  0
  187.5300  178.4190  135.7700 O   0  0  0  0  0  0  0  0  0  0  0  0
  187.8300  178.1530  136.9630 C   0  0  0  0  0  0  0  0  0  0  0  0
  189.1190  178.4380  137.4210 O   0  0  0  0  0  0  0  0  0  0  0  0
  189.5520  178.1030  138.7300 C   0  0  0  0  0  1  0  0  0  0  0  0
  1 18  1  0  0  0  0
  2  8  1  0  0  0  0
  2  1  1  0  0  0  0
  3 19  1  0  0  0  0
  4  1  2  0  0  0  0
  5  7  1  0  0  0  0
  5 12  2  0  0  0  0
  6  3  1  0  0  0  0
  8 11  2  0  0  0  0
  9 13  1  0  0  0  0
 10  7  1  0  0  0  0
 10  4  1  0  0  0  0
 11 16  1  0  0  0  0
 12  8  1  0  0  0  0
 13 16  1  0  0  0  0
 13 15  1  1  0  0  0
 14 12  1  0  0  0  0
 14  9  2  0  0  0  0
 15  3  1  0  0  0  0
 16  6  1  1  0  0  0
 18 17  1  0  0  0  0
 20 24  1  0  0  0  0
 21 19  1  0  0  0  0
 21 22  2  0  0  0  0
 22 20  2  0  0  0  0
 24 26  1  0  0  0  0
 24 23  1  0  0  0  0
 26 25  1  0  0  0  0
 27 14  1  0  0  0  0
 28 27  1  0  0  0  0
 29 30  2  0  0  0  0
 30 31  1  0  0  0  0
 30 28  1  0  0  0  0
 31 32  1  0  0  0  0
M  END
>  <MODEL>
7

>  <REMARK>
 VINA RESULT:      -6.6      3.552      6.264
  Name = 
  9 active torsions:
  status: ('A' for Active; 'I' for Inactive)
    1  A    between atoms: C_3  and  O_15
    2  A    between atoms: C_5  and  N_28
    3  A    between atoms: N_6  and  C_13
    4  A    between atoms: C_9  and  N_28
    5  A    between atoms: C_13  and  C_17
    6  A    between atoms: C_14  and  C_25
    7  A    between atoms: C_14  and  C_31
    8  A    between atoms: O_18  and  C_31
    9  A    between atoms: C_25  and  C_29
                            x       y       z     vdW  Elec       q    Type
                         _______ _______ _______ _____ _____    ______ ____

>  <TORSDO>
F 9

$$$$
=
 OpenBabel10232408143D

 32 34  0  0  1  0  0  0  0  0999 V2000
  190.5570  177.3710  145.6050 C   0  0  0  0  0  0  0  0  0  0  0  0
  190.1190  178.3250  144.5300 C   0  0  0  0  0  2  0  0  0  0  0  0
  185.0150  179.3150  143.7690 N   0  0  0  0  0  0  0  0  0  0  0  0
  191.2800  176.3310  145.3180 N   0  0  0  0  0  0  0  0  0  0  0  0
  189.9780  176.1610  142.2030 N   0  0  0  0  0  0  0  0  0  0  0  0
  185.3710  177.9660  144.2120 C   0  0  0  0  0  2  0  0  0  0  0  0
  190.5280  175.3020  143.2470 C   0  0  0  0  0  2  0  0  0  0  0  0
  188.9810  177.7670  143.7410 C   0  0  0  0  0  0  0  0  0  0  0  0
  187.5090  178.4520  141.2100 N   0  0  0  0  0  0  0  0  0  0  0  0
  191.6880  175.9740  143.9650 C   0  0  0  0  0  2  0  0  0  0  0  0
  187.7720  177.9810  144.1490 N   0  0  0  0  0  0  0  0  0  0  0  0
  189.2350  177.2120  142.4020 C   0  0  0  0  0  0  0  0  0  0  0  0
  186.3700  178.2400  142.1160 C   0  0  2  0  0  3  0  0  0  0  0  0
  188.7160  177.9630  141.2500 C   0  0  0  0  0  0  0  0  0  0  0  0
  185.6820  179.5300  142.4840 C   0  0  0  0  0  2  0  0  0  0  0  0
  186.5880  177.5200  143.4320 C   0  0  2  0  0  3  0  0  0  0  0  0
  189.2320  176.7800  147.6040 C   0  0  0  0  0  1  0  0  0  0  0  0
  190.1930  177.5850  146.9360 O   0  0  0  0  0  0  0  0  0  0  0  0
  183.5830  179.3130  143.5230 C   0  0  0  0  0  2  0  0  0  0  0  0
  181.1330  178.8250  140.9400 C   0  0  0  0  0  3  0  0  0  0  0  0
  183.2670  178.4080  142.3850 C   0  0  0  0  0  3  0  0  0  0  0  0
  182.2020  178.6150  141.6630 C   0  0  0  0  0  0  0  0  0  0  0  0
  179.9970  180.5020  142.3650 C   0  0  0  0  0  1  0  0  0  0  0  0
  180.3620  180.0290  141.0440 N   0  0  0  0  0  0  0  0  0  0  0  0
  180.5270  180.2060  138.6130 C   0  0  0  0  0  1  0  0  0  0  0  0
  180.0260  180.8560  139.8910 C   0  0  0  0  0  2  0  0  0  0  0  0
  189.6270  178.2320  140.0940 C   0  0  0  0  0  2  0  0  0  0  0  0
  189.1820  177.4730  138.8500 C   0  0  0  0  0  2  0  0  0  0  0  0
  188.9440  179.5880  137.7870 O   0  0  0  0  0  0  0  0  0  0  0  0
  188.5520  178.3940  137.8520 C   0  0  0  0  0  0  0  0  0  0  0  0
  187.5550  177.9560  136.9770 O   0  0  0  0  0  0  0  0  0  0  0  0
  186.2440  177.6360  137.4160 C   0  0  0  0  0  1  0  0  0  0  0  0
  1 18  1  0  0  0  0
  2  1  1  0  0  0  0
  3  6  1  0  0  0  0
  4  1  2  0  0  0  0
  5 12  2  0  0  0  0
  5  7  1  0  0  0  0
  7 10  1  0  0  0  0
  8 11  2  0  0  0  0
  8  2  1  0  0  0  0
  9 14  2  0  0  0  0
  9 13  1  0  0  0  0
 10  4  1  0  0  0  0
 12  8  1  0  0  0  0
 13 15  1  1  0  0  0
 13 16  1  0  0  0  0
 14 12  1  0  0  0  0
 15  3  1  0  0  0  0
 16 11  1  0  0  0  0
 16  6  1  1  0  0  0
 18 17  1  0  0  0  0
 19  3  1  0  0  0  0
 20 24  1  0  0  0  0
 20 22  2  0  0  0  0
 21 19  1  0  0  0  0
 22 21  2  0  0  0  0
 24 23  1  0  0  0  0
 25 26  1  0  0  0  0
 26 24  1  0  0  0  0
 27 14  1  0  0  0  0
 28 27  1  0  0  0  0
 29 30  2  0  0  0  0
 30 28  1  0  0  0  0
 31 32  1  0  0  0  0
 31 30  1  0  0  0  0
M  END
>  <MODEL>
8

>  <REMARK>
 VINA RESULT:      -6.5      3.452      7.111
  Name = 
  9 active torsions:
  status: ('A' for Active; 'I' for Inactive)
    1  A    between atoms: C_3  and  O_15
    2  A    between atoms: C_5  and  N_28
    3  A    between atoms: N_6  and  C_13
    4  A    between atoms: C_9  and  N_28
    5  A    between atoms: C_13  and  C_17
    6  A    between atoms: C_14  and  C_25
    7  A    between atoms: C_14  and  C_31
    8  A    between atoms: O_18  and  C_31
    9  A    between atoms: C_25  and  C_29
                            x       y       z     vdW  Elec       q    Type
                         _______ _______ _______ _____ _____    ______ ____

>  <TORSDO>
F 9

$$$$
=
 OpenBabel10232408143D

 32 34  0  0  1  0  0  0  0  0999 V2000
  192.9670  175.6960  137.8770 C   0  0  0  0  0  0  0  0  0  0  0  0
  192.1180  176.9150  138.1020 C   0  0  0  0  0  2  0  0  0  0  0  0
  190.5840  178.2290  142.9520 N   0  0  0  0  0  0  0  0  0  0  0  0
  192.5740  174.7480  137.0800 N   0  0  0  0  0  0  0  0  0  0  0  0
  189.3240  175.4550  137.6850 N   0  0  0  0  0  0  0  0  0  0  0  0
  190.7160  176.8000  142.6610 C   0  0  0  0  0  2  0  0  0  0  0  0
  190.1930  174.3320  137.3460 C   0  0  0  0  0  2  0  0  0  0  0  0
  190.9870  176.6230  139.0300 C   0  0  0  0  0  0  0  0  0  0  0  0
  188.4780  178.0030  139.9490 N   0  0  0  0  0  0  0  0  0  0  0  0
  191.2930  174.7530  136.3840 C   0  0  0  0  0  2  0  0  0  0  0  0
  191.1700  176.7570  140.3040 N   0  0  0  0  0  0  0  0  0  0  0  0
  189.6340  176.4380  138.4820 C   0  0  0  0  0  0  0  0  0  0  0  0
  189.0310  177.5920  141.2480 C   0  0  2  0  0  3  0  0  0  0  0  0
  188.6410  177.4850  138.7650 C   0  0  0  0  0  0  0  0  0  0  0  0
  189.5750  178.7580  142.0340 C   0  0  0  0  0  2  0  0  0  0  0  0
  190.1220  176.5400  141.2950 C   0  0  2  0  0  3  0  0  0  0  0  0
  194.9880  174.3820  138.4140 C   0  0  0  0  0  1  0  0  0  0  0  0
  194.1990  175.5580  138.5210 O   0  0  0  0  0  0  0  0  0  0  0  0
  190.0480  178.3360  144.2990 C   0  0  0  0  0  2  0  0  0  0  0  0
  186.7460  177.0790  144.9520 C   0  0  0  0  0  3  0  0  0  0  0  0
  189.3410  177.0790  144.6640 C   0  0  0  0  0  3  0  0  0  0  0  0
  188.0460  177.0780  144.8080 C   0  0  0  0  0  0  0  0  0  0  0  0
  185.7230  178.4120  143.1330 C   0  0  0  0  0  1  0  0  0  0  0  0
  185.9310  178.1870  144.5500 N   0  0  0  0  0  0  0  0  0  0  0  0
  185.7020  178.7600  146.9140 C   0  0  0  0  0  1  0  0  0  0  0  0
  185.2150  179.0290  145.5010 C   0  0  0  0  0  2  0  0  0  0  0  0
  187.8200  178.0230  137.6360 C   0  0  0  0  0  2  0  0  0  0  0  0
  186.5070  177.2630  137.4940 C   0  0  0  0  0  2  0  0  0  0  0  0
  185.5930  179.1630  138.5960 O   0  0  0  0  0  0  0  0  0  0  0  0
  185.3710  178.0300  138.0960 C   0  0  0  0  0  0  0  0  0  0  0  0
  184.0660  177.5290  138.0950 O   0  0  0  0  0  0  0  0  0  0  0  0
  183.7430  176.2480  137.5760 C   0  0  0  0  0  1  0  0  0  0  0  0
  1  2  1  0  0  0  0
  1 18  1  0  0  0  0
  2  8  1  0  0  0  0
  3 19  1  0  0  0  0
  4  1  2  0  0  0  0
  5 12  2  0  0  0  0
  6  3  1  0  0  0  0
  7  5  1  0  0  0  0
  8 11  2  0  0  0  0
  9 13  1  0  0  0  0
 10  4  1  0  0  0  0
 10  7  1  0  0  0  0
 11 16  1  0  0  0  0
 12 14  1  0  0  0  0
 12  8  1  0  0  0  0
 13 16  1  0  0  0  0
 13 15  1  6  0  0  0
 14  9  2  0  0  0  0
 15  3  1  0  0  0  0
 16  6  1  1  0  0  0
 17 18  1  0  0  0  0
 19 21  1  0  0  0  0
 21 22  2  0  0  0  0
 22 20  2  0  0  0  0
 23 24  1  0  0  0  0
 24 20  1  0  0  0  0
 24 26  1  0  0  0  0
 26 25  1  0  0  0  0
 27 14  1  0  0  0  0
 28 27  1  0  0  0  0
 28 30  1  0  0  0  0
 30 29  2  0  0  0  0
 31 30  1  0  0  0  0
 32 31  1  0  0  0  0
M  END
>  <MODEL>
9

>  <REMARK>
 VINA RESULT:      -6.5      1.561      5.474
  Name = 
  9 active torsions:
  status: ('A' for Active; 'I' for Inactive)
    1  A    between atoms: C_3  and  O_15
    2  A    between atoms: C_5  and  N_28
    3  A    between atoms: N_6  and  C_13
    4  A    between atoms: C_9  and  N_28
    5  A    between atoms: C_13  and  C_17
    6  A    between atoms: C_14  and  C_25
    7  A    between atoms: C_14  and  C_31
    8  A    between atoms: O_18  and  C_31
    9  A    between atoms: C_25  and  C_29
                            x       y       z     vdW  Elec       q    Type
                         _______ _______ _______ _____ _____    ______ ____

>  <TORSDO>
F 9

$$$$
