=
 OpenBabel10232410213D

 29 32  0  0  1  0  0  0  0  0999 V2000
  188.2150  178.2700  140.4030 C   0  0  0  0  0  2  0  0  0  0  0  0
  185.5230  174.0160  136.0000 S   0  0  0  0  0  0  0  0  0  0  0  0
  188.1540  175.9970  135.6880 S   0  0  0  0  0  0  0  0  0  0  0  0
  185.6670  175.6030  136.8000 C   0  0  0  0  0  0  0  0  0  0  0  0
  186.8540  177.9610  137.5200 S   0  0  0  0  0  0  0  0  0  0  0  0
  183.5570  174.9050  137.6570 C   0  0  0  0  0  2  0  0  0  0  0  0
  190.1260  175.6240  137.6370 C   0  0  0  0  0  3  0  0  0  0  0  0
  188.8960  177.4030  139.3940 C   0  0  0  0  0  0  0  0  0  0  0  0
  190.0400  176.6860  139.7640 C   0  0  0  0  0  3  0  0  0  0  0  0
  184.5700  175.9410  137.6290 N   0  0  0  0  0  2  0  0  0  0  0  0
  183.7440  174.0560  136.4020 C   0  0  0  0  0  2  0  0  0  0  0  0
  190.6280  175.8260  138.8860 N   0  0  0  0  0  0  0  0  0  0  0  0
  189.0080  176.3440  137.2190 C   0  0  0  0  0  0  0  0  0  0  0  0
  186.6670  176.4600  136.5700 C   0  0  0  0  0  0  0  0  0  0  0  0
  188.3960  177.2430  138.0930 C   0  0  0  0  0  0  0  0  0  0  0  0
  187.5690  176.4650  143.7470 C   0  0  0  0  0  2  0  0  0  0  0  0
  188.3400  177.1530  144.6950 O   0  0  0  0  0  0  0  0  0  0  0  0
  189.6690  176.8920  144.3400 C   0  0  0  0  0  2  0  0  0  0  0  0
  190.2880  178.0840  143.6030 C   0  0  1  0  0  3  0  0  0  0  0  0
  189.3380  178.7790  142.6210 C   0  0  0  0  0  2  0  0  0  0  0  0
  190.7580  179.0160  144.5280 O   0  0  0  0  0  1  0  0  0  0  0  0
  187.2110  177.3740  142.5630 C   0  0  2  0  0  3  0  0  0  0  0  0
  188.4980  177.7800  141.8200 C   0  0  1  0  0  3  0  0  0  0  0  0
  185.9480  179.3270  141.9120 O   0  0  0  0  0  1  0  0  0  0  0  0
  186.3420  178.5620  143.0130 C   0  0  1  0  0  3  0  0  0  0  0  0
  185.1000  178.0740  143.7470 C   0  0  0  0  0  2  0  0  0  0  0  0
  185.9120  179.1490  145.7120 O   0  0  0  0  0  1  0  0  0  0  0  0
  184.9130  178.8300  145.0180 C   0  0  0  0  0  0  0  0  0  0  0  0
  183.6400  179.2100  145.4180 O   0  0  0  0  0  0  0  0  0  0  0  0
  2 11  1  0  0  0  0
  2  4  1  0  0  0  0
  3 14  1  0  0  0  0
  3 13  1  0  0  0  0
  4 10  1  0  0  0  0
  5 15  1  0  0  0  0
  7 12  1  0  0  0  0
  8  9  1  0  0  0  0
  8  1  1  0  0  0  0
 10  6  1  0  0  0  0
 11  6  1  0  0  0  0
 12  9  2  0  0  0  0
 13  7  2  0  0  0  0
 13 15  1  0  0  0  0
 14  4  2  0  0  0  0
 14  5  1  0  0  0  0
 15  8  2  0  0  0  0
 16 17  1  0  0  0  0
 18 17  1  0  0  0  0
 19 18  1  0  0  0  0
 19 21  1  1  0  0  0
 20 19  1  0  0  0  0
 22 25  1  1  0  0  0
 22 16  1  0  0  0  0
 23  1  1  6  0  0  0
 23 22  1  0  0  0  0
 23 20  1  0  0  0  0
 25 24  1  6  0  0  0
 25 26  1  0  0  0  0
 26 28  1  0  0  0  0
 28 29  2  0  0  0  0
 28 27  1  0  0  0  0
M  END
>  <MODEL>
1

>  <REMARK>
 VINA RESULT:      -6.9      0.000      0.000
  Name = 
  5 active torsions:
  status: ('A' for Active; 'I' for Inactive)
    1  A    between atoms: C_4  and  C_23
    2  A    between atoms: C_10  and  C_15
    3  A    between atoms: C_15  and  C_28
    4  A    between atoms: C_23  and  C_24
    5  A    between atoms: C_24  and  C_26
                            x       y       z     vdW  Elec       q    Type
                         _______ _______ _______ _____ _____    ______ ____

>  <TORSDO>
F 5

$$$$
=
 OpenBabel10232410213D

 29 32  0  0  1  0  0  0  0  0999 V2000
  188.4830  178.2740  140.4280 C   0  0  0  0  0  2  0  0  0  0  0  0
  187.3480  174.1280  135.3040 S   0  0  0  0  0  0  0  0  0  0  0  0
  189.4640  176.6600  135.5460 S   0  0  0  0  0  0  0  0  0  0  0  0
  187.0320  175.5940  136.2690 C   0  0  0  0  0  0  0  0  0  0  0  0
  187.5520  178.0430  137.3720 S   0  0  0  0  0  0  0  0  0  0  0  0
  185.0620  174.3480  136.7620 C   0  0  0  0  0  2  0  0  0  0  0  0
  191.2460  176.4830  137.6960 C   0  0  0  0  0  3  0  0  0  0  0  0
  189.4520  177.7110  139.4390 C   0  0  0  0  0  0  0  0  0  0  0  0
  190.6850  177.2220  139.8860 C   0  0  0  0  0  3  0  0  0  0  0  0
  185.8020  175.5750  136.9730 N   0  0  0  0  0  2  0  0  0  0  0  0
  185.5750  173.7270  135.4660 C   0  0  0  0  0  2  0  0  0  0  0  0
  191.5490  176.6290  139.0140 N   0  0  0  0  0  0  0  0  0  0  0  0
  190.0420  176.9880  137.2040 C   0  0  0  0  0  0  0  0  0  0  0  0
  187.8240  176.6700  136.2610 C   0  0  0  0  0  0  0  0  0  0  0  0
  189.1470  177.6130  138.0720 C   0  0  0  0  0  0  0  0  0  0  0  0
  187.8820  176.3580  143.7180 C   0  0  0  0  0  2  0  0  0  0  0  0
  188.6300  177.0420  144.6880 O   0  0  0  0  0  0  0  0  0  0  0  0
  189.9660  176.8310  144.3300 C   0  0  0  0  0  2  0  0  0  0  0  0
  190.5520  178.0610  143.6290 C   0  0  1  0  0  3  0  0  0  0  0  0
  189.5840  178.7540  142.6640 C   0  0  0  0  0  2  0  0  0  0  0  0
  190.9900  178.9800  144.5810 O   0  0  0  0  0  1  0  0  0  0  0  0
  187.5010  177.2880  142.5590 C   0  0  2  0  0  3  0  0  0  0  0  0
  188.7760  177.7530  141.8320 C   0  0  1  0  0  3  0  0  0  0  0  0
  186.1000  179.1600  141.9490 O   0  0  0  0  0  1  0  0  0  0  0  0
  186.5950  178.4370  143.0380 C   0  0  1  0  0  3  0  0  0  0  0  0
  185.4230  177.8980  143.8480 C   0  0  0  0  0  2  0  0  0  0  0  0
  184.1510  179.1750  145.4070 O   0  0  0  0  0  0  0  0  0  0  0  0
  185.2650  178.6680  145.1140 C   0  0  0  0  0  0  0  0  0  0  0  0
  186.3360  178.7970  145.9870 O   0  0  0  0  0  1  0  0  0  0  0  0
  2 11  1  0  0  0  0
  2  4  1  0  0  0  0
  3 14  1  0  0  0  0
  3 13  1  0  0  0  0
  4 10  1  0  0  0  0
  5 15  1  0  0  0  0
  6 10  1  0  0  0  0
  7 12  1  0  0  0  0
  8  9  1  0  0  0  0
  8  1  1  0  0  0  0
 11  6  1  0  0  0  0
 12  9  2  0  0  0  0
 13  7  2  0  0  0  0
 13 15  1  0  0  0  0
 14  4  2  0  0  0  0
 14  5  1  0  0  0  0
 15  8  2  0  0  0  0
 16 17  1  0  0  0  0
 18 17  1  0  0  0  0
 19 18  1  0  0  0  0
 19 21  1  1  0  0  0
 20 19  1  0  0  0  0
 22 25  1  1  0  0  0
 22 16  1  0  0  0  0
 23  1  1  6  0  0  0
 23 22  1  0  0  0  0
 23 20  1  0  0  0  0
 25 24  1  6  0  0  0
 25 26  1  0  0  0  0
 26 28  1  0  0  0  0
 28 27  2  0  0  0  0
 28 29  1  0  0  0  0
M  END
>  <MODEL>
2

>  <REMARK>
 VINA RESULT:      -6.6      0.946      1.158
  Name = 
  5 active torsions:
  status: ('A' for Active; 'I' for Inactive)
    1  A    between atoms: C_4  and  C_23
    2  A    between atoms: C_10  and  C_15
    3  A    between atoms: C_15  and  C_28
    4  A    between atoms: C_23  and  C_24
    5  A    between atoms: C_24  and  C_26
                            x       y       z     vdW  Elec       q    Type
                         _______ _______ _______ _____ _____    ______ ____

>  <TORSDO>
F 5

$$$$
=
 OpenBabel10232410213D

 29 32  0  0  1  0  0  0  0  0999 V2000
  192.7330  174.5440  137.9380 C   0  0  0  0  0  2  0  0  0  0  0  0
  188.3320  177.3670  142.1080 S   0  0  0  0  0  0  0  0  0  0  0  0
  189.1460  178.2020  139.0120 S   0  0  0  0  0  0  0  0  0  0  0  0
  189.9630  177.1480  141.4200 C   0  0  0  0  0  0  0  0  0  0  0  0
  191.9180  177.2140  139.5070 S   0  0  0  0  0  0  0  0  0  0  0  0
  190.3040  176.2120  143.5840 C   0  0  0  0  0  2  0  0  0  0  0  0
  188.8470  176.1450  137.1380 C   0  0  0  0  0  3  0  0  0  0  0  0
  191.4070  175.1620  137.6310 C   0  0  0  0  0  0  0  0  0  0  0  0
  190.5340  174.5130  136.7500 C   0  0  0  0  0  3  0  0  0  0  0  0
  190.8910  176.5400  142.3000 N   0  0  0  0  0  2  0  0  0  0  0  0
  189.0700  177.0920  143.7550 C   0  0  0  0  0  2  0  0  0  0  0  0
  189.2880  175.0160  136.5200 N   0  0  0  0  0  0  0  0  0  0  0  0
  189.6990  176.8390  137.9970 C   0  0  0  0  0  0  0  0  0  0  0  0
  190.3260  177.6060  140.2180 C   0  0  0  0  0  0  0  0  0  0  0  0
  190.9850  176.3550  138.2370 C   0  0  0  0  0  0  0  0  0  0  0  0
  195.5440  173.7060  135.4380 C   0  0  0  0  0  2  0  0  0  0  0  0
  196.1270  174.9380  135.1080 O   0  0  0  0  0  0  0  0  0  0  0  0
  195.1390  175.6270  134.3950 C   0  0  0  0  0  2  0  0  0  0  0  0
  194.4500  176.6740  135.2770 C   0  0  1  0  0  3  0  0  0  0  0  0
  194.2000  176.2160  136.7180 C   0  0  0  0  0  2  0  0  0  0  0  0
  195.2050  177.8470  135.2900 O   0  0  0  0  0  1  0  0  0  0  0  0
  194.8820  173.7620  136.8210 C   0  0  2  0  0  3  0  0  0  0  0  0
  193.7140  174.7660  136.7910 C   0  0  1  0  0  3  0  0  0  0  0  0
  195.5460  173.4000  139.1150 O   0  0  0  0  0  1  0  0  0  0  0  0
  195.9170  174.0340  137.9270 C   0  0  1  0  0  3  0  0  0  0  0  0
  197.2950  173.5360  137.5100 C   0  0  0  0  0  2  0  0  0  0  0  0
  199.3240  174.6870  137.0210 O   0  0  0  0  0  0  0  0  0  0  0  0
  198.3310  174.5710  137.7860 C   0  0  0  0  0  0  0  0  0  0  0  0
  198.1840  175.4300  138.8660 O   0  0  0  0  0  1  0  0  0  0  0  0
  2 11  1  0  0  0  0
  3 14  1  0  0  0  0
  4  2  1  0  0  0  0
  4 10  1  0  0  0  0
  5 14  1  0  0  0  0
  6 11  1  0  0  0  0
  7 13  1  0  0  0  0
  8  1  1  0  0  0  0
  8 15  1  0  0  0  0
  9  8  2  0  0  0  0
 10  6  1  0  0  0  0
 12  9  1  0  0  0  0
 12  7  2  0  0  0  0
 13 15  2  0  0  0  0
 13  3  1  0  0  0  0
 14  4  2  0  0  0  0
 15  5  1  0  0  0  0
 16 22  1  0  0  0  0
 17 16  1  0  0  0  0
 18 17  1  0  0  0  0
 18 19  1  0  0  0  0
 19 21  1  1  0  0  0
 19 20  1  0  0  0  0
 20 23  1  0  0  0  0
 22 25  1  1  0  0  0
 23 22  1  0  0  0  0
 23  1  1  1  0  0  0
 25 24  1  1  0  0  0
 26 28  1  0  0  0  0
 26 25  1  0  0  0  0
 27 28  2  0  0  0  0
 28 29  1  0  0  0  0
M  END
>  <MODEL>
3

>  <REMARK>
 VINA RESULT:      -6.1      5.854      9.520
  Name = 
  5 active torsions:
  status: ('A' for Active; 'I' for Inactive)
    1  A    between atoms: C_4  and  C_23
    2  A    between atoms: C_10  and  C_15
    3  A    between atoms: C_15  and  C_28
    4  A    between atoms: C_23  and  C_24
    5  A    between atoms: C_24  and  C_26
                            x       y       z     vdW  Elec       q    Type
                         _______ _______ _______ _____ _____    ______ ____

>  <TORSDO>
F 5

$$$$
=
 OpenBabel10232410213D

 29 32  0  0  1  0  0  0  0  0999 V2000
  193.0930  176.5290  137.8010 C   0  0  0  0  0  2  0  0  0  0  0  0
  199.3690  174.2260  137.5850 S   0  0  0  0  0  0  0  0  0  0  0  0
  196.6430  173.0750  136.1040 S   0  0  0  0  0  0  0  0  0  0  0  0
  197.7360  174.3390  138.2910 C   0  0  0  0  0  0  0  0  0  0  0  0
  195.0180  174.0430  138.4120 S   0  0  0  0  0  0  0  0  0  0  0  0
  198.9870  175.4730  139.9710 C   0  0  0  0  0  2  0  0  0  0  0  0
  195.3130  174.9460  134.5030 C   0  0  0  0  0  3  0  0  0  0  0  0
  193.8320  175.9140  136.6560 C   0  0  0  0  0  0  0  0  0  0  0  0
  193.7360  176.4930  135.3850 C   0  0  0  0  0  3  0  0  0  0  0  0
  197.6850  175.0090  139.5380 N   0  0  0  0  0  2  0  0  0  0  0  0
  200.0320  174.6420  139.2330 C   0  0  0  0  0  2  0  0  0  0  0  0
  194.4660  175.9990  134.3460 N   0  0  0  0  0  0  0  0  0  0  0  0
  195.4110  174.3200  135.7460 C   0  0  0  0  0  0  0  0  0  0  0  0
  196.6560  173.7590  137.7580 C   0  0  0  0  0  0  0  0  0  0  0  0
  194.6640  174.7950  136.8230 C   0  0  0  0  0  0  0  0  0  0  0  0
  189.3510  177.4260  138.0060 C   0  0  0  0  0  2  0  0  0  0  0  0
  188.6770  176.1980  138.0750 O   0  0  0  0  0  0  0  0  0  0  0  0
  188.8860  175.6000  136.8270 C   0  0  0  0  0  2  0  0  0  0  0  0
  189.9730  174.5220  136.9050 C   0  0  1  0  0  3  0  0  0  0  0  0
  191.1580  174.8880  137.8050 C   0  0  0  0  0  2  0  0  0  0  0  0
  189.4130  173.3220  137.3440 O   0  0  0  0  0  1  0  0  0  0  0  0
  190.7840  177.3000  138.5400 C   0  0  2  0  0  3  0  0  0  0  0  0
  191.5880  176.3480  137.6350 C   0  0  1  0  0  3  0  0  0  0  0  0
  191.9250  177.4300  140.6660 O   0  0  0  0  0  1  0  0  0  0  0  0
  190.7940  176.9110  140.0300 C   0  0  1  0  0  3  0  0  0  0  0  0
  189.5470  177.4340  140.7320 C   0  0  0  0  0  2  0  0  0  0  0  0
  189.5650  178.2360  142.9760 O   0  0  0  0  0  1  0  0  0  0  0  0
  189.6590  177.2460  142.2060 C   0  0  0  0  0  0  0  0  0  0  0  0
  189.8330  175.9730  142.7320 O   0  0  0  0  0  0  0  0  0  0  0  0
  2  4  1  0  0  0  0
  2 11  1  0  0  0  0
  3 14  1  0  0  0  0
  4 10  1  0  0  0  0
  7 13  1  0  0  0  0
  8 15  1  0  0  0  0
  8  1  1  0  0  0  0
  9  8  2  0  0  0  0
 10  6  1  0  0  0  0
 11  6  1  0  0  0  0
 12  7  2  0  0  0  0
 12  9  1  0  0  0  0
 13  3  1  0  0  0  0
 13 15  2  0  0  0  0
 14  4  2  0  0  0  0
 14  5  1  0  0  0  0
 15  5  1  0  0  0  0
 16 17  1  0  0  0  0
 16 22  1  0  0  0  0
 18 19  1  0  0  0  0
 18 17  1  0  0  0  0
 19 21  1  1  0  0  0
 19 20  1  0  0  0  0
 22 25  1  1  0  0  0
 23  1  1  1  0  0  0
 23 20  1  0  0  0  0
 23 22  1  0  0  0  0
 25 24  1  1  0  0  0
 25 26  1  0  0  0  0
 26 28  1  0  0  0  0
 28 29  2  0  0  0  0
 28 27  1  0  0  0  0
M  END
>  <MODEL>
4

>  <REMARK>
 VINA RESULT:      -5.7      5.659      8.656
  Name = 
  5 active torsions:
  status: ('A' for Active; 'I' for Inactive)
    1  A    between atoms: C_4  and  C_23
    2  A    between atoms: C_10  and  C_15
    3  A    between atoms: C_15  and  C_28
    4  A    between atoms: C_23  and  C_24
    5  A    between atoms: C_24  and  C_26
                            x       y       z     vdW  Elec       q    Type
                         _______ _______ _______ _____ _____    ______ ____

>  <TORSDO>
F 5

$$$$
=
 OpenBabel10232410213D

 29 32  0  0  1  0  0  0  0  0999 V2000
  189.4420  178.4470  140.1830 C   0  0  0  0  0  2  0  0  0  0  0  0
  192.3190  175.3170  135.0190 S   0  0  0  0  0  0  0  0  0  0  0  0
  189.7920  174.3610  136.9290 S   0  0  0  0  0  0  0  0  0  0  0  0
  192.1680  175.7380  136.7450 C   0  0  0  0  0  0  0  0  0  0  0  0
  191.0130  175.8250  139.2240 S   0  0  0  0  0  0  0  0  0  0  0  0
  194.1790  176.9010  136.2150 C   0  0  0  0  0  2  0  0  0  0  0  0
  187.6610  176.1710  137.0270 C   0  0  0  0  0  3  0  0  0  0  0  0
  188.8120  177.5960  139.1260 C   0  0  0  0  0  0  0  0  0  0  0  0
  187.6170  178.0160  138.5290 C   0  0  0  0  0  3  0  0  0  0  0  0
  193.2090  176.5630  137.2380 N   0  0  0  0  0  2  0  0  0  0  0  0
  194.0610  175.8500  135.1160 C   0  0  0  0  0  2  0  0  0  0  0  0
  187.0700  177.2990  137.5070 N   0  0  0  0  0  0  0  0  0  0  0  0
  188.8340  175.7020  137.6180 C   0  0  0  0  0  0  0  0  0  0  0  0
  191.2210  175.2430  137.5480 C   0  0  0  0  0  0  0  0  0  0  0  0
  189.4070  176.4080  138.6760 C   0  0  0  0  0  0  0  0  0  0  0  0
  188.8490  175.8530  142.9710 C   0  0  0  0  0  2  0  0  0  0  0  0
  189.6070  176.3010  144.0620 O   0  0  0  0  0  0  0  0  0  0  0  0
  190.9400  176.1660  143.6560 C   0  0  0  0  0  2  0  0  0  0  0  0
  191.5300  177.5180  143.2400 C   0  0  1  0  0  3  0  0  0  0  0  0
  190.5610  178.4130  142.4600 C   0  0  0  0  0  2  0  0  0  0  0  0
  191.9810  178.2010  144.3690 O   0  0  0  0  0  1  0  0  0  0  0  0
  188.4660  177.0190  142.0490 C   0  0  2  0  0  3  0  0  0  0  0  0
  189.7410  177.6260  141.4330 C   0  0  1  0  0  3  0  0  0  0  0  0
  186.8340  178.7900  141.8600 O   0  0  0  0  0  1  0  0  0  0  0  0
  187.5720  178.0390  142.7780 C   0  0  1  0  0  3  0  0  0  0  0  0
  186.6120  177.3330  143.7260 C   0  0  0  0  0  2  0  0  0  0  0  0
  187.6020  178.0850  145.7590 O   0  0  0  0  0  1  0  0  0  0  0  0
  186.5690  178.0290  145.0420 C   0  0  0  0  0  0  0  0  0  0  0  0
  185.4000  178.6470  145.4630 O   0  0  0  0  0  0  0  0  0  0  0  0
  2 11  1  0  0  0  0
  2  4  1  0  0  0  0
  3 14  1  0  0  0  0
  3 13  1  0  0  0  0
  4 10  1  0  0  0  0
  4 14  2  0  0  0  0
  6 10  1  0  0  0  0
  7 12  2  0  0  0  0
  7 13  1  0  0  0  0
  8  1  1  0  0  0  0
  9  8  2  0  0  0  0
 11  6  1  0  0  0  0
 12  9  1  0  0  0  0
 13 15  2  0  0  0  0
 14  5  1  0  0  0  0
 15  8  1  0  0  0  0
 15  5  1  0  0  0  0
 16 17  1  0  0  0  0
 18 17  1  0  0  0  0
 19 18  1  0  0  0  0
 19 21  1  1  0  0  0
 20 19  1  0  0  0  0
 22 25  1  1  0  0  0
 22 16  1  0  0  0  0
 23  1  1  6  0  0  0
 23 22  1  0  0  0  0
 23 20  1  0  0  0  0
 25 24  1  6  0  0  0
 25 26  1  0  0  0  0
 26 28  1  0  0  0  0
 28 29  2  0  0  0  0
 28 27  1  0  0  0  0
M  END
>  <MODEL>
5

>  <REMARK>
 VINA RESULT:      -5.4      2.233      4.244
  Name = 
  5 active torsions:
  status: ('A' for Active; 'I' for Inactive)
    1  A    between atoms: C_4  and  C_23
    2  A    between atoms: C_10  and  C_15
    3  A    between atoms: C_15  and  C_28
    4  A    between atoms: C_23  and  C_24
    5  A    between atoms: C_24  and  C_26
                            x       y       z     vdW  Elec       q    Type
                         _______ _______ _______ _____ _____    ______ ____

>  <TORSDO>
F 5

$$$$
=
 OpenBabel10232410213D

 29 32  0  0  1  0  0  0  0  0999 V2000
  188.6170  177.8740  140.9900 C   0  0  0  0  0  2  0  0  0  0  0  0
  187.9690  178.5080  147.6160 S   0  0  0  0  0  0  0  0  0  0  0  0
  189.9310  176.4990  145.8670 S   0  0  0  0  0  0  0  0  0  0  0  0
  187.5260  177.8270  146.0290 C   0  0  0  0  0  0  0  0  0  0  0  0
  187.8570  176.3900  143.7240 S   0  0  0  0  0  0  0  0  0  0  0  0
  185.6030  179.1710  146.4490 C   0  0  0  0  0  2  0  0  0  0  0  0
  191.6080  177.8060  144.0490 C   0  0  0  0  0  3  0  0  0  0  0  0
  189.6640  177.7780  142.0520 C   0  0  0  0  0  0  0  0  0  0  0  0
  190.8970  178.4130  141.8610 C   0  0  0  0  0  3  0  0  0  0  0  0
  186.2650  178.2530  145.5430 N   0  0  0  0  0  2  0  0  0  0  0  0
  186.2150  178.9610  147.8310 C   0  0  0  0  0  2  0  0  0  0  0  0
  191.8350  178.4090  142.8500 N   0  0  0  0  0  0  0  0  0  0  0  0
  190.4050  177.1340  144.2650 C   0  0  0  0  0  0  0  0  0  0  0  0
  188.2580  176.9130  145.3850 C   0  0  0  0  0  0  0  0  0  0  0  0
  189.4350  177.1090  143.2640 C   0  0  0  0  0  0  0  0  0  0  0  0
  189.3730  178.5730  137.2760 C   0  0  0  0  0  2  0  0  0  0  0  0
  189.6500  177.3190  136.7110 O   0  0  0  0  0  0  0  0  0  0  0  0
  190.8520  176.9130  137.3030 C   0  0  0  0  0  2  0  0  0  0  0  0
  190.6020  175.8830  138.4090 C   0  0  1  0  0  3  0  0  0  0  0  0
  189.3650  176.1680  139.2660 C   0  0  0  0  0  2  0  0  0  0  0  0
  190.4910  174.6100  137.8490 O   0  0  0  0  0  1  0  0  0  0  0  0
  188.4740  178.4340  138.5120 C   0  0  2  0  0  3  0  0  0  0  0  0
  189.2240  177.6540  139.6080 C   0  0  1  0  0  3  0  0  0  0  0  0
  186.0930  178.4130  138.9190 O   0  0  0  0  0  1  0  0  0  0  0  0
  187.1030  177.8400  138.1420 C   0  0  1  0  0  3  0  0  0  0  0  0
  186.7900  178.0770  136.6710 C   0  0  0  0  0  2  0  0  0  0  0  0
  185.3140  176.9310  135.1920 O   0  0  0  0  0  0  0  0  0  0  0  0
  186.2320  176.8440  136.0490 C   0  0  0  0  0  0  0  0  0  0  0  0
  186.7460  175.6000  136.3890 O   0  0  0  0  0  1  0  0  0  0  0  0
  1  8  1  0  0  0  0
  2 11  1  0  0  0  0
  4  2  1  0  0  0  0
  5 14  1  0  0  0  0
  6 11  1  0  0  0  0
  7 13  1  0  0  0  0
  8 15  1  0  0  0  0
  9  8  2  0  0  0  0
  9 12  1  0  0  0  0
 10  4  1  0  0  0  0
 10  6  1  0  0  0  0
 12  7  2  0  0  0  0
 13  3  1  0  0  0  0
 14  3  1  0  0  0  0
 14  4  2  0  0  0  0
 15  5  1  0  0  0  0
 15 13  2  0  0  0  0
 16 22  1  0  0  0  0
 17 16  1  0  0  0  0
 17 18  1  0  0  0  0
 18 19  1  0  0  0  0
 19 21  1  6  0  0  0
 19 20  1  0  0  0  0
 20 23  1  0  0  0  0
 22 25  1  6  0  0  0
 22 23  1  0  0  0  0
 23  1  1  1  0  0  0
 25 24  1  1  0  0  0
 26 25  1  0  0  0  0
 27 28  2  0  0  0  0
 28 29  1  0  0  0  0
 28 26  1  0  0  0  0
M  END
>  <MODEL>
6

>  <REMARK>
 VINA RESULT:      -5.3      4.452      7.617
  Name = 
  5 active torsions:
  status: ('A' for Active; 'I' for Inactive)
    1  A    between atoms: C_4  and  C_23
    2  A    between atoms: C_10  and  C_15
    3  A    between atoms: C_15  and  C_28
    4  A    between atoms: C_23  and  C_24
    5  A    between atoms: C_24  and  C_26
                            x       y       z     vdW  Elec       q    Type
                         _______ _______ _______ _____ _____    ______ ____

>  <TORSDO>
F 5

$$$$
=
 OpenBabel10232410213D

 29 32  0  0  1  0  0  0  0  0999 V2000
  190.2800  176.6210  140.8840 C   0  0  0  0  0  2  0  0  0  0  0  0
  193.2130  176.5130  134.8740 S   0  0  0  0  0  0  0  0  0  0  0  0
  190.0010  176.4070  135.6600 S   0  0  0  0  0  0  0  0  0  0  0  0
  192.5820  175.7450  136.3530 C   0  0  0  0  0  0  0  0  0  0  0  0
  190.6970  174.9610  138.1760 S   0  0  0  0  0  0  0  0  0  0  0  0
  194.9170  175.4150  136.6880 C   0  0  0  0  0  2  0  0  0  0  0  0
  189.1210  178.5420  137.2400 C   0  0  0  0  0  3  0  0  0  0  0  0
  189.8250  177.2410  139.6010 C   0  0  0  0  0  0  0  0  0  0  0  0
  189.3240  178.5480  139.6100 C   0  0  0  0  0  3  0  0  0  0  0  0
  193.5800  175.2100  137.2050 N   0  0  0  0  0  2  0  0  0  0  0  0
  194.7900  175.6500  135.1850 C   0  0  0  0  0  2  0  0  0  0  0  0
  188.9810  179.1620  138.4430 N   0  0  0  0  0  0  0  0  0  0  0  0
  189.5850  177.2270  137.1920 C   0  0  0  0  0  0  0  0  0  0  0  0
  191.2790  175.5840  136.6060 C   0  0  0  0  0  0  0  0  0  0  0  0
  189.9280  176.5700  138.3730 C   0  0  0  0  0  0  0  0  0  0  0  0
  190.0210  178.7890  144.0600 C   0  0  0  0  0  2  0  0  0  0  0  0
  188.9330  178.2680  144.7770 O   0  0  0  0  0  0  0  0  0  0  0  0
  187.8110  178.5580  143.9920 C   0  0  0  0  0  2  0  0  0  0  0  0
  187.3430  177.3200  143.2190 C   0  0  1  0  0  3  0  0  0  0  0  0
  188.4820  176.4560  142.6670 C   0  0  0  0  0  2  0  0  0  0  0  0
  186.5260  176.5380  144.0340 O   0  0  0  0  0  1  0  0  0  0  0  0
  190.6430  177.7210  143.1490 C   0  0  2  0  0  3  0  0  0  0  0  0
  189.6190  177.2980  142.0790 C   0  0  1  0  0  3  0  0  0  0  0  0
  192.0810  175.7800  143.1880 O   0  0  0  0  0  1  0  0  0  0  0  0
  191.2150  176.5500  143.9690 C   0  0  1  0  0  3  0  0  0  0  0  0
  191.9710  177.0640  145.1870 C   0  0  0  0  0  2  0  0  0  0  0  0
  192.3820  175.3990  146.8410 O   0  0  0  0  0  0  0  0  0  0  0  0
  191.6020  176.2820  146.4010 C   0  0  0  0  0  0  0  0  0  0  0  0
  190.4130  176.5510  147.0650 O   0  0  0  0  0  1  0  0  0  0  0  0
  2 11  1  0  0  0  0
  2  4  1  0  0  0  0
  3 14  1  0  0  0  0
  3 13  1  0  0  0  0
  4 14  2  0  0  0  0
  4 10  1  0  0  0  0
  5 15  1  0  0  0  0
  6 10  1  0  0  0  0
  7 12  1  0  0  0  0
  8  9  1  0  0  0  0
  8  1  1  0  0  0  0
 11  6  1  0  0  0  0
 12  9  2  0  0  0  0
 13  7  2  0  0  0  0
 13 15  1  0  0  0  0
 14  5  1  0  0  0  0
 15  8  2  0  0  0  0
 16 17  1  0  0  0  0
 18 17  1  0  0  0  0
 19 18  1  0  0  0  0
 19 21  1  1  0  0  0
 20 19  1  0  0  0  0
 22 25  1  1  0  0  0
 22 16  1  0  0  0  0
 23  1  1  6  0  0  0
 23 20  1  0  0  0  0
 23 22  1  0  0  0  0
 25 24  1  6  0  0  0
 25 26  1  0  0  0  0
 26 28  1  0  0  0  0
 28 27  2  0  0  0  0
 28 29  1  0  0  0  0
M  END
>  <MODEL>
7

>  <REMARK>
 VINA RESULT:      -5.3      3.120      5.609
  Name = 
  5 active torsions:
  status: ('A' for Active; 'I' for Inactive)
    1  A    between atoms: C_4  and  C_23
    2  A    between atoms: C_10  and  C_15
    3  A    between atoms: C_15  and  C_28
    4  A    between atoms: C_23  and  C_24
    5  A    between atoms: C_24  and  C_26
                            x       y       z     vdW  Elec       q    Type
                         _______ _______ _______ _____ _____    ______ ____

>  <TORSDO>
F 5

$$$$
=
 OpenBabel10232410213D

 29 32  0  0  1  0  0  0  0  0999 V2000
  186.7660  178.7170  140.0590 C   0  0  0  0  0  2  0  0  0  0  0  0
  190.3780  174.0100  136.9710 S   0  0  0  0  0  0  0  0  0  0  0  0
  191.3730  176.5380  138.8600 S   0  0  0  0  0  0  0  0  0  0  0  0
  189.5370  175.5800  137.0470 C   0  0  0  0  0  0  0  0  0  0  0  0
  189.0490  178.1380  137.8880 S   0  0  0  0  0  0  0  0  0  0  0  0
  188.0910  174.4140  135.5550 C   0  0  0  0  0  2  0  0  0  0  0  0
  190.2300  176.6010  141.4130 C   0  0  0  0  0  3  0  0  0  0  0  0
  188.0160  178.0360  140.5170 C   0  0  0  0  0  0  0  0  0  0  0  0
  188.1110  177.5940  141.8420 C   0  0  0  0  0  3  0  0  0  0  0  0
  188.3630  175.6520  136.2560 N   0  0  0  0  0  2  0  0  0  0  0  0
  189.4050  173.6430  135.4720 C   0  0  0  0  0  2  0  0  0  0  0  0
  189.2060  176.8980  142.2590 N   0  0  0  0  0  0  0  0  0  0  0  0
  190.1880  177.0530  140.0940 C   0  0  0  0  0  0  0  0  0  0  0  0
  190.0100  176.6430  137.7040 C   0  0  0  0  0  0  0  0  0  0  0  0
  189.0860  177.7810  139.6460 C   0  0  0  0  0  0  0  0  0  0  0  0
  183.3120  177.6630  141.4050 C   0  0  0  0  0  2  0  0  0  0  0  0
  183.0520  178.5280  142.4790 O   0  0  0  0  0  0  0  0  0  0  0  0
  183.9940  178.1850  143.4560 C   0  0  0  0  0  2  0  0  0  0  0  0
  185.1510  179.1880  143.4850 C   0  0  1  0  0  3  0  0  0  0  0  0
  185.6000  179.6700  142.1010 C   0  0  0  0  0  2  0  0  0  0  0  0
  184.7990  180.2900  144.2650 O   0  0  0  0  0  1  0  0  0  0  0  0
  184.2790  178.3060  140.4010 C   0  0  2  0  0  3  0  0  0  0  0  0
  185.6440  178.5340  141.0760 C   0  0  1  0  0  3  0  0  0  0  0  0
  184.5550  180.1340  138.8460 O   0  0  0  0  0  1  0  0  0  0  0  0
  183.6700  179.5710  139.7690 C   0  0  1  0  0  3  0  0  0  0  0  0
  182.3600  179.2450  139.0640 C   0  0  0  0  0  2  0  0  0  0  0  0
  180.5250  179.8930  140.4390 O   0  0  0  0  0  1  0  0  0  0  0  0
  181.2890  180.1920  139.4850 C   0  0  0  0  0  0  0  0  0  0  0  0
  181.1570  181.4180  138.8480 O   0  0  0  0  0  0  0  0  0  0  0  0
  1  8  1  0  0  0  0
  2  4  1  0  0  0  0
  3 13  1  0  0  0  0
  4 14  2  0  0  0  0
  5 15  1  0  0  0  0
  6 10  1  0  0  0  0
  7 12  1  0  0  0  0
  8  9  1  0  0  0  0
  9 12  2  0  0  0  0
 10  4  1  0  0  0  0
 11  6  1  0  0  0  0
 11  2  1  0  0  0  0
 13  7  2  0  0  0  0
 14  5  1  0  0  0  0
 14  3  1  0  0  0  0
 15 13  1  0  0  0  0
 15  8  2  0  0  0  0
 16 17  1  0  0  0  0
 17 18  1  0  0  0  0
 18 19  1  0  0  0  0
 19 21  1  1  0  0  0
 20 19  1  0  0  0  0
 22 25  1  1  0  0  0
 22 23  1  0  0  0  0
 22 16  1  0  0  0  0
 23  1  1  6  0  0  0
 23 20  1  0  0  0  0
 25 24  1  6  0  0  0
 26 28  1  0  0  0  0
 26 25  1  0  0  0  0
 28 27  1  0  0  0  0
 29 28  2  0  0  0  0
M  END
>  <MODEL>
8

>  <REMARK>
 VINA RESULT:      -5.2      3.149      4.645
  Name = 
  5 active torsions:
  status: ('A' for Active; 'I' for Inactive)
    1  A    between atoms: C_4  and  C_23
    2  A    between atoms: C_10  and  C_15
    3  A    between atoms: C_15  and  C_28
    4  A    between atoms: C_23  and  C_24
    5  A    between atoms: C_24  and  C_26
                            x       y       z     vdW  Elec       q    Type
                         _______ _______ _______ _____ _____    ______ ____

>  <TORSDO>
F 5

$$$$
=
 OpenBabel10232410213D

 29 32  0  0  1  0  0  0  0  0999 V2000
  186.1530  178.7360  141.6740 C   0  0  0  0  0  2  0  0  0  0  0  0
  179.9820  180.8370  140.1790 S   0  0  0  0  0  0  0  0  0  0  0  0
  180.9560  178.4130  142.2100 S   0  0  0  0  0  0  0  0  0  0  0  0
  181.4370  179.8430  139.9070 C   0  0  0  0  0  0  0  0  0  0  0  0
  183.3100  177.9210  140.4440 S   0  0  0  0  0  0  0  0  0  0  0  0
  181.6010  181.3230  138.0480 C   0  0  0  0  0  2  0  0  0  0  0  0
  182.7400  179.2190  144.2080 C   0  0  0  0  0  3  0  0  0  0  0  0
  184.9510  178.8330  142.5570 C   0  0  0  0  0  0  0  0  0  0  0  0
  185.0870  179.3600  143.8470 C   0  0  0  0  0  3  0  0  0  0  0  0
  182.1830  180.2020  138.7580 N   0  0  0  0  0  2  0  0  0  0  0  0
  180.1300  181.3970  138.4490 C   0  0  0  0  0  2  0  0  0  0  0  0
  183.9920  179.5340  144.6390 N   0  0  0  0  0  0  0  0  0  0  0  0
  182.5670  178.6610  142.9420 C   0  0  0  0  0  0  0  0  0  0  0  0
  181.7570  178.7800  140.6520 C   0  0  0  0  0  0  0  0  0  0  0  0
  183.6730  178.4570  142.1170 C   0  0  0  0  0  0  0  0  0  0  0  0
  189.9130  178.9430  142.4940 C   0  0  0  0  0  2  0  0  0  0  0  0
  190.1370  177.9540  143.4630 O   0  0  0  0  0  0  0  0  0  0  0  0
  189.4470  178.3950  144.5970 C   0  0  0  0  0  2  0  0  0  0  0  0
  188.1180  177.6500  144.7600 C   0  0  1  0  0  3  0  0  0  0  0  0
  187.3760  177.3920  143.4440 C   0  0  0  0  0  2  0  0  0  0  0  0
  188.3370  176.4360  145.4110 O   0  0  0  0  0  1  0  0  0  0  0  0
  188.6940  178.6010  141.6280 C   0  0  2  0  0  3  0  0  0  0  0  0
  187.4260  178.5980  142.5020 C   0  0  1  0  0  3  0  0  0  0  0  0
  188.1570  177.2990  139.6640 O   0  0  0  0  0  1  0  0  0  0  0  0
  188.9160  177.2980  140.8380 C   0  0  1  0  0  3  0  0  0  0  0  0
  190.3860  177.1310  140.4770 C   0  0  0  0  0  2  0  0  0  0  0  0
  190.6680  175.4100  138.8520 O   0  0  0  0  0  1  0  0  0  0  0  0
  190.5290  176.6400  139.0770 C   0  0  0  0  0  0  0  0  0  0  0  0
  190.4740  177.5360  138.0180 O   0  0  0  0  0  0  0  0  0  0  0  0
  1  8  1  0  0  0  0
  3 13  1  0  0  0  0
  4  2  1  0  0  0  0
  4 14  2  0  0  0  0
  5 14  1  0  0  0  0
  5 15  1  0  0  0  0
  6 11  1  0  0  0  0
  6 10  1  0  0  0  0
  7 12  1  0  0  0  0
  8  9  1  0  0  0  0
  9 12  2  0  0  0  0
 10  4  1  0  0  0  0
 11  2  1  0  0  0  0
 13  7  2  0  0  0  0
 14  3  1  0  0  0  0
 15  8  2  0  0  0  0
 15 13  1  0  0  0  0
 16 17  1  0  0  0  0
 17 18  1  0  0  0  0
 18 19  1  0  0  0  0
 19 21  1  6  0  0  0
 20 19  1  0  0  0  0
 22 25  1  1  0  0  0
 22 16  1  0  0  0  0
 22 23  1  0  0  0  0
 23  1  1  6  0  0  0
 23 20  1  0  0  0  0
 25 24  1  6  0  0  0
 26 25  1  0  0  0  0
 27 28  1  0  0  0  0
 28 26  1  0  0  0  0
 29 28  2  0  0  0  0
M  END
>  <MODEL>
9

>  <REMARK>
 VINA RESULT:      -5.1      4.209      6.518
  Name = 
  5 active torsions:
  status: ('A' for Active; 'I' for Inactive)
    1  A    between atoms: C_4  and  C_23
    2  A    between atoms: C_10  and  C_15
    3  A    between atoms: C_15  and  C_28
    4  A    between atoms: C_23  and  C_24
    5  A    between atoms: C_24  and  C_26
                            x       y       z     vdW  Elec       q    Type
                         _______ _______ _______ _____ _____    ______ ____

>  <TORSDO>
F 5

$$$$
