=
 OpenBabel10232411183D

 50 55  0  0  1  0  0  0  0  0999 V2000
  185.3430  178.4080  139.2600 C   0  0  1  0  0  3  0  0  0  0  0  0
  181.7340  178.4520  141.3040 F   0  0  0  0  0  0  0  0  0  0  0  0
  185.2760  178.4750  141.8600 C   0  0  0  0  0  0  0  0  0  0  0  0
  183.2440  179.4400  139.8680 N   0  0  0  0  0  0  0  0  0  0  0  0
  183.0190  178.3690  140.8100 C   0  0  1  0  0  3  0  0  0  0  0  0
  186.0830  178.5820  140.5840 C   0  0  0  0  0  2  0  0  0  0  0  0
  183.9710  178.4290  141.9180 N   0  0  0  0  0  0  0  0  0  0  0  0
  184.2960  179.4670  139.1300 C   0  0  0  0  0  3  0  0  0  0  0  0
  186.2630  178.5180  138.1780 O   0  0  0  0  0  0  0  0  0  0  0  0
  188.6020  177.8450  138.4430 C   0  0  0  0  0  3  0  0  0  0  0  0
  187.3000  177.6010  137.9550 C   0  0  0  0  0  0  0  0  0  0  0  0
  188.0630  175.4860  136.9950 C   0  0  0  0  0  3  0  0  0  0  0  0
  187.0270  176.4140  137.2350 C   0  0  0  0  0  0  0  0  0  0  0  0
  189.3330  175.7660  137.4910 C   0  0  0  0  0  0  0  0  0  0  0  0
  189.5940  176.9010  138.1910 C   0  0  0  0  0  0  0  0  0  0  0  0
  190.4600  174.9880  137.3600 O   0  0  0  0  0  0  0  0  0  0  0  0
  191.5660  175.6130  138.0090 C   0  0  0  0  0  3  0  0  0  0  0  0
  191.0200  176.9330  138.5940 C   0  0  0  0  0  3  0  0  0  0  0  0
  184.9110  174.9960  136.9210 C   0  0  0  0  0  0  0  0  0  0  0  0
  185.6940  176.1850  136.7540 N   0  0  0  0  0  2  0  0  0  0  0  0
  185.3520  174.0180  137.5830 O   0  0  0  0  0  0  0  0  0  0  0  0
  183.5160  174.9710  136.3690 C   0  0  1  0  0  3  0  0  0  0  0  0
  182.2380  171.1270  135.5160 C   0  0  0  0  0  1  0  0  0  0  0  0
  182.6860  172.4820  135.8200 C   0  0  0  0  0  0  0  0  0  0  0  0
  183.0580  173.6010  136.0700 C   0  0  0  0  0  0  0  0  0  0  0  0
  182.7540  175.6520  138.7160 C   0  0  0  0  0  2  0  0  0  0  0  0
  182.5430  175.8160  137.2210 C   0  0  0  0  0  0  0  0  0  0  0  0
  181.4840  175.1260  138.0720 C   0  0  0  0  0  2  0  0  0  0  0  0
  181.1650  177.4460  135.8700 C   0  0  1  0  0  3  0  0  0  0  0  0
  180.6580  178.7400  135.9670 O   0  0  0  0  0  1  0  0  0  0  0  0
  182.5910  177.5090  135.3750 C   0  0  0  0  0  2  0  0  0  0  0  0
  182.3160  177.2870  136.8520 C   0  0  2  0  0  3  0  0  0  0  0  0
  186.0130  178.4580  143.0440 O   0  0  0  0  0  0  0  0  0  0  0  0
  186.9070  177.4050  143.3830 C   0  0  0  0  0  2  0  0  0  0  0  0
  190.7070  178.2870  143.1950 C   0  0  0  0  0  2  0  0  0  0  0  0
  191.0100  176.9900  145.3870 C   0  0  0  0  0  0  0  0  0  0  0  0
  191.7760  176.4210  146.3970 O   0  0  0  0  0  1  0  0  0  0  0  0
  189.7400  177.1860  145.5400 C   0  0  0  0  0  0  0  0  0  0  0  0
  188.2130  177.9920  143.8880 C   0  0  1  0  0  3  0  0  0  0  0  0
  188.5090  177.5080  145.2990 C   0  0  0  0  0  0  0  0  0  0  0  0
  189.3300  177.6800  142.8520 C   0  0  0  0  0  2  0  0  0  0  0  0
  191.6020  177.3530  144.0520 C   0  0  0  0  0  2  0  0  0  0  0  0
  187.5640  177.7130  146.4460 C   0  0  1  0  0  3  0  0  0  0  0  0
  188.2470  177.5220  147.7650 C   0  0  0  0  0  0  0  0  0  0  0  0
  188.8790  178.5960  148.3730 O   0  0  0  0  0  1  0  0  0  0  0  0
  188.2230  176.4060  148.3440 O   0  0  0  0  0  0  0  0  0  0  0  0
  186.9650  178.9740  146.3780 O   0  0  0  0  0  0  0  0  0  0  0  0
  185.7740  178.8490  147.0960 C   0  0  0  0  0  2  0  0  0  0  0  0
  183.8810  178.9430  145.5140 C   0  0  0  0  0  1  0  0  0  0  0  0
  184.7920  178.0240  146.2960 C   0  0  0  0  0  2  0  0  0  0  0  0
  1  9  1  6  0  0  0
  1  6  1  0  0  0  0
  3  7  2  0  0  0  0
  3 33  1  0  0  0  0
  4  5  1  0  0  0  0
  5  2  1  1  0  0  0
  5  7  1  0  0  0  0
  6  3  1  0  0  0  0
  8  1  1  0  0  0  0
  8  4  2  0  0  0  0
 11  9  1  0  0  0  0
 11 10  2  0  0  0  0
 12 13  2  0  0  0  0
 12 14  1  0  0  0  0
 13 11  1  0  0  0  0
 14 15  2  0  0  0  0
 15 10  1  0  0  0  0
 15 18  1  0  0  0  0
 16 14  1  0  0  0  0
 16 17  1  0  0  0  0
 17 18  2  0  0  0  0
 19 21  2  0  0  0  0
 20 19  1  0  0  0  0
 20 13  1  0  0  0  0
 22 25  1  1  0  0  0
 22 19  1  0  0  0  0
 22 27  1  0  0  0  0
 23 24  1  0  0  0  0
 24 25  3  0  0  0  0
 27 28  1  0  0  0  0
 27 26  1  0  0  0  0
 28 26  1  0  0  0  0
 29 30  1  1  0  0  0
 29 32  1  0  0  0  0
 31 29  1  0  0  0  0
 32 31  1  6  0  0  0
 32 27  1  0  0  0  0
 33 34  1  0  0  0  0
 35 42  1  0  0  0  0
 36 38  2  0  0  0  0
 36 37  1  0  0  0  0
 39 34  1  6  0  0  0
 39 40  1  0  0  0  0
 40 38  2  0  0  0  0
 40 43  1  0  0  0  0
 41 35  1  0  0  0  0
 41 39  1  0  0  0  0
 42 36  1  0  0  0  0
 43 47  1  1  0  0  0
 43 44  1  0  0  0  0
 44 46  2  0  0  0  0
 44 45  1  0  0  0  0
 47 48  1  0  0  0  0
 49 50  1  0  0  0  0
 50 48  1  0  0  0  0
M  END
>  <MODEL>
1

>  <REMARK>
 VINA RESULT:      -7.9      0.000      0.000
  Name = 
  15 active torsions:
  status: ('A' for Active; 'I' for Inactive)
    1  A    between atoms: C_3  and  C_16
    2  A    between atoms: C_3  and  C_20
    3  A    between atoms: C_3  and  C_46
    4  A    between atoms: C_5  and  O_23
    5  A    between atoms: C_8  and  C_13
    6  A    between atoms: C_8  and  O_25
    7  A    between atoms: C_8  and  C_30
    8  A    between atoms: C_11  and  O_23
    9  A    between atoms: C_20  and  C_38
   10  A    between atoms: C_21  and  O_25
   11  A    between atoms: C_21  and  C_41
   12  A    between atoms: C_22  and  O_33
   13  A    between atoms: C_24  and  N_36
   14  A    between atoms: C_26  and  C_44
   15  A    between atoms: O_33  and  C_44
                            x       y       z     vdW  Elec       q    Type
                         _______ _______ _______ _____ _____    ______ ____

>  <TORSDO>
F 15

$$$$
=
 OpenBabel10232411183D

 50 55  0  0  1  0  0  0  0  0999 V2000
  187.3670  177.8100  138.9020 C   0  0  1  0  0  3  0  0  0  0  0  0
  189.2730  174.8260  136.7400 F   0  0  0  0  0  0  0  0  0  0  0  0
  186.5360  177.1340  136.5310 C   0  0  0  0  0  0  0  0  0  0  0  0
  189.2800  176.9070  137.7340 N   0  0  0  0  0  0  0  0  0  0  0  0
  188.4710  175.7820  137.3290 C   0  0  1  0  0  3  0  0  0  0  0  0
  186.4700  178.0930  137.7000 C   0  0  0  0  0  2  0  0  0  0  0  0
  187.4300  176.1900  136.3880 N   0  0  0  0  0  0  0  0  0  0  0  0
  188.7990  177.8410  138.4750 C   0  0  0  0  0  3  0  0  0  0  0  0
  187.1520  178.7980  139.9060 O   0  0  0  0  0  0  0  0  0  0  0  0
  184.7790  178.9440  140.4860 C   0  0  0  0  0  3  0  0  0  0  0  0
  186.1230  178.7190  140.8530 C   0  0  0  0  0  0  0  0  0  0  0  0
  185.4190  178.3280  143.1620 C   0  0  0  0  0  3  0  0  0  0  0  0
  186.4440  178.4030  142.1950 C   0  0  0  0  0  0  0  0  0  0  0  0
  184.1070  178.5600  142.7580 C   0  0  0  0  0  0  0  0  0  0  0  0
  183.7960  178.8540  141.4680 C   0  0  0  0  0  0  0  0  0  0  0  0
  182.9820  178.5310  143.5500 O   0  0  0  0  0  0  0  0  0  0  0  0
  181.8240  178.8160  142.7680 C   0  0  0  0  0  3  0  0  0  0  0  0
  182.3330  179.0470  141.3290 C   0  0  0  0  0  3  0  0  0  0  0  0
  188.3780  176.9680  143.0810 C   0  0  0  0  0  0  0  0  0  0  0  0
  187.8170  178.1730  142.5430 N   0  0  0  0  0  2  0  0  0  0  0  0
  187.6650  175.9440  143.2580 O   0  0  0  0  0  0  0  0  0  0  0  0
  189.8540  176.9190  143.3460 C   0  0  1  0  0  3  0  0  0  0  0  0
  192.0700  177.3290  139.8730 C   0  0  0  0  0  1  0  0  0  0  0  0
  191.2930  177.1840  141.0990 C   0  0  0  0  0  0  0  0  0  0  0  0
  190.6490  177.0650  142.1120 C   0  0  0  0  0  0  0  0  0  0  0  0
  190.8970  179.1530  144.0330 C   0  0  0  0  0  2  0  0  0  0  0  0
  190.2650  177.8560  144.5040 C   0  0  0  0  0  0  0  0  0  0  0  0
  191.7400  178.1290  144.7720 C   0  0  0  0  0  2  0  0  0  0  0  0
  189.8070  177.5890  146.9740 C   0  0  1  0  0  3  0  0  0  0  0  0
  189.1770  178.2700  148.0140 O   0  0  0  0  0  1  0  0  0  0  0  0
  188.7780  176.7870  146.2140 C   0  0  0  0  0  2  0  0  0  0  0  0
  189.2720  178.1060  145.6460 C   0  0  2  0  0  3  0  0  0  0  0  0
  185.5770  177.3220  135.5370 O   0  0  0  0  0  0  0  0  0  0  0  0
  184.8130  176.2560  134.9880 C   0  0  0  0  0  2  0  0  0  0  0  0
  181.4680  178.1770  134.3760 C   0  0  0  0  0  2  0  0  0  0  0  0
  181.3680  178.5960  136.9040 C   0  0  0  0  0  0  0  0  0  0  0  0
  180.8290  179.1790  138.0460 O   0  0  0  0  0  1  0  0  0  0  0  0
  182.1730  177.5860  136.9840 C   0  0  0  0  0  0  0  0  0  0  0  0
  183.3340  176.5430  135.1750 C   0  0  1  0  0  3  0  0  0  0  0  0
  182.9880  176.6360  136.6530 C   0  0  0  0  0  0  0  0  0  0  0  0
  182.9670  177.8060  134.3460 C   0  0  0  0  0  2  0  0  0  0  0  0
  181.0890  179.1430  135.5300 C   0  0  0  0  0  2  0  0  0  0  0  0
  183.2560  175.5240  137.6240 C   0  0  1  0  0  3  0  0  0  0  0  0
  182.1810  175.4290  138.6630 C   0  0  0  0  0  0  0  0  0  0  0  0
  182.3880  175.9800  139.9180 O   0  0  0  0  0  1  0  0  0  0  0  0
  181.0780  174.8870  138.3960 O   0  0  0  0  0  0  0  0  0  0  0  0
  183.4070  174.3060  136.9570 O   0  0  0  0  0  0  0  0  0  0  0  0
  184.4620  173.6640  137.6090 C   0  0  0  0  0  2  0  0  0  0  0  0
  183.5110  171.4970  136.9070 C   0  0  0  0  0  1  0  0  0  0  0  0
  184.7570  172.3550  136.9130 C   0  0  0  0  0  2  0  0  0  0  0  0
  1  9  1  1  0  0  0
  3  6  1  0  0  0  0
  4  8  2  0  0  0  0
  5  2  1  6  0  0  0
  5  4  1  0  0  0  0
  6  1  1  0  0  0  0
  7  3  2  0  0  0  0
  7  5  1  0  0  0  0
  8  1  1  0  0  0  0
  9 11  1  0  0  0  0
 10 11  2  0  0  0  0
 10 15  1  0  0  0  0
 11 13  1  0  0  0  0
 13 20  1  0  0  0  0
 13 12  2  0  0  0  0
 14 12  1  0  0  0  0
 14 16  1  0  0  0  0
 15 14  2  0  0  0  0
 17 16  1  0  0  0  0
 18 15  1  0  0  0  0
 18 17  2  0  0  0  0
 19 21  2  0  0  0  0
 19 22  1  0  0  0  0
 20 19  1  0  0  0  0
 22 25  1  6  0  0  0
 22 27  1  0  0  0  0
 23 24  1  0  0  0  0
 24 25  3  0  0  0  0
 26 27  1  0  0  0  0
 26 28  1  0  0  0  0
 27 28  1  0  0  0  0
 29 30  1  1  0  0  0
 31 29  1  0  0  0  0
 32 27  1  6  0  0  0
 32 31  1  0  0  0  0
 32 29  1  0  0  0  0
 33  3  1  0  0  0  0
 34 33  1  0  0  0  0
 35 42  1  0  0  0  0
 36 38  2  0  0  0  0
 36 37  1  0  0  0  0
 39 34  1  1  0  0  0
 39 40  1  0  0  0  0
 40 38  2  0  0  0  0
 40 43  1  0  0  0  0
 41 35  1  0  0  0  0
 41 39  1  0  0  0  0
 42 36  1  0  0  0  0
 43 47  1  6  0  0  0
 43 44  1  0  0  0  0
 44 45  1  0  0  0  0
 46 44  2  0  0  0  0
 47 48  1  0  0  0  0
 49 50  1  0  0  0  0
 50 48  1  0  0  0  0
M  END
>  <MODEL>
2

>  <REMARK>
 VINA RESULT:      -7.6      2.493      9.836
  Name = 
  15 active torsions:
  status: ('A' for Active; 'I' for Inactive)
    1  A    between atoms: C_3  and  C_16
    2  A    between atoms: C_3  and  C_20
    3  A    between atoms: C_3  and  C_46
    4  A    between atoms: C_5  and  O_23
    5  A    between atoms: C_8  and  C_13
    6  A    between atoms: C_8  and  O_25
    7  A    between atoms: C_8  and  C_30
    8  A    between atoms: C_11  and  O_23
    9  A    between atoms: C_20  and  C_38
   10  A    between atoms: C_21  and  O_25
   11  A    between atoms: C_21  and  C_41
   12  A    between atoms: C_22  and  O_33
   13  A    between atoms: C_24  and  N_36
   14  A    between atoms: C_26  and  C_44
   15  A    between atoms: O_33  and  C_44
                            x       y       z     vdW  Elec       q    Type
                         _______ _______ _______ _____ _____    ______ ____

>  <TORSDO>
F 15

$$$$
=
 OpenBabel10232411183D

 50 55  0  0  1  0  0  0  0  0999 V2000
  185.8970  179.1430  141.0950 C   0  0  1  0  0  3  0  0  0  0  0  0
  182.1100  178.6280  142.7070 F   0  0  0  0  0  0  0  0  0  0  0  0
  184.0300  177.9140  139.7650 C   0  0  0  0  0  0  0  0  0  0  0  0
  184.3790  178.2190  142.7330 N   0  0  0  0  0  0  0  0  0  0  0  0
  183.2750  178.7650  141.9810 C   0  0  1  0  0  3  0  0  0  0  0  0
  185.4890  178.2970  139.8930 C   0  0  0  0  0  2  0  0  0  0  0  0
  183.1260  178.0910  140.6920 N   0  0  0  0  0  0  0  0  0  0  0  0
  185.5950  178.3980  142.3560 C   0  0  0  0  0  3  0  0  0  0  0  0
  187.2940  179.4210  141.0350 O   0  0  0  0  0  0  0  0  0  0  0  0
  188.3770  178.1400  139.2540 C   0  0  0  0  0  3  0  0  0  0  0  0
  188.2470  178.4830  140.6160 C   0  0  0  0  0  0  0  0  0  0  0  0
  190.0480  176.9270  141.1740 C   0  0  0  0  0  3  0  0  0  0  0  0
  189.0900  177.8800  141.5800 C   0  0  0  0  0  0  0  0  0  0  0  0
  190.1420  176.6150  139.8200 C   0  0  0  0  0  0  0  0  0  0  0  0
  189.3390  177.2000  138.8930 C   0  0  0  0  0  0  0  0  0  0  0  0
  191.0080  175.7180  139.2390 O   0  0  0  0  0  0  0  0  0  0  0  0
  190.8010  175.6800  137.8280 C   0  0  0  0  0  3  0  0  0  0  0  0
  189.6610  176.6820  137.5420 C   0  0  0  0  0  3  0  0  0  0  0  0
  188.3780  177.4530  144.0080 C   0  0  0  0  0  0  0  0  0  0  0  0
  188.9420  178.2500  142.9590 N   0  0  0  0  0  2  0  0  0  0  0  0
  187.9850  176.2760  143.7870 O   0  0  0  0  0  0  0  0  0  0  0  0
  188.3470  178.0140  145.3990 C   0  0  1  0  0  3  0  0  0  0  0  0
  184.4830  178.4280  146.8260 C   0  0  0  0  0  1  0  0  0  0  0  0
  185.8460  178.2810  146.3270 C   0  0  0  0  0  0  0  0  0  0  0  0
  186.9720  178.1600  145.9130 C   0  0  0  0  0  0  0  0  0  0  0  0
  188.6280  176.5580  147.4850 C   0  0  0  0  0  2  0  0  0  0  0  0
  189.3230  177.2750  146.3420 C   0  0  0  0  0  0  0  0  0  0  0  0
  189.5080  177.7610  147.7740 C   0  0  0  0  0  2  0  0  0  0  0  0
  191.7030  176.4580  146.5640 C   0  0  1  0  0  3  0  0  0  0  0  0
  192.4570  175.3130  146.3140 O   0  0  0  0  0  1  0  0  0  0  0  0
  191.5980  177.2670  145.2930 C   0  0  0  0  0  2  0  0  0  0  0  0
  190.4290  176.4040  145.7330 C   0  0  2  0  0  3  0  0  0  0  0  0
  183.6680  177.3000  138.5660 O   0  0  0  0  0  0  0  0  0  0  0  0
  183.1860  175.9630  138.4970 C   0  0  0  0  0  2  0  0  0  0  0  0
  180.4150  175.3580  135.8130 C   0  0  0  0  0  2  0  0  0  0  0  0
  181.5570  173.1220  135.2890 C   0  0  0  0  0  0  0  0  0  0  0  0
  181.6350  171.8850  134.6610 O   0  0  0  0  0  1  0  0  0  0  0  0
  182.5980  173.6610  135.8370 C   0  0  0  0  0  0  0  0  0  0  0  0
  182.6550  175.6870  137.1020 C   0  0  1  0  0  3  0  0  0  0  0  0
  183.3560  174.4840  136.4890 C   0  0  0  0  0  0  0  0  0  0  0  0
  181.1070  175.5620  137.1780 C   0  0  0  0  0  2  0  0  0  0  0  0
  180.2550  173.8670  135.4140 C   0  0  0  0  0  2  0  0  0  0  0  0
  184.8440  174.4070  136.3200 C   0  0  1  0  0  3  0  0  0  0  0  0
  185.4010  173.1490  136.9120 C   0  0  0  0  0  0  0  0  0  0  0  0
  186.2970  172.3840  136.1820 O   0  0  0  0  0  0  0  0  0  0  0  0
  185.0930  172.8000  138.0800 O   0  0  0  0  0  1  0  0  0  0  0  0
  185.1990  174.5190  134.9730 O   0  0  0  0  0  0  0  0  0  0  0  0
  185.3880  175.8850  134.7600 C   0  0  0  0  0  2  0  0  0  0  0  0
  186.2880  177.7000  136.1690 C   0  0  0  0  0  1  0  0  0  0  0  0
  186.5880  176.3530  135.5490 C   0  0  0  0  0  2  0  0  0  0  0  0
  1  9  1  6  0  0  0
  1  8  1  0  0  0  0
  3  6  1  0  0  0  0
  3  7  2  0  0  0  0
  5  2  1  1  0  0  0
  5  4  1  0  0  0  0
  6  1  1  0  0  0  0
  7  5  1  0  0  0  0
  8  4  2  0  0  0  0
 10 11  1  0  0  0  0
 11  9  1  0  0  0  0
 11 13  2  0  0  0  0
 12 13  1  0  0  0  0
 13 20  1  0  0  0  0
 14 12  2  0  0  0  0
 15 10  2  0  0  0  0
 15 14  1  0  0  0  0
 16 14  1  0  0  0  0
 17 16  1  0  0  0  0
 18 17  2  0  0  0  0
 18 15  1  0  0  0  0
 19 22  1  0  0  0  0
 20 19  1  0  0  0  0
 21 19  2  0  0  0  0
 22 25  1  1  0  0  0
 22 27  1  0  0  0  0
 24 23  1  0  0  0  0
 25 24  3  0  0  0  0
 26 28  1  0  0  0  0
 27 26  1  0  0  0  0
 27 28  1  0  0  0  0
 29 30  1  6  0  0  0
 31 29  1  0  0  0  0
 32 31  1  6  0  0  0
 32 27  1  0  0  0  0
 32 29  1  0  0  0  0
 33  3  1  0  0  0  0
 34 33  1  0  0  0  0
 35 41  1  0  0  0  0
 36 42  1  0  0  0  0
 36 38  2  0  0  0  0
 37 36  1  0  0  0  0
 38 40  2  0  0  0  0
 39 41  1  0  0  0  0
 39 34  1  1  0  0  0
 40 39  1  0  0  0  0
 42 35  1  0  0  0  0
 43 47  1  6  0  0  0
 43 40  1  0  0  0  0
 43 44  1  0  0  0  0
 44 46  1  0  0  0  0
 45 44  2  0  0  0  0
 48 47  1  0  0  0  0
 48 50  1  0  0  0  0
 50 49  1  0  0  0  0
M  END
>  <MODEL>
3

>  <REMARK>
 VINA RESULT:      -7.4      1.990      9.589
  Name = 
  15 active torsions:
  status: ('A' for Active; 'I' for Inactive)
    1  A    between atoms: C_3  and  C_16
    2  A    between atoms: C_3  and  C_20
    3  A    between atoms: C_3  and  C_46
    4  A    between atoms: C_5  and  O_23
    5  A    between atoms: C_8  and  C_13
    6  A    between atoms: C_8  and  O_25
    7  A    between atoms: C_8  and  C_30
    8  A    between atoms: C_11  and  O_23
    9  A    between atoms: C_20  and  C_38
   10  A    between atoms: C_21  and  O_25
   11  A    between atoms: C_21  and  C_41
   12  A    between atoms: C_22  and  O_33
   13  A    between atoms: C_24  and  N_36
   14  A    between atoms: C_26  and  C_44
   15  A    between atoms: O_33  and  C_44
                            x       y       z     vdW  Elec       q    Type
                         _______ _______ _______ _____ _____    ______ ____

>  <TORSDO>
F 15

$$$$
=
 OpenBabel10232411183D

 50 55  0  0  1  0  0  0  0  0999 V2000
  184.8620  178.5090  139.2740 C   0  0  1  0  0  3  0  0  0  0  0  0
  181.4830  178.4620  141.6800 F   0  0  0  0  0  0  0  0  0  0  0  0
  185.0540  178.7240  141.8590 C   0  0  0  0  0  0  0  0  0  0  0  0
  182.7730  179.4500  140.0440 N   0  0  0  0  0  0  0  0  0  0  0  0
  182.7140  178.4260  141.0590 C   0  0  1  0  0  3  0  0  0  0  0  0
  185.7190  178.8030  140.5010 C   0  0  0  0  0  2  0  0  0  0  0  0
  183.7670  178.6060  142.0560 N   0  0  0  0  0  0  0  0  0  0  0  0
  183.7410  179.4960  139.1990 C   0  0  0  0  0  3  0  0  0  0  0  0
  185.6580  178.6090  138.0960 O   0  0  0  0  0  0  0  0  0  0  0  0
  188.0320  178.0300  137.9520 C   0  0  0  0  0  3  0  0  0  0  0  0
  186.6720  177.6960  137.7750 C   0  0  0  0  0  0  0  0  0  0  0  0
  187.3290  175.4950  136.9380 C   0  0  0  0  0  3  0  0  0  0  0  0
  186.3180  176.4210  137.2730 C   0  0  0  0  0  0  0  0  0  0  0  0
  188.6570  175.8660  137.1240 C   0  0  0  0  0  0  0  0  0  0  0  0
  188.9980  177.0860  137.6160 C   0  0  0  0  0  0  0  0  0  0  0  0
  189.7720  175.1040  136.8580 O   0  0  0  0  0  0  0  0  0  0  0  0
  190.9530  175.8320  137.1860 C   0  0  0  0  0  3  0  0  0  0  0  0
  190.4730  177.2020  137.7100 C   0  0  0  0  0  3  0  0  0  0  0  0
  184.1260  176.3290  135.9410 C   0  0  0  0  0  0  0  0  0  0  0  0
  184.9280  176.1020  137.1070 N   0  0  0  0  0  2  0  0  0  0  0  0
  184.6300  176.8160  134.8930 O   0  0  0  0  0  0  0  0  0  0  0  0
  182.6920  175.8890  135.9590 C   0  0  1  0  0  3  0  0  0  0  0  0
  182.2760  171.8810  136.9090 C   0  0  0  0  0  1  0  0  0  0  0  0
  182.4270  173.2930  136.5760 C   0  0  0  0  0  0  0  0  0  0  0  0
  182.5500  174.4600  136.2990 C   0  0  0  0  0  0  0  0  0  0  0  0
  180.5190  177.2360  136.0690 C   0  0  0  0  0  2  0  0  0  0  0  0
  181.8030  176.8490  136.7810 C   0  0  0  0  0  0  0  0  0  0  0  0
  181.5950  178.2820  136.3060 C   0  0  0  0  0  2  0  0  0  0  0  0
  180.3520  175.6120  138.4370 C   0  0  1  0  0  3  0  0  0  0  0  0
  180.4660  174.9530  139.6590 O   0  0  0  0  0  1  0  0  0  0  0  0
  180.1980  177.0940  138.6880 C   0  0  0  0  0  2  0  0  0  0  0  0
  181.5450  176.5400  138.2600 C   0  0  2  0  0  3  0  0  0  0  0  0
  185.9080  178.8190  142.9580 O   0  0  0  0  0  0  0  0  0  0  0  0
  187.1600  178.1490  143.0240 C   0  0  0  0  0  2  0  0  0  0  0  0
  186.1570  177.3520  146.7130 C   0  0  0  0  0  2  0  0  0  0  0  0
  188.4940  178.1460  147.4110 C   0  0  0  0  0  0  0  0  0  0  0  0
  189.4600  178.4880  148.3500 O   0  0  0  0  0  1  0  0  0  0  0  0
  188.8110  177.9140  146.1780 C   0  0  0  0  0  0  0  0  0  0  0  0
  187.3040  177.4750  144.3770 C   0  0  1  0  0  3  0  0  0  0  0  0
  188.7160  177.6450  144.9140 C   0  0  0  0  0  0  0  0  0  0  0  0
  186.1870  178.0100  145.3170 C   0  0  0  0  0  2  0  0  0  0  0  0
  187.0330  178.0840  147.7650 C   0  0  0  0  0  2  0  0  0  0  0  0
  189.9340  177.1910  144.1650 C   0  0  1  0  0  3  0  0  0  0  0  0
  191.1600  177.2410  145.0230 C   0  0  0  0  0  0  0  0  0  0  0  0
  191.4060  176.2210  145.9290 O   0  0  0  0  0  1  0  0  0  0  0  0
  191.9870  178.1800  144.9040 O   0  0  0  0  0  0  0  0  0  0  0  0
  189.7470  175.9080  143.6430 O   0  0  0  0  0  0  0  0  0  0  0  0
  190.6760  175.7990  142.6060 C   0  0  0  0  0  2  0  0  0  0  0  0
  191.5870  177.4730  141.0380 C   0  0  0  0  0  1  0  0  0  0  0  0
  190.3270  176.7870  141.5170 C   0  0  0  0  0  2  0  0  0  0  0  0
  1  9  1  6  0  0  0
  1  6  1  0  0  0  0
  3  7  2  0  0  0  0
  3 33  1  0  0  0  0
  4  5  1  0  0  0  0
  5  2  1  1  0  0  0
  5  7  1  0  0  0  0
  6  3  1  0  0  0  0
  8  1  1  0  0  0  0
  8  4  2  0  0  0  0
 11 10  1  0  0  0  0
 11  9  1  0  0  0  0
 12 14  2  0  0  0  0
 12 13  1  0  0  0  0
 13 11  2  0  0  0  0
 14 15  1  0  0  0  0
 15 18  1  0  0  0  0
 15 10  2  0  0  0  0
 16 14  1  0  0  0  0
 16 17  1  0  0  0  0
 17 18  2  0  0  0  0
 19 22  1  0  0  0  0
 19 20  1  0  0  0  0
 20 13  1  0  0  0  0
 21 19  2  0  0  0  0
 22 25  1  1  0  0  0
 22 27  1  0  0  0  0
 24 23  1  0  0  0  0
 25 24  3  0  0  0  0
 26 28  1  0  0  0  0
 26 27  1  0  0  0  0
 28 27  1  0  0  0  0
 29 31  1  0  0  0  0
 29 30  1  1  0  0  0
 32 27  1  6  0  0  0
 32 29  1  0  0  0  0
 32 31  1  0  0  0  0
 33 34  1  0  0  0  0
 35 42  1  0  0  0  0
 36 42  1  0  0  0  0
 36 37  1  0  0  0  0
 38 36  2  0  0  0  0
 39 34  1  6  0  0  0
 39 40  1  0  0  0  0
 39 41  1  0  0  0  0
 40 38  2  0  0  0  0
 41 35  1  0  0  0  0
 43 47  1  1  0  0  0
 43 40  1  0  0  0  0
 43 44  1  0  0  0  0
 44 45  1  0  0  0  0
 46 44  2  0  0  0  0
 48 47  1  0  0  0  0
 49 50  1  0  0  0  0
 50 48  1  0  0  0  0
M  END
>  <MODEL>
4

>  <REMARK>
 VINA RESULT:      -7.2      1.534      3.244
  Name = 
  15 active torsions:
  status: ('A' for Active; 'I' for Inactive)
    1  A    between atoms: C_3  and  C_16
    2  A    between atoms: C_3  and  C_20
    3  A    between atoms: C_3  and  C_46
    4  A    between atoms: C_5  and  O_23
    5  A    between atoms: C_8  and  C_13
    6  A    between atoms: C_8  and  O_25
    7  A    between atoms: C_8  and  C_30
    8  A    between atoms: C_11  and  O_23
    9  A    between atoms: C_20  and  C_38
   10  A    between atoms: C_21  and  O_25
   11  A    between atoms: C_21  and  C_41
   12  A    between atoms: C_22  and  O_33
   13  A    between atoms: C_24  and  N_36
   14  A    between atoms: C_26  and  C_44
   15  A    between atoms: O_33  and  C_44
                            x       y       z     vdW  Elec       q    Type
                         _______ _______ _______ _____ _____    ______ ____

>  <TORSDO>
F 15

$$$$
=
 OpenBabel10232411183D

 50 55  0  0  1  0  0  0  0  0999 V2000
  188.1660  178.1080  141.2180 C   0  0  1  0  0  3  0  0  0  0  0  0
  190.4770  175.2580  143.1550 F   0  0  0  0  0  0  0  0  0  0  0  0
  190.3300  177.1660  140.1230 C   0  0  0  0  0  0  0  0  0  0  0  0
  189.5960  177.3860  143.0290 N   0  0  0  0  0  0  0  0  0  0  0  0
  189.8070  176.1390  142.3320 C   0  0  1  0  0  3  0  0  0  0  0  0
  189.2120  178.1870  140.1100 C   0  0  0  0  0  2  0  0  0  0  0  0
  190.5770  176.3410  141.1060 N   0  0  0  0  0  0  0  0  0  0  0  0
  188.8290  178.2970  142.5450 C   0  0  0  0  0  3  0  0  0  0  0  0
  187.1880  179.1260  141.0300 O   0  0  0  0  0  0  0  0  0  0  0  0
  185.4690  179.1160  142.7730 C   0  0  0  0  0  3  0  0  0  0  0  0
  185.8490  178.9870  141.4190 C   0  0  0  0  0  0  0  0  0  0  0  0
  183.5180  178.5660  140.8130 C   0  0  0  0  0  3  0  0  0  0  0  0
  184.8690  178.7170  140.4340 C   0  0  0  0  0  0  0  0  0  0  0  0
  183.1870  178.6980  142.1590 C   0  0  0  0  0  0  0  0  0  0  0  0
  184.1250  178.9660  143.1040 C   0  0  0  0  0  0  0  0  0  0  0  0
  181.9330  178.5860  142.7140 O   0  0  0  0  0  0  0  0  0  0  0  0
  182.0020  178.7910  144.1240 C   0  0  0  0  0  3  0  0  0  0  0  0
  183.4900  179.0550  144.4400 C   0  0  0  0  0  3  0  0  0  0  0  0
  184.7430  177.7000  138.0810 C   0  0  0  0  0  0  0  0  0  0  0  0
  185.2790  178.5960  139.0640 N   0  0  0  0  0  2  0  0  0  0  0  0
  183.7800  176.9360  138.3590 O   0  0  0  0  0  0  0  0  0  0  0  0
  185.2890  177.7550  136.6860 C   0  0  1  0  0  3  0  0  0  0  0  0
  189.3380  178.6150  136.6290 C   0  0  0  0  0  1  0  0  0  0  0  0
  187.9110  178.3150  136.6460 C   0  0  0  0  0  0  0  0  0  0  0  0
  186.7310  178.0660  136.6610 C   0  0  0  0  0  0  0  0  0  0  0  0
  185.2080  176.6490  134.3780 C   0  0  0  0  0  2  0  0  0  0  0  0
  184.8720  176.5220  135.8530 C   0  0  0  0  0  0  0  0  0  0  0  0
  183.7560  176.6450  134.8220 C   0  0  0  0  0  2  0  0  0  0  0  0
  186.7080  174.8640  136.3620 C   0  0  1  0  0  3  0  0  0  0  0  0
  187.0090  173.8690  137.2900 O   0  0  0  0  0  1  0  0  0  0  0  0
  185.8320  174.2800  135.2790 C   0  0  0  0  0  2  0  0  0  0  0  0
  185.2080  175.1210  136.3790 C   0  0  2  0  0  3  0  0  0  0  0  0
  191.1570  177.1580  139.0000 O   0  0  0  0  0  0  0  0  0  0  0  0
  192.1950  176.2050  138.8120 C   0  0  0  0  0  2  0  0  0  0  0  0
  190.3820  174.5330  135.7840 C   0  0  0  0  0  2  0  0  0  0  0  0
  192.1130  172.6460  135.9230 C   0  0  0  0  0  0  0  0  0  0  0  0
  192.6320  171.4070  135.5630 O   0  0  0  0  0  1  0  0  0  0  0  0
  192.8330  173.5130  136.5600 C   0  0  0  0  0  0  0  0  0  0  0  0
  192.0990  175.6200  137.4140 C   0  0  1  0  0  3  0  0  0  0  0  0
  193.1920  174.5870  137.1880 C   0  0  0  0  0  0  0  0  0  0  0  0
  190.6540  175.0880  137.1980 C   0  0  0  0  0  2  0  0  0  0  0  0
  190.6820  173.0160  135.6430 C   0  0  0  0  0  2  0  0  0  0  0  0
  194.6510  174.8980  137.3390 C   0  0  1  0  0  3  0  0  0  0  0  0
  195.1880  174.4010  138.6460 C   0  0  0  0  0  0  0  0  0  0  0  0
  195.3470  173.0400  138.8510 O   0  0  0  0  0  0  0  0  0  0  0  0
  195.5300  175.2100  139.5470 O   0  0  0  0  0  1  0  0  0  0  0  0
  195.3850  174.3730  136.2720 O   0  0  0  0  0  0  0  0  0  0  0  0
  196.5480  175.1430  136.2170 C   0  0  0  0  0  2  0  0  0  0  0  0
  198.7530  174.9570  135.1230 C   0  0  0  0  0  1  0  0  0  0  0  0
  197.7360  174.2380  135.9810 C   0  0  0  0  0  2  0  0  0  0  0  0
  1  9  1  6  0  0  0
  1  8  1  0  0  0  0
  3  7  2  0  0  0  0
  5  4  1  0  0  0  0
  5  2  1  1  0  0  0
  6  3  1  0  0  0  0
  6  1  1  0  0  0  0
  7  5  1  0  0  0  0
  8  4  2  0  0  0  0
  9 11  1  0  0  0  0
 10 15  1  0  0  0  0
 11 10  2  0  0  0  0
 12 14  1  0  0  0  0
 13 12  2  0  0  0  0
 13 11  1  0  0  0  0
 14 16  1  0  0  0  0
 14 15  2  0  0  0  0
 15 18  1  0  0  0  0
 16 17  1  0  0  0  0
 17 18  2  0  0  0  0
 19 21  2  0  0  0  0
 19 20  1  0  0  0  0
 20 13  1  0  0  0  0
 22 25  1  1  0  0  0
 22 19  1  0  0  0  0
 23 24  1  0  0  0  0
 24 25  3  0  0  0  0
 26 28  1  0  0  0  0
 26 27  1  0  0  0  0
 27 32  1  0  0  0  0
 27 22  1  0  0  0  0
 28 27  1  0  0  0  0
 29 32  1  0  0  0  0
 29 30  1  1  0  0  0
 31 29  1  0  0  0  0
 32 31  1  6  0  0  0
 33  3  1  0  0  0  0
 34 33  1  0  0  0  0
 35 41  1  0  0  0  0
 36 38  2  0  0  0  0
 37 36  1  0  0  0  0
 38 40  2  0  0  0  0
 39 34  1  1  0  0  0
 40 43  1  0  0  0  0
 40 39  1  0  0  0  0
 41 39  1  0  0  0  0
 42 35  1  0  0  0  0
 42 36  1  0  0  0  0
 43 47  1  6  0  0  0
 43 44  1  0  0  0  0
 44 45  2  0  0  0  0
 44 46  1  0  0  0  0
 48 47  1  0  0  0  0
 49 50  1  0  0  0  0
 50 48  1  0  0  0  0
M  END
>  <MODEL>
5

>  <REMARK>
 VINA RESULT:      -7.1      3.476      8.749
  Name = 
  15 active torsions:
  status: ('A' for Active; 'I' for Inactive)
    1  A    between atoms: C_3  and  C_16
    2  A    between atoms: C_3  and  C_20
    3  A    between atoms: C_3  and  C_46
    4  A    between atoms: C_5  and  O_23
    5  A    between atoms: C_8  and  C_13
    6  A    between atoms: C_8  and  O_25
    7  A    between atoms: C_8  and  C_30
    8  A    between atoms: C_11  and  O_23
    9  A    between atoms: C_20  and  C_38
   10  A    between atoms: C_21  and  O_25
   11  A    between atoms: C_21  and  C_41
   12  A    between atoms: C_22  and  O_33
   13  A    between atoms: C_24  and  N_36
   14  A    between atoms: C_26  and  C_44
   15  A    between atoms: O_33  and  C_44
                            x       y       z     vdW  Elec       q    Type
                         _______ _______ _______ _____ _____    ______ ____

>  <TORSDO>
F 15

$$$$
=
 OpenBabel10232411183D

 50 55  0  0  1  0  0  0  0  0999 V2000
  186.5800  177.4750  137.3810 C   0  0  1  0  0  3  0  0  0  0  0  0
  190.7060  177.0550  137.4920 F   0  0  0  0  0  0  0  0  0  0  0  0
  187.9650  178.3710  139.3920 C   0  0  0  0  0  0  0  0  0  0  0  0
  188.5900  176.1370  137.4830 N   0  0  0  0  0  0  0  0  0  0  0  0
  189.3620  177.3510  137.6000 C   0  0  1  0  0  3  0  0  0  0  0  0
  186.6120  178.0560  138.7920 C   0  0  0  0  0  2  0  0  0  0  0  0
  189.1130  178.0170  138.8770 N   0  0  0  0  0  0  0  0  0  0  0  0
  187.3110  176.1710  137.3600 C   0  0  0  0  0  3  0  0  0  0  0  0
  185.2290  177.2660  136.9770 O   0  0  0  0  0  0  0  0  0  0  0  0
  183.7190  178.4440  138.5010 C   0  0  0  0  0  3  0  0  0  0  0  0
  184.1530  177.2560  137.8750 C   0  0  0  0  0  0  0  0  0  0  0  0
  182.4150  176.0060  139.0550 C   0  0  0  0  0  3  0  0  0  0  0  0
  183.4940  176.0330  138.1470 C   0  0  0  0  0  0  0  0  0  0  0  0
  182.0200  177.2000  139.6530 C   0  0  0  0  0  0  0  0  0  0  0  0
  182.6450  178.3760  139.3850 C   0  0  0  0  0  0  0  0  0  0  0  0
  180.9960  177.3710  140.5560 O   0  0  0  0  0  0  0  0  0  0  0  0
  180.9010  178.7430  140.9350 C   0  0  0  0  0  3  0  0  0  0  0  0
  182.0150  179.4740  140.1570 C   0  0  0  0  0  3  0  0  0  0  0  0
  183.6740  174.4370  136.1460 C   0  0  0  0  0  0  0  0  0  0  0  0
  183.9500  174.8390  137.4940 N   0  0  0  0  0  2  0  0  0  0  0  0
  183.0020  175.1740  135.3750 O   0  0  0  0  0  0  0  0  0  0  0  0
  184.2780  173.1610  135.6390 C   0  0  1  0  0  3  0  0  0  0  0  0
  187.9370  172.3660  137.4060 C   0  0  0  0  0  1  0  0  0  0  0  0
  186.6480  172.6420  136.7810 C   0  0  0  0  0  0  0  0  0  0  0  0
  185.5820  172.8720  136.2660 C   0  0  0  0  0  0  0  0  0  0  0  0
  183.8980  170.6450  135.3640 C   0  0  0  0  0  2  0  0  0  0  0  0
  183.2670  171.9930  135.6630 C   0  0  0  0  0  0  0  0  0  0  0  0
  182.9260  171.2590  134.3720 C   0  0  0  0  0  2  0  0  0  0  0  0
  180.8500  171.6840  136.3300 C   0  0  1  0  0  3  0  0  0  0  0  0
  180.0980  171.0880  137.3400 O   0  0  0  0  0  1  0  0  0  0  0  0
  181.2940  173.0540  136.7860 C   0  0  0  0  0  2  0  0  0  0  0  0
  182.2730  171.8930  136.8270 C   0  0  2  0  0  3  0  0  0  0  0  0
  187.9450  179.0640  140.6020 O   0  0  0  0  0  0  0  0  0  0  0  0
  188.3210  178.4710  141.8390 C   0  0  0  0  0  2  0  0  0  0  0  0
  184.5170  178.3090  142.7080 C   0  0  0  0  0  2  0  0  0  0  0  0
  185.1740  178.5890  145.1720 C   0  0  0  0  0  0  0  0  0  0  0  0
  184.8900  178.7840  146.5180 O   0  0  0  0  0  1  0  0  0  0  0  0
  186.3350  178.1660  144.7870 C   0  0  0  0  0  0  0  0  0  0  0  0
  187.0870  177.9200  142.5320 C   0  0  1  0  0  3  0  0  0  0  0  0
  187.3210  177.8020  144.0300 C   0  0  0  0  0  0  0  0  0  0  0  0
  185.8650  178.7980  142.1380 C   0  0  0  0  0  2  0  0  0  0  0  0
  184.1730  178.9130  144.0960 C   0  0  0  0  0  2  0  0  0  0  0  0
  188.4430  176.9980  144.6190 C   0  0  1  0  0  3  0  0  0  0  0  0
  189.1040  176.1370  143.5870 C   0  0  0  0  0  0  0  0  0  0  0  0
  190.4600  176.2820  143.3380 O   0  0  0  0  0  1  0  0  0  0  0  0
  188.4490  175.2590  142.9710 O   0  0  0  0  0  0  0  0  0  0  0  0
  189.3770  177.8300  145.2420 O   0  0  0  0  0  0  0  0  0  0  0  0
  189.6200  177.2380  146.4820 C   0  0  0  0  0  2  0  0  0  0  0  0
  187.8490  177.3230  148.1990 C   0  0  0  0  0  1  0  0  0  0  0  0
  188.9960  178.0820  147.5700 C   0  0  0  0  0  2  0  0  0  0  0  0
  1  9  1  1  0  0  0
  1  6  1  0  0  0  0
  3 33  1  0  0  0  0
  4  5  1  0  0  0  0
  5  2  1  1  0  0  0
  5  7  1  0  0  0  0
  6  3  1  0  0  0  0
  7  3  2  0  0  0  0
  8  1  1  0  0  0  0
  8  4  2  0  0  0  0
  9 11  1  0  0  0  0
 10 15  1  0  0  0  0
 11 13  1  0  0  0  0
 11 10  2  0  0  0  0
 12 14  1  0  0  0  0
 13 12  2  0  0  0  0
 14 16  1  0  0  0  0
 15 14  2  0  0  0  0
 15 18  1  0  0  0  0
 16 17  1  0  0  0  0
 18 17  2  0  0  0  0
 19 20  1  0  0  0  0
 20 13  1  0  0  0  0
 21 19  2  0  0  0  0
 22 27  1  0  0  0  0
 22 19  1  0  0  0  0
 22 25  1  1  0  0  0
 24 23  1  0  0  0  0
 25 24  3  0  0  0  0
 26 27  1  0  0  0  0
 28 26  1  0  0  0  0
 28 27  1  0  0  0  0
 29 31  1  0  0  0  0
 29 32  1  0  0  0  0
 29 30  1  1  0  0  0
 31 32  1  0  0  0  0
 32 27  1  6  0  0  0
 33 34  1  0  0  0  0
 35 42  1  0  0  0  0
 36 37  1  0  0  0  0
 38 36  2  0  0  0  0
 39 34  1  6  0  0  0
 39 40  1  0  0  0  0
 40 43  1  0  0  0  0
 40 38  2  0  0  0  0
 41 39  1  0  0  0  0
 41 35  1  0  0  0  0
 42 36  1  0  0  0  0
 43 44  1  6  0  0  0
 43 47  1  0  0  0  0
 45 44  1  0  0  0  0
 46 44  2  0  0  0  0
 47 48  1  0  0  0  0
 48 50  1  0  0  0  0
 50 49  1  0  0  0  0
M  END
>  <MODEL>
6

>  <REMARK>
 VINA RESULT:      -7.0      2.742      5.505
  Name = 
  15 active torsions:
  status: ('A' for Active; 'I' for Inactive)
    1  A    between atoms: C_3  and  C_16
    2  A    between atoms: C_3  and  C_20
    3  A    between atoms: C_3  and  C_46
    4  A    between atoms: C_5  and  O_23
    5  A    between atoms: C_8  and  C_13
    6  A    between atoms: C_8  and  O_25
    7  A    between atoms: C_8  and  C_30
    8  A    between atoms: C_11  and  O_23
    9  A    between atoms: C_20  and  C_38
   10  A    between atoms: C_21  and  O_25
   11  A    between atoms: C_21  and  C_41
   12  A    between atoms: C_22  and  O_33
   13  A    between atoms: C_24  and  N_36
   14  A    between atoms: C_26  and  C_44
   15  A    between atoms: O_33  and  C_44
                            x       y       z     vdW  Elec       q    Type
                         _______ _______ _______ _____ _____    ______ ____

>  <TORSDO>
F 15

$$$$
=
 OpenBabel10232411183D

 50 55  0  0  1  0  0  0  0  0999 V2000
  187.9890  178.0330  138.6490 C   0  0  1  0  0  3  0  0  0  0  0  0
  187.1850  176.4690  134.8920 F   0  0  0  0  0  0  0  0  0  0  0  0
  189.2740  175.9530  137.7600 C   0  0  0  0  0  0  0  0  0  0  0  0
  186.5320  176.9560  137.0500 N   0  0  0  0  0  0  0  0  0  0  0  0
  187.6400  176.8840  136.1270 C   0  0  1  0  0  3  0  0  0  0  0  0
  188.9440  176.8730  138.9160 C   0  0  0  0  0  2  0  0  0  0  0  0
  188.6670  175.9600  136.6020 N   0  0  0  0  0  0  0  0  0  0  0  0
  186.6650  177.4980  138.2070 C   0  0  0  0  0  3  0  0  0  0  0  0
  187.8170  178.7970  139.8400 O   0  0  0  0  0  0  0  0  0  0  0  0
  185.4000  178.9810  140.1800 C   0  0  0  0  0  3  0  0  0  0  0  0
  186.6910  178.6850  140.6670 C   0  0  0  0  0  0  0  0  0  0  0  0
  185.7380  178.1550  142.8550 C   0  0  0  0  0  3  0  0  0  0  0  0
  186.8600  178.2640  142.0080 C   0  0  0  0  0  0  0  0  0  0  0  0
  184.4820  178.4590  142.3360 C   0  0  0  0  0  0  0  0  0  0  0  0
  184.3170  178.8540  141.0470 C   0  0  0  0  0  0  0  0  0  0  0  0
  183.2800  178.4110  143.0030 O   0  0  0  0  0  0  0  0  0  0  0  0
  182.2180  178.7900  142.1290 C   0  0  0  0  0  3  0  0  0  0  0  0
  182.8820  179.1060  140.7710 C   0  0  0  0  0  3  0  0  0  0  0  0
  188.6220  176.7440  143.0910 C   0  0  0  0  0  0  0  0  0  0  0  0
  188.1830  177.9630  142.4780 N   0  0  0  0  0  2  0  0  0  0  0  0
  187.8350  175.7690  143.2300 O   0  0  0  0  0  0  0  0  0  0  0  0
  190.0640  176.6150  143.4830 C   0  0  1  0  0  3  0  0  0  0  0  0
  192.6250  177.6610  140.4020 C   0  0  0  0  0  1  0  0  0  0  0  0
  191.7230  177.2970  141.4900 C   0  0  0  0  0  0  0  0  0  0  0  0
  190.9770  176.9940  142.3870 C   0  0  0  0  0  0  0  0  0  0  0  0
  191.5890  178.1780  144.8190 C   0  0  0  0  0  2  0  0  0  0  0  0
  190.3560  177.2910  144.8410 C   0  0  0  0  0  0  0  0  0  0  0  0
  191.5970  176.8960  145.6340 C   0  0  0  0  0  2  0  0  0  0  0  0
  189.1570  177.5100  147.0530 C   0  0  1  0  0  3  0  0  0  0  0  0
  188.4960  178.4760  147.8090 O   0  0  0  0  0  1  0  0  0  0  0  0
  188.1930  176.9230  146.0490 C   0  0  0  0  0  2  0  0  0  0  0  0
  189.2050  177.9620  145.6010 C   0  0  2  0  0  3  0  0  0  0  0  0
  190.2840  175.0210  137.9960 O   0  0  0  0  0  0  0  0  0  0  0  0
  191.6500  175.2650  137.6830 C   0  0  0  0  0  2  0  0  0  0  0  0
  191.1800  172.5080  134.9570 C   0  0  0  0  0  2  0  0  0  0  0  0
  193.4140  171.5110  135.7280 C   0  0  0  0  0  0  0  0  0  0  0  0
  194.4020  170.5340  135.7310 O   0  0  0  0  0  1  0  0  0  0  0  0
  193.6350  172.6890  136.2170 C   0  0  0  0  0  0  0  0  0  0  0  0
  192.0420  174.4530  136.4610 C   0  0  1  0  0  3  0  0  0  0  0  0
  193.4550  173.9110  136.6080 C   0  0  0  0  0  0  0  0  0  0  0  0
  190.9560  173.3660  136.2200 C   0  0  0  0  0  2  0  0  0  0  0  0
  192.0270  171.2330  135.2130 C   0  0  0  0  0  2  0  0  0  0  0  0
  194.6460  174.7920  136.8410 C   0  0  1  0  0  3  0  0  0  0  0  0
  195.2790  174.5220  138.1700 C   0  0  0  0  0  0  0  0  0  0  0  0
  195.0860  175.4110  139.2170 O   0  0  0  0  0  1  0  0  0  0  0  0
  195.9550  173.4780  138.3580 O   0  0  0  0  0  0  0  0  0  0  0  0
  195.5790  174.6500  135.8100 O   0  0  0  0  0  0  0  0  0  0  0  0
  196.2450  175.8760  135.7520 C   0  0  0  0  0  2  0  0  0  0  0  0
  196.1000  178.1890  134.9050 C   0  0  0  0  0  1  0  0  0  0  0  0
  195.3230  176.9180  135.1640 C   0  0  0  0  0  2  0  0  0  0  0  0
  1  6  1  0  0  0  0
  1  9  1  1  0  0  0
  3 33  1  0  0  0  0
  3  6  1  0  0  0  0
  4  8  2  0  0  0  0
  5  2  1  6  0  0  0
  5  7  1  0  0  0  0
  5  4  1  0  0  0  0
  7  3  2  0  0  0  0
  8  1  1  0  0  0  0
  9 11  1  0  0  0  0
 10 11  2  0  0  0  0
 10 15  1  0  0  0  0
 11 13  1  0  0  0  0
 13 20  1  0  0  0  0
 13 12  2  0  0  0  0
 14 12  1  0  0  0  0
 14 16  1  0  0  0  0
 15 14  2  0  0  0  0
 17 16  1  0  0  0  0
 18 15  1  0  0  0  0
 18 17  2  0  0  0  0
 19 21  2  0  0  0  0
 19 22  1  0  0  0  0
 20 19  1  0  0  0  0
 22 25  1  6  0  0  0
 22 27  1  0  0  0  0
 23 24  1  0  0  0  0
 24 25  3  0  0  0  0
 26 27  1  0  0  0  0
 26 28  1  0  0  0  0
 27 28  1  0  0  0  0
 29 30  1  1  0  0  0
 31 29  1  0  0  0  0
 32 27  1  6  0  0  0
 32 31  1  0  0  0  0
 32 29  1  0  0  0  0
 34 33  1  0  0  0  0
 35 42  1  0  0  0  0
 35 41  1  0  0  0  0
 36 37  1  0  0  0  0
 36 38  2  0  0  0  0
 38 40  2  0  0  0  0
 39 40  1  0  0  0  0
 39 34  1  1  0  0  0
 40 43  1  0  0  0  0
 41 39  1  0  0  0  0
 42 36  1  0  0  0  0
 43 47  1  6  0  0  0
 43 44  1  0  0  0  0
 44 46  2  0  0  0  0
 44 45  1  0  0  0  0
 48 47  1  0  0  0  0
 49 50  1  0  0  0  0
 50 48  1  0  0  0  0
M  END
>  <MODEL>
7

>  <REMARK>
 VINA RESULT:      -6.9      3.493     10.032
  Name = 
  15 active torsions:
  status: ('A' for Active; 'I' for Inactive)
    1  A    between atoms: C_3  and  C_16
    2  A    between atoms: C_3  and  C_20
    3  A    between atoms: C_3  and  C_46
    4  A    between atoms: C_5  and  O_23
    5  A    between atoms: C_8  and  C_13
    6  A    between atoms: C_8  and  O_25
    7  A    between atoms: C_8  and  C_30
    8  A    between atoms: C_11  and  O_23
    9  A    between atoms: C_20  and  C_38
   10  A    between atoms: C_21  and  O_25
   11  A    between atoms: C_21  and  C_41
   12  A    between atoms: C_22  and  O_33
   13  A    between atoms: C_24  and  N_36
   14  A    between atoms: C_26  and  C_44
   15  A    between atoms: O_33  and  C_44
                            x       y       z     vdW  Elec       q    Type
                         _______ _______ _______ _____ _____    ______ ____

>  <TORSDO>
F 15

$$$$
=
 OpenBabel10232411183D

 50 55  0  0  1  0  0  0  0  0999 V2000
  185.6120  178.7610  138.5880 C   0  0  1  0  0  3  0  0  0  0  0  0
  189.6920  178.0900  138.2520 F   0  0  0  0  0  0  0  0  0  0  0  0
  187.0670  178.2640  140.6870 C   0  0  0  0  0  0  0  0  0  0  0  0
  187.5110  177.4770  137.8220 N   0  0  0  0  0  0  0  0  0  0  0  0
  188.3770  178.3570  138.5710 C   0  0  1  0  0  3  0  0  0  0  0  0
  185.6920  178.4330  140.0770 C   0  0  0  0  0  2  0  0  0  0  0  0
  188.1820  178.1930  140.0100 N   0  0  0  0  0  0  0  0  0  0  0  0
  186.2390  177.6560  137.7990 C   0  0  0  0  0  3  0  0  0  0  0  0
  184.2490  178.9050  138.2000 O   0  0  0  0  0  0  0  0  0  0  0  0
  182.8430  179.1490  140.1890 C   0  0  0  0  0  3  0  0  0  0  0  0
  183.1750  178.4770  138.9930 C   0  0  0  0  0  0  0  0  0  0  0  0
  181.3370  176.9100  139.3710 C   0  0  0  0  0  3  0  0  0  0  0  0
  182.4150  177.3570  138.5780 C   0  0  0  0  0  0  0  0  0  0  0  0
  181.0450  177.5990  140.5450 C   0  0  0  0  0  0  0  0  0  0  0  0
  181.7680  178.6800  140.9390 C   0  0  0  0  0  0  0  0  0  0  0  0
  180.0400  177.3150  141.4400 O   0  0  0  0  0  0  0  0  0  0  0  0
  180.0610  178.2520  142.5150 C   0  0  0  0  0  3  0  0  0  0  0  0
  181.2340  179.2110  142.2160 C   0  0  0  0  0  3  0  0  0  0  0  0
  183.4870  175.4610  137.2210 C   0  0  0  0  0  0  0  0  0  0  0  0
  182.7690  176.6940  137.3550 N   0  0  0  0  0  2  0  0  0  0  0  0
  183.8450  174.8060  138.2370 O   0  0  0  0  0  0  0  0  0  0  0  0
  183.7260  174.9150  135.8450 C   0  0  1  0  0  3  0  0  0  0  0  0
  187.7560  174.7120  134.9170 C   0  0  0  0  0  1  0  0  0  0  0  0
  186.3360  174.7880  135.2420 C   0  0  0  0  0  0  0  0  0  0  0  0
  185.1620  174.8480  135.5110 C   0  0  0  0  0  0  0  0  0  0  0  0
  182.0060  173.6920  134.3970 C   0  0  0  0  0  2  0  0  0  0  0  0
  182.9350  173.6110  135.5950 C   0  0  0  0  0  0  0  0  0  0  0  0
  181.4250  173.5910  135.7960 C   0  0  0  0  0  2  0  0  0  0  0  0
  183.1130  171.3440  136.6950 C   0  0  1  0  0  3  0  0  0  0  0  0
  183.4190  170.0270  136.3610 O   0  0  0  0  0  1  0  0  0  0  0  0
  184.3950  172.0980  136.9570 C   0  0  0  0  0  2  0  0  0  0  0  0
  183.6800  172.2710  135.6290 C   0  0  2  0  0  3  0  0  0  0  0  0
  187.1020  178.1460  142.0770 O   0  0  0  0  0  0  0  0  0  0  0  0
  188.3150  178.1210  142.8190 C   0  0  0  0  0  2  0  0  0  0  0  0
  186.3200  177.2820  146.0690 C   0  0  0  0  0  2  0  0  0  0  0  0
  188.3540  178.0960  147.4030 C   0  0  0  0  0  0  0  0  0  0  0  0
  189.0100  178.4410  148.5790 O   0  0  0  0  0  1  0  0  0  0  0  0
  189.0100  177.8780  146.3090 C   0  0  0  0  0  0  0  0  0  0  0  0
  188.0790  177.4370  144.1530 C   0  0  1  0  0  3  0  0  0  0  0  0
  189.2790  177.6170  145.0700 C   0  0  0  0  0  0  0  0  0  0  0  0
  186.7350  177.9520  144.7420 C   0  0  0  0  0  2  0  0  0  0  0  0
  186.8530  178.0150  147.3290 C   0  0  0  0  0  2  0  0  0  0  0  0
  190.6650  177.1830  144.6930 C   0  0  1  0  0  3  0  0  0  0  0  0
  191.2150  178.0080  143.5710 C   0  0  0  0  0  0  0  0  0  0  0  0
  191.4730  179.3550  143.7710 O   0  0  0  0  0  1  0  0  0  0  0  0
  191.4790  177.4830  142.4590 O   0  0  0  0  0  0  0  0  0  0  0  0
  191.5170  177.2230  145.8000 O   0  0  0  0  0  0  0  0  0  0  0  0
  191.9770  175.9140  145.9510 C   0  0  0  0  0  2  0  0  0  0  0  0
  192.7320  175.7960  148.2980 C   0  0  0  0  0  1  0  0  0  0  0  0
  191.6280  175.4190  147.3360 C   0  0  0  0  0  2  0  0  0  0  0  0
  1  9  1  6  0  0  0
  1  6  1  0  0  0  0
  3 33  1  0  0  0  0
  4  5  1  0  0  0  0
  5  2  1  1  0  0  0
  5  7  1  0  0  0  0
  6  3  1  0  0  0  0
  7  3  2  0  0  0  0
  8  4  2  0  0  0  0
  8  1  1  0  0  0  0
  9 11  1  0  0  0  0
 10 15  1  0  0  0  0
 11 10  2  0  0  0  0
 12 14  1  0  0  0  0
 13 11  1  0  0  0  0
 13 12  2  0  0  0  0
 14 15  2  0  0  0  0
 14 16  1  0  0  0  0
 15 18  1  0  0  0  0
 16 17  1  0  0  0  0
 18 17  2  0  0  0  0
 19 20  1  0  0  0  0
 19 21  2  0  0  0  0
 20 13  1  0  0  0  0
 22 25  1  1  0  0  0
 22 19  1  0  0  0  0
 23 24  1  0  0  0  0
 24 25  3  0  0  0  0
 26 27  1  0  0  0  0
 26 28  1  0  0  0  0
 27 28  1  0  0  0  0
 27 22  1  0  0  0  0
 29 30  1  6  0  0  0
 29 31  1  0  0  0  0
 32 27  1  1  0  0  0
 32 29  1  0  0  0  0
 32 31  1  0  0  0  0
 33 34  1  0  0  0  0
 35 42  1  0  0  0  0
 36 37  1  0  0  0  0
 38 36  2  0  0  0  0
 39 34  1  6  0  0  0
 39 41  1  0  0  0  0
 39 40  1  0  0  0  0
 40 38  2  0  0  0  0
 41 35  1  0  0  0  0
 42 36  1  0  0  0  0
 43 44  1  6  0  0  0
 43 40  1  0  0  0  0
 43 47  1  0  0  0  0
 44 45  1  0  0  0  0
 46 44  2  0  0  0  0
 47 48  1  0  0  0  0
 48 50  1  0  0  0  0
 50 49  1  0  0  0  0
M  END
>  <MODEL>
8

>  <REMARK>
 VINA RESULT:      -6.9      2.466      5.696
  Name = 
  15 active torsions:
  status: ('A' for Active; 'I' for Inactive)
    1  A    between atoms: C_3  and  C_16
    2  A    between atoms: C_3  and  C_20
    3  A    between atoms: C_3  and  C_46
    4  A    between atoms: C_5  and  O_23
    5  A    between atoms: C_8  and  C_13
    6  A    between atoms: C_8  and  O_25
    7  A    between atoms: C_8  and  C_30
    8  A    between atoms: C_11  and  O_23
    9  A    between atoms: C_20  and  C_38
   10  A    between atoms: C_21  and  O_25
   11  A    between atoms: C_21  and  C_41
   12  A    between atoms: C_22  and  O_33
   13  A    between atoms: C_24  and  N_36
   14  A    between atoms: C_26  and  C_44
   15  A    between atoms: O_33  and  C_44
                            x       y       z     vdW  Elec       q    Type
                         _______ _______ _______ _____ _____    ______ ____

>  <TORSDO>
F 15

$$$$
=
 OpenBabel10232411183D

 50 55  0  0  1  0  0  0  0  0999 V2000
  188.3440  177.7830  139.7130 C   0  0  1  0  0  3  0  0  0  0  0  0
  191.1750  175.2110  138.1080 F   0  0  0  0  0  0  0  0  0  0  0  0
  188.2030  177.0150  137.2320 C   0  0  0  0  0  0  0  0  0  0  0  0
  190.5990  177.2440  139.0310 N   0  0  0  0  0  0  0  0  0  0  0  0
  190.1090  176.0040  138.4780 C   0  0  1  0  0  3  0  0  0  0  0  0
  187.7090  177.9270  138.3330 C   0  0  0  0  0  2  0  0  0  0  0  0
  189.2540  176.2420  137.3160 N   0  0  0  0  0  0  0  0  0  0  0  0
  189.8090  178.0680  139.6220 C   0  0  0  0  0  3  0  0  0  0  0  0
  187.7400  178.7020  140.6190 O   0  0  0  0  0  0  0  0  0  0  0  0
  185.3850  178.8440  139.9670 C   0  0  0  0  0  3  0  0  0  0  0  0
  186.3790  178.6690  140.9530 C   0  0  0  0  0  0  0  0  0  0  0  0
  184.6390  178.4220  142.6530 C   0  0  0  0  0  3  0  0  0  0  0  0
  186.0050  178.4500  142.3010 C   0  0  0  0  0  0  0  0  0  0  0  0
  183.6910  178.6030  141.6500 C   0  0  0  0  0  0  0  0  0  0  0  0
  184.0480  178.8030  140.3550 C   0  0  0  0  0  0  0  0  0  0  0  0
  182.3230  178.6070  141.7990 O   0  0  0  0  0  0  0  0  0  0  0  0
  181.6930  178.8170  140.5370 C   0  0  0  0  0  3  0  0  0  0  0  0
  182.8390  178.9600  139.5120 C   0  0  0  0  0  3  0  0  0  0  0  0
  187.3740  177.0510  143.9600 C   0  0  0  0  0  0  0  0  0  0  0  0
  187.0340  178.2690  143.2850 N   0  0  0  0  0  2  0  0  0  0  0  0
  186.7820  175.9720  143.6870 O   0  0  0  0  0  0  0  0  0  0  0  0
  188.5140  177.0640  144.9360 C   0  0  1  0  0  3  0  0  0  0  0  0
  191.6050  179.5360  143.7240 C   0  0  0  0  0  1  0  0  0  0  0  0
  190.5150  178.6650  144.1460 C   0  0  0  0  0  0  0  0  0  0  0  0
  189.6140  177.9440  144.4980 C   0  0  0  0  0  0  0  0  0  0  0  0
  188.9430  178.2040  147.1870 C   0  0  0  0  0  2  0  0  0  0  0  0
  188.0300  177.2920  146.3850 C   0  0  0  0  0  0  0  0  0  0  0  0
  188.8380  176.7330  147.5510 C   0  0  0  0  0  2  0  0  0  0  0  0
  186.2380  179.0670  146.2500 C   0  0  1  0  0  3  0  0  0  0  0  0
  184.8750  179.1770  145.9840 O   0  0  0  0  0  1  0  0  0  0  0  0
  186.4300  178.7000  147.7020 C   0  0  0  0  0  2  0  0  0  0  0  0
  186.5550  177.6290  146.6330 C   0  0  2  0  0  3  0  0  0  0  0  0
  187.4770  177.0530  136.0410 O   0  0  0  0  0  0  0  0  0  0  0  0
  187.1020  175.8810  135.3280 C   0  0  0  0  0  2  0  0  0  0  0  0
  183.6030  177.5490  134.8490 C   0  0  0  0  0  2  0  0  0  0  0  0
  182.7710  176.1250  136.8130 C   0  0  0  0  0  0  0  0  0  0  0  0
  181.8260  175.7460  137.7590 O   0  0  0  0  0  1  0  0  0  0  0  0
  183.7860  175.3700  136.5420 C   0  0  0  0  0  0  0  0  0  0  0  0
  185.6040  175.8960  135.0820 C   0  0  1  0  0  3  0  0  0  0  0  0
  184.8950  174.9390  136.0280 C   0  0  0  0  0  0  0  0  0  0  0  0
  185.1050  177.3660  135.1590 C   0  0  0  0  0  2  0  0  0  0  0  0
  182.6930  177.4490  136.1020 C   0  0  0  0  0  2  0  0  0  0  0  0
  185.2230  173.4780  136.1070 C   0  0  1  0  0  3  0  0  0  0  0  0
  186.0120  173.1560  137.3380 C   0  0  0  0  0  0  0  0  0  0  0  0
  187.3900  173.3030  137.3300 O   0  0  0  0  0  0  0  0  0  0  0  0
  185.4330  172.7880  138.3920 O   0  0  0  0  0  1  0  0  0  0  0  0
  184.0620  172.7030  136.0470 O   0  0  0  0  0  0  0  0  0  0  0  0
  184.3900  171.6200  135.2280 C   0  0  0  0  0  2  0  0  0  0  0  0
  183.9920  169.2690  135.8650 C   0  0  0  0  0  1  0  0  0  0  0  0
  183.3400  170.5440  135.3780 C   0  0  0  0  0  2  0  0  0  0  0  0
  1  9  1  1  0  0  0
  3  7  2  0  0  0  0
  3  6  1  0  0  0  0
  4  8  2  0  0  0  0
  5  2  1  6  0  0  0
  5  4  1  0  0  0  0
  6  1  1  0  0  0  0
  7  5  1  0  0  0  0
  8  1  1  0  0  0  0
  9 11  1  0  0  0  0
 10 15  2  0  0  0  0
 10 11  1  0  0  0  0
 11 13  2  0  0  0  0
 13 12  1  0  0  0  0
 13 20  1  0  0  0  0
 14 16  1  0  0  0  0
 14 12  2  0  0  0  0
 15 14  1  0  0  0  0
 17 16  1  0  0  0  0
 18 15  1  0  0  0  0
 18 17  2  0  0  0  0
 19 22  1  0  0  0  0
 20 19  1  0  0  0  0
 21 19  2  0  0  0  0
 22 25  1  6  0  0  0
 22 27  1  0  0  0  0
 23 24  1  0  0  0  0
 24 25  3  0  0  0  0
 26 28  1  0  0  0  0
 27 26  1  0  0  0  0
 27 28  1  0  0  0  0
 29 30  1  1  0  0  0
 29 32  1  0  0  0  0
 29 31  1  0  0  0  0
 32 27  1  6  0  0  0
 32 31  1  0  0  0  0
 33  3  1  0  0  0  0
 34 33  1  0  0  0  0
 35 41  1  0  0  0  0
 35 42  1  0  0  0  0
 36 37  1  0  0  0  0
 38 36  2  0  0  0  0
 39 41  1  0  0  0  0
 39 34  1  1  0  0  0
 39 40  1  0  0  0  0
 40 43  1  0  0  0  0
 40 38  2  0  0  0  0
 42 36  1  0  0  0  0
 43 47  1  1  0  0  0
 43 44  1  0  0  0  0
 44 46  1  0  0  0  0
 45 44  2  0  0  0  0
 48 50  1  0  0  0  0
 48 47  1  0  0  0  0
 50 49  1  0  0  0  0
M  END
>  <MODEL>
9

>  <REMARK>
 VINA RESULT:      -6.9      2.661      9.901
  Name = 
  15 active torsions:
  status: ('A' for Active; 'I' for Inactive)
    1  A    between atoms: C_3  and  C_16
    2  A    between atoms: C_3  and  C_20
    3  A    between atoms: C_3  and  C_46
    4  A    between atoms: C_5  and  O_23
    5  A    between atoms: C_8  and  C_13
    6  A    between atoms: C_8  and  O_25
    7  A    between atoms: C_8  and  C_30
    8  A    between atoms: C_11  and  O_23
    9  A    between atoms: C_20  and  C_38
   10  A    between atoms: C_21  and  O_25
   11  A    between atoms: C_21  and  C_41
   12  A    between atoms: C_22  and  O_33
   13  A    between atoms: C_24  and  N_36
   14  A    between atoms: C_26  and  C_44
   15  A    between atoms: O_33  and  C_44
                            x       y       z     vdW  Elec       q    Type
                         _______ _______ _______ _____ _____    ______ ____

>  <TORSDO>
F 15

$$$$
