=
 OpenBabel10232411373D

 46 50  0  0  1  0  0  0  0  0999 V2000
  188.6800  173.8310  136.9380 O   0  0  0  0  0  0  0  0  0  0  0  0
  184.2680  174.7600  136.5510 C   0  0  0  0  0  0  0  0  0  0  0  0
  183.3080  174.7140  137.5650 C   0  0  0  0  0  3  0  0  0  0  0  0
  183.0760  175.8150  138.3830 C   0  0  0  0  0  0  0  0  0  0  0  0
  187.7240  174.1170  136.1680 C   0  0  0  0  0  0  0  0  0  0  0  0
  182.0960  175.7100  139.3710 C   0  0  0  0  0  3  0  0  0  0  0  0
  183.1360  170.1160  135.6450 C   0  0  0  0  0  0  0  0  0  0  0  0
  184.8350  177.0430  137.2190 C   0  0  0  0  0  0  0  0  0  0  0  0
  185.0390  175.9240  136.3830 C   0  0  0  0  0  0  0  0  0  0  0  0
  183.7660  168.7850  135.8730 C   0  0  0  0  0  1  0  0  0  0  0  0
  187.8430  171.8010  135.2400 C   0  0  0  0  0  1  0  0  0  0  0  0
  186.9550  173.0180  135.4820 C   0  0  1  0  0  3  0  0  0  0  0  0
  185.2660  171.2900  136.1050 N   0  0  0  0  0  2  0  0  0  0  0  0
  187.3870  175.4940  135.9760 N   0  0  0  0  0  2  0  0  0  0  0  0
  184.5280  173.5540  135.6890 C   0  0  2  0  0  3  0  0  0  0  0  0
  183.9060  171.3150  135.7670 N   0  0  0  0  0  0  0  0  0  0  0  0
  181.8190  176.7900  140.2040 C   0  0  0  0  0  3  0  0  0  0  0  0
  186.1450  175.9460  135.3650 C   0  0  0  0  0  2  0  0  0  0  0  0
  183.8200  177.0130  138.2180 C   0  0  0  0  0  0  0  0  0  0  0  0
  182.5180  177.9840  140.0470 C   0  0  0  0  0  3  0  0  0  0  0  0
  181.9150  170.1720  135.3440 O   0  0  0  0  0  0  0  0  0  0  0  0
  183.5120  178.1140  139.0710 C   0  0  0  0  0  0  0  0  0  0  0  0
  183.3440  172.6280  135.5480 C   0  0  0  0  0  2  0  0  0  0  0  0
  185.6600  172.6950  136.2460 C   0  0  2  0  0  3  0  0  0  0  0  0
  184.1400  179.4630  138.9490 C   0  0  0  0  0  2  0  0  0  0  0  0
  184.8180  179.7760  140.1270 O   0  0  0  0  0  1  0  0  0  0  0  0
  185.7160  178.1670  137.0800 N   0  0  0  0  0  2  0  0  0  0  0  0
  187.0290  178.1940  137.6480 C   0  0  0  0  0  0  0  0  0  0  0  0
  189.3980  178.6360  137.3980 C   0  0  0  0  0  3  0  0  0  0  0  0
  188.5370  177.8550  139.5360 C   0  0  0  0  0  0  0  0  0  0  0  0
  189.6110  178.2660  138.7290 C   0  0  0  0  0  3  0  0  0  0  0  0
  187.2490  177.8260  138.9830 C   0  0  0  0  0  3  0  0  0  0  0  0
  188.1090  178.6010  136.8590 C   0  0  0  0  0  3  0  0  0  0  0  0
  188.7430  177.4810  140.9130 N   0  0  0  0  0  0  0  0  0  0  0  0
  189.8780  176.6540  141.3080 C   0  0  0  0  0  2  0  0  0  0  0  0
  190.9580  177.5190  141.9360 C   0  0  0  0  0  2  0  0  0  0  0  0
  191.5150  176.8400  143.1740 C   0  0  2  0  0  3  0  0  0  0  0  0
  190.7010  175.7860  143.5470 F   0  0  0  0  0  0  0  0  0  0  0  0
  191.6200  177.8230  144.2910 C   0  0  0  0  0  0  0  0  0  0  0  0
  191.8050  177.4280  145.4720 O   0  0  0  0  0  0  0  0  0  0  0  0
  191.4840  179.2130  144.0230 N   0  0  0  0  0  1  0  0  0  0  0  0
  187.9670  178.0620  141.9300 N   0  0  0  0  0  2  0  0  0  0  0  0
  187.6620  177.0200  142.9000 C   0  0  0  0  0  2  0  0  0  0  0  0
  188.5390  177.7340  144.9920 F   0  0  0  0  0  0  0  0  0  0  0  0
  186.4550  176.8560  144.9460 F   0  0  0  0  0  0  0  0  0  0  0  0
  187.3710  177.6300  144.2600 C   0  0  0  0  0  3  0  0  0  0  0  0
  2  3  1  0  0  0  0
  3  4  2  0  0  0  0
  4  6  1  0  0  0  0
  5  1  2  0  0  0  0
  6 17  2  0  0  0  0
  7 16  1  0  0  0  0
  7 10  1  0  0  0  0
  8 19  2  0  0  0  0
  9  2  2  0  0  0  0
  9  8  1  0  0  0  0
 12 11  1  1  0  0  0
 12  5  1  0  0  0  0
 12 24  1  0  0  0  0
 14  5  1  0  0  0  0
 15 23  1  1  0  0  0
 15 24  1  0  0  0  0
 15  2  1  0  0  0  0
 16 13  1  0  0  0  0
 18 14  1  0  0  0  0
 18  9  1  0  0  0  0
 19  4  1  0  0  0  0
 19 22  1  0  0  0  0
 20 17  1  0  0  0  0
 21  7  2  0  0  0  0
 22 20  2  0  0  0  0
 23 16  1  0  0  0  0
 24 13  1  6  0  0  0
 25 22  1  0  0  0  0
 25 26  1  0  0  0  0
 27  8  1  0  0  0  0
 27 28  1  0  0  0  0
 28 32  1  0  0  0  0
 29 31  2  0  0  0  0
 30 34  1  0  0  0  0
 31 30  1  0  0  0  0
 32 30  2  0  0  0  0
 33 29  1  0  0  0  0
 33 28  2  0  0  0  0
 34 35  1  0  0  0  0
 34 42  1  0  0  0  0
 35 36  1  0  0  0  0
 36 37  1  0  0  0  0
 37 38  1  1  0  0  0
 37 39  1  0  0  0  0
 39 40  2  0  0  0  0
 41 39  1  0  0  0  0
 42 43  1  0  0  0  0
 43 46  1  0  0  0  0
 46 45  1  0  0  0  0
 46 44  1  0  0  0  0
M  END
>  <MODEL>
1

>  <REMARK>
 VINA RESULT:      -7.8      0.000      0.000
  Name = 
  11 active torsions:
  status: ('A' for Active; 'I' for Inactive)
    1  A    between atoms: C_1  and  C_9
    2  A    between atoms: C_1  and  C_34
    3  A    between atoms: N_2  and  C_18
    4  A    between atoms: N_2  and  N_19
    5  A    between atoms: N_2  and  C_28
    6  A    between atoms: C_4  and  N_40
    7  A    between atoms: C_6  and  C_43
    8  A    between atoms: C_12  and  N_19
    9  A    between atoms: C_12  and  C_33
   10  A    between atoms: C_18  and  C_34
   11  A    between atoms: C_20  and  N_40
                            x       y       z     vdW  Elec       q    Type
                         _______ _______ _______ _____ _____    ______ ____

>  <TORSDO>
F 11

$$$$
=
 OpenBabel10232411373D

 46 50  0  0  1  0  0  0  0  0999 V2000
  188.6570  173.8640  137.0010 O   0  0  0  0  0  0  0  0  0  0  0  0
  184.2410  174.7590  136.5680 C   0  0  0  0  0  0  0  0  0  0  0  0
  183.2750  174.7220  137.5750 C   0  0  0  0  0  3  0  0  0  0  0  0
  183.0300  175.8330  138.3750 C   0  0  0  0  0  0  0  0  0  0  0  0
  187.7050  174.1320  136.2200 C   0  0  0  0  0  0  0  0  0  0  0  0
  182.0430  175.7380  139.3570 C   0  0  0  0  0  3  0  0  0  0  0  0
  183.1460  170.0940  135.7260 C   0  0  0  0  0  0  0  0  0  0  0  0
  184.7890  177.0550  137.2040 C   0  0  0  0  0  0  0  0  0  0  0  0
  185.0070  175.9250  136.3870 C   0  0  0  0  0  0  0  0  0  0  0  0
  183.7820  168.7710  135.9790 C   0  0  0  0  0  1  0  0  0  0  0  0
  187.8450  171.8020  135.3280 C   0  0  0  0  0  1  0  0  0  0  0  0
  186.9470  173.0180  135.5450 C   0  0  1  0  0  3  0  0  0  0  0  0
  185.2650  171.2890  136.1830 N   0  0  0  0  0  2  0  0  0  0  0  0
  187.3600  175.5040  136.0040 N   0  0  0  0  0  2  0  0  0  0  0  0
  184.5160  173.5410  135.7270 C   0  0  2  0  0  3  0  0  0  0  0  0
  183.9080  171.3000  135.8350 N   0  0  0  0  0  0  0  0  0  0  0  0
  181.7540  176.8290  140.1710 C   0  0  0  0  0  3  0  0  0  0  0  0
  186.1200  175.9380  135.3770 C   0  0  0  0  0  2  0  0  0  0  0  0
  183.7670  177.0340  138.1960 C   0  0  0  0  0  0  0  0  0  0  0  0
  182.4460  178.0240  140.0010 C   0  0  0  0  0  3  0  0  0  0  0  0
  181.9270  170.1370  135.4150 O   0  0  0  0  0  0  0  0  0  0  0  0
  183.4460  178.1460  139.0300 C   0  0  0  0  0  0  0  0  0  0  0  0
  183.3380  172.6050  135.5910 C   0  0  0  0  0  2  0  0  0  0  0  0
  185.6490  172.6980  136.3040 C   0  0  2  0  0  3  0  0  0  0  0  0
  184.0670  179.4970  138.8920 C   0  0  0  0  0  2  0  0  0  0  0  0
  184.7220  179.8380  140.0740 O   0  0  0  0  0  1  0  0  0  0  0  0
  185.6640  178.1820  137.0540 N   0  0  0  0  0  2  0  0  0  0  0  0
  186.9510  178.2500  137.6770 C   0  0  0  0  0  0  0  0  0  0  0  0
  189.3240  178.7050  137.5100 C   0  0  0  0  0  3  0  0  0  0  0  0
  188.3770  178.0160  139.6430 C   0  0  0  0  0  0  0  0  0  0  0  0
  189.4820  178.4000  138.8650 C   0  0  0  0  0  3  0  0  0  0  0  0
  187.1140  177.9480  139.0360 C   0  0  0  0  0  3  0  0  0  0  0  0
  188.0600  178.6310  136.9180 C   0  0  0  0  0  3  0  0  0  0  0  0
  188.5250  177.7090  141.0440 N   0  0  0  0  0  0  0  0  0  0  0  0
  187.7010  178.3670  142.0510 C   0  0  0  0  0  2  0  0  0  0  0  0
  187.0100  177.3280  142.9180 C   0  0  0  0  0  2  0  0  0  0  0  0
  186.5090  177.9680  144.2000 C   0  0  2  0  0  3  0  0  0  0  0  0
  186.6660  177.0940  145.2610 F   0  0  0  0  0  0  0  0  0  0  0  0
  185.0730  178.3420  144.0560 C   0  0  0  0  0  0  0  0  0  0  0  0
  184.4640  178.1290  142.9740 O   0  0  0  0  0  0  0  0  0  0  0  0
  184.3940  178.9650  145.1390 N   0  0  0  0  0  1  0  0  0  0  0  0
  189.3270  176.6300  141.4530 N   0  0  0  0  0  2  0  0  0  0  0  0
  190.4770  177.1810  142.1570 C   0  0  0  0  0  2  0  0  0  0  0  0
  190.7040  175.0120  143.1090 F   0  0  0  0  0  0  0  0  0  0  0  0
  189.8840  176.6730  144.4070 F   0  0  0  0  0  0  0  0  0  0  0  0
  190.7780  176.3620  143.4000 C   0  0  0  0  0  3  0  0  0  0  0  0
  2  3  1  0  0  0  0
  3  4  2  0  0  0  0
  4  6  1  0  0  0  0
  5  1  2  0  0  0  0
  6 17  2  0  0  0  0
  7 16  1  0  0  0  0
  7 10  1  0  0  0  0
  8 19  2  0  0  0  0
  9  2  2  0  0  0  0
  9  8  1  0  0  0  0
 12 11  1  1  0  0  0
 12  5  1  0  0  0  0
 12 24  1  0  0  0  0
 14  5  1  0  0  0  0
 15 23  1  1  0  0  0
 15 24  1  0  0  0  0
 15  2  1  0  0  0  0
 16 13  1  0  0  0  0
 18 14  1  0  0  0  0
 18  9  1  0  0  0  0
 19  4  1  0  0  0  0
 19 22  1  0  0  0  0
 20 17  1  0  0  0  0
 21  7  2  0  0  0  0
 22 20  2  0  0  0  0
 23 16  1  0  0  0  0
 24 13  1  6  0  0  0
 25 22  1  0  0  0  0
 25 26  1  0  0  0  0
 27  8  1  0  0  0  0
 27 28  1  0  0  0  0
 28 32  1  0  0  0  0
 29 31  2  0  0  0  0
 30 34  1  0  0  0  0
 31 30  1  0  0  0  0
 32 30  2  0  0  0  0
 33 29  1  0  0  0  0
 33 28  2  0  0  0  0
 34 42  1  0  0  0  0
 34 35  1  0  0  0  0
 35 36  1  0  0  0  0
 36 37  1  0  0  0  0
 37 38  1  1  0  0  0
 39 37  1  0  0  0  0
 39 41  1  0  0  0  0
 40 39  2  0  0  0  0
 42 43  1  0  0  0  0
 43 46  1  0  0  0  0
 44 46  1  0  0  0  0
 46 45  1  0  0  0  0
M  END
>  <MODEL>
2

>  <REMARK>
 VINA RESULT:      -7.6      1.415      2.482
  Name = 
  11 active torsions:
  status: ('A' for Active; 'I' for Inactive)
    1  A    between atoms: C_1  and  C_9
    2  A    between atoms: C_1  and  C_34
    3  A    between atoms: N_2  and  C_18
    4  A    between atoms: N_2  and  N_19
    5  A    between atoms: N_2  and  C_28
    6  A    between atoms: C_4  and  N_40
    7  A    between atoms: C_6  and  C_43
    8  A    between atoms: C_12  and  N_19
    9  A    between atoms: C_12  and  C_33
   10  A    between atoms: C_18  and  C_34
   11  A    between atoms: C_20  and  N_40
                            x       y       z     vdW  Elec       q    Type
                         _______ _______ _______ _____ _____    ______ ____

>  <TORSDO>
F 11

$$$$
=
 OpenBabel10232411373D

 46 50  0  0  1  0  0  0  0  0999 V2000
  190.9800  177.4630  139.8330 O   0  0  0  0  0  0  0  0  0  0  0  0
  188.9280  175.1030  136.5620 C   0  0  0  0  0  0  0  0  0  0  0  0
  188.1750  173.9360  136.7140 C   0  0  0  0  0  3  0  0  0  0  0  0
  186.8150  173.9920  136.9980 C   0  0  0  0  0  0  0  0  0  0  0  0
  190.7850  177.3220  138.5960 C   0  0  0  0  0  0  0  0  0  0  0  0
  186.1150  172.7920  137.1280 C   0  0  0  0  0  3  0  0  0  0  0  0
  192.7820  172.2040  135.9210 C   0  0  0  0  0  0  0  0  0  0  0  0
  186.9330  176.4300  137.0510 C   0  0  0  0  0  0  0  0  0  0  0  0
  188.3080  176.3530  136.7390 C   0  0  0  0  0  0  0  0  0  0  0  0
  193.9780  171.8040  136.7150 C   0  0  0  0  0  1  0  0  0  0  0  0
  193.1560  176.5730  138.3570 C   0  0  0  0  0  1  0  0  0  0  0  0
  191.7490  176.5110  137.7690 C   0  0  1  0  0  3  0  0  0  0  0  0
  192.3140  174.1030  137.4380 N   0  0  0  0  0  2  0  0  0  0  0  0
  189.6310  177.9320  138.0090 N   0  0  0  0  0  2  0  0  0  0  0  0
  190.4050  175.0280  136.2810 C   0  0  2  0  0  3  0  0  0  0  0  0
  191.9980  173.3360  136.3090 N   0  0  0  0  0  0  0  0  0  0  0  0
  184.7500  172.7990  137.3970 C   0  0  0  0  0  3  0  0  0  0  0  0
  189.1310  177.6090  136.6800 C   0  0  0  0  0  2  0  0  0  0  0  0
  186.1560  175.2410  137.1540 C   0  0  0  0  0  0  0  0  0  0  0  0
  184.0760  174.0100  137.5310 C   0  0  0  0  0  3  0  0  0  0  0  0
  192.4700  171.5320  134.9030 O   0  0  0  0  0  0  0  0  0  0  0  0
  184.7530  175.2290  137.4150 C   0  0  0  0  0  0  0  0  0  0  0  0
  190.8360  173.7690  135.5680 C   0  0  0  0  0  2  0  0  0  0  0  0
  191.2280  175.0790  137.5650 C   0  0  2  0  0  3  0  0  0  0  0  0
  183.9120  176.4590  137.5050 C   0  0  0  0  0  2  0  0  0  0  0  0
  182.6670  176.1420  138.0460 O   0  0  0  0  0  1  0  0  0  0  0  0
  186.3690  177.7200  137.3260 N   0  0  0  0  0  2  0  0  0  0  0  0
  186.0590  178.1610  138.6520 C   0  0  0  0  0  0  0  0  0  0  0  0
  184.5360  179.2650  140.1770 C   0  0  0  0  0  3  0  0  0  0  0  0
  186.6340  178.3620  141.0150 C   0  0  0  0  0  0  0  0  0  0  0  0
  185.4200  179.0330  141.2350 C   0  0  0  0  0  3  0  0  0  0  0  0
  186.9420  177.9280  139.7170 C   0  0  0  0  0  3  0  0  0  0  0  0
  184.8560  178.8290  138.8890 C   0  0  0  0  0  3  0  0  0  0  0  0
  187.5500  178.1060  142.0990 N   0  0  0  0  0  0  0  0  0  0  0  0
  187.1760  177.2440  143.2140 C   0  0  0  0  0  2  0  0  0  0  0  0
  186.0760  177.8980  144.0320 C   0  0  0  0  0  2  0  0  0  0  0  0
  186.6020  178.2780  145.4050 C   0  0  2  0  0  3  0  0  0  0  0  0
  187.0430  177.1500  146.0740 F   0  0  0  0  0  0  0  0  0  0  0  0
  185.5300  178.9520  146.1920 C   0  0  0  0  0  0  0  0  0  0  0  0
  185.8110  179.5670  147.2550 O   0  0  0  0  0  0  0  0  0  0  0  0
  184.1800  178.8780  145.7540 N   0  0  0  0  0  1  0  0  0  0  0  0
  188.8880  178.5240  142.0100 N   0  0  0  0  0  2  0  0  0  0  0  0
  189.6480  177.7760  143.0020 C   0  0  0  0  0  2  0  0  0  0  0  0
  191.7700  178.4640  143.8290 F   0  0  0  0  0  0  0  0  0  0  0  0
  189.9870  178.5860  145.2150 F   0  0  0  0  0  0  0  0  0  0  0  0
  190.4140  178.7230  143.9080 C   0  0  0  0  0  3  0  0  0  0  0  0
  2  3  2  0  0  0  0
  2  9  1  0  0  0  0
  3  4  1  0  0  0  0
  4  6  2  0  0  0  0
  4 19  1  0  0  0  0
  5  1  2  0  0  0  0
  6 17  1  0  0  0  0
  7 16  1  0  0  0  0
  7 10  1  0  0  0  0
  8 19  1  0  0  0  0
  8 27  1  0  0  0  0
  9  8  2  0  0  0  0
 12 11  1  1  0  0  0
 12  5  1  0  0  0  0
 14  5  1  0  0  0  0
 15 23  1  1  0  0  0
 15  2  1  0  0  0  0
 15 24  1  0  0  0  0
 16 13  1  0  0  0  0
 17 20  2  0  0  0  0
 18  9  1  0  0  0  0
 18 14  1  0  0  0  0
 19 22  2  0  0  0  0
 21  7  2  0  0  0  0
 22 25  1  0  0  0  0
 22 20  1  0  0  0  0
 23 16  1  0  0  0  0
 24 13  1  6  0  0  0
 24 12  1  0  0  0  0
 25 26  1  0  0  0  0
 27 28  1  0  0  0  0
 28 33  2  0  0  0  0
 28 32  1  0  0  0  0
 29 31  2  0  0  0  0
 30 31  1  0  0  0  0
 30 34  1  0  0  0  0
 32 30  2  0  0  0  0
 33 29  1  0  0  0  0
 34 35  1  0  0  0  0
 35 36  1  0  0  0  0
 36 37  1  0  0  0  0
 37 38  1  1  0  0  0
 37 39  1  0  0  0  0
 39 40  2  0  0  0  0
 41 39  1  0  0  0  0
 42 34  1  0  0  0  0
 42 43  1  0  0  0  0
 43 46  1  0  0  0  0
 44 46  1  0  0  0  0
 46 45  1  0  0  0  0
M  END
>  <MODEL>
3

>  <REMARK>
 VINA RESULT:      -7.5      2.976      5.428
  Name = 
  11 active torsions:
  status: ('A' for Active; 'I' for Inactive)
    1  A    between atoms: C_1  and  C_9
    2  A    between atoms: C_1  and  C_34
    3  A    between atoms: N_2  and  C_18
    4  A    between atoms: N_2  and  N_19
    5  A    between atoms: N_2  and  C_28
    6  A    between atoms: C_4  and  N_40
    7  A    between atoms: C_6  and  C_43
    8  A    between atoms: C_12  and  N_19
    9  A    between atoms: C_12  and  C_33
   10  A    between atoms: C_18  and  C_34
   11  A    between atoms: C_20  and  N_40
                            x       y       z     vdW  Elec       q    Type
                         _______ _______ _______ _____ _____    ______ ____

>  <TORSDO>
F 11

$$$$
=
 OpenBabel10232411373D

 46 50  0  0  1  0  0  0  0  0999 V2000
  190.2190  177.3890  141.1000 O   0  0  0  0  0  0  0  0  0  0  0  0
  188.3750  176.3490  137.0990 C   0  0  0  0  0  0  0  0  0  0  0  0
  187.5720  175.2440  136.8070 C   0  0  0  0  0  3  0  0  0  0  0  0
  186.1950  175.2880  136.9980 C   0  0  0  0  0  0  0  0  0  0  0  0
  190.1260  177.6690  139.8750 C   0  0  0  0  0  0  0  0  0  0  0  0
  185.4460  174.1560  136.6760 C   0  0  0  0  0  3  0  0  0  0  0  0
  192.1680  173.5870  135.8130 C   0  0  0  0  0  0  0  0  0  0  0  0
  186.3930  177.5640  137.8570 C   0  0  0  0  0  0  0  0  0  0  0  0
  187.7860  177.5090  137.6340 C   0  0  0  0  0  0  0  0  0  0  0  0
  193.2760  172.8780  136.5120 C   0  0  0  0  0  1  0  0  0  0  0  0
  192.4820  176.8950  139.5690 C   0  0  0  0  0  1  0  0  0  0  0  0
  191.1290  177.1140  138.8970 C   0  0  1  0  0  3  0  0  0  0  0  0
  191.6370  174.9150  137.8330 N   0  0  0  0  0  2  0  0  0  0  0  0
  189.0490  178.5060  139.4420 N   0  0  0  0  0  2  0  0  0  0  0  0
  189.8670  176.2800  136.9140 C   0  0  2  0  0  3  0  0  0  0  0  0
  191.3930  174.5770  136.4960 N   0  0  0  0  0  0  0  0  0  0  0  0
  184.0630  174.1590  136.8370 C   0  0  0  0  0  3  0  0  0  0  0  0
  188.6540  178.6640  138.0500 C   0  0  0  0  0  2  0  0  0  0  0  0
  185.5690  176.4560  137.5090 C   0  0  0  0  0  0  0  0  0  0  0  0
  183.4230  175.2980  137.3140 C   0  0  0  0  0  3  0  0  0  0  0  0
  191.9210  173.3020  134.6110 O   0  0  0  0  0  0  0  0  0  0  0  0
  184.1490  176.4450  137.6520 C   0  0  0  0  0  0  0  0  0  0  0  0
  190.3140  175.2970  135.8590 C   0  0  0  0  0  2  0  0  0  0  0  0
  190.5780  175.8610  138.1980 C   0  0  2  0  0  3  0  0  0  0  0  0
  183.3470  177.6280  138.0830 C   0  0  0  0  0  2  0  0  0  0  0  0
  182.5580  178.0750  137.0230 O   0  0  0  0  0  1  0  0  0  0  0  0
  185.8530  178.7260  138.5010 N   0  0  0  0  0  2  0  0  0  0  0  0
  185.3850  178.7140  139.8540 C   0  0  0  0  0  0  0  0  0  0  0  0
  183.5980  179.0950  141.4440 C   0  0  0  0  0  3  0  0  0  0  0  0
  185.7590  178.2990  142.2290 C   0  0  0  0  0  0  0  0  0  0  0  0
  184.4370  178.6950  142.4880 C   0  0  0  0  0  3  0  0  0  0  0  0
  186.2220  178.3100  140.9050 C   0  0  0  0  0  3  0  0  0  0  0  0
  184.0720  179.1030  140.1300 C   0  0  0  0  0  3  0  0  0  0  0  0
  186.6320  177.8740  143.2960 N   0  0  0  0  0  0  0  0  0  0  0  0
  188.0820  177.9580  143.1640 C   0  0  0  0  0  2  0  0  0  0  0  0
  188.7510  177.0560  144.1860 C   0  0  0  0  0  2  0  0  0  0  0  0
  189.8890  177.7940  144.8680 C   0  0  2  0  0  3  0  0  0  0  0  0
  190.2280  178.9210  144.1410 F   0  0  0  0  0  0  0  0  0  0  0  0
  191.0720  176.8970  144.9980 C   0  0  0  0  0  0  0  0  0  0  0  0
  191.4080  176.1420  144.0470 O   0  0  0  0  0  0  0  0  0  0  0  0
  191.8120  176.8760  146.2130 N   0  0  0  0  0  1  0  0  0  0  0  0
  186.1040  177.5540  144.5580 N   0  0  0  0  0  2  0  0  0  0  0  0
  185.9400  178.8000  145.2940 C   0  0  0  0  0  2  0  0  0  0  0  0
  184.4230  178.1520  147.0090 F   0  0  0  0  0  0  0  0  0  0  0  0
  186.0500  179.6380  147.5200 F   0  0  0  0  0  0  0  0  0  0  0  0
  185.7350  178.5190  146.7720 C   0  0  0  0  0  3  0  0  0  0  0  0
  2  9  1  0  0  0  0
  3  4  1  0  0  0  0
  3  2  2  0  0  0  0
  4 19  1  0  0  0  0
  5  1  2  0  0  0  0
  6 17  1  0  0  0  0
  6  4  2  0  0  0  0
  7 16  1  0  0  0  0
  7 10  1  0  0  0  0
  8 27  1  0  0  0  0
  9  8  2  0  0  0  0
  9 18  1  0  0  0  0
 12 11  1  1  0  0  0
 12  5  1  0  0  0  0
 14  5  1  0  0  0  0
 15 23  1  6  0  0  0
 15  2  1  0  0  0  0
 15 24  1  0  0  0  0
 16 13  1  0  0  0  0
 17 20  2  0  0  0  0
 18 14  1  0  0  0  0
 19 22  2  0  0  0  0
 19  8  1  0  0  0  0
 20 22  1  0  0  0  0
 21  7  2  0  0  0  0
 22 25  1  0  0  0  0
 23 16  1  0  0  0  0
 24 13  1  6  0  0  0
 24 12  1  0  0  0  0
 26 25  1  0  0  0  0
 27 28  1  0  0  0  0
 28 33  2  0  0  0  0
 28 32  1  0  0  0  0
 29 31  2  0  0  0  0
 30 31  1  0  0  0  0
 30 34  1  0  0  0  0
 32 30  2  0  0  0  0
 33 29  1  0  0  0  0
 34 42  1  0  0  0  0
 35 34  1  0  0  0  0
 35 36  1  0  0  0  0
 36 37  1  0  0  0  0
 37 38  1  6  0  0  0
 37 39  1  0  0  0  0
 39 41  1  0  0  0  0
 40 39  2  0  0  0  0
 42 43  1  0  0  0  0
 43 46  1  0  0  0  0
 46 44  1  0  0  0  0
 46 45  1  0  0  0  0
M  END
>  <MODEL>
4

>  <REMARK>
 VINA RESULT:      -7.1      2.996      5.156
  Name = 
  11 active torsions:
  status: ('A' for Active; 'I' for Inactive)
    1  A    between atoms: C_1  and  C_9
    2  A    between atoms: C_1  and  C_34
    3  A    between atoms: N_2  and  C_18
    4  A    between atoms: N_2  and  N_19
    5  A    between atoms: N_2  and  C_28
    6  A    between atoms: C_4  and  N_40
    7  A    between atoms: C_6  and  C_43
    8  A    between atoms: C_12  and  N_19
    9  A    between atoms: C_12  and  C_33
   10  A    between atoms: C_18  and  C_34
   11  A    between atoms: C_20  and  N_40
                            x       y       z     vdW  Elec       q    Type
                         _______ _______ _______ _____ _____    ______ ____

>  <TORSDO>
F 11

$$$$
=
 OpenBabel10232411373D

 46 50  0  0  1  0  0  0  0  0999 V2000
  186.7160  178.3900  135.0510 O   0  0  0  0  0  0  0  0  0  0  0  0
  188.1340  174.5690  137.0180 C   0  0  0  0  0  0  0  0  0  0  0  0
  188.9230  173.5710  136.4420 C   0  0  0  0  0  3  0  0  0  0  0  0
  190.3120  173.6490  136.4720 C   0  0  0  0  0  0  0  0  0  0  0  0
  186.6690  177.6440  136.0650 C   0  0  0  0  0  0  0  0  0  0  0  0
  191.0450  172.6150  135.8890 C   0  0  0  0  0  3  0  0  0  0  0  0
  184.2830  172.0550  135.4320 C   0  0  0  0  0  0  0  0  0  0  0  0
  190.1600  175.7980  137.6200 C   0  0  0  0  0  0  0  0  0  0  0  0
  188.7540  175.6890  137.6000 C   0  0  0  0  0  0  0  0  0  0  0  0
  183.2720  172.1950  134.3460 C   0  0  0  0  0  1  0  0  0  0  0  0
  184.3110  177.0700  135.4730 C   0  0  0  0  0  1  0  0  0  0  0  0
  185.5770  176.6130  136.1920 C   0  0  1  0  0  3  0  0  0  0  0  0
  185.0020  174.4090  135.1730 N   0  0  0  0  0  2  0  0  0  0  0  0
  187.6750  177.7910  137.0730 N   0  0  0  0  0  2  0  0  0  0  0  0
  186.6320  174.4870  136.9560 C   0  0  2  0  0  3  0  0  0  0  0  0
  185.1060  173.1630  135.8060 N   0  0  0  0  0  0  0  0  0  0  0  0
  192.4360  172.6420  135.9070 C   0  0  0  0  0  3  0  0  0  0  0  0
  187.9120  176.8170  138.1290 C   0  0  0  0  0  2  0  0  0  0  0  0
  190.9650  174.7540  137.0780 C   0  0  0  0  0  0  0  0  0  0  0  0
  193.1010  173.7030  136.5160 C   0  0  0  0  0  3  0  0  0  0  0  0
  184.4030  170.9470  136.0170 O   0  0  0  0  0  0  0  0  0  0  0  0
  192.3920  174.7570  137.1010 C   0  0  0  0  0  0  0  0  0  0  0  0
  186.0940  173.0800  136.8570 C   0  0  0  0  0  2  0  0  0  0  0  0
  186.0740  175.2290  135.7450 C   0  0  2  0  0  3  0  0  0  0  0  0
  193.2110  175.8000  137.7870 C   0  0  0  0  0  2  0  0  0  0  0  0
  193.8490  176.6000  136.8390 O   0  0  0  0  0  1  0  0  0  0  0  0
  190.7440  177.0060  138.1280 N   0  0  0  0  0  2  0  0  0  0  0  0
  190.9760  177.2250  139.5230 C   0  0  0  0  0  0  0  0  0  0  0  0
  192.5300  177.6030  141.3420 C   0  0  0  0  0  3  0  0  0  0  0  0
  190.1420  177.5010  141.8000 C   0  0  0  0  0  0  0  0  0  0  0  0
  191.4640  177.6600  142.2460 C   0  0  0  0  0  3  0  0  0  0  0  0
  189.9100  177.2850  140.4330 C   0  0  0  0  0  3  0  0  0  0  0  0
  192.2850  177.3860  139.9840 C   0  0  0  0  0  3  0  0  0  0  0  0
  189.0340  177.5680  142.7200 N   0  0  0  0  0  0  0  0  0  0  0  0
  189.1830  178.1780  144.0360 C   0  0  0  0  0  2  0  0  0  0  0  0
  189.3250  177.1010  145.0970 C   0  0  0  0  0  2  0  0  0  0  0  0
  188.2500  177.2660  146.1560 C   0  0  2  0  0  3  0  0  0  0  0  0
  187.4430  178.3470  145.8500 F   0  0  0  0  0  0  0  0  0  0  0  0
  188.8790  177.4620  147.4940 C   0  0  0  0  0  0  0  0  0  0  0  0
  190.0410  177.0320  147.7210 O   0  0  0  0  0  0  0  0  0  0  0  0
  188.1520  178.1160  148.5260 N   0  0  0  0  0  1  0  0  0  0  0  0
  187.7390  177.2230  142.2980 N   0  0  0  0  0  2  0  0  0  0  0  0
  186.9660  178.4540  142.2050 C   0  0  0  0  0  2  0  0  0  0  0  0
  184.7450  179.3060  142.2250 F   0  0  0  0  0  0  0  0  0  0  0  0
  185.3450  177.8350  143.8350 F   0  0  0  0  0  0  0  0  0  0  0  0
  185.5030  178.1840  142.5070 C   0  0  0  0  0  3  0  0  0  0  0  0
  1  5  2  0  0  0  0
  2  9  1  0  0  0  0
  3  4  1  0  0  0  0
  3  2  2  0  0  0  0
  4 19  1  0  0  0  0
  5 12  1  0  0  0  0
  5 14  1  0  0  0  0
  6 17  1  0  0  0  0
  6  4  2  0  0  0  0
  7 16  1  0  0  0  0
  7 21  2  0  0  0  0
  8 27  1  0  0  0  0
  9  8  2  0  0  0  0
  9 18  1  0  0  0  0
 10  7  1  0  0  0  0
 12 11  1  6  0  0  0
 13 16  1  0  0  0  0
 14 18  1  0  0  0  0
 15 23  1  6  0  0  0
 15  2  1  0  0  0  0
 16 23  1  0  0  0  0
 17 20  2  0  0  0  0
 19 22  2  0  0  0  0
 19  8  1  0  0  0  0
 20 22  1  0  0  0  0
 22 25  1  0  0  0  0
 24 13  1  1  0  0  0
 24 12  1  0  0  0  0
 24 15  1  0  0  0  0
 26 25  1  0  0  0  0
 27 28  1  0  0  0  0
 28 33  2  0  0  0  0
 28 32  1  0  0  0  0
 29 31  2  0  0  0  0
 30 31  1  0  0  0  0
 30 34  1  0  0  0  0
 32 30  2  0  0  0  0
 33 29  1  0  0  0  0
 34 35  1  0  0  0  0
 35 36  1  0  0  0  0
 36 37  1  0  0  0  0
 37 38  1  6  0  0  0
 37 39  1  0  0  0  0
 39 40  2  0  0  0  0
 39 41  1  0  0  0  0
 42 34  1  0  0  0  0
 43 42  1  0  0  0  0
 43 46  1  0  0  0  0
 44 46  1  0  0  0  0
 46 45  1  0  0  0  0
M  END
>  <MODEL>
5

>  <REMARK>
 VINA RESULT:      -6.8      2.825      5.483
  Name = 
  11 active torsions:
  status: ('A' for Active; 'I' for Inactive)
    1  A    between atoms: C_1  and  C_9
    2  A    between atoms: C_1  and  C_34
    3  A    between atoms: N_2  and  C_18
    4  A    between atoms: N_2  and  N_19
    5  A    between atoms: N_2  and  C_28
    6  A    between atoms: C_4  and  N_40
    7  A    between atoms: C_6  and  C_43
    8  A    between atoms: C_12  and  N_19
    9  A    between atoms: C_12  and  C_33
   10  A    between atoms: C_18  and  C_34
   11  A    between atoms: C_20  and  N_40
                            x       y       z     vdW  Elec       q    Type
                         _______ _______ _______ _____ _____    ______ ____

>  <TORSDO>
F 11

$$$$
=
 OpenBabel10232411373D

 46 50  0  0  1  0  0  0  0  0999 V2000
  186.6400  178.3780  135.0240 O   0  0  0  0  0  0  0  0  0  0  0  0
  188.1380  174.5970  137.0090 C   0  0  0  0  0  0  0  0  0  0  0  0
  188.9480  173.6130  136.4370 C   0  0  0  0  0  3  0  0  0  0  0  0
  190.3350  173.7210  136.4670 C   0  0  0  0  0  0  0  0  0  0  0  0
  186.6080  177.6350  136.0410 C   0  0  0  0  0  0  0  0  0  0  0  0
  191.0910  172.7000  135.8890 C   0  0  0  0  0  3  0  0  0  0  0  0
  184.3420  171.9940  135.4330 C   0  0  0  0  0  0  0  0  0  0  0  0
  190.1380  175.8710  137.6050 C   0  0  0  0  0  0  0  0  0  0  0  0
  188.7330  175.7330  137.5860 C   0  0  0  0  0  0  0  0  0  0  0  0
  183.3290  172.1070  134.3460 C   0  0  0  0  0  1  0  0  0  0  0  0
  184.2630  177.0090  135.4510 C   0  0  0  0  0  1  0  0  0  0  0  0
  185.5380  176.5820  136.1720 C   0  0  1  0  0  3  0  0  0  0  0  0
  185.0110  174.3620  135.1640 N   0  0  0  0  0  2  0  0  0  0  0  0
  187.6100  177.8090  137.0480 N   0  0  0  0  0  2  0  0  0  0  0  0
  186.6380  174.4820  136.9470 C   0  0  2  0  0  3  0  0  0  0  0  0
  185.1410  173.1210  135.8020 N   0  0  0  0  0  0  0  0  0  0  0  0
  192.4810  172.7570  135.9070 C   0  0  0  0  0  3  0  0  0  0  0  0
  187.8670  176.8450  138.1090 C   0  0  0  0  0  2  0  0  0  0  0  0
  190.9650  174.8430  137.0690 C   0  0  0  0  0  0  0  0  0  0  0  0
  193.1220  173.8340  136.5110 C   0  0  0  0  0  3  0  0  0  0  0  0
  184.4850  170.8910  136.0230 O   0  0  0  0  0  0  0  0  0  0  0  0
  192.3910  174.8760  137.0910 C   0  0  0  0  0  0  0  0  0  0  0  0
  186.1300  173.0640  136.8540 C   0  0  0  0  0  2  0  0  0  0  0  0
  186.0650  175.2070  135.7320 C   0  0  2  0  0  3  0  0  0  0  0  0
  193.1870  175.9390  137.7730 C   0  0  0  0  0  2  0  0  0  0  0  0
  193.7870  176.7640  136.8210 O   0  0  0  0  0  1  0  0  0  0  0  0
  190.6950  177.0930  138.1080 N   0  0  0  0  0  2  0  0  0  0  0  0
  190.9130  177.3270  139.5030 C   0  0  0  0  0  0  0  0  0  0  0  0
  192.4510  177.5850  141.3560 C   0  0  0  0  0  3  0  0  0  0  0  0
  190.0560  177.7630  141.7450 C   0  0  0  0  0  0  0  0  0  0  0  0
  191.3760  177.7880  142.2250 C   0  0  0  0  0  3  0  0  0  0  0  0
  189.8380  177.5340  140.3790 C   0  0  0  0  0  3  0  0  0  0  0  0
  192.2200  177.3560  139.9970 C   0  0  0  0  0  3  0  0  0  0  0  0
  188.9390  177.9810  142.6300 N   0  0  0  0  0  0  0  0  0  0  0  0
  187.5850  177.6030  142.2420 C   0  0  0  0  0  2  0  0  0  0  0  0
  186.8560  178.8010  141.6590 C   0  0  0  0  0  2  0  0  0  0  0  0
  185.4360  178.8580  142.1920 C   0  0  2  0  0  3  0  0  0  0  0  0
  185.2480  177.8810  143.1540 F   0  0  0  0  0  0  0  0  0  0  0  0
  184.4650  178.6680  141.0760 C   0  0  0  0  0  0  0  0  0  0  0  0
  183.6080  177.7470  141.1270 O   0  0  0  0  0  0  0  0  0  0  0  0
  184.5250  179.5170  139.9370 N   0  0  0  0  0  1  0  0  0  0  0  0
  189.1540  178.3810  143.9590 N   0  0  0  0  0  2  0  0  0  0  0  0
  188.7020  177.2990  144.8230 C   0  0  0  0  0  2  0  0  0  0  0  0
  190.6640  177.2270  146.1670 F   0  0  0  0  0  0  0  0  0  0  0  0
  188.7100  176.5470  147.0820 F   0  0  0  0  0  0  0  0  0  0  0  0
  189.2990  177.4450  146.2110 C   0  0  0  0  0  3  0  0  0  0  0  0
  1  5  2  0  0  0  0
  2  9  1  0  0  0  0
  3  4  1  0  0  0  0
  3  2  2  0  0  0  0
  4 19  1  0  0  0  0
  5 12  1  0  0  0  0
  5 14  1  0  0  0  0
  6 17  1  0  0  0  0
  6  4  2  0  0  0  0
  7 16  1  0  0  0  0
  7 21  2  0  0  0  0
  8 27  1  0  0  0  0
  9  8  2  0  0  0  0
  9 18  1  0  0  0  0
 10  7  1  0  0  0  0
 12 11  1  6  0  0  0
 13 16  1  0  0  0  0
 14 18  1  0  0  0  0
 15 23  1  6  0  0  0
 15  2  1  0  0  0  0
 16 23  1  0  0  0  0
 17 20  2  0  0  0  0
 19 22  2  0  0  0  0
 19  8  1  0  0  0  0
 20 22  1  0  0  0  0
 22 25  1  0  0  0  0
 24 13  1  1  0  0  0
 24 12  1  0  0  0  0
 24 15  1  0  0  0  0
 26 25  1  0  0  0  0
 27 28  1  0  0  0  0
 28 33  2  0  0  0  0
 28 32  1  0  0  0  0
 29 31  2  0  0  0  0
 30 31  1  0  0  0  0
 30 34  1  0  0  0  0
 32 30  2  0  0  0  0
 33 29  1  0  0  0  0
 34 42  1  0  0  0  0
 35 34  1  0  0  0  0
 36 37  1  0  0  0  0
 36 35  1  0  0  0  0
 37 38  1  1  0  0  0
 39 40  2  0  0  0  0
 39 37  1  0  0  0  0
 41 39  1  0  0  0  0
 42 43  1  0  0  0  0
 43 46  1  0  0  0  0
 44 46  1  0  0  0  0
 46 45  1  0  0  0  0
M  END
>  <MODEL>
6

>  <REMARK>
 VINA RESULT:      -6.7      2.714      5.821
  Name = 
  11 active torsions:
  status: ('A' for Active; 'I' for Inactive)
    1  A    between atoms: C_1  and  C_9
    2  A    between atoms: C_1  and  C_34
    3  A    between atoms: N_2  and  C_18
    4  A    between atoms: N_2  and  N_19
    5  A    between atoms: N_2  and  C_28
    6  A    between atoms: C_4  and  N_40
    7  A    between atoms: C_6  and  C_43
    8  A    between atoms: C_12  and  N_19
    9  A    between atoms: C_12  and  C_33
   10  A    between atoms: C_18  and  C_34
   11  A    between atoms: C_20  and  N_40
                            x       y       z     vdW  Elec       q    Type
                         _______ _______ _______ _____ _____    ______ ____

>  <TORSDO>
F 11

$$$$
=
 OpenBabel10232411373D

 46 50  0  0  1  0  0  0  0  0999 V2000
  184.7350  177.2800  142.7180 O   0  0  0  0  0  0  0  0  0  0  0  0
  189.0130  177.9650  141.4110 C   0  0  0  0  0  0  0  0  0  0  0  0
  189.9080  177.0050  140.9330 C   0  0  0  0  0  3  0  0  0  0  0  0
  189.9530  176.6740  139.5830 C   0  0  0  0  0  0  0  0  0  0  0  0
  185.6920  178.0940  142.6200 C   0  0  0  0  0  0  0  0  0  0  0  0
  190.8770  175.7160  139.1660 C   0  0  0  0  0  3  0  0  0  0  0  0
  190.7640  176.9940  145.8450 C   0  0  0  0  0  0  0  0  0  0  0  0
  188.1280  178.2360  139.1470 C   0  0  0  0  0  0  0  0  0  0  0  0
  188.1140  178.5750  140.5170 C   0  0  0  0  0  0  0  0  0  0  0  0
  190.2910  176.2730  147.0600 C   0  0  0  0  0  1  0  0  0  0  0  0
  185.9170  178.0540  145.1080 C   0  0  0  0  0  1  0  0  0  0  0  0
  186.6310  178.2950  143.7810 C   0  0  1  0  0  3  0  0  0  0  0  0
  188.4810  177.0400  144.8890 N   0  0  0  0  0  2  0  0  0  0  0  0
  185.8670  178.8010  141.3880 N   0  0  0  0  0  2  0  0  0  0  0  0
  188.9560  178.2940  142.8780 C   0  0  2  0  0  3  0  0  0  0  0  0
  189.8440  177.3510  144.8080 N   0  0  0  0  0  0  0  0  0  0  0  0
  190.9680  175.3640  137.8220 C   0  0  0  0  0  3  0  0  0  0  0  0
  187.0770  179.5310  141.0390 C   0  0  0  0  0  2  0  0  0  0  0  0
  189.0770  177.2960  138.6530 C   0  0  0  0  0  0  0  0  0  0  0  0
  190.1380  175.9760  136.8880 C   0  0  0  0  0  3  0  0  0  0  0  0
  191.9840  177.2850  145.7410 O   0  0  0  0  0  0  0  0  0  0  0  0
  189.1950  176.9340  137.2780 C   0  0  0  0  0  0  0  0  0  0  0  0
  190.2520  178.0570  143.6160 C   0  0  0  0  0  2  0  0  0  0  0  0
  187.9070  177.4570  143.6060 C   0  0  2  0  0  3  0  0  0  0  0  0
  188.4130  177.5720  136.1790 C   0  0  0  0  0  2  0  0  0  0  0  0
  187.9500  176.5950  135.2990 O   0  0  0  0  0  1  0  0  0  0  0  0
  187.1250  178.8060  138.2950 N   0  0  0  0  0  2  0  0  0  0  0  0
  185.7820  178.3130  138.2450 C   0  0  0  0  0  0  0  0  0  0  0  0
  184.2380  176.5210  137.7240 C   0  0  0  0  0  3  0  0  0  0  0  0
  183.3900  178.6200  138.6140 C   0  0  0  0  0  0  0  0  0  0  0  0
  183.1670  177.3170  138.1400 C   0  0  0  0  0  3  0  0  0  0  0  0
  184.7040  179.1070  138.6640 C   0  0  0  0  0  3  0  0  0  0  0  0
  185.5430  177.0190  137.7780 C   0  0  0  0  0  3  0  0  0  0  0  0
  182.2940  179.4480  139.0560 N   0  0  0  0  0  0  0  0  0  0  0  0
  182.1300  180.8100  138.5600 C   0  0  0  0  0  2  0  0  0  0  0  0
  180.6540  181.1410  138.4250 C   0  0  0  0  0  2  0  0  0  0  0  0
  180.3260  181.4890  136.9850 C   0  0  2  0  0  3  0  0  0  0  0  0
  181.1120  180.7430  136.1240 F   0  0  0  0  0  0  0  0  0  0  0  0
  180.5510  182.9440  136.7480 C   0  0  0  0  0  0  0  0  0  0  0  0
  180.5970  183.7470  137.7170 O   0  0  0  0  0  0  0  0  0  0  0  0
  180.6880  183.4300  135.4190 N   0  0  0  0  0  1  0  0  0  0  0  0
  181.2530  178.8970  139.8210 N   0  0  0  0  0  2  0  0  0  0  0  0
  181.8070  178.5320  141.1170 C   0  0  0  0  0  2  0  0  0  0  0  0
  180.3170  180.2670  141.7740 F   0  0  0  0  0  0  0  0  0  0  0  0
  181.8080  179.5010  143.2920 F   0  0  0  0  0  0  0  0  0  0  0  0
  180.9880  179.1500  142.2370 C   0  0  0  0  0  3  0  0  0  0  0  0
  2 15  1  0  0  0  0
  3  2  1  0  0  0  0
  4  3  2  0  0  0  0
  5  1  2  0  0  0  0
  5 12  1  0  0  0  0
  6  4  1  0  0  0  0
  7 10  1  0  0  0  0
  8  9  1  0  0  0  0
  9 18  1  0  0  0  0
  9  2  2  0  0  0  0
 12 11  1  1  0  0  0
 14  5  1  0  0  0  0
 15 24  1  0  0  0  0
 15 23  1  1  0  0  0
 16 13  1  0  0  0  0
 16  7  1  0  0  0  0
 17  6  2  0  0  0  0
 18 14  1  0  0  0  0
 19  8  2  0  0  0  0
 19  4  1  0  0  0  0
 20 22  2  0  0  0  0
 20 17  1  0  0  0  0
 21  7  2  0  0  0  0
 22 19  1  0  0  0  0
 23 16  1  0  0  0  0
 24 12  1  0  0  0  0
 24 13  1  1  0  0  0
 25 22  1  0  0  0  0
 26 25  1  0  0  0  0
 27  8  1  0  0  0  0
 28 27  1  0  0  0  0
 28 32  1  0  0  0  0
 29 33  1  0  0  0  0
 29 31  2  0  0  0  0
 30 32  2  0  0  0  0
 30 34  1  0  0  0  0
 31 30  1  0  0  0  0
 33 28  2  0  0  0  0
 34 42  1  0  0  0  0
 35 34  1  0  0  0  0
 36 35  1  0  0  0  0
 37 38  1  6  0  0  0
 37 36  1  0  0  0  0
 39 37  1  0  0  0  0
 39 40  2  0  0  0  0
 41 39  1  0  0  0  0
 42 43  1  0  0  0  0
 43 46  1  0  0  0  0
 44 46  1  0  0  0  0
 46 45  1  0  0  0  0
M  END
>  <MODEL>
7

>  <REMARK>
 VINA RESULT:      -6.4      3.982      9.287
  Name = 
  11 active torsions:
  status: ('A' for Active; 'I' for Inactive)
    1  A    between atoms: C_1  and  C_9
    2  A    between atoms: C_1  and  C_34
    3  A    between atoms: N_2  and  C_18
    4  A    between atoms: N_2  and  N_19
    5  A    between atoms: N_2  and  C_28
    6  A    between atoms: C_4  and  N_40
    7  A    between atoms: C_6  and  C_43
    8  A    between atoms: C_12  and  N_19
    9  A    between atoms: C_12  and  C_33
   10  A    between atoms: C_18  and  C_34
   11  A    between atoms: C_20  and  N_40
                            x       y       z     vdW  Elec       q    Type
                         _______ _______ _______ _____ _____    ______ ____

>  <TORSDO>
F 11

$$$$
=
 OpenBabel10232411373D

 46 50  0  0  1  0  0  0  0  0999 V2000
  184.7860  177.2640  142.6740 O   0  0  0  0  0  0  0  0  0  0  0  0
  189.0820  177.9830  141.4440 C   0  0  0  0  0  0  0  0  0  0  0  0
  189.9910  177.0310  140.9770 C   0  0  0  0  0  3  0  0  0  0  0  0
  190.0610  176.7070  139.6260 C   0  0  0  0  0  0  0  0  0  0  0  0
  185.7390  178.0840  142.5960 C   0  0  0  0  0  0  0  0  0  0  0  0
  190.9990  175.7570  139.2200 C   0  0  0  0  0  3  0  0  0  0  0  0
  190.7620  177.0020  145.9020 C   0  0  0  0  0  0  0  0  0  0  0  0
  188.2340  178.2590  139.1670 C   0  0  0  0  0  0  0  0  0  0  0  0
  188.1940  178.5920  140.5380 C   0  0  0  0  0  0  0  0  0  0  0  0
  190.2740  176.2730  147.1060 C   0  0  0  0  0  1  0  0  0  0  0  0
  185.9220  178.0350  145.0870 C   0  0  0  0  0  1  0  0  0  0  0  0
  186.6580  178.2870  143.7740 C   0  0  1  0  0  3  0  0  0  0  0  0
  188.4960  177.0380  144.9080 N   0  0  0  0  0  2  0  0  0  0  0  0
  185.9310  178.7990  141.3710 N   0  0  0  0  0  2  0  0  0  0  0  0
  188.9970  178.3050  142.9110 C   0  0  2  0  0  3  0  0  0  0  0  0
  189.8590  177.3580  144.8520 N   0  0  0  0  0  0  0  0  0  0  0  0
  191.1150  175.4120  137.8770 C   0  0  0  0  0  3  0  0  0  0  0  0
  187.1420  179.5380  141.0460 C   0  0  0  0  0  2  0  0  0  0  0  0
  189.1970  177.3280  138.6840 C   0  0  0  0  0  0  0  0  0  0  0  0
  190.2960  176.0230  136.9320 C   0  0  0  0  0  3  0  0  0  0  0  0
  191.9830  177.3010  145.8210 O   0  0  0  0  0  0  0  0  0  0  0  0
  189.3410  176.9720  137.3100 C   0  0  0  0  0  0  0  0  0  0  0  0
  190.2820  178.0730  143.6700 C   0  0  0  0  0  2  0  0  0  0  0  0
  187.9420  177.4570  143.6170 C   0  0  2  0  0  3  0  0  0  0  0  0
  188.5740  177.6110  136.2010 C   0  0  0  0  0  2  0  0  0  0  0  0
  189.3590  177.6590  135.0490 O   0  0  0  0  0  1  0  0  0  0  0  0
  187.2410  178.8260  138.3000 N   0  0  0  0  0  2  0  0  0  0  0  0
  185.9570  178.2280  138.0990 C   0  0  0  0  0  0  0  0  0  0  0  0
  183.5450  178.3640  138.2760 C   0  0  0  0  0  3  0  0  0  0  0  0
  184.5730  176.3670  137.3400 C   0  0  0  0  0  0  0  0  0  0  0  0
  183.4280  177.0890  137.7160 C   0  0  0  0  0  3  0  0  0  0  0  0
  185.8340  176.9500  137.5350 C   0  0  0  0  0  3  0  0  0  0  0  0
  184.8070  178.9320  138.4670 C   0  0  0  0  0  3  0  0  0  0  0  0
  184.4650  175.0550  136.7520 N   0  0  0  0  0  0  0  0  0  0  0  0
  185.0250  174.7710  135.4350 C   0  0  0  0  0  2  0  0  0  0  0  0
  185.9970  173.6070  135.5230 C   0  0  0  0  0  2  0  0  0  0  0  0
  187.3940  174.1160  135.8300 C   0  0  2  0  0  3  0  0  0  0  0  0
  187.9380  174.7190  134.7100 F   0  0  0  0  0  0  0  0  0  0  0  0
  188.2610  172.9870  136.2740 C   0  0  0  0  0  0  0  0  0  0  0  0
  189.3530  172.7550  135.6900 O   0  0  0  0  0  0  0  0  0  0  0  0
  187.8400  172.1520  137.3450 N   0  0  0  0  0  1  0  0  0  0  0  0
  183.9930  173.9730  137.5120 N   0  0  0  0  0  2  0  0  0  0  0  0
  182.6930  173.5930  136.9750 C   0  0  0  0  0  2  0  0  0  0  0  0
  181.5150  171.6640  137.7180 F   0  0  0  0  0  0  0  0  0  0  0  0
  183.7380  171.4850  137.3440 F   0  0  0  0  0  0  0  0  0  0  0  0
  182.5650  172.0800  136.9210 C   0  0  0  0  0  3  0  0  0  0  0  0
  2 15  1  0  0  0  0
  3  2  1  0  0  0  0
  4  3  2  0  0  0  0
  5  1  2  0  0  0  0
  5 12  1  0  0  0  0
  6  4  1  0  0  0  0
  7 10  1  0  0  0  0
  8  9  1  0  0  0  0
  9 18  1  0  0  0  0
  9  2  2  0  0  0  0
 12 11  1  1  0  0  0
 14  5  1  0  0  0  0
 15 24  1  0  0  0  0
 15 23  1  1  0  0  0
 16 13  1  0  0  0  0
 16  7  1  0  0  0  0
 17  6  2  0  0  0  0
 18 14  1  0  0  0  0
 19  8  2  0  0  0  0
 19  4  1  0  0  0  0
 20 22  2  0  0  0  0
 20 17  1  0  0  0  0
 21  7  2  0  0  0  0
 22 19  1  0  0  0  0
 23 16  1  0  0  0  0
 24 12  1  0  0  0  0
 24 13  1  1  0  0  0
 25 22  1  0  0  0  0
 26 25  1  0  0  0  0
 27  8  1  0  0  0  0
 28 27  1  0  0  0  0
 28 33  1  0  0  0  0
 29 33  2  0  0  0  0
 30 32  1  0  0  0  0
 30 31  2  0  0  0  0
 31 29  1  0  0  0  0
 32 28  2  0  0  0  0
 34 30  1  0  0  0  0
 34 42  1  0  0  0  0
 35 36  1  0  0  0  0
 35 34  1  0  0  0  0
 36 37  1  0  0  0  0
 37 38  1  6  0  0  0
 37 39  1  0  0  0  0
 39 41  1  0  0  0  0
 40 39  2  0  0  0  0
 43 42  1  0  0  0  0
 46 43  1  0  0  0  0
 46 45  1  0  0  0  0
 46 44  1  0  0  0  0
M  END
>  <MODEL>
8

>  <REMARK>
 VINA RESULT:      -6.2      3.323      8.875
  Name = 
  11 active torsions:
  status: ('A' for Active; 'I' for Inactive)
    1  A    between atoms: C_1  and  C_9
    2  A    between atoms: C_1  and  C_34
    3  A    between atoms: N_2  and  C_18
    4  A    between atoms: N_2  and  N_19
    5  A    between atoms: N_2  and  C_28
    6  A    between atoms: C_4  and  N_40
    7  A    between atoms: C_6  and  C_43
    8  A    between atoms: C_12  and  N_19
    9  A    between atoms: C_12  and  C_33
   10  A    between atoms: C_18  and  C_34
   11  A    between atoms: C_20  and  N_40
                            x       y       z     vdW  Elec       q    Type
                         _______ _______ _______ _____ _____    ______ ____

>  <TORSDO>
F 11

$$$$
=
 OpenBabel10232411373D

 46 50  0  0  1  0  0  0  0  0999 V2000
  190.3540  177.2280  141.3900 O   0  0  0  0  0  0  0  0  0  0  0  0
  188.6870  176.5410  137.2380 C   0  0  0  0  0  0  0  0  0  0  0  0
  187.9020  175.4660  136.8170 C   0  0  0  0  0  3  0  0  0  0  0  0
  186.5180  175.4920  136.9510 C   0  0  0  0  0  0  0  0  0  0  0  0
  190.3120  177.6140  140.1910 C   0  0  0  0  0  0  0  0  0  0  0  0
  185.7870  174.3930  136.5000 C   0  0  0  0  0  3  0  0  0  0  0  0
  192.5420  173.9020  135.8800 C   0  0  0  0  0  0  0  0  0  0  0  0
  186.6700  177.6850  138.0130 C   0  0  0  0  0  0  0  0  0  0  0  0
  188.0710  177.6500  137.8460 C   0  0  0  0  0  0  0  0  0  0  0  0
  193.6230  173.1350  136.5620 C   0  0  0  0  0  1  0  0  0  0  0  0
  192.6820  176.8710  139.9200 C   0  0  0  0  0  1  0  0  0  0  0  0
  191.3580  177.1470  139.2120 C   0  0  1  0  0  3  0  0  0  0  0  0
  191.9200  175.0490  137.9840 N   0  0  0  0  0  2  0  0  0  0  0  0
  189.2510  178.4860  139.7870 N   0  0  0  0  0  2  0  0  0  0  0  0
  190.1860  176.4890  137.1120 C   0  0  2  0  0  3  0  0  0  0  0  0
  191.7350  174.8290  136.6130 N   0  0  0  0  0  0  0  0  0  0  0  0
  184.3990  174.3810  136.6010 C   0  0  0  0  0  3  0  0  0  0  0  0
  188.9160  178.7640  138.3980 C   0  0  0  0  0  2  0  0  0  0  0  0
  185.8650  176.6110  137.5340 C   0  0  0  0  0  0  0  0  0  0  0  0
  183.7350  175.4750  137.1470 C   0  0  0  0  0  3  0  0  0  0  0  0
  192.3490  173.7240  134.6490 O   0  0  0  0  0  0  0  0  0  0  0  0
  184.4410  176.5880  137.6150 C   0  0  0  0  0  0  0  0  0  0  0  0
  190.6820  175.6010  135.9950 C   0  0  0  0  0  2  0  0  0  0  0  0
  190.8430  175.9590  138.3840 C   0  0  2  0  0  3  0  0  0  0  0  0
  183.6170  177.7290  138.1120 C   0  0  0  0  0  2  0  0  0  0  0  0
  182.6610  178.0720  137.1570 O   0  0  0  0  0  1  0  0  0  0  0  0
  186.0980  178.7870  138.7320 N   0  0  0  0  0  2  0  0  0  0  0  0
  185.5910  178.6600  140.0640 C   0  0  0  0  0  0  0  0  0  0  0  0
  183.6980  178.5430  141.5710 C   0  0  0  0  0  3  0  0  0  0  0  0
  185.9580  178.4000  142.4630 C   0  0  0  0  0  0  0  0  0  0  0  0
  184.5670  178.4100  142.6580 C   0  0  0  0  0  3  0  0  0  0  0  0
  186.4580  178.5240  141.1580 C   0  0  0  0  0  3  0  0  0  0  0  0
  184.2100  178.6670  140.2770 C   0  0  0  0  0  3  0  0  0  0  0  0
  186.8640  178.2540  143.5750 N   0  0  0  0  0  0  0  0  0  0  0  0
  186.4690  178.6370  144.9250 C   0  0  0  0  0  2  0  0  0  0  0  0
  186.5800  177.4450  145.8590 C   0  0  0  0  0  2  0  0  0  0  0  0
  186.6980  177.9170  147.2970 C   0  0  2  0  0  3  0  0  0  0  0  0
  186.3050  179.2390  147.3980 F   0  0  0  0  0  0  0  0  0  0  0  0
  188.1040  177.7660  147.7690 C   0  0  0  0  0  0  0  0  0  0  0  0
  188.7310  178.7550  148.2320 O   0  0  0  0  0  0  0  0  0  0  0  0
  188.7500  176.5020  147.6730 N   0  0  0  0  0  1  0  0  0  0  0  0
  188.0750  177.5590  143.4170 N   0  0  0  0  0  2  0  0  0  0  0  0
  189.1450  178.4310  143.8780 C   0  0  0  0  0  2  0  0  0  0  0  0
  191.4300  177.9050  144.2830 F   0  0  0  0  0  0  0  0  0  0  0  0
  189.8810  176.2950  144.6300 F   0  0  0  0  0  0  0  0  0  0  0  0
  190.1420  177.6490  144.7150 C   0  0  0  0  0  3  0  0  0  0  0  0
  2  9  1  0  0  0  0
  3  4  1  0  0  0  0
  3  2  2  0  0  0  0
  4 19  1  0  0  0  0
  5  1  2  0  0  0  0
  6 17  1  0  0  0  0
  6  4  2  0  0  0  0
  7 10  1  0  0  0  0
  7 16  1  0  0  0  0
  8 27  1  0  0  0  0
  9  8  2  0  0  0  0
  9 18  1  0  0  0  0
 12 11  1  1  0  0  0
 12  5  1  0  0  0  0
 14  5  1  0  0  0  0
 15 23  1  6  0  0  0
 15  2  1  0  0  0  0
 15 24  1  0  0  0  0
 16 13  1  0  0  0  0
 17 20  2  0  0  0  0
 18 14  1  0  0  0  0
 19 22  2  0  0  0  0
 19  8  1  0  0  0  0
 20 22  1  0  0  0  0
 21  7  2  0  0  0  0
 22 25  1  0  0  0  0
 23 16  1  0  0  0  0
 24 13  1  6  0  0  0
 24 12  1  0  0  0  0
 26 25  1  0  0  0  0
 27 28  1  0  0  0  0
 28 33  2  0  0  0  0
 28 32  1  0  0  0  0
 29 31  2  0  0  0  0
 30 31  1  0  0  0  0
 30 34  1  0  0  0  0
 32 30  2  0  0  0  0
 33 29  1  0  0  0  0
 34 35  1  0  0  0  0
 35 36  1  0  0  0  0
 36 37  1  0  0  0  0
 37 38  1  6  0  0  0
 37 39  1  0  0  0  0
 39 40  2  0  0  0  0
 41 39  1  0  0  0  0
 42 34  1  0  0  0  0
 42 43  1  0  0  0  0
 43 46  1  0  0  0  0
 44 46  1  0  0  0  0
 45 46  1  0  0  0  0
M  END
>  <MODEL>
9

>  <REMARK>
 VINA RESULT:      -6.1      3.119      5.637
  Name = 
  11 active torsions:
  status: ('A' for Active; 'I' for Inactive)
    1  A    between atoms: C_1  and  C_9
    2  A    between atoms: C_1  and  C_34
    3  A    between atoms: N_2  and  C_18
    4  A    between atoms: N_2  and  N_19
    5  A    between atoms: N_2  and  C_28
    6  A    between atoms: C_4  and  N_40
    7  A    between atoms: C_6  and  C_43
    8  A    between atoms: C_12  and  N_19
    9  A    between atoms: C_12  and  C_33
   10  A    between atoms: C_18  and  C_34
   11  A    between atoms: C_20  and  N_40
                            x       y       z     vdW  Elec       q    Type
                         _______ _______ _______ _____ _____    ______ ____

>  <TORSDO>
F 11

$$$$
