=
 OpenBabel10222421453D

 31 33  0  0  1  0  0  0  0  0999 V2000
  188.8910  176.5420  143.9500 C   0  0  2  0  0  3  0  0  0  0  0  0
  188.7290  177.2800  146.3330 C   0  0  0  0  0  2  0  0  0  0  0  0
  186.4650  177.0790  144.5120 C   0  0  0  0  0  2  0  0  0  0  0  0
  187.5290  177.0030  143.4270 C   0  0  0  0  0  2  0  0  0  0  0  0
  186.6350  178.3760  145.2950 C   0  0  2  0  0  3  0  0  0  0  0  0
  187.5500  178.2360  146.5160 C   0  0  0  0  0  2  0  0  0  0  0  0
  189.4690  177.5000  145.0170 C   0  0  1  0  0  3  0  0  0  0  0  0
  191.2700  179.3650  143.9710 C   0  0  0  0  0  1  0  0  0  0  0  0
  191.5110  178.3410  145.9890 O   0  0  0  0  0  0  0  0  0  0  0  0
  190.9860  177.3210  145.2570 C   0  0  2  0  0  0  0  0  0  0  0  0
  191.9290  178.2650  144.6670 N   0  0  0  0  0  0  0  0  0  0  0  0
  191.5440  175.9650  145.7150 C   0  0  0  0  0  2  0  0  0  0  0  0
  191.4180  175.7110  147.2160 C   0  0  0  0  0  2  0  0  0  0  0  0
  192.9750  176.7200  148.7180 O   0  0  0  0  0  1  0  0  0  0  0  0
  192.7850  175.6260  147.8730 C   0  0  0  0  0  2  0  0  0  0  0  0
  189.9680  177.3620  141.8010 N   0  0  0  0  0  2  0  0  0  0  0  0
  189.7980  176.3300  142.7790 C   0  0  0  0  0  0  0  0  0  0  0  0
  190.4200  175.2390  142.6750 O   0  0  0  0  0  0  0  0  0  0  0  0
  190.1210  177.0830  139.3260 C   0  0  0  0  0  0  0  0  0  0  0  0
  192.1250  177.2540  140.7050 C   0  0  0  0  0  3  0  0  0  0  0  0
  192.3440  176.9420  138.3260 C   0  0  0  0  0  3  0  0  0  0  0  0
  190.7330  177.2160  140.5970 C   0  0  0  0  0  0  0  0  0  0  0  0
  190.9530  176.9270  138.1830 C   0  0  0  0  0  0  0  0  0  0  0  0
  192.9290  177.1140  139.5780 C   0  0  0  0  0  3  0  0  0  0  0  0
  188.0070  178.2870  139.0610 N   0  0  0  0  0  2  0  0  0  0  0  0
  188.6430  177.1770  139.2440 C   0  0  0  0  0  3  0  0  0  0  0  0
  190.4150  176.7200  136.8030 C   0  0  0  0  0  2  0  0  0  0  0  0
  191.4090  175.9330  135.9680 C   0  0  0  0  0  1  0  0  0  0  0  0
  184.5330  179.4310  144.8520 O   0  0  0  0  0  0  0  0  0  0  0  0
  185.3080  178.9200  145.7050 C   0  0  0  0  0  0  0  0  0  0  0  0
  184.9240  178.8630  147.0380 O   0  0  0  0  0  1  0  0  0  0  0  0
  1 17  1  6  0  0  0
  1  7  1  0  0  0  0
  2  6  1  0  0  0  0
  3  5  1  0  0  0  0
  4  1  1  0  0  0  0
  4  3  1  0  0  0  0
  5 30  1  1  0  0  0
  5  6  1  0  0  0  0
  7 10  1  0  0  0  0
  7  2  1  1  0  0  0
  8 11  1  0  0  0  0
 10 12  1  1  0  0  0
 10  9  1  0  0  0  0
 11 10  1  0  0  0  0
 11  9  1  0  0  0  0
 12 13  1  0  0  0  0
 13 15  1  0  0  0  0
 15 14  1  0  0  0  0
 16 17  1  0  0  0  0
 18 17  2  0  0  0  0
 19 22  1  0  0  0  0
 21 24  2  0  0  0  0
 22 20  2  0  0  0  0
 22 16  1  0  0  0  0
 23 21  1  0  0  0  0
 23 19  2  0  0  0  0
 24 20  1  0  0  0  0
 25 26  2  0  0  0  0
 26 19  1  0  0  0  0
 27 23  1  0  0  0  0
 28 27  1  0  0  0  0
 29 30  2  0  0  0  0
 30 31  1  0  0  0  0
M  END
>  <MODEL>
1

>  <REMARK>
 VINA RESULT:      -8.1      0.000      0.000
  Name = 
  9 active torsions:
  status: ('A' for Active; 'I' for Inactive)
    1  A    between atoms: C_2  and  C_28
    2  A    between atoms: C_3  and  C_7
    3  A    between atoms: C_3  and  C_9
    4  A    between atoms: C_4  and  C_19
    5  A    between atoms: N_5  and  C_15
    6  A    between atoms: C_9  and  C_18
    7  A    between atoms: C_14  and  C_22
    8  A    between atoms: C_18  and  C_27
    9  A    between atoms: C_21  and  C_25
                            x       y       z     vdW  Elec       q    Type
                         _______ _______ _______ _____ _____    ______ ____

>  <TORSDO>
F 9

$$$$
=
 OpenBabel10222421453D

 31 33  0  0  1  0  0  0  0  0999 V2000
  188.1010  177.3680  142.9890 C   0  0  2  0  0  3  0  0  0  0  0  0
  188.4850  176.9820  145.4290 C   0  0  0  0  0  2  0  0  0  0  0  0
  185.9420  177.8000  144.2690 C   0  0  0  0  0  2  0  0  0  0  0  0
  186.7720  178.1250  143.0360 C   0  0  0  0  0  2  0  0  0  0  0  0
  186.4700  178.5950  145.4570 C   0  0  2  0  0  3  0  0  0  0  0  0
  187.5420  177.8530  146.2610 C   0  0  0  0  0  2  0  0  0  0  0  0
  189.0140  177.7010  144.1910 C   0  0  1  0  0  3  0  0  0  0  0  0
  190.9560  179.6940  143.9230 C   0  0  0  0  0  1  0  0  0  0  0  0
  191.2860  177.7200  145.0030 O   0  0  0  0  0  0  0  0  0  0  0  0
  190.4940  177.3080  143.9760 C   0  0  2  0  0  0  0  0  0  0  0  0
  191.4990  178.3480  143.7830 N   0  0  0  0  0  0  0  0  0  0  0  0
  190.8610  175.8850  143.5280 C   0  0  0  0  0  2  0  0  0  0  0  0
  192.2250  175.4050  144.0220 C   0  0  0  0  0  2  0  0  0  0  0  0
  192.4050  175.1150  146.3850 O   0  0  0  0  0  1  0  0  0  0  0  0
  192.0770  174.4560  145.1990 C   0  0  0  0  0  2  0  0  0  0  0  0
  189.0480  176.5310  140.7850 N   0  0  0  0  0  2  0  0  0  0  0  0
  188.7410  177.6230  141.6600 C   0  0  0  0  0  0  0  0  0  0  0  0
  188.9910  178.8090  141.3180 O   0  0  0  0  0  0  0  0  0  0  0  0
  189.0880  177.0030  138.3360 C   0  0  0  0  0  0  0  0  0  0  0  0
  191.1360  176.4970  139.5590 C   0  0  0  0  0  3  0  0  0  0  0  0
  191.2390  176.9000  137.1850 C   0  0  0  0  0  3  0  0  0  0  0  0
  189.7490  176.6650  139.5420 C   0  0  0  0  0  0  0  0  0  0  0  0
  189.8560  177.1010  137.1420 C   0  0  0  0  0  0  0  0  0  0  0  0
  191.8790  176.6090  138.3870 C   0  0  0  0  0  3  0  0  0  0  0  0
  187.1520  178.4960  138.4530 N   0  0  0  0  0  2  0  0  0  0  0  0
  187.6350  177.2990  138.3890 C   0  0  0  0  0  3  0  0  0  0  0  0
  189.2530  177.3910  135.8050 C   0  0  0  0  0  2  0  0  0  0  0  0
  189.2380  176.1340  134.9540 C   0  0  0  0  0  1  0  0  0  0  0  0
  185.5850  179.5210  147.4790 O   0  0  0  0  0  1  0  0  0  0  0  0
  185.3500  179.0100  146.3520 C   0  0  0  0  0  0  0  0  0  0  0  0
  184.0380  178.8300  145.9370 O   0  0  0  0  0  0  0  0  0  0  0  0
  1 17  1  6  0  0  0
  1  4  1  0  0  0  0
  1  7  1  0  0  0  0
  2  6  1  0  0  0  0
  3  5  1  0  0  0  0
  4  3  1  0  0  0  0
  5  6  1  0  0  0  0
  5 30  1  1  0  0  0
  7  2  1  1  0  0  0
 10 12  1  6  0  0  0
 10  7  1  0  0  0  0
 10  9  1  0  0  0  0
 11  8  1  0  0  0  0
 11 10  1  0  0  0  0
 11  9  1  0  0  0  0
 12 13  1  0  0  0  0
 13 15  1  0  0  0  0
 15 14  1  0  0  0  0
 16 17  1  0  0  0  0
 18 17  2  0  0  0  0
 19 26  1  0  0  0  0
 19 22  1  0  0  0  0
 21 24  2  0  0  0  0
 22 20  2  0  0  0  0
 22 16  1  0  0  0  0
 23 21  1  0  0  0  0
 23 19  2  0  0  0  0
 24 20  1  0  0  0  0
 26 25  2  0  0  0  0
 27 23  1  0  0  0  0
 28 27  1  0  0  0  0
 30 29  1  0  0  0  0
 31 30  2  0  0  0  0
M  END
>  <MODEL>
2

>  <REMARK>
 VINA RESULT:      -6.8      1.505      1.844
  Name = 
  9 active torsions:
  status: ('A' for Active; 'I' for Inactive)
    1  A    between atoms: C_2  and  C_28
    2  A    between atoms: C_3  and  C_7
    3  A    between atoms: C_3  and  C_9
    4  A    between atoms: C_4  and  C_19
    5  A    between atoms: N_5  and  C_15
    6  A    between atoms: C_9  and  C_18
    7  A    between atoms: C_14  and  C_22
    8  A    between atoms: C_18  and  C_27
    9  A    between atoms: C_21  and  C_25
                            x       y       z     vdW  Elec       q    Type
                         _______ _______ _______ _____ _____    ______ ____

>  <TORSDO>
F 9

$$$$
=
 OpenBabel10222421453D

 31 33  0  0  1  0  0  0  0  0999 V2000
  188.6490  176.6200  144.2130 C   0  0  2  0  0  3  0  0  0  0  0  0
  189.1580  177.4030  146.5320 C   0  0  0  0  0  2  0  0  0  0  0  0
  186.4750  177.1640  145.4240 C   0  0  0  0  0  2  0  0  0  0  0  0
  187.1920  177.0690  144.0850 C   0  0  0  0  0  2  0  0  0  0  0  0
  186.8490  178.4750  146.1050 C   0  0  2  0  0  3  0  0  0  0  0  0
  188.0710  178.3610  147.0220 C   0  0  0  0  0  2  0  0  0  0  0  0
  189.4970  177.5990  145.0570 C   0  0  1  0  0  3  0  0  0  0  0  0
  190.9760  179.6170  143.8100 C   0  0  0  0  0  1  0  0  0  0  0  0
  191.7310  178.3630  145.5510 O   0  0  0  0  0  0  0  0  0  0  0  0
  191.0220  177.4270  144.8640 C   0  0  2  0  0  0  0  0  0  0  0  0
  191.7840  178.4570  144.1670 N   0  0  0  0  0  0  0  0  0  0  0  0
  191.6670  176.0390  144.9900 C   0  0  0  0  0  2  0  0  0  0  0  0
  191.4800  175.3820  146.3560 C   0  0  0  0  0  2  0  0  0  0  0  0
  192.3500  176.6280  148.1980 O   0  0  0  0  0  1  0  0  0  0  0  0
  192.6730  175.6480  147.2590 C   0  0  0  0  0  2  0  0  0  0  0  0
  189.0990  177.4110  141.8420 N   0  0  0  0  0  2  0  0  0  0  0  0
  189.1930  176.3870  142.8380 C   0  0  0  0  0  0  0  0  0  0  0  0
  189.7450  175.2850  142.5760 O   0  0  0  0  0  0  0  0  0  0  0  0
  190.8530  177.0720  140.1000 C   0  0  0  0  0  0  0  0  0  0  0  0
  188.4920  177.2170  139.5050 C   0  0  0  0  0  3  0  0  0  0  0  0
  190.1390  176.9320  137.7700 C   0  0  0  0  0  3  0  0  0  0  0  0
  189.4980  177.2470  140.4750 C   0  0  0  0  0  0  0  0  0  0  0  0
  191.1650  176.9320  138.7200 C   0  0  0  0  0  0  0  0  0  0  0  0
  188.8090  177.0640  138.1590 C   0  0  0  0  0  3  0  0  0  0  0  0
  192.9640  177.6750  141.1810 N   0  0  0  0  0  2  0  0  0  0  0  0
  191.8740  176.9820  141.1730 C   0  0  0  0  0  3  0  0  0  0  0  0
  192.5640  176.8020  138.2070 C   0  0  0  0  0  2  0  0  0  0  0  0
  192.8050  175.3920  137.6990 C   0  0  0  0  0  1  0  0  0  0  0  0
  184.5240  178.5810  146.6630 O   0  0  0  0  0  0  0  0  0  0  0  0
  185.6860  179.0250  146.8610 C   0  0  0  0  0  0  0  0  0  0  0  0
  185.8890  180.0360  147.7910 O   0  0  0  0  0  1  0  0  0  0  0  0
  1 17  1  6  0  0  0
  1  7  1  0  0  0  0
  2  6  1  0  0  0  0
  3  5  1  0  0  0  0
  4  1  1  0  0  0  0
  4  3  1  0  0  0  0
  5 30  1  1  0  0  0
  5  6  1  0  0  0  0
  7  2  1  1  0  0  0
  8 11  1  0  0  0  0
 10 12  1  6  0  0  0
 10  7  1  0  0  0  0
 10  9  1  0  0  0  0
 11 10  1  0  0  0  0
 11  9  1  0  0  0  0
 12 13  1  0  0  0  0
 13 15  1  0  0  0  0
 15 14  1  0  0  0  0
 16 17  1  0  0  0  0
 18 17  2  0  0  0  0
 19 22  1  0  0  0  0
 19 26  1  0  0  0  0
 20 22  2  0  0  0  0
 21 24  2  0  0  0  0
 21 23  1  0  0  0  0
 22 16  1  0  0  0  0
 23 19  2  0  0  0  0
 24 20  1  0  0  0  0
 26 25  2  0  0  0  0
 27 23  1  0  0  0  0
 28 27  1  0  0  0  0
 29 30  2  0  0  0  0
 30 31  1  0  0  0  0
M  END
>  <MODEL>
3

>  <REMARK>
 VINA RESULT:      -6.8      1.049      1.915
  Name = 
  9 active torsions:
  status: ('A' for Active; 'I' for Inactive)
    1  A    between atoms: C_2  and  C_28
    2  A    between atoms: C_3  and  C_7
    3  A    between atoms: C_3  and  C_9
    4  A    between atoms: C_4  and  C_19
    5  A    between atoms: N_5  and  C_15
    6  A    between atoms: C_9  and  C_18
    7  A    between atoms: C_14  and  C_22
    8  A    between atoms: C_18  and  C_27
    9  A    between atoms: C_21  and  C_25
                            x       y       z     vdW  Elec       q    Type
                         _______ _______ _______ _____ _____    ______ ____

>  <TORSDO>
F 9

$$$$
=
 OpenBabel10222421453D

 31 33  0  0  1  0  0  0  0  0999 V2000
  189.0510  177.9790  141.3400 C   0  0  2  0  0  3  0  0  0  0  0  0
  191.5460  177.8190  141.3810 C   0  0  0  0  0  2  0  0  0  0  0  0
  189.9370  177.8770  138.9540 C   0  0  0  0  0  2  0  0  0  0  0  0
  188.7740  177.5800  139.8900 C   0  0  0  0  0  2  0  0  0  0  0  0
  190.9840  176.7790  139.0870 C   0  0  2  0  0  3  0  0  0  0  0  0
  192.0520  177.0770  140.1440 C   0  0  0  0  0  2  0  0  0  0  0  0
  190.2580  177.2220  141.9420 C   0  0  1  0  0  3  0  0  0  0  0  0
  190.7970  174.8870  143.3800 C   0  0  0  0  0  1  0  0  0  0  0  0
  191.5490  176.9540  143.9610 O   0  0  0  0  0  0  0  0  0  0  0  0
  190.3130  177.2670  143.4860 C   0  0  2  0  0  0  0  0  0  0  0  0
  190.5420  176.0390  144.2380 N   0  0  0  0  0  0  0  0  0  0  0  0
  189.7090  178.4560  144.2490 C   0  0  0  0  0  2  0  0  0  0  0  0
  189.6880  178.2810  145.7670 C   0  0  0  0  0  2  0  0  0  0  0  0
  188.6020  176.9070  147.3900 O   0  0  0  0  0  1  0  0  0  0  0  0
  188.3860  177.6460  146.2260 C   0  0  0  0  0  2  0  0  0  0  0  0
  186.7970  178.8480  142.1260 N   0  0  0  0  0  2  0  0  0  0  0  0
  187.7870  177.8130  142.1240 C   0  0  0  0  0  0  0  0  0  0  0  0
  187.6010  176.7460  142.7680 O   0  0  0  0  0  0  0  0  0  0  0  0
  184.3120  178.8010  142.3440 C   0  0  0  0  0  0  0  0  0  0  0  0
  185.7540  178.7750  144.3100 C   0  0  0  0  0  3  0  0  0  0  0  0
  183.3610  178.7730  144.5930 C   0  0  0  0  0  3  0  0  0  0  0  0
  185.6050  178.8230  142.9220 C   0  0  0  0  0  0  0  0  0  0  0  0
  183.1800  178.7940  143.2060 C   0  0  0  0  0  0  0  0  0  0  0  0
  184.6390  178.7540  145.1440 C   0  0  0  0  0  3  0  0  0  0  0  0
  184.6170  179.6530  140.0700 N   0  0  0  0  0  2  0  0  0  0  0  0
  184.2030  178.7230  140.8660 C   0  0  0  0  0  3  0  0  0  0  0  0
  181.7710  178.8300  142.7050 C   0  0  0  0  0  2  0  0  0  0  0  0
  180.8030  178.6270  143.8560 C   0  0  0  0  0  1  0  0  0  0  0  0
  192.8720  176.3330  137.6850 O   0  0  0  0  0  1  0  0  0  0  0  0
  191.6270  176.5040  137.7680 C   0  0  0  0  0  0  0  0  0  0  0  0
  190.8440  176.4350  136.6240 O   0  0  0  0  0  0  0  0  0  0  0  0
  1  7  1  0  0  0  0
  1 17  1  1  0  0  0
  3  5  1  0  0  0  0
  3  4  1  0  0  0  0
  4  1  1  0  0  0  0
  5 30  1  6  0  0  0
  5  6  1  0  0  0  0
  6  2  1  0  0  0  0
  7  2  1  6  0  0  0
  7 10  1  0  0  0  0
  8 11  1  0  0  0  0
  9 11  1  0  0  0  0
 10  9  1  0  0  0  0
 10 11  1  0  0  0  0
 10 12  1  1  0  0  0
 12 13  1  0  0  0  0
 13 15  1  0  0  0  0
 15 14  1  0  0  0  0
 16 22  1  0  0  0  0
 17 16  1  0  0  0  0
 17 18  2  0  0  0  0
 19 22  2  0  0  0  0
 19 23  1  0  0  0  0
 20 24  2  0  0  0  0
 21 24  1  0  0  0  0
 22 20  1  0  0  0  0
 23 21  2  0  0  0  0
 25 26  2  0  0  0  0
 26 19  1  0  0  0  0
 27 23  1  0  0  0  0
 27 28  1  0  0  0  0
 29 30  1  0  0  0  0
 31 30  2  0  0  0  0
M  END
>  <MODEL>
4

>  <REMARK>
 VINA RESULT:      -6.2      2.870      7.057
  Name = 
  9 active torsions:
  status: ('A' for Active; 'I' for Inactive)
    1  A    between atoms: C_2  and  C_28
    2  A    between atoms: C_3  and  C_7
    3  A    between atoms: C_3  and  C_9
    4  A    between atoms: C_4  and  C_19
    5  A    between atoms: N_5  and  C_15
    6  A    between atoms: C_9  and  C_18
    7  A    between atoms: C_14  and  C_22
    8  A    between atoms: C_18  and  C_27
    9  A    between atoms: C_21  and  C_25
                            x       y       z     vdW  Elec       q    Type
                         _______ _______ _______ _____ _____    ______ ____

>  <TORSDO>
F 9

$$$$
=
 OpenBabel10222421453D

 31 33  0  0  1  0  0  0  0  0999 V2000
  189.5290  176.5830  145.5690 C   0  0  2  0  0  3  0  0  0  0  0  0
  191.8200  175.7060  145.0820 C   0  0  0  0  0  2  0  0  0  0  0  0
  190.5620  175.6650  147.7090 C   0  0  0  0  0  2  0  0  0  0  0  0
  189.5820  176.6550  147.0970 C   0  0  0  0  0  2  0  0  0  0  0  0
  191.9760  176.2260  147.6060 C   0  0  2  0  0  3  0  0  0  0  0  0
  192.7060  175.8110  146.3250 C   0  0  0  0  0  2  0  0  0  0  0  0
  190.8930  176.9070  144.9150 C   0  0  1  0  0  3  0  0  0  0  0  0
  191.3280  179.5380  144.0760 C   0  0  0  0  0  1  0  0  0  0  0  0
  191.9820  177.6950  142.9130 O   0  0  0  0  0  0  0  0  0  0  0  0
  190.7940  177.2610  143.4140 C   0  0  2  0  0  0  0  0  0  0  0  0
  190.9690  178.6430  142.9820 N   0  0  0  0  0  0  0  0  0  0  0  0
  190.0960  176.3030  142.4360 C   0  0  0  0  0  2  0  0  0  0  0  0
  190.4490  176.5380  140.9690 C   0  0  0  0  0  2  0  0  0  0  0  0
  189.7590  178.0540  139.2580 O   0  0  0  0  0  1  0  0  0  0  0  0
  189.2840  177.1600  140.2180 C   0  0  0  0  0  2  0  0  0  0  0  0
  187.3520  176.9120  144.3030 N   0  0  0  0  0  2  0  0  0  0  0  0
  188.4120  177.4600  145.0950 C   0  0  0  0  0  0  0  0  0  0  0  0
  188.4120  178.6780  145.4150 O   0  0  0  0  0  0  0  0  0  0  0  0
  185.1840  178.1350  144.4740 C   0  0  0  0  0  0  0  0  0  0  0  0
  186.4180  178.0400  142.3730 C   0  0  0  0  0  3  0  0  0  0  0  0
  184.3080  179.2000  142.4590 C   0  0  0  0  0  3  0  0  0  0  0  0
  186.2970  177.6880  143.7200 C   0  0  0  0  0  0  0  0  0  0  0  0
  184.1720  178.8870  143.8150 C   0  0  0  0  0  0  0  0  0  0  0  0
  185.4290  178.7880  141.7430 C   0  0  0  0  0  3  0  0  0  0  0  0
  185.2320  178.7630  146.8390 N   0  0  0  0  0  2  0  0  0  0  0  0
  185.1600  177.8480  145.9300 C   0  0  0  0  0  3  0  0  0  0  0  0
  182.9270  179.3560  144.4990 C   0  0  0  0  0  2  0  0  0  0  0  0
  181.7040  178.7890  143.8020 C   0  0  0  0  0  1  0  0  0  0  0  0
  192.7320  174.6750  149.2640 O   0  0  0  0  0  0  0  0  0  0  0  0
  192.7810  175.8460  148.8040 C   0  0  0  0  0  0  0  0  0  0  0  0
  193.5900  176.7940  149.4150 O   0  0  0  0  0  1  0  0  0  0  0  0
  1 17  1  6  0  0  0
  1  4  1  0  0  0  0
  2  6  1  0  0  0  0
  4  3  1  0  0  0  0
  5  3  1  0  0  0  0
  5 30  1  1  0  0  0
  6  5  1  0  0  0  0
  7  2  1  6  0  0  0
  7  1  1  0  0  0  0
  9 11  1  0  0  0  0
  9 10  1  0  0  0  0
 10 12  1  6  0  0  0
 10  7  1  0  0  0  0
 11 10  1  0  0  0  0
 11  8  1  0  0  0  0
 13 12  1  0  0  0  0
 14 15  1  0  0  0  0
 15 13  1  0  0  0  0
 16 17  1  0  0  0  0
 17 18  2  0  0  0  0
 19 26  1  0  0  0  0
 20 22  1  0  0  0  0
 21 23  2  0  0  0  0
 22 16  1  0  0  0  0
 22 19  2  0  0  0  0
 23 19  1  0  0  0  0
 23 27  1  0  0  0  0
 24 20  2  0  0  0  0
 24 21  1  0  0  0  0
 26 25  2  0  0  0  0
 28 27  1  0  0  0  0
 30 29  2  0  0  0  0
 30 31  1  0  0  0  0
M  END
>  <MODEL>
5

>  <REMARK>
 VINA RESULT:      -5.8      2.432      6.859
  Name = 
  9 active torsions:
  status: ('A' for Active; 'I' for Inactive)
    1  A    between atoms: C_2  and  C_28
    2  A    between atoms: C_3  and  C_7
    3  A    between atoms: C_3  and  C_9
    4  A    between atoms: C_4  and  C_19
    5  A    between atoms: N_5  and  C_15
    6  A    between atoms: C_9  and  C_18
    7  A    between atoms: C_14  and  C_22
    8  A    between atoms: C_18  and  C_27
    9  A    between atoms: C_21  and  C_25
                            x       y       z     vdW  Elec       q    Type
                         _______ _______ _______ _____ _____    ______ ____

>  <TORSDO>
F 9

$$$$
=
 OpenBabel10222421453D

 31 33  0  0  1  0  0  0  0  0999 V2000
  184.1840  179.3930  140.8870 C   0  0  2  0  0  3  0  0  0  0  0  0
  182.4190  179.1860  142.6450 C   0  0  0  0  0  2  0  0  0  0  0  0
  185.2620  179.4950  143.1920 C   0  0  0  0  0  2  0  0  0  0  0  0
  185.4380  179.1330  141.7250 C   0  0  0  0  0  2  0  0  0  0  0  0
  184.5200  178.3710  143.9040 C   0  0  2  0  0  3  0  0  0  0  0  0
  182.9980  178.5530  143.9110 C   0  0  0  0  0  2  0  0  0  0  0  0
  182.9700  178.5630  141.3670 C   0  0  1  0  0  3  0  0  0  0  0  0
  182.4900  176.1390  140.0600 C   0  0  0  0  0  1  0  0  0  0  0  0
  180.8630  177.5910  140.7080 O   0  0  0  0  0  0  0  0  0  0  0  0
  181.8330  178.4640  140.3240 C   0  0  2  0  0  0  0  0  0  0  0  0
  181.6170  177.2140  139.6040 N   0  0  0  0  0  0  0  0  0  0  0  0
  181.2250  179.7380  139.7180 C   0  0  0  0  0  2  0  0  0  0  0  0
  181.1200  179.7190  138.1940 C   0  0  0  0  0  2  0  0  0  0  0  0
  181.7540  182.0080  138.4370 O   0  0  0  0  0  1  0  0  0  0  0  0
  181.0270  181.1280  137.6340 C   0  0  0  0  0  2  0  0  0  0  0  0
  184.8880  177.8730  138.9780 N   0  0  0  0  0  2  0  0  0  0  0  0
  184.5270  179.1770  139.4460 C   0  0  0  0  0  0  0  0  0  0  0  0
  184.4790  180.1540  138.6520 O   0  0  0  0  0  0  0  0  0  0  0  0
  186.7010  177.5390  137.2970 C   0  0  0  0  0  0  0  0  0  0  0  0
  184.3520  177.3090  136.6840 C   0  0  0  0  0  3  0  0  0  0  0  0
  186.0520  177.0160  135.0020 C   0  0  0  0  0  3  0  0  0  0  0  0
  185.3280  177.5880  137.6440 C   0  0  0  0  0  0  0  0  0  0  0  0
  187.0530  177.2650  135.9460 C   0  0  0  0  0  0  0  0  0  0  0  0
  184.7090  177.0280  135.3690 C   0  0  0  0  0  3  0  0  0  0  0  0
  188.2880  178.8390  138.6310 N   0  0  0  0  0  2  0  0  0  0  0  0
  187.7060  177.7150  138.3750 C   0  0  0  0  0  3  0  0  0  0  0  0
  188.4670  177.2480  135.4570 C   0  0  0  0  0  2  0  0  0  0  0  0
  188.9680  175.8190  135.3600 C   0  0  0  0  0  1  0  0  0  0  0  0
  186.1090  177.6040  145.5210 O   0  0  0  0  0  0  0  0  0  0  0  0
  185.0250  178.2070  145.2980 C   0  0  0  0  0  0  0  0  0  0  0  0
  184.2940  178.7240  146.3590 O   0  0  0  0  0  1  0  0  0  0  0  0
  1 17  1  6  0  0  0
  1  7  1  0  0  0  0
  1  4  1  0  0  0  0
  2  6  1  0  0  0  0
  3  5  1  0  0  0  0
  4  3  1  0  0  0  0
  5  6  1  0  0  0  0
  5 30  1  1  0  0  0
  7  2  1  1  0  0  0
 10 12  1  6  0  0  0
 10  9  1  0  0  0  0
 10  7  1  0  0  0  0
 11  8  1  0  0  0  0
 11 10  1  0  0  0  0
 11  9  1  0  0  0  0
 13 12  1  0  0  0  0
 15 13  1  0  0  0  0
 15 14  1  0  0  0  0
 16 17  1  0  0  0  0
 18 17  2  0  0  0  0
 19 22  1  0  0  0  0
 19 26  1  0  0  0  0
 20 22  2  0  0  0  0
 21 24  2  0  0  0  0
 21 23  1  0  0  0  0
 22 16  1  0  0  0  0
 23 19  2  0  0  0  0
 24 20  1  0  0  0  0
 26 25  2  0  0  0  0
 27 23  1  0  0  0  0
 28 27  1  0  0  0  0
 30 29  2  0  0  0  0
 30 31  1  0  0  0  0
M  END
>  <MODEL>
6

>  <REMARK>
 VINA RESULT:      -5.7      4.756      8.141
  Name = 
  9 active torsions:
  status: ('A' for Active; 'I' for Inactive)
    1  A    between atoms: C_2  and  C_28
    2  A    between atoms: C_3  and  C_7
    3  A    between atoms: C_3  and  C_9
    4  A    between atoms: C_4  and  C_19
    5  A    between atoms: N_5  and  C_15
    6  A    between atoms: C_9  and  C_18
    7  A    between atoms: C_14  and  C_22
    8  A    between atoms: C_18  and  C_27
    9  A    between atoms: C_21  and  C_25
                            x       y       z     vdW  Elec       q    Type
                         _______ _______ _______ _____ _____    ______ ____

>  <TORSDO>
F 9

$$$$
=
 OpenBabel10222421453D

 31 33  0  0  1  0  0  0  0  0999 V2000
  188.0710  177.4990  142.8560 C   0  0  2  0  0  3  0  0  0  0  0  0
  189.1330  176.9630  145.0550 C   0  0  0  0  0  2  0  0  0  0  0  0
  186.2920  177.4850  144.6800 C   0  0  0  0  0  2  0  0  0  0  0  0
  186.7190  178.0390  143.3290 C   0  0  0  0  0  2  0  0  0  0  0  0
  187.0140  178.2430  145.7880 C   0  0  2  0  0  3  0  0  0  0  0  0
  188.3450  177.6030  146.1990 C   0  0  0  0  0  2  0  0  0  0  0  0
  189.2220  177.8600  143.8240 C   0  0  1  0  0  3  0  0  0  0  0  0
  191.1070  179.8960  144.1620 C   0  0  0  0  0  1  0  0  0  0  0  0
  191.6060  177.6770  144.1430 O   0  0  0  0  0  0  0  0  0  0  0  0
  190.6280  177.7170  143.1970 C   0  0  2  0  0  0  0  0  0  0  0  0
  191.5940  178.8020  143.3290 N   0  0  0  0  0  0  0  0  0  0  0  0
  190.8830  176.6810  142.0920 C   0  0  0  0  0  2  0  0  0  0  0  0
  192.3060  176.6920  141.5390 C   0  0  0  0  0  2  0  0  0  0  0  0
  193.4820  177.2660  139.5410 O   0  0  0  0  0  1  0  0  0  0  0  0
  192.4340  177.6600  140.3740 C   0  0  0  0  0  2  0  0  0  0  0  0
  188.1300  177.0590  140.3550 N   0  0  0  0  0  2  0  0  0  0  0  0
  188.2990  177.9650  141.4520 C   0  0  0  0  0  0  0  0  0  0  0  0
  188.6250  179.1640  141.2490 O   0  0  0  0  0  0  0  0  0  0  0  0
  187.4130  177.7810  138.0770 C   0  0  0  0  0  0  0  0  0  0  0  0
  189.7580  177.3380  138.5840 C   0  0  0  0  0  3  0  0  0  0  0  0
  189.1280  177.9900  136.3510 C   0  0  0  0  0  3  0  0  0  0  0  0
  188.4210  177.3820  138.9900 C   0  0  0  0  0  0  0  0  0  0  0  0
  187.7850  178.0690  136.7350 C   0  0  0  0  0  0  0  0  0  0  0  0
  190.1110  177.6360  137.2710 C   0  0  0  0  0  3  0  0  0  0  0  0
  185.6120  178.9890  139.2100 N   0  0  0  0  0  2  0  0  0  0  0  0
  186.0280  177.9380  138.5840 C   0  0  0  0  0  3  0  0  0  0  0  0
  186.7970  178.4400  135.6750 C   0  0  0  0  0  2  0  0  0  0  0  0
  187.1480  177.7500  134.3690 C   0  0  0  0  0  1  0  0  0  0  0  0
  184.8780  178.4510  146.8460 O   0  0  0  0  0  0  0  0  0  0  0  0
  186.1300  178.4020  146.9790 C   0  0  0  0  0  0  0  0  0  0  0  0
  186.6920  178.4980  148.2440 O   0  0  0  0  0  1  0  0  0  0  0  0
  1 17  1  6  0  0  0
  1  4  1  0  0  0  0
  1  7  1  0  0  0  0
  2  6  1  0  0  0  0
  3  5  1  0  0  0  0
  4  3  1  0  0  0  0
  5  6  1  0  0  0  0
  5 30  1  1  0  0  0
  7  2  1  1  0  0  0
 10 12  1  6  0  0  0
 10 11  1  0  0  0  0
 10  7  1  0  0  0  0
 10  9  1  0  0  0  0
 11  9  1  0  0  0  0
 11  8  1  0  0  0  0
 13 12  1  0  0  0  0
 14 15  1  0  0  0  0
 15 13  1  0  0  0  0
 16 17  1  0  0  0  0
 18 17  2  0  0  0  0
 19 26  1  0  0  0  0
 19 22  1  0  0  0  0
 20 22  2  0  0  0  0
 21 23  1  0  0  0  0
 21 24  2  0  0  0  0
 22 16  1  0  0  0  0
 23 19  2  0  0  0  0
 24 20  1  0  0  0  0
 26 25  2  0  0  0  0
 27 23  1  0  0  0  0
 28 27  1  0  0  0  0
 29 30  2  0  0  0  0
 30 31  1  0  0  0  0
M  END
>  <MODEL>
7

>  <REMARK>
 VINA RESULT:      -5.7      2.150      3.522
  Name = 
  9 active torsions:
  status: ('A' for Active; 'I' for Inactive)
    1  A    between atoms: C_2  and  C_28
    2  A    between atoms: C_3  and  C_7
    3  A    between atoms: C_3  and  C_9
    4  A    between atoms: C_4  and  C_19
    5  A    between atoms: N_5  and  C_15
    6  A    between atoms: C_9  and  C_18
    7  A    between atoms: C_14  and  C_22
    8  A    between atoms: C_18  and  C_27
    9  A    between atoms: C_21  and  C_25
                            x       y       z     vdW  Elec       q    Type
                         _______ _______ _______ _____ _____    ______ ____

>  <TORSDO>
F 9

$$$$
=
 OpenBabel10222421453D

 31 33  0  0  1  0  0  0  0  0999 V2000
  188.8410  178.3410  140.6010 C   0  0  2  0  0  3  0  0  0  0  0  0
  191.0070  177.1810  140.1400 C   0  0  0  0  0  2  0  0  0  0  0  0
  188.9690  177.7290  138.1320 C   0  0  0  0  0  2  0  0  0  0  0  0
  188.0670  177.9940  139.3280 C   0  0  0  0  0  2  0  0  0  0  0  0
  189.5180  176.3100  138.2190 C   0  0  2  0  0  3  0  0  0  0  0  0
  190.8550  176.2160  138.9630 C   0  0  0  0  0  2  0  0  0  0  0  0
  189.7830  177.1990  141.0500 C   0  0  1  0  0  3  0  0  0  0  0  0
  188.8080  175.4160  142.9690 C   0  0  0  0  0  1  0  0  0  0  0  0
  190.9360  176.2190  142.9280 O   0  0  0  0  0  0  0  0  0  0  0  0
  190.2500  177.3200  142.5190 C   0  0  2  0  0  0  0  0  0  0  0  0
  189.7010  176.4230  143.5300 N   0  0  0  0  0  0  0  0  0  0  0  0
  190.9230  178.6090  143.0150 C   0  0  0  0  0  2  0  0  0  0  0  0
  191.9840  178.3880  144.0910 C   0  0  0  0  0  2  0  0  0  0  0  0
  191.9330  177.0500  146.0680 O   0  0  0  0  0  1  0  0  0  0  0  0
  191.3460  178.1550  145.4500 C   0  0  0  0  0  2  0  0  0  0  0  0
  186.8770  177.8310  142.1290 N   0  0  0  0  0  2  0  0  0  0  0  0
  187.8590  178.7570  141.6510 C   0  0  0  0  0  0  0  0  0  0  0  0
  187.9190  179.9260  142.1180 O   0  0  0  0  0  0  0  0  0  0  0  0
  184.5360  178.5350  142.6270 C   0  0  0  0  0  0  0  0  0  0  0  0
  186.1240  178.0690  144.4190 C   0  0  0  0  0  3  0  0  0  0  0  0
  183.8910  178.7890  144.9690 C   0  0  0  0  0  3  0  0  0  0  0  0
  185.8350  178.1650  143.0550 C   0  0  0  0  0  0  0  0  0  0  0  0
  183.5640  178.8670  143.6110 C   0  0  0  0  0  0  0  0  0  0  0  0
  185.1600  178.3830  145.3720 C   0  0  0  0  0  3  0  0  0  0  0  0
  184.6250  179.4080  140.3430 N   0  0  0  0  0  2  0  0  0  0  0  0
  184.2370  178.4990  141.1750 C   0  0  0  0  0  3  0  0  0  0  0  0
  182.1820  179.3290  143.2720 C   0  0  0  0  0  2  0  0  0  0  0  0
  181.1540  178.4200  143.9220 C   0  0  0  0  0  1  0  0  0  0  0  0
  190.5350  174.8540  136.6140 O   0  0  0  0  0  1  0  0  0  0  0  0
  189.6420  175.7100  136.8590 C   0  0  0  0  0  0  0  0  0  0  0  0
  188.7660  176.0980  135.8550 O   0  0  0  0  0  0  0  0  0  0  0  0
  1  7  1  0  0  0  0
  1 17  1  1  0  0  0
  3  5  1  0  0  0  0
  3  4  1  0  0  0  0
  4  1  1  0  0  0  0
  5 30  1  6  0  0  0
  5  6  1  0  0  0  0
  6  2  1  0  0  0  0
  7  2  1  6  0  0  0
  7 10  1  0  0  0  0
  8 11  1  0  0  0  0
  9 11  1  0  0  0  0
 10  9  1  0  0  0  0
 10 12  1  1  0  0  0
 10 11  1  0  0  0  0
 12 13  1  0  0  0  0
 13 15  1  0  0  0  0
 15 14  1  0  0  0  0
 16 22  1  0  0  0  0
 17 18  2  0  0  0  0
 17 16  1  0  0  0  0
 19 22  2  0  0  0  0
 19 23  1  0  0  0  0
 20 24  2  0  0  0  0
 21 24  1  0  0  0  0
 22 20  1  0  0  0  0
 23 21  2  0  0  0  0
 25 26  2  0  0  0  0
 26 19  1  0  0  0  0
 27 23  1  0  0  0  0
 27 28  1  0  0  0  0
 29 30  1  0  0  0  0
 31 30  2  0  0  0  0
M  END
>  <MODEL>
8

>  <REMARK>
 VINA RESULT:      -5.6      2.795      7.117
  Name = 
  9 active torsions:
  status: ('A' for Active; 'I' for Inactive)
    1  A    between atoms: C_2  and  C_28
    2  A    between atoms: C_3  and  C_7
    3  A    between atoms: C_3  and  C_9
    4  A    between atoms: C_4  and  C_19
    5  A    between atoms: N_5  and  C_15
    6  A    between atoms: C_9  and  C_18
    7  A    between atoms: C_14  and  C_22
    8  A    between atoms: C_18  and  C_27
    9  A    between atoms: C_21  and  C_25
                            x       y       z     vdW  Elec       q    Type
                         _______ _______ _______ _____ _____    ______ ____

>  <TORSDO>
F 9

$$$$
=
 OpenBabel10222421453D

 31 33  0  0  1  0  0  0  0  0999 V2000
  186.4860  178.1810  137.9070 C   0  0  2  0  0  3  0  0  0  0  0  0
  185.0910  177.0770  136.1500 C   0  0  0  0  0  2  0  0  0  0  0  0
  184.0190  178.5310  138.4340 C   0  0  0  0  0  2  0  0  0  0  0  0
  185.4310  178.4130  138.9900 C   0  0  0  0  0  2  0  0  0  0  0  0
  183.4680  177.1380  138.1560 C   0  0  2  0  0  3  0  0  0  0  0  0
  183.7440  176.6450  136.7320 C   0  0  0  0  0  2  0  0  0  0  0  0
  186.2490  176.8700  137.1220 C   0  0  1  0  0  3  0  0  0  0  0  0
  187.0750  174.2080  137.3330 C   0  0  0  0  0  1  0  0  0  0  0  0
  187.1660  175.4310  135.4170 O   0  0  0  0  0  0  0  0  0  0  0  0
  187.4870  176.3850  136.3330 C   0  0  2  0  0  0  0  0  0  0  0  0
  187.9490  175.0100  136.4840 N   0  0  0  0  0  0  0  0  0  0  0  0
  188.4820  177.4000  135.7520 C   0  0  0  0  0  2  0  0  0  0  0  0
  188.9820  177.0560  134.3500 C   0  0  0  0  0  2  0  0  0  0  0  0
  190.8810  176.5380  135.7010 O   0  0  0  0  0  1  0  0  0  0  0  0
  190.3920  176.4920  134.3950 C   0  0  0  0  0  2  0  0  0  0  0  0
  188.2290  177.3100  139.5360 N   0  0  0  0  0  2  0  0  0  0  0  0
  187.8390  178.2640  138.5420 C   0  0  0  0  0  0  0  0  0  0  0  0
  188.6310  179.1730  138.1780 O   0  0  0  0  0  0  0  0  0  0  0  0
  189.4900  177.5180  141.6790 C   0  0  0  0  0  0  0  0  0  0  0  0
  190.6490  177.2230  139.5540 C   0  0  0  0  0  3  0  0  0  0  0  0
  191.9290  177.4610  141.5820 C   0  0  0  0  0  3  0  0  0  0  0  0
  189.4590  177.3680  140.2700 C   0  0  0  0  0  0  0  0  0  0  0  0
  190.7530  177.5810  142.3290 C   0  0  0  0  0  0  0  0  0  0  0  0
  191.8790  177.2730  140.2030 C   0  0  0  0  0  3  0  0  0  0  0  0
  187.7900  176.5680  143.1620 N   0  0  0  0  0  2  0  0  0  0  0  0
  188.2010  177.5380  142.4130 C   0  0  0  0  0  3  0  0  0  0  0  0
  190.9050  177.7980  143.8020 C   0  0  0  0  0  2  0  0  0  0  0  0
  191.3550  179.2210  144.0770 C   0  0  0  0  0  1  0  0  0  0  0  0
  181.3790  175.9920  138.3840 O   0  0  0  0  0  0  0  0  0  0  0  0
  182.0050  177.0840  138.4450 C   0  0  0  0  0  0  0  0  0  0  0  0
  181.3280  178.2470  138.7840 O   0  0  0  0  0  1  0  0  0  0  0  0
  1 17  1  1  0  0  0
  1  4  1  0  0  0  0
  2  6  1  0  0  0  0
  3  4  1  0  0  0  0
  5  3  1  0  0  0  0
  5 30  1  6  0  0  0
  6  5  1  0  0  0  0
  7  2  1  6  0  0  0
  7  1  1  0  0  0  0
  9 10  1  0  0  0  0
  9 11  1  0  0  0  0
 10 12  1  6  0  0  0
 10 11  1  0  0  0  0
 10  7  1  0  0  0  0
 11  8  1  0  0  0  0
 13 15  1  0  0  0  0
 13 12  1  0  0  0  0
 15 14  1  0  0  0  0
 16 22  1  0  0  0  0
 17 16  1  0  0  0  0
 18 17  2  0  0  0  0
 19 23  1  0  0  0  0
 19 26  1  0  0  0  0
 20 24  2  0  0  0  0
 20 22  1  0  0  0  0
 21 23  2  0  0  0  0
 22 19  2  0  0  0  0
 23 27  1  0  0  0  0
 24 21  1  0  0  0  0
 26 25  2  0  0  0  0
 27 28  1  0  0  0  0
 29 30  2  0  0  0  0
 30 31  1  0  0  0  0
M  END
>  <MODEL>
9

>  <REMARK>
 VINA RESULT:      -5.2      4.242      8.081
  Name = 
  9 active torsions:
  status: ('A' for Active; 'I' for Inactive)
    1  A    between atoms: C_2  and  C_28
    2  A    between atoms: C_3  and  C_7
    3  A    between atoms: C_3  and  C_9
    4  A    between atoms: C_4  and  C_19
    5  A    between atoms: N_5  and  C_15
    6  A    between atoms: C_9  and  C_18
    7  A    between atoms: C_14  and  C_22
    8  A    between atoms: C_18  and  C_27
    9  A    between atoms: C_21  and  C_25
                            x       y       z     vdW  Elec       q    Type
                         _______ _______ _______ _____ _____    ______ ____

>  <TORSDO>
F 9

$$$$
