=
 OpenBabel10232411423D

 27 31  0  0  1  0  0  0  0  0999 V2000
  187.7380  173.4220  136.6060 C   0  0  0  0  0  3  0  0  0  0  0  0
  187.5180  177.0440  136.7020 C   0  0  0  0  0  3  0  0  0  0  0  0
  187.5030  172.5200  135.5680 C   0  0  0  0  0  3  0  0  0  0  0  0
  188.8100  174.3150  136.5220 C   0  0  0  0  0  0  0  0  0  0  0  0
  189.0650  179.0540  137.8250 C   0  0  0  0  0  3  0  0  0  0  0  0
  191.8130  174.9370  136.2070 N   0  0  1  0  0  0  0  0  0  0  0  0
  190.2220  174.9730  138.3990 O   0  0  0  0  0  0  0  0  0  0  0  0
  189.4330  177.7190  138.0110 C   0  0  0  0  0  0  0  0  0  0  0  0
  189.0250  175.2540  137.6760 C   0  0  1  0  0  3  0  0  0  0  0  0
  190.6360  177.3660  138.8200 C   0  0  1  0  0  3  0  0  0  0  0  0
  194.1350  175.4980  136.3450 C   0  0  2  0  0  3  0  0  0  0  0  0
  187.1840  178.3900  136.5360 C   0  0  0  0  0  3  0  0  0  0  0  0
  190.2820  177.3070  140.2960 C   0  0  0  0  0  1  0  0  0  0  0  0
  193.0790  174.8200  135.5010 C   0  0  0  0  0  2  0  0  0  0  0  0
  189.3650  173.3650  134.3660 C   0  0  0  0  0  3  0  0  0  0  0  0
  193.3830  176.4500  137.2430 C   0  0  0  0  0  2  0  0  0  0  0  0
  188.6610  176.7040  137.4340 C   0  0  0  0  0  0  0  0  0  0  0  0
  191.9160  176.1470  137.0100 C   0  0  2  0  0  3  0  0  0  0  0  0
  190.7970  175.2080  135.2040 C   0  0  0  0  0  2  0  0  0  0  0  0
  187.9600  179.3600  137.0940 N   0  0  0  0  0  0  0  0  0  0  0  0
  189.6380  174.2860  135.3800 C   0  0  0  0  0  0  0  0  0  0  0  0
  188.3140  172.5100  134.4780 N   0  0  0  0  0  0  0  0  0  0  0  0
  191.1870  176.0170  138.3550 C   0  0  2  0  0  3  0  0  0  0  0  0
  195.9970  178.3450  134.7240 O   0  0  0  0  0  1  0  0  0  0  0  0
  195.1190  176.2280  135.4890 C   0  0  0  0  0  0  0  0  0  0  0  0
  195.9410  175.5920  134.7730 O   0  0  0  0  0  0  0  0  0  0  0  0
  195.1200  177.6530  135.4880 N   0  0  0  0  0  2  0  0  0  0  0  0
  2 17  1  0  0  0  0
  3  1  2  0  0  0  0
  4  1  1  0  0  0  0
  5  8  1  0  0  0  0
  6 19  1  6  0  0  0
  6 18  1  0  0  0  0
  8 10  1  0  0  0  0
  9  4  1  6  0  0  0
  9  7  1  0  0  0  0
 10 13  1  1  0  0  0
 11 25  1  6  0  0  0
 11 16  1  0  0  0  0
 12  2  2  0  0  0  0
 12 20  1  0  0  0  0
 14  6  1  0  0  0  0
 14 11  1  0  0  0  0
 15 22  2  0  0  0  0
 15 21  1  0  0  0  0
 17  9  1  0  0  0  0
 17  8  2  0  0  0  0
 18 16  1  1  0  0  0
 18 23  1  0  0  0  0
 19 21  1  0  0  0  0
 20  5  2  0  0  0  0
 21  4  2  0  0  0  0
 22  3  1  0  0  0  0
 23  7  1  6  0  0  0
 23 10  1  0  0  0  0
 24 27  1  0  0  0  0
 26 25  2  0  0  0  0
 27 25  1  0  0  0  0
M  END
>  <MODEL>
1

>  <REMARK>
 VINA RESULT:      -6.0      0.000      0.000
  Name = 
  1 active torsions:
  status: ('A' for Active; 'I' for Inactive)
    1  A    between atoms: C_9  and  C_13
                            x       y       z     vdW  Elec       q    Type
                         _______ _______ _______ _____ _____    ______ ____

>  <TORSDO>
F 1

$$$$
=
 OpenBabel10232411423D

 27 31  0  0  1  0  0  0  0  0999 V2000
  193.1990  176.1580  136.8390 C   0  0  0  0  0  3  0  0  0  0  0  0
  191.2230  177.0220  139.7590 C   0  0  0  0  0  3  0  0  0  0  0  0
  194.1610  175.1650  136.6490 C   0  0  0  0  0  3  0  0  0  0  0  0
  191.8670  175.8020  137.0680 C   0  0  0  0  0  0  0  0  0  0  0  0
  188.5760  177.7490  140.1660 C   0  0  0  0  0  3  0  0  0  0  0  0
  189.2570  174.3770  136.2560 N   0  0  1  0  0  0  0  0  0  0  0  0
  189.9370  176.9970  136.1770 O   0  0  0  0  0  0  0  0  0  0  0  0
  189.0300  177.5060  138.8670 C   0  0  0  0  0  0  0  0  0  0  0  0
  190.8720  176.9130  137.2510 C   0  0  1  0  0  3  0  0  0  0  0  0
  188.1120  177.6510  137.7000 C   0  0  1  0  0  3  0  0  0  0  0  0
  187.0980  173.6290  135.5410 C   0  0  2  0  0  3  0  0  0  0  0  0
  190.7310  177.2710  141.0420 C   0  0  0  0  0  3  0  0  0  0  0  0
  188.0640  179.0980  137.2400 C   0  0  0  0  0  1  0  0  0  0  0  0
  188.5160  173.1960  135.8410 C   0  0  0  0  0  2  0  0  0  0  0  0
  192.5150  173.4760  136.9040 C   0  0  0  0  0  3  0  0  0  0  0  0
  186.9050  174.9220  136.2950 C   0  0  0  0  0  2  0  0  0  0  0  0
  190.3620  177.1270  138.6600 C   0  0  0  0  0  0  0  0  0  0  0  0
  188.2730  175.2760  136.8450 C   0  0  2  0  0  3  0  0  0  0  0  0
  190.1250  173.9650  137.3460 C   0  0  0  0  0  2  0  0  0  0  0  0
  189.4280  177.6240  141.2190 N   0  0  0  0  0  0  0  0  0  0  0  0
  191.5190  174.4350  137.1010 C   0  0  0  0  0  0  0  0  0  0  0  0
  193.8020  173.8550  136.6850 N   0  0  0  0  0  0  0  0  0  0  0  0
  188.5890  176.7500  136.5580 C   0  0  2  0  0  3  0  0  0  0  0  0
  184.1970  172.0390  137.3460 O   0  0  0  0  0  1  0  0  0  0  0  0
  186.1170  172.5940  135.9870 C   0  0  0  0  0  0  0  0  0  0  0  0
  186.1820  171.4150  135.5410 O   0  0  0  0  0  0  0  0  0  0  0  0
  185.1030  172.9510  136.9220 N   0  0  0  0  0  2  0  0  0  0  0  0
  1  4  1  0  0  0  0
  2 12  1  0  0  0  0
  3 22  1  0  0  0  0
  3  1  2  0  0  0  0
  4 21  2  0  0  0  0
  4  9  1  0  0  0  0
  5 20  1  0  0  0  0
  6 14  1  1  0  0  0
  6 18  1  0  0  0  0
  6 19  1  0  0  0  0
  8  5  2  0  0  0  0
  9  7  1  6  0  0  0
  9 17  1  0  0  0  0
 10 13  1  6  0  0  0
 10  8  1  0  0  0  0
 11 14  1  0  0  0  0
 11 25  1  1  0  0  0
 11 16  1  0  0  0  0
 12 20  2  0  0  0  0
 15 21  1  0  0  0  0
 17  8  1  0  0  0  0
 17  2  2  0  0  0  0
 18 16  1  6  0  0  0
 21 19  1  0  0  0  0
 22 15  2  0  0  0  0
 23  7  1  1  0  0  0
 23 18  1  0  0  0  0
 23 10  1  0  0  0  0
 25 27  1  0  0  0  0
 26 25  2  0  0  0  0
 27 24  1  0  0  0  0
M  END
>  <MODEL>
2

>  <REMARK>
 VINA RESULT:      -5.8      2.538      6.003
  Name = 
  1 active torsions:
  status: ('A' for Active; 'I' for Inactive)
    1  A    between atoms: C_9  and  C_13
                            x       y       z     vdW  Elec       q    Type
                         _______ _______ _______ _____ _____    ______ ____

>  <TORSDO>
F 1

$$$$
=
 OpenBabel10232411423D

 27 31  0  0  1  0  0  0  0  0999 V2000
  181.4290  179.8670  139.2930 C   0  0  0  0  0  3  0  0  0  0  0  0
  182.7070  176.8710  137.6900 C   0  0  0  0  0  3  0  0  0  0  0  0
  180.3790  180.0420  140.1940 C   0  0  0  0  0  3  0  0  0  0  0  0
  182.5620  179.1460  139.6780 C   0  0  0  0  0  0  0  0  0  0  0  0
  185.2450  175.9020  137.1270 C   0  0  0  0  0  3  0  0  0  0  0  0
  184.9720  178.6580  141.5380 N   0  0  1  0  0  0  0  0  0  0  0  0
  184.8500  179.7090  139.0450 O   0  0  0  0  0  0  0  0  0  0  0  0
  185.1060  177.1460  137.7490 C   0  0  0  0  0  0  0  0  0  0  0  0
  183.6700  179.0010  138.6710 C   0  0  1  0  0  3  0  0  0  0  0  0
  186.3060  177.9620  138.0950 C   0  0  1  0  0  3  0  0  0  0  0  0
  187.0580  178.4200  142.6870 C   0  0  2  0  0  3  0  0  0  0  0  0
  182.8870  175.6320  137.0710 C   0  0  0  0  0  3  0  0  0  0  0  0
  186.7480  178.7880  136.9000 C   0  0  0  0  0  1  0  0  0  0  0  0
  185.5550  178.4580  142.8550 C   0  0  0  0  0  2  0  0  0  0  0  0
  181.5470  178.8090  141.8490 C   0  0  0  0  0  3  0  0  0  0  0  0
  187.2920  178.0590  141.2410 C   0  0  0  0  0  2  0  0  0  0  0  0
  183.8270  177.6310  138.0450 C   0  0  0  0  0  0  0  0  0  0  0  0
  185.9220  178.0870  140.5920 C   0  0  2  0  0  3  0  0  0  0  0  0
  183.7880  177.8170  141.4720 C   0  0  0  0  0  2  0  0  0  0  0  0
  184.1410  175.1750  136.8070 N   0  0  0  0  0  0  0  0  0  0  0  0
  182.6220  178.6060  140.9800 C   0  0  0  0  0  0  0  0  0  0  0  0
  180.4580  179.5140  141.4430 N   0  0  0  0  0  0  0  0  0  0  0  0
  185.9790  178.8770  139.2780 C   0  0  2  0  0  3  0  0  0  0  0  0
  188.6120  176.9130  145.7720 O   0  0  0  0  0  1  0  0  0  0  0  0
  187.6730  177.4110  143.6020 C   0  0  0  0  0  0  0  0  0  0  0  0
  187.8570  176.2240  143.2150 O   0  0  0  0  0  0  0  0  0  0  0  0
  188.0520  177.8020  144.9180 N   0  0  0  0  0  2  0  0  0  0  0  0
  1  4  2  0  0  0  0
  1  3  1  0  0  0  0
  2 17  1  0  0  0  0
  3 22  2  0  0  0  0
  4 21  1  0  0  0  0
  5  8  1  0  0  0  0
  6 19  1  1  0  0  0
  6 14  1  0  0  0  0
  8 17  2  0  0  0  0
  8 10  1  0  0  0  0
  9 17  1  1  0  0  0
  9  7  1  0  0  0  0
  9  4  1  0  0  0  0
 10 13  1  6  0  0  0
 10 23  1  0  0  0  0
 11 14  1  0  0  0  0
 11 25  1  1  0  0  0
 12  2  2  0  0  0  0
 16 11  1  0  0  0  0
 18 16  1  1  0  0  0
 18  6  1  0  0  0  0
 20 12  1  0  0  0  0
 20  5  2  0  0  0  0
 21 19  1  0  0  0  0
 21 15  2  0  0  0  0
 22 15  1  0  0  0  0
 23  7  1  6  0  0  0
 23 18  1  0  0  0  0
 25 27  1  0  0  0  0
 26 25  2  0  0  0  0
 27 24  1  0  0  0  0
M  END
>  <MODEL>
3

>  <REMARK>
 VINA RESULT:      -5.7      6.312      8.853
  Name = 
  1 active torsions:
  status: ('A' for Active; 'I' for Inactive)
    1  A    between atoms: C_9  and  C_13
                            x       y       z     vdW  Elec       q    Type
                         _______ _______ _______ _____ _____    ______ ____

>  <TORSDO>
F 1

$$$$
=
 OpenBabel10232411423D

 27 31  0  0  1  0  0  0  0  0999 V2000
  193.3380  176.1530  136.5830 C   0  0  0  0  0  3  0  0  0  0  0  0
  191.2490  176.8730  139.4630 C   0  0  0  0  0  3  0  0  0  0  0  0
  194.3610  175.2210  136.4090 C   0  0  0  0  0  3  0  0  0  0  0  0
  192.0250  175.7160  136.7790 C   0  0  0  0  0  0  0  0  0  0  0  0
  188.5550  177.4370  139.8150 C   0  0  0  0  0  3  0  0  0  0  0  0
  189.5240  174.1440  135.8980 N   0  0  1  0  0  0  0  0  0  0  0  0
  190.0470  176.8010  135.8530 O   0  0  0  0  0  0  0  0  0  0  0  0
  189.0520  177.2330  138.5250 C   0  0  0  0  0  0  0  0  0  0  0  0
  190.9610  176.7650  136.9470 C   0  0  1  0  0  3  0  0  0  0  0  0
  188.1530  177.3320  137.3380 C   0  0  1  0  0  3  0  0  0  0  0  0
  187.4300  173.2750  135.1300 C   0  0  2  0  0  3  0  0  0  0  0  0
  190.7140  177.0820  140.7370 C   0  0  0  0  0  3  0  0  0  0  0  0
  188.0280  178.7780  136.8880 C   0  0  0  0  0  1  0  0  0  0  0  0
  188.8650  172.9240  135.4580 C   0  0  0  0  0  2  0  0  0  0  0  0
  192.8150  173.4340  136.6140 C   0  0  0  0  0  3  0  0  0  0  0  0
  187.1430  174.5480  135.8880 C   0  0  0  0  0  2  0  0  0  0  0  0
  190.4080  176.9350  138.3460 C   0  0  0  0  0  0  0  0  0  0  0  0
  188.4750  174.9780  136.4710 C   0  0  2  0  0  3  0  0  0  0  0  0
  190.3910  173.7760  137.0050 C   0  0  0  0  0  2  0  0  0  0  0  0
  189.3890  177.3550  140.8860 N   0  0  0  0  0  0  0  0  0  0  0  0
  191.7590  174.3310  136.7950 C   0  0  0  0  0  0  0  0  0  0  0  0
  194.0810  173.8910  136.4280 N   0  0  0  0  0  0  0  0  0  0  0  0
  188.7080  176.4710  136.2020 C   0  0  2  0  0  3  0  0  0  0  0  0
  185.7770  169.8910  135.2650 O   0  0  0  0  0  1  0  0  0  0  0  0
  186.5030  172.1790  135.5450 C   0  0  0  0  0  0  0  0  0  0  0  0
  185.6420  172.3760  136.4460 O   0  0  0  0  0  0  0  0  0  0  0  0
  186.6010  170.9060  134.9130 N   0  0  0  0  0  2  0  0  0  0  0  0
  1  4  1  0  0  0  0
  2 12  1  0  0  0  0
  3 22  1  0  0  0  0
  3  1  2  0  0  0  0
  4 21  2  0  0  0  0
  4  9  1  0  0  0  0
  5 20  1  0  0  0  0
  6 14  1  1  0  0  0
  6 18  1  0  0  0  0
  6 19  1  0  0  0  0
  8  5  2  0  0  0  0
  9  7  1  6  0  0  0
  9 17  1  0  0  0  0
 10 13  1  6  0  0  0
 10  8  1  0  0  0  0
 11 14  1  0  0  0  0
 11 25  1  1  0  0  0
 11 16  1  0  0  0  0
 12 20  2  0  0  0  0
 15 21  1  0  0  0  0
 17  8  1  0  0  0  0
 17  2  2  0  0  0  0
 18 16  1  6  0  0  0
 21 19  1  0  0  0  0
 22 15  2  0  0  0  0
 23  7  1  1  0  0  0
 23 18  1  0  0  0  0
 23 10  1  0  0  0  0
 25 26  2  0  0  0  0
 27 24  1  0  0  0  0
 27 25  1  0  0  0  0
M  END
>  <MODEL>
4

>  <REMARK>
 VINA RESULT:      -5.5      2.451      5.947
  Name = 
  1 active torsions:
  status: ('A' for Active; 'I' for Inactive)
    1  A    between atoms: C_9  and  C_13
                            x       y       z     vdW  Elec       q    Type
                         _______ _______ _______ _____ _____    ______ ____

>  <TORSDO>
F 1

$$$$
=
 OpenBabel10232411423D

 27 31  0  0  1  0  0  0  0  0999 V2000
  180.1620  179.1780  141.5690 C   0  0  0  0  0  3  0  0  0  0  0  0
  180.1310  175.9080  139.9910 C   0  0  0  0  0  3  0  0  0  0  0  0
  180.3550  179.5470  142.9000 C   0  0  0  0  0  3  0  0  0  0  0  0
  181.2110  178.6000  140.8480 C   0  0  0  0  0  0  0  0  0  0  0  0
  181.1410  174.8890  137.6170 C   0  0  0  0  0  3  0  0  0  0  0  0
  184.0780  178.6430  139.7150 N   0  0  1  0  0  0  0  0  0  0  0  0
  181.6920  179.0420  138.4980 O   0  0  0  0  0  0  0  0  0  0  0  0
  181.3120  176.2440  137.9110 C   0  0  0  0  0  0  0  0  0  0  0  0
  180.9510  178.2360  139.4130 C   0  0  1  0  0  3  0  0  0  0  0  0
  182.0150  177.1480  136.9540 C   0  0  1  0  0  3  0  0  0  0  0  0
  186.1320  178.7440  138.4910 C   0  0  2  0  0  3  0  0  0  0  0  0
  179.9820  174.5590  139.6630 C   0  0  0  0  0  3  0  0  0  0  0  0
  181.0460  177.6620  135.9030 C   0  0  0  0  0  1  0  0  0  0  0  0
  185.5170  178.7880  139.8720 C   0  0  0  0  0  2  0  0  0  0  0  0
  182.6010  178.7880  142.8210 C   0  0  0  0  0  3  0  0  0  0  0  0
  185.1180  178.0420  137.6210 C   0  0  0  0  0  2  0  0  0  0  0  0
  180.8150  176.7580  139.1140 C   0  0  0  0  0  0  0  0  0  0  0  0
  183.8870  177.8770  138.4900 C   0  0  2  0  0  3  0  0  0  0  0  0
  183.6240  177.7850  140.7970 C   0  0  0  0  0  2  0  0  0  0  0  0
  180.4880  174.0800  138.4940 N   0  0  0  0  0  0  0  0  0  0  0  0
  182.4540  178.4010  141.4860 C   0  0  0  0  0  0  0  0  0  0  0  0
  181.5600  179.3460  143.4940 N   0  0  0  0  0  0  0  0  0  0  0  0
  182.6360  178.3190  137.7180 C   0  0  2  0  0  3  0  0  0  0  0  0
  189.7350  177.9270  139.2340 O   0  0  0  0  0  1  0  0  0  0  0  0
  187.4320  178.0070  138.5070 C   0  0  0  0  0  0  0  0  0  0  0  0
  187.5470  176.8980  137.9150 O   0  0  0  0  0  0  0  0  0  0  0  0
  188.5430  178.5690  139.1990 N   0  0  0  0  0  2  0  0  0  0  0  0
  1  3  1  0  0  0  0
  3 22  2  0  0  0  0
  4 21  1  0  0  0  0
  4  1  2  0  0  0  0
  5  8  2  0  0  0  0
  5 20  1  0  0  0  0
  6 14  1  1  0  0  0
  6 19  1  0  0  0  0
  8 17  1  0  0  0  0
  9  7  1  6  0  0  0
  9  4  1  0  0  0  0
 10 13  1  6  0  0  0
 10 23  1  0  0  0  0
 10  8  1  0  0  0  0
 11 25  1  1  0  0  0
 11 14  1  0  0  0  0
 12  2  1  0  0  0  0
 15 22  1  0  0  0  0
 16 11  1  0  0  0  0
 17  9  1  0  0  0  0
 17  2  2  0  0  0  0
 18 16  1  6  0  0  0
 18  6  1  0  0  0  0
 19 21  1  0  0  0  0
 20 12  2  0  0  0  0
 21 15  2  0  0  0  0
 23 18  1  0  0  0  0
 23  7  1  1  0  0  0
 25 27  1  0  0  0  0
 26 25  2  0  0  0  0
 27 24  1  0  0  0  0
M  END
>  <MODEL>
5

>  <REMARK>
 VINA RESULT:      -5.5      6.414      9.463
  Name = 
  1 active torsions:
  status: ('A' for Active; 'I' for Inactive)
    1  A    between atoms: C_9  and  C_13
                            x       y       z     vdW  Elec       q    Type
                         _______ _______ _______ _____ _____    ______ ____

>  <TORSDO>
F 1

$$$$
=
 OpenBabel10232411423D

 27 31  0  0  1  0  0  0  0  0999 V2000
  186.2040  176.8570  134.4680 C   0  0  0  0  0  3  0  0  0  0  0  0
  187.9080  173.6600  134.7120 C   0  0  0  0  0  3  0  0  0  0  0  0
  184.9280  177.2440  134.8760 C   0  0  0  0  0  3  0  0  0  0  0  0
  187.1620  176.5040  135.4220 C   0  0  0  0  0  0  0  0  0  0  0  0
  190.4930  172.8820  135.3490 C   0  0  0  0  0  3  0  0  0  0  0  0
  188.8800  177.1220  137.9070 N   0  0  1  0  0  0  0  0  0  0  0  0
  189.5340  177.0540  135.2800 O   0  0  0  0  0  0  0  0  0  0  0  0
  190.1720  174.2420  135.3190 C   0  0  0  0  0  0  0  0  0  0  0  0
  188.5260  176.1090  134.9270 C   0  0  1  0  0  3  0  0  0  0  0  0
  191.2090  175.2750  135.6090 C   0  0  1  0  0  3  0  0  0  0  0  0
  190.5090  177.6380  139.5820 C   0  0  2  0  0  3  0  0  0  0  0  0
  188.2660  172.3110  134.7540 C   0  0  0  0  0  3  0  0  0  0  0  0
  192.0000  175.5980  134.3530 C   0  0  0  0  0  1  0  0  0  0  0  0
  189.0280  177.5470  139.2900 C   0  0  0  0  0  2  0  0  0  0  0  0
  185.5260  176.9440  137.1510 C   0  0  0  0  0  3  0  0  0  0  0  0
  191.1770  176.7570  138.5540 C   0  0  0  0  0  2  0  0  0  0  0  0
  188.8650  174.6360  135.0110 C   0  0  0  0  0  0  0  0  0  0  0  0
  190.0740  176.3450  137.6000 C   0  0  2  0  0  3  0  0  0  0  0  0
  187.7720  176.1820  137.8740 C   0  0  0  0  0  2  0  0  0  0  0  0
  189.5400  171.9520  135.0720 N   0  0  0  0  0  0  0  0  0  0  0  0
  186.8170  176.5480  136.7900 C   0  0  0  0  0  0  0  0  0  0  0  0
  184.6170  177.2790  136.1980 N   0  0  0  0  0  0  0  0  0  0  0  0
  190.5350  176.5380  136.1490 C   0  0  2  0  0  3  0  0  0  0  0  0
  190.2350  175.7220  142.8160 O   0  0  0  0  0  1  0  0  0  0  0  0
  190.8110  177.1710  140.9700 C   0  0  0  0  0  0  0  0  0  0  0  0
  191.7820  177.6570  141.6120 O   0  0  0  0  0  0  0  0  0  0  0  0
  189.9890  176.1680  141.5620 N   0  0  0  0  0  2  0  0  0  0  0  0
  1  3  2  0  0  0  0
  1  4  1  0  0  0  0
  2 12  2  0  0  0  0
  2 17  1  0  0  0  0
  3 22  1  0  0  0  0
  4 21  2  0  0  0  0
  6 19  1  1  0  0  0
  6 14  1  0  0  0  0
  8  5  1  0  0  0  0
  8 10  1  0  0  0  0
  9 17  1  1  0  0  0
  9  7  1  0  0  0  0
  9  4  1  0  0  0  0
 10 13  1  6  0  0  0
 10 23  1  0  0  0  0
 11 25  1  1  0  0  0
 12 20  1  0  0  0  0
 14 11  1  0  0  0  0
 16 11  1  0  0  0  0
 17  8  2  0  0  0  0
 18  6  1  0  0  0  0
 18 16  1  1  0  0  0
 20  5  2  0  0  0  0
 21 15  1  0  0  0  0
 21 19  1  0  0  0  0
 22 15  2  0  0  0  0
 23  7  1  6  0  0  0
 23 18  1  0  0  0  0
 25 27  1  0  0  0  0
 25 26  2  0  0  0  0
 27 24  1  0  0  0  0
M  END
>  <MODEL>
6

>  <REMARK>
 VINA RESULT:      -5.4      2.917      5.529
  Name = 
  1 active torsions:
  status: ('A' for Active; 'I' for Inactive)
    1  A    between atoms: C_9  and  C_13
                            x       y       z     vdW  Elec       q    Type
                         _______ _______ _______ _____ _____    ______ ____

>  <TORSDO>
F 1

$$$$
=
 OpenBabel10232411423D

 27 31  0  0  1  0  0  0  0  0999 V2000
  192.4220  176.5250  136.5740 C   0  0  0  0  0  3  0  0  0  0  0  0
  189.5700  177.7140  138.4800 C   0  0  0  0  0  3  0  0  0  0  0  0
  193.5190  175.7540  136.9580 C   0  0  0  0  0  3  0  0  0  0  0  0
  191.1420  175.9640  136.5780 C   0  0  0  0  0  0  0  0  0  0  0  0
  186.8500  177.9270  137.9750 C   0  0  0  0  0  3  0  0  0  0  0  0
  189.1040  173.8340  135.6750 N   0  0  1  0  0  0  0  0  0  0  0  0
  189.4220  176.4120  134.9070 O   0  0  0  0  0  0  0  0  0  0  0  0
  187.6980  177.4380  136.9780 C   0  0  0  0  0  0  0  0  0  0  0  0
  189.9980  176.8370  136.1400 C   0  0  1  0  0  3  0  0  0  0  0  0
  187.1580  177.0470  135.6430 C   0  0  1  0  0  3  0  0  0  0  0  0
  187.3750  172.4640  134.7480 C   0  0  2  0  0  3  0  0  0  0  0  0
  188.6900  178.1960  139.4520 C   0  0  0  0  0  3  0  0  0  0  0  0
  187.0560  178.2630  134.7370 C   0  0  0  0  0  1  0  0  0  0  0  0
  188.6840  172.4520  135.5060 C   0  0  0  0  0  2  0  0  0  0  0  0
  192.1120  173.8850  137.3490 C   0  0  0  0  0  3  0  0  0  0  0  0
  186.7960  173.8410  134.9660 C   0  0  0  0  0  2  0  0  0  0  0  0
  189.0690  177.3170  137.2350 C   0  0  0  0  0  0  0  0  0  0  0  0
  187.8800  174.6240  135.6810 C   0  0  2  0  0  3  0  0  0  0  0  0
  189.6560  173.9430  137.0150 C   0  0  0  0  0  2  0  0  0  0  0  0
  187.3600  178.2900  139.1830 N   0  0  0  0  0  0  0  0  0  0  0  0
  190.9840  174.6190  136.9730 C   0  0  0  0  0  0  0  0  0  0  0  0
  193.3430  174.4610  137.3350 N   0  0  0  0  0  0  0  0  0  0  0  0
  188.0670  175.9920  135.0120 C   0  0  2  0  0  3  0  0  0  0  0  0
  184.2530  170.8200  136.0730 O   0  0  0  0  0  1  0  0  0  0  0  0
  186.4520  171.4040  135.2580 C   0  0  0  0  0  0  0  0  0  0  0  0
  186.8480  170.2130  135.3770 O   0  0  0  0  0  0  0  0  0  0  0  0
  185.1160  171.7540  135.6090 N   0  0  0  0  0  2  0  0  0  0  0  0
  1  4  2  0  0  0  0
  1  3  1  0  0  0  0
  2 12  1  0  0  0  0
  3 22  2  0  0  0  0
  4 21  1  0  0  0  0
  5 20  1  0  0  0  0
  6 14  1  1  0  0  0
  6 18  1  0  0  0  0
  6 19  1  0  0  0  0
  8 17  1  0  0  0  0
  8  5  2  0  0  0  0
  9  7  1  6  0  0  0
  9  4  1  0  0  0  0
  9 17  1  0  0  0  0
 10 13  1  6  0  0  0
 10  8  1  0  0  0  0
 11 16  1  0  0  0  0
 11 25  1  1  0  0  0
 11 14  1  0  0  0  0
 17  2  2  0  0  0  0
 18 16  1  6  0  0  0
 20 12  2  0  0  0  0
 21 19  1  0  0  0  0
 21 15  2  0  0  0  0
 22 15  1  0  0  0  0
 23  7  1  1  0  0  0
 23 10  1  0  0  0  0
 23 18  1  0  0  0  0
 25 26  2  0  0  0  0
 25 27  1  0  0  0  0
 27 24  1  0  0  0  0
M  END
>  <MODEL>
7

>  <REMARK>
 VINA RESULT:      -5.2      2.588      6.095
  Name = 
  1 active torsions:
  status: ('A' for Active; 'I' for Inactive)
    1  A    between atoms: C_9  and  C_13
                            x       y       z     vdW  Elec       q    Type
                         _______ _______ _______ _____ _____    ______ ____

>  <TORSDO>
F 1

$$$$
=
 OpenBabel10232411423D

 27 31  0  0  1  0  0  0  0  0999 V2000
  187.2210  178.6040  139.9470 C   0  0  0  0  0  3  0  0  0  0  0  0
  186.5170  175.8200  137.7260 C   0  0  0  0  0  3  0  0  0  0  0  0
  187.1890  178.6920  141.3380 C   0  0  0  0  0  3  0  0  0  0  0  0
  188.1680  177.7870  139.3230 C   0  0  0  0  0  0  0  0  0  0  0  0
  187.6920  174.8360  135.4130 C   0  0  0  0  0  3  0  0  0  0  0  0
  191.0780  176.9340  138.7680 N   0  0  1  0  0  0  0  0  0  0  0  0
  189.3290  178.3390  137.2500 O   0  0  0  0  0  0  0  0  0  0  0  0
  188.2160  175.9820  136.0170 C   0  0  0  0  0  0  0  0  0  0  0  0
  188.1660  177.7430  137.8200 C   0  0  1  0  0  3  0  0  0  0  0  0
  189.3880  176.6880  135.4210 C   0  0  1  0  0  3  0  0  0  0  0  0
  193.2880  176.4460  137.9890 C   0  0  2  0  0  3  0  0  0  0  0  0
  186.0220  174.6760  137.0940 C   0  0  0  0  0  3  0  0  0  0  0  0
  188.9300  177.6590  134.3460 C   0  0  0  0  0  1  0  0  0  0  0  0
  192.4000  176.5220  139.2110 C   0  0  0  0  0  2  0  0  0  0  0  0
  189.0110  177.1840  141.5090 C   0  0  0  0  0  3  0  0  0  0  0  0
  192.3480  176.2870  136.8190 C   0  0  0  0  0  2  0  0  0  0  0  0
  187.6340  176.4720  137.1910 C   0  0  0  0  0  0  0  0  0  0  0  0
  190.9560  176.4670  137.3930 C   0  0  2  0  0  3  0  0  0  0  0  0
  190.1180  176.1630  139.5390 C   0  0  0  0  0  2  0  0  0  0  0  0
  186.6160  174.2100  135.9620 N   0  0  0  0  0  0  0  0  0  0  0  0
  189.0800  177.0630  140.1190 C   0  0  0  0  0  0  0  0  0  0  0  0
  188.0770  177.9850  142.0850 N   0  0  0  0  0  0  0  0  0  0  0  0
  190.1480  177.4350  136.5190 C   0  0  2  0  0  3  0  0  0  0  0  0
  196.0600  174.2260  139.2500 O   0  0  0  0  0  1  0  0  0  0  0  0
  194.2300  175.2900  138.0830 C   0  0  0  0  0  0  0  0  0  0  0  0
  194.1780  174.3500  137.2430 O   0  0  0  0  0  0  0  0  0  0  0  0
  195.1920  175.2580  139.1350 N   0  0  0  0  0  2  0  0  0  0  0  0
  1  3  1  0  0  0  0
  3 22  2  0  0  0  0
  4  1  2  0  0  0  0
  4 21  1  0  0  0  0
  5 20  2  0  0  0  0
  5  8  1  0  0  0  0
  6 14  1  1  0  0  0
  6 19  1  0  0  0  0
  7  9  1  0  0  0  0
  8 17  2  0  0  0  0
  9 17  1  1  0  0  0
  9  4  1  0  0  0  0
 10 13  1  6  0  0  0
 10  8  1  0  0  0  0
 10 23  1  0  0  0  0
 11 25  1  1  0  0  0
 11 14  1  0  0  0  0
 12  2  2  0  0  0  0
 15 22  1  0  0  0  0
 16 11  1  0  0  0  0
 17  2  1  0  0  0  0
 18 16  1  6  0  0  0
 18  6  1  0  0  0  0
 19 21  1  0  0  0  0
 20 12  1  0  0  0  0
 21 15  2  0  0  0  0
 23  7  1  1  0  0  0
 23 18  1  0  0  0  0
 25 27  1  0  0  0  0
 26 25  2  0  0  0  0
 27 24  1  0  0  0  0
M  END
>  <MODEL>
8

>  <REMARK>
 VINA RESULT:      -5.1      2.575      4.740
  Name = 
  1 active torsions:
  status: ('A' for Active; 'I' for Inactive)
    1  A    between atoms: C_9  and  C_13
                            x       y       z     vdW  Elec       q    Type
                         _______ _______ _______ _____ _____    ______ ____

>  <TORSDO>
F 1

$$$$
=
 OpenBabel10232411423D

 27 31  0  0  1  0  0  0  0  0999 V2000
  184.8170  179.3760  138.3390 C   0  0  0  0  0  3  0  0  0  0  0  0
  185.7680  176.0150  137.3500 C   0  0  0  0  0  3  0  0  0  0  0  0
  183.7940  179.8260  139.1730 C   0  0  0  0  0  3  0  0  0  0  0  0
  185.8700  178.6260  138.8720 C   0  0  0  0  0  0  0  0  0  0  0  0
  188.1890  174.6990  137.0230 C   0  0  0  0  0  3  0  0  0  0  0  0
  188.2200  178.2510  140.8320 N   0  0  1  0  0  0  0  0  0  0  0  0
  188.2020  178.8190  138.1840 O   0  0  0  0  0  0  0  0  0  0  0  0
  188.1840  176.0450  137.3970 C   0  0  0  0  0  0  0  0  0  0  0  0
  186.9530  178.1790  137.9300 C   0  0  1  0  0  3  0  0  0  0  0  0
  189.4640  176.7830  137.6050 C   0  0  1  0  0  3  0  0  0  0  0  0
  190.2720  178.0190  142.0410 C   0  0  2  0  0  3  0  0  0  0  0  0
  185.8150  174.6690  136.9780 C   0  0  0  0  0  3  0  0  0  0  0  0
  189.9870  177.3180  136.2830 C   0  0  0  0  0  1  0  0  0  0  0  0
  188.7820  178.2430  142.1730 C   0  0  0  0  0  2  0  0  0  0  0  0
  184.8300  178.8130  141.0500 C   0  0  0  0  0  3  0  0  0  0  0  0
  190.4630  177.3690  140.6920 C   0  0  0  0  0  2  0  0  0  0  0  0
  186.9640  176.7080  137.5750 C   0  0  0  0  0  0  0  0  0  0  0  0
  189.1010  177.4160  140.0270 C   0  0  2  0  0  3  0  0  0  0  0  0
  186.9540  177.5410  140.9050 C   0  0  0  0  0  2  0  0  0  0  0  0
  187.0140  174.0430  136.8260 N   0  0  0  0  0  0  0  0  0  0  0  0
  185.8760  178.3390  140.2530 C   0  0  0  0  0  0  0  0  0  0  0  0
  183.8210  179.5380  140.5000 N   0  0  0  0  0  0  0  0  0  0  0  0
  189.2380  177.9330  138.5880 C   0  0  2  0  0  3  0  0  0  0  0  0
  191.6090  176.9620  145.4020 O   0  0  0  0  0  1  0  0  0  0  0  0
  190.7810  177.1420  143.1390 C   0  0  0  0  0  0  0  0  0  0  0  0
  190.8870  175.8960  142.9670 O   0  0  0  0  0  0  0  0  0  0  0  0
  191.1460  177.7270  144.3860 N   0  0  0  0  0  2  0  0  0  0  0  0
  1  4  2  0  0  0  0
  1  3  1  0  0  0  0
  2 17  1  0  0  0  0
  3 22  2  0  0  0  0
  4 21  1  0  0  0  0
  5  8  1  0  0  0  0
  6 19  1  1  0  0  0
  6 14  1  0  0  0  0
  8 17  2  0  0  0  0
  8 10  1  0  0  0  0
  9 17  1  1  0  0  0
  9  7  1  0  0  0  0
  9  4  1  0  0  0  0
 10 13  1  6  0  0  0
 10 23  1  0  0  0  0
 11 14  1  0  0  0  0
 11 25  1  1  0  0  0
 12  2  2  0  0  0  0
 16 11  1  0  0  0  0
 18 16  1  1  0  0  0
 18  6  1  0  0  0  0
 20 12  1  0  0  0  0
 20  5  2  0  0  0  0
 21 19  1  0  0  0  0
 21 15  2  0  0  0  0
 22 15  1  0  0  0  0
 23  7  1  6  0  0  0
 23 18  1  0  0  0  0
 25 27  1  0  0  0  0
 26 25  2  0  0  0  0
 27 24  1  0  0  0  0
M  END
>  <MODEL>
9

>  <REMARK>
 VINA RESULT:      -5.0      3.987      6.719
  Name = 
  1 active torsions:
  status: ('A' for Active; 'I' for Inactive)
    1  A    between atoms: C_9  and  C_13
                            x       y       z     vdW  Elec       q    Type
                         _______ _______ _______ _____ _____    ______ ____

>  <TORSDO>
F 1

$$$$
