=
 OpenBabel10232407533D

 26 28  0  0  1  0  0  0  0  0999 V2000
  188.9140  177.1660  142.7770 N   0  0  0  0  0  2  0  0  0  0  0  0
  186.7240  177.9040  145.7560 C   0  0  0  0  0  3  0  0  0  0  0  0
  186.6340  177.9100  142.9800 C   0  0  0  0  0  3  0  0  0  0  0  0
  191.8790  178.4320  144.2840 O   0  0  0  0  0  0  0  0  0  0  0  0
  185.5000  178.2660  143.7100 C   0  0  0  0  0  0  0  0  0  0  0  0
  189.0290  177.1680  145.8550 C   0  0  0  0  0  3  0  0  0  0  0  0
  185.5430  178.2530  145.1030 C   0  0  0  0  0  3  0  0  0  0  0  0
  190.3200  177.2080  145.5450 C   0  0  0  0  0  0  0  0  0  0  0  0
  190.2900  177.2960  143.0220 N   0  0  0  0  0  0  0  0  0  0  0  0
  190.8380  177.7200  144.2740 C   0  0  0  0  0  0  0  0  0  0  0  0
  187.8340  177.5780  143.6210 C   0  0  0  0  0  0  0  0  0  0  0  0
  187.8800  177.5740  145.0370 C   0  0  0  0  0  0  0  0  0  0  0  0
  192.0120  176.5000  147.3820 N   0  0  0  0  0  0  0  0  0  0  0  0
  191.2570  176.8160  146.5630 C   0  0  0  0  0  0  0  0  0  0  0  0
  184.2340  178.6040  143.0050 C   0  0  0  0  0  2  0  0  0  0  0  0
  184.1660  177.8800  141.7470 N   0  0  0  0  0  2  0  0  0  0  0  0
  184.2110  180.3950  139.0680 O   0  0  0  0  0  1  0  0  0  0  0  0
  185.8070  178.7770  139.7930 O   0  0  0  0  0  1  0  0  0  0  0  0
  183.5100  178.7600  140.7940 C   0  0  1  0  0  3  0  0  0  0  0  0
  184.4750  179.1840  139.7040 C   0  0  0  0  0  0  0  0  0  0  0  0
  183.4850  178.0870  139.4170 C   0  0  0  0  0  2  0  0  0  0  0  0
  191.1920  177.0900  141.8980 C   0  0  0  0  0  2  0  0  0  0  0  0
  190.3960  176.7760  140.6450 C   0  0  0  0  0  2  0  0  0  0  0  0
  190.4730  177.8530  139.7640 O   0  0  0  0  0  0  0  0  0  0  0  0
  189.2020  177.9310  139.1940 C   0  0  0  0  0  2  0  0  0  0  0  0
  189.0500  179.1630  138.5620 O   0  0  0  0  0  1  0  0  0  0  0  0
  1  9  1  0  0  0  0
  1 11  1  0  0  0  0
  3 11  2  0  0  0  0
  3  5  1  0  0  0  0
  5  7  2  0  0  0  0
  7  2  1  0  0  0  0
  8  6  2  0  0  0  0
  8 14  1  0  0  0  0
  9 10  1  0  0  0  0
 10  4  2  0  0  0  0
 10  8  1  0  0  0  0
 11 12  1  0  0  0  0
 12  2  2  0  0  0  0
 12  6  1  0  0  0  0
 14 13  3  0  0  0  0
 15  5  1  0  0  0  0
 16 15  1  0  0  0  0
 17 20  1  0  0  0  0
 19 16  1  1  0  0  0
 20 18  1  0  0  0  0
 20 19  1  0  0  0  0
 21 20  1  0  0  0  0
 21 19  1  0  0  0  0
 22  9  1  0  0  0  0
 23 22  1  0  0  0  0
 24 23  1  0  0  0  0
 25 24  1  0  0  0  0
 26 25  1  0  0  0  0
M  END
>  <MODEL>
1

>  <REMARK>
 VINA RESULT:      -8.5      0.000      0.000
  Name = 
  8 active torsions:
  status: ('A' for Active; 'I' for Inactive)
    1  A    between atoms: C_1  and  C_8
    2  A    between atoms: C_1  and  N_15
    3  A    between atoms: C_5  and  N_13
    4  A    between atoms: C_5  and  C_21
    5  A    between atoms: C_6  and  O_26
    6  A    between atoms: C_12  and  C_19
    7  A    between atoms: N_15  and  C_17
    8  A    between atoms: C_21  and  O_26
                            x       y       z     vdW  Elec       q    Type
                         _______ _______ _______ _____ _____    ______ ____

>  <TORSDO>
F 8

$$$$
=
 OpenBabel10232407533D

 26 28  0  0  1  0  0  0  0  0999 V2000
  187.5530  177.5960  143.0680 N   0  0  0  0  0  2  0  0  0  0  0  0
  186.3940  178.1870  146.6070 C   0  0  0  0  0  3  0  0  0  0  0  0
  185.4660  178.3560  143.9940 C   0  0  0  0  0  3  0  0  0  0  0  0
  190.8720  178.7350  143.6630 O   0  0  0  0  0  0  0  0  0  0  0  0
  184.6170  178.6830  145.0520 C   0  0  0  0  0  0  0  0  0  0  0  0
  188.5970  177.4180  145.9610 C   0  0  0  0  0  3  0  0  0  0  0  0
  185.0810  178.5880  146.3630 C   0  0  0  0  0  3  0  0  0  0  0  0
  189.7330  177.4590  145.2740 C   0  0  0  0  0  0  0  0  0  0  0  0
  188.9420  177.6950  142.8880 N   0  0  0  0  0  0  0  0  0  0  0  0
  189.8560  178.0380  143.9340 C   0  0  0  0  0  0  0  0  0  0  0  0
  186.7930  177.9720  144.2210 C   0  0  0  0  0  0  0  0  0  0  0  0
  187.2660  177.8850  145.5530 C   0  0  0  0  0  0  0  0  0  0  0  0
  191.8800  176.6230  146.4700 N   0  0  0  0  0  0  0  0  0  0  0  0
  190.9230  176.9960  145.9370 C   0  0  0  0  0  0  0  0  0  0  0  0
  183.2080  179.0780  144.7840 C   0  0  0  0  0  2  0  0  0  0  0  0
  182.8050  178.5940  143.4760 N   0  0  0  0  0  2  0  0  0  0  0  0
  180.4450  179.9450  141.0030 O   0  0  0  0  0  1  0  0  0  0  0  0
  181.9680  178.1080  140.9500 O   0  0  0  0  0  1  0  0  0  0  0  0
  181.6130  179.3380  143.1040 C   0  0  1  0  0  3  0  0  0  0  0  0
  181.1760  178.9820  141.6970 C   0  0  0  0  0  0  0  0  0  0  0  0
  180.4580  178.3600  142.8640 C   0  0  0  0  0  2  0  0  0  0  0  0
  189.4540  177.5430  141.5330 C   0  0  0  0  0  2  0  0  0  0  0  0
  188.3360  177.7550  140.5300 C   0  0  0  0  0  2  0  0  0  0  0  0
  188.5490  178.9460  139.8400 O   0  0  0  0  0  0  0  0  0  0  0  0
  189.0720  178.5500  138.6090 C   0  0  0  0  0  2  0  0  0  0  0  0
  188.6050  179.4020  137.6100 O   0  0  0  0  0  1  0  0  0  0  0  0
  1 11  1  0  0  0  0
  3 11  2  0  0  0  0
  3  5  1  0  0  0  0
  4 10  2  0  0  0  0
  5  7  2  0  0  0  0
  7  2  1  0  0  0  0
  8 14  1  0  0  0  0
  8  6  2  0  0  0  0
  9  1  1  0  0  0  0
  9 10  1  0  0  0  0
 10  8  1  0  0  0  0
 11 12  1  0  0  0  0
 12  6  1  0  0  0  0
 12  2  2  0  0  0  0
 14 13  3  0  0  0  0
 15  5  1  0  0  0  0
 16 15  1  0  0  0  0
 17 20  1  0  0  0  0
 18 20  1  0  0  0  0
 19 16  1  6  0  0  0
 20 21  1  0  0  0  0
 20 19  1  0  0  0  0
 21 19  1  0  0  0  0
 22  9  1  0  0  0  0
 23 22  1  0  0  0  0
 24 23  1  0  0  0  0
 25 24  1  0  0  0  0
 26 25  1  0  0  0  0
M  END
>  <MODEL>
2

>  <REMARK>
 VINA RESULT:      -7.8      1.871      2.189
  Name = 
  8 active torsions:
  status: ('A' for Active; 'I' for Inactive)
    1  A    between atoms: C_1  and  C_8
    2  A    between atoms: C_1  and  N_15
    3  A    between atoms: C_5  and  N_13
    4  A    between atoms: C_5  and  C_21
    5  A    between atoms: C_6  and  O_26
    6  A    between atoms: C_12  and  C_19
    7  A    between atoms: N_15  and  C_17
    8  A    between atoms: C_21  and  O_26
                            x       y       z     vdW  Elec       q    Type
                         _______ _______ _______ _____ _____    ______ ____

>  <TORSDO>
F 8

$$$$
=
 OpenBabel10232407533D

 26 28  0  0  1  0  0  0  0  0999 V2000
  187.4870  177.0700  142.9400 N   0  0  0  0  0  2  0  0  0  0  0  0
  185.0960  178.6930  145.3620 C   0  0  0  0  0  3  0  0  0  0  0  0
  185.2820  177.9970  142.6790 C   0  0  0  0  0  3  0  0  0  0  0  0
  190.3980  178.4690  144.4340 O   0  0  0  0  0  0  0  0  0  0  0  0
  184.1210  178.6050  143.1580 C   0  0  0  0  0  0  0  0  0  0  0  0
  187.2980  177.8480  145.9140 C   0  0  0  0  0  3  0  0  0  0  0  0
  184.0250  178.9450  144.5060 C   0  0  0  0  0  3  0  0  0  0  0  0
  188.6100  177.7170  145.7600 C   0  0  0  0  0  0  0  0  0  0  0  0
  188.8380  177.1620  143.3080 N   0  0  0  0  0  0  0  0  0  0  0  0
  189.2990  177.8520  144.4740 C   0  0  0  0  0  0  0  0  0  0  0  0
  186.3750  177.7570  143.5220 C   0  0  0  0  0  0  0  0  0  0  0  0
  186.2800  178.1110  144.8890 C   0  0  0  0  0  0  0  0  0  0  0  0
  190.0360  177.3860  147.9050 N   0  0  0  0  0  0  0  0  0  0  0  0
  189.4000  177.5330  146.9490 C   0  0  0  0  0  0  0  0  0  0  0  0
  182.9700  178.8400  142.2450 C   0  0  0  0  0  2  0  0  0  0  0  0
  183.2540  178.2630  140.9420 N   0  0  0  0  0  2  0  0  0  0  0  0
  182.4410  180.9210  138.5370 O   0  0  0  0  0  1  0  0  0  0  0  0
  184.5100  180.0260  139.3200 O   0  0  0  0  0  1  0  0  0  0  0  0
  182.3670  178.9160  139.9940 C   0  0  1  0  0  3  0  0  0  0  0  0
  183.1440  179.8510  139.0890 C   0  0  0  0  0  0  0  0  0  0  0  0
  182.7480  178.4960  138.5710 C   0  0  0  0  0  2  0  0  0  0  0  0
  189.8220  176.6140  142.3850 C   0  0  0  0  0  2  0  0  0  0  0  0
  190.0200  177.5600  141.2160 C   0  0  0  0  0  2  0  0  0  0  0  0
  189.2390  177.1400  140.1410 O   0  0  0  0  0  0  0  0  0  0  0  0
  188.8360  178.3210  139.5190 C   0  0  0  0  0  2  0  0  0  0  0  0
  187.4600  178.4800  139.6680 O   0  0  0  0  0  1  0  0  0  0  0  0
  1  9  1  0  0  0  0
  1 11  1  0  0  0  0
  3  5  2  0  0  0  0
  3 11  1  0  0  0  0
  4 10  2  0  0  0  0
  5  7  1  0  0  0  0
  7  2  2  0  0  0  0
  8  6  2  0  0  0  0
  8 14  1  0  0  0  0
  9 10  1  0  0  0  0
 10  8  1  0  0  0  0
 11 12  2  0  0  0  0
 12  2  1  0  0  0  0
 12  6  1  0  0  0  0
 14 13  3  0  0  0  0
 15  5  1  0  0  0  0
 16 15  1  0  0  0  0
 17 20  1  0  0  0  0
 19 16  1  1  0  0  0
 20 18  1  0  0  0  0
 20 19  1  0  0  0  0
 21 20  1  0  0  0  0
 21 19  1  0  0  0  0
 22  9  1  0  0  0  0
 23 22  1  0  0  0  0
 24 23  1  0  0  0  0
 25 26  1  0  0  0  0
 25 24  1  0  0  0  0
M  END
>  <MODEL>
3

>  <REMARK>
 VINA RESULT:      -7.8      1.323      1.614
  Name = 
  8 active torsions:
  status: ('A' for Active; 'I' for Inactive)
    1  A    between atoms: C_1  and  C_8
    2  A    between atoms: C_1  and  N_15
    3  A    between atoms: C_5  and  N_13
    4  A    between atoms: C_5  and  C_21
    5  A    between atoms: C_6  and  O_26
    6  A    between atoms: C_12  and  C_19
    7  A    between atoms: N_15  and  C_17
    8  A    between atoms: C_21  and  O_26
                            x       y       z     vdW  Elec       q    Type
                         _______ _______ _______ _____ _____    ______ ____

>  <TORSDO>
F 8

$$$$
=
 OpenBabel10232407533D

 26 28  0  0  1  0  0  0  0  0999 V2000
  188.6030  178.1580  145.2290 N   0  0  0  0  0  2  0  0  0  0  0  0
  191.1530  176.6480  142.8980 C   0  0  0  0  0  3  0  0  0  0  0  0
  188.6520  177.8560  142.8420 C   0  0  0  0  0  3  0  0  0  0  0  0
  189.1920  175.8200  147.8460 O   0  0  0  0  0  0  0  0  0  0  0  0
  189.2500  177.4470  141.6490 C   0  0  0  0  0  0  0  0  0  0  0  0
  191.3710  176.8080  145.3040 C   0  0  0  0  0  3  0  0  0  0  0  0
  190.5090  176.8500  141.6770 C   0  0  0  0  0  3  0  0  0  0  0  0
  190.9710  176.6580  146.5620 C   0  0  0  0  0  0  0  0  0  0  0  0
  188.6600  177.6720  146.5440 N   0  0  0  0  0  0  0  0  0  0  0  0
  189.5660  176.6530  146.9770 C   0  0  0  0  0  0  0  0  0  0  0  0
  189.2760  177.6410  144.0770 C   0  0  0  0  0  0  0  0  0  0  0  0
  190.5510  177.0250  144.1050 C   0  0  0  0  0  0  0  0  0  0  0  0
  192.7960  176.1630  148.3410 N   0  0  0  0  0  0  0  0  0  0  0  0
  191.9820  176.3830  147.5480 C   0  0  0  0  0  0  0  0  0  0  0  0
  188.5700  177.6980  140.3500 C   0  0  0  0  0  2  0  0  0  0  0  0
  189.5460  177.6720  139.2740 N   0  0  0  0  0  2  0  0  0  0  0  0
  187.5520  178.0530  136.2110 O   0  0  0  0  0  1  0  0  0  0  0  0
  188.9810  179.5440  137.4050 O   0  0  0  0  0  1  0  0  0  0  0  0
  188.8650  177.1410  138.1050 C   0  0  1  0  0  3  0  0  0  0  0  0
  188.6240  178.2330  137.0830 C   0  0  0  0  0  0  0  0  0  0  0  0
  189.7740  177.2840  136.8800 C   0  0  0  0  0  2  0  0  0  0  0  0
  187.6610  178.1640  147.4830 C   0  0  0  0  0  2  0  0  0  0  0  0
  186.2710  177.9910  146.9000 C   0  0  0  0  0  2  0  0  0  0  0  0
  185.6870  179.2410  146.7110 O   0  0  0  0  0  0  0  0  0  0  0  0
  185.0890  179.1620  145.4530 C   0  0  0  0  0  2  0  0  0  0  0  0
  183.7030  179.1630  145.5960 O   0  0  0  0  0  1  0  0  0  0  0  0
  1  9  1  0  0  0  0
  2 12  1  0  0  0  0
  3 11  1  0  0  0  0
  5  7  1  0  0  0  0
  5  3  2  0  0  0  0
  6  8  2  0  0  0  0
  7  2  2  0  0  0  0
  8 10  1  0  0  0  0
  8 14  1  0  0  0  0
  9 10  1  0  0  0  0
  9 22  1  0  0  0  0
 10  4  2  0  0  0  0
 11 12  2  0  0  0  0
 11  1  1  0  0  0  0
 12  6  1  0  0  0  0
 14 13  3  0  0  0  0
 15  5  1  0  0  0  0
 16 15  1  0  0  0  0
 17 20  1  0  0  0  0
 19 16  1  1  0  0  0
 20 18  1  0  0  0  0
 20 19  1  0  0  0  0
 21 20  1  0  0  0  0
 21 19  1  0  0  0  0
 23 22  1  0  0  0  0
 24 23  1  0  0  0  0
 25 26  1  0  0  0  0
 25 24  1  0  0  0  0
M  END
>  <MODEL>
4

>  <REMARK>
 VINA RESULT:      -7.1      2.968      5.173
  Name = 
  8 active torsions:
  status: ('A' for Active; 'I' for Inactive)
    1  A    between atoms: C_1  and  C_8
    2  A    between atoms: C_1  and  N_15
    3  A    between atoms: C_5  and  N_13
    4  A    between atoms: C_5  and  C_21
    5  A    between atoms: C_6  and  O_26
    6  A    between atoms: C_12  and  C_19
    7  A    between atoms: N_15  and  C_17
    8  A    between atoms: C_21  and  O_26
                            x       y       z     vdW  Elec       q    Type
                         _______ _______ _______ _____ _____    ______ ____

>  <TORSDO>
F 8

$$$$
=
 OpenBabel10232407533D

 26 28  0  0  1  0  0  0  0  0999 V2000
  185.6670  178.8340  141.6310 N   0  0  0  0  0  2  0  0  0  0  0  0
  185.2830  178.0260  145.2930 C   0  0  0  0  0  3  0  0  0  0  0  0
  187.1890  177.9540  143.2730 C   0  0  0  0  0  3  0  0  0  0  0  0
  182.3780  177.7900  140.7630 O   0  0  0  0  0  0  0  0  0  0  0  0
  187.5310  177.5440  144.5630 C   0  0  0  0  0  0  0  0  0  0  0  0
  183.5420  178.9070  143.8590 C   0  0  0  0  0  3  0  0  0  0  0  0
  186.5760  177.5890  145.5780 C   0  0  0  0  0  3  0  0  0  0  0  0
  182.7820  178.9410  142.7700 C   0  0  0  0  0  0  0  0  0  0  0  0
  184.4700  178.7960  140.8990 N   0  0  0  0  0  0  0  0  0  0  0  0
  183.2050  178.4350  141.4620 C   0  0  0  0  0  0  0  0  0  0  0  0
  185.8890  178.3740  142.9670 C   0  0  0  0  0  0  0  0  0  0  0  0
  184.9170  178.4120  143.9970 C   0  0  0  0  0  0  0  0  0  0  0  0
  180.3450  179.7940  143.0430 N   0  0  0  0  0  0  0  0  0  0  0  0
  181.4320  179.4140  142.9220 C   0  0  0  0  0  0  0  0  0  0  0  0
  188.9220  177.1110  144.8640 C   0  0  0  0  0  2  0  0  0  0  0  0
  189.3270  177.6320  146.1580 N   0  0  0  0  0  2  0  0  0  0  0  0
  192.2280  175.4210  146.6130 O   0  0  0  0  0  1  0  0  0  0  0  0
  191.9770  177.5750  145.6170 O   0  0  0  0  0  1  0  0  0  0  0  0
  190.0370  176.5600  146.8370 C   0  0  1  0  0  3  0  0  0  0  0  0
  191.5190  176.6190  146.5250 C   0  0  0  0  0  0  0  0  0  0  0  0
  191.0270  177.1630  147.8390 C   0  0  0  0  0  2  0  0  0  0  0  0
  184.5540  179.0340  139.4650 C   0  0  0  0  0  2  0  0  0  0  0  0
  185.5380  178.0660  138.8350 C   0  0  0  0  0  2  0  0  0  0  0  0
  186.4920  178.7770  138.1110 O   0  0  0  0  0  0  0  0  0  0  0  0
  187.6620  178.0300  138.2440 C   0  0  0  0  0  2  0  0  0  0  0  0
  188.5770  178.7350  139.0250 O   0  0  0  0  0  1  0  0  0  0  0  0
  1 11  1  0  0  0  0
  2  7  1  0  0  0  0
  3  5  1  0  0  0  0
  4 10  2  0  0  0  0
  5 15  1  0  0  0  0
  5  7  2  0  0  0  0
  6 12  1  0  0  0  0
  8 14  1  0  0  0  0
  8  6  2  0  0  0  0
  9 10  1  0  0  0  0
  9  1  1  0  0  0  0
 10  8  1  0  0  0  0
 11  3  2  0  0  0  0
 11 12  1  0  0  0  0
 12  2  2  0  0  0  0
 14 13  3  0  0  0  0
 15 16  1  0  0  0  0
 18 20  1  0  0  0  0
 19 16  1  6  0  0  0
 19 21  1  0  0  0  0
 20 17  1  0  0  0  0
 20 19  1  0  0  0  0
 20 21  1  0  0  0  0
 22  9  1  0  0  0  0
 23 22  1  0  0  0  0
 24 25  1  0  0  0  0
 24 23  1  0  0  0  0
 25 26  1  0  0  0  0
M  END
>  <MODEL>
5

>  <REMARK>
 VINA RESULT:      -7.0      1.965      7.209
  Name = 
  8 active torsions:
  status: ('A' for Active; 'I' for Inactive)
    1  A    between atoms: C_1  and  C_8
    2  A    between atoms: C_1  and  N_15
    3  A    between atoms: C_5  and  N_13
    4  A    between atoms: C_5  and  C_21
    5  A    between atoms: C_6  and  O_26
    6  A    between atoms: C_12  and  C_19
    7  A    between atoms: N_15  and  C_17
    8  A    between atoms: C_21  and  O_26
                            x       y       z     vdW  Elec       q    Type
                         _______ _______ _______ _____ _____    ______ ____

>  <TORSDO>
F 8

$$$$
=
 OpenBabel10232407533D

 26 28  0  0  1  0  0  0  0  0999 V2000
  187.9190  177.1530  144.7150 N   0  0  0  0  0  2  0  0  0  0  0  0
  187.0780  178.4140  141.2620 C   0  0  0  0  0  3  0  0  0  0  0  0
  189.2140  177.3680  142.6980 C   0  0  0  0  0  3  0  0  0  0  0  0
  185.8800  179.5390  146.3930 O   0  0  0  0  0  0  0  0  0  0  0  0
  189.3790  177.6960  141.3520 C   0  0  0  0  0  0  0  0  0  0  0  0
  185.5470  178.3250  143.1360 C   0  0  0  0  0  3  0  0  0  0  0  0
  188.3040  178.2120  140.6300 C   0  0  0  0  0  3  0  0  0  0  0  0
  185.1630  178.5440  144.3880 C   0  0  0  0  0  0  0  0  0  0  0  0
  187.1140  177.6800  145.7370 N   0  0  0  0  0  0  0  0  0  0  0  0
  186.0880  178.6530  145.5190 C   0  0  0  0  0  0  0  0  0  0  0  0
  187.9950  177.5860  143.3530 C   0  0  0  0  0  0  0  0  0  0  0  0
  186.9070  178.1190  142.6210 C   0  0  0  0  0  0  0  0  0  0  0  0
  182.6370  178.9820  144.8010 N   0  0  0  0  0  0  0  0  0  0  0  0
  183.7640  178.7870  144.6170 C   0  0  0  0  0  0  0  0  0  0  0  0
  190.6810  177.4450  140.6770 C   0  0  0  0  0  2  0  0  0  0  0  0
  190.4820  177.3750  139.2400 N   0  0  0  0  0  2  0  0  0  0  0  0
  190.6500  174.0510  137.6810 O   0  0  0  0  0  1  0  0  0  0  0  0
  189.0620  175.8260  137.5370 O   0  0  0  0  0  1  0  0  0  0  0  0
  191.2080  176.2060  138.7730 C   0  0  1  0  0  3  0  0  0  0  0  0
  190.3710  175.4130  137.7900 C   0  0  0  0  0  0  0  0  0  0  0  0
  191.4470  176.3250  137.2640 C   0  0  0  0  0  2  0  0  0  0  0  0
  187.4260  177.2870  147.1040 C   0  0  0  0  0  2  0  0  0  0  0  0
  188.8530  177.6740  147.4430 C   0  0  0  0  0  2  0  0  0  0  0  0
  189.6570  176.5360  147.4370 O   0  0  0  0  0  0  0  0  0  0  0  0
  190.8050  176.9220  146.7440 C   0  0  0  0  0  2  0  0  0  0  0  0
  191.9010  176.8870  147.6040 O   0  0  0  0  0  1  0  0  0  0  0  0
  1  9  1  0  0  0  0
  2 12  1  0  0  0  0
  3 11  1  0  0  0  0
  5  3  2  0  0  0  0
  6  8  2  0  0  0  0
  7  2  2  0  0  0  0
  7  5  1  0  0  0  0
  8 14  1  0  0  0  0
  8 10  1  0  0  0  0
  9 22  1  0  0  0  0
 10  9  1  0  0  0  0
 10  4  2  0  0  0  0
 11  1  1  0  0  0  0
 12  6  1  0  0  0  0
 12 11  2  0  0  0  0
 14 13  3  0  0  0  0
 15  5  1  0  0  0  0
 16 15  1  0  0  0  0
 17 20  1  0  0  0  0
 18 20  1  0  0  0  0
 19 16  1  6  0  0  0
 20 19  1  0  0  0  0
 21 20  1  0  0  0  0
 21 19  1  0  0  0  0
 22 23  1  0  0  0  0
 24 23  1  0  0  0  0
 25 24  1  0  0  0  0
 25 26  1  0  0  0  0
M  END
>  <MODEL>
6

>  <REMARK>
 VINA RESULT:      -7.0      2.887      6.479
  Name = 
  8 active torsions:
  status: ('A' for Active; 'I' for Inactive)
    1  A    between atoms: C_1  and  C_8
    2  A    between atoms: C_1  and  N_15
    3  A    between atoms: C_5  and  N_13
    4  A    between atoms: C_5  and  C_21
    5  A    between atoms: C_6  and  O_26
    6  A    between atoms: C_12  and  C_19
    7  A    between atoms: N_15  and  C_17
    8  A    between atoms: C_21  and  O_26
                            x       y       z     vdW  Elec       q    Type
                         _______ _______ _______ _____ _____    ______ ____

>  <TORSDO>
F 8

$$$$
=
 OpenBabel10232407533D

 26 28  0  0  1  0  0  0  0  0999 V2000
  185.3030  178.7330  141.8440 N   0  0  0  0  0  2  0  0  0  0  0  0
  184.7950  178.4170  145.5670 C   0  0  0  0  0  3  0  0  0  0  0  0
  186.7490  178.0250  143.6320 C   0  0  0  0  0  3  0  0  0  0  0  0
  182.0030  177.6890  141.0170 O   0  0  0  0  0  0  0  0  0  0  0  0
  187.0420  177.7740  144.9730 C   0  0  0  0  0  0  0  0  0  0  0  0
  183.1240  179.1590  143.9790 C   0  0  0  0  0  3  0  0  0  0  0  0
  186.0640  177.9800  145.9440 C   0  0  0  0  0  3  0  0  0  0  0  0
  182.3940  179.0770  142.8720 C   0  0  0  0  0  0  0  0  0  0  0  0
  184.1250  178.6380  141.0870 N   0  0  0  0  0  0  0  0  0  0  0  0
  182.8340  178.3920  141.6530 C   0  0  0  0  0  0  0  0  0  0  0  0
  185.4730  178.4430  143.2350 C   0  0  0  0  0  0  0  0  0  0  0  0
  184.4770  178.6430  144.2210 C   0  0  0  0  0  0  0  0  0  0  0  0
  179.9820  180.0330  142.9600 N   0  0  0  0  0  0  0  0  0  0  0  0
  181.0580  179.6060  142.9210 C   0  0  0  0  0  0  0  0  0  0  0  0
  188.4090  177.3410  145.3700 C   0  0  0  0  0  2  0  0  0  0  0  0
  189.2820  177.3510  144.2090 N   0  0  0  0  0  2  0  0  0  0  0  0
  192.1460  175.0470  144.1860 O   0  0  0  0  0  1  0  0  0  0  0  0
  190.4620  175.5500  142.5710 O   0  0  0  0  0  1  0  0  0  0  0  0
  190.5920  176.9180  144.6660 C   0  0  1  0  0  3  0  0  0  0  0  0
  191.2120  175.9500  143.6790 C   0  0  0  0  0  0  0  0  0  0  0  0
  191.6580  177.3870  143.6700 C   0  0  0  0  0  2  0  0  0  0  0  0
  184.2550  178.6860  139.6370 C   0  0  0  0  0  2  0  0  0  0  0  0
  183.6250  179.9580  139.1020 C   0  0  0  0  0  2  0  0  0  0  0  0
  182.5530  179.6340  138.2740 O   0  0  0  0  0  0  0  0  0  0  0  0
  181.6750  180.7110  138.3990 C   0  0  0  0  0  2  0  0  0  0  0  0
  180.9020  180.5490  139.5470 O   0  0  0  0  0  1  0  0  0  0  0  0
  1 11  1  0  0  0  0
  2  7  1  0  0  0  0
  3  5  1  0  0  0  0
  4 10  2  0  0  0  0
  5 15  1  0  0  0  0
  5  7  2  0  0  0  0
  6 12  1  0  0  0  0
  8 14  1  0  0  0  0
  8  6  2  0  0  0  0
  9 10  1  0  0  0  0
  9  1  1  0  0  0  0
 10  8  1  0  0  0  0
 11  3  2  0  0  0  0
 11 12  1  0  0  0  0
 12  2  2  0  0  0  0
 14 13  3  0  0  0  0
 16 15  1  0  0  0  0
 18 20  1  0  0  0  0
 19 16  1  6  0  0  0
 20 17  1  0  0  0  0
 20 19  1  0  0  0  0
 21 20  1  0  0  0  0
 21 19  1  0  0  0  0
 22  9  1  0  0  0  0
 23 22  1  0  0  0  0
 24 25  1  0  0  0  0
 24 23  1  0  0  0  0
 25 26  1  0  0  0  0
M  END
>  <MODEL>
7

>  <REMARK>
 VINA RESULT:      -6.9      2.410      7.453
  Name = 
  8 active torsions:
  status: ('A' for Active; 'I' for Inactive)
    1  A    between atoms: C_1  and  C_8
    2  A    between atoms: C_1  and  N_15
    3  A    between atoms: C_5  and  N_13
    4  A    between atoms: C_5  and  C_21
    5  A    between atoms: C_6  and  O_26
    6  A    between atoms: C_12  and  C_19
    7  A    between atoms: N_15  and  C_17
    8  A    between atoms: C_21  and  O_26
                            x       y       z     vdW  Elec       q    Type
                         _______ _______ _______ _____ _____    ______ ____

>  <TORSDO>
F 8

$$$$
=
 OpenBabel10232407533D

 26 28  0  0  1  0  0  0  0  0999 V2000
  187.2240  178.2730  143.2220 N   0  0  0  0  0  2  0  0  0  0  0  0
  190.6950  176.9090  143.7740 C   0  0  0  0  0  3  0  0  0  0  0  0
  188.8970  177.4190  141.7190 C   0  0  0  0  0  3  0  0  0  0  0  0
  185.8860  176.8590  146.2020 O   0  0  0  0  0  0  0  0  0  0  0  0
  190.1550  176.8910  141.4240 C   0  0  0  0  0  0  0  0  0  0  0  0
  189.2030  177.6990  145.5110 C   0  0  0  0  0  3  0  0  0  0  0  0
  191.0590  176.6440  142.4550 C   0  0  0  0  0  3  0  0  0  0  0  0
  188.0530  177.7670  146.1710 C   0  0  0  0  0  0  0  0  0  0  0  0
  186.3690  178.1510  144.3290 N   0  0  0  0  0  0  0  0  0  0  0  0
  186.7450  177.5210  145.5580 C   0  0  0  0  0  0  0  0  0  0  0  0
  188.5080  177.6700  143.0410 C   0  0  0  0  0  0  0  0  0  0  0  0
  189.4250  177.4110  144.0880 C   0  0  0  0  0  0  0  0  0  0  0  0
  188.1680  178.1810  148.7310 N   0  0  0  0  0  0  0  0  0  0  0  0
  188.1160  177.9960  147.5890 C   0  0  0  0  0  0  0  0  0  0  0  0
  190.5470  176.6440  140.0100 C   0  0  0  0  0  2  0  0  0  0  0  0
  190.0690  177.7290  139.1720 N   0  0  0  0  0  2  0  0  0  0  0  0
  187.1850  176.8110  137.0860 O   0  0  0  0  0  1  0  0  0  0  0  0
  187.5230  178.5220  138.7140 O   0  0  0  0  0  1  0  0  0  0  0  0
  189.4710  177.1180  137.9970 C   0  0  1  0  0  3  0  0  0  0  0  0
  188.0660  177.6420  137.7760 C   0  0  0  0  0  0  0  0  0  0  0  0
  189.1930  178.2000  136.9480 C   0  0  0  0  0  2  0  0  0  0  0  0
  184.9930  178.5970  144.1650 C   0  0  0  0  0  2  0  0  0  0  0  0
  184.7820  179.1210  142.7570 C   0  0  0  0  0  2  0  0  0  0  0  0
  183.9850  178.2280  142.0430 O   0  0  0  0  0  0  0  0  0  0  0  0
  184.2160  178.5450  140.7040 C   0  0  0  0  0  2  0  0  0  0  0  0
  185.1190  179.6040  140.6260 O   0  0  0  0  0  1  0  0  0  0  0  0
  1  9  1  0  0  0  0
  2 12  1  0  0  0  0
  3 11  1  0  0  0  0
  5  3  2  0  0  0  0
  5  7  1  0  0  0  0
  6  8  2  0  0  0  0
  7  2  2  0  0  0  0
  8 14  1  0  0  0  0
  9 10  1  0  0  0  0
 10  8  1  0  0  0  0
 10  4  2  0  0  0  0
 11  1  1  0  0  0  0
 11 12  2  0  0  0  0
 12  6  1  0  0  0  0
 14 13  3  0  0  0  0
 15  5  1  0  0  0  0
 16 15  1  0  0  0  0
 17 20  1  0  0  0  0
 19 16  1  1  0  0  0
 20 19  1  0  0  0  0
 20 18  1  0  0  0  0
 21 20  1  0  0  0  0
 21 19  1  0  0  0  0
 22  9  1  0  0  0  0
 23 22  1  0  0  0  0
 24 23  1  0  0  0  0
 25 24  1  0  0  0  0
 26 25  1  0  0  0  0
M  END
>  <MODEL>
8

>  <REMARK>
 VINA RESULT:      -6.9      2.345      4.927
  Name = 
  8 active torsions:
  status: ('A' for Active; 'I' for Inactive)
    1  A    between atoms: C_1  and  C_8
    2  A    between atoms: C_1  and  N_15
    3  A    between atoms: C_5  and  N_13
    4  A    between atoms: C_5  and  C_21
    5  A    between atoms: C_6  and  O_26
    6  A    between atoms: C_12  and  C_19
    7  A    between atoms: N_15  and  C_17
    8  A    between atoms: C_21  and  O_26
                            x       y       z     vdW  Elec       q    Type
                         _______ _______ _______ _____ _____    ______ ____

>  <TORSDO>
F 8

$$$$
=
 OpenBabel10232407533D

 26 28  0  0  1  0  0  0  0  0999 V2000
  189.2320  176.7320  144.0470 N   0  0  0  0  0  2  0  0  0  0  0  0
  186.9080  178.4610  141.6340 C   0  0  0  0  0  3  0  0  0  0  0  0
  189.4410  177.3250  141.7240 C   0  0  0  0  0  3  0  0  0  0  0  0
  188.2700  178.7180  146.8400 O   0  0  0  0  0  0  0  0  0  0  0  0
  188.9660  177.8640  140.5280 C   0  0  0  0  0  0  0  0  0  0  0  0
  186.4270  178.0010  143.9630 C   0  0  0  0  0  3  0  0  0  0  0  0
  187.6910  178.4250  140.4820 C   0  0  0  0  0  3  0  0  0  0  0  0
  186.6770  178.0050  145.2670 C   0  0  0  0  0  0  0  0  0  0  0  0
  189.0120  177.0520  145.3960 N   0  0  0  0  0  0  0  0  0  0  0  0
  188.0260  177.9890  145.8400 C   0  0  0  0  0  0  0  0  0  0  0  0
  188.6750  177.3730  142.8960 C   0  0  0  0  0  0  0  0  0  0  0  0
  187.3830  177.9520  142.8500 C   0  0  0  0  0  0  0  0  0  0  0  0
  184.6490  178.2360  146.8710 N   0  0  0  0  0  0  0  0  0  0  0  0
  185.5530  178.1330  146.1550 C   0  0  0  0  0  0  0  0  0  0  0  0
  189.7960  177.7910  139.2950 C   0  0  0  0  0  2  0  0  0  0  0  0
  189.9680  176.4030  138.9030 N   0  0  0  0  0  2  0  0  0  0  0  0
  192.8310  174.4150  137.7380 O   0  0  0  0  0  1  0  0  0  0  0  0
  190.4770  174.0280  137.7110 O   0  0  0  0  0  1  0  0  0  0  0  0
  191.3380  176.2660  138.4380 C   0  0  1  0  0  3  0  0  0  0  0  0
  191.5380  174.9350  137.7420 C   0  0  0  0  0  0  0  0  0  0  0  0
  191.3490  176.1740  136.9090 C   0  0  0  0  0  2  0  0  0  0  0  0
  189.9160  176.4710  146.3790 C   0  0  0  0  0  2  0  0  0  0  0  0
  191.3410  176.9050  146.0930 C   0  0  0  0  0  2  0  0  0  0  0  0
  192.2070  175.8370  146.3210 O   0  0  0  0  0  0  0  0  0  0  0  0
  192.0260  175.5210  147.6670 C   0  0  0  0  0  2  0  0  0  0  0  0
  193.0220  176.1300  148.4260 O   0  0  0  0  0  1  0  0  0  0  0  0
  1  9  1  0  0  0  0
  2 12  1  0  0  0  0
  3 11  1  0  0  0  0
  5  3  2  0  0  0  0
  6  8  2  0  0  0  0
  7  5  1  0  0  0  0
  7  2  2  0  0  0  0
  8 10  1  0  0  0  0
  8 14  1  0  0  0  0
  9 10  1  0  0  0  0
  9 22  1  0  0  0  0
 10  4  2  0  0  0  0
 11  1  1  0  0  0  0
 12 11  2  0  0  0  0
 12  6  1  0  0  0  0
 14 13  3  0  0  0  0
 15  5  1  0  0  0  0
 16 15  1  0  0  0  0
 17 20  1  0  0  0  0
 18 20  1  0  0  0  0
 19 16  1  1  0  0  0
 20 19  1  0  0  0  0
 21 20  1  0  0  0  0
 21 19  1  0  0  0  0
 23 24  1  0  0  0  0
 23 22  1  0  0  0  0
 24 25  1  0  0  0  0
 25 26  1  0  0  0  0
M  END
>  <MODEL>
9

>  <REMARK>
 VINA RESULT:      -6.7      3.368      6.249
  Name = 
  8 active torsions:
  status: ('A' for Active; 'I' for Inactive)
    1  A    between atoms: C_1  and  C_8
    2  A    between atoms: C_1  and  N_15
    3  A    between atoms: C_5  and  N_13
    4  A    between atoms: C_5  and  C_21
    5  A    between atoms: C_6  and  O_26
    6  A    between atoms: C_12  and  C_19
    7  A    between atoms: N_15  and  C_17
    8  A    between atoms: C_21  and  O_26
                            x       y       z     vdW  Elec       q    Type
                         _______ _______ _______ _____ _____    ______ ____

>  <TORSDO>
F 8

$$$$
