=
 OpenBabel10232412493D

 40 44  0  0  1  0  0  0  0  0999 V2000
  184.6510  180.2490  144.2480 F   0  0  0  0  0  0  0  0  0  0  0  0
  181.8480  176.3800  139.3020 C   0  0  0  0  0  3  0  0  0  0  0  0
  180.0460  178.4630  139.2970 N   0  0  0  0  0  0  0  0  0  0  0  0
  183.0130  177.2650  141.2320 N   0  0  0  0  0  2  0  0  0  0  0  0
  185.1840  178.1650  141.8240 C   0  0  1  0  0  3  0  0  0  0  0  0
  180.8770  179.4040  141.3700 C   0  0  0  0  0  0  0  0  0  0  0  0
  182.1430  179.4290  143.5700 C   0  0  0  0  0  2  0  0  0  0  0  0
  180.8750  176.4580  138.3090 C   0  0  0  0  0  3  0  0  0  0  0  0
  184.5680  178.8710  144.0920 C   0  0  1  0  0  0  0  0  0  0  0  0
  179.9820  177.5280  138.3150 C   0  0  0  0  0  3  0  0  0  0  0  0
  181.9290  177.3580  140.2940 C   0  0  0  0  0  0  0  0  0  0  0  0
  183.3060  178.4650  143.3340 C   0  0  2  0  0  3  0  0  0  0  0  0
  185.7300  178.4220  143.2250 C   0  0  0  0  0  2  0  0  0  0  0  0
  180.9710  178.4050  140.2940 C   0  0  0  0  0  0  0  0  0  0  0  0
  180.7280  180.6190  141.0740 O   0  0  0  0  0  0  0  0  0  0  0  0
  183.6860  178.3940  141.8650 C   0  0  2  0  0  3  0  0  0  0  0  0
  180.9480  179.0110  142.7830 C   0  0  0  0  0  0  0  0  0  0  0  0
  180.1780  178.0320  143.2450 C   0  0  0  0  0  2  0  0  0  0  0  0
  185.8200  179.1120  140.8150 C   0  0  0  0  0  2  0  0  0  0  0  0
  187.0320  178.3460  138.3570 O   0  0  0  0  0  0  0  0  0  0  0  0
  187.7710  178.4220  139.3750 C   0  0  0  0  0  0  0  0  0  0  0  0
  187.2250  178.7770  140.6440 N   0  0  0  0  0  2  0  0  0  0  0  0
  189.2190  178.0970  139.2610 C   0  0  0  0  0  2  0  0  0  0  0  0
  189.5200  177.7500  137.9370 O   0  0  0  0  0  0  0  0  0  0  0  0
  191.0600  174.1410  137.8120 O   0  0  0  0  0  0  0  0  0  0  0  0
  188.0600  175.4190  137.0360 N   0  0  0  0  0  1  0  0  0  0  0  0
  189.6380  176.4790  135.5300 C   0  0  0  0  0  1  0  0  0  0  0  0
  191.4520  176.5320  137.9910 C   0  0  0  0  0  2  0  0  0  0  0  0
  190.2280  174.3750  136.6990 C   0  0  0  0  0  2  0  0  0  0  0  0
  192.0550  175.1340  137.7850 C   0  0  0  0  0  2  0  0  0  0  0  0
  189.4720  175.7080  136.8390 C   0  0  2  0  0  0  0  0  0  0  0  0
  189.9820  176.4730  138.0020 N   0  0  0  0  0  0  0  0  0  0  0  0
  184.6690  178.1620  145.4430 C   0  0  0  0  0  2  0  0  0  0  0  0
  185.3600  178.9960  146.5230 C   0  0  0  0  0  2  0  0  0  0  0  0
  187.1280  178.5070  148.0950 N   0  0  0  0  0  0  0  0  0  0  0  0
  188.6870  177.0990  146.2400 C   0  0  0  0  0  3  0  0  0  0  0  0
  187.4830  177.7740  145.8710 N   0  0  0  0  0  0  0  0  0  0  0  0
  189.1420  177.1810  147.4900 C   0  0  0  0  0  3  0  0  0  0  0  0
  188.4470  178.0280  148.5270 C   0  0  0  0  0  3  0  0  0  0  0  0
  186.7030  178.4400  146.8680 C   0  0  0  0  0  0  0  0  0  0  0  0
  2 11  1  0  0  0  0
  3 14  1  0  0  0  0
  5 19  1  6  0  0  0
  5 16  1  0  0  0  0
  5 13  1  0  0  0  0
  6 17  1  0  0  0  0
  8 10  1  0  0  0  0
  8  2  2  0  0  0  0
  9  1  1  1  0  0  0
  9 33  1  0  0  0  0
 10  3  2  0  0  0  0
 11  4  1  0  0  0  0
 12  7  1  6  0  0  0
 12  9  1  0  0  0  0
 13  9  1  0  0  0  0
 14 11  2  0  0  0  0
 14  6  1  0  0  0  0
 15  6  2  0  0  0  0
 16  4  1  1  0  0  0
 16 12  1  0  0  0  0
 17 18  2  0  0  0  0
 17  7  1  0  0  0  0
 20 21  2  0  0  0  0
 21 22  1  0  0  0  0
 22 19  1  0  0  0  0
 23 21  1  0  0  0  0
 24 32  1  0  0  0  0
 24 23  1  0  0  0  0
 28 32  1  0  0  0  0
 29 31  1  0  0  0  0
 29 25  1  0  0  0  0
 30 25  1  0  0  0  0
 30 28  1  0  0  0  0
 31 27  1  6  0  0  0
 31 26  1  0  0  0  0
 31 32  1  0  0  0  0
 33 34  1  0  0  0  0
 34 40  1  0  0  0  0
 35 39  1  0  0  0  0
 36 38  1  0  0  0  0
 37 36  2  0  0  0  0
 37 40  1  0  0  0  0
 38 39  2  0  0  0  0
 40 35  2  0  0  0  0
M  END
>  <MODEL>
1

>  <REMARK>
 VINA RESULT:      -8.4      0.000      0.000
  Name = 
  8 active torsions:
  status: ('A' for Active; 'I' for Inactive)
    1  A    between atoms: C_3  and  C_14
    2  A    between atoms: C_3  and  N_38
    3  A    between atoms: O_4  and  C_16
    4  A    between atoms: O_4  and  N_37
    5  A    between atoms: C_12  and  C_33
    6  A    between atoms: C_12  and  C_40
    7  A    between atoms: C_16  and  C_21
    8  A    between atoms: C_22  and  C_33
                            x       y       z     vdW  Elec       q    Type
                         _______ _______ _______ _____ _____    ______ ____

>  <TORSDO>
F 8

$$$$
=
 OpenBabel10232412493D

 40 44  0  0  1  0  0  0  0  0999 V2000
  188.2460  176.6870  140.4400 F   0  0  0  0  0  0  0  0  0  0  0  0
  182.6520  180.2640  138.6510 C   0  0  0  0  0  3  0  0  0  0  0  0
  182.0140  177.8500  137.4890 N   0  0  0  0  0  0  0  0  0  0  0  0
  184.8630  179.4910  139.2700 N   0  0  0  0  0  2  0  0  0  0  0  0
  186.1670  179.0330  141.2610 C   0  0  1  0  0  3  0  0  0  0  0  0
  184.2420  176.9390  137.7680 C   0  0  0  0  0  0  0  0  0  0  0  0
  186.7440  177.0020  138.1890 C   0  0  0  0  0  2  0  0  0  0  0  0
  181.3840  180.0630  138.1150 C   0  0  0  0  0  3  0  0  0  0  0  0
  188.0770  178.0220  140.0980 C   0  0  1  0  0  0  0  0  0  0  0  0
  181.0750  178.8290  137.5440 C   0  0  0  0  0  3  0  0  0  0  0  0
  183.6070  179.2460  138.6170 C   0  0  0  0  0  0  0  0  0  0  0  0
  186.9300  178.2100  139.1080 C   0  0  2  0  0  3  0  0  0  0  0  0
  187.6690  178.7820  141.3470 C   0  0  0  0  0  2  0  0  0  0  0  0
  183.2690  178.0220  137.9850 C   0  0  0  0  0  0  0  0  0  0  0  0
  183.9080  175.7500  138.0120 O   0  0  0  0  0  0  0  0  0  0  0  0
  185.6850  178.4840  139.9320 C   0  0  2  0  0  3  0  0  0  0  0  0
  185.5940  177.2170  137.2660 C   0  0  0  0  0  0  0  0  0  0  0  0
  185.7650  177.9660  136.1820 C   0  0  0  0  0  2  0  0  0  0  0  0
  185.4370  178.3330  142.4000 C   0  0  0  0  0  2  0  0  0  0  0  0
  185.2250  178.5540  145.2300 O   0  0  0  0  0  0  0  0  0  0  0  0
  186.2210  177.9370  144.7630 C   0  0  0  0  0  0  0  0  0  0  0  0
  186.4020  177.8100  143.3540 N   0  0  0  0  0  2  0  0  0  0  0  0
  187.2390  177.3730  145.6900 C   0  0  0  0  0  2  0  0  0  0  0  0
  188.4370  178.0900  145.5650 O   0  0  0  0  0  0  0  0  0  0  0  0
  191.5190  175.7240  146.1260 O   0  0  0  0  0  0  0  0  0  0  0  0
  189.7750  176.6720  143.4250 N   0  0  0  0  0  1  0  0  0  0  0  0
  190.7770  178.6970  144.3070 C   0  0  0  0  0  1  0  0  0  0  0  0
  190.0840  177.4690  147.0200 C   0  0  0  0  0  2  0  0  0  0  0  0
  191.6630  176.4710  144.9400 C   0  0  0  0  0  2  0  0  0  0  0  0
  191.3780  176.6540  147.1710 C   0  0  0  0  0  2  0  0  0  0  0  0
  190.3800  177.2530  144.6140 C   0  0  2  0  0  0  0  0  0  0  0  0
  189.4210  177.1700  145.7420 N   0  0  0  0  0  0  0  0  0  0  0  0
  189.3830  178.6200  139.5730 C   0  0  0  0  0  2  0  0  0  0  0  0
  190.5220  177.6060  139.4650 C   0  0  0  0  0  2  0  0  0  0  0  0
  190.4990  175.4710  138.3360 N   0  0  0  0  0  0  0  0  0  0  0  0
  189.7830  176.5450  135.8480 C   0  0  0  0  0  3  0  0  0  0  0  0
  190.0730  177.3660  136.9810 N   0  0  0  0  0  2  0  0  0  0  0  0
  189.9140  175.2220  135.9320 C   0  0  0  0  0  3  0  0  0  0  0  0
  190.4260  174.5590  137.1870 C   0  0  0  0  0  2  0  0  0  0  0  0
  190.3900  176.7620  138.2390 C   0  0  0  0  0  0  0  0  0  0  0  0
  3 10  2  0  0  0  0
  3 14  1  0  0  0  0
  5 13  1  0  0  0  0
  5 19  1  1  0  0  0
  6 14  1  0  0  0  0
  6 15  2  0  0  0  0
  8  2  2  0  0  0  0
  9  1  1  1  0  0  0
  9 13  1  0  0  0  0
 10  8  1  0  0  0  0
 11  2  1  0  0  0  0
 11  4  1  0  0  0  0
 12  7  1  1  0  0  0
 12 16  1  0  0  0  0
 12  9  1  0  0  0  0
 14 11  2  0  0  0  0
 16  4  1  6  0  0  0
 16  5  1  0  0  0  0
 17  6  1  0  0  0  0
 17  7  1  0  0  0  0
 18 17  2  0  0  0  0
 19 22  1  0  0  0  0
 21 20  2  0  0  0  0
 21 23  1  0  0  0  0
 22 21  1  0  0  0  0
 24 23  1  0  0  0  0
 24 32  1  0  0  0  0
 25 30  1  0  0  0  0
 26 31  1  0  0  0  0
 28 30  1  0  0  0  0
 29 25  1  0  0  0  0
 31 27  1  6  0  0  0
 31 29  1  0  0  0  0
 31 32  1  0  0  0  0
 32 28  1  0  0  0  0
 33  9  1  0  0  0  0
 34 33  1  0  0  0  0
 36 38  2  0  0  0  0
 36 37  1  0  0  0  0
 37 40  1  0  0  0  0
 38 39  1  0  0  0  0
 39 35  1  0  0  0  0
 40 35  2  0  0  0  0
 40 34  1  0  0  0  0
M  END
>  <MODEL>
2

>  <REMARK>
 VINA RESULT:      -8.1      3.133      7.159
  Name = 
  8 active torsions:
  status: ('A' for Active; 'I' for Inactive)
    1  A    between atoms: C_3  and  C_14
    2  A    between atoms: C_3  and  N_38
    3  A    between atoms: O_4  and  C_16
    4  A    between atoms: O_4  and  N_37
    5  A    between atoms: C_12  and  C_33
    6  A    between atoms: C_12  and  C_40
    7  A    between atoms: C_16  and  C_21
    8  A    between atoms: C_22  and  C_33
                            x       y       z     vdW  Elec       q    Type
                         _______ _______ _______ _____ _____    ______ ____

>  <TORSDO>
F 8

$$$$
=
 OpenBabel10232412493D

 40 44  0  0  1  0  0  0  0  0999 V2000
  191.6060  177.9870  139.0640 F   0  0  0  0  0  0  0  0  0  0  0  0
  187.1920  176.6460  144.1630 C   0  0  0  0  0  3  0  0  0  0  0  0
  188.9520  178.2660  145.5270 N   0  0  0  0  0  0  0  0  0  0  0  0
  188.5880  176.6320  142.1840 N   0  0  0  0  0  2  0  0  0  0  0  0
  188.5290  177.3790  139.8790 C   0  0  1  0  0  3  0  0  0  0  0  0
  190.6290  178.1950  143.7800 C   0  0  0  0  0  0  0  0  0  0  0  0
  191.7820  177.3140  141.6980 C   0  0  0  0  0  2  0  0  0  0  0  0
  186.8870  177.0770  145.4510 C   0  0  0  0  0  3  0  0  0  0  0  0
  190.8710  176.8490  139.3700 C   0  0  1  0  0  0  0  0  0  0  0  0
  187.7840  177.9080  146.1190 C   0  0  0  0  0  3  0  0  0  0  0  0
  188.3810  177.0380  143.5460 C   0  0  0  0  0  0  0  0  0  0  0  0
  190.6420  176.7140  140.8740 C   0  0  2  0  0  3  0  0  0  0  0  0
  189.4910  176.9980  138.7570 C   0  0  0  0  0  2  0  0  0  0  0  0
  189.2900  177.8450  144.2790 C   0  0  0  0  0  0  0  0  0  0  0  0
  191.0420  179.3800  143.8940 O   0  0  0  0  0  0  0  0  0  0  0  0
  189.3170  177.3920  141.1750 C   0  0  2  0  0  3  0  0  0  0  0  0
  191.4980  177.1890  143.1550 C   0  0  0  0  0  0  0  0  0  0  0  0
  191.7220  176.0290  143.7630 C   0  0  0  0  0  2  0  0  0  0  0  0
  187.9280  178.7550  139.6300 C   0  0  0  0  0  2  0  0  0  0  0  0
  186.2280  179.2410  141.8610 O   0  0  0  0  0  0  0  0  0  0  0  0
  185.6840  178.9420  140.7640 C   0  0  0  0  0  0  0  0  0  0  0  0
  186.4770  178.6620  139.6120 N   0  0  0  0  0  2  0  0  0  0  0  0
  184.2020  178.8370  140.6810 C   0  0  0  0  0  2  0  0  0  0  0  0
  183.8480  178.0210  139.5980 O   0  0  0  0  0  0  0  0  0  0  0  0
  179.9820  178.5560  139.1690 O   0  0  0  0  0  0  0  0  0  0  0  0
  182.3370  177.0260  137.3390 N   0  0  0  0  0  1  0  0  0  0  0  0
  182.2490  175.8200  139.4420 C   0  0  0  0  0  1  0  0  0  0  0  0
  181.9070  178.6080  140.6510 C   0  0  0  0  0  2  0  0  0  0  0  0
  180.3660  177.2710  138.7390 C   0  0  0  0  0  2  0  0  0  0  0  0
  180.3780  178.6640  140.5140 C   0  0  0  0  0  2  0  0  0  0  0  0
  181.8970  177.1220  138.7220 C   0  0  2  0  0  0  0  0  0  0  0  0
  182.5390  178.2980  139.3590 N   0  0  0  0  0  0  0  0  0  0  0  0
  191.5290  175.6000  138.7830 C   0  0  0  0  0  2  0  0  0  0  0  0
  192.6350  175.9060  137.7730 C   0  0  0  0  0  2  0  0  0  0  0  0
  194.7400  175.2210  138.7390 N   0  0  0  0  0  0  0  0  0  0  0  0
  194.7850  172.7420  137.4330 C   0  0  0  0  0  3  0  0  0  0  0  0
  193.7780  173.7220  137.1770 N   0  0  0  0  0  0  0  0  0  0  0  0
  195.7860  173.0150  138.2680 C   0  0  0  0  0  3  0  0  0  0  0  0
  195.9250  174.3710  138.9140 C   0  0  0  0  0  3  0  0  0  0  0  0
  193.7780  174.9540  137.9070 C   0  0  0  0  0  0  0  0  0  0  0  0
  2  8  1  0  0  0  0
  3 10  1  0  0  0  0
  4 11  1  0  0  0  0
  5 19  1  6  0  0  0
  5 16  1  0  0  0  0
  6 15  2  0  0  0  0
  6 14  1  0  0  0  0
  7 17  1  0  0  0  0
  8 10  2  0  0  0  0
  9  1  1  6  0  0  0
  9 12  1  0  0  0  0
 11  2  2  0  0  0  0
 11 14  1  0  0  0  0
 12 16  1  0  0  0  0
 12  7  1  1  0  0  0
 13  9  1  0  0  0  0
 13  5  1  0  0  0  0
 14  3  2  0  0  0  0
 16  4  1  1  0  0  0
 17 18  2  0  0  0  0
 17  6  1  0  0  0  0
 21 20  2  0  0  0  0
 22 19  1  0  0  0  0
 22 21  1  0  0  0  0
 23 21  1  0  0  0  0
 24 23  1  0  0  0  0
 25 30  1  0  0  0  0
 26 31  1  0  0  0  0
 29 25  1  0  0  0  0
 30 28  1  0  0  0  0
 31 29  1  0  0  0  0
 31 32  1  0  0  0  0
 31 27  1  1  0  0  0
 32 24  1  0  0  0  0
 32 28  1  0  0  0  0
 33  9  1  0  0  0  0
 34 40  1  0  0  0  0
 34 33  1  0  0  0  0
 35 39  1  0  0  0  0
 36 38  1  0  0  0  0
 37 36  2  0  0  0  0
 37 40  1  0  0  0  0
 38 39  2  0  0  0  0
 40 35  2  0  0  0  0
M  END
>  <MODEL>
3

>  <REMARK>
 VINA RESULT:      -8.0      3.116      9.162
  Name = 
  8 active torsions:
  status: ('A' for Active; 'I' for Inactive)
    1  A    between atoms: C_3  and  C_14
    2  A    between atoms: C_3  and  N_38
    3  A    between atoms: O_4  and  C_16
    4  A    between atoms: O_4  and  N_37
    5  A    between atoms: C_12  and  C_33
    6  A    between atoms: C_12  and  C_40
    7  A    between atoms: C_16  and  C_21
    8  A    between atoms: C_22  and  C_33
                            x       y       z     vdW  Elec       q    Type
                         _______ _______ _______ _____ _____    ______ ____

>  <TORSDO>
F 8

$$$$
=
 OpenBabel10232412493D

 40 44  0  0  1  0  0  0  0  0999 V2000
  190.6580  175.5760  138.8070 F   0  0  0  0  0  0  0  0  0  0  0  0
  185.2730  176.6610  134.6700 C   0  0  0  0  0  3  0  0  0  0  0  0
  184.5420  174.2140  135.7010 N   0  0  0  0  0  0  0  0  0  0  0  0
  187.4330  176.5850  135.7640 N   0  0  0  0  0  2  0  0  0  0  0  0
  188.6770  177.7680  137.4740 C   0  0  1  0  0  3  0  0  0  0  0  0
  186.7190  173.7900  136.6770 C   0  0  0  0  0  0  0  0  0  0  0  0
  189.2130  174.1060  137.0250 C   0  0  0  0  0  2  0  0  0  0  0  0
  184.0060  176.1460  134.4100 C   0  0  0  0  0  3  0  0  0  0  0  0
  190.5580  176.1940  137.5680 C   0  0  1  0  0  0  0  0  0  0  0  0
  183.6500  174.9130  134.9540 C   0  0  0  0  0  3  0  0  0  0  0  0
  186.1790  175.9530  135.4620 C   0  0  0  0  0  0  0  0  0  0  0  0
  189.4400  175.5880  136.7230 C   0  0  2  0  0  3  0  0  0  0  0  0
  190.1650  177.6430  137.7910 C   0  0  0  0  0  2  0  0  0  0  0  0
  185.7950  174.6790  135.9560 C   0  0  0  0  0  0  0  0  0  0  0  0
  186.3250  173.2020  137.7190 O   0  0  0  0  0  0  0  0  0  0  0  0
  188.1940  176.4120  136.9960 C   0  0  2  0  0  3  0  0  0  0  0  0
  188.0920  173.5690  136.2040 C   0  0  0  0  0  0  0  0  0  0  0  0
  188.3170  173.2360  134.9370 C   0  0  0  0  0  2  0  0  0  0  0  0
  187.8950  178.1830  138.7130 C   0  0  0  0  0  2  0  0  0  0  0  0
  187.0870  178.6870  141.3950 O   0  0  0  0  0  0  0  0  0  0  0  0
  187.9950  177.8320  141.2070 C   0  0  0  0  0  0  0  0  0  0  0  0
  188.4640  177.5490  139.8900 N   0  0  0  0  0  2  0  0  0  0  0  0
  188.6120  177.1440  142.3730 C   0  0  0  0  0  2  0  0  0  0  0  0
  189.2190  178.0900  143.2100 O   0  0  0  0  0  0  0  0  0  0  0  0
  190.5220  176.3970  146.5030 O   0  0  0  0  0  0  0  0  0  0  0  0
  191.6390  176.5070  143.3450 N   0  0  0  0  0  1  0  0  0  0  0  0
  191.6810  178.7980  144.1400 C   0  0  0  0  0  1  0  0  0  0  0  0
  189.0440  178.0360  145.4860 C   0  0  0  0  0  2  0  0  0  0  0  0
  191.5900  176.9090  145.7410 C   0  0  0  0  0  2  0  0  0  0  0  0
  189.6690  177.4810  146.7760 C   0  0  0  0  0  2  0  0  0  0  0  0
  191.1090  177.3990  144.3650 C   0  0  2  0  0  0  0  0  0  0  0  0
  189.6270  177.3900  144.3010 N   0  0  0  0  0  0  0  0  0  0  0  0
  191.9000  176.1650  136.8350 C   0  0  0  0  0  2  0  0  0  0  0  0
  193.0920  176.5300  137.7210 C   0  0  0  0  0  2  0  0  0  0  0  0
  193.7840  174.2510  137.3160 N   0  0  0  0  0  0  0  0  0  0  0  0
  195.8900  174.3300  139.1620 C   0  0  0  0  0  3  0  0  0  0  0  0
  194.9730  175.4130  139.0030 N   0  0  0  0  0  2  0  0  0  0  0  0
  195.7230  173.2050  138.4680 C   0  0  0  0  0  3  0  0  0  0  0  0
  194.5410  173.0150  137.5510 C   0  0  0  0  0  2  0  0  0  0  0  0
  193.9420  175.3370  138.0130 C   0  0  0  0  0  0  0  0  0  0  0  0
  2 11  1  0  0  0  0
  3 14  1  0  0  0  0
  5 13  1  0  0  0  0
  5 19  1  1  0  0  0
  6 15  2  0  0  0  0
  8  2  2  0  0  0  0
  8 10  1  0  0  0  0
  9 13  1  0  0  0  0
  9  1  1  1  0  0  0
 10  3  2  0  0  0  0
 11  4  1  0  0  0  0
 11 14  2  0  0  0  0
 12 16  1  0  0  0  0
 12  7  1  1  0  0  0
 12  9  1  0  0  0  0
 14  6  1  0  0  0  0
 16  4  1  6  0  0  0
 16  5  1  0  0  0  0
 17  6  1  0  0  0  0
 17  7  1  0  0  0  0
 18 17  2  0  0  0  0
 19 22  1  0  0  0  0
 21 20  2  0  0  0  0
 21 23  1  0  0  0  0
 22 21  1  0  0  0  0
 23 24  1  0  0  0  0
 24 32  1  0  0  0  0
 25 30  1  0  0  0  0
 26 31  1  0  0  0  0
 28 30  1  0  0  0  0
 29 25  1  0  0  0  0
 31 27  1  6  0  0  0
 31 29  1  0  0  0  0
 32 31  1  0  0  0  0
 32 28  1  0  0  0  0
 33  9  1  0  0  0  0
 33 34  1  0  0  0  0
 34 40  1  0  0  0  0
 35 39  1  0  0  0  0
 35 40  2  0  0  0  0
 37 36  1  0  0  0  0
 38 36  2  0  0  0  0
 39 38  1  0  0  0  0
 40 37  1  0  0  0  0
M  END
>  <MODEL>
4

>  <REMARK>
 VINA RESULT:      -7.6      4.573      8.715
  Name = 
  8 active torsions:
  status: ('A' for Active; 'I' for Inactive)
    1  A    between atoms: C_3  and  C_14
    2  A    between atoms: C_3  and  N_38
    3  A    between atoms: O_4  and  C_16
    4  A    between atoms: O_4  and  N_37
    5  A    between atoms: C_12  and  C_33
    6  A    between atoms: C_12  and  C_40
    7  A    between atoms: C_16  and  C_21
    8  A    between atoms: C_22  and  C_33
                            x       y       z     vdW  Elec       q    Type
                         _______ _______ _______ _____ _____    ______ ____

>  <TORSDO>
F 8

$$$$
=
 OpenBabel10232412493D

 40 44  0  0  1  0  0  0  0  0999 V2000
  191.3060  178.0420  139.2460 F   0  0  0  0  0  0  0  0  0  0  0  0
  187.1330  176.7890  144.5660 C   0  0  0  0  0  3  0  0  0  0  0  0
  188.9860  178.3840  145.8340 N   0  0  0  0  0  0  0  0  0  0  0  0
  188.4280  176.7460  142.5190 N   0  0  0  0  0  2  0  0  0  0  0  0
  188.2650  177.4870  140.2170 C   0  0  1  0  0  3  0  0  0  0  0  0
  190.5720  178.2810  144.0040 C   0  0  0  0  0  0  0  0  0  0  0  0
  191.6040  177.3740  141.8700 C   0  0  0  0  0  2  0  0  0  0  0  0
  186.9010  177.2290  145.8660 C   0  0  0  0  0  3  0  0  0  0  0  0
  190.5690  176.9180  139.5940 C   0  0  1  0  0  0  0  0  0  0  0  0
  187.8440  178.0470  146.4850 C   0  0  0  0  0  3  0  0  0  0  0  0
  188.2960  177.1590  143.8890 C   0  0  0  0  0  0  0  0  0  0  0  0
  190.4150  176.7910  141.1070 C   0  0  2  0  0  3  0  0  0  0  0  0
  189.1630  177.0870  139.0500 C   0  0  0  0  0  2  0  0  0  0  0  0
  189.2540  177.9540  144.5710 C   0  0  0  0  0  0  0  0  0  0  0  0
  191.0080  179.4590  144.0930 O   0  0  0  0  0  0  0  0  0  0  0  0
  189.1170  177.4910  141.4720 C   0  0  2  0  0  3  0  0  0  0  0  0
  191.3920  177.2590  143.3400 C   0  0  0  0  0  0  0  0  0  0  0  0
  191.6270  176.0970  143.9410 C   0  0  0  0  0  2  0  0  0  0  0  0
  187.6740  178.8720  139.9940 C   0  0  0  0  0  2  0  0  0  0  0  0
  185.9400  179.1430  142.2350 O   0  0  0  0  0  0  0  0  0  0  0  0
  185.4130  178.9540  141.1050 C   0  0  0  0  0  0  0  0  0  0  0  0
  186.2240  178.7860  139.9440 N   0  0  0  0  0  2  0  0  0  0  0  0
  183.9320  178.8630  140.9900 C   0  0  0  0  0  2  0  0  0  0  0  0
  183.5010  179.6050  139.8820 O   0  0  0  0  0  0  0  0  0  0  0  0
  180.7080  177.6550  137.9290 O   0  0  0  0  0  0  0  0  0  0  0  0
  180.6690  179.9360  140.3840 N   0  0  0  0  0  1  0  0  0  0  0  0
  181.6660  181.0440  138.4710 C   0  0  0  0  0  1  0  0  0  0  0  0
  183.0360  178.3450  138.0340 C   0  0  0  0  0  2  0  0  0  0  0  0
  180.3180  178.9860  138.1760 C   0  0  0  0  0  2  0  0  0  0  0  0
  181.9080  177.7180  137.1990 C   0  0  0  0  0  2  0  0  0  0  0  0
  181.3170  179.6970  139.1040 C   0  0  2  0  0  0  0  0  0  0  0  0
  182.5200  178.8550  139.3130 N   0  0  0  0  0  0  0  0  0  0  0  0
  191.1770  175.6560  138.9790 C   0  0  0  0  0  2  0  0  0  0  0  0
  191.3980  175.7540  137.4690 C   0  0  0  0  0  2  0  0  0  0  0  0
  189.8100  173.9370  137.3450 N   0  0  0  0  0  0  0  0  0  0  0  0
  189.1390  174.4150  134.6660 C   0  0  0  0  0  3  0  0  0  0  0  0
  190.1730  175.1390  135.3360 N   0  0  0  0  0  2  0  0  0  0  0  0
  188.5010  173.4280  135.2930 C   0  0  0  0  0  3  0  0  0  0  0  0
  188.8840  173.0050  136.6900 C   0  0  0  0  0  2  0  0  0  0  0  0
  190.4430  174.8840  136.7180 C   0  0  0  0  0  0  0  0  0  0  0  0
  2  8  1  0  0  0  0
  3 10  1  0  0  0  0
  4 11  1  0  0  0  0
  5 19  1  6  0  0  0
  5 16  1  0  0  0  0
  6 15  2  0  0  0  0
  6 14  1  0  0  0  0
  7 17  1  0  0  0  0
  8 10  2  0  0  0  0
  9  1  1  6  0  0  0
  9 12  1  0  0  0  0
 11  2  2  0  0  0  0
 11 14  1  0  0  0  0
 12 16  1  0  0  0  0
 12  7  1  1  0  0  0
 13  9  1  0  0  0  0
 13  5  1  0  0  0  0
 14  3  2  0  0  0  0
 16  4  1  1  0  0  0
 17 18  2  0  0  0  0
 17  6  1  0  0  0  0
 21 20  2  0  0  0  0
 22 19  1  0  0  0  0
 22 21  1  0  0  0  0
 23 21  1  0  0  0  0
 24 23  1  0  0  0  0
 25 29  1  0  0  0  0
 28 32  1  0  0  0  0
 29 31  1  0  0  0  0
 30 25  1  0  0  0  0
 30 28  1  0  0  0  0
 31 27  1  6  0  0  0
 31 32  1  0  0  0  0
 31 26  1  0  0  0  0
 32 24  1  0  0  0  0
 33  9  1  0  0  0  0
 34 33  1  0  0  0  0
 36 38  2  0  0  0  0
 36 37  1  0  0  0  0
 37 40  1  0  0  0  0
 38 39  1  0  0  0  0
 39 35  1  0  0  0  0
 40 35  2  0  0  0  0
 40 34  1  0  0  0  0
M  END
>  <MODEL>
5

>  <REMARK>
 VINA RESULT:      -7.5      3.013      9.154
  Name = 
  8 active torsions:
  status: ('A' for Active; 'I' for Inactive)
    1  A    between atoms: C_3  and  C_14
    2  A    between atoms: C_3  and  N_38
    3  A    between atoms: O_4  and  C_16
    4  A    between atoms: O_4  and  N_37
    5  A    between atoms: C_12  and  C_33
    6  A    between atoms: C_12  and  C_40
    7  A    between atoms: C_16  and  C_21
    8  A    between atoms: C_22  and  C_33
                            x       y       z     vdW  Elec       q    Type
                         _______ _______ _______ _____ _____    ______ ____

>  <TORSDO>
F 8

$$$$
=
 OpenBabel10232412493D

 40 44  0  0  1  0  0  0  0  0999 V2000
  189.7330  176.5510  135.4730 F   0  0  0  0  0  0  0  0  0  0  0  0
  195.1280  173.7790  138.7140 C   0  0  0  0  0  3  0  0  0  0  0  0
  196.4680  175.1700  136.7510 N   0  0  0  0  0  0  0  0  0  0  0  0
  192.9690  174.3130  137.7540 N   0  0  0  0  0  2  0  0  0  0  0  0
  190.9620  175.5560  138.3020 C   0  0  1  0  0  3  0  0  0  0  0  0
  194.4620  175.6160  135.4670 C   0  0  0  0  0  0  0  0  0  0  0  0
  192.0480  175.3130  134.7440 C   0  0  0  0  0  2  0  0  0  0  0  0
  196.5150  173.8850  138.7590 C   0  0  0  0  0  3  0  0  0  0  0  0
  189.8990  175.3240  136.1020 C   0  0  1  0  0  0  0  0  0  0  0  0
  197.1740  174.6050  137.7640 C   0  0  0  0  0  3  0  0  0  0  0  0
  194.4020  174.3840  137.6860 C   0  0  0  0  0  0  0  0  0  0  0  0
  191.3430  174.8360  136.0140 C   0  0  2  0  0  3  0  0  0  0  0  0
  189.6180  175.5090  137.5820 C   0  0  0  0  0  2  0  0  0  0  0  0
  195.1140  175.0680  136.6660 C   0  0  0  0  0  0  0  0  0  0  0  0
  194.7710  176.7700  135.0680 O   0  0  0  0  0  0  0  0  0  0  0  0
  192.0460  175.3320  137.2650 C   0  0  2  0  0  3  0  0  0  0  0  0
  193.4610  174.8420  134.7210 C   0  0  0  0  0  0  0  0  0  0  0  0
  193.7230  173.5940  134.3490 C   0  0  0  0  0  2  0  0  0  0  0  0
  191.1670  176.9070  138.9740 C   0  0  0  0  0  2  0  0  0  0  0  0
  188.7140  177.9940  139.9260 O   0  0  0  0  0  0  0  0  0  0  0  0
  189.4500  177.3940  140.7560 C   0  0  0  0  0  0  0  0  0  0  0  0
  190.7040  176.8460  140.3510 N   0  0  0  0  0  2  0  0  0  0  0  0
  189.0270  177.2940  142.1780 C   0  0  0  0  0  2  0  0  0  0  0  0
  190.0240  176.6470  142.9210 O   0  0  0  0  0  0  0  0  0  0  0  0
  188.6800  177.0040  146.5930 O   0  0  0  0  0  0  0  0  0  0  0  0
  191.6860  176.3320  145.2710 N   0  0  0  0  0  1  0  0  0  0  0  0
  191.1180  178.5660  144.5170 C   0  0  0  0  0  1  0  0  0  0  0  0
  188.3060  177.4010  144.2250 C   0  0  0  0  0  2  0  0  0  0  0  0
  189.9670  177.5630  146.4680 C   0  0  0  0  0  2  0  0  0  0  0  0
  187.8600  177.6760  145.6690 C   0  0  0  0  0  2  0  0  0  0  0  0
  190.5770  177.2570  145.0900 C   0  0  2  0  0  0  0  0  0  0  0  0
  189.5640  176.6390  144.2000 N   0  0  0  0  0  0  0  0  0  0  0  0
  188.9170  174.2900  135.5490 C   0  0  0  0  0  2  0  0  0  0  0  0
  188.6250  173.1420  136.5160 C   0  0  0  0  0  2  0  0  0  0  0  0
  186.7820  171.7050  135.9040 N   0  0  0  0  0  0  0  0  0  0  0  0
  184.8840  173.1410  137.3840 C   0  0  0  0  0  3  0  0  0  0  0  0
  186.2370  173.5790  137.2470 N   0  0  0  0  0  2  0  0  0  0  0  0
  184.4670  172.0510  136.7430 C   0  0  0  0  0  3  0  0  0  0  0  0
  185.3770  171.2880  135.8130 C   0  0  0  0  0  2  0  0  0  0  0  0
  187.1750  172.7830  136.5160 C   0  0  0  0  0  0  0  0  0  0  0  0
  2  8  1  0  0  0  0
  3 10  1  0  0  0  0
  5 19  1  6  0  0  0
  6 14  1  0  0  0  0
  9  1  1  6  0  0  0
  9 13  1  0  0  0  0
 10  8  2  0  0  0  0
 11  4  1  0  0  0  0
 11  2  2  0  0  0  0
 12  7  1  6  0  0  0
 12  9  1  0  0  0  0
 12 16  1  0  0  0  0
 13  5  1  0  0  0  0
 14  3  2  0  0  0  0
 14 11  1  0  0  0  0
 15  6  2  0  0  0  0
 16  4  1  1  0  0  0
 16  5  1  0  0  0  0
 17  7  1  0  0  0  0
 17  6  1  0  0  0  0
 18 17  2  0  0  0  0
 19 22  1  0  0  0  0
 20 21  2  0  0  0  0
 21 23  1  0  0  0  0
 22 21  1  0  0  0  0
 23 24  1  0  0  0  0
 24 32  1  0  0  0  0
 28 30  1  0  0  0  0
 29 25  1  0  0  0  0
 30 25  1  0  0  0  0
 31 27  1  6  0  0  0
 31 26  1  0  0  0  0
 31 29  1  0  0  0  0
 32 28  1  0  0  0  0
 32 31  1  0  0  0  0
 33  9  1  0  0  0  0
 33 34  1  0  0  0  0
 34 40  1  0  0  0  0
 35 40  2  0  0  0  0
 37 36  1  0  0  0  0
 38 36  2  0  0  0  0
 39 35  1  0  0  0  0
 39 38  1  0  0  0  0
 40 37  1  0  0  0  0
M  END
>  <MODEL>
6

>  <REMARK>
 VINA RESULT:      -7.4      4.897     11.405
  Name = 
  8 active torsions:
  status: ('A' for Active; 'I' for Inactive)
    1  A    between atoms: C_3  and  C_14
    2  A    between atoms: C_3  and  N_38
    3  A    between atoms: O_4  and  C_16
    4  A    between atoms: O_4  and  N_37
    5  A    between atoms: C_12  and  C_33
    6  A    between atoms: C_12  and  C_40
    7  A    between atoms: C_16  and  C_21
    8  A    between atoms: C_22  and  C_33
                            x       y       z     vdW  Elec       q    Type
                         _______ _______ _______ _____ _____    ______ ____

>  <TORSDO>
F 8

$$$$
=
 OpenBabel10232412493D

 40 44  0  0  1  0  0  0  0  0999 V2000
  191.1580  178.0360  139.2410 F   0  0  0  0  0  0  0  0  0  0  0  0
  187.1380  176.7850  144.6780 C   0  0  0  0  0  3  0  0  0  0  0  0
  189.0350  178.3670  145.8960 N   0  0  0  0  0  0  0  0  0  0  0  0
  188.3710  176.7430  142.5940 N   0  0  0  0  0  2  0  0  0  0  0  0
  188.1440  177.4920  140.3000 C   0  0  1  0  0  3  0  0  0  0  0  0
  190.5660  178.2620  144.0190 C   0  0  0  0  0  0  0  0  0  0  0  0
  191.5300  177.3570  141.8530 C   0  0  0  0  0  2  0  0  0  0  0  0
  186.9460  177.2220  145.9860 C   0  0  0  0  0  3  0  0  0  0  0  0
  190.4260  176.9140  139.6070 C   0  0  1  0  0  0  0  0  0  0  0  0
  187.9110  178.0330  146.5790 C   0  0  0  0  0  3  0  0  0  0  0  0
  188.2820  177.1520  143.9680 C   0  0  0  0  0  0  0  0  0  0  0  0
  190.3160  176.7820  141.1240 C   0  0  2  0  0  3  0  0  0  0  0  0
  189.0050  177.0910  139.1060 C   0  0  0  0  0  2  0  0  0  0  0  0
  189.2640  177.9400  144.6240 C   0  0  0  0  0  0  0  0  0  0  0  0
  191.0110  179.4370  144.1000 O   0  0  0  0  0  0  0  0  0  0  0  0
  189.0330  177.4880  141.5290 C   0  0  2  0  0  3  0  0  0  0  0  0
  191.3610  177.2380  143.3290 C   0  0  0  0  0  0  0  0  0  0  0  0
  191.6080  176.0730  143.9180 C   0  0  0  0  0  2  0  0  0  0  0  0
  187.5540  178.8800  140.0990 C   0  0  0  0  0  2  0  0  0  0  0  0
  186.1380  178.5760  137.6480 O   0  0  0  0  0  0  0  0  0  0  0  0
  185.4650  178.6130  138.7130 C   0  0  0  0  0  0  0  0  0  0  0  0
  186.1080  178.7880  139.9740 N   0  0  0  0  0  2  0  0  0  0  0  0
  183.9810  178.5160  138.6500 C   0  0  0  0  0  2  0  0  0  0  0  0
  183.4350  178.8530  139.8960 O   0  0  0  0  0  0  0  0  0  0  0  0
  180.4710  176.3170  140.3390 O   0  0  0  0  0  0  0  0  0  0  0  0
  181.7230  178.7850  142.2300 N   0  0  0  0  0  1  0  0  0  0  0  0
  180.9170  179.8500  140.2050 C   0  0  0  0  0  1  0  0  0  0  0  0
  182.0620  177.3680  138.8340 C   0  0  0  0  0  2  0  0  0  0  0  0
  180.1290  177.5890  140.8420 C   0  0  0  0  0  2  0  0  0  0  0  0
  180.8050  176.4980  138.9850 C   0  0  0  0  0  2  0  0  0  0  0  0
  181.3440  178.5310  140.8480 C   0  0  2  0  0  0  0  0  0  0  0  0
  182.4860  177.9090  140.1340 N   0  0  0  0  0  0  0  0  0  0  0  0
  191.0090  175.6510  138.9700 C   0  0  0  0  0  2  0  0  0  0  0  0
  190.6160  175.4650  137.5040 C   0  0  0  0  0  2  0  0  0  0  0  0
  192.8950  176.0950  137.0090 N   0  0  0  0  0  0  0  0  0  0  0  0
  192.9810  174.7110  134.5740 C   0  0  0  0  0  3  0  0  0  0  0  0
  191.7870  174.8180  135.3500 N   0  0  0  0  0  2  0  0  0  0  0  0
  194.0910  175.3360  134.9650 C   0  0  0  0  0  3  0  0  0  0  0  0
  194.1070  176.2180  136.1890 C   0  0  0  0  0  2  0  0  0  0  0  0
  191.8110  175.4990  136.6090 C   0  0  0  0  0  0  0  0  0  0  0  0
  2  8  1  0  0  0  0
  3 10  1  0  0  0  0
  4 11  1  0  0  0  0
  5 19  1  6  0  0  0
  5 16  1  0  0  0  0
  6 15  2  0  0  0  0
  6 14  1  0  0  0  0
  7 17  1  0  0  0  0
  8 10  2  0  0  0  0
  9  1  1  6  0  0  0
  9 12  1  0  0  0  0
 11 14  1  0  0  0  0
 11  2  2  0  0  0  0
 12 16  1  0  0  0  0
 12  7  1  1  0  0  0
 13  9  1  0  0  0  0
 13  5  1  0  0  0  0
 14  3  2  0  0  0  0
 16  4  1  1  0  0  0
 17 18  2  0  0  0  0
 17  6  1  0  0  0  0
 20 21  2  0  0  0  0
 21 22  1  0  0  0  0
 22 19  1  0  0  0  0
 23 21  1  0  0  0  0
 23 24  1  0  0  0  0
 24 32  1  0  0  0  0
 25 29  1  0  0  0  0
 28 30  1  0  0  0  0
 28 32  1  0  0  0  0
 29 31  1  0  0  0  0
 30 25  1  0  0  0  0
 31 27  1  6  0  0  0
 31 26  1  0  0  0  0
 32 31  1  0  0  0  0
 33  9  1  0  0  0  0
 34 33  1  0  0  0  0
 36 38  2  0  0  0  0
 36 37  1  0  0  0  0
 37 40  1  0  0  0  0
 38 39  1  0  0  0  0
 39 35  1  0  0  0  0
 40 35  2  0  0  0  0
 40 34  1  0  0  0  0
M  END
>  <MODEL>
7

>  <REMARK>
 VINA RESULT:      -7.4      2.897      9.324
  Name = 
  8 active torsions:
  status: ('A' for Active; 'I' for Inactive)
    1  A    between atoms: C_3  and  C_14
    2  A    between atoms: C_3  and  N_38
    3  A    between atoms: O_4  and  C_16
    4  A    between atoms: O_4  and  N_37
    5  A    between atoms: C_12  and  C_33
    6  A    between atoms: C_12  and  C_40
    7  A    between atoms: C_16  and  C_21
    8  A    between atoms: C_22  and  C_33
                            x       y       z     vdW  Elec       q    Type
                         _______ _______ _______ _____ _____    ______ ____

>  <TORSDO>
F 8

$$$$
=
 OpenBabel10232412493D

 40 44  0  0  1  0  0  0  0  0999 V2000
  189.4860  176.3460  142.4710 F   0  0  0  0  0  0  0  0  0  0  0  0
  187.8480  179.3820  136.5220 C   0  0  0  0  0  3  0  0  0  0  0  0
  187.9260  176.7660  135.6670 N   0  0  0  0  0  0  0  0  0  0  0  0
  188.6650  178.7890  138.7240 N   0  0  0  0  0  2  0  0  0  0  0  0
  187.9220  178.7910  141.0300 C   0  0  1  0  0  3  0  0  0  0  0  0
  188.9890  175.9630  137.6910 C   0  0  0  0  0  0  0  0  0  0  0  0
  190.2760  176.1440  139.8710 C   0  0  0  0  0  2  0  0  0  0  0  0
  187.4110  179.0540  135.2420 C   0  0  0  0  0  3  0  0  0  0  0  0
  189.8520  177.5720  141.9310 C   0  0  1  0  0  0  0  0  0  0  0  0
  187.4440  177.7230  134.8330 C   0  0  0  0  0  3  0  0  0  0  0  0
  188.3170  178.3920  137.3870 C   0  0  0  0  0  0  0  0  0  0  0  0
  189.8980  177.5260  140.4060 C   0  0  2  0  0  3  0  0  0  0  0  0
  188.7750  178.5820  142.2780 C   0  0  0  0  0  2  0  0  0  0  0  0
  188.3810  177.0550  136.9160 C   0  0  0  0  0  0  0  0  0  0  0  0
  188.4000  174.8520  137.7610 O   0  0  0  0  0  0  0  0  0  0  0  0
  188.5270  177.9600  139.9160 C   0  0  2  0  0  3  0  0  0  0  0  0
  190.2740  176.1390  138.3810 C   0  0  0  0  0  0  0  0  0  0  0  0
  191.3210  176.6350  137.7290 C   0  0  0  0  0  2  0  0  0  0  0  0
  186.4860  178.3500  141.2780 C   0  0  0  0  0  2  0  0  0  0  0  0
  183.6650  178.6930  141.4390 O   0  0  0  0  0  0  0  0  0  0  0  0
  184.2290  178.9790  140.3480 C   0  0  0  0  0  0  0  0  0  0  0  0
  185.6360  178.8070  140.1900 N   0  0  0  0  0  2  0  0  0  0  0  0
  183.4120  179.4570  139.2000 C   0  0  0  0  0  2  0  0  0  0  0  0
  182.4970  178.4640  138.8270 O   0  0  0  0  0  0  0  0  0  0  0  0
  184.4660  175.3860  137.3900 O   0  0  0  0  0  0  0  0  0  0  0  0
  182.3010  175.7900  139.9170 N   0  0  0  0  0  1  0  0  0  0  0  0
  181.0690  176.3360  137.9000 C   0  0  0  0  0  1  0  0  0  0  0  0
  183.6890  177.6630  137.0510 C   0  0  0  0  0  2  0  0  0  0  0  0
  183.1640  175.0160  137.7820 C   0  0  0  0  0  2  0  0  0  0  0  0
  184.3220  176.4060  136.4330 C   0  0  0  0  0  2  0  0  0  0  0  0
  182.4560  176.1650  138.5200 C   0  0  2  0  0  0  0  0  0  0  0  0
  183.2590  177.4090  138.4340 N   0  0  0  0  0  0  0  0  0  0  0  0
  191.1770  178.0550  142.5230 C   0  0  0  0  0  2  0  0  0  0  0  0
  191.0140  178.8840  143.7970 C   0  0  0  0  0  2  0  0  0  0  0  0
  191.7510  177.2920  145.4580 N   0  0  0  0  0  0  0  0  0  0  0  0
  189.3380  177.3300  146.8840 C   0  0  0  0  0  3  0  0  0  0  0  0
  189.5090  178.0320  145.6520 N   0  0  0  0  0  0  0  0  0  0  0  0
  190.3230  176.5690  147.3610 C   0  0  0  0  0  3  0  0  0  0  0  0
  191.6090  176.3760  146.5980 C   0  0  0  0  0  3  0  0  0  0  0  0
  190.7780  178.0140  144.9890 C   0  0  0  0  0  0  0  0  0  0  0  0
  2 11  1  0  0  0  0
  3 14  1  0  0  0  0
  5 19  1  1  0  0  0
  5 13  1  0  0  0  0
  6 15  2  0  0  0  0
  6 17  1  0  0  0  0
  8  2  2  0  0  0  0
  9 13  1  0  0  0  0
  9  1  1  1  0  0  0
  9 33  1  0  0  0  0
 10  8  1  0  0  0  0
 10  3  2  0  0  0  0
 11  4  1  0  0  0  0
 12  7  1  1  0  0  0
 12  9  1  0  0  0  0
 14 11  2  0  0  0  0
 14  6  1  0  0  0  0
 16  4  1  6  0  0  0
 16 12  1  0  0  0  0
 16  5  1  0  0  0  0
 17  7  1  0  0  0  0
 18 17  2  0  0  0  0
 21 20  2  0  0  0  0
 22 21  1  0  0  0  0
 22 19  1  0  0  0  0
 23 21  1  0  0  0  0
 24 23  1  0  0  0  0
 25 29  1  0  0  0  0
 28 32  1  0  0  0  0
 29 31  1  0  0  0  0
 30 28  1  0  0  0  0
 30 25  1  0  0  0  0
 31 27  1  6  0  0  0
 31 26  1  0  0  0  0
 32 31  1  0  0  0  0
 32 24  1  0  0  0  0
 33 34  1  0  0  0  0
 34 40  1  0  0  0  0
 35 39  1  0  0  0  0
 36 38  1  0  0  0  0
 37 36  2  0  0  0  0
 39 38  2  0  0  0  0
 40 35  2  0  0  0  0
 40 37  1  0  0  0  0
M  END
>  <MODEL>
8

>  <REMARK>
 VINA RESULT:      -7.3      2.822      6.852
  Name = 
  8 active torsions:
  status: ('A' for Active; 'I' for Inactive)
    1  A    between atoms: C_3  and  C_14
    2  A    between atoms: C_3  and  N_38
    3  A    between atoms: O_4  and  C_16
    4  A    between atoms: O_4  and  N_37
    5  A    between atoms: C_12  and  C_33
    6  A    between atoms: C_12  and  C_40
    7  A    between atoms: C_16  and  C_21
    8  A    between atoms: C_22  and  C_33
                            x       y       z     vdW  Elec       q    Type
                         _______ _______ _______ _____ _____    ______ ____

>  <TORSDO>
F 8

$$$$
=
 OpenBabel10232412493D

 40 44  0  0  1  0  0  0  0  0999 V2000
  189.4280  176.3260  142.4100 F   0  0  0  0  0  0  0  0  0  0  0  0
  187.5520  179.2930  136.4970 C   0  0  0  0  0  3  0  0  0  0  0  0
  187.7340  176.6840  135.6350 N   0  0  0  0  0  0  0  0  0  0  0  0
  188.4330  178.7340  138.6830 N   0  0  0  0  0  2  0  0  0  0  0  0
  187.7300  178.7000  141.0020 C   0  0  1  0  0  3  0  0  0  0  0  0
  188.8660  175.9270  137.6390 C   0  0  0  0  0  0  0  0  0  0  0  0
  190.1810  176.1640  139.7970 C   0  0  0  0  0  2  0  0  0  0  0  0
  187.1080  178.9480  135.2240 C   0  0  0  0  0  3  0  0  0  0  0  0
  189.7280  177.5690  141.8670 C   0  0  1  0  0  0  0  0  0  0  0  0
  187.1950  177.6190  134.8110 C   0  0  0  0  0  3  0  0  0  0  0  0
  188.0800  178.3250  137.3520 C   0  0  0  0  0  0  0  0  0  0  0  0
  189.7500  177.5260  140.3410 C   0  0  2  0  0  3  0  0  0  0  0  0
  188.6120  178.5290  142.2350 C   0  0  0  0  0  2  0  0  0  0  0  0
  188.1960  176.9930  136.8770 C   0  0  0  0  0  0  0  0  0  0  0  0
  188.3290  174.7910  137.7160 O   0  0  0  0  0  0  0  0  0  0  0  0
  188.3530  177.8980  139.8760 C   0  0  2  0  0  3  0  0  0  0  0  0
  190.1530  176.1610  138.3070 C   0  0  0  0  0  0  0  0  0  0  0  0
  191.1650  176.7040  137.6380 C   0  0  0  0  0  2  0  0  0  0  0  0
  186.3200  178.1940  141.2730 C   0  0  0  0  0  2  0  0  0  0  0  0
  185.0000  177.7190  138.7960 O   0  0  0  0  0  0  0  0  0  0  0  0
  184.7090  178.7740  139.4220 C   0  0  0  0  0  0  0  0  0  0  0  0
  185.3500  179.0860  140.6580 N   0  0  0  0  0  2  0  0  0  0  0  0
  183.7180  179.7230  138.8460 C   0  0  0  0  0  2  0  0  0  0  0  0
  182.6940  179.9540  139.7740 O   0  0  0  0  0  0  0  0  0  0  0  0
  180.5160  176.6980  140.0260 O   0  0  0  0  0  0  0  0  0  0  0  0
  181.8440  178.7890  142.2840 N   0  0  0  0  0  1  0  0  0  0  0  0
  180.2670  180.1150  141.0040 C   0  0  0  0  0  1  0  0  0  0  0  0
  181.3420  178.5100  138.6330 C   0  0  0  0  0  2  0  0  0  0  0  0
  180.1310  177.6410  140.9990 C   0  0  0  0  0  2  0  0  0  0  0  0
  180.3700  177.3280  138.7770 C   0  0  0  0  0  2  0  0  0  0  0  0
  181.1010  178.8340  141.0340 C   0  0  2  0  0  0  0  0  0  0  0  0
  182.0510  178.7640  139.8970 N   0  0  0  0  0  0  0  0  0  0  0  0
  191.0400  178.1100  142.4370 C   0  0  0  0  0  2  0  0  0  0  0  0
  190.8620  178.9250  143.7180 C   0  0  0  0  0  2  0  0  0  0  0  0
  191.6890  177.3240  145.3270 N   0  0  0  0  0  0  0  0  0  0  0  0
  189.3420  177.3220  146.8600 C   0  0  0  0  0  3  0  0  0  0  0  0
  189.4500  178.0380  145.6290 N   0  0  0  0  0  0  0  0  0  0  0  0
  190.3540  176.5670  147.2840 C   0  0  0  0  0  3  0  0  0  0  0  0
  191.6070  176.3950  146.4620 C   0  0  0  0  0  3  0  0  0  0  0  0
  190.6880  178.0410  144.9100 C   0  0  0  0  0  0  0  0  0  0  0  0
  2 11  1  0  0  0  0
  3 14  1  0  0  0  0
  5 19  1  1  0  0  0
  5 13  1  0  0  0  0
  6 15  2  0  0  0  0
  6 17  1  0  0  0  0
  8  2  2  0  0  0  0
  9 13  1  0  0  0  0
  9  1  1  1  0  0  0
  9 33  1  0  0  0  0
 10  8  1  0  0  0  0
 10  3  2  0  0  0  0
 11  4  1  0  0  0  0
 12  7  1  1  0  0  0
 12  9  1  0  0  0  0
 14 11  2  0  0  0  0
 14  6  1  0  0  0  0
 16  4  1  6  0  0  0
 16 12  1  0  0  0  0
 16  5  1  0  0  0  0
 17  7  1  0  0  0  0
 18 17  2  0  0  0  0
 20 21  2  0  0  0  0
 21 22  1  0  0  0  0
 22 19  1  0  0  0  0
 23 21  1  0  0  0  0
 23 24  1  0  0  0  0
 24 32  1  0  0  0  0
 25 29  1  0  0  0  0
 28 30  1  0  0  0  0
 28 32  1  0  0  0  0
 29 31  1  0  0  0  0
 30 25  1  0  0  0  0
 31 27  1  6  0  0  0
 31 26  1  0  0  0  0
 32 31  1  0  0  0  0
 33 34  1  0  0  0  0
 34 40  1  0  0  0  0
 35 39  1  0  0  0  0
 36 38  1  0  0  0  0
 37 36  2  0  0  0  0
 39 38  2  0  0  0  0
 40 35  2  0  0  0  0
 40 37  1  0  0  0  0
M  END
>  <MODEL>
9

>  <REMARK>
 VINA RESULT:      -7.3      2.509      7.519
  Name = 
  8 active torsions:
  status: ('A' for Active; 'I' for Inactive)
    1  A    between atoms: C_3  and  C_14
    2  A    between atoms: C_3  and  N_38
    3  A    between atoms: O_4  and  C_16
    4  A    between atoms: O_4  and  N_37
    5  A    between atoms: C_12  and  C_33
    6  A    between atoms: C_12  and  C_40
    7  A    between atoms: C_16  and  C_21
    8  A    between atoms: C_22  and  C_33
                            x       y       z     vdW  Elec       q    Type
                         _______ _______ _______ _____ _____    ______ ____

>  <TORSDO>
F 8

$$$$
