=
 OpenBabel10232409243D

 52 55  0  0  1  0  0  0  0  0999 V2000
  189.2680  177.5060  138.8770 C   0  0  2  0  0  3  0  0  0  0  0  0
  188.6440  178.5970  141.0720 C   0  0  2  0  0  3  0  0  0  0  0  0
  190.4110  176.7990  140.9930 C   0  0  0  0  0  2  0  0  0  0  0  0
  188.7910  178.7880  139.5610 C   0  0  0  0  0  2  0  0  0  0  0  0
  189.9610  178.0890  141.6730 C   0  0  0  0  0  2  0  0  0  0  0  0
  190.5920  177.0480  139.4990 C   0  0  1  0  0  3  0  0  0  0  0  0
  188.4070  178.6350  137.1840 C   0  0  0  0  0  1  0  0  0  0  0  0
  189.4360  177.7500  137.5130 O   0  0  0  0  0  0  0  0  0  0  0  0
  187.5500  177.6780  141.3550 N   0  0  0  0  0  2  0  0  0  0  0  0
  185.2000  179.5720  143.6510 C   0  0  0  0  0  3  0  0  0  0  0  0
  186.9770  178.0470  142.6390 C   0  0  1  0  0  3  0  0  0  0  0  0
  185.6500  178.8080  142.4400 C   0  0  1  0  0  3  0  0  0  0  0  0
  187.5760  177.0140  144.8350 C   0  0  0  0  0  2  0  0  0  0  0  0
  186.8400  176.8020  143.5210 C   0  0  0  0  0  2  0  0  0  0  0  0
  185.4730  179.1100  144.8410 C   0  0  0  0  0  0  0  0  0  0  0  0
  185.8230  178.5290  145.9560 C   0  0  0  0  0  0  0  0  0  0  0  0
  186.6590  177.3670  145.9250 N   0  0  0  0  0  2  0  0  0  0  0  0
  185.1970  178.9060  147.1830 N   0  0  0  0  0  1  0  0  0  0  0  0
  184.5390  177.9260  141.8800 C   0  0  0  0  0  2  0  0  0  0  0  0
  183.3860  178.7890  141.3850 C   0  0  0  0  0  2  0  0  0  0  0  0
  183.4280  178.9240  139.8720 C   0  0  0  0  0  2  0  0  0  0  0  0
  182.7210  176.7850  138.7560 C   0  0  0  0  0  0  0  0  0  0  0  0
  180.7840  175.6930  139.8910 C   0  0  0  0  0  2  0  0  0  0  0  0
  182.2730  178.1560  139.2380 C   0  0  1  0  0  3  0  0  0  0  0  0
  180.0840  177.0430  139.8240 C   0  0  0  0  0  2  0  0  0  0  0  0
  182.0010  175.6760  139.0070 C   0  0  0  0  0  3  0  0  0  0  0  0
  181.0840  178.1240  140.2100 C   0  0  0  0  0  2  0  0  0  0  0  0
  184.3270  175.3510  137.7550 O   0  0  0  0  0  1  0  0  0  0  0  0
  183.9030  176.6810  137.8400 C   0  0  0  0  0  2  0  0  0  0  0  0
  191.0430  175.8800  138.8750 O   0  0  0  0  0  0  0  0  0  0  0  0
  192.3510  176.1650  138.4760 C   0  0  0  0  0  2  0  0  0  0  0  0
  192.4820  176.0190  136.9730 C   0  0  0  0  0  2  0  0  0  0  0  0
  193.8600  176.4710  136.5390 C   0  0  0  0  0  2  0  0  0  0  0  0
  194.4510  175.4530  135.5840 C   0  0  0  0  0  2  0  0  0  0  0  0
  194.9030  174.2750  136.3180 N   0  0  0  0  0  0  0  0  0  0  0  0
  198.4700  173.0940  135.9450 O   0  0  0  0  0  0  0  0  0  0  0  0
  198.6860  173.7380  138.1690 F   0  0  0  0  0  0  0  0  0  0  0  0
  199.5610  175.0010  136.5320 O   0  0  0  0  0  1  0  0  0  0  0  0
  197.2390  174.9500  136.7790 N   0  0  0  0  0  0  0  0  0  0  0  0
  197.2410  176.1630  136.1700 O   0  0  0  0  0  1  0  0  0  0  0  0
  197.6250  172.0700  136.4120 C   0  0  1  0  0  3  0  0  0  0  0  0
  194.6820  172.9370  135.7660 C   0  0  2  0  0  3  0  0  0  0  0  0
  195.8060  172.6460  134.3590 S   0  0  0  0  0  0  0  0  0  0  0  0
  196.8510  171.4440  135.2540 C   0  0  0  0  0  2  0  0  0  0  0  0
  198.4550  170.9870  137.0800 C   0  0  0  0  0  1  0  0  0  0  0  0
  198.4850  174.1760  136.8650 C   0  0  1  0  0  0  0  0  0  0  0  0
  195.9120  173.8860  138.3770 O   0  0  0  0  0  0  0  0  0  0  0  0
  195.9940  174.4050  137.2300 C   0  0  0  0  0  0  0  0  0  0  0  0
  193.2180  172.6430  135.4090 C   0  0  2  0  0  3  0  0  0  0  0  0
  192.3960  172.6780  136.5380 O   0  0  0  0  0  1  0  0  0  0  0  0
  193.0680  171.3280  134.7110 C   0  0  0  0  0  3  0  0  0  0  0  0
  193.0390  170.2880  135.3500 O   0  0  0  0  0  0  0  0  0  0  0  0
  1  8  1  6  0  0  0
  1  6  1  0  0  0  0
  1  4  1  0  0  0  0
  2  9  1  6  0  0  0
  2  5  1  0  0  0  0
  3  5  1  0  0  0  0
  4  2  1  0  0  0  0
  6 30  1  6  0  0  0
  6  3  1  0  0  0  0
  7  8  1  0  0  0  0
 10 15  2  0  0  0  0
 11  9  1  6  0  0  0
 11 14  1  0  0  0  0
 12 19  1  1  0  0  0
 12 11  1  0  0  0  0
 12 10  1  0  0  0  0
 13 17  1  0  0  0  0
 14 13  1  0  0  0  0
 15 16  2  0  0  0  0
 16 18  1  0  0  0  0
 17 16  1  0  0  0  0
 20 19  1  0  0  0  0
 21 20  1  0  0  0  0
 22 26  2  0  0  0  0
 22 24  1  0  0  0  0
 24 21  1  1  0  0  0
 24 27  1  0  0  0  0
 25 23  1  0  0  0  0
 25 27  1  0  0  0  0
 26 23  1  0  0  0  0
 28 29  1  0  0  0  0
 29 22  1  0  0  0  0
 31 30  1  0  0  0  0
 32 31  1  0  0  0  0
 33 32  1  0  0  0  0
 34 35  1  0  0  0  0
 34 33  1  0  0  0  0
 35 48  1  0  0  0  0
 36 41  1  0  0  0  0
 36 46  1  0  0  0  0
 39 46  1  0  0  0  0
 39 48  1  0  0  0  0
 40 39  1  0  0  0  0
 41 45  1  6  0  0  0
 42 49  1  6  0  0  0
 42 35  1  0  0  0  0
 43 44  1  0  0  0  0
 43 42  1  0  0  0  0
 44 41  1  0  0  0  0
 46 38  1  6  0  0  0
 46 37  1  0  0  0  0
 48 47  2  0  0  0  0
 49 50  1  1  0  0  0
 51 52  2  0  0  0  0
 51 49  1  0  0  0  0
M  END
>  <MODEL>
1

>  <REMARK>
 VINA RESULT:      -6.8      0.000      0.000
  Name = 
  16 active torsions:
  status: ('A' for Active; 'I' for Inactive)
    1  A    between atoms: C_1  and  O_7
    2  A    between atoms: C_1  and  C_23
    3  A    between atoms: N_2  and  C_49
    4  A    between atoms: C_4  and  O_17
    5  A    between atoms: C_5  and  C_38
    6  A    between atoms: C_6  and  C_27
    7  A    between atoms: C_6  and  C_34
    8  A    between atoms: O_7  and  C_41
    9  A    between atoms: C_8  and  N_15
   10  A    between atoms: C_12  and  N_15
   11  A    between atoms: C_19  and  C_27
   12  A    between atoms: C_21  and  C_34
   13  A    between atoms: C_23  and  C_29
   14  A    between atoms: C_26  and  C_35
   15  A    between atoms: C_26  and  C_36
   16  A    between atoms: C_29  and  C_49
                            x       y       z     vdW  Elec       q    Type
                         _______ _______ _______ _____ _____    ______ ____

>  <TORSDO>
F 16

$$$$
=
 OpenBabel10232409243D

 52 55  0  0  1  0  0  0  0  0999 V2000
  189.3590  175.6550  137.1280 C   0  0  2  0  0  3  0  0  0  0  0  0
  187.5210  177.3910  137.0620 C   0  0  2  0  0  3  0  0  0  0  0  0
  189.3450  177.5250  138.7970 C   0  0  0  0  0  2  0  0  0  0  0  0
  188.3920  176.4390  136.2400 C   0  0  0  0  0  2  0  0  0  0  0  0
  188.4010  178.3230  137.9030 C   0  0  0  0  0  2  0  0  0  0  0  0
  190.2270  176.6280  137.9340 C   0  0  1  0  0  3  0  0  0  0  0  0
  190.5680  175.6760  135.2790 C   0  0  0  0  0  1  0  0  0  0  0  0
  190.1640  174.8440  136.3250 O   0  0  0  0  0  0  0  0  0  0  0  0
  186.6090  176.6300  137.9050 N   0  0  0  0  0  2  0  0  0  0  0  0
  182.8930  177.3240  138.2190 C   0  0  0  0  0  3  0  0  0  0  0  0
  185.2600  176.8340  137.4020 C   0  0  1  0  0  3  0  0  0  0  0  0
  184.3630  177.4520  138.4950 C   0  0  1  0  0  3  0  0  0  0  0  0
  184.6170  176.9050  134.9880 C   0  0  0  0  0  2  0  0  0  0  0  0
  185.3080  177.6590  136.1130 C   0  0  0  0  0  2  0  0  0  0  0  0
  182.4660  177.3460  136.9860 C   0  0  0  0  0  0  0  0  0  0  0  0
  182.1930  177.3770  135.7100 C   0  0  0  0  0  0  0  0  0  0  0  0
  183.2560  177.3980  134.7520 N   0  0  0  0  0  2  0  0  0  0  0  0
  180.8540  177.6200  135.2740 N   0  0  0  0  0  1  0  0  0  0  0  0
  184.7530  178.8850  138.8410 C   0  0  0  0  0  2  0  0  0  0  0  0
  184.3850  179.1940  140.2860 C   0  0  0  0  0  2  0  0  0  0  0  0
  185.5680  178.9410  141.2060 C   0  0  0  0  0  2  0  0  0  0  0  0
  186.2780  177.9810  143.4180 C   0  0  0  0  0  0  0  0  0  0  0  0
  184.9750  178.9010  145.3380 C   0  0  0  0  0  2  0  0  0  0  0  0
  185.1130  178.2190  142.4700 C   0  0  1  0  0  3  0  0  0  0  0  0
  183.7190  178.5640  144.5470 C   0  0  0  0  0  2  0  0  0  0  0  0
  186.1820  178.2370  144.7360 C   0  0  0  0  0  3  0  0  0  0  0  0
  183.9360  178.9800  143.0990 C   0  0  0  0  0  2  0  0  0  0  0  0
  187.8110  176.1940  143.7220 O   0  0  0  0  0  1  0  0  0  0  0  0
  187.5070  177.2900  142.9080 C   0  0  0  0  0  2  0  0  0  0  0  0
  191.1230  175.9220  138.7450 O   0  0  0  0  0  0  0  0  0  0  0  0
  192.3540  176.5550  138.5590 C   0  0  0  0  0  2  0  0  0  0  0  0
  193.3510  175.5890  137.9490 C   0  0  0  0  0  2  0  0  0  0  0  0
  194.1830  176.3090  136.9090 C   0  0  0  0  0  2  0  0  0  0  0  0
  194.7000  175.3120  135.8930 C   0  0  0  0  0  2  0  0  0  0  0  0
  195.2580  174.1440  136.5690 N   0  0  0  0  0  0  0  0  0  0  0  0
  198.8140  173.0920  135.8590 O   0  0  0  0  0  0  0  0  0  0  0  0
  199.2110  173.7260  138.0610 F   0  0  0  0  0  0  0  0  0  0  0  0
  199.8880  175.0320  136.3650 O   0  0  0  0  0  1  0  0  0  0  0  0
  197.6020  174.8980  136.8230 N   0  0  0  0  0  0  0  0  0  0  0  0
  197.5060  176.1140  136.2290 O   0  0  0  0  0  1  0  0  0  0  0  0
  198.0510  172.0350  136.3900 C   0  0  1  0  0  3  0  0  0  0  0  0
  195.0340  172.8030  136.0250 C   0  0  2  0  0  3  0  0  0  0  0  0
  196.0330  172.5630  134.5180 S   0  0  0  0  0  0  0  0  0  0  0  0
  197.1960  171.3920  135.3010 C   0  0  0  0  0  2  0  0  0  0  0  0
  198.9760  170.9770  136.9670 C   0  0  0  0  0  1  0  0  0  0  0  0
  198.8770  174.1660  136.7860 C   0  0  1  0  0  0  0  0  0  0  0  0
  196.4640  173.7740  138.5230 O   0  0  0  0  0  0  0  0  0  0  0  0
  196.4230  174.3050  137.3800 C   0  0  0  0  0  0  0  0  0  0  0  0
  193.5530  172.4610  135.8000 C   0  0  2  0  0  3  0  0  0  0  0  0
  192.7700  172.8190  136.9000 O   0  0  0  0  0  1  0  0  0  0  0  0
  193.3590  171.0110  135.4870 C   0  0  0  0  0  3  0  0  0  0  0  0
  193.7380  170.1530  136.2680 O   0  0  0  0  0  0  0  0  0  0  0  0
  1  8  1  6  0  0  0
  1  6  1  0  0  0  0
  2  5  1  0  0  0  0
  2  9  1  1  0  0  0
  4  2  1  0  0  0  0
  4  1  1  0  0  0  0
  5  3  1  0  0  0  0
  6 30  1  1  0  0  0
  6  3  1  0  0  0  0
  7  8  1  0  0  0  0
 10 12  1  0  0  0  0
 11  9  1  1  0  0  0
 11 12  1  0  0  0  0
 12 19  1  6  0  0  0
 13 14  1  0  0  0  0
 14 11  1  0  0  0  0
 15 10  2  0  0  0  0
 16 15  2  0  0  0  0
 17 13  1  0  0  0  0
 17 16  1  0  0  0  0
 18 16  1  0  0  0  0
 19 20  1  0  0  0  0
 20 21  1  0  0  0  0
 22 26  2  0  0  0  0
 24 21  1  6  0  0  0
 24 27  1  0  0  0  0
 24 22  1  0  0  0  0
 25 23  1  0  0  0  0
 26 23  1  0  0  0  0
 27 25  1  0  0  0  0
 29 22  1  0  0  0  0
 29 28  1  0  0  0  0
 31 30  1  0  0  0  0
 32 31  1  0  0  0  0
 33 32  1  0  0  0  0
 34 35  1  0  0  0  0
 34 33  1  0  0  0  0
 35 48  1  0  0  0  0
 36 41  1  0  0  0  0
 36 46  1  0  0  0  0
 39 48  1  0  0  0  0
 40 39  1  0  0  0  0
 41 45  1  6  0  0  0
 42 49  1  6  0  0  0
 42 35  1  0  0  0  0
 43 44  1  0  0  0  0
 43 42  1  0  0  0  0
 44 41  1  0  0  0  0
 46 38  1  6  0  0  0
 46 39  1  0  0  0  0
 46 37  1  0  0  0  0
 48 47  2  0  0  0  0
 49 50  1  1  0  0  0
 51 49  1  0  0  0  0
 51 52  2  0  0  0  0
M  END
>  <MODEL>
2

>  <REMARK>
 VINA RESULT:      -6.4      2.406      4.791
  Name = 
  16 active torsions:
  status: ('A' for Active; 'I' for Inactive)
    1  A    between atoms: C_1  and  O_7
    2  A    between atoms: C_1  and  C_23
    3  A    between atoms: N_2  and  C_49
    4  A    between atoms: C_4  and  O_17
    5  A    between atoms: C_5  and  C_38
    6  A    between atoms: C_6  and  C_27
    7  A    between atoms: C_6  and  C_34
    8  A    between atoms: O_7  and  C_41
    9  A    between atoms: C_8  and  N_15
   10  A    between atoms: C_12  and  N_15
   11  A    between atoms: C_19  and  C_27
   12  A    between atoms: C_21  and  C_34
   13  A    between atoms: C_23  and  C_29
   14  A    between atoms: C_26  and  C_35
   15  A    between atoms: C_26  and  C_36
   16  A    between atoms: C_29  and  C_49
                            x       y       z     vdW  Elec       q    Type
                         _______ _______ _______ _____ _____    ______ ____

>  <TORSDO>
F 16

$$$$
=
 OpenBabel10232409243D

 52 55  0  0  1  0  0  0  0  0999 V2000
  191.0180  177.5470  141.8280 C   0  0  2  0  0  3  0  0  0  0  0  0
  188.5500  177.2410  141.3670 C   0  0  2  0  0  3  0  0  0  0  0  0
  190.1630  177.6620  139.4750 C   0  0  0  0  0  2  0  0  0  0  0  0
  189.7270  176.8540  142.2650 C   0  0  0  0  0  2  0  0  0  0  0  0
  188.8840  176.9470  139.8990 C   0  0  0  0  0  2  0  0  0  0  0  0
  191.3180  177.2100  140.3630 C   0  0  1  0  0  3  0  0  0  0  0  0
  191.4930  176.1570  143.4780 C   0  0  0  0  0  1  0  0  0  0  0  0
  192.0670  177.1190  142.6450 O   0  0  0  0  0  0  0  0  0  0  0  0
  188.2190  178.6470  141.5570 N   0  0  0  0  0  2  0  0  0  0  0  0
  184.9250  179.6910  143.1190 C   0  0  0  0  0  3  0  0  0  0  0  0
  187.2370  178.7350  142.6260 C   0  0  1  0  0  3  0  0  0  0  0  0
  185.8710  179.1850  142.0690 C   0  0  1  0  0  3  0  0  0  0  0  0
  187.4420  177.6400  144.8630 C   0  0  0  0  0  2  0  0  0  0  0  0
  187.1790  177.4050  143.3840 C   0  0  0  0  0  2  0  0  0  0  0  0
  184.9630  179.1800  144.3190 C   0  0  0  0  0  0  0  0  0  0  0  0
  185.1240  178.5810  145.4670 C   0  0  0  0  0  0  0  0  0  0  0  0
  186.2000  177.6540  145.6450 N   0  0  0  0  0  2  0  0  0  0  0  0
  184.1070  178.6700  146.4670 N   0  0  0  0  0  1  0  0  0  0  0  0
  185.2190  178.1360  141.1750 C   0  0  0  0  0  2  0  0  0  0  0  0
  183.9690  178.7080  140.5220 C   0  0  0  0  0  2  0  0  0  0  0  0
  184.2150  178.9930  139.0500 C   0  0  0  0  0  2  0  0  0  0  0  0
  184.1570  177.0960  137.4020 C   0  0  0  0  0  0  0  0  0  0  0  0
  185.9720  177.2400  135.6940 C   0  0  0  0  0  2  0  0  0  0  0  0
  185.0030  177.8540  138.4130 C   0  0  1  0  0  3  0  0  0  0  0  0
  186.9420  177.4260  136.8520 C   0  0  0  0  0  2  0  0  0  0  0  0
  184.6320  176.7660  136.1860 C   0  0  0  0  0  3  0  0  0  0  0  0
  186.3230  178.3990  137.8460 C   0  0  0  0  0  2  0  0  0  0  0  0
  182.9600  175.8060  138.9950 O   0  0  0  0  0  1  0  0  0  0  0  0
  182.8240  176.5560  137.8220 C   0  0  0  0  0  2  0  0  0  0  0  0
  192.5020  177.8310  139.9540 O   0  0  0  0  0  0  0  0  0  0  0  0
  193.2350  176.8280  139.3150 C   0  0  0  0  0  2  0  0  0  0  0  0
  192.6790  176.5790  137.9270 C   0  0  0  0  0  2  0  0  0  0  0  0
  193.8120  176.5730  136.9220 C   0  0  0  0  0  2  0  0  0  0  0  0
  193.6420  175.4040  135.9730 C   0  0  0  0  0  2  0  0  0  0  0  0
  193.5380  174.1560  136.7220 N   0  0  0  0  0  0  0  0  0  0  0  0
  195.6570  171.1930  135.7270 O   0  0  0  0  0  0  0  0  0  0  0  0
  196.7220  171.5480  137.7640 F   0  0  0  0  0  0  0  0  0  0  0  0
  197.7170  172.1490  135.8430 O   0  0  0  0  0  1  0  0  0  0  0  0
  195.8900  173.3980  136.5890 N   0  0  0  0  0  0  0  0  0  0  0  0
  196.4070  174.4180  135.8580 O   0  0  0  0  0  1  0  0  0  0  0  0
  194.5330  170.8040  136.4810 C   0  0  1  0  0  3  0  0  0  0  0  0
  192.4940  173.1840  136.3890 C   0  0  2  0  0  3  0  0  0  0  0  0
  192.8930  172.3520  134.8150 S   0  0  0  0  0  0  0  0  0  0  0  0
  193.2890  170.7480  135.5960 C   0  0  0  0  0  2  0  0  0  0  0  0
  194.7670  169.4250  137.0730 C   0  0  0  0  0  1  0  0  0  0  0  0
  196.4850  172.0570  136.4920 C   0  0  1  0  0  0  0  0  0  0  0  0
  194.6320  173.2160  138.5460 O   0  0  0  0  0  0  0  0  0  0  0  0
  194.7040  173.6300  137.3570 C   0  0  0  0  0  0  0  0  0  0  0  0
  191.0740  173.7690  136.3910 C   0  0  2  0  0  3  0  0  0  0  0  0
  190.5790  173.9110  137.6900 O   0  0  0  0  0  1  0  0  0  0  0  0
  190.1310  172.9420  135.5750 C   0  0  0  0  0  3  0  0  0  0  0  0
  188.9940  172.7310  135.9670 O   0  0  0  0  0  0  0  0  0  0  0  0
  1  4  1  0  0  0  0
  1  8  1  1  0  0  0
  2  9  1  6  0  0  0
  2  4  1  0  0  0  0
  3  5  1  0  0  0  0
  3  6  1  0  0  0  0
  5  2  1  0  0  0  0
  6 30  1  6  0  0  0
  6  1  1  0  0  0  0
  8  7  1  0  0  0  0
 10 15  2  0  0  0  0
 11  9  1  6  0  0  0
 11 14  1  0  0  0  0
 12 19  1  1  0  0  0
 12 11  1  0  0  0  0
 12 10  1  0  0  0  0
 13 17  1  0  0  0  0
 14 13  1  0  0  0  0
 15 16  2  0  0  0  0
 16 17  1  0  0  0  0
 16 18  1  0  0  0  0
 20 19  1  0  0  0  0
 21 20  1  0  0  0  0
 22 29  1  0  0  0  0
 22 24  1  0  0  0  0
 23 26  1  0  0  0  0
 23 25  1  0  0  0  0
 24 21  1  6  0  0  0
 25 27  1  0  0  0  0
 26 22  2  0  0  0  0
 27 24  1  0  0  0  0
 29 28  1  0  0  0  0
 31 30  1  0  0  0  0
 32 31  1  0  0  0  0
 33 32  1  0  0  0  0
 34 35  1  0  0  0  0
 34 33  1  0  0  0  0
 35 48  1  0  0  0  0
 36 41  1  0  0  0  0
 36 46  1  0  0  0  0
 39 48  1  0  0  0  0
 40 39  1  0  0  0  0
 41 45  1  6  0  0  0
 42 49  1  6  0  0  0
 42 35  1  0  0  0  0
 43 44  1  0  0  0  0
 43 42  1  0  0  0  0
 44 41  1  0  0  0  0
 46 38  1  6  0  0  0
 46 39  1  0  0  0  0
 46 37  1  0  0  0  0
 48 47  2  0  0  0  0
 49 50  1  1  0  0  0
 51 52  2  0  0  0  0
 51 49  1  0  0  0  0
M  END
>  <MODEL>
3

>  <REMARK>
 VINA RESULT:      -6.4      1.843      3.016
  Name = 
  16 active torsions:
  status: ('A' for Active; 'I' for Inactive)
    1  A    between atoms: C_1  and  O_7
    2  A    between atoms: C_1  and  C_23
    3  A    between atoms: N_2  and  C_49
    4  A    between atoms: C_4  and  O_17
    5  A    between atoms: C_5  and  C_38
    6  A    between atoms: C_6  and  C_27
    7  A    between atoms: C_6  and  C_34
    8  A    between atoms: O_7  and  C_41
    9  A    between atoms: C_8  and  N_15
   10  A    between atoms: C_12  and  N_15
   11  A    between atoms: C_19  and  C_27
   12  A    between atoms: C_21  and  C_34
   13  A    between atoms: C_23  and  C_29
   14  A    between atoms: C_26  and  C_35
   15  A    between atoms: C_26  and  C_36
   16  A    between atoms: C_29  and  C_49
                            x       y       z     vdW  Elec       q    Type
                         _______ _______ _______ _____ _____    ______ ____

>  <TORSDO>
F 16

$$$$
=
 OpenBabel10232409243D

 52 55  0  0  1  0  0  0  0  0999 V2000
  186.6630  174.9590  136.7600 C   0  0  2  0  0  3  0  0  0  0  0  0
  185.5650  177.1620  137.3420 C   0  0  2  0  0  3  0  0  0  0  0  0
  188.0410  176.8350  137.6870 C   0  0  0  0  0  2  0  0  0  0  0  0
  185.5500  175.9470  136.4110 C   0  0  0  0  0  2  0  0  0  0  0  0
  186.9450  177.8300  137.3190 C   0  0  0  0  0  2  0  0  0  0  0  0
  188.0210  175.6680  136.7060 C   0  0  1  0  0  3  0  0  0  0  0  0
  185.9590  172.8780  136.5180 C   0  0  0  0  0  1  0  0  0  0  0  0
  186.6370  173.9000  135.8500 O   0  0  0  0  0  0  0  0  0  0  0  0
  185.2020  176.7590  138.6940 N   0  0  0  0  0  2  0  0  0  0  0  0
  182.8990  178.5010  141.1530 C   0  0  0  0  0  3  0  0  0  0  0  0
  184.0250  177.5180  139.0860 C   0  0  1  0  0  3  0  0  0  0  0  0
  184.1880  178.0660  140.5190 C   0  0  1  0  0  3  0  0  0  0  0  0
  182.3260  178.4560  137.5110 C   0  0  0  0  0  2  0  0  0  0  0  0
  183.7420  178.6050  138.0450 C   0  0  0  0  0  2  0  0  0  0  0  0
  181.9510  178.9990  140.4060 C   0  0  0  0  0  0  0  0  0  0  0  0
  181.1000  179.4690  139.5350 C   0  0  0  0  0  0  0  0  0  0  0  0
  181.4010  179.4080  138.1370 N   0  0  0  0  0  2  0  0  0  0  0  0
  179.9820  180.2420  139.9760 N   0  0  0  0  0  1  0  0  0  0  0  0
  185.2630  179.1420  140.6230 C   0  0  0  0  0  2  0  0  0  0  0  0
  185.8530  179.1580  142.0270 C   0  0  0  0  0  2  0  0  0  0  0  0
  186.9140  178.0790  142.1750 C   0  0  0  0  0  2  0  0  0  0  0  0
  188.1210  177.2880  144.2340 C   0  0  0  0  0  0  0  0  0  0  0  0
  187.1320  178.1860  146.3430 C   0  0  0  0  0  2  0  0  0  0  0  0
  186.7780  177.3830  143.5250 C   0  0  1  0  0  3  0  0  0  0  0  0
  185.7840  177.7080  145.8230 C   0  0  0  0  0  2  0  0  0  0  0  0
  188.2570  177.5980  145.5360 C   0  0  0  0  0  3  0  0  0  0  0  0
  185.6790  178.0720  144.3490 C   0  0  0  0  0  2  0  0  0  0  0  0
  188.9190  175.4450  142.9680 O   0  0  0  0  0  1  0  0  0  0  0  0
  189.2860  176.6790  143.5140 C   0  0  0  0  0  2  0  0  0  0  0  0
  189.0500  174.7720  137.0140 O   0  0  0  0  0  0  0  0  0  0  0  0
  190.0490  175.5550  137.5970 C   0  0  0  0  0  2  0  0  0  0  0  0
  191.3200  175.4780  136.7730 C   0  0  0  0  0  2  0  0  0  0  0  0
  192.2790  174.4960  137.4140 C   0  0  0  0  0  2  0  0  0  0  0  0
  193.0630  173.7760  136.3360 C   0  0  0  0  0  2  0  0  0  0  0  0
  194.1090  172.9540  136.9360 N   0  0  0  0  0  0  0  0  0  0  0  0
  197.7280  173.6160  136.0840 O   0  0  0  0  0  0  0  0  0  0  0  0
  197.9030  174.2800  138.3050 F   0  0  0  0  0  0  0  0  0  0  0  0
  197.8560  175.8110  136.6640 O   0  0  0  0  0  1  0  0  0  0  0  0
  195.8870  174.6600  137.1710 N   0  0  0  0  0  0  0  0  0  0  0  0
  195.2370  175.7280  136.6440 O   0  0  0  0  0  1  0  0  0  0  0  0
  197.5360  172.3120  136.5780 C   0  0  1  0  0  3  0  0  0  0  0  0
  194.4770  171.6740  136.3290 C   0  0  2  0  0  3  0  0  0  0  0  0
  195.4090  171.9560  134.7870 S   0  0  0  0  0  0  0  0  0  0  0  0
  197.0050  171.3950  135.4780 C   0  0  0  0  0  2  0  0  0  0  0  0
  198.8580  171.7540  137.0760 C   0  0  0  0  0  1  0  0  0  0  0  0
  197.3510  174.5730  137.0630 C   0  0  1  0  0  0  0  0  0  0  0  0
  195.4420  173.0880  138.8370 O   0  0  0  0  0  0  0  0  0  0  0  0
  195.1190  173.5870  137.7250 C   0  0  0  0  0  0  0  0  0  0  0  0
  193.2920  170.7180  136.1230 C   0  0  2  0  0  3  0  0  0  0  0  0
  193.5690  169.4420  136.6160 O   0  0  0  0  0  1  0  0  0  0  0  0
  192.8910  170.6320  134.6840 C   0  0  0  0  0  3  0  0  0  0  0  0
  191.7380  170.8540  134.3490 O   0  0  0  0  0  0  0  0  0  0  0  0
  1  8  1  6  0  0  0
  2  9  1  1  0  0  0
  4  1  1  0  0  0  0
  4  2  1  0  0  0  0
  5  2  1  0  0  0  0
  5  3  1  0  0  0  0
  6  1  1  0  0  0  0
  6 30  1  1  0  0  0
  6  3  1  0  0  0  0
  8  7  1  0  0  0  0
 11  9  1  6  0  0  0
 11 12  1  0  0  0  0
 12 19  1  6  0  0  0
 12 10  1  0  0  0  0
 13 14  1  0  0  0  0
 13 17  1  0  0  0  0
 14 11  1  0  0  0  0
 15 10  2  0  0  0  0
 16 18  1  0  0  0  0
 16 15  2  0  0  0  0
 17 16  1  0  0  0  0
 19 20  1  0  0  0  0
 20 21  1  0  0  0  0
 22 26  2  0  0  0  0
 24 21  1  6  0  0  0
 24 22  1  0  0  0  0
 24 27  1  0  0  0  0
 25 23  1  0  0  0  0
 26 23  1  0  0  0  0
 27 25  1  0  0  0  0
 28 29  1  0  0  0  0
 29 22  1  0  0  0  0
 30 31  1  0  0  0  0
 32 33  1  0  0  0  0
 32 31  1  0  0  0  0
 34 35  1  0  0  0  0
 34 33  1  0  0  0  0
 35 48  1  0  0  0  0
 36 41  1  0  0  0  0
 36 46  1  0  0  0  0
 39 48  1  0  0  0  0
 40 39  1  0  0  0  0
 41 45  1  6  0  0  0
 42 49  1  6  0  0  0
 42 35  1  0  0  0  0
 43 44  1  0  0  0  0
 43 42  1  0  0  0  0
 44 41  1  0  0  0  0
 46 38  1  6  0  0  0
 46 39  1  0  0  0  0
 46 37  1  0  0  0  0
 48 47  2  0  0  0  0
 49 50  1  6  0  0  0
 51 49  1  0  0  0  0
 52 51  2  0  0  0  0
M  END
>  <MODEL>
4

>  <REMARK>
 VINA RESULT:      -6.3      2.434      4.876
  Name = 
  16 active torsions:
  status: ('A' for Active; 'I' for Inactive)
    1  A    between atoms: C_1  and  O_7
    2  A    between atoms: C_1  and  C_23
    3  A    between atoms: N_2  and  C_49
    4  A    between atoms: C_4  and  O_17
    5  A    between atoms: C_5  and  C_38
    6  A    between atoms: C_6  and  C_27
    7  A    between atoms: C_6  and  C_34
    8  A    between atoms: O_7  and  C_41
    9  A    between atoms: C_8  and  N_15
   10  A    between atoms: C_12  and  N_15
   11  A    between atoms: C_19  and  C_27
   12  A    between atoms: C_21  and  C_34
   13  A    between atoms: C_23  and  C_29
   14  A    between atoms: C_26  and  C_35
   15  A    between atoms: C_26  and  C_36
   16  A    between atoms: C_29  and  C_49
                            x       y       z     vdW  Elec       q    Type
                         _______ _______ _______ _____ _____    ______ ____

>  <TORSDO>
F 16

$$$$
=
 OpenBabel10232409243D

 52 55  0  0  1  0  0  0  0  0999 V2000
  188.9970  177.4540  138.9310 C   0  0  2  0  0  3  0  0  0  0  0  0
  188.4120  178.6650  141.0740 C   0  0  2  0  0  3  0  0  0  0  0  0
  190.0880  176.7820  141.0850 C   0  0  0  0  0  2  0  0  0  0  0  0
  188.5790  178.7850  139.5570 C   0  0  0  0  0  2  0  0  0  0  0  0
  189.6970  178.1180  141.7070 C   0  0  0  0  0  2  0  0  0  0  0  0
  190.2930  176.9590  139.5840 C   0  0  1  0  0  3  0  0  0  0  0  0
  188.9520  178.9930  137.3460 C   0  0  0  0  0  1  0  0  0  0  0  0
  189.1870  177.6330  137.5600 O   0  0  0  0  0  0  0  0  0  0  0  0
  187.2720  177.8120  141.3830 N   0  0  0  0  0  2  0  0  0  0  0  0
  184.9730  179.6840  143.7480 C   0  0  0  0  0  3  0  0  0  0  0  0
  186.7600  178.2060  142.6860 C   0  0  1  0  0  3  0  0  0  0  0  0
  185.3850  178.8930  142.5410 C   0  0  1  0  0  3  0  0  0  0  0  0
  187.5430  177.2960  144.8780 C   0  0  0  0  0  2  0  0  0  0  0  0
  186.7410  176.9940  143.6220 C   0  0  0  0  0  2  0  0  0  0  0  0
  185.3410  179.2850  144.9350 C   0  0  0  0  0  0  0  0  0  0  0  0
  185.7880  178.7700  146.0480 C   0  0  0  0  0  0  0  0  0  0  0  0
  186.6790  177.6500  146.0090 N   0  0  0  0  0  2  0  0  0  0  0  0
  185.2190  179.1670  147.2970 N   0  0  0  0  0  1  0  0  0  0  0  0
  184.2890  177.9350  142.0870 C   0  0  0  0  0  2  0  0  0  0  0  0
  183.0210  178.7110  141.7590 C   0  0  0  0  0  2  0  0  0  0  0  0
  182.2960  178.0800  140.5810 C   0  0  0  0  0  2  0  0  0  0  0  0
  183.0010  178.2010  138.1710 C   0  0  0  0  0  0  0  0  0  0  0  0
  181.1780  179.0070  136.6670 C   0  0  0  0  0  2  0  0  0  0  0  0
  182.4150  178.9670  139.3470 C   0  0  1  0  0  3  0  0  0  0  0  0
  180.9990  180.1680  137.6350 C   0  0  0  0  0  2  0  0  0  0  0  0
  182.4640  178.2760  136.9390 C   0  0  0  0  0  3  0  0  0  0  0  0
  181.0570  179.6240  139.0560 C   0  0  0  0  0  2  0  0  0  0  0  0
  185.1060  177.6600  137.2170 O   0  0  0  0  0  1  0  0  0  0  0  0
  184.3010  177.4750  138.3460 C   0  0  0  0  0  2  0  0  0  0  0  0
  190.6910  175.7450  139.0130 O   0  0  0  0  0  0  0  0  0  0  0  0
  191.9640  175.9920  138.4920 C   0  0  0  0  0  2  0  0  0  0  0  0
  192.4560  174.7810  137.7230 C   0  0  0  0  0  2  0  0  0  0  0  0
  193.3430  175.2330  136.5830 C   0  0  0  0  0  2  0  0  0  0  0  0
  194.7950  174.9920  136.9420 C   0  0  0  0  0  2  0  0  0  0  0  0
  195.4540  174.2210  135.8920 N   0  0  0  0  0  0  0  0  0  0  0  0
  197.5950  171.2510  136.8180 O   0  0  0  0  0  0  0  0  0  0  0  0
  195.9360  170.0040  135.7690 F   0  0  0  0  0  0  0  0  0  0  0  0
  196.0760  170.0490  138.0090 O   0  0  0  0  0  1  0  0  0  0  0  0
  195.3270  171.9640  136.9010 N   0  0  0  0  0  0  0  0  0  0  0  0
  194.7020  172.2790  138.0640 O   0  0  0  0  0  1  0  0  0  0  0  0
  197.9120  171.7480  135.5390 C   0  0  1  0  0  3  0  0  0  0  0  0
  196.7500  174.6540  135.3650 C   0  0  2  0  0  3  0  0  0  0  0  0
  198.0620  174.3410  136.5930 S   0  0  0  0  0  0  0  0  0  0  0  0
  198.8190  172.9710  135.6490 C   0  0  0  0  0  2  0  0  0  0  0  0
  198.6370  170.6780  134.7410 C   0  0  0  0  0  1  0  0  0  0  0  0
  196.2440  170.8160  136.8550 C   0  0  1  0  0  0  0  0  0  0  0  0
  194.9250  172.3380  134.6330 O   0  0  0  0  0  0  0  0  0  0  0  0
  195.1620  172.8280  135.7710 C   0  0  0  0  0  0  0  0  0  0  0  0
  196.7630  176.1040  134.8590 C   0  0  2  0  0  3  0  0  0  0  0  0
  197.1950  176.9900  135.8490 O   0  0  0  0  0  1  0  0  0  0  0  0
  195.4230  176.5270  134.3460 C   0  0  0  0  0  3  0  0  0  0  0  0
  195.0120  177.6580  134.5490 O   0  0  0  0  0  0  0  0  0  0  0  0
  1  8  1  6  0  0  0
  1  4  1  0  0  0  0
  1  6  1  0  0  0  0
  2  9  1  6  0  0  0
  2  5  1  0  0  0  0
  3  5  1  0  0  0  0
  4  2  1  0  0  0  0
  6 30  1  6  0  0  0
  6  3  1  0  0  0  0
  7  8  1  0  0  0  0
 10 15  2  0  0  0  0
 11  9  1  6  0  0  0
 11 14  1  0  0  0  0
 12 19  1  1  0  0  0
 12 11  1  0  0  0  0
 12 10  1  0  0  0  0
 13 17  1  0  0  0  0
 14 13  1  0  0  0  0
 15 16  2  0  0  0  0
 16 18  1  0  0  0  0
 17 16  1  0  0  0  0
 20 19  1  0  0  0  0
 21 20  1  0  0  0  0
 22 29  1  0  0  0  0
 22 24  1  0  0  0  0
 23 26  1  0  0  0  0
 23 25  1  0  0  0  0
 24 21  1  1  0  0  0
 25 27  1  0  0  0  0
 26 22  2  0  0  0  0
 27 24  1  0  0  0  0
 28 29  1  0  0  0  0
 31 30  1  0  0  0  0
 32 31  1  0  0  0  0
 33 34  1  0  0  0  0
 33 32  1  0  0  0  0
 35 34  1  0  0  0  0
 36 46  1  0  0  0  0
 39 40  1  0  0  0  0
 41 45  1  6  0  0  0
 41 44  1  0  0  0  0
 41 36  1  0  0  0  0
 42 49  1  1  0  0  0
 42 35  1  0  0  0  0
 42 43  1  0  0  0  0
 44 43  1  0  0  0  0
 46 37  1  6  0  0  0
 46 39  1  0  0  0  0
 46 38  1  0  0  0  0
 47 48  2  0  0  0  0
 48 35  1  0  0  0  0
 48 39  1  0  0  0  0
 49 50  1  1  0  0  0
 51 52  2  0  0  0  0
 51 49  1  0  0  0  0
M  END
>  <MODEL>
5

>  <REMARK>
 VINA RESULT:      -6.2      1.753      2.819
  Name = 
  16 active torsions:
  status: ('A' for Active; 'I' for Inactive)
    1  A    between atoms: C_1  and  O_7
    2  A    between atoms: C_1  and  C_23
    3  A    between atoms: N_2  and  C_49
    4  A    between atoms: C_4  and  O_17
    5  A    between atoms: C_5  and  C_38
    6  A    between atoms: C_6  and  C_27
    7  A    between atoms: C_6  and  C_34
    8  A    between atoms: O_7  and  C_41
    9  A    between atoms: C_8  and  N_15
   10  A    between atoms: C_12  and  N_15
   11  A    between atoms: C_19  and  C_27
   12  A    between atoms: C_21  and  C_34
   13  A    between atoms: C_23  and  C_29
   14  A    between atoms: C_26  and  C_35
   15  A    between atoms: C_26  and  C_36
   16  A    between atoms: C_29  and  C_49
                            x       y       z     vdW  Elec       q    Type
                         _______ _______ _______ _____ _____    ______ ____

>  <TORSDO>
F 16

$$$$
=
 OpenBabel10232409243D

 52 55  0  0  1  0  0  0  0  0999 V2000
  188.2540  177.1650  139.1640 C   0  0  2  0  0  3  0  0  0  0  0  0
  187.5600  178.7000  141.0510 C   0  0  2  0  0  3  0  0  0  0  0  0
  189.8070  177.5570  141.0910 C   0  0  0  0  0  2  0  0  0  0  0  0
  187.4560  178.4110  139.5520 C   0  0  0  0  0  2  0  0  0  0  0  0
  189.0310  178.8150  141.4680 C   0  0  0  0  0  2  0  0  0  0  0  0
  189.7180  177.3350  139.5840 C   0  0  1  0  0  3  0  0  0  0  0  0
  188.1130  178.2720  137.2560 C   0  0  0  0  0  1  0  0  0  0  0  0
  188.1690  176.9790  137.7820 O   0  0  0  0  0  0  0  0  0  0  0  0
  186.8820  177.6560  141.8080 N   0  0  0  0  0  2  0  0  0  0  0  0
  183.5530  178.0400  143.5850 C   0  0  0  0  0  3  0  0  0  0  0  0
  185.4770  178.0200  141.9110 C   0  0  1  0  0  3  0  0  0  0  0  0
  185.0410  178.0770  143.3900 C   0  0  1  0  0  3  0  0  0  0  0  0
  184.1370  179.1130  140.1070 C   0  0  0  0  0  2  0  0  0  0  0  0
  185.2250  179.3240  141.1490 C   0  0  0  0  0  2  0  0  0  0  0  0
  182.7730  178.5820  142.6900 C   0  0  0  0  0  0  0  0  0  0  0  0
  182.1260  179.1570  141.7130 C   0  0  0  0  0  0  0  0  0  0  0  0
  182.8380  179.6220  140.5610 N   0  0  0  0  0  2  0  0  0  0  0  0
  180.7570  179.5280  141.8850 N   0  0  0  0  0  1  0  0  0  0  0  0
  185.6850  179.2290  144.1540 C   0  0  0  0  0  2  0  0  0  0  0  0
  186.0210  178.7910  145.5730 C   0  0  0  0  0  2  0  0  0  0  0  0
  186.9520  177.5900  145.5580 C   0  0  0  0  0  2  0  0  0  0  0  0
  188.9230  177.3480  147.0990 C   0  0  0  0  0  0  0  0  0  0  0  0
  191.0100  176.6780  145.9050 C   0  0  0  0  0  2  0  0  0  0  0  0
  188.3840  178.0240  145.8470 C   0  0  1  0  0  3  0  0  0  0  0  0
  190.7310  177.8190  144.9370 C   0  0  0  0  0  2  0  0  0  0  0  0
  190.1480  176.7920  147.1320 C   0  0  0  0  0  3  0  0  0  0  0  0
  189.2480  177.8080  144.5950 C   0  0  0  0  0  2  0  0  0  0  0  0
  187.8370  178.7830  148.6470 O   0  0  0  0  0  1  0  0  0  0  0  0
  188.1440  177.4460  148.3760 C   0  0  0  0  0  2  0  0  0  0  0  0
  190.4610  176.2050  139.2260 O   0  0  0  0  0  0  0  0  0  0  0  0
  191.2830  176.6300  138.1810 C   0  0  0  0  0  2  0  0  0  0  0  0
  192.7400  176.5420  138.5930 C   0  0  0  0  0  2  0  0  0  0  0  0
  193.5370  175.8730  137.4930 C   0  0  0  0  0  2  0  0  0  0  0  0
  193.5350  174.3730  137.7050 C   0  0  0  0  0  2  0  0  0  0  0  0
  194.6400  173.7580  136.9760 N   0  0  0  0  0  0  0  0  0  0  0  0
  198.0350  175.4120  136.9820 O   0  0  0  0  0  0  0  0  0  0  0  0
  198.6960  173.5560  138.2180 F   0  0  0  0  0  0  0  0  0  0  0  0
  198.3880  175.5380  139.2260 O   0  0  0  0  0  1  0  0  0  0  0  0
  196.5110  174.3650  138.4790 N   0  0  0  0  0  0  0  0  0  0  0  0
  195.8200  175.0560  139.4210 O   0  0  0  0  0  1  0  0  0  0  0  0
  197.8840  174.5290  135.8960 C   0  0  1  0  0  3  0  0  0  0  0  0
  194.8110  174.0180  135.5450 C   0  0  2  0  0  3  0  0  0  0  0  0
  195.4210  175.7170  135.2840 S   0  0  0  0  0  0  0  0  0  0  0  0
  197.0940  175.1940  134.7710 C   0  0  0  0  0  2  0  0  0  0  0  0
  199.2520  174.1380  135.3620 C   0  0  0  0  0  1  0  0  0  0  0  0
  197.9150  174.7070  138.2090 C   0  0  1  0  0  0  0  0  0  0  0  0
  196.3400  172.2570  137.4920 O   0  0  0  0  0  0  0  0  0  0  0  0
  195.8200  173.3890  137.6920 C   0  0  0  0  0  0  0  0  0  0  0  0
  193.5630  173.7130  134.7030 C   0  0  2  0  0  3  0  0  0  0  0  0
  192.6910  174.8040  134.6640 O   0  0  0  0  0  1  0  0  0  0  0  0
  192.8410  172.5000  135.1980 C   0  0  0  0  0  3  0  0  0  0  0  0
  191.6650  172.5680  135.5180 O   0  0  0  0  0  0  0  0  0  0  0  0
  1  8  1  6  0  0  0
  1  4  1  0  0  0  0
  1  6  1  0  0  0  0
  2  5  1  0  0  0  0
  2  9  1  1  0  0  0
  3  5  1  0  0  0  0
  4  2  1  0  0  0  0
  6 30  1  1  0  0  0
  6  3  1  0  0  0  0
  7  8  1  0  0  0  0
 11  9  1  1  0  0  0
 11 12  1  0  0  0  0
 12 10  1  0  0  0  0
 12 19  1  6  0  0  0
 13 17  1  0  0  0  0
 13 14  1  0  0  0  0
 14 11  1  0  0  0  0
 15 10  2  0  0  0  0
 16 18  1  0  0  0  0
 16 15  2  0  0  0  0
 17 16  1  0  0  0  0
 19 20  1  0  0  0  0
 21 20  1  0  0  0  0
 22 26  2  0  0  0  0
 22 29  1  0  0  0  0
 23 26  1  0  0  0  0
 24 21  1  6  0  0  0
 24 22  1  0  0  0  0
 25 23  1  0  0  0  0
 27 25  1  0  0  0  0
 27 24  1  0  0  0  0
 29 28  1  0  0  0  0
 31 32  1  0  0  0  0
 31 30  1  0  0  0  0
 33 34  1  0  0  0  0
 33 32  1  0  0  0  0
 35 48  1  0  0  0  0
 35 34  1  0  0  0  0
 36 46  1  0  0  0  0
 39 40  1  0  0  0  0
 41 45  1  6  0  0  0
 41 36  1  0  0  0  0
 42 49  1  6  0  0  0
 42 35  1  0  0  0  0
 43 42  1  0  0  0  0
 44 43  1  0  0  0  0
 44 41  1  0  0  0  0
 46 37  1  6  0  0  0
 46 39  1  0  0  0  0
 46 38  1  0  0  0  0
 47 48  2  0  0  0  0
 48 39  1  0  0  0  0
 49 50  1  1  0  0  0
 49 51  1  0  0  0  0
 51 52  2  0  0  0  0
M  END
>  <MODEL>
6

>  <REMARK>
 VINA RESULT:      -6.1      2.568      5.143
  Name = 
  16 active torsions:
  status: ('A' for Active; 'I' for Inactive)
    1  A    between atoms: C_1  and  O_7
    2  A    between atoms: C_1  and  C_23
    3  A    between atoms: N_2  and  C_49
    4  A    between atoms: C_4  and  O_17
    5  A    between atoms: C_5  and  C_38
    6  A    between atoms: C_6  and  C_27
    7  A    between atoms: C_6  and  C_34
    8  A    between atoms: O_7  and  C_41
    9  A    between atoms: C_8  and  N_15
   10  A    between atoms: C_12  and  N_15
   11  A    between atoms: C_19  and  C_27
   12  A    between atoms: C_21  and  C_34
   13  A    between atoms: C_23  and  C_29
   14  A    between atoms: C_26  and  C_35
   15  A    between atoms: C_26  and  C_36
   16  A    between atoms: C_29  and  C_49
                            x       y       z     vdW  Elec       q    Type
                         _______ _______ _______ _____ _____    ______ ____

>  <TORSDO>
F 16

$$$$
=
 OpenBabel10232409243D

 52 55  0  0  1  0  0  0  0  0999 V2000
  187.3560  176.4480  137.0250 C   0  0  2  0  0  3  0  0  0  0  0  0
  186.0800  178.2790  138.2150 C   0  0  2  0  0  3  0  0  0  0  0  0
  188.4310  177.6960  138.9130 C   0  0  0  0  0  2  0  0  0  0  0  0
  186.3100  177.5560  136.8870 C   0  0  0  0  0  2  0  0  0  0  0  0
  187.4070  178.8170  138.7630 C   0  0  0  0  0  2  0  0  0  0  0  0
  188.6670  177.0370  137.5580 C   0  0  1  0  0  3  0  0  0  0  0  0
  187.9670  176.9120  134.9530 C   0  0  0  0  0  1  0  0  0  0  0  0
  187.5660  175.8590  135.7770 O   0  0  0  0  0  0  0  0  0  0  0  0
  185.4450  177.3800  139.1700 N   0  0  0  0  0  2  0  0  0  0  0  0
  182.8020  178.3560  141.7070 C   0  0  0  0  0  3  0  0  0  0  0  0
  184.2030  177.9960  139.6070 C   0  0  1  0  0  3  0  0  0  0  0  0
  184.1730  178.1200  141.1440 C   0  0  1  0  0  3  0  0  0  0  0  0
  182.6710  179.3350  138.1560 C   0  0  0  0  0  2  0  0  0  0  0  0
  184.0060  179.3310  138.8830 C   0  0  0  0  0  2  0  0  0  0  0  0
  181.9320  179.0420  141.0170 C   0  0  0  0  0  0  0  0  0  0  0  0
  181.1740  179.7360  140.2120 C   0  0  0  0  0  0  0  0  0  0  0  0
  181.6430  180.0710  138.9010 N   0  0  0  0  0  2  0  0  0  0  0  0
  179.9840  180.3520  140.7070 N   0  0  0  0  0  1  0  0  0  0  0  0
  185.1870  179.1250  141.6780 C   0  0  0  0  0  2  0  0  0  0  0  0
  185.8290  178.5940  142.9530 C   0  0  0  0  0  2  0  0  0  0  0  0
  187.1480  177.9050  142.6420 C   0  0  0  0  0  2  0  0  0  0  0  0
  189.1670  177.1830  143.9540 C   0  0  0  0  0  0  0  0  0  0  0  0
  189.0600  177.8660  146.3530 C   0  0  0  0  0  2  0  0  0  0  0  0
  187.6490  177.1420  143.8640 C   0  0  1  0  0  3  0  0  0  0  0  0
  187.6690  177.2490  146.3870 C   0  0  0  0  0  2  0  0  0  0  0  0
  189.8000  177.4530  145.1110 C   0  0  0  0  0  3  0  0  0  0  0  0
  186.9300  177.6570  145.1200 C   0  0  0  0  0  2  0  0  0  0  0  0
  190.2900  175.3910  142.8770 O   0  0  0  0  0  1  0  0  0  0  0  0
  189.9820  176.7510  142.7730 C   0  0  0  0  0  2  0  0  0  0  0  0
  189.6350  176.0340  137.6810 O   0  0  0  0  0  0  0  0  0  0  0  0
  190.8470  176.6660  137.3920 C   0  0  0  0  0  2  0  0  0  0  0  0
  191.8840  176.3100  138.4400 C   0  0  0  0  0  2  0  0  0  0  0  0
  193.1670  175.8850  137.7590 C   0  0  0  0  0  2  0  0  0  0  0  0
  193.1960  174.3760  137.6270 C   0  0  0  0  0  2  0  0  0  0  0  0
  194.2330  173.9710  136.6840 N   0  0  0  0  0  0  0  0  0  0  0  0
  197.5710  175.7380  136.6970 O   0  0  0  0  0  0  0  0  0  0  0  0
  198.4000  173.7020  137.4550 F   0  0  0  0  0  0  0  0  0  0  0  0
  198.1530  175.4240  138.8730 O   0  0  0  0  0  1  0  0  0  0  0  0
  196.2360  174.3440  138.0890 N   0  0  0  0  0  0  0  0  0  0  0  0
  195.6320  174.7990  139.2150 O   0  0  0  0  0  1  0  0  0  0  0  0
  197.3270  175.0860  135.4730 C   0  0  1  0  0  3  0  0  0  0  0  0
  194.2470  174.5210  135.3260 C   0  0  2  0  0  3  0  0  0  0  0  0
  194.7860  176.2640  135.3620 S   0  0  0  0  0  0  0  0  0  0  0  0
  196.4080  175.9290  134.5920 C   0  0  0  0  0  2  0  0  0  0  0  0
  198.6400  174.8730  134.7390 C   0  0  0  0  0  1  0  0  0  0  0  0
  197.5960  174.7950  137.7590 C   0  0  1  0  0  0  0  0  0  0  0  0
  196.0120  172.4730  136.7110 O   0  0  0  0  0  0  0  0  0  0  0  0
  195.4900  173.5170  137.1890 C   0  0  0  0  0  0  0  0  0  0  0  0
  192.9250  174.3380  134.5660 C   0  0  2  0  0  3  0  0  0  0  0  0
  192.1570  175.5040  134.5840 O   0  0  0  0  0  1  0  0  0  0  0  0
  192.1270  173.1930  135.1050 C   0  0  0  0  0  3  0  0  0  0  0  0
  192.0890  172.1300  134.5070 O   0  0  0  0  0  0  0  0  0  0  0  0
  1  8  1  6  0  0  0
  1  6  1  0  0  0  0
  2  5  1  0  0  0  0
  2  9  1  1  0  0  0
  4  1  1  0  0  0  0
  4  2  1  0  0  0  0
  5  3  1  0  0  0  0
  6 30  1  1  0  0  0
  6  3  1  0  0  0  0
  7  8  1  0  0  0  0
 11  9  1  1  0  0  0
 11 12  1  0  0  0  0
 12 19  1  6  0  0  0
 12 10  1  0  0  0  0
 13 14  1  0  0  0  0
 13 17  1  0  0  0  0
 14 11  1  0  0  0  0
 15 10  2  0  0  0  0
 16 18  1  0  0  0  0
 16 15  2  0  0  0  0
 17 16  1  0  0  0  0
 19 20  1  0  0  0  0
 21 20  1  0  0  0  0
 22 26  2  0  0  0  0
 23 25  1  0  0  0  0
 24 21  1  6  0  0  0
 24 22  1  0  0  0  0
 24 27  1  0  0  0  0
 26 23  1  0  0  0  0
 27 25  1  0  0  0  0
 29 28  1  0  0  0  0
 29 22  1  0  0  0  0
 31 30  1  0  0  0  0
 31 32  1  0  0  0  0
 33 32  1  0  0  0  0
 34 33  1  0  0  0  0
 35 48  1  0  0  0  0
 35 34  1  0  0  0  0
 36 46  1  0  0  0  0
 39 40  1  0  0  0  0
 41 45  1  6  0  0  0
 41 36  1  0  0  0  0
 42 49  1  1  0  0  0
 42 43  1  0  0  0  0
 42 35  1  0  0  0  0
 44 43  1  0  0  0  0
 44 41  1  0  0  0  0
 46 37  1  6  0  0  0
 46 39  1  0  0  0  0
 46 38  1  0  0  0  0
 47 48  2  0  0  0  0
 48 39  1  0  0  0  0
 49 50  1  1  0  0  0
 49 51  1  0  0  0  0
 52 51  2  0  0  0  0
M  END
>  <MODEL>
7

>  <REMARK>
 VINA RESULT:      -6.1      2.468      4.967
  Name = 
  16 active torsions:
  status: ('A' for Active; 'I' for Inactive)
    1  A    between atoms: C_1  and  O_7
    2  A    between atoms: C_1  and  C_23
    3  A    between atoms: N_2  and  C_49
    4  A    between atoms: C_4  and  O_17
    5  A    between atoms: C_5  and  C_38
    6  A    between atoms: C_6  and  C_27
    7  A    between atoms: C_6  and  C_34
    8  A    between atoms: O_7  and  C_41
    9  A    between atoms: C_8  and  N_15
   10  A    between atoms: C_12  and  N_15
   11  A    between atoms: C_19  and  C_27
   12  A    between atoms: C_21  and  C_34
   13  A    between atoms: C_23  and  C_29
   14  A    between atoms: C_26  and  C_35
   15  A    between atoms: C_26  and  C_36
   16  A    between atoms: C_29  and  C_49
                            x       y       z     vdW  Elec       q    Type
                         _______ _______ _______ _____ _____    ______ ____

>  <TORSDO>
F 16

$$$$
=
 OpenBabel10232409243D

 52 55  0  0  1  0  0  0  0  0999 V2000
  187.2670  178.5130  140.3070 C   0  0  2  0  0  3  0  0  0  0  0  0
  187.8890  177.1500  142.3460 C   0  0  2  0  0  3  0  0  0  0  0  0
  185.9100  178.7110  142.4040 C   0  0  0  0  0  2  0  0  0  0  0  0
  187.8650  177.2000  140.8160 C   0  0  0  0  0  2  0  0  0  0  0  0
  186.4820  177.3890  142.9060 C   0  0  0  0  0  2  0  0  0  0  0  0
  185.8570  178.6970  140.8800 C   0  0  1  0  0  3  0  0  0  0  0  0
  188.3740  177.7950  138.5340 C   0  0  0  0  0  1  0  0  0  0  0  0
  187.2190  178.4830  138.9120 O   0  0  0  0  0  0  0  0  0  0  0  0
  188.8320  178.1340  142.8610 N   0  0  0  0  0  2  0  0  0  0  0  0
  191.5170  175.6330  143.8190 C   0  0  0  0  0  3  0  0  0  0  0  0
  189.7310  177.4530  143.7800 C   0  0  1  0  0  3  0  0  0  0  0  0
  190.8110  176.6740  143.0000 C   0  0  1  0  0  3  0  0  0  0  0  0
  190.0070  178.0060  146.2010 C   0  0  0  0  0  2  0  0  0  0  0  0
  190.3060  178.4590  144.7810 C   0  0  0  0  0  2  0  0  0  0  0  0
  191.7030  175.8340  145.0950 C   0  0  0  0  0  0  0  0  0  0  0  0
  191.8070  176.1720  146.3520 C   0  0  0  0  0  0  0  0  0  0  0  0
  191.1670  177.3610  146.8270 N   0  0  0  0  0  2  0  0  0  0  0  0
  192.7350  175.4930  147.1980 N   0  0  0  0  0  1  0  0  0  0  0  0
  191.7930  177.5870  142.2740 C   0  0  0  0  0  2  0  0  0  0  0  0
  191.7730  177.2940  140.7800 C   0  0  0  0  0  2  0  0  0  0  0  0
  193.1780  177.0210  140.2690 C   0  0  0  0  0  2  0  0  0  0  0  0
  193.8270  175.3880  138.4710 C   0  0  0  0  0  0  0  0  0  0  0  0
  191.8870  174.6530  137.0820 C   0  0  0  0  0  2  0  0  0  0  0  0
  193.1490  176.7150  138.7750 C   0  0  1  0  0  3  0  0  0  0  0  0
  191.5500  176.1280  136.9110 C   0  0  0  0  0  2  0  0  0  0  0  0
  193.2700  174.4810  137.6470 C   0  0  0  0  0  3  0  0  0  0  0  0
  191.7050  176.8170  138.2590 C   0  0  0  0  0  2  0  0  0  0  0  0
  195.6180  173.8420  138.6630 O   0  0  0  0  0  1  0  0  0  0  0  0
  195.2220  175.1490  138.9650 C   0  0  0  0  0  2  0  0  0  0  0  0
  185.2960  179.8910  140.4140 O   0  0  0  0  0  0  0  0  0  0  0  0
  184.2020  179.4970  139.6400 C   0  0  0  0  0  2  0  0  0  0  0  0
  183.8440  178.0540  139.9370 C   0  0  0  0  0  2  0  0  0  0  0  0
  183.1430  177.4500  138.7390 C   0  0  0  0  0  2  0  0  0  0  0  0
  183.3180  175.9450  138.7540 C   0  0  0  0  0  2  0  0  0  0  0  0
  183.3540  175.4270  137.3900 N   0  0  0  0  0  0  0  0  0  0  0  0
  182.0860  171.9420  136.6780 O   0  0  0  0  0  0  0  0  0  0  0  0
  180.3960  173.0310  135.5090 F   0  0  0  0  0  0  0  0  0  0  0  0
  179.9820  172.1280  137.5230 O   0  0  0  0  0  1  0  0  0  0  0  0
  181.2910  174.0590  137.4160 N   0  0  0  0  0  0  0  0  0  0  0  0
  180.8940  174.2870  138.6940 O   0  0  0  0  0  1  0  0  0  0  0  0
  182.9580  172.3980  135.6720 C   0  0  1  0  0  3  0  0  0  0  0  0
  184.5730  174.8020  136.8730 C   0  0  2  0  0  3  0  0  0  0  0  0
  184.8080  173.1610  137.6350 S   0  0  0  0  0  0  0  0  0  0  0  0
  184.4120  172.2350  136.1100 C   0  0  0  0  0  2  0  0  0  0  0  0
  182.7420  171.5900  134.4040 C   0  0  0  0  0  1  0  0  0  0  0  0
  180.9480  172.7880  136.7620 C   0  0  1  0  0  0  0  0  0  0  0  0
  181.8830  175.3860  135.5890 O   0  0  0  0  0  0  0  0  0  0  0  0
  182.1310  175.0230  136.7710 C   0  0  0  0  0  0  0  0  0  0  0  0
  185.8250  175.6830  136.9950 C   0  0  2  0  0  3  0  0  0  0  0  0
  185.6370  176.9300  136.3950 O   0  0  0  0  0  1  0  0  0  0  0  0
  187.0330  175.0160  136.4160 C   0  0  0  0  0  3  0  0  0  0  0  0
  187.8960  174.5560  137.1470 O   0  0  0  0  0  0  0  0  0  0  0  0
  1  8  1  6  0  0  0
  1  4  1  0  0  0  0
  1  6  1  0  0  0  0
  2  9  1  1  0  0  0
  2  5  1  0  0  0  0
  3  5  1  0  0  0  0
  4  2  1  0  0  0  0
  6 30  1  6  0  0  0
  6  3  1  0  0  0  0
  7  8  1  0  0  0  0
 10 15  2  0  0  0  0
 11  9  1  6  0  0  0
 11 14  1  0  0  0  0
 12 19  1  1  0  0  0
 12 11  1  0  0  0  0
 12 10  1  0  0  0  0
 13 17  1  0  0  0  0
 14 13  1  0  0  0  0
 15 16  2  0  0  0  0
 16 17  1  0  0  0  0
 16 18  1  0  0  0  0
 20 19  1  0  0  0  0
 21 20  1  0  0  0  0
 22 24  1  0  0  0  0
 22 29  1  0  0  0  0
 23 26  1  0  0  0  0
 24 21  1  1  0  0  0
 25 23  1  0  0  0  0
 25 27  1  0  0  0  0
 26 22  2  0  0  0  0
 27 24  1  0  0  0  0
 28 29  1  0  0  0  0
 31 32  1  0  0  0  0
 31 30  1  0  0  0  0
 33 34  1  0  0  0  0
 33 32  1  0  0  0  0
 35 34  1  0  0  0  0
 36 46  1  0  0  0  0
 39 40  1  0  0  0  0
 41 45  1  6  0  0  0
 41 44  1  0  0  0  0
 41 36  1  0  0  0  0
 42 49  1  1  0  0  0
 42 35  1  0  0  0  0
 42 43  1  0  0  0  0
 44 43  1  0  0  0  0
 46 37  1  6  0  0  0
 46 39  1  0  0  0  0
 46 38  1  0  0  0  0
 47 48  2  0  0  0  0
 48 35  1  0  0  0  0
 48 39  1  0  0  0  0
 49 50  1  6  0  0  0
 51 49  1  0  0  0  0
 51 52  2  0  0  0  0
M  END
>  <MODEL>
8

>  <REMARK>
 VINA RESULT:      -6.0      4.588     10.383
  Name = 
  16 active torsions:
  status: ('A' for Active; 'I' for Inactive)
    1  A    between atoms: C_1  and  O_7
    2  A    between atoms: C_1  and  C_23
    3  A    between atoms: N_2  and  C_49
    4  A    between atoms: C_4  and  O_17
    5  A    between atoms: C_5  and  C_38
    6  A    between atoms: C_6  and  C_27
    7  A    between atoms: C_6  and  C_34
    8  A    between atoms: O_7  and  C_41
    9  A    between atoms: C_8  and  N_15
   10  A    between atoms: C_12  and  N_15
   11  A    between atoms: C_19  and  C_27
   12  A    between atoms: C_21  and  C_34
   13  A    between atoms: C_23  and  C_29
   14  A    between atoms: C_26  and  C_35
   15  A    between atoms: C_26  and  C_36
   16  A    between atoms: C_29  and  C_49
                            x       y       z     vdW  Elec       q    Type
                         _______ _______ _______ _____ _____    ______ ____

>  <TORSDO>
F 16

$$$$
=
 OpenBabel10232409243D

 52 55  0  0  1  0  0  0  0  0999 V2000
  190.9570  177.3840  141.5570 C   0  0  2  0  0  3  0  0  0  0  0  0
  188.4550  177.1760  141.2530 C   0  0  2  0  0  3  0  0  0  0  0  0
  189.9480  177.6620  139.2800 C   0  0  0  0  0  2  0  0  0  0  0  0
  189.6770  176.7030  142.0430 C   0  0  0  0  0  2  0  0  0  0  0  0
  188.6790  176.9600  139.7510 C   0  0  0  0  0  2  0  0  0  0  0  0
  191.1460  177.1260  140.0580 C   0  0  1  0  0  3  0  0  0  0  0  0
  191.6080  176.8430  143.5980 C   0  0  0  0  0  1  0  0  0  0  0  0
  192.0450  176.8780  142.2720 O   0  0  0  0  0  0  0  0  0  0  0  0
  188.1830  178.5770  141.5460 N   0  0  0  0  0  2  0  0  0  0  0  0
  185.0200  179.5540  143.3950 C   0  0  0  0  0  3  0  0  0  0  0  0
  187.2910  178.6290  142.6920 C   0  0  1  0  0  3  0  0  0  0  0  0
  185.8810  179.0830  142.2590 C   0  0  1  0  0  3  0  0  0  0  0  0
  187.6810  177.4770  144.8750 C   0  0  0  0  0  2  0  0  0  0  0  0
  187.3010  177.2790  143.4160 C   0  0  0  0  0  2  0  0  0  0  0  0
  185.1570  179.0120  144.5740 C   0  0  0  0  0  0  0  0  0  0  0  0
  185.4140  178.3840  145.6890 C   0  0  0  0  0  0  0  0  0  0  0  0
  186.5060  177.4610  145.7540 N   0  0  0  0  0  2  0  0  0  0  0  0
  184.4800  178.4390  146.7690 N   0  0  0  0  0  1  0  0  0  0  0  0
  185.1650  178.0520  141.3930 C   0  0  0  0  0  2  0  0  0  0  0  0
  184.3350  178.7520  140.3260 C   0  0  0  0  0  2  0  0  0  0  0  0
  182.8610  178.7380  140.6990 C   0  0  0  0  0  2  0  0  0  0  0  0
  182.0990  178.6910  138.3040 C   0  0  0  0  0  0  0  0  0  0  0  0
  182.6890  176.5620  137.1400 C   0  0  0  0  0  2  0  0  0  0  0  0
  182.0550  177.9820  139.6480 C   0  0  1  0  0  3  0  0  0  0  0  0
  182.0650  175.8340  138.3210 C   0  0  0  0  0  2  0  0  0  0  0  0
  182.3280  178.0220  137.1580 C   0  0  0  0  0  3  0  0  0  0  0  0
  182.5180  176.5180  139.6030 C   0  0  0  0  0  2  0  0  0  0  0  0
  180.3240  180.2620  138.1730 O   0  0  0  0  0  1  0  0  0  0  0  0
  181.7160  180.1380  138.2260 C   0  0  0  0  0  2  0  0  0  0  0  0
  192.3190  177.7370  139.6030 O   0  0  0  0  0  0  0  0  0  0  0  0
  193.1110  176.6890  139.1270 C   0  0  0  0  0  2  0  0  0  0  0  0
  192.8350  176.4530  137.6550 C   0  0  0  0  0  2  0  0  0  0  0  0
  194.0260  176.9100  136.8380 C   0  0  0  0  0  2  0  0  0  0  0  0
  194.3920  175.8390  135.8320 C   0  0  0  0  0  2  0  0  0  0  0  0
  194.7730  174.6090  136.5190 N   0  0  0  0  0  0  0  0  0  0  0  0
  198.1660  173.0800  135.8760 O   0  0  0  0  0  0  0  0  0  0  0  0
  198.6040  173.6610  138.0850 F   0  0  0  0  0  0  0  0  0  0  0  0
  199.4840  174.8570  136.4020 O   0  0  0  0  0  1  0  0  0  0  0  0
  197.1920  175.0370  136.8160 N   0  0  0  0  0  0  0  0  0  0  0  0
  197.2740  176.2540  136.2200 O   0  0  0  0  0  1  0  0  0  0  0  0
  197.2560  172.1390  136.3930 C   0  0  1  0  0  3  0  0  0  0  0  0
  194.3780  173.3090  135.9710 C   0  0  2  0  0  3  0  0  0  0  0  0
  195.3640  172.9310  134.4830 S   0  0  0  0  0  0  0  0  0  0  0  0
  196.3420  171.6140  135.2880 C   0  0  0  0  0  2  0  0  0  0  0  0
  198.0170  170.9660  136.9880 C   0  0  0  0  0  1  0  0  0  0  0  0
  198.3560  174.1390  136.8030 C   0  0  1  0  0  0  0  0  0  0  0  0
  195.8800  174.0840  138.4950 O   0  0  0  0  0  0  0  0  0  0  0  0
  195.9340  174.6120  137.3510 C   0  0  0  0  0  0  0  0  0  0  0  0
  192.8700  173.1710  135.7180 C   0  0  2  0  0  3  0  0  0  0  0  0
  192.1470  173.1650  136.9130 O   0  0  0  0  0  1  0  0  0  0  0  0
  192.5490  171.9450  134.9220 C   0  0  0  0  0  3  0  0  0  0  0  0
  192.5320  170.8480  135.4570 O   0  0  0  0  0  0  0  0  0  0  0  0
  1  4  1  0  0  0  0
  1  8  1  1  0  0  0
  2  9  1  6  0  0  0
  2  4  1  0  0  0  0
  3  5  1  0  0  0  0
  3  6  1  0  0  0  0
  5  2  1  0  0  0  0
  6 30  1  6  0  0  0
  6  1  1  0  0  0  0
  8  7  1  0  0  0  0
 10 15  2  0  0  0  0
 11  9  1  6  0  0  0
 11 14  1  0  0  0  0
 12 19  1  1  0  0  0
 12 11  1  0  0  0  0
 12 10  1  0  0  0  0
 13 17  1  0  0  0  0
 14 13  1  0  0  0  0
 15 16  2  0  0  0  0
 16 17  1  0  0  0  0
 16 18  1  0  0  0  0
 20 21  1  0  0  0  0
 20 19  1  0  0  0  0
 22 24  1  0  0  0  0
 23 26  1  0  0  0  0
 23 25  1  0  0  0  0
 24 21  1  1  0  0  0
 25 27  1  0  0  0  0
 26 22  2  0  0  0  0
 27 24  1  0  0  0  0
 28 29  1  0  0  0  0
 29 22  1  0  0  0  0
 31 30  1  0  0  0  0
 32 31  1  0  0  0  0
 33 32  1  0  0  0  0
 34 35  1  0  0  0  0
 34 33  1  0  0  0  0
 35 48  1  0  0  0  0
 36 41  1  0  0  0  0
 36 46  1  0  0  0  0
 39 48  1  0  0  0  0
 40 39  1  0  0  0  0
 41 45  1  6  0  0  0
 42 49  1  6  0  0  0
 42 35  1  0  0  0  0
 43 44  1  0  0  0  0
 43 42  1  0  0  0  0
 44 41  1  0  0  0  0
 46 38  1  6  0  0  0
 46 39  1  0  0  0  0
 46 37  1  0  0  0  0
 48 47  2  0  0  0  0
 49 50  1  1  0  0  0
 51 52  2  0  0  0  0
 51 49  1  0  0  0  0
M  END
>  <MODEL>
9

>  <REMARK>
 VINA RESULT:      -6.0      1.401      2.124
  Name = 
  16 active torsions:
  status: ('A' for Active; 'I' for Inactive)
    1  A    between atoms: C_1  and  O_7
    2  A    between atoms: C_1  and  C_23
    3  A    between atoms: N_2  and  C_49
    4  A    between atoms: C_4  and  O_17
    5  A    between atoms: C_5  and  C_38
    6  A    between atoms: C_6  and  C_27
    7  A    between atoms: C_6  and  C_34
    8  A    between atoms: O_7  and  C_41
    9  A    between atoms: C_8  and  N_15
   10  A    between atoms: C_12  and  N_15
   11  A    between atoms: C_19  and  C_27
   12  A    between atoms: C_21  and  C_34
   13  A    between atoms: C_23  and  C_29
   14  A    between atoms: C_26  and  C_35
   15  A    between atoms: C_26  and  C_36
   16  A    between atoms: C_29  and  C_49
                            x       y       z     vdW  Elec       q    Type
                         _______ _______ _______ _____ _____    ______ ____

>  <TORSDO>
F 16

$$$$
