=
 OpenBabel10232409523D

 59 67  0  0  1  0  0  0  0  0999 V2000
  190.0420  176.2890  136.4950 C   0  0  0  0  0  0  0  0  0  0  0  0
  185.5240  177.9300  138.0030 C   0  0  0  0  0  0  0  0  0  0  0  0
  186.4180  178.3270  138.9480 N   0  0  0  0  0  0  0  0  0  0  0  0
  187.3150  176.8930  136.7680 C   0  0  0  0  0  0  0  0  0  0  0  0
  187.7620  176.1660  135.6650 C   0  0  0  0  0  3  0  0  0  0  0  0
  189.5940  177.0180  137.6010 C   0  0  0  0  0  3  0  0  0  0  0  0
  188.2310  177.3260  137.7500 C   0  0  0  0  0  0  0  0  0  0  0  0
  185.9610  177.1860  136.9040 C   0  0  0  0  0  3  0  0  0  0  0  0
  189.1210  175.8650  135.5280 C   0  0  0  0  0  3  0  0  0  0  0  0
  187.7480  178.0490  138.8560 C   0  0  0  0  0  0  0  0  0  0  0  0
  184.8010  179.9700  139.6790 O   0  0  0  0  0  0  0  0  0  0  0  0
  181.0970  178.0610  139.5210 C   0  0  1  0  0  3  0  0  0  0  0  0
  182.5680  180.1150  139.0870 N   0  0  0  0  0  2  0  0  0  0  0  0
  182.2520  175.0400  137.7350 N   0  0  0  0  0  2  0  0  0  0  0  0
  184.0570  178.2050  138.2130 C   0  0  1  0  0  3  0  0  0  0  0  0
  183.2920  176.9760  138.7330 C   0  0  1  0  0  3  0  0  0  0  0  0
  180.2590  180.1860  138.8390 O   0  0  0  0  0  0  0  0  0  0  0  0
  181.2800  179.4910  139.1060 C   0  0  0  0  0  0  0  0  0  0  0  0
  181.8210  177.1440  138.5260 C   0  0  1  0  0  3  0  0  0  0  0  0
  181.2370  175.8180  138.3220 N   0  0  0  0  0  0  0  0  0  0  0  0
  183.8340  179.4450  139.0600 C   0  0  0  0  0  0  0  0  0  0  0  0
  180.9120  175.1840  139.5890 C   0  0  0  0  0  1  0  0  0  0  0  0
  183.5320  175.7400  137.9030 C   0  0  0  0  0  2  0  0  0  0  0  0
  181.5570  177.8540  140.9710 C   0  0  0  0  0  2  0  0  0  0  0  0
  181.2030  179.0470  141.8430 C   0  0  0  0  0  2  0  0  0  0  0  0
  182.2010  179.1950  142.9690 C   0  0  0  0  0  2  0  0  0  0  0  0
  183.4220  178.3510  142.6710 C   0  0  0  0  0  2  0  0  0  0  0  0
  185.9350  178.6110  142.6390 N   0  0  0  0  0  1  0  0  0  0  0  0
  184.5740  180.1390  143.7420 O   0  0  0  0  0  0  0  0  0  0  0  0
  184.6590  179.0880  143.0550 C   0  0  0  0  0  0  0  0  0  0  0  0
  191.4360  175.9810  136.3760 N   0  0  0  0  0  2  0  0  0  0  0  0
  194.0020  173.5300  137.6740 C   0  0  0  0  0  2  0  0  0  0  0  0
  194.3730  174.9670  137.3410 C   0  0  2  0  0  0  0  0  0  0  0  0
  192.1820  175.2290  137.3750 C   0  0  2  0  0  3  0  0  0  0  0  0
  193.4400  176.2930  138.1480 S   0  0  0  0  0  0  0  0  0  0  0  0
  193.1660  174.3080  136.6830 C   0  0  2  0  0  3  0  0  0  0  0  0
  197.2310  174.1430  137.6850 C   0  0  0  0  0  2  0  0  0  0  0  0
  195.4210  175.2770  136.3150 C   0  0  0  0  0  0  0  0  0  0  0  0
  195.1170  175.9630  135.2940 O   0  0  0  0  0  0  0  0  0  0  0  0
  197.8150  175.0450  135.5180 C   0  0  0  0  0  2  0  0  0  0  0  0
  196.7660  174.8250  136.4960 N   0  0  0  0  0  0  0  0  0  0  0  0
  199.0830  174.5340  136.1590 C   0  0  0  0  0  2  0  0  0  0  0  0
  198.6630  173.7480  137.3930 C   0  0  0  0  0  2  0  0  0  0  0  0
  188.6640  178.4880  139.9600 C   0  0  0  0  0  2  0  0  0  0  0  0
  188.7370  177.4690  140.9980 N   0  0  0  0  0  2  0  0  0  0  0  0
  190.6190  178.0690  142.4120 C   0  0  0  0  0  2  0  0  0  0  0  0
  190.7330  176.8500  143.3050 C   0  0  2  0  0  3  0  0  0  0  0  0
  190.1410  177.1990  141.2670 C   0  0  1  0  0  3  0  0  0  0  0  0
  190.2630  175.9780  142.1580 C   0  0  0  0  0  2  0  0  0  0  0  0
  189.7070  176.8910  144.3340 N   0  0  0  0  0  2  0  0  0  0  0  0
  191.2190  176.9020  146.1060 O   0  0  0  0  0  0  0  0  0  0  0  0
  190.0220  176.9690  145.7260 C   0  0  0  0  0  0  0  0  0  0  0  0
  188.9120  177.1750  146.7150 C   0  0  1  0  0  3  0  0  0  0  0  0
  189.3690  177.8840  147.9820 C   0  0  0  0  0  1  0  0  0  0  0  0
  187.7050  177.8720  146.0900 C   0  0  0  0  0  2  0  0  0  0  0  0
  186.5320  177.9980  147.0590 C   0  0  2  0  0  3  0  0  0  0  0  0
  184.2800  178.2860  147.0660 O   0  0  0  0  0  1  0  0  0  0  0  0
  185.3940  178.6200  146.3680 N   0  0  0  0  0  0  0  0  0  0  0  0
  186.2350  179.4020  147.2800 C   0  0  0  0  0  2  0  0  0  0  0  0
  1  6  1  0  0  0  0
  2  3  1  0  0  0  0
  4  8  1  0  0  0  0
  4  7  1  0  0  0  0
  5  4  2  0  0  0  0
  6  7  2  0  0  0  0
  7 10  1  0  0  0  0
  8  2  2  0  0  0  0
  9  5  1  0  0  0  0
  9  1  2  0  0  0  0
 10  3  2  0  0  0  0
 10 44  1  0  0  0  0
 12 24  1  1  0  0  0
 13 18  1  0  0  0  0
 14 23  1  0  0  0  0
 14 20  1  0  0  0  0
 15  2  1  1  0  0  0
 15 16  1  0  0  0  0
 15 21  1  0  0  0  0
 16 23  1  6  0  0  0
 17 18  2  0  0  0  0
 18 12  1  0  0  0  0
 19 20  1  1  0  0  0
 19 16  1  0  0  0  0
 19 12  1  0  0  0  0
 20 22  1  0  0  0  0
 21 13  1  0  0  0  0
 21 11  2  0  0  0  0
 24 25  1  0  0  0  0
 25 26  1  0  0  0  0
 27 26  1  0  0  0  0
 27 30  1  0  0  0  0
 28 30  1  0  0  0  0
 30 29  2  0  0  0  0
 31  1  1  0  0  0  0
 33 38  1  6  0  0  0
 33 32  1  0  0  0  0
 33 35  1  0  0  0  0
 34 31  1  6  0  0  0
 34 35  1  0  0  0  0
 36 33  1  0  0  0  0
 36 34  1  0  0  0  0
 36 32  1  1  0  0  0
 38 41  1  0  0  0  0
 39 38  2  0  0  0  0
 40 42  1  0  0  0  0
 40 41  1  0  0  0  0
 41 37  1  0  0  0  0
 42 43  1  0  0  0  0
 43 37  1  0  0  0  0
 44 45  1  0  0  0  0
 46 47  1  0  0  0  0
 47 50  1  1  0  0  0
 48 45  1  1  0  0  0
 48 49  1  0  0  0  0
 48 46  1  0  0  0  0
 49 47  1  0  0  0  0
 50 52  1  0  0  0  0
 52 51  2  0  0  0  0
 52 53  1  0  0  0  0
 53 54  1  1  0  0  0
 55 53  1  0  0  0  0
 56 55  1  6  0  0  0
 56 59  1  0  0  0  0
 58 56  1  0  0  0  0
 58 57  1  0  0  0  0
 58 59  1  0  0  0  0
M  END
>  <MODEL>
1

>  <REMARK>
 VINA RESULT:      -8.9      0.000      0.000
  Name = 
  16 active torsions:
  status: ('A' for Active; 'I' for Inactive)
    1  A    between atoms: C_3  and  C_25
    2  A    between atoms: C_4  and  N_43
    3  A    between atoms: C_5  and  C_7
    4  A    between atoms: C_5  and  C_14
    5  A    between atoms: C_6  and  C_11
    6  A    between atoms: C_7  and  C_9
    7  A    between atoms: C_8  and  C_29
    8  A    between atoms: C_9  and  C_21
    9  A    between atoms: C_13  and  C_25
   10  A    between atoms: C_13  and  C_57
   11  A    between atoms: N_15  and  C_26
   12  A    between atoms: C_19  and  N_43
   13  A    between atoms: C_21  and  C_56
   14  A    between atoms: N_30  and  C_39
   15  A    between atoms: N_30  and  C_51
   16  A    between atoms: C_51  and  C_54
                            x       y       z     vdW  Elec       q    Type
                         _______ _______ _______ _____ _____    ______ ____

>  <TORSDO>
F 16

$$$$
=
 OpenBabel10232409523D

 59 67  0  0  1  0  0  0  0  0999 V2000
  190.3790  175.8830  137.3520 C   0  0  0  0  0  0  0  0  0  0  0  0
  185.8340  177.8740  138.2290 C   0  0  0  0  0  0  0  0  0  0  0  0
  186.6750  178.3940  139.1640 N   0  0  0  0  0  0  0  0  0  0  0  0
  187.6660  176.6010  137.3160 C   0  0  0  0  0  0  0  0  0  0  0  0
  188.1600  175.6910  136.3810 C   0  0  0  0  0  3  0  0  0  0  0  0
  189.8840  176.7940  138.2890 C   0  0  0  0  0  3  0  0  0  0  0  0
  188.5270  177.1610  138.2830 C   0  0  0  0  0  0  0  0  0  0  0  0
  186.3190  176.9490  137.3000 C   0  0  0  0  0  3  0  0  0  0  0  0
  189.5120  175.3350  136.3980 C   0  0  0  0  0  3  0  0  0  0  0  0
  187.9960  178.0670  139.2190 C   0  0  0  0  0  0  0  0  0  0  0  0
  185.0070  179.8110  139.9770 O   0  0  0  0  0  0  0  0  0  0  0  0
  181.2620  178.1520  139.1940 C   0  0  1  0  0  3  0  0  0  0  0  0
  182.8790  180.1400  139.1290 N   0  0  0  0  0  2  0  0  0  0  0  0
  182.4820  175.2220  137.3030 N   0  0  0  0  0  2  0  0  0  0  0  0
  184.3690  178.2200  138.2790 C   0  0  1  0  0  3  0  0  0  0  0  0
  183.4820  177.0030  138.5900 C   0  0  1  0  0  3  0  0  0  0  0  0
  180.6270  180.3730  138.6050 O   0  0  0  0  0  0  0  0  0  0  0  0
  181.5680  179.5970  138.9330 C   0  0  0  0  0  0  0  0  0  0  0  0
  182.0600  177.2770  138.2180 C   0  0  1  0  0  3  0  0  0  0  0  0
  181.4410  176.0100  137.8270 N   0  0  0  0  0  0  0  0  0  0  0  0
  184.1020  179.3980  139.1990 C   0  0  0  0  0  0  0  0  0  0  0  0
  180.9250  175.2950  138.9820 C   0  0  0  0  0  1  0  0  0  0  0  0
  183.7650  175.8260  137.6890 C   0  0  0  0  0  2  0  0  0  0  0  0
  181.5210  177.7990  140.6650 C   0  0  0  0  0  2  0  0  0  0  0  0
  180.5500  178.5160  141.5890 C   0  0  0  0  0  2  0  0  0  0  0  0
  181.2980  179.2660  142.6670 C   0  0  0  0  0  2  0  0  0  0  0  0
  182.7430  178.8130  142.6800 C   0  0  0  0  0  2  0  0  0  0  0  0
  184.4880  180.0430  144.0330 N   0  0  0  0  0  1  0  0  0  0  0  0
  182.9140  178.6670  145.0510 O   0  0  0  0  0  0  0  0  0  0  0  0
  183.3740  179.1570  143.9860 C   0  0  0  0  0  0  0  0  0  0  0  0
  191.7640  175.5210  137.3900 N   0  0  0  0  0  2  0  0  0  0  0  0
  194.8760  176.3380  135.4070 C   0  0  0  0  0  2  0  0  0  0  0  0
  194.7940  175.0980  136.2830 C   0  0  2  0  0  0  0  0  0  0  0  0
  192.6370  175.5580  136.2250 C   0  0  2  0  0  3  0  0  0  0  0  0
  193.4340  173.9390  135.9880 S   0  0  0  0  0  0  0  0  0  0  0  0
  193.9090  176.3050  136.5690 C   0  0  2  0  0  3  0  0  0  0  0  0
  197.6850  174.4850  135.8030 C   0  0  0  0  0  2  0  0  0  0  0  0
  195.7610  174.8810  137.4080 C   0  0  0  0  0  0  0  0  0  0  0  0
  195.3450  174.8930  138.6040 O   0  0  0  0  0  0  0  0  0  0  0  0
  198.1390  174.4720  138.1790 C   0  0  0  0  0  2  0  0  0  0  0  0
  197.1440  174.6360  137.1360 N   0  0  0  0  0  0  0  0  0  0  0  0
  199.4190  174.1040  137.4650 C   0  0  0  0  0  2  0  0  0  0  0  0
  199.1840  174.3660  135.9850 C   0  0  0  0  0  2  0  0  0  0  0  0
  188.8480  178.6530  140.3050 C   0  0  0  0  0  2  0  0  0  0  0  0
  188.9340  177.7390  141.4360 N   0  0  0  0  0  2  0  0  0  0  0  0
  187.6260  176.3640  142.9540 C   0  0  0  0  0  2  0  0  0  0  0  0
  187.0870  177.4010  143.9200 C   0  0  2  0  0  3  0  0  0  0  0  0
  187.5790  177.3750  141.8260 C   0  0  1  0  0  3  0  0  0  0  0  0
  187.0320  178.4100  142.7890 C   0  0  0  0  0  2  0  0  0  0  0  0
  188.1230  177.7870  144.8640 N   0  0  0  0  0  2  0  0  0  0  0  0
  186.8060  177.4160  146.7480 O   0  0  0  0  0  0  0  0  0  0  0  0
  187.9320  177.7200  146.2780 C   0  0  0  0  0  0  0  0  0  0  0  0
  189.0990  177.9750  147.1850 C   0  0  1  0  0  3  0  0  0  0  0  0
  188.6840  178.3190  148.6080 C   0  0  0  0  0  1  0  0  0  0  0  0
  190.1090  176.8290  147.1610 C   0  0  0  0  0  2  0  0  0  0  0  0
  191.2770  177.0950  146.2140 C   0  0  2  0  0  3  0  0  0  0  0  0
  191.8730  176.8300  144.0390 O   0  0  0  0  0  1  0  0  0  0  0  0
  191.1390  176.2480  145.0200 N   0  0  0  0  0  0  0  0  0  0  0  0
  192.0810  175.8920  146.0860 C   0  0  0  0  0  2  0  0  0  0  0  0
  1 31  1  0  0  0  0
  1  6  1  0  0  0  0
  2  3  1  0  0  0  0
  3 10  2  0  0  0  0
  4  7  1  0  0  0  0
  5  9  1  0  0  0  0
  5  4  2  0  0  0  0
  7  6  2  0  0  0  0
  7 10  1  0  0  0  0
  8  4  1  0  0  0  0
  8  2  2  0  0  0  0
  9  1  2  0  0  0  0
 10 44  1  0  0  0  0
 12 24  1  1  0  0  0
 13 21  1  0  0  0  0
 14 23  1  0  0  0  0
 14 20  1  0  0  0  0
 15  2  1  1  0  0  0
 15 16  1  0  0  0  0
 15 21  1  0  0  0  0
 16 23  1  6  0  0  0
 17 18  2  0  0  0  0
 18 13  1  0  0  0  0
 18 12  1  0  0  0  0
 19 20  1  1  0  0  0
 19 16  1  0  0  0  0
 19 12  1  0  0  0  0
 20 22  1  0  0  0  0
 21 11  2  0  0  0  0
 24 25  1  0  0  0  0
 25 26  1  0  0  0  0
 26 27  1  0  0  0  0
 27 30  1  0  0  0  0
 30 28  1  0  0  0  0
 30 29  2  0  0  0  0
 32 33  1  0  0  0  0
 33 36  1  0  0  0  0
 33 38  1  1  0  0  0
 34 36  1  0  0  0  0
 34 31  1  1  0  0  0
 35 34  1  0  0  0  0
 35 33  1  0  0  0  0
 36 32  1  6  0  0  0
 37 43  1  0  0  0  0
 37 41  1  0  0  0  0
 38 39  2  0  0  0  0
 41 38  1  0  0  0  0
 41 40  1  0  0  0  0
 42 40  1  0  0  0  0
 43 42  1  0  0  0  0
 44 45  1  0  0  0  0
 46 47  1  0  0  0  0
 47 50  1  1  0  0  0
 48 45  1  1  0  0  0
 48 49  1  0  0  0  0
 48 46  1  0  0  0  0
 49 47  1  0  0  0  0
 50 52  1  0  0  0  0
 52 51  2  0  0  0  0
 52 53  1  0  0  0  0
 53 54  1  1  0  0  0
 55 53  1  0  0  0  0
 56 55  1  1  0  0  0
 57 58  1  0  0  0  0
 58 59  1  0  0  0  0
 58 56  1  0  0  0  0
 59 56  1  0  0  0  0
M  END
>  <MODEL>
2

>  <REMARK>
 VINA RESULT:      -8.2      1.465      2.467
  Name = 
  16 active torsions:
  status: ('A' for Active; 'I' for Inactive)
    1  A    between atoms: C_3  and  C_25
    2  A    between atoms: C_4  and  N_43
    3  A    between atoms: C_5  and  C_7
    4  A    between atoms: C_5  and  C_14
    5  A    between atoms: C_6  and  C_11
    6  A    between atoms: C_7  and  C_9
    7  A    between atoms: C_8  and  C_29
    8  A    between atoms: C_9  and  C_21
    9  A    between atoms: C_13  and  C_25
   10  A    between atoms: C_13  and  C_57
   11  A    between atoms: N_15  and  C_26
   12  A    between atoms: C_19  and  N_43
   13  A    between atoms: C_21  and  C_56
   14  A    between atoms: N_30  and  C_39
   15  A    between atoms: N_30  and  C_51
   16  A    between atoms: C_51  and  C_54
                            x       y       z     vdW  Elec       q    Type
                         _______ _______ _______ _____ _____    ______ ____

>  <TORSDO>
F 16

$$$$
=
 OpenBabel10232409523D

 59 67  0  0  1  0  0  0  0  0999 V2000
  193.1760  175.7780  136.9960 C   0  0  0  0  0  0  0  0  0  0  0  0
  188.1630  176.2070  136.7330 C   0  0  0  0  0  0  0  0  0  0  0  0
  188.5430  176.7850  137.9040 N   0  0  0  0  0  0  0  0  0  0  0  0
  190.4680  175.6820  136.2650 C   0  0  0  0  0  0  0  0  0  0  0  0
  191.4360  175.1200  135.4320 C   0  0  0  0  0  3  0  0  0  0  0  0
  192.2060  176.3420  137.8300 C   0  0  0  0  0  3  0  0  0  0  0  0
  190.8460  176.2990  137.4750 C   0  0  0  0  0  0  0  0  0  0  0  0
  189.1260  175.6260  135.9030 C   0  0  0  0  0  3  0  0  0  0  0  0
  192.7860  175.1690  135.7960 C   0  0  0  0  0  3  0  0  0  0  0  0
  189.8450  176.8470  138.2980 C   0  0  0  0  0  0  0  0  0  0  0  0
  186.5030  178.2460  137.4940 O   0  0  0  0  0  0  0  0  0  0  0  0
  183.5510  175.4020  136.7290 C   0  0  1  0  0  3  0  0  0  0  0  0
  184.6540  177.6620  136.2310 N   0  0  0  0  0  2  0  0  0  0  0  0
  185.8340  172.5350  136.2630 N   0  0  0  0  0  2  0  0  0  0  0  0
  186.6960  176.1040  136.4020 C   0  0  1  0  0  3  0  0  0  0  0  0
  186.0470  174.8320  136.9720 C   0  0  1  0  0  3  0  0  0  0  0  0
  182.6250  177.0520  135.2790 O   0  0  0  0  0  0  0  0  0  0  0  0
  183.5920  176.7250  136.0220 C   0  0  0  0  0  0  0  0  0  0  0  0
  184.7480  174.5500  136.2880 C   0  0  1  0  0  3  0  0  0  0  0  0
  184.5460  173.1010  136.2790 N   0  0  0  0  0  0  0  0  0  0  0  0
  185.9470  177.3700  136.7740 C   0  0  0  0  0  0  0  0  0  0  0  0
  183.9130  172.6490  137.5070 C   0  0  0  0  0  1  0  0  0  0  0  0
  186.8060  173.5770  136.6200 C   0  0  0  0  0  2  0  0  0  0  0  0
  183.4850  175.6010  138.2500 C   0  0  0  0  0  2  0  0  0  0  0  0
  182.0680  175.9020  138.7100 C   0  0  0  0  0  2  0  0  0  0  0  0
  182.0830  176.8540  139.8840 C   0  0  0  0  0  2  0  0  0  0  0  0
  183.4030  177.5950  139.9110 C   0  0  0  0  0  2  0  0  0  0  0  0
  184.2900  179.8670  139.2530 N   0  0  0  0  0  1  0  0  0  0  0  0
  182.0240  179.5170  139.6360 O   0  0  0  0  0  0  0  0  0  0  0  0
  183.1870  179.0360  139.6000 C   0  0  0  0  0  0  0  0  0  0  0  0
  194.5530  175.8290  137.3880 N   0  0  0  0  0  2  0  0  0  0  0  0
  197.5340  173.5540  136.9220 C   0  0  0  0  0  2  0  0  0  0  0  0
  196.1120  173.0150  136.9000 C   0  0  2  0  0  0  0  0  0  0  0  0
  195.6200  175.1540  136.6630 C   0  0  2  0  0  3  0  0  0  0  0  0
  194.9450  173.7470  135.7240 S   0  0  0  0  0  0  0  0  0  0  0  0
  196.4340  174.3150  137.6280 C   0  0  2  0  0  3  0  0  0  0  0  0
  196.2990  170.0890  136.2940 C   0  0  0  0  0  2  0  0  0  0  0  0
  195.6650  171.9690  137.8770 C   0  0  0  0  0  0  0  0  0  0  0  0
  195.1330  172.3170  138.9710 O   0  0  0  0  0  0  0  0  0  0  0  0
  195.4540  169.5190  138.4870 C   0  0  0  0  0  2  0  0  0  0  0  0
  195.8150  170.5800  137.5660 N   0  0  0  0  0  0  0  0  0  0  0  0
  195.6430  168.2320  137.7200 C   0  0  0  0  0  2  0  0  0  0  0  0
  196.4080  168.5880  136.4530 C   0  0  0  0  0  2  0  0  0  0  0  0
  190.1780  177.4660  139.6230 C   0  0  0  0  0  2  0  0  0  0  0  0
  189.7680  176.5910  140.7130 N   0  0  0  0  0  2  0  0  0  0  0  0
  190.4820  177.8690  142.6520 C   0  0  0  0  0  2  0  0  0  0  0  0
  190.1000  176.9410  143.7880 C   0  0  2  0  0  3  0  0  0  0  0  0
  190.7730  176.6770  141.7620 C   0  0  1  0  0  3  0  0  0  0  0  0
  190.3990  175.7490  142.9010 C   0  0  0  0  0  2  0  0  0  0  0  0
  188.6690  177.0170  144.0320 N   0  0  0  0  0  2  0  0  0  0  0  0
  188.8850  177.2530  146.3390 O   0  0  0  0  0  0  0  0  0  0  0  0
  188.1260  177.2280  145.3370 C   0  0  0  0  0  0  0  0  0  0  0  0
  186.6500  177.4600  145.4840 C   0  0  1  0  0  3  0  0  0  0  0  0
  186.3060  178.3790  146.6470 C   0  0  0  0  0  1  0  0  0  0  0  0
  186.0110  177.9420  144.1840 C   0  0  0  0  0  2  0  0  0  0  0  0
  184.6790  178.6530  144.4120 C   0  0  2  0  0  3  0  0  0  0  0  0
  182.6540  178.9530  143.4280 O   0  0  0  0  0  1  0  0  0  0  0  0
  183.9660  178.7760  143.1320 N   0  0  0  0  0  0  0  0  0  0  0  0
  184.6790  179.9220  143.7060 C   0  0  0  0  0  2  0  0  0  0  0  0
  1 31  1  0  0  0  0
  1  6  1  0  0  0  0
  2  3  1  0  0  0  0
  3 10  2  0  0  0  0
  4  7  1  0  0  0  0
  5  9  1  0  0  0  0
  5  4  2  0  0  0  0
  7  6  2  0  0  0  0
  7 10  1  0  0  0  0
  8  4  1  0  0  0  0
  8  2  2  0  0  0  0
  9  1  2  0  0  0  0
 10 44  1  0  0  0  0
 12 24  1  1  0  0  0
 13 21  1  0  0  0  0
 14 20  1  0  0  0  0
 14 23  1  0  0  0  0
 15  2  1  1  0  0  0
 15 21  1  0  0  0  0
 15 16  1  0  0  0  0
 16 23  1  6  0  0  0
 17 18  2  0  0  0  0
 18 13  1  0  0  0  0
 18 12  1  0  0  0  0
 19 20  1  1  0  0  0
 19 12  1  0  0  0  0
 19 16  1  0  0  0  0
 20 22  1  0  0  0  0
 21 11  2  0  0  0  0
 24 25  1  0  0  0  0
 25 26  1  0  0  0  0
 26 27  1  0  0  0  0
 28 30  1  0  0  0  0
 30 29  2  0  0  0  0
 30 27  1  0  0  0  0
 33 32  1  0  0  0  0
 33 36  1  0  0  0  0
 33 38  1  1  0  0  0
 34 31  1  1  0  0  0
 34 36  1  0  0  0  0
 35 34  1  0  0  0  0
 35 33  1  0  0  0  0
 36 32  1  6  0  0  0
 37 43  1  0  0  0  0
 37 41  1  0  0  0  0
 38 39  2  0  0  0  0
 41 38  1  0  0  0  0
 41 40  1  0  0  0  0
 42 40  1  0  0  0  0
 43 42  1  0  0  0  0
 44 45  1  0  0  0  0
 46 47  1  0  0  0  0
 47 50  1  6  0  0  0
 48 45  1  6  0  0  0
 48 46  1  0  0  0  0
 48 49  1  0  0  0  0
 49 47  1  0  0  0  0
 50 52  1  0  0  0  0
 52 53  1  0  0  0  0
 52 51  2  0  0  0  0
 53 54  1  1  0  0  0
 55 53  1  0  0  0  0
 56 55  1  6  0  0  0
 58 57  1  0  0  0  0
 58 59  1  0  0  0  0
 58 56  1  0  0  0  0
 59 56  1  0  0  0  0
M  END
>  <MODEL>
3

>  <REMARK>
 VINA RESULT:      -7.7      2.491      3.779
  Name = 
  16 active torsions:
  status: ('A' for Active; 'I' for Inactive)
    1  A    between atoms: C_3  and  C_25
    2  A    between atoms: C_4  and  N_43
    3  A    between atoms: C_5  and  C_7
    4  A    between atoms: C_5  and  C_14
    5  A    between atoms: C_6  and  C_11
    6  A    between atoms: C_7  and  C_9
    7  A    between atoms: C_8  and  C_29
    8  A    between atoms: C_9  and  C_21
    9  A    between atoms: C_13  and  C_25
   10  A    between atoms: C_13  and  C_57
   11  A    between atoms: N_15  and  C_26
   12  A    between atoms: C_19  and  N_43
   13  A    between atoms: C_21  and  C_56
   14  A    between atoms: N_30  and  C_39
   15  A    between atoms: N_30  and  C_51
   16  A    between atoms: C_51  and  C_54
                            x       y       z     vdW  Elec       q    Type
                         _______ _______ _______ _____ _____    ______ ____

>  <TORSDO>
F 16

$$$$
=
 OpenBabel10232409523D

 59 67  0  0  1  0  0  0  0  0999 V2000
  193.3090  176.1150  136.6420 C   0  0  0  0  0  0  0  0  0  0  0  0
  188.2720  176.1990  136.7410 C   0  0  0  0  0  0  0  0  0  0  0  0
  188.6900  176.3370  138.0280 N   0  0  0  0  0  0  0  0  0  0  0  0
  190.5710  176.0720  136.0270 C   0  0  0  0  0  0  0  0  0  0  0  0
  191.5170  175.9350  135.0110 C   0  0  0  0  0  3  0  0  0  0  0  0
  192.3610  176.2520  137.6600 C   0  0  0  0  0  3  0  0  0  0  0  0
  190.9870  176.2310  137.3650 C   0  0  0  0  0  0  0  0  0  0  0  0
  189.2140  176.0440  135.7200 C   0  0  0  0  0  3  0  0  0  0  0  0
  192.8810  175.9580  135.3170 C   0  0  0  0  0  3  0  0  0  0  0  0
  190.0080  176.3560  138.3690 C   0  0  0  0  0  0  0  0  0  0  0  0
  186.6120  178.1200  137.7640 O   0  0  0  0  0  0  0  0  0  0  0  0
  183.6750  175.3200  136.8070 C   0  0  1  0  0  3  0  0  0  0  0  0
  184.7280  177.6380  136.5090 N   0  0  0  0  0  2  0  0  0  0  0  0
  185.9790  172.5560  135.9710 N   0  0  0  0  0  2  0  0  0  0  0  0
  186.7970  176.1060  136.4500 C   0  0  1  0  0  3  0  0  0  0  0  0
  186.1850  174.7710  136.9070 C   0  0  1  0  0  3  0  0  0  0  0  0
  182.6760  177.0940  135.5670 O   0  0  0  0  0  0  0  0  0  0  0  0
  183.6730  176.7090  136.2390 C   0  0  0  0  0  0  0  0  0  0  0  0
  184.8670  174.5380  136.2400 C   0  0  1  0  0  3  0  0  0  0  0  0
  184.6850  173.0940  136.0880 N   0  0  0  0  0  0  0  0  0  0  0  0
  186.0440  177.3140  136.9760 C   0  0  0  0  0  0  0  0  0  0  0  0
  184.1010  172.5080  137.2830 C   0  0  0  0  0  1  0  0  0  0  0  0
  186.9480  173.5720  136.4010 C   0  0  0  0  0  2  0  0  0  0  0  0
  183.6590  175.3600  138.3410 C   0  0  0  0  0  2  0  0  0  0  0  0
  182.3120  175.8240  138.8710 C   0  0  0  0  0  2  0  0  0  0  0  0
  182.4930  176.6790  140.1050 C   0  0  0  0  0  2  0  0  0  0  0  0
  182.9090  178.0750  139.6900 C   0  0  0  0  0  2  0  0  0  0  0  0
  184.8750  179.6080  140.1000 N   0  0  0  0  0  1  0  0  0  0  0  0
  184.2340  178.0150  141.6680 O   0  0  0  0  0  0  0  0  0  0  0  0
  184.0340  178.5490  140.5450 C   0  0  0  0  0  0  0  0  0  0  0  0
  194.7020  176.1300  136.9740 N   0  0  0  0  0  2  0  0  0  0  0  0
  195.0810  172.6700  138.4440 C   0  0  0  0  0  2  0  0  0  0  0  0
  195.1270  172.9050  136.9420 C   0  0  2  0  0  0  0  0  0  0  0  0
  195.3970  175.0010  137.5760 C   0  0  2  0  0  3  0  0  0  0  0  0
  196.3350  174.0950  136.3060 S   0  0  0  0  0  0  0  0  0  0  0  0
  194.4070  173.8890  137.8560 C   0  0  2  0  0  3  0  0  0  0  0  0
  194.5410  169.9730  137.1050 C   0  0  0  0  0  2  0  0  0  0  0  0
  194.1490  172.2350  136.0240 C   0  0  0  0  0  0  0  0  0  0  0  0
  193.5910  172.9040  135.1050 O   0  0  0  0  0  0  0  0  0  0  0  0
  192.8890  170.1440  135.3460 C   0  0  0  0  0  2  0  0  0  0  0  0
  193.8630  170.8400  136.1650 N   0  0  0  0  0  0  0  0  0  0  0  0
  193.0010  168.6880  135.7300 C   0  0  0  0  0  2  0  0  0  0  0  0
  193.8430  168.6340  136.9970 C   0  0  0  0  0  2  0  0  0  0  0  0
  190.3870  176.4720  139.8160 C   0  0  0  0  0  2  0  0  0  0  0  0
  189.9320  177.7430  140.3620 N   0  0  0  0  0  2  0  0  0  0  0  0
  188.2400  176.6750  141.7410 C   0  0  0  0  0  2  0  0  0  0  0  0
  187.8010  177.8210  142.6300 C   0  0  2  0  0  3  0  0  0  0  0  0
  188.5000  177.6430  140.6040 C   0  0  1  0  0  3  0  0  0  0  0  0
  188.0530  178.7890  141.4910 C   0  0  0  0  0  2  0  0  0  0  0  0
  188.7830  178.0420  143.6790 N   0  0  0  0  0  2  0  0  0  0  0  0
  187.3040  177.5860  145.4190 O   0  0  0  0  0  0  0  0  0  0  0  0
  188.4800  177.8540  145.0620 C   0  0  0  0  0  0  0  0  0  0  0  0
  189.5880  177.9390  146.0710 C   0  0  1  0  0  3  0  0  0  0  0  0
  189.0880  177.9160  147.5080 C   0  0  0  0  0  1  0  0  0  0  0  0
  190.6620  176.8780  145.8360 C   0  0  0  0  0  2  0  0  0  0  0  0
  191.1530  176.2420  147.1350 C   0  0  2  0  0  3  0  0  0  0  0  0
  192.8910  176.3400  148.5930 O   0  0  0  0  0  1  0  0  0  0  0  0
  192.5970  176.4760  147.2760 N   0  0  0  0  0  0  0  0  0  0  0  0
  192.0900  175.1760  146.8280 C   0  0  0  0  0  2  0  0  0  0  0  0
  1 31  1  0  0  0  0
  1  6  1  0  0  0  0
  2  3  1  0  0  0  0
  3 10  2  0  0  0  0
  4  7  1  0  0  0  0
  5  9  1  0  0  0  0
  5  4  2  0  0  0  0
  7  6  2  0  0  0  0
  7 10  1  0  0  0  0
  8  4  1  0  0  0  0
  8  2  2  0  0  0  0
  9  1  2  0  0  0  0
 10 44  1  0  0  0  0
 12 24  1  1  0  0  0
 13 21  1  0  0  0  0
 14 20  1  0  0  0  0
 14 23  1  0  0  0  0
 15  2  1  1  0  0  0
 15 16  1  0  0  0  0
 15 21  1  0  0  0  0
 16 23  1  6  0  0  0
 17 18  2  0  0  0  0
 18 13  1  0  0  0  0
 18 12  1  0  0  0  0
 19 20  1  1  0  0  0
 19 12  1  0  0  0  0
 19 16  1  0  0  0  0
 20 22  1  0  0  0  0
 21 11  2  0  0  0  0
 24 25  1  0  0  0  0
 25 26  1  0  0  0  0
 27 26  1  0  0  0  0
 27 30  1  0  0  0  0
 28 30  1  0  0  0  0
 30 29  2  0  0  0  0
 33 38  1  6  0  0  0
 33 36  1  0  0  0  0
 33 32  1  0  0  0  0
 34 31  1  6  0  0  0
 34 36  1  0  0  0  0
 35 33  1  0  0  0  0
 35 34  1  0  0  0  0
 36 32  1  1  0  0  0
 38 41  1  0  0  0  0
 39 38  2  0  0  0  0
 40 42  1  0  0  0  0
 40 41  1  0  0  0  0
 41 37  1  0  0  0  0
 42 43  1  0  0  0  0
 43 37  1  0  0  0  0
 44 45  1  0  0  0  0
 46 47  1  0  0  0  0
 47 50  1  1  0  0  0
 48 45  1  1  0  0  0
 48 49  1  0  0  0  0
 48 46  1  0  0  0  0
 49 47  1  0  0  0  0
 50 52  1  0  0  0  0
 52 51  2  0  0  0  0
 52 53  1  0  0  0  0
 53 54  1  1  0  0  0
 55 53  1  0  0  0  0
 56 55  1  6  0  0  0
 56 58  1  0  0  0  0
 58 57  1  0  0  0  0
 59 56  1  0  0  0  0
 59 58  1  0  0  0  0
M  END
>  <MODEL>
4

>  <REMARK>
 VINA RESULT:      -7.7      2.609      4.184
  Name = 
  16 active torsions:
  status: ('A' for Active; 'I' for Inactive)
    1  A    between atoms: C_3  and  C_25
    2  A    between atoms: C_4  and  N_43
    3  A    between atoms: C_5  and  C_7
    4  A    between atoms: C_5  and  C_14
    5  A    between atoms: C_6  and  C_11
    6  A    between atoms: C_7  and  C_9
    7  A    between atoms: C_8  and  C_29
    8  A    between atoms: C_9  and  C_21
    9  A    between atoms: C_13  and  C_25
   10  A    between atoms: C_13  and  C_57
   11  A    between atoms: N_15  and  C_26
   12  A    between atoms: C_19  and  N_43
   13  A    between atoms: C_21  and  C_56
   14  A    between atoms: N_30  and  C_39
   15  A    between atoms: N_30  and  C_51
   16  A    between atoms: C_51  and  C_54
                            x       y       z     vdW  Elec       q    Type
                         _______ _______ _______ _____ _____    ______ ____

>  <TORSDO>
F 16

$$$$
=
 OpenBabel10232409523D

 59 67  0  0  1  0  0  0  0  0999 V2000
  193.6620  176.0370  136.1800 C   0  0  0  0  0  0  0  0  0  0  0  0
  188.6270  176.1940  136.2840 C   0  0  0  0  0  0  0  0  0  0  0  0
  189.0460  176.2570  137.5760 N   0  0  0  0  0  0  0  0  0  0  0  0
  190.9240  176.0700  135.5640 C   0  0  0  0  0  0  0  0  0  0  0  0
  191.8690  175.9720  134.5420 C   0  0  0  0  0  3  0  0  0  0  0  0
  192.7160  176.1350  137.2040 C   0  0  0  0  0  3  0  0  0  0  0  0
  191.3410  176.1510  136.9090 C   0  0  0  0  0  0  0  0  0  0  0  0
  189.5670  176.0780  135.2560 C   0  0  0  0  0  3  0  0  0  0  0  0
  193.2330  175.9570  134.8490 C   0  0  0  0  0  3  0  0  0  0  0  0
  190.3640  176.2380  137.9180 C   0  0  0  0  0  0  0  0  0  0  0  0
  187.0910  178.3790  136.8820 O   0  0  0  0  0  0  0  0  0  0  0  0
  183.9820  175.6380  136.4300 C   0  0  1  0  0  3  0  0  0  0  0  0
  185.1870  177.7820  135.7090 N   0  0  0  0  0  2  0  0  0  0  0  0
  186.1040  172.6230  136.1900 N   0  0  0  0  0  2  0  0  0  0  0  0
  187.1510  176.1400  135.9870 C   0  0  1  0  0  3  0  0  0  0  0  0
  186.4500  174.9610  136.6830 C   0  0  1  0  0  3  0  0  0  0  0  0
  183.1100  177.1960  134.8510 O   0  0  0  0  0  0  0  0  0  0  0  0
  184.0750  176.8860  135.6040 C   0  0  0  0  0  0  0  0  0  0  0  0
  185.1240  174.6860  136.0490 C   0  0  1  0  0  3  0  0  0  0  0  0
  184.8480  173.2550  136.1760 N   0  0  0  0  0  0  0  0  0  0  0  0
  186.4750  177.4720  136.2550 C   0  0  0  0  0  0  0  0  0  0  0  0
  184.2190  172.9500  137.4500 C   0  0  0  0  0  1  0  0  0  0  0  0
  187.1360  173.6400  136.4340 C   0  0  0  0  0  2  0  0  0  0  0  0
  183.9580  175.9770  137.9270 C   0  0  0  0  0  2  0  0  0  0  0  0
  183.1800  177.2540  138.1960 C   0  0  0  0  0  2  0  0  0  0  0  0
  182.7820  177.3360  139.6520 C   0  0  0  0  0  2  0  0  0  0  0  0
  182.9180  178.7670  140.1280 C   0  0  0  0  0  2  0  0  0  0  0  0
  185.4310  178.7910  139.8710 N   0  0  0  0  0  1  0  0  0  0  0  0
  184.0950  180.3950  138.8490 O   0  0  0  0  0  0  0  0  0  0  0  0
  184.1640  179.3720  139.5790 C   0  0  0  0  0  0  0  0  0  0  0  0
  195.0550  176.0130  136.5130 N   0  0  0  0  0  2  0  0  0  0  0  0
  197.7150  173.3310  136.4130 C   0  0  0  0  0  2  0  0  0  0  0  0
  196.2370  172.9820  136.4850 C   0  0  2  0  0  0  0  0  0  0  0  0
  196.0110  175.0990  135.9040 C   0  0  2  0  0  3  0  0  0  0  0  0
  195.1430  173.6570  135.2090 S   0  0  0  0  0  0  0  0  0  0  0  0
  196.7370  174.3310  136.9890 C   0  0  2  0  0  3  0  0  0  0  0  0
  195.6390  170.0610  136.2140 C   0  0  0  0  0  2  0  0  0  0  0  0
  195.6880  172.1720  137.6200 C   0  0  0  0  0  0  0  0  0  0  0  0
  195.4040  172.7390  138.7160 O   0  0  0  0  0  0  0  0  0  0  0  0
  194.9810  169.9180  138.5370 C   0  0  0  0  0  2  0  0  0  0  0  0
  195.4590  170.7680  137.4630 N   0  0  0  0  0  0  0  0  0  0  0  0
  194.7550  168.5620  137.9120 C   0  0  0  0  0  2  0  0  0  0  0  0
  195.4070  168.6000  136.5380 C   0  0  0  0  0  2  0  0  0  0  0  0
  190.7430  176.2720  139.3680 C   0  0  0  0  0  2  0  0  0  0  0  0
  190.6540  177.6290  139.8880 N   0  0  0  0  0  2  0  0  0  0  0  0
  188.5590  176.8410  140.8330 C   0  0  0  0  0  2  0  0  0  0  0  0
  188.4010  177.7540  142.0330 C   0  0  2  0  0  3  0  0  0  0  0  0
  189.2460  177.9530  140.0650 C   0  0  1  0  0  3  0  0  0  0  0  0
  189.0800  178.8680  141.2620 C   0  0  0  0  0  2  0  0  0  0  0  0
  189.2690  177.3120  143.1120 N   0  0  0  0  0  2  0  0  0  0  0  0
  188.0650  178.4030  144.7800 O   0  0  0  0  0  0  0  0  0  0  0  0
  189.0110  177.6310  144.4800 C   0  0  0  0  0  0  0  0  0  0  0  0
  189.8560  177.0020  145.5480 C   0  0  1  0  0  3  0  0  0  0  0  0
  191.3310  176.9320  145.1770 C   0  0  0  0  0  1  0  0  0  0  0  0
  189.6550  177.6660  146.9080 C   0  0  0  0  0  2  0  0  0  0  0  0
  188.3330  177.2730  147.5640 C   0  0  2  0  0  3  0  0  0  0  0  0
  186.2130  178.0380  147.8450 O   0  0  0  0  0  1  0  0  0  0  0  0
  187.4940  178.4690  147.7240 N   0  0  0  0  0  0  0  0  0  0  0  0
  188.2280  177.9120  148.8650 C   0  0  0  0  0  2  0  0  0  0  0  0
  1 31  1  0  0  0  0
  1  6  1  0  0  0  0
  2  3  1  0  0  0  0
  3 10  2  0  0  0  0
  4  7  1  0  0  0  0
  5  9  1  0  0  0  0
  5  4  2  0  0  0  0
  7  6  2  0  0  0  0
  7 10  1  0  0  0  0
  8  4  1  0  0  0  0
  8  2  2  0  0  0  0
  9  1  2  0  0  0  0
 10 44  1  0  0  0  0
 12 24  1  1  0  0  0
 13 21  1  0  0  0  0
 14 23  1  0  0  0  0
 15 21  1  0  0  0  0
 15  2  1  1  0  0  0
 15 16  1  0  0  0  0
 16 23  1  6  0  0  0
 17 18  2  0  0  0  0
 18 13  1  0  0  0  0
 18 12  1  0  0  0  0
 19 20  1  1  0  0  0
 19 12  1  0  0  0  0
 19 16  1  0  0  0  0
 20 14  1  0  0  0  0
 20 22  1  0  0  0  0
 21 11  2  0  0  0  0
 24 25  1  0  0  0  0
 25 26  1  0  0  0  0
 26 27  1  0  0  0  0
 29 30  2  0  0  0  0
 30 28  1  0  0  0  0
 30 27  1  0  0  0  0
 32 33  1  0  0  0  0
 33 36  1  0  0  0  0
 33 38  1  1  0  0  0
 34 31  1  1  0  0  0
 34 36  1  0  0  0  0
 35 34  1  0  0  0  0
 35 33  1  0  0  0  0
 36 32  1  6  0  0  0
 37 43  1  0  0  0  0
 37 41  1  0  0  0  0
 38 39  2  0  0  0  0
 41 38  1  0  0  0  0
 41 40  1  0  0  0  0
 42 40  1  0  0  0  0
 43 42  1  0  0  0  0
 44 45  1  0  0  0  0
 46 47  1  0  0  0  0
 47 50  1  1  0  0  0
 48 45  1  1  0  0  0
 48 46  1  0  0  0  0
 48 49  1  0  0  0  0
 49 47  1  0  0  0  0
 50 52  1  0  0  0  0
 52 51  2  0  0  0  0
 52 53  1  0  0  0  0
 53 54  1  6  0  0  0
 53 55  1  0  0  0  0
 56 55  1  6  0  0  0
 56 58  1  0  0  0  0
 56 59  1  0  0  0  0
 58 57  1  0  0  0  0
 58 59  1  0  0  0  0
M  END
>  <MODEL>
5

>  <REMARK>
 VINA RESULT:      -6.6      2.559      3.993
  Name = 
  16 active torsions:
  status: ('A' for Active; 'I' for Inactive)
    1  A    between atoms: C_3  and  C_25
    2  A    between atoms: C_4  and  N_43
    3  A    between atoms: C_5  and  C_7
    4  A    between atoms: C_5  and  C_14
    5  A    between atoms: C_6  and  C_11
    6  A    between atoms: C_7  and  C_9
    7  A    between atoms: C_8  and  C_29
    8  A    between atoms: C_9  and  C_21
    9  A    between atoms: C_13  and  C_25
   10  A    between atoms: C_13  and  C_57
   11  A    between atoms: N_15  and  C_26
   12  A    between atoms: C_19  and  N_43
   13  A    between atoms: C_21  and  C_56
   14  A    between atoms: N_30  and  C_39
   15  A    between atoms: N_30  and  C_51
   16  A    between atoms: C_51  and  C_54
                            x       y       z     vdW  Elec       q    Type
                         _______ _______ _______ _____ _____    ______ ____

>  <TORSDO>
F 16

$$$$
=
 OpenBabel10232409523D

 59 67  0  0  1  0  0  0  0  0999 V2000
  191.7310  175.0280  137.2870 C   0  0  0  0  0  0  0  0  0  0  0  0
  186.8640  175.9870  136.4030 C   0  0  0  0  0  0  0  0  0  0  0  0
  187.4450  177.1760  136.7160 N   0  0  0  0  0  0  0  0  0  0  0  0
  188.9910  174.8910  136.6950 C   0  0  0  0  0  0  0  0  0  0  0  0
  189.7670  173.7310  136.6850 C   0  0  0  0  0  3  0  0  0  0  0  0
  190.9540  176.1900  137.2960 C   0  0  0  0  0  3  0  0  0  0  0  0
  189.5800  176.1340  137.0030 C   0  0  0  0  0  0  0  0  0  0  0  0
  187.6310  174.8180  136.4080 C   0  0  0  0  0  3  0  0  0  0  0  0
  191.1320  173.8000  136.9790 C   0  0  0  0  0  3  0  0  0  0  0  0
  188.7690  177.2840  137.0150 C   0  0  0  0  0  0  0  0  0  0  0  0
  185.2650  177.8140  137.6660 O   0  0  0  0  0  0  0  0  0  0  0  0
  182.2640  175.1360  136.5650 C   0  0  1  0  0  3  0  0  0  0  0  0
  183.3290  177.4640  136.4460 N   0  0  0  0  0  2  0  0  0  0  0  0
  184.5050  172.4480  135.3830 N   0  0  0  0  0  2  0  0  0  0  0  0
  185.3780  175.9310  136.1610 C   0  0  1  0  0  3  0  0  0  0  0  0
  184.7700  174.5630  136.5140 C   0  0  1  0  0  3  0  0  0  0  0  0
  181.2370  177.0250  135.5380 O   0  0  0  0  0  0  0  0  0  0  0  0
  182.2550  176.5720  136.1310 C   0  0  0  0  0  0  0  0  0  0  0  0
  183.4260  174.4030  135.8810 C   0  0  1  0  0  3  0  0  0  0  0  0
  183.2220  172.9810  135.6010 N   0  0  0  0  0  0  0  0  0  0  0  0
  184.6580  177.0890  136.8280 C   0  0  0  0  0  0  0  0  0  0  0  0
  182.6790  172.2880  136.7570 C   0  0  0  0  0  1  0  0  0  0  0  0
  185.5010  173.4120  135.8690 C   0  0  0  0  0  2  0  0  0  0  0  0
  182.3070  175.0310  138.0960 C   0  0  0  0  0  2  0  0  0  0  0  0
  181.0020  175.4940  138.7220 C   0  0  0  0  0  2  0  0  0  0  0  0
  181.2550  176.6040  139.7170 C   0  0  0  0  0  2  0  0  0  0  0  0
  182.7430  176.7110  139.9790 C   0  0  0  0  0  2  0  0  0  0  0  0
  183.9350  178.4060  141.4250 N   0  0  0  0  0  1  0  0  0  0  0  0
  182.6780  179.0580  139.5810 O   0  0  0  0  0  0  0  0  0  0  0  0
  183.1040  178.1200  140.3050 C   0  0  0  0  0  0  0  0  0  0  0  0
  193.1260  175.1150  137.5990 N   0  0  0  0  0  2  0  0  0  0  0  0
  196.6270  174.9450  136.1870 C   0  0  0  0  0  2  0  0  0  0  0  0
  195.7290  173.7180  136.2370 C   0  0  2  0  0  0  0  0  0  0  0  0
  194.1690  175.2390  136.5910 C   0  0  2  0  0  3  0  0  0  0  0  0
  194.1030  173.8240  135.4460 S   0  0  0  0  0  0  0  0  0  0  0  0
  195.5080  174.8770  137.2020 C   0  0  2  0  0  3  0  0  0  0  0  0
  198.1030  172.0830  135.4270 C   0  0  0  0  0  2  0  0  0  0  0  0
  196.1430  172.4870  136.9860 C   0  0  0  0  0  0  0  0  0  0  0  0
  195.4410  172.0780  137.9570 O   0  0  0  0  0  0  0  0  0  0  0  0
  197.7950  170.5940  137.3080 C   0  0  0  0  0  2  0  0  0  0  0  0
  197.3110  171.7600  136.5940 N   0  0  0  0  0  0  0  0  0  0  0  0
  198.9510  170.0670  136.4910 C   0  0  0  0  0  2  0  0  0  0  0  0
  199.2900  171.1440  135.4700 C   0  0  0  0  0  2  0  0  0  0  0  0
  189.3250  178.6260  137.3900 C   0  0  0  0  0  2  0  0  0  0  0  0
  189.4210  178.7530  138.8380 N   0  0  0  0  0  2  0  0  0  0  0  0
  188.5270  176.9420  140.1890 C   0  0  0  0  0  2  0  0  0  0  0  0
  188.2360  177.6510  141.4970 C   0  0  2  0  0  3  0  0  0  0  0  0
  188.2040  178.2070  139.4190 C   0  0  1  0  0  3  0  0  0  0  0  0
  187.9040  178.9140  140.7270 C   0  0  0  0  0  2  0  0  0  0  0  0
  189.4690  177.8470  142.2410 N   0  0  0  0  0  2  0  0  0  0  0  0
  189.3090  175.8350  143.4020 O   0  0  0  0  0  0  0  0  0  0  0  0
  189.9800  176.8680  143.1470 C   0  0  0  0  0  0  0  0  0  0  0  0
  191.3390  177.0690  143.7500 C   0  0  1  0  0  3  0  0  0  0  0  0
  191.6040  178.5140  144.1500 C   0  0  0  0  0  1  0  0  0  0  0  0
  191.6010  176.1120  144.9110 C   0  0  0  0  0  2  0  0  0  0  0  0
  191.7580  176.8360  146.2460 C   0  0  2  0  0  3  0  0  0  0  0  0
  192.6740  176.5510  148.3040 O   0  0  0  0  0  1  0  0  0  0  0  0
  192.0900  175.8590  147.2930 N   0  0  0  0  0  0  0  0  0  0  0  0
  190.7280  176.3860  147.1650 C   0  0  0  0  0  2  0  0  0  0  0  0
  1  6  1  0  0  0  0
  1 31  1  0  0  0  0
  2  8  2  0  0  0  0
  2  3  1  0  0  0  0
  3 10  2  0  0  0  0
  4  7  1  0  0  0  0
  5  4  2  0  0  0  0
  5  9  1  0  0  0  0
  7 10  1  0  0  0  0
  7  6  2  0  0  0  0
  8  4  1  0  0  0  0
  9  1  2  0  0  0  0
 10 44  1  0  0  0  0
 12 24  1  1  0  0  0
 13 21  1  0  0  0  0
 14 20  1  0  0  0  0
 14 23  1  0  0  0  0
 15  2  1  1  0  0  0
 15 16  1  0  0  0  0
 15 21  1  0  0  0  0
 16 23  1  6  0  0  0
 17 18  2  0  0  0  0
 18 13  1  0  0  0  0
 18 12  1  0  0  0  0
 19 20  1  1  0  0  0
 19 16  1  0  0  0  0
 19 12  1  0  0  0  0
 20 22  1  0  0  0  0
 21 11  2  0  0  0  0
 24 25  1  0  0  0  0
 25 26  1  0  0  0  0
 26 27  1  0  0  0  0
 27 30  1  0  0  0  0
 29 30  2  0  0  0  0
 30 28  1  0  0  0  0
 32 33  1  0  0  0  0
 33 38  1  1  0  0  0
 33 36  1  0  0  0  0
 34 36  1  0  0  0  0
 34 31  1  1  0  0  0
 35 33  1  0  0  0  0
 35 34  1  0  0  0  0
 36 32  1  6  0  0  0
 37 43  1  0  0  0  0
 37 41  1  0  0  0  0
 38 39  2  0  0  0  0
 41 38  1  0  0  0  0
 41 40  1  0  0  0  0
 42 40  1  0  0  0  0
 43 42  1  0  0  0  0
 44 45  1  0  0  0  0
 46 47  1  0  0  0  0
 47 50  1  1  0  0  0
 48 45  1  1  0  0  0
 48 46  1  0  0  0  0
 48 49  1  0  0  0  0
 49 47  1  0  0  0  0
 50 52  1  0  0  0  0
 52 51  2  0  0  0  0
 52 53  1  0  0  0  0
 53 54  1  1  0  0  0
 53 55  1  0  0  0  0
 56 55  1  6  0  0  0
 56 59  1  0  0  0  0
 56 58  1  0  0  0  0
 58 57  1  0  0  0  0
 59 58  1  0  0  0  0
M  END
>  <MODEL>
6

>  <REMARK>
 VINA RESULT:      -6.2      2.586      3.805
  Name = 
  16 active torsions:
  status: ('A' for Active; 'I' for Inactive)
    1  A    between atoms: C_3  and  C_25
    2  A    between atoms: C_4  and  N_43
    3  A    between atoms: C_5  and  C_7
    4  A    between atoms: C_5  and  C_14
    5  A    between atoms: C_6  and  C_11
    6  A    between atoms: C_7  and  C_9
    7  A    between atoms: C_8  and  C_29
    8  A    between atoms: C_9  and  C_21
    9  A    between atoms: C_13  and  C_25
   10  A    between atoms: C_13  and  C_57
   11  A    between atoms: N_15  and  C_26
   12  A    between atoms: C_19  and  N_43
   13  A    between atoms: C_21  and  C_56
   14  A    between atoms: N_30  and  C_39
   15  A    between atoms: N_30  and  C_51
   16  A    between atoms: C_51  and  C_54
                            x       y       z     vdW  Elec       q    Type
                         _______ _______ _______ _____ _____    ______ ____

>  <TORSDO>
F 16

$$$$
