=
 OpenBabel10232411493D

 47 51  0  0  1  0  0  0  0  0999 V2000
  189.7300  178.0280  140.7080 C   0  0  0  0  0  2  0  0  0  0  0  0
  188.4290  178.6710  141.2060 C   0  0  2  0  0  3  0  0  0  0  0  0
  188.3090  176.3340  137.4980 C   0  0  2  0  0  3  0  0  0  0  0  0
  187.3800  178.5310  137.1490 C   0  0  0  0  0  3  0  0  0  0  0  0
  189.5890  176.5500  140.3580 C   0  0  0  0  0  2  0  0  0  0  0  0
  189.9620  174.9890  136.8280 C   0  0  0  0  0  0  0  0  0  0  0  0
  187.8100  177.9680  142.4020 C   0  0  0  0  0  2  0  0  0  0  0  0
  186.0960  178.9270  141.1010 C   0  0  2  0  0  3  0  0  0  0  0  0
  188.0800  177.1850  135.2070 C   0  0  0  0  0  3  0  0  0  0  0  0
  187.7130  178.3770  135.7100 C   0  0  0  0  0  3  0  0  0  0  0  0
  188.0820  175.9460  136.0720 C   0  0  1  0  0  3  0  0  0  0  0  0
  190.3200  176.2960  139.0530 C   0  0  0  0  0  2  0  0  0  0  0  0
  189.2240  175.0950  135.7730 N   0  0  0  0  0  0  0  0  0  0  0  0
  187.6620  177.5500  138.0160 C   0  0  0  0  0  0  0  0  0  0  0  0
  187.3100  178.8150  140.1860 C   0  0  2  0  0  3  0  0  0  0  0  0
  187.2250  177.6080  139.3730 N   0  0  0  0  0  2  0  0  0  0  0  0
  189.4400  175.7790  137.9430 C   0  0  1  0  0  3  0  0  0  0  0  0
  186.3580  178.1310  142.3040 N   0  0  0  0  0  0  0  0  0  0  0  0
  184.4400  179.2010  139.2470 C   0  0  0  0  0  3  0  0  0  0  0  0
  183.9340  177.6100  140.9990 C   0  0  0  0  0  3  0  0  0  0  0  0
  184.7870  178.5780  140.4500 C   0  0  0  0  0  0  0  0  0  0  0  0
  183.2450  178.8710  138.6030 C   0  0  0  0  0  3  0  0  0  0  0  0
  182.3860  177.9070  139.1540 C   0  0  0  0  0  0  0  0  0  0  0  0
  182.7380  177.2790  140.3540 C   0  0  0  0  0  3  0  0  0  0  0  0
  181.1850  177.5540  138.5330 O   0  0  0  0  0  0  0  0  0  0  0  0
  181.1370  176.8240  137.3140 C   0  0  0  0  0  2  0  0  0  0  0  0
  180.8400  174.5520  136.6680 O   0  0  0  0  0  0  0  0  0  0  0  0
  180.4510  175.0140  138.8800 O   0  0  0  0  0  1  0  0  0  0  0  0
  180.8180  175.4010  137.5980 C   0  0  0  0  0  0  0  0  0  0  0  0
  191.2290  173.0580  136.2880 O   0  0  0  0  0  0  0  0  0  0  0  0
  192.3680  174.7080  137.4770 N   0  0  0  0  0  2  0  0  0  0  0  0
  191.1980  174.1890  136.8410 C   0  0  0  0  0  0  0  0  0  0  0  0
  193.6230  173.9730  137.5000 C   0  0  0  0  0  2  0  0  0  0  0  0
  194.7090  174.8210  138.1370 C   0  0  0  0  0  2  0  0  0  0  0  0
  195.2550  172.6170  138.8440 O   0  0  0  0  0  1  0  0  0  0  0  0
  195.6900  173.9410  138.8900 C   0  0  0  0  0  2  0  0  0  0  0  0
  185.8540  178.8230  143.4970 C   0  0  0  0  0  2  0  0  0  0  0  0
  185.6640  177.9020  144.7060 C   0  0  0  0  0  2  0  0  0  0  0  0
  186.9620  177.1770  145.0170 C   0  0  0  0  0  2  0  0  0  0  0  0
  187.0040  178.1820  147.3040 C   0  0  0  0  0  1  0  0  0  0  0  0
  187.7920  177.9590  146.0250 C   0  0  1  0  0  3  0  0  0  0  0  0
  189.1860  176.5480  147.3150 O   0  0  0  0  0  0  0  0  0  0  0  0
  189.0740  177.2450  146.3180 C   0  0  0  0  0  0  0  0  0  0  0  0
  190.4380  178.9440  144.4800 O   0  0  0  0  0  1  0  0  0  0  0  0
  191.7480  177.2180  145.9470 O   0  0  0  0  0  1  0  0  0  0  0  0
  190.4540  177.4080  145.1890 P   0  0  0  0  0  0  0  0  0  0  0  0
  190.3340  176.2310  143.9810 O   0  0  0  0  0  0  0  0  0  0  0  0
  2  1  1  6  0  0  0
  2  7  1  0  0  0  0
  3 17  1  0  0  0  0
  3 14  1  6  0  0  0
  4 14  2  0  0  0  0
  5  1  1  0  0  0  0
  6 32  1  0  0  0  0
  6 17  1  0  0  0  0
  8 21  1  6  0  0  0
  8 18  1  0  0  0  0
  9 10  2  0  0  0  0
 10  4  1  0  0  0  0
 11  9  1  6  0  0  0
 11  3  1  0  0  0  0
 12  5  1  0  0  0  0
 13 11  1  0  0  0  0
 13  6  2  0  0  0  0
 14 16  1  0  0  0  0
 15 16  1  6  0  0  0
 15  8  1  0  0  0  0
 15  2  1  0  0  0  0
 17 12  1  6  0  0  0
 18  7  1  0  0  0  0
 18 37  1  0  0  0  0
 19 21  1  0  0  0  0
 21 20  2  0  0  0  0
 22 23  1  0  0  0  0
 22 19  2  0  0  0  0
 23 24  2  0  0  0  0
 24 20  1  0  0  0  0
 25 23  1  0  0  0  0
 26 29  1  0  0  0  0
 26 25  1  0  0  0  0
 27 29  2  0  0  0  0
 29 28  1  0  0  0  0
 30 32  2  0  0  0  0
 31 33  1  0  0  0  0
 32 31  1  0  0  0  0
 33 34  1  0  0  0  0
 34 36  1  0  0  0  0
 35 36  1  0  0  0  0
 37 38  1  0  0  0  0
 38 39  1  0  0  0  0
 39 41  1  0  0  0  0
 41 43  1  0  0  0  0
 41 40  1  1  0  0  0
 43 42  2  0  0  0  0
 44 46  1  0  0  0  0
 46 45  1  0  0  0  0
 46 43  1  0  0  0  0
 47 46  2  0  0  0  0
M  END
>  <MODEL>
1

>  <REMARK>
 VINA RESULT:      -7.1      0.000      0.000
  Name = 
  14 active torsions:
  status: ('A' for Active; 'I' for Inactive)
    1  A    between atoms: N_9  and  C_14
    2  A    between atoms: C_10  and  C_14
    3  A    between atoms: C_10  and  C_47
    4  A    between atoms: C_13  and  C_39
    5  A    between atoms: C_16  and  C_26
    6  A    between atoms: C_22  and  C_34
    7  A    between atoms: C_22  and  C_36
    8  A    between atoms: C_23  and  C_24
    9  A    between atoms: C_24  and  O_30
   10  A    between atoms: C_27  and  C_34
   11  A    between atoms: C_27  and  P_40
   12  A    between atoms: O_30  and  C_32
   13  A    between atoms: C_36  and  C_37
   14  A    between atoms: C_37  and  N_46
                            x       y       z     vdW  Elec       q    Type
                         _______ _______ _______ _____ _____    ______ ____

>  <TORSDO>
F 14

$$$$
=
 OpenBabel10232411493D

 47 51  0  0  1  0  0  0  0  0999 V2000
  191.1390  177.0980  139.0650 C   0  0  0  0  0  2  0  0  0  0  0  0
  190.4340  177.9350  140.1410 C   0  0  2  0  0  3  0  0  0  0  0  0
  187.9650  175.8380  137.1850 C   0  0  2  0  0  3  0  0  0  0  0  0
  187.3920  178.1790  137.2640 C   0  0  0  0  0  3  0  0  0  0  0  0
  190.5790  175.6870  138.9200 C   0  0  0  0  0  2  0  0  0  0  0  0
  188.7490  174.2580  135.8140 C   0  0  0  0  0  0  0  0  0  0  0  0
  190.4290  177.2940  141.5180 C   0  0  0  0  0  2  0  0  0  0  0  0
  188.4850  178.6010  141.2710 C   0  0  2  0  0  3  0  0  0  0  0  0
  186.7130  176.8270  135.3200 C   0  0  0  0  0  3  0  0  0  0  0  0
  186.8810  178.0390  135.8780 C   0  0  0  0  0  3  0  0  0  0  0  0
  186.9550  175.5660  136.1160 C   0  0  1  0  0  3  0  0  0  0  0  0
  190.4520  175.3720  137.4410 C   0  0  0  0  0  2  0  0  0  0  0  0
  187.5970  174.5440  135.3040 N   0  0  0  0  0  0  0  0  0  0  0  0
  187.9140  177.1220  137.9020 C   0  0  0  0  0  0  0  0  0  0  0  0
  188.9900  178.3220  139.8600 C   0  0  2  0  0  3  0  0  0  0  0  0
  188.2790  177.1900  139.2790 N   0  0  0  0  0  2  0  0  0  0  0  0
  189.0440  175.0730  136.9930 C   0  0  1  0  0  3  0  0  0  0  0  0
  189.2000  177.7140  142.1940 N   0  0  0  0  0  0  0  0  0  0  0  0
  186.4630  178.0700  142.6430 C   0  0  0  0  0  3  0  0  0  0  0  0
  186.1250  178.9270  140.4060 C   0  0  0  0  0  3  0  0  0  0  0  0
  186.9920  178.5190  141.4300 C   0  0  0  0  0  0  0  0  0  0  0  0
  185.0790  178.0150  142.8310 C   0  0  0  0  0  3  0  0  0  0  0  0
  184.2090  178.4170  141.8040 C   0  0  0  0  0  0  0  0  0  0  0  0
  184.7410  178.8740  140.5930 C   0  0  0  0  0  3  0  0  0  0  0  0
  182.8210  178.3760  141.9620 O   0  0  0  0  0  0  0  0  0  0  0  0
  181.9260  178.2970  140.8600 C   0  0  0  0  0  2  0  0  0  0  0  0
  180.5250  179.7500  142.1230 O   0  0  0  0  0  1  0  0  0  0  0  0
  180.2880  179.8740  139.8460 O   0  0  0  0  0  0  0  0  0  0  0  0
  180.8880  179.3540  140.9850 C   0  0  0  0  0  0  0  0  0  0  0  0
  189.2070  172.1100  134.9160 O   0  0  0  0  0  0  0  0  0  0  0  0
  191.0100  173.5870  134.9600 N   0  0  0  0  0  2  0  0  0  0  0  0
  189.6440  173.2540  135.2140 C   0  0  0  0  0  0  0  0  0  0  0  0
  191.9330  172.6440  134.3480 C   0  0  0  0  0  2  0  0  0  0  0  0
  193.3570  172.9660  134.7640 C   0  0  0  0  0  2  0  0  0  0  0  0
  194.7060  174.5690  135.8870 O   0  0  0  0  0  1  0  0  0  0  0  0
  193.3840  174.2190  135.6210 C   0  0  0  0  0  2  0  0  0  0  0  0
  189.5320  178.4250  143.4350 C   0  0  0  0  0  2  0  0  0  0  0  0
  191.0040  178.8340  143.5320 C   0  0  0  0  0  2  0  0  0  0  0  0
  191.6010  178.3260  144.8340 C   0  0  0  0  0  2  0  0  0  0  0  0
  191.6990  175.8310  144.8900 C   0  0  0  0  0  1  0  0  0  0  0  0
  190.8990  177.0570  145.2940 C   0  0  1  0  0  3  0  0  0  0  0  0
  191.6130  176.8510  147.5400 O   0  0  0  0  0  0  0  0  0  0  0  0
  190.6890  177.0800  146.7750 C   0  0  0  0  0  0  0  0  0  0  0  0
  188.4090  176.0770  148.1620 O   0  0  0  0  0  1  0  0  0  0  0  0
  189.1820  178.5590  148.4580 O   0  0  0  0  0  1  0  0  0  0  0  0
  189.0660  177.4550  147.4320 P   0  0  0  0  0  0  0  0  0  0  0  0
  188.0530  177.9600  146.1760 O   0  0  0  0  0  0  0  0  0  0  0  0
  2  1  1  6  0  0  0
  2  7  1  0  0  0  0
  3 14  1  6  0  0  0
  4 14  2  0  0  0  0
  5  1  1  0  0  0  0
  6 17  1  0  0  0  0
  7 18  1  0  0  0  0
  8 21  1  6  0  0  0
  8 18  1  0  0  0  0
  9 10  2  0  0  0  0
 10  4  1  0  0  0  0
 11  9  1  6  0  0  0
 11  3  1  0  0  0  0
 12  5  1  0  0  0  0
 13  6  2  0  0  0  0
 13 11  1  0  0  0  0
 14 16  1  0  0  0  0
 15 16  1  1  0  0  0
 15  2  1  0  0  0  0
 15  8  1  0  0  0  0
 17  3  1  0  0  0  0
 17 12  1  6  0  0  0
 18 37  1  0  0  0  0
 19 22  1  0  0  0  0
 20 24  2  0  0  0  0
 20 21  1  0  0  0  0
 21 19  2  0  0  0  0
 23 25  1  0  0  0  0
 23 22  2  0  0  0  0
 24 23  1  0  0  0  0
 26 29  1  0  0  0  0
 26 25  1  0  0  0  0
 28 29  2  0  0  0  0
 29 27  1  0  0  0  0
 30 32  2  0  0  0  0
 31 32  1  0  0  0  0
 32  6  1  0  0  0  0
 33 34  1  0  0  0  0
 33 31  1  0  0  0  0
 34 36  1  0  0  0  0
 36 35  1  0  0  0  0
 37 38  1  0  0  0  0
 38 39  1  0  0  0  0
 39 41  1  0  0  0  0
 41 40  1  1  0  0  0
 41 43  1  0  0  0  0
 43 46  1  0  0  0  0
 43 42  2  0  0  0  0
 46 44  1  0  0  0  0
 46 45  1  0  0  0  0
 47 46  2  0  0  0  0
M  END
>  <MODEL>
2

>  <REMARK>
 VINA RESULT:      -7.0      2.452      3.356
  Name = 
  14 active torsions:
  status: ('A' for Active; 'I' for Inactive)
    1  A    between atoms: N_9  and  C_14
    2  A    between atoms: C_10  and  C_14
    3  A    between atoms: C_10  and  C_47
    4  A    between atoms: C_13  and  C_39
    5  A    between atoms: C_16  and  C_26
    6  A    between atoms: C_22  and  C_34
    7  A    between atoms: C_22  and  C_36
    8  A    between atoms: C_23  and  C_24
    9  A    between atoms: C_24  and  O_30
   10  A    between atoms: C_27  and  C_34
   11  A    between atoms: C_27  and  P_40
   12  A    between atoms: O_30  and  C_32
   13  A    between atoms: C_36  and  C_37
   14  A    between atoms: C_37  and  N_46
                            x       y       z     vdW  Elec       q    Type
                         _______ _______ _______ _____ _____    ______ ____

>  <TORSDO>
F 14

$$$$
=
 OpenBabel10232411493D

 47 51  0  0  1  0  0  0  0  0999 V2000
  185.7200  177.3070  135.0150 C   0  0  0  0  0  2  0  0  0  0  0  0
  187.0640  177.7110  135.6370 C   0  0  2  0  0  3  0  0  0  0  0  0
  183.7080  176.8360  138.3210 C   0  0  2  0  0  3  0  0  0  0  0  0
  184.6510  179.0000  138.8150 C   0  0  0  0  0  3  0  0  0  0  0  0
  185.1150  176.0470  135.6260 C   0  0  0  0  0  2  0  0  0  0  0  0
  181.8200  175.8430  137.6590 C   0  0  0  0  0  0  0  0  0  0  0  0
  188.1200  176.6200  135.5890 C   0  0  0  0  0  2  0  0  0  0  0  0
  188.4710  177.9500  137.5020 C   0  0  2  0  0  3  0  0  0  0  0  0
  182.3970  178.4390  139.6370 C   0  0  0  0  0  3  0  0  0  0  0  0
  183.3380  179.3700  139.4020 C   0  0  0  0  0  3  0  0  0  0  0  0
  182.6750  176.9740  139.3930 C   0  0  1  0  0  3  0  0  0  0  0  0
  183.6320  176.2830  135.8400 C   0  0  0  0  0  2  0  0  0  0  0  0
  181.5150  176.3030  138.8270 N   0  0  0  0  0  0  0  0  0  0  0  0
  184.8370  177.7800  138.2940 C   0  0  0  0  0  0  0  0  0  0  0  0
  187.0270  178.1890  137.0800 C   0  0  2  0  0  3  0  0  0  0  0  0
  186.1240  177.3470  137.8560 N   0  0  0  0  0  2  0  0  0  0  0  0
  183.1920  176.1780  137.2780 C   0  0  1  0  0  3  0  0  0  0  0  0
  188.9730  176.7840  136.7670 N   0  0  0  0  0  0  0  0  0  0  0  0
  189.6380  176.9350  139.4670 C   0  0  0  0  0  3  0  0  0  0  0  0
  187.9690  178.6350  139.8900 C   0  0  0  0  0  3  0  0  0  0  0  0
  188.6800  177.8320  138.9860 C   0  0  0  0  0  0  0  0  0  0  0  0
  189.8770  176.8290  140.8400 C   0  0  0  0  0  3  0  0  0  0  0  0
  189.1610  177.6280  141.7470 C   0  0  0  0  0  0  0  0  0  0  0  0
  188.2080  178.5300  141.2630 C   0  0  0  0  0  3  0  0  0  0  0  0
  189.3780  177.5470  143.1250 O   0  0  0  0  0  0  0  0  0  0  0  0
  188.7000  176.6130  143.9550 C   0  0  0  0  0  2  0  0  0  0  0  0
  187.0270  178.0380  144.8710 O   0  0  0  0  0  0  0  0  0  0  0  0
  188.5870  177.2550  146.3580 O   0  0  0  0  0  1  0  0  0  0  0  0
  188.0460  177.3300  145.0810 C   0  0  0  0  0  0  0  0  0  0  0  0
  179.9820  175.7360  136.1630 O   0  0  0  0  0  0  0  0  0  0  0  0
  180.9020  173.6830  136.7740 N   0  0  0  0  0  2  0  0  0  0  0  0
  180.8490  175.1100  136.8290 C   0  0  0  0  0  0  0  0  0  0  0  0
  179.9850  172.9080  135.9540 C   0  0  0  0  0  2  0  0  0  0  0  0
  180.5120  171.4950  135.7770 C   0  0  0  0  0  2  0  0  0  0  0  0
  182.7270  170.6960  136.1040 O   0  0  0  0  0  1  0  0  0  0  0  0
  181.9520  171.5270  135.2980 C   0  0  0  0  0  2  0  0  0  0  0  0
  190.3640  177.0010  136.3490 C   0  0  0  0  0  2  0  0  0  0  0  0
  191.2310  175.7400  136.4250 C   0  0  0  0  0  2  0  0  0  0  0  0
  192.4110  175.9750  137.3520 C   0  0  0  0  0  2  0  0  0  0  0  0
  192.7350  173.6160  136.5950 C   0  0  0  0  0  1  0  0  0  0  0  0
  193.1950  174.6880  137.5680 C   0  0  1  0  0  3  0  0  0  0  0  0
  195.0890  175.6340  136.5110 O   0  0  0  0  0  0  0  0  0  0  0  0
  194.6630  174.9360  137.4190 C   0  0  0  0  0  0  0  0  0  0  0  0
  197.3650  174.1880  137.9320 O   0  0  0  0  0  0  0  0  0  0  0  0
  195.8080  175.0200  139.8630 O   0  0  0  0  0  1  0  0  0  0  0  0
  195.8060  174.2070  138.5890 P   0  0  0  0  0  0  0  0  0  0  0  0
  195.3240  172.6230  138.9330 O   0  0  0  0  0  1  0  0  0  0  0  0
  1  5  1  0  0  0  0
  2  1  1  1  0  0  0
  2 15  1  0  0  0  0
  3 14  1  6  0  0  0
  3 11  1  0  0  0  0
  4 10  1  0  0  0  0
  5 12  1  0  0  0  0
  6 13  2  0  0  0  0
  7  2  1  0  0  0  0
  7 18  1  0  0  0  0
  8 21  1  1  0  0  0
 10  9  2  0  0  0  0
 11  9  1  6  0  0  0
 13 11  1  0  0  0  0
 14  4  2  0  0  0  0
 15  8  1  0  0  0  0
 15 16  1  1  0  0  0
 16 14  1  0  0  0  0
 17 12  1  6  0  0  0
 17  6  1  0  0  0  0
 17  3  1  0  0  0  0
 18  8  1  0  0  0  0
 19 22  1  0  0  0  0
 20 24  2  0  0  0  0
 21 19  2  0  0  0  0
 21 20  1  0  0  0  0
 22 23  2  0  0  0  0
 23 25  1  0  0  0  0
 24 23  1  0  0  0  0
 25 26  1  0  0  0  0
 26 29  1  0  0  0  0
 27 29  2  0  0  0  0
 29 28  1  0  0  0  0
 30 32  2  0  0  0  0
 31 32  1  0  0  0  0
 32  6  1  0  0  0  0
 33 31  1  0  0  0  0
 34 33  1  0  0  0  0
 36 34  1  0  0  0  0
 36 35  1  0  0  0  0
 37 38  1  0  0  0  0
 37 18  1  0  0  0  0
 38 39  1  0  0  0  0
 39 41  1  0  0  0  0
 41 40  1  6  0  0  0
 42 43  2  0  0  0  0
 43 41  1  0  0  0  0
 43 46  1  0  0  0  0
 44 46  2  0  0  0  0
 46 47  1  0  0  0  0
 46 45  1  0  0  0  0
M  END
>  <MODEL>
3

>  <REMARK>
 VINA RESULT:      -6.7      2.816      8.865
  Name = 
  14 active torsions:
  status: ('A' for Active; 'I' for Inactive)
    1  A    between atoms: N_9  and  C_14
    2  A    between atoms: C_10  and  C_14
    3  A    between atoms: C_10  and  C_47
    4  A    between atoms: C_13  and  C_39
    5  A    between atoms: C_16  and  C_26
    6  A    between atoms: C_22  and  C_34
    7  A    between atoms: C_22  and  C_36
    8  A    between atoms: C_23  and  C_24
    9  A    between atoms: C_24  and  O_30
   10  A    between atoms: C_27  and  C_34
   11  A    between atoms: C_27  and  P_40
   12  A    between atoms: O_30  and  C_32
   13  A    between atoms: C_36  and  C_37
   14  A    between atoms: C_37  and  N_46
                            x       y       z     vdW  Elec       q    Type
                         _______ _______ _______ _____ _____    ______ ____

>  <TORSDO>
F 14

$$$$
=
 OpenBabel10232411493D

 47 51  0  0  1  0  0  0  0  0999 V2000
  188.4510  178.8030  141.1520 C   0  0  0  0  0  2  0  0  0  0  0  0
  186.9660  179.0980  141.3960 C   0  0  2  0  0  3  0  0  0  0  0  0
  188.0740  176.8320  137.8100 C   0  0  2  0  0  3  0  0  0  0  0  0
  186.7080  178.7320  137.2270 C   0  0  0  0  0  3  0  0  0  0  0  0
  188.7430  177.3400  140.8360 C   0  0  0  0  0  2  0  0  0  0  0  0
  190.0980  175.9470  137.4810 C   0  0  0  0  0  0  0  0  0  0  0  0
  186.3410  178.2540  142.4940 C   0  0  0  0  0  2  0  0  0  0  0  0
  184.6970  178.7650  140.8850 C   0  0  2  0  0  3  0  0  0  0  0  0
  188.0460  177.6170  135.4840 C   0  0  0  0  0  3  0  0  0  0  0  0
  187.3140  178.6760  135.8730 C   0  0  0  0  0  3  0  0  0  0  0  0
  188.2030  176.4100  136.3810 C   0  0  1  0  0  3  0  0  0  0  0  0
  189.7300  177.2850  139.6850 C   0  0  0  0  0  2  0  0  0  0  0  0
  189.5530  175.8740  136.3120 N   0  0  0  0  0  0  0  0  0  0  0  0
  187.0670  177.8450  138.1650 C   0  0  0  0  0  0  0  0  0  0  0  0
  186.0410  178.9670  140.1960 C   0  0  2  0  0  3  0  0  0  0  0  0
  186.4000  177.7820  139.4240 N   0  0  0  0  0  2  0  0  0  0  0  0
  189.2120  176.5740  138.4610 C   0  0  1  0  0  3  0  0  0  0  0  0
  184.9330  178.0510  142.1440 N   0  0  0  0  0  0  0  0  0  0  0  0
  183.3150  178.6800  138.8030 C   0  0  0  0  0  3  0  0  0  0  0  0
  183.0370  176.9070  140.4260 C   0  0  0  0  0  3  0  0  0  0  0  0
  183.6490  178.1060  140.0330 C   0  0  0  0  0  0  0  0  0  0  0  0
  182.3670  178.0700  137.9760 C   0  0  0  0  0  3  0  0  0  0  0  0
  181.7490  176.8730  138.3700 C   0  0  0  0  0  0  0  0  0  0  0  0
  182.0900  176.2960  139.5980 C   0  0  0  0  0  3  0  0  0  0  0  0
  180.8000  176.2380  137.5640 O   0  0  0  0  0  0  0  0  0  0  0  0
  180.8340  174.8430  137.2920 C   0  0  0  0  0  2  0  0  0  0  0  0
  182.8020  173.5830  136.8410 O   0  0  0  0  0  1  0  0  0  0  0  0
  182.3530  175.2830  135.3700 O   0  0  0  0  0  0  0  0  0  0  0  0
  182.0410  174.5210  136.4880 C   0  0  0  0  0  0  0  0  0  0  0  0
  192.2410  176.1420  138.4820 O   0  0  0  0  0  0  0  0  0  0  0  0
  191.9260  174.2650  137.1350 N   0  0  0  0  0  2  0  0  0  0  0  0
  191.4720  175.4800  137.7340 C   0  0  0  0  0  0  0  0  0  0  0  0
  193.2640  173.7430  137.3690 C   0  0  0  0  0  2  0  0  0  0  0  0
  194.0510  173.7320  136.0710 C   0  0  0  0  0  2  0  0  0  0  0  0
  195.0890  175.7880  136.6620 O   0  0  0  0  0  1  0  0  0  0  0  0
  194.3820  175.1500  135.6440 C   0  0  0  0  0  2  0  0  0  0  0  0
  184.0740  178.5860  143.2060 C   0  0  0  0  0  2  0  0  0  0  0  0
  184.8090  179.5050  144.1860 C   0  0  0  0  0  2  0  0  0  0  0  0
  184.8830  178.8540  145.5560 C   0  0  0  0  0  2  0  0  0  0  0  0
  186.3720  179.0430  147.5530 C   0  0  0  0  0  1  0  0  0  0  0  0
  186.3200  178.7990  146.0550 C   0  0  1  0  0  3  0  0  0  0  0  0
  186.2500  176.5130  145.4470 O   0  0  0  0  0  0  0  0  0  0  0  0
  186.9440  177.4820  145.7170 C   0  0  0  0  0  0  0  0  0  0  0  0
  189.2490  176.5400  147.1050 O   0  0  0  0  0  1  0  0  0  0  0  0
  189.1520  176.5260  144.4900 O   0  0  0  0  0  0  0  0  0  0  0  0
  188.7280  177.3270  145.7000 P   0  0  0  0  0  0  0  0  0  0  0  0
  189.4250  178.8660  145.6290 O   0  0  0  0  0  1  0  0  0  0  0  0
  2  1  1  6  0  0  0
  2  7  1  0  0  0  0
  3 14  1  6  0  0  0
  3 17  1  0  0  0  0
  4 14  2  0  0  0  0
  5  1  1  0  0  0  0
  6 32  1  0  0  0  0
  6 17  1  0  0  0  0
  8 21  1  6  0  0  0
  8 18  1  0  0  0  0
  9 10  2  0  0  0  0
 10  4  1  0  0  0  0
 11  9  1  6  0  0  0
 11  3  1  0  0  0  0
 12  5  1  0  0  0  0
 13 11  1  0  0  0  0
 13  6  2  0  0  0  0
 14 16  1  0  0  0  0
 15 16  1  6  0  0  0
 15  8  1  0  0  0  0
 15  2  1  0  0  0  0
 17 12  1  6  0  0  0
 18  7  1  0  0  0  0
 18 37  1  0  0  0  0
 19 21  1  0  0  0  0
 21 20  2  0  0  0  0
 22 23  1  0  0  0  0
 22 19  2  0  0  0  0
 23 24  2  0  0  0  0
 24 20  1  0  0  0  0
 25 23  1  0  0  0  0
 26 25  1  0  0  0  0
 28 29  2  0  0  0  0
 29 27  1  0  0  0  0
 29 26  1  0  0  0  0
 31 33  1  0  0  0  0
 31 32  1  0  0  0  0
 32 30  2  0  0  0  0
 34 33  1  0  0  0  0
 36 34  1  0  0  0  0
 36 35  1  0  0  0  0
 37 38  1  0  0  0  0
 38 39  1  0  0  0  0
 39 41  1  0  0  0  0
 41 40  1  1  0  0  0
 42 43  2  0  0  0  0
 43 41  1  0  0  0  0
 45 46  2  0  0  0  0
 46 43  1  0  0  0  0
 46 44  1  0  0  0  0
 47 46  1  0  0  0  0
M  END
>  <MODEL>
4

>  <REMARK>
 VINA RESULT:      -6.4      1.520      2.011
  Name = 
  14 active torsions:
  status: ('A' for Active; 'I' for Inactive)
    1  A    between atoms: N_9  and  C_14
    2  A    between atoms: C_10  and  C_14
    3  A    between atoms: C_10  and  C_47
    4  A    between atoms: C_13  and  C_39
    5  A    between atoms: C_16  and  C_26
    6  A    between atoms: C_22  and  C_34
    7  A    between atoms: C_22  and  C_36
    8  A    between atoms: C_23  and  C_24
    9  A    between atoms: C_24  and  O_30
   10  A    between atoms: C_27  and  C_34
   11  A    between atoms: C_27  and  P_40
   12  A    between atoms: O_30  and  C_32
   13  A    between atoms: C_36  and  C_37
   14  A    between atoms: C_37  and  N_46
                            x       y       z     vdW  Elec       q    Type
                         _______ _______ _______ _____ _____    ______ ____

>  <TORSDO>
F 14

$$$$
=
 OpenBabel10232411493D

 47 51  0  0  1  0  0  0  0  0999 V2000
  185.4940  179.4500  141.2860 C   0  0  0  0  0  2  0  0  0  0  0  0
  184.4250  179.1720  140.2210 C   0  0  2  0  0  3  0  0  0  0  0  0
  188.3810  177.3460  139.7260 C   0  0  2  0  0  3  0  0  0  0  0  0
  187.7520  178.5640  137.7420 C   0  0  0  0  0  3  0  0  0  0  0  0
  186.1850  178.1930  141.8050 C   0  0  0  0  0  2  0  0  0  0  0  0
  189.9240  177.2780  141.3390 C   0  0  0  0  0  0  0  0  0  0  0  0
  183.3460  178.2010  140.6670 C   0  0  0  0  0  2  0  0  0  0  0  0
  183.6620  177.9870  138.3420 C   0  0  2  0  0  3  0  0  0  0  0  0
  190.1150  177.9660  138.1020 C   0  0  0  0  0  3  0  0  0  0  0  0
  189.1980  178.6850  137.4310 C   0  0  0  0  0  3  0  0  0  0  0  0
  189.6960  176.9460  139.1360 C   0  0  1  0  0  3  0  0  0  0  0  0
  187.6740  178.4680  141.8960 C   0  0  0  0  0  2  0  0  0  0  0  0
  190.5920  176.9560  140.2810 N   0  0  0  0  0  0  0  0  0  0  0  0
  187.3500  177.9180  138.8450 C   0  0  0  0  0  0  0  0  0  0  0  0
  184.9220  178.6520  138.8810 C   0  0  2  0  0  3  0  0  0  0  0  0
  185.9700  177.6600  139.0940 N   0  0  0  0  0  2  0  0  0  0  0  0
  188.5210  177.5640  141.0370 C   0  0  1  0  0  3  0  0  0  0  0  0
  182.8980  177.4670  139.4820 N   0  0  0  0  0  0  0  0  0  0  0  0
  184.6120  177.3020  136.1330 C   0  0  0  0  0  3  0  0  0  0  0  0
  183.4800  175.6200  137.4540 C   0  0  0  0  0  3  0  0  0  0  0  0
  183.9050  176.9460  137.2850 C   0  0  0  0  0  0  0  0  0  0  0  0
  184.8820  176.3460  135.1490 C   0  0  0  0  0  3  0  0  0  0  0  0
  184.4510  175.0200  135.3130 C   0  0  0  0  0  0  0  0  0  0  0  0
  183.7500  174.6640  136.4710 C   0  0  0  0  0  3  0  0  0  0  0  0
  184.7070  174.0410  134.3490 O   0  0  0  0  0  0  0  0  0  0  0  0
  184.3110  172.6850  134.5080 C   0  0  0  0  0  2  0  0  0  0  0  0
  186.6510  172.2840  134.6790 O   0  0  0  0  0  0  0  0  0  0  0  0
  185.2970  170.6200  135.4880 O   0  0  0  0  0  1  0  0  0  0  0  0
  185.4860  171.8660  134.9060 C   0  0  0  0  0  0  0  0  0  0  0  0
  191.5090  178.1780  142.8580 O   0  0  0  0  0  0  0  0  0  0  0  0
  190.0800  176.5600  143.7370 N   0  0  0  0  0  2  0  0  0  0  0  0
  190.5570  177.3750  142.6650 C   0  0  0  0  0  0  0  0  0  0  0  0
  190.6500  176.6300  145.0740 C   0  0  0  0  0  2  0  0  0  0  0  0
  189.6660  177.2840  146.0260 C   0  0  0  0  0  2  0  0  0  0  0  0
  189.4270  178.0180  148.2750 O   0  0  0  0  0  1  0  0  0  0  0  0
  190.1510  177.1520  147.4580 C   0  0  0  0  0  2  0  0  0  0  0  0
  181.4610  177.6810  139.2760 C   0  0  0  0  0  2  0  0  0  0  0  0
  181.0090  179.1180  139.5560 C   0  0  0  0  0  2  0  0  0  0  0  0
  180.6310  179.8070  138.2570 C   0  0  0  0  0  2  0  0  0  0  0  0
  182.3310  181.5430  138.8360 C   0  0  0  0  0  1  0  0  0  0  0  0
  180.9200  181.3000  138.3310 C   0  0  1  0  0  3  0  0  0  0  0  0
  180.5280  181.2590  135.9980 O   0  0  0  0  0  0  0  0  0  0  0  0
  180.7250  181.9400  136.9930 C   0  0  0  0  0  0  0  0  0  0  0  0
  179.9820  184.4270  138.1710 O   0  0  0  0  0  1  0  0  0  0  0  0
  182.2120  184.1880  136.8230 O   0  0  0  0  0  1  0  0  0  0  0  0
  180.7740  183.7240  136.8510 P   0  0  0  0  0  0  0  0  0  0  0  0
  180.0040  184.1960  135.4200 O   0  0  0  0  0  0  0  0  0  0  0  0
  1  5  1  0  0  0  0
  2  7  1  1  0  0  0
  2  1  1  0  0  0  0
  3 14  1  6  0  0  0
  3 17  1  0  0  0  0
  4 14  2  0  0  0  0
  5 12  1  0  0  0  0
  6 32  1  0  0  0  0
  8 21  1  6  0  0  0
  8 15  1  0  0  0  0
  8 18  1  0  0  0  0
 10  4  1  0  0  0  0
 10  9  2  0  0  0  0
 11  9  1  6  0  0  0
 11  3  1  0  0  0  0
 11 13  1  0  0  0  0
 13  6  2  0  0  0  0
 14 16  1  0  0  0  0
 15 16  1  1  0  0  0
 15  2  1  0  0  0  0
 17  6  1  0  0  0  0
 17 12  1  6  0  0  0
 18  7  1  0  0  0  0
 19 21  1  0  0  0  0
 21 20  2  0  0  0  0
 22 23  1  0  0  0  0
 22 19  2  0  0  0  0
 23 24  2  0  0  0  0
 24 20  1  0  0  0  0
 25 26  1  0  0  0  0
 25 23  1  0  0  0  0
 26 29  1  0  0  0  0
 27 29  2  0  0  0  0
 29 28  1  0  0  0  0
 31 33  1  0  0  0  0
 32 30  2  0  0  0  0
 32 31  1  0  0  0  0
 33 34  1  0  0  0  0
 34 36  1  0  0  0  0
 36 35  1  0  0  0  0
 37 18  1  0  0  0  0
 37 38  1  0  0  0  0
 39 41  1  0  0  0  0
 39 38  1  0  0  0  0
 41 40  1  6  0  0  0
 42 43  2  0  0  0  0
 43 41  1  0  0  0  0
 45 46  1  0  0  0  0
 46 43  1  0  0  0  0
 46 44  1  0  0  0  0
 47 46  2  0  0  0  0
M  END
>  <MODEL>
5

>  <REMARK>
 VINA RESULT:      -6.4      3.883      7.754
  Name = 
  14 active torsions:
  status: ('A' for Active; 'I' for Inactive)
    1  A    between atoms: N_9  and  C_14
    2  A    between atoms: C_10  and  C_14
    3  A    between atoms: C_10  and  C_47
    4  A    between atoms: C_13  and  C_39
    5  A    between atoms: C_16  and  C_26
    6  A    between atoms: C_22  and  C_34
    7  A    between atoms: C_22  and  C_36
    8  A    between atoms: C_23  and  C_24
    9  A    between atoms: C_24  and  O_30
   10  A    between atoms: C_27  and  C_34
   11  A    between atoms: C_27  and  P_40
   12  A    between atoms: O_30  and  C_32
   13  A    between atoms: C_36  and  C_37
   14  A    between atoms: C_37  and  N_46
                            x       y       z     vdW  Elec       q    Type
                         _______ _______ _______ _____ _____    ______ ____

>  <TORSDO>
F 14

$$$$
=
 OpenBabel10232411493D

 47 51  0  0  1  0  0  0  0  0999 V2000
  191.4280  176.8920  139.0350 C   0  0  0  0  0  2  0  0  0  0  0  0
  190.5800  177.7740  139.9610 C   0  0  2  0  0  3  0  0  0  0  0  0
  188.5630  175.6180  136.7200 C   0  0  2  0  0  3  0  0  0  0  0  0
  188.0310  177.9680  136.6370 C   0  0  0  0  0  3  0  0  0  0  0  0
  190.8690  175.4850  138.8470 C   0  0  0  0  0  2  0  0  0  0  0  0
  189.5190  173.9820  135.5370 C   0  0  0  0  0  0  0  0  0  0  0  0
  190.3480  177.1790  141.3390 C   0  0  0  0  0  2  0  0  0  0  0  0
  188.4920  178.5060  140.7500 C   0  0  2  0  0  3  0  0  0  0  0  0
  187.6370  176.5630  134.6520 C   0  0  0  0  0  3  0  0  0  0  0  0
  187.7400  177.7900  135.1920 C   0  0  0  0  0  3  0  0  0  0  0  0
  187.7270  175.3250  135.5150 C   0  0  1  0  0  3  0  0  0  0  0  0
  190.9680  175.1230  137.3770 C   0  0  0  0  0  2  0  0  0  0  0  0
  188.4670  174.2670  134.8440 N   0  0  0  0  0  0  0  0  0  0  0  0
  188.4260  176.9260  137.3800 C   0  0  0  0  0  0  0  0  0  0  0  0
  189.2060  178.1740  139.4460 C   0  0  2  0  0  3  0  0  0  0  0  0
  188.5720  177.0330  138.7950 N   0  0  0  0  0  2  0  0  0  0  0  0
  189.6420  174.8300  136.7230 C   0  0  1  0  0  3  0  0  0  0  0  0
  189.0370  177.6400  141.8010 N   0  0  0  0  0  0  0  0  0  0  0  0
  186.2570  178.3350  141.8600 C   0  0  0  0  0  3  0  0  0  0  0  0
  186.3170  178.5640  139.4520 C   0  0  0  0  0  3  0  0  0  0  0  0
  186.9920  178.4520  140.6760 C   0  0  0  0  0  0  0  0  0  0  0  0
  184.8610  178.3160  141.8230 C   0  0  0  0  0  3  0  0  0  0  0  0
  184.1830  178.4210  140.5980 C   0  0  0  0  0  0  0  0  0  0  0  0
  184.9190  178.5450  139.4140 C   0  0  0  0  0  3  0  0  0  0  0  0
  182.7880  178.4070  140.5280 O   0  0  0  0  0  0  0  0  0  0  0  0
  182.0570  179.2100  139.6110 C   0  0  0  0  0  2  0  0  0  0  0  0
  181.1260  178.7200  137.4750 O   0  0  0  0  0  0  0  0  0  0  0  0
  180.8180  177.1160  139.0840 O   0  0  0  0  0  1  0  0  0  0  0  0
  181.3240  178.3360  138.6580 C   0  0  0  0  0  0  0  0  0  0  0  0
  190.1140  171.7410  135.0310 O   0  0  0  0  0  0  0  0  0  0  0  0
  191.8180  173.3130  134.7920 N   0  0  0  0  0  2  0  0  0  0  0  0
  190.4760  172.9450  135.1160 C   0  0  0  0  0  0  0  0  0  0  0  0
  192.8000  172.3360  134.3460 C   0  0  0  0  0  2  0  0  0  0  0  0
  193.9040  172.2000  135.3800 C   0  0  0  0  0  2  0  0  0  0  0  0
  194.0580  173.4640  137.3880 O   0  0  0  0  0  1  0  0  0  0  0  0
  194.2080  173.5490  136.0050 C   0  0  0  0  0  2  0  0  0  0  0  0
  189.1840  178.3860  143.0560 C   0  0  0  0  0  2  0  0  0  0  0  0
  190.0980  177.6980  144.0750 C   0  0  0  0  0  2  0  0  0  0  0  0
  189.2870  177.2410  145.2760 C   0  0  0  0  0  2  0  0  0  0  0  0
  187.0260  176.5750  144.4510 C   0  0  0  0  0  1  0  0  0  0  0  0
  187.8310  177.6630  145.1400 C   0  0  1  0  0  3  0  0  0  0  0  0
  187.7830  177.5780  147.5040 O   0  0  0  0  0  0  0  0  0  0  0  0
  187.2470  177.9760  146.4810 C   0  0  0  0  0  0  0  0  0  0  0  0
  184.4760  177.9910  147.1490 O   0  0  0  0  0  1  0  0  0  0  0  0
  185.9680  180.1050  147.5410 O   0  0  0  0  0  1  0  0  0  0  0  0
  185.7500  178.9530  146.5870 P   0  0  0  0  0  0  0  0  0  0  0  0
  185.3630  179.5570  145.0560 O   0  0  0  0  0  0  0  0  0  0  0  0
  2  1  1  6  0  0  0
  2  7  1  0  0  0  0
  3 17  1  0  0  0  0
  3 14  1  6  0  0  0
  4 14  2  0  0  0  0
  5  1  1  0  0  0  0
  6 17  1  0  0  0  0
  7 18  1  0  0  0  0
  8 21  1  6  0  0  0
  8 18  1  0  0  0  0
  9 10  2  0  0  0  0
 10  4  1  0  0  0  0
 11  9  1  6  0  0  0
 11  3  1  0  0  0  0
 12  5  1  0  0  0  0
 13 11  1  0  0  0  0
 13  6  2  0  0  0  0
 14 16  1  0  0  0  0
 15 16  1  1  0  0  0
 15  2  1  0  0  0  0
 15  8  1  0  0  0  0
 17 12  1  6  0  0  0
 18 37  1  0  0  0  0
 20 21  1  0  0  0  0
 21 19  2  0  0  0  0
 22 19  1  0  0  0  0
 23 22  2  0  0  0  0
 24 20  2  0  0  0  0
 24 23  1  0  0  0  0
 25 23  1  0  0  0  0
 26 25  1  0  0  0  0
 27 29  2  0  0  0  0
 29 28  1  0  0  0  0
 29 26  1  0  0  0  0
 30 32  2  0  0  0  0
 31 32  1  0  0  0  0
 32  6  1  0  0  0  0
 33 31  1  0  0  0  0
 33 34  1  0  0  0  0
 34 36  1  0  0  0  0
 36 35  1  0  0  0  0
 37 38  1  0  0  0  0
 38 39  1  0  0  0  0
 41 40  1  1  0  0  0
 41 39  1  0  0  0  0
 41 43  1  0  0  0  0
 43 46  1  0  0  0  0
 43 42  2  0  0  0  0
 46 44  1  0  0  0  0
 46 45  1  0  0  0  0
 47 46  2  0  0  0  0
M  END
>  <MODEL>
6

>  <REMARK>
 VINA RESULT:      -6.2      2.113      3.052
  Name = 
  14 active torsions:
  status: ('A' for Active; 'I' for Inactive)
    1  A    between atoms: N_9  and  C_14
    2  A    between atoms: C_10  and  C_14
    3  A    between atoms: C_10  and  C_47
    4  A    between atoms: C_13  and  C_39
    5  A    between atoms: C_16  and  C_26
    6  A    between atoms: C_22  and  C_34
    7  A    between atoms: C_22  and  C_36
    8  A    between atoms: C_23  and  C_24
    9  A    between atoms: C_24  and  O_30
   10  A    between atoms: C_27  and  C_34
   11  A    between atoms: C_27  and  P_40
   12  A    between atoms: O_30  and  C_32
   13  A    between atoms: C_36  and  C_37
   14  A    between atoms: C_37  and  N_46
                            x       y       z     vdW  Elec       q    Type
                         _______ _______ _______ _____ _____    ______ ____

>  <TORSDO>
F 14

$$$$
=
 OpenBabel10232411493D

 47 51  0  0  1  0  0  0  0  0999 V2000
  185.4460  179.3930  141.2360 C   0  0  0  0  0  2  0  0  0  0  0  0
  185.1020  179.0950  139.7700 C   0  0  2  0  0  3  0  0  0  0  0  0
  188.4970  176.9910  141.5810 C   0  0  2  0  0  3  0  0  0  0  0  0
  189.1630  178.0760  139.5330 C   0  0  0  0  0  3  0  0  0  0  0  0
  185.6200  178.1420  142.0920 C   0  0  0  0  0  2  0  0  0  0  0  0
  188.9060  176.9600  143.7760 C   0  0  0  0  0  0  0  0  0  0  0  0
  183.8650  178.2330  139.5890 C   0  0  0  0  0  2  0  0  0  0  0  0
  185.3650  177.8080  137.8230 C   0  0  2  0  0  3  0  0  0  0  0  0
  190.8840  177.3630  141.1470 C   0  0  0  0  0  3  0  0  0  0  0  0
  190.5520  178.0810  140.0580 C   0  0  0  0  0  3  0  0  0  0  0  0
  189.8750  176.4610  141.8190 C   0  0  1  0  0  3  0  0  0  0  0  0
  186.8430  178.3300  142.9710 C   0  0  0  0  0  2  0  0  0  0  0  0
  190.0050  176.5100  143.2670 N   0  0  0  0  0  0  0  0  0  0  0  0
  188.1680  177.5510  140.2600 C   0  0  0  0  0  0  0  0  0  0  0  0
  186.1920  178.4350  138.9390 C   0  0  2  0  0  3  0  0  0  0  0  0
  186.8550  177.4010  139.7250 N   0  0  0  0  0  2  0  0  0  0  0  0
  187.9260  177.3070  142.7470 C   0  0  1  0  0  3  0  0  0  0  0  0
  184.0600  177.4330  138.3780 N   0  0  0  0  0  0  0  0  0  0  0  0
  187.2470  176.9050  136.4450 C   0  0  0  0  0  3  0  0  0  0  0  0
  185.5050  175.3730  137.1340 C   0  0  0  0  0  3  0  0  0  0  0  0
  186.0380  176.6690  137.1080 C   0  0  0  0  0  0  0  0  0  0  0  0
  187.9110  175.8580  135.8000 C   0  0  0  0  0  3  0  0  0  0  0  0
  187.3750  174.5600  135.8200 C   0  0  0  0  0  0  0  0  0  0  0  0
  186.1700  174.3250  136.4910 C   0  0  0  0  0  3  0  0  0  0  0  0
  188.0170  173.4930  135.1870 O   0  0  0  0  0  0  0  0  0  0  0  0
  188.4420  172.3290  135.8850 C   0  0  0  0  0  2  0  0  0  0  0  0
  188.0820  169.9820  135.7140 O   0  0  0  0  0  1  0  0  0  0  0  0
  186.7850  171.2870  134.3460 O   0  0  0  0  0  0  0  0  0  0  0  0
  187.7560  171.1350  135.3270 C   0  0  0  0  0  0  0  0  0  0  0  0
  189.6570  176.8200  146.0230 O   0  0  0  0  0  0  0  0  0  0  0  0
  187.4980  177.6500  145.7330 N   0  0  0  0  0  2  0  0  0  0  0  0
  188.7280  177.1270  145.2280 C   0  0  0  0  0  0  0  0  0  0  0  0
  187.2740  177.8600  147.1550 C   0  0  0  0  0  2  0  0  0  0  0  0
  186.2000  178.9110  147.3630 C   0  0  0  0  0  2  0  0  0  0  0  0
  184.0900  178.7510  146.2770 O   0  0  0  0  0  1  0  0  0  0  0  0
  185.4180  179.1260  146.0800 C   0  0  0  0  0  2  0  0  0  0  0  0
  182.9910  177.7190  137.4140 C   0  0  0  0  0  2  0  0  0  0  0  0
  181.8170  176.7380  137.4910 C   0  0  0  0  0  2  0  0  0  0  0  0
  181.7840  175.8670  136.2480 C   0  0  0  0  0  2  0  0  0  0  0  0
  180.0200  174.0980  136.2420 C   0  0  0  0  0  1  0  0  0  0  0  0
  181.4590  174.4240  136.6050 C   0  0  1  0  0  3  0  0  0  0  0  0
  182.9640  173.8170  134.8840 O   0  0  0  0  0  0  0  0  0  0  0  0
  182.3970  173.4860  135.9150 C   0  0  0  0  0  0  0  0  0  0  0  0
  182.8430  170.7240  135.3700 O   0  0  0  0  0  0  0  0  0  0  0  0
  183.9790  171.8930  137.4170 O   0  0  0  0  0  1  0  0  0  0  0  0
  182.7000  171.8650  136.6120 P   0  0  0  0  0  0  0  0  0  0  0  0
  181.4110  171.4370  137.6200 O   0  0  0  0  0  1  0  0  0  0  0  0
  1  5  1  0  0  0  0
  2  7  1  1  0  0  0
  2  1  1  0  0  0  0
  3 14  1  6  0  0  0
  3 11  1  0  0  0  0
  3 17  1  0  0  0  0
  4 10  1  0  0  0  0
  4 14  2  0  0  0  0
  5 12  1  0  0  0  0
  6 32  1  0  0  0  0
  8 21  1  1  0  0  0
  8 18  1  0  0  0  0
  8 15  1  0  0  0  0
 10  9  2  0  0  0  0
 11  9  1  6  0  0  0
 11 13  1  0  0  0  0
 13  6  2  0  0  0  0
 15 16  1  1  0  0  0
 15  2  1  0  0  0  0
 16 14  1  0  0  0  0
 17 12  1  6  0  0  0
 17  6  1  0  0  0  0
 18  7  1  0  0  0  0
 19 21  1  0  0  0  0
 21 20  2  0  0  0  0
 22 23  1  0  0  0  0
 22 19  2  0  0  0  0
 23 24  2  0  0  0  0
 24 20  1  0  0  0  0
 25 23  1  0  0  0  0
 25 26  1  0  0  0  0
 28 29  2  0  0  0  0
 29 27  1  0  0  0  0
 29 26  1  0  0  0  0
 31 33  1  0  0  0  0
 32 31  1  0  0  0  0
 32 30  2  0  0  0  0
 33 34  1  0  0  0  0
 36 35  1  0  0  0  0
 36 34  1  0  0  0  0
 37 38  1  0  0  0  0
 37 18  1  0  0  0  0
 39 41  1  0  0  0  0
 39 38  1  0  0  0  0
 41 40  1  6  0  0  0
 42 43  2  0  0  0  0
 43 41  1  0  0  0  0
 43 46  1  0  0  0  0
 44 46  2  0  0  0  0
 46 45  1  0  0  0  0
 46 47  1  0  0  0  0
M  END
>  <MODEL>
7

>  <REMARK>
 VINA RESULT:      -6.0      3.488      8.742
  Name = 
  14 active torsions:
  status: ('A' for Active; 'I' for Inactive)
    1  A    between atoms: N_9  and  C_14
    2  A    between atoms: C_10  and  C_14
    3  A    between atoms: C_10  and  C_47
    4  A    between atoms: C_13  and  C_39
    5  A    between atoms: C_16  and  C_26
    6  A    between atoms: C_22  and  C_34
    7  A    between atoms: C_22  and  C_36
    8  A    between atoms: C_23  and  C_24
    9  A    between atoms: C_24  and  O_30
   10  A    between atoms: C_27  and  C_34
   11  A    between atoms: C_27  and  P_40
   12  A    between atoms: O_30  and  C_32
   13  A    between atoms: C_36  and  C_37
   14  A    between atoms: C_37  and  N_46
                            x       y       z     vdW  Elec       q    Type
                         _______ _______ _______ _____ _____    ______ ____

>  <TORSDO>
F 14

$$$$
=
 OpenBabel10232411493D

 47 51  0  0  1  0  0  0  0  0999 V2000
  190.3990  177.6900  140.5920 C   0  0  0  0  0  2  0  0  0  0  0  0
  189.2150  178.3490  141.3120 C   0  0  2  0  0  3  0  0  0  0  0  0
  188.5040  176.5020  137.3990 C   0  0  2  0  0  3  0  0  0  0  0  0
  187.7180  178.7810  137.4190 C   0  0  0  0  0  3  0  0  0  0  0  0
  190.1050  176.2790  140.0920 C   0  0  0  0  0  2  0  0  0  0  0  0
  189.9630  175.1470  136.3870 C   0  0  0  0  0  0  0  0  0  0  0  0
  188.6780  177.5450  142.4830 C   0  0  0  0  0  2  0  0  0  0  0  0
  186.9120  178.7660  141.5140 C   0  0  2  0  0  3  0  0  0  0  0  0
  188.0930  177.6440  135.2650 C   0  0  0  0  0  3  0  0  0  0  0  0
  187.8770  178.7850  135.9430 C   0  0  0  0  0  3  0  0  0  0  0  0
  188.0930  176.3090  135.9740 C   0  0  1  0  0  3  0  0  0  0  0  0
  190.6660  176.1420  138.6890 C   0  0  0  0  0  2  0  0  0  0  0  0
  189.1240  175.4300  135.4460 N   0  0  0  0  0  0  0  0  0  0  0  0
  188.0160  177.6840  138.1270 C   0  0  0  0  0  0  0  0  0  0  0  0
  188.0050  178.6910  140.4550 C   0  0  2  0  0  3  0  0  0  0  0  0
  187.7370  177.6020  139.5240 N   0  0  0  0  0  2  0  0  0  0  0  0
  189.6310  175.8250  137.6400 C   0  0  1  0  0  3  0  0  0  0  0  0
  187.2410  177.8120  142.5780 N   0  0  0  0  0  0  0  0  0  0  0  0
  184.5420  178.0290  141.8230 C   0  0  0  0  0  3  0  0  0  0  0  0
  185.1610  179.0060  139.6980 C   0  0  0  0  0  3  0  0  0  0  0  0
  185.5150  178.5860  140.9870 C   0  0  0  0  0  0  0  0  0  0  0  0
  183.2280  177.8800  141.3710 C   0  0  0  0  0  3  0  0  0  0  0  0
  182.8730  178.2950  140.0770 C   0  0  0  0  0  0  0  0  0  0  0  0
  183.8460  178.8580  139.2450 C   0  0  0  0  0  3  0  0  0  0  0  0
  181.5680  178.1610  139.5980 O   0  0  0  0  0  0  0  0  0  0  0  0
  180.5020  178.9970  140.0290 C   0  0  0  0  0  2  0  0  0  0  0  0
  180.5930  181.3360  139.5960 O   0  0  0  0  0  1  0  0  0  0  0  0
  180.0560  180.0140  137.8010 O   0  0  0  0  0  0  0  0  0  0  0  0
  180.4020  180.1800  139.1350 C   0  0  0  0  0  0  0  0  0  0  0  0
  191.0910  173.0630  136.5100 O   0  0  0  0  0  0  0  0  0  0  0  0
  192.2950  174.8020  135.5310 N   0  0  0  0  0  2  0  0  0  0  0  0
  191.1260  174.2730  136.1610 C   0  0  0  0  0  0  0  0  0  0  0  0
  193.4650  173.9810  135.2610 C   0  0  0  0  0  2  0  0  0  0  0  0
  194.7300  174.7960  135.4620 C   0  0  0  0  0  2  0  0  0  0  0  0
  196.5260  175.0050  137.0060 O   0  0  0  0  0  1  0  0  0  0  0  0
  195.6730  174.0780  136.4100 C   0  0  0  0  0  2  0  0  0  0  0  0
  186.9270  178.3820  143.8940 C   0  0  0  0  0  2  0  0  0  0  0  0
  186.6710  177.3270  144.9740 C   0  0  0  0  0  2  0  0  0  0  0  0
  187.9400  177.0760  145.7690 C   0  0  0  0  0  2  0  0  0  0  0  0
  186.8710  178.5120  147.5120 C   0  0  0  0  0  1  0  0  0  0  0  0
  188.1670  178.1810  146.7920 C   0  0  1  0  0  3  0  0  0  0  0  0
  189.0910  178.0180  148.9630 O   0  0  0  0  0  0  0  0  0  0  0  0
  189.2230  177.7810  147.7720 C   0  0  0  0  0  0  0  0  0  0  0  0
  190.4290  175.2660  147.1830 O   0  0  0  0  0  1  0  0  0  0  0  0
  191.0220  177.4030  145.7940 O   0  0  0  0  0  0  0  0  0  0  0  0
  190.6930  176.9380  147.1940 P   0  0  0  0  0  0  0  0  0  0  0  0
  191.9870  177.2930  148.2230 O   0  0  0  0  0  1  0  0  0  0  0  0
  2  1  1  6  0  0  0
  2  7  1  0  0  0  0
  3 17  1  0  0  0  0
  3 14  1  6  0  0  0
  4 14  2  0  0  0  0
  5  1  1  0  0  0  0
  6 17  1  0  0  0  0
  7 18  1  0  0  0  0
  8 21  1  6  0  0  0
  8 18  1  0  0  0  0
  9 10  2  0  0  0  0
 10  4  1  0  0  0  0
 11  9  1  6  0  0  0
 11  3  1  0  0  0  0
 12  5  1  0  0  0  0
 13 11  1  0  0  0  0
 13  6  2  0  0  0  0
 14 16  1  0  0  0  0
 15 16  1  6  0  0  0
 15  2  1  0  0  0  0
 15  8  1  0  0  0  0
 17 12  1  6  0  0  0
 18 37  1  0  0  0  0
 20 21  1  0  0  0  0
 21 19  2  0  0  0  0
 22 19  1  0  0  0  0
 23 22  2  0  0  0  0
 24 20  2  0  0  0  0
 24 23  1  0  0  0  0
 25 26  1  0  0  0  0
 25 23  1  0  0  0  0
 28 29  2  0  0  0  0
 29 27  1  0  0  0  0
 29 26  1  0  0  0  0
 31 32  1  0  0  0  0
 32  6  1  0  0  0  0
 32 30  2  0  0  0  0
 33 34  1  0  0  0  0
 33 31  1  0  0  0  0
 34 36  1  0  0  0  0
 36 35  1  0  0  0  0
 37 38  1  0  0  0  0
 38 39  1  0  0  0  0
 39 41  1  0  0  0  0
 41 40  1  1  0  0  0
 41 43  1  0  0  0  0
 43 42  2  0  0  0  0
 44 46  1  0  0  0  0
 45 46  2  0  0  0  0
 46 43  1  0  0  0  0
 46 47  1  0  0  0  0
M  END
>  <MODEL>
8

>  <REMARK>
 VINA RESULT:      -5.9      1.680      2.308
  Name = 
  14 active torsions:
  status: ('A' for Active; 'I' for Inactive)
    1  A    between atoms: N_9  and  C_14
    2  A    between atoms: C_10  and  C_14
    3  A    between atoms: C_10  and  C_47
    4  A    between atoms: C_13  and  C_39
    5  A    between atoms: C_16  and  C_26
    6  A    between atoms: C_22  and  C_34
    7  A    between atoms: C_22  and  C_36
    8  A    between atoms: C_23  and  C_24
    9  A    between atoms: C_24  and  O_30
   10  A    between atoms: C_27  and  C_34
   11  A    between atoms: C_27  and  P_40
   12  A    between atoms: O_30  and  C_32
   13  A    between atoms: C_36  and  C_37
   14  A    between atoms: C_37  and  N_46
                            x       y       z     vdW  Elec       q    Type
                         _______ _______ _______ _____ _____    ______ ____

>  <TORSDO>
F 14

$$$$
=
 OpenBabel10232411493D

 47 51  0  0  1  0  0  0  0  0999 V2000
  184.9990  179.4280  140.7740 C   0  0  0  0  0  2  0  0  0  0  0  0
  184.5000  179.0660  139.3690 C   0  0  2  0  0  3  0  0  0  0  0  0
  188.2720  177.3090  140.7540 C   0  0  2  0  0  3  0  0  0  0  0  0
  188.5730  178.4000  138.6240 C   0  0  0  0  0  3  0  0  0  0  0  0
  185.3920  178.2180  141.6160 C   0  0  0  0  0  2  0  0  0  0  0  0
  188.9580  177.3670  142.8790 C   0  0  0  0  0  0  0  0  0  0  0  0
  183.3320  178.0960  139.3580 C   0  0  0  0  0  2  0  0  0  0  0  0
  184.6280  177.7610  137.4200 C   0  0  2  0  0  3  0  0  0  0  0  0
  190.5410  177.8780  140.0120 C   0  0  0  0  0  3  0  0  0  0  0  0
  190.0110  178.5380  138.9660 C   0  0  0  0  0  3  0  0  0  0  0  0
  189.7110  176.9080  140.8190 C   0  0  1  0  0  3  0  0  0  0  0  0
  186.6940  178.5320  142.3280 C   0  0  0  0  0  2  0  0  0  0  0  0
  190.0190  177.0030  142.2380 N   0  0  0  0  0  0  0  0  0  0  0  0
  187.7290  177.8070  139.4790 C   0  0  0  0  0  0  0  0  0  0  0  0
  185.5300  178.4840  138.4120 C   0  0  2  0  0  3  0  0  0  0  0  0
  186.3770  177.5310  139.1190 N   0  0  0  0  0  2  0  0  0  0  0  0
  187.8280  177.6020  141.9800 C   0  0  1  0  0  3  0  0  0  0  0  0
  183.4430  177.2870  138.1430 N   0  0  0  0  0  0  0  0  0  0  0  0
  185.0360  175.3350  136.9650 C   0  0  0  0  0  3  0  0  0  0  0  0
  186.1570  176.9590  135.5640 C   0  0  0  0  0  3  0  0  0  0  0  0
  185.3040  176.6690  136.6390 C   0  0  0  0  0  0  0  0  0  0  0  0
  185.6240  174.3000  136.2350 C   0  0  0  0  0  3  0  0  0  0  0  0
  186.4840  174.5890  135.1620 C   0  0  0  0  0  0  0  0  0  0  0  0
  186.7450  175.9230  134.8320 C   0  0  0  0  0  3  0  0  0  0  0  0
  187.0860  173.5760  134.4120 O   0  0  0  0  0  0  0  0  0  0  0  0
  187.7290  172.4580  135.0080 C   0  0  0  0  0  2  0  0  0  0  0  0
  190.1070  172.4690  134.8930 O   0  0  0  0  0  0  0  0  0  0  0  0
  189.1930  173.6270  136.6480 O   0  0  0  0  0  1  0  0  0  0  0  0
  189.0740  172.8590  135.4980 C   0  0  0  0  0  0  0  0  0  0  0  0
  190.0110  177.8640  144.9460 O   0  0  0  0  0  0  0  0  0  0  0  0
  187.7320  177.3870  145.0660 N   0  0  0  0  0  2  0  0  0  0  0  0
  188.9510  177.5520  144.3390 C   0  0  0  0  0  0  0  0  0  0  0  0
  187.6600  177.5810  146.5060 C   0  0  0  0  0  2  0  0  0  0  0  0
  186.2240  177.8380  146.9250 C   0  0  0  0  0  2  0  0  0  0  0  0
  184.9100  179.0990  145.3960 O   0  0  0  0  0  1  0  0  0  0  0  0
  185.7840  179.2190  146.4750 C   0  0  0  0  0  2  0  0  0  0  0  0
  182.2390  177.4560  137.3200 C   0  0  0  0  0  2  0  0  0  0  0  0
  181.2930  178.5450  137.8350 C   0  0  0  0  0  2  0  0  0  0  0  0
  181.0810  179.6000  136.7630 C   0  0  0  0  0  2  0  0  0  0  0  0
  181.7700  181.2150  138.5400 C   0  0  0  0  0  1  0  0  0  0  0  0
  180.8130  180.9620  137.3880 C   0  0  1  0  0  3  0  0  0  0  0  0
  181.0550  181.7690  135.1770 O   0  0  0  0  0  0  0  0  0  0  0  0
  180.9310  182.0430  136.3610 C   0  0  0  0  0  0  0  0  0  0  0  0
  182.4550  184.3240  137.1360 O   0  0  0  0  0  1  0  0  0  0  0  0
  180.2240  184.5870  135.7950 O   0  0  0  0  0  0  0  0  0  0  0  0
  180.8820  183.7580  136.8740 P   0  0  0  0  0  0  0  0  0  0  0  0
  179.9920  183.8920  138.3060 O   0  0  0  0  0  1  0  0  0  0  0  0
  1  5  1  0  0  0  0
  2  7  1  1  0  0  0
  2  1  1  0  0  0  0
  3 14  1  6  0  0  0
  3 11  1  0  0  0  0
  3 17  1  0  0  0  0
  4 10  1  0  0  0  0
  4 14  2  0  0  0  0
  5 12  1  0  0  0  0
  6 32  1  0  0  0  0
  8 21  1  1  0  0  0
  8 18  1  0  0  0  0
  8 15  1  0  0  0  0
 10  9  2  0  0  0  0
 11  9  1  6  0  0  0
 11 13  1  0  0  0  0
 13  6  2  0  0  0  0
 15 16  1  1  0  0  0
 15  2  1  0  0  0  0
 16 14  1  0  0  0  0
 17 12  1  6  0  0  0
 17  6  1  0  0  0  0
 18  7  1  0  0  0  0
 20 21  2  0  0  0  0
 21 19  1  0  0  0  0
 22 19  2  0  0  0  0
 23 22  1  0  0  0  0
 24 23  2  0  0  0  0
 24 20  1  0  0  0  0
 25 26  1  0  0  0  0
 25 23  1  0  0  0  0
 26 29  1  0  0  0  0
 27 29  2  0  0  0  0
 29 28  1  0  0  0  0
 31 33  1  0  0  0  0
 32 30  2  0  0  0  0
 32 31  1  0  0  0  0
 33 34  1  0  0  0  0
 35 36  1  0  0  0  0
 36 34  1  0  0  0  0
 37 38  1  0  0  0  0
 37 18  1  0  0  0  0
 39 41  1  0  0  0  0
 39 38  1  0  0  0  0
 41 40  1  1  0  0  0
 42 43  2  0  0  0  0
 43 46  1  0  0  0  0
 43 41  1  0  0  0  0
 45 46  2  0  0  0  0
 46 44  1  0  0  0  0
 46 47  1  0  0  0  0
M  END
>  <MODEL>
9

>  <REMARK>
 VINA RESULT:      -5.8      3.726      8.782
  Name = 
  14 active torsions:
  status: ('A' for Active; 'I' for Inactive)
    1  A    between atoms: N_9  and  C_14
    2  A    between atoms: C_10  and  C_14
    3  A    between atoms: C_10  and  C_47
    4  A    between atoms: C_13  and  C_39
    5  A    between atoms: C_16  and  C_26
    6  A    between atoms: C_22  and  C_34
    7  A    between atoms: C_22  and  C_36
    8  A    between atoms: C_23  and  C_24
    9  A    between atoms: C_24  and  O_30
   10  A    between atoms: C_27  and  C_34
   11  A    between atoms: C_27  and  P_40
   12  A    between atoms: O_30  and  C_32
   13  A    between atoms: C_36  and  C_37
   14  A    between atoms: C_37  and  N_46
                            x       y       z     vdW  Elec       q    Type
                         _______ _______ _______ _____ _____    ______ ____

>  <TORSDO>
F 14

$$$$
