=
 OpenBabel10232412403D

 37 42  0  0  1  0  0  0  0  0999 V2000
  187.8430  177.9090  139.9640 C   0  0  0  0  0  0  0  0  0  0  0  0
  187.7100  177.7870  142.4640 C   0  0  0  0  0  0  0  0  0  0  0  0
  184.3380  178.8670  143.2700 N   0  0  0  0  0  0  0  0  0  0  0  0
  189.5950  177.1990  141.4340 N   0  0  0  0  0  0  0  0  0  0  0  0
  190.0870  177.1240  139.0990 C   0  0  0  0  0  3  0  0  0  0  0  0
  186.2190  178.4570  139.8840 S   0  0  0  0  0  0  0  0  0  0  0  0
  185.9170  178.2170  145.0210 N   0  0  0  0  0  1  0  0  0  0  0  0
  186.3880  178.2310  142.5820 C   0  0  0  0  0  0  0  0  0  0  0  0
  185.5740  178.5710  141.4480 C   0  0  0  0  0  0  0  0  0  0  0  0
  185.5630  178.4360  143.6620 C   0  0  0  0  0  0  0  0  0  0  0  0
  189.7560  177.0420  142.7660 C   0  0  0  0  0  0  0  0  0  0  0  0
  188.7320  177.7590  138.7410 C   0  0  2  0  0  0  0  0  0  0  0  0
  188.6030  177.4080  143.4610 C   0  0  0  0  0  3  0  0  0  0  0  0
  184.3350  178.9540  141.9120 C   0  0  0  0  0  3  0  0  0  0  0  0
  190.4840  176.8880  140.3590 C   0  0  0  0  0  3  0  0  0  0  0  0
  188.9920  179.1660  138.2070 C   0  0  0  0  0  1  0  0  0  0  0  0
  188.3570  177.6510  141.2430 C   0  0  0  0  0  0  0  0  0  0  0  0
  188.0280  176.9720  137.7930 O   0  0  0  0  0  0  0  0  0  0  0  0
  188.8700  175.9830  137.2430 C   0  0  1  0  0  3  0  0  0  0  0  0
  185.9850  173.5620  136.8380 C   0  0  0  0  0  3  0  0  0  0  0  0
  188.1090  174.7050  137.0860 C   0  0  0  0  0  0  0  0  0  0  0  0
  186.6530  172.3370  136.7370 C   0  0  0  0  0  3  0  0  0  0  0  0
  188.7790  173.4760  136.9750 C   0  0  0  0  0  3  0  0  0  0  0  0
  188.0500  172.2950  136.8050 C   0  0  0  0  0  3  0  0  0  0  0  0
  186.7130  174.7440  137.0110 C   0  0  0  0  0  3  0  0  0  0  0  0
  190.7260  176.1750  135.5210 C   0  0  0  0  0  0  0  0  0  0  0  0
  191.0970  176.5600  134.3460 N   0  0  0  0  0  2  0  0  0  0  0  0
  189.3900  176.4380  135.9550 N   0  0  0  0  0  2  0  0  0  0  0  0
  191.7080  175.4940  136.4120 C   0  0  0  0  0  1  0  0  0  0  0  0
  191.0230  176.5830  143.4110 C   0  0  0  0  0  2  0  0  0  0  0  0
  191.7600  176.1230  145.6930 N   0  0  0  0  0  0  0  0  0  0  0  0
  190.9000  176.6570  144.8930 C   0  0  0  0  0  0  0  0  0  0  0  0
  190.1540  177.2780  146.8800 C   0  0  0  0  0  0  0  0  0  0  0  0
  189.8720  177.4080  145.5920 C   0  0  0  0  0  3  0  0  0  0  0  0
  191.3810  176.4400  147.0620 C   0  0  0  0  0  2  0  0  0  0  0  0
  189.3430  177.9200  147.9640 C   0  0  0  0  0  2  0  0  0  0  0  0
  187.8850  177.4970  147.9150 C   0  0  0  0  0  1  0  0  0  0  0  0
  1 17  2  0  0  0  0
  2  8  2  0  0  0  0
  2 13  1  0  0  0  0
  3 10  2  0  0  0  0
  4 11  1  0  0  0  0
  5 15  2  0  0  0  0
  6  1  1  0  0  0  0
  6  9  1  0  0  0  0
  8 10  1  0  0  0  0
  9 14  2  0  0  0  0
  9  8  1  0  0  0  0
 10  7  1  0  0  0  0
 11 30  1  0  0  0  0
 11 13  2  0  0  0  0
 12 16  1  6  0  0  0
 12  5  1  0  0  0  0
 12  1  1  0  0  0  0
 14  3  1  0  0  0  0
 15  4  1  0  0  0  0
 17  4  1  0  0  0  0
 17  2  1  0  0  0  0
 18 12  1  0  0  0  0
 19 28  1  6  0  0  0
 19 18  1  0  0  0  0
 20 25  1  0  0  0  0
 21 19  1  0  0  0  0
 22 24  1  0  0  0  0
 22 20  2  0  0  0  0
 23 21  1  0  0  0  0
 24 23  2  0  0  0  0
 25 21  2  0  0  0  0
 26 28  1  0  0  0  0
 26 29  1  0  0  0  0
 27 26  2  0  0  0  0
 30 32  1  0  0  0  0
 31 35  1  0  0  0  0
 32 34  1  0  0  0  0
 32 31  2  0  0  0  0
 33 35  1  0  0  0  0
 33 36  1  0  0  0  0
 34 33  2  0  0  0  0
 37 36  1  0  0  0  0
M  END
>  <MODEL>
1

>  <REMARK>
 VINA RESULT:      -8.7      0.000      0.000
  Name = 
  7 active torsions:
  status: ('A' for Active; 'I' for Inactive)
    1  A    between atoms: C_5  and  C_6
    2  A    between atoms: C_6  and  O_19
    3  A    between atoms: C_6  and  N_36
    4  A    between atoms: C_8  and  C_13
    5  A    between atoms: C_11  and  C_22
    6  A    between atoms: O_19  and  C_28
    7  A    between atoms: C_22  and  C_27
                            x       y       z     vdW  Elec       q    Type
                         _______ _______ _______ _____ _____    ______ ____

>  <TORSDO>
F 7

$$$$
=
 OpenBabel10232412403D

 37 42  0  0  1  0  0  0  0  0999 V2000
  189.0620  177.4950  140.1640 C   0  0  0  0  0  0  0  0  0  0  0  0
  189.3060  177.1280  137.6960 C   0  0  0  0  0  0  0  0  0  0  0  0
  192.6840  175.8650  137.2740 N   0  0  0  0  0  0  0  0  0  0  0  0
  187.3780  177.8900  138.5080 N   0  0  0  0  0  0  0  0  0  0  0  0
  186.7450  178.3080  140.7730 C   0  0  0  0  0  3  0  0  0  0  0  0
  190.6660  176.9440  140.4260 S   0  0  0  0  0  0  0  0  0  0  0  0
  191.1970  176.1810  135.3580 N   0  0  0  0  0  1  0  0  0  0  0  0
  190.6260  176.6640  137.7280 C   0  0  0  0  0  0  0  0  0  0  0  0
  191.3760  176.5230  138.9450 C   0  0  0  0  0  0  0  0  0  0  0  0
  191.4920  176.2410  136.7480 C   0  0  0  0  0  0  0  0  0  0  0  0
  187.2690  177.7630  137.1680 C   0  0  0  0  0  0  0  0  0  0  0  0
  188.1670  178.0110  141.2780 C   0  0  2  0  0  0  0  0  0  0  0  0
  188.4590  177.2970  136.6070 C   0  0  0  0  0  3  0  0  0  0  0  0
  192.6230  176.0350  138.6220 C   0  0  0  0  0  3  0  0  0  0  0  0
  186.3970  178.2680  139.4770 C   0  0  0  0  0  3  0  0  0  0  0  0
  188.7810  179.3210  141.7690 C   0  0  0  0  0  1  0  0  0  0  0  0
  188.6090  177.5070  138.8360 C   0  0  0  0  0  0  0  0  0  0  0  0
  188.1540  177.0330  142.3060 O   0  0  0  0  0  0  0  0  0  0  0  0
  188.7100  177.5510  143.4940 C   0  0  1  0  0  3  0  0  0  0  0  0
  186.9590  177.9520  146.8290 C   0  0  0  0  0  3  0  0  0  0  0  0
  187.6280  177.7590  144.5060 C   0  0  0  0  0  0  0  0  0  0  0  0
  185.6400  178.1990  146.4310 C   0  0  0  0  0  3  0  0  0  0  0  0
  186.3070  178.0170  144.1080 C   0  0  0  0  0  3  0  0  0  0  0  0
  185.3150  178.2320  145.0700 C   0  0  0  0  0  3  0  0  0  0  0  0
  187.9500  177.7340  145.8680 C   0  0  0  0  0  3  0  0  0  0  0  0
  191.0520  177.0560  144.3390 C   0  0  0  0  0  0  0  0  0  0  0  0
  191.8800  176.2010  144.8380 N   0  0  0  0  0  2  0  0  0  0  0  0
  189.7280  176.6360  144.0050 N   0  0  0  0  0  2  0  0  0  0  0  0
  191.5050  178.4540  144.0910 C   0  0  0  0  0  1  0  0  0  0  0  0
  186.0480  178.1240  136.3850 C   0  0  0  0  0  2  0  0  0  0  0  0
  184.7940  176.6500  134.8970 N   0  0  0  0  0  0  0  0  0  0  0  0
  185.2590  176.9010  136.0740 C   0  0  1  0  0  3  0  0  0  0  0  0
  184.3430  174.9060  136.3370 C   0  0  0  0  0  0  0  0  0  0  0  0
  185.0110  175.8250  137.0170 C   0  0  0  0  0  3  0  0  0  0  0  0
  184.1380  175.3520  134.9230 C   0  0  0  0  0  3  0  0  0  0  0  0
  183.8990  173.6060  136.9360 C   0  0  0  0  0  2  0  0  0  0  0  0
  185.0080  172.9300  137.7250 C   0  0  0  0  0  1  0  0  0  0  0  0
  1  6  1  0  0  0  0
  1 12  1  0  0  0  0
  2  8  2  0  0  0  0
  2 17  1  0  0  0  0
  3 14  1  0  0  0  0
  4 17  1  0  0  0  0
  4 15  1  0  0  0  0
  5 12  1  0  0  0  0
  7 10  1  0  0  0  0
  8  9  1  0  0  0  0
  9  6  1  0  0  0  0
 10  3  2  0  0  0  0
 10  8  1  0  0  0  0
 11  4  1  0  0  0  0
 12 16  1  1  0  0  0
 12 18  1  0  0  0  0
 13 11  2  0  0  0  0
 13  2  1  0  0  0  0
 14  9  2  0  0  0  0
 15  5  2  0  0  0  0
 17  1  2  0  0  0  0
 19 18  1  6  0  0  0
 19 28  1  0  0  0  0
 19 21  1  0  0  0  0
 21 25  1  0  0  0  0
 22 20  1  0  0  0  0
 23 21  2  0  0  0  0
 23 24  1  0  0  0  0
 24 22  2  0  0  0  0
 25 20  2  0  0  0  0
 26 27  2  0  0  0  0
 28 26  1  0  0  0  0
 29 26  1  0  0  0  0
 30 11  1  0  0  0  0
 31 35  2  0  0  0  0
 31 32  1  0  0  0  0
 32 30  1  6  0  0  0
 32 34  1  0  0  0  0
 33 36  1  0  0  0  0
 33 34  2  0  0  0  0
 35 33  1  0  0  0  0
 36 37  1  0  0  0  0
M  END
>  <MODEL>
2

>  <REMARK>
 VINA RESULT:      -8.6      2.360      8.690
  Name = 
  7 active torsions:
  status: ('A' for Active; 'I' for Inactive)
    1  A    between atoms: C_5  and  C_6
    2  A    between atoms: C_6  and  O_19
    3  A    between atoms: C_6  and  N_36
    4  A    between atoms: C_8  and  C_13
    5  A    between atoms: C_11  and  C_22
    6  A    between atoms: O_19  and  C_28
    7  A    between atoms: C_22  and  C_27
                            x       y       z     vdW  Elec       q    Type
                         _______ _______ _______ _____ _____    ______ ____

>  <TORSDO>
F 7

$$$$
=
 OpenBabel10232412403D

 37 42  0  0  1  0  0  0  0  0999 V2000
  187.5520  178.1480  138.5720 C   0  0  0  0  0  0  0  0  0  0  0  0
  186.7420  178.3590  140.9350 C   0  0  0  0  0  0  0  0  0  0  0  0
  183.2080  179.1400  140.6390 N   0  0  0  0  0  0  0  0  0  0  0  0
  188.8760  177.8580  140.5460 N   0  0  0  0  0  0  0  0  0  0  0  0
  190.0000  177.5180  138.4660 C   0  0  0  0  0  3  0  0  0  0  0  0
  185.9770  178.4870  137.9800 S   0  0  0  0  0  0  0  0  0  0  0  0
  184.2840  178.9280  142.8260 N   0  0  0  0  0  1  0  0  0  0  0  0
  185.4090  178.6580  140.6270 C   0  0  0  0  0  0  0  0  0  0  0  0
  184.9190  178.7410  139.2800 C   0  0  0  0  0  0  0  0  0  0  0  0
  184.3050  178.9130  141.4040 C   0  0  0  0  0  0  0  0  0  0  0  0
  188.6740  177.9060  141.8810 C   0  0  0  0  0  0  0  0  0  0  0  0
  188.7540  177.9350  137.6670 C   0  0  2  0  0  0  0  0  0  0  0  0
  187.3490  178.2290  142.1780 C   0  0  0  0  0  3  0  0  0  0  0  0
  183.5740  179.0370  139.3340 C   0  0  0  0  0  3  0  0  0  0  0  0
  190.0490  177.5060  139.8080 C   0  0  0  0  0  3  0  0  0  0  0  0
  189.0450  179.2750  136.9950 C   0  0  0  0  0  1  0  0  0  0  0  0
  187.7100  178.1310  139.9660 C   0  0  0  0  0  0  0  0  0  0  0  0
  188.4000  176.9470  136.7110 O   0  0  0  0  0  0  0  0  0  0  0  0
  189.1480  175.7690  136.9110 C   0  0  1  0  0  3  0  0  0  0  0  0
  185.9660  173.7310  137.1690 C   0  0  0  0  0  3  0  0  0  0  0  0
  188.2260  174.5960  137.0000 C   0  0  0  0  0  0  0  0  0  0  0  0
  186.4610  172.4230  137.1140 C   0  0  0  0  0  3  0  0  0  0  0  0
  188.7190  173.2830  136.9350 C   0  0  0  0  0  3  0  0  0  0  0  0
  187.8370  172.2000  136.9960 C   0  0  0  0  0  3  0  0  0  0  0  0
  186.8480  174.8140  137.1100 C   0  0  0  0  0  3  0  0  0  0  0  0
  191.4360  175.1270  136.0170 C   0  0  0  0  0  0  0  0  0  0  0  0
  192.2040  174.9460  134.9960 N   0  0  0  0  0  2  0  0  0  0  0  0
  190.1020  175.5970  135.8170 N   0  0  0  0  0  2  0  0  0  0  0  0
  191.9690  174.8740  137.3870 C   0  0  0  0  0  1  0  0  0  0  0  0
  189.7440  177.6920  142.9020 C   0  0  0  0  0  2  0  0  0  0  0  0
  188.0110  177.0100  144.4800 N   0  0  0  0  0  0  0  0  0  0  0  0
  189.1420  177.5900  144.2600 C   0  0  0  0  0  0  0  0  0  0  0  0
  188.9690  177.7020  146.4610 C   0  0  0  0  0  0  0  0  0  0  0  0
  189.7940  178.0340  145.4790 C   0  0  0  0  0  3  0  0  0  0  0  0
  187.7530  177.0240  145.9130 C   0  0  0  0  0  2  0  0  0  0  0  0
  189.2690  177.9670  147.9050 C   0  0  0  0  0  2  0  0  0  0  0  0
  188.0080  178.0290  148.7500 C   0  0  0  0  0  1  0  0  0  0  0  0
  1 17  2  0  0  0  0
  2 13  1  0  0  0  0
  3 10  2  0  0  0  0
  4 11  1  0  0  0  0
  5 15  2  0  0  0  0
  6  1  1  0  0  0  0
  6  9  1  0  0  0  0
  8  2  2  0  0  0  0
  8 10  1  0  0  0  0
  9 14  2  0  0  0  0
  9  8  1  0  0  0  0
 10  7  1  0  0  0  0
 11 13  2  0  0  0  0
 11 30  1  0  0  0  0
 12 16  1  6  0  0  0
 12  5  1  0  0  0  0
 12  1  1  0  0  0  0
 14  3  1  0  0  0  0
 15  4  1  0  0  0  0
 17  4  1  0  0  0  0
 17  2  1  0  0  0  0
 18 19  1  0  0  0  0
 18 12  1  0  0  0  0
 19 28  1  6  0  0  0
 19 21  1  0  0  0  0
 21 25  1  0  0  0  0
 22 20  1  0  0  0  0
 23 24  1  0  0  0  0
 23 21  2  0  0  0  0
 24 22  2  0  0  0  0
 25 20  2  0  0  0  0
 26 29  1  0  0  0  0
 27 26  2  0  0  0  0
 28 26  1  0  0  0  0
 30 32  1  0  0  0  0
 31 35  1  0  0  0  0
 32 31  2  0  0  0  0
 32 34  1  0  0  0  0
 33 36  1  0  0  0  0
 34 33  2  0  0  0  0
 35 33  1  0  0  0  0
 36 37  1  0  0  0  0
M  END
>  <MODEL>
3

>  <REMARK>
 VINA RESULT:      -8.5      1.365      1.780
  Name = 
  7 active torsions:
  status: ('A' for Active; 'I' for Inactive)
    1  A    between atoms: C_5  and  C_6
    2  A    between atoms: C_6  and  O_19
    3  A    between atoms: C_6  and  N_36
    4  A    between atoms: C_8  and  C_13
    5  A    between atoms: C_11  and  C_22
    6  A    between atoms: O_19  and  C_28
    7  A    between atoms: C_22  and  C_27
                            x       y       z     vdW  Elec       q    Type
                         _______ _______ _______ _____ _____    ______ ____

>  <TORSDO>
F 7

$$$$
=
 OpenBabel10232412403D

 37 42  0  0  1  0  0  0  0  0999 V2000
  187.5430  178.0100  138.6300 C   0  0  0  0  0  0  0  0  0  0  0  0
  187.6920  177.9400  141.1320 C   0  0  0  0  0  0  0  0  0  0  0  0
  184.4130  178.9880  142.2870 N   0  0  0  0  0  0  0  0  0  0  0  0
  189.4590  177.3560  139.9100 N   0  0  0  0  0  0  0  0  0  0  0  0
  189.6900  177.2380  137.5360 C   0  0  0  0  0  3  0  0  0  0  0  0
  185.9120  178.5320  138.7210 S   0  0  0  0  0  0  0  0  0  0  0  0
  186.1870  178.3990  143.8640 N   0  0  0  0  0  1  0  0  0  0  0  0
  186.3840  178.3670  141.3870 C   0  0  0  0  0  0  0  0  0  0  0  0
  185.4440  178.6710  140.3450 C   0  0  0  0  0  0  0  0  0  0  0  0
  185.6810  178.5830  142.5480 C   0  0  0  0  0  0  0  0  0  0  0  0
  189.7710  177.2300  141.2180 C   0  0  0  0  0  0  0  0  0  0  0  0
  188.2940  177.8460  137.3190 C   0  0  2  0  0  0  0  0  0  0  0  0
  188.6960  177.5950  142.0300 C   0  0  0  0  0  3  0  0  0  0  0  0
  184.2580  179.0460  140.9370 C   0  0  0  0  0  3  0  0  0  0  0  0
  190.2280  177.0350  138.7480 C   0  0  0  0  0  3  0  0  0  0  0  0
  188.4690  179.2450  136.7320 C   0  0  0  0  0  1  0  0  0  0  0  0
  188.2010  177.7860  139.8490 C   0  0  0  0  0  0  0  0  0  0  0  0
  187.5020  177.0280  136.4710 O   0  0  0  0  0  0  0  0  0  0  0  0
  187.7900  175.6650  136.6830 C   0  0  1  0  0  3  0  0  0  0  0  0
  184.1010  174.8770  137.0340 C   0  0  0  0  0  3  0  0  0  0  0  0
  186.5250  174.9230  136.9810 C   0  0  0  0  0  0  0  0  0  0  0  0
  184.1340  173.5500  137.4760 C   0  0  0  0  0  3  0  0  0  0  0  0
  186.5570  173.5890  137.4150 C   0  0  0  0  0  3  0  0  0  0  0  0
  185.3620  172.9060  137.6660 C   0  0  0  0  0  3  0  0  0  0  0  0
  185.2950  175.5610  136.7850 C   0  0  0  0  0  3  0  0  0  0  0  0
  189.5150  174.1610  135.5830 C   0  0  0  0  0  0  0  0  0  0  0  0
  190.0120  173.6730  134.4970 N   0  0  0  0  0  2  0  0  0  0  0  0
  188.4500  175.1090  135.5030 N   0  0  0  0  0  2  0  0  0  0  0  0
  190.0870  173.7510  136.8980 C   0  0  0  0  0  1  0  0  0  0  0  0
  191.1090  176.8030  141.7270 C   0  0  0  0  0  2  0  0  0  0  0  0
  191.5460  178.4700  143.4570 N   0  0  0  0  0  0  0  0  0  0  0  0
  191.2860  177.2470  143.1370 C   0  0  0  0  0  0  0  0  0  0  0  0
  191.2740  177.1760  145.3470 C   0  0  0  0  0  0  0  0  0  0  0  0
  191.0940  176.3920  144.2940 C   0  0  0  0  0  3  0  0  0  0  0  0
  191.5860  178.5720  144.9080 C   0  0  0  0  0  2  0  0  0  0  0  0
  191.1480  176.6910  146.7590 C   0  0  0  0  0  2  0  0  0  0  0  0
  192.2420  175.7030  147.1250 C   0  0  0  0  0  1  0  0  0  0  0  0
  1  6  1  0  0  0  0
  1 17  2  0  0  0  0
  2  8  2  0  0  0  0
  2 13  1  0  0  0  0
  3 10  2  0  0  0  0
  4 11  1  0  0  0  0
  5 15  2  0  0  0  0
  6  9  1  0  0  0  0
  8 10  1  0  0  0  0
  9 14  2  0  0  0  0
  9  8  1  0  0  0  0
 10  7  1  0  0  0  0
 11 30  1  0  0  0  0
 11 13  2  0  0  0  0
 12 16  1  6  0  0  0
 12  5  1  0  0  0  0
 12  1  1  0  0  0  0
 14  3  1  0  0  0  0
 15  4  1  0  0  0  0
 17  4  1  0  0  0  0
 17  2  1  0  0  0  0
 18 19  1  0  0  0  0
 18 12  1  0  0  0  0
 19 28  1  6  0  0  0
 19 21  1  0  0  0  0
 20 22  1  0  0  0  0
 21 23  2  0  0  0  0
 22 24  2  0  0  0  0
 23 24  1  0  0  0  0
 25 21  1  0  0  0  0
 25 20  2  0  0  0  0
 26 29  1  0  0  0  0
 27 26  2  0  0  0  0
 28 26  1  0  0  0  0
 30 32  1  0  0  0  0
 31 35  1  0  0  0  0
 32 31  2  0  0  0  0
 32 34  1  0  0  0  0
 33 36  1  0  0  0  0
 34 33  2  0  0  0  0
 35 33  1  0  0  0  0
 36 37  1  0  0  0  0
M  END
>  <MODEL>
4

>  <REMARK>
 VINA RESULT:      -8.5      1.583      2.042
  Name = 
  7 active torsions:
  status: ('A' for Active; 'I' for Inactive)
    1  A    between atoms: C_5  and  C_6
    2  A    between atoms: C_6  and  O_19
    3  A    between atoms: C_6  and  N_36
    4  A    between atoms: C_8  and  C_13
    5  A    between atoms: C_11  and  C_22
    6  A    between atoms: O_19  and  C_28
    7  A    between atoms: C_22  and  C_27
                            x       y       z     vdW  Elec       q    Type
                         _______ _______ _______ _____ _____    ______ ____

>  <TORSDO>
F 7

$$$$
=
 OpenBabel10232412403D

 37 42  0  0  1  0  0  0  0  0999 V2000
  187.7000  177.9250  140.6640 C   0  0  0  0  0  0  0  0  0  0  0  0
  186.7670  177.9620  138.3370 C   0  0  0  0  0  0  0  0  0  0  0  0
  189.3250  176.4030  136.2860 N   0  0  0  0  0  0  0  0  0  0  0  0
  185.5640  178.7930  140.0160 N   0  0  0  0  0  0  0  0  0  0  0  0
  186.0750  178.8880  142.3470 C   0  0  0  0  0  3  0  0  0  0  0  0
  189.1260  177.1540  140.1020 S   0  0  0  0  0  0  0  0  0  0  0  0
  187.2350  177.2150  135.3100 N   0  0  0  0  0  1  0  0  0  0  0  0
  187.8580  177.3480  137.7110 C   0  0  0  0  0  0  0  0  0  0  0  0
  189.0250  176.9130  138.4270 C   0  0  0  0  0  0  0  0  0  0  0  0
  188.1140  177.0010  136.4070 C   0  0  0  0  0  0  0  0  0  0  0  0
  184.8570  178.9120  138.8710 C   0  0  0  0  0  0  0  0  0  0  0  0
  187.4930  178.3440  142.1100 C   0  0  2  0  0  0  0  0  0  0  0  0
  185.5750  178.4130  137.7820 C   0  0  0  0  0  3  0  0  0  0  0  0
  189.8930  176.3450  137.5200 C   0  0  0  0  0  3  0  0  0  0  0  0
  185.1930  179.1110  141.3600 C   0  0  0  0  0  3  0  0  0  0  0  0
  188.4880  179.4690  142.3910 C   0  0  0  0  0  1  0  0  0  0  0  0
  186.7220  178.2180  139.7010 C   0  0  0  0  0  0  0  0  0  0  0  0
  187.7550  177.2120  142.9250 O   0  0  0  0  0  0  0  0  0  0  0  0
  188.7840  177.4890  143.8470 C   0  0  1  0  0  3  0  0  0  0  0  0
  188.5340  177.8430  147.6100 C   0  0  0  0  0  3  0  0  0  0  0  0
  188.2030  177.6590  145.2150 C   0  0  0  0  0  0  0  0  0  0  0  0
  187.1590  178.0280  147.7880 C   0  0  0  0  0  3  0  0  0  0  0  0
  186.8250  177.8540  145.3940 C   0  0  0  0  0  3  0  0  0  0  0  0
  186.3050  178.0340  146.6800 C   0  0  0  0  0  3  0  0  0  0  0  0
  189.0550  177.6600  146.3250 C   0  0  0  0  0  3  0  0  0  0  0  0
  191.1680  176.6320  143.6750 C   0  0  0  0  0  0  0  0  0  0  0  0
  191.9810  175.6310  143.7280 N   0  0  0  0  0  2  0  0  0  0  0  0
  189.7660  176.4060  143.8330 N   0  0  0  0  0  2  0  0  0  0  0  0
  191.7070  177.9980  143.4160 C   0  0  0  0  0  1  0  0  0  0  0  0
  183.5060  179.5420  138.7770 C   0  0  0  0  0  2  0  0  0  0  0  0
  182.3070  177.4380  139.0880 N   0  0  0  0  0  0  0  0  0  0  0  0
  182.4880  178.6710  139.4260 C   0  0  0  0  0  0  0  0  0  0  0  0
  180.9570  177.9980  140.8730 C   0  0  0  0  0  0  0  0  0  0  0  0
  181.6690  179.0700  140.5550 C   0  0  0  0  0  3  0  0  0  0  0  0
  181.2950  176.8610  139.9610 C   0  0  0  0  0  2  0  0  0  0  0  0
  179.9830  177.9710  142.0100 C   0  0  0  0  0  2  0  0  0  0  0  0
  180.2440  179.0800  143.0150 C   0  0  0  0  0  1  0  0  0  0  0  0
  1 12  1  0  0  0  0
  2 17  1  0  0  0  0
  3 10  2  0  0  0  0
  3 14  1  0  0  0  0
  4 15  1  0  0  0  0
  6  1  1  0  0  0  0
  7 10  1  0  0  0  0
  8  2  2  0  0  0  0
  8  9  1  0  0  0  0
  9  6  1  0  0  0  0
 10  8  1  0  0  0  0
 11  4  1  0  0  0  0
 12  5  1  0  0  0  0
 12 16  1  1  0  0  0
 12 18  1  0  0  0  0
 13  2  1  0  0  0  0
 13 11  2  0  0  0  0
 14  9  2  0  0  0  0
 15  5  2  0  0  0  0
 17  4  1  0  0  0  0
 17  1  2  0  0  0  0
 19 18  1  6  0  0  0
 19 21  1  0  0  0  0
 20 22  1  0  0  0  0
 21 23  2  0  0  0  0
 21 25  1  0  0  0  0
 23 24  1  0  0  0  0
 24 22  2  0  0  0  0
 25 20  2  0  0  0  0
 26 27  2  0  0  0  0
 26 28  1  0  0  0  0
 28 19  1  0  0  0  0
 29 26  1  0  0  0  0
 30 11  1  0  0  0  0
 30 32  1  0  0  0  0
 31 32  2  0  0  0  0
 31 35  1  0  0  0  0
 32 34  1  0  0  0  0
 33 36  1  0  0  0  0
 34 33  2  0  0  0  0
 35 33  1  0  0  0  0
 36 37  1  0  0  0  0
M  END
>  <MODEL>
5

>  <REMARK>
 VINA RESULT:      -8.4      2.543      8.266
  Name = 
  7 active torsions:
  status: ('A' for Active; 'I' for Inactive)
    1  A    between atoms: C_5  and  C_6
    2  A    between atoms: C_6  and  O_19
    3  A    between atoms: C_6  and  N_36
    4  A    between atoms: C_8  and  C_13
    5  A    between atoms: C_11  and  C_22
    6  A    between atoms: O_19  and  C_28
    7  A    between atoms: C_22  and  C_27
                            x       y       z     vdW  Elec       q    Type
                         _______ _______ _______ _____ _____    ______ ____

>  <TORSDO>
F 7

$$$$
=
 OpenBabel10232412403D

 37 42  0  0  1  0  0  0  0  0999 V2000
  188.1860  177.7260  140.0630 C   0  0  0  0  0  0  0  0  0  0  0  0
  187.8490  178.0640  142.5240 C   0  0  0  0  0  0  0  0  0  0  0  0
  184.3310  178.8950  142.8740 N   0  0  0  0  0  0  0  0  0  0  0  0
  189.8630  177.5040  141.7580 N   0  0  0  0  0  0  0  0  0  0  0  0
  190.5620  177.0460  139.5210 C   0  0  0  0  0  3  0  0  0  0  0  0
  186.5300  178.0660  139.7680 S   0  0  0  0  0  0  0  0  0  0  0  0
  185.8070  178.7660  144.8210 N   0  0  0  0  0  1  0  0  0  0  0  0
  186.4850  178.3720  142.4640 C   0  0  0  0  0  0  0  0  0  0  0  0
  185.7440  178.4010  141.2330 C   0  0  0  0  0  0  0  0  0  0  0  0
  185.5530  178.6840  143.4240 C   0  0  0  0  0  0  0  0  0  0  0  0
  189.9220  177.6190  143.1030 C   0  0  0  0  0  0  0  0  0  0  0  0
  189.1890  177.4480  138.9560 C   0  0  2  0  0  0  0  0  0  0  0  0
  188.6830  177.9800  143.6330 C   0  0  0  0  0  3  0  0  0  0  0  0
  184.4380  178.7250  141.5290 C   0  0  0  0  0  3  0  0  0  0  0  0
  190.8680  177.0960  140.8270 C   0  0  0  0  0  3  0  0  0  0  0  0
  189.3580  178.7500  138.1750 C   0  0  0  0  0  1  0  0  0  0  0  0
  188.6100  177.7720  141.4000 C   0  0  0  0  0  0  0  0  0  0  0  0
  188.6490  176.4230  138.1360 O   0  0  0  0  0  0  0  0  0  0  0  0
  189.1190  176.5450  136.8130 C   0  0  1  0  0  3  0  0  0  0  0  0
  191.4280  173.5430  136.7450 C   0  0  0  0  0  3  0  0  0  0  0  0
  190.3490  175.7120  136.6370 C   0  0  0  0  0  0  0  0  0  0  0  0
  192.6160  174.1080  136.2690 C   0  0  0  0  0  3  0  0  0  0  0  0
  191.5380  176.2750  136.1500 C   0  0  0  0  0  3  0  0  0  0  0  0
  192.6710  175.4740  135.9710 C   0  0  0  0  0  3  0  0  0  0  0  0
  190.2960  174.3440  136.9270 C   0  0  0  0  0  3  0  0  0  0  0  0
  187.0730  177.0240  135.3860 C   0  0  0  0  0  0  0  0  0  0  0  0
  186.2180  176.6000  134.5180 N   0  0  0  0  0  2  0  0  0  0  0  0
  188.0750  176.1310  135.8760 N   0  0  0  0  0  2  0  0  0  0  0  0
  186.9780  178.4260  135.8840 C   0  0  0  0  0  1  0  0  0  0  0  0
  191.1670  177.4330  143.9090 C   0  0  0  0  0  2  0  0  0  0  0  0
  191.6100  176.5520  146.1420 N   0  0  0  0  0  0  0  0  0  0  0  0
  190.8200  177.1750  145.3340 C   0  0  0  0  0  0  0  0  0  0  0  0
  189.7270  177.2900  147.2520 C   0  0  0  0  0  0  0  0  0  0  0  0
  189.6230  177.6710  145.9870 C   0  0  0  0  0  3  0  0  0  0  0  0
  191.0010  176.5350  147.4640 C   0  0  0  0  0  2  0  0  0  0  0  0
  188.6970  177.6150  148.2910 C   0  0  0  0  0  2  0  0  0  0  0  0
  187.3750  178.0390  147.6750 C   0  0  0  0  0  1  0  0  0  0  0  0
  1 17  2  0  0  0  0
  2 13  1  0  0  0  0
  3 10  2  0  0  0  0
  4 11  1  0  0  0  0
  5 15  2  0  0  0  0
  6  1  1  0  0  0  0
  6  9  1  0  0  0  0
  8  2  2  0  0  0  0
  8 10  1  0  0  0  0
  9 14  2  0  0  0  0
  9  8  1  0  0  0  0
 10  7  1  0  0  0  0
 11 13  2  0  0  0  0
 11 30  1  0  0  0  0
 12 16  1  6  0  0  0
 12  5  1  0  0  0  0
 12  1  1  0  0  0  0
 14  3  1  0  0  0  0
 15  4  1  0  0  0  0
 17  4  1  0  0  0  0
 17  2  1  0  0  0  0
 18 12  1  0  0  0  0
 19 28  1  6  0  0  0
 19 18  1  0  0  0  0
 20 25  1  0  0  0  0
 21 19  1  0  0  0  0
 21 25  2  0  0  0  0
 22 20  2  0  0  0  0
 23 21  1  0  0  0  0
 24 23  2  0  0  0  0
 24 22  1  0  0  0  0
 26 28  1  0  0  0  0
 26 29  1  0  0  0  0
 27 26  2  0  0  0  0
 30 32  1  0  0  0  0
 31 35  1  0  0  0  0
 32 34  1  0  0  0  0
 32 31  2  0  0  0  0
 33 35  1  0  0  0  0
 33 36  1  0  0  0  0
 34 33  2  0  0  0  0
 37 36  1  0  0  0  0
M  END
>  <MODEL>
6

>  <REMARK>
 VINA RESULT:      -8.2      1.491      2.420
  Name = 
  7 active torsions:
  status: ('A' for Active; 'I' for Inactive)
    1  A    between atoms: C_5  and  C_6
    2  A    between atoms: C_6  and  O_19
    3  A    between atoms: C_6  and  N_36
    4  A    between atoms: C_8  and  C_13
    5  A    between atoms: C_11  and  C_22
    6  A    between atoms: O_19  and  C_28
    7  A    between atoms: C_22  and  C_27
                            x       y       z     vdW  Elec       q    Type
                         _______ _______ _______ _____ _____    ______ ____

>  <TORSDO>
F 7

$$$$
=
 OpenBabel10232412403D

 37 42  0  0  1  0  0  0  0  0999 V2000
  184.0090  178.6580  140.6470 C   0  0  0  0  0  0  0  0  0  0  0  0
  185.5620  178.6120  142.6140 C   0  0  0  0  0  0  0  0  0  0  0  0
  183.3940  178.8540  145.5160 N   0  0  0  0  0  0  0  0  0  0  0  0
  186.3940  178.4670  140.5530 N   0  0  0  0  0  0  0  0  0  0  0  0
  185.2530  178.4190  138.4570 C   0  0  0  0  0  3  0  0  0  0  0  0
  182.6550  178.7820  141.6930 S   0  0  0  0  0  0  0  0  0  0  0  0
  185.8230  178.6910  145.7550 N   0  0  0  0  0  1  0  0  0  0  0  0
  184.5790  178.7180  143.6040 C   0  0  0  0  0  0  0  0  0  0  0  0
  183.1760  178.7980  143.3060 C   0  0  0  0  0  0  0  0  0  0  0  0
  184.6340  178.7580  144.9760 C   0  0  0  0  0  0  0  0  0  0  0  0
  187.4110  178.4110  141.4410 C   0  0  0  0  0  0  0  0  0  0  0  0
  183.8960  178.6820  139.1320 C   0  0  2  0  0  0  0  0  0  0  0  0
  186.9420  178.5090  142.7520 C   0  0  0  0  0  3  0  0  0  0  0  0
  182.4910  178.8810  144.4990 C   0  0  0  0  0  3  0  0  0  0  0  0
  186.4120  178.3410  139.1300 C   0  0  0  0  0  3  0  0  0  0  0  0
  183.4360  180.0860  138.7440 C   0  0  0  0  0  1  0  0  0  0  0  0
  185.2710  178.5890  141.2560 C   0  0  0  0  0  0  0  0  0  0  0  0
  182.9360  177.7050  138.7580 O   0  0  0  0  0  0  0  0  0  0  0  0
  183.1430  177.2880  137.4270 C   0  0  1  0  0  3  0  0  0  0  0  0
  184.4180  173.7230  137.3120 C   0  0  0  0  0  3  0  0  0  0  0  0
  183.1570  175.7930  137.3650 C   0  0  0  0  0  0  0  0  0  0  0  0
  183.2240  172.9930  137.3040 C   0  0  0  0  0  3  0  0  0  0  0  0
  181.9600  175.0600  137.3670 C   0  0  0  0  0  3  0  0  0  0  0  0
  181.9960  173.6620  137.3310 C   0  0  0  0  0  3  0  0  0  0  0  0
  184.3830  175.1200  137.3440 C   0  0  0  0  0  3  0  0  0  0  0  0
  182.2300  177.9490  135.1520 C   0  0  0  0  0  0  0  0  0  0  0  0
  181.2370  178.3870  134.4530 N   0  0  0  0  0  2  0  0  0  0  0  0
  182.0910  177.8310  136.5690 N   0  0  0  0  0  2  0  0  0  0  0  0
  183.5100  177.6060  134.4700 C   0  0  0  0  0  1  0  0  0  0  0  0
  188.8530  178.3080  141.0630 C   0  0  0  0  0  2  0  0  0  0  0  0
  189.9420  176.2690  141.8480 N   0  0  0  0  0  0  0  0  0  0  0  0
  189.5890  177.4910  142.0670 C   0  0  0  0  0  0  0  0  0  0  0  0
  190.7260  176.9880  143.8950 C   0  0  0  0  0  0  0  0  0  0  0  0
  190.0690  177.9960  143.3400 C   0  0  0  0  0  3  0  0  0  0  0  0
  190.6990  175.7920  142.9960 C   0  0  0  0  0  2  0  0  0  0  0  0
  191.4050  177.0890  145.2260 C   0  0  0  0  0  2  0  0  0  0  0  0
  190.4200  177.0140  146.3800 C   0  0  0  0  0  1  0  0  0  0  0  0
  1 17  2  0  0  0  0
  1  6  1  0  0  0  0
  2 13  1  0  0  0  0
  2  8  2  0  0  0  0
  4 17  1  0  0  0  0
  4 11  1  0  0  0  0
  5 15  2  0  0  0  0
  5 12  1  0  0  0  0
  6  9  1  0  0  0  0
  8 10  1  0  0  0  0
  9  8  1  0  0  0  0
  9 14  2  0  0  0  0
 10  3  2  0  0  0  0
 10  7  1  0  0  0  0
 11 13  2  0  0  0  0
 12 16  1  6  0  0  0
 12  1  1  0  0  0  0
 14  3  1  0  0  0  0
 15  4  1  0  0  0  0
 17  2  1  0  0  0  0
 18 12  1  0  0  0  0
 19 28  1  6  0  0  0
 19 18  1  0  0  0  0
 20 25  1  0  0  0  0
 21 23  1  0  0  0  0
 21 19  1  0  0  0  0
 22 20  2  0  0  0  0
 22 24  1  0  0  0  0
 24 23  2  0  0  0  0
 25 21  2  0  0  0  0
 26 28  1  0  0  0  0
 27 26  2  0  0  0  0
 29 26  1  0  0  0  0
 30 11  1  0  0  0  0
 30 32  1  0  0  0  0
 31 32  2  0  0  0  0
 31 35  1  0  0  0  0
 32 34  1  0  0  0  0
 33 36  1  0  0  0  0
 34 33  2  0  0  0  0
 35 33  1  0  0  0  0
 36 37  1  0  0  0  0
M  END
>  <MODEL>
7

>  <REMARK>
 VINA RESULT:      -8.2      3.239      4.673
  Name = 
  7 active torsions:
  status: ('A' for Active; 'I' for Inactive)
    1  A    between atoms: C_5  and  C_6
    2  A    between atoms: C_6  and  O_19
    3  A    between atoms: C_6  and  N_36
    4  A    between atoms: C_8  and  C_13
    5  A    between atoms: C_11  and  C_22
    6  A    between atoms: O_19  and  C_28
    7  A    between atoms: C_22  and  C_27
                            x       y       z     vdW  Elec       q    Type
                         _______ _______ _______ _____ _____    ______ ____

>  <TORSDO>
F 7

$$$$
=
 OpenBabel10232412403D

 37 42  0  0  1  0  0  0  0  0999 V2000
  186.7370  178.2600  140.6990 C   0  0  0  0  0  0  0  0  0  0  0  0
  185.8750  178.2340  138.3450 C   0  0  0  0  0  0  0  0  0  0  0  0
  188.8390  177.9020  136.2740 N   0  0  0  0  0  0  0  0  0  0  0  0
  184.4390  178.4000  140.0390 N   0  0  0  0  0  0  0  0  0  0  0  0
  184.8600  178.4020  142.3890 C   0  0  0  0  0  3  0  0  0  0  0  0
  188.3490  178.1000  140.1330 S   0  0  0  0  0  0  0  0  0  0  0  0
  186.6070  178.0430  135.2840 N   0  0  0  0  0  1  0  0  0  0  0  0
  187.1190  178.1110  137.7150 C   0  0  0  0  0  0  0  0  0  0  0  0
  188.3570  178.0310  138.4390 C   0  0  0  0  0  0  0  0  0  0  0  0
  187.4940  178.0250  136.3950 C   0  0  0  0  0  0  0  0  0  0  0  0
  183.7480  178.3950  138.8780 C   0  0  0  0  0  0  0  0  0  0  0  0
  186.3820  178.4150  142.1680 C   0  0  2  0  0  0  0  0  0  0  0  0
  184.6070  178.3030  137.7810 C   0  0  0  0  0  3  0  0  0  0  0  0
  189.3780  177.9050  137.5230 C   0  0  0  0  0  3  0  0  0  0  0  0
  183.9670  178.4160  141.3880 C   0  0  0  0  0  3  0  0  0  0  0  0
  186.9160  179.7750  142.6120 C   0  0  0  0  0  1  0  0  0  0  0  0
  185.7290  178.3030  139.7240 C   0  0  0  0  0  0  0  0  0  0  0  0
  187.0150  177.3590  142.8750 O   0  0  0  0  0  0  0  0  0  0  0  0
  188.1260  177.8400  143.5980 C   0  0  1  0  0  3  0  0  0  0  0  0
  188.6360  177.3900  147.3250 C   0  0  0  0  0  3  0  0  0  0  0  0
  187.8410  177.7680  145.0650 C   0  0  0  0  0  0  0  0  0  0  0  0
  187.3600  177.6770  147.8230 C   0  0  0  0  0  3  0  0  0  0  0  0
  186.5650  178.0650  145.5670 C   0  0  0  0  0  3  0  0  0  0  0  0
  186.3250  178.0150  146.9450 C   0  0  0  0  0  3  0  0  0  0  0  0
  188.8750  177.4380  145.9480 C   0  0  0  0  0  3  0  0  0  0  0  0
  190.6250  177.6160  143.2080 C   0  0  0  0  0  0  0  0  0  0  0  0
  191.6320  176.8490  142.9590 N   0  0  0  0  0  2  0  0  0  0  0  0
  189.3120  177.0550  143.2620 N   0  0  0  0  0  2  0  0  0  0  0  0
  190.8480  179.0780  143.4010 C   0  0  0  0  0  1  0  0  0  0  0  0
  182.2630  178.5240  138.7820 C   0  0  0  0  0  2  0  0  0  0  0  0
  182.3290  180.9630  138.8550 N   0  0  0  0  0  0  0  0  0  0  0  0
  181.8960  179.8830  138.2970 C   0  0  1  0  0  3  0  0  0  0  0  0
  181.0700  181.4600  136.9860 C   0  0  0  0  0  0  0  0  0  0  0  0
  181.1070  180.1410  137.1070 C   0  0  0  0  0  3  0  0  0  0  0  0
  181.8410  182.1050  138.0950 C   0  0  0  0  0  3  0  0  0  0  0  0
  180.3640  182.1590  135.8650 C   0  0  0  0  0  2  0  0  0  0  0  0
  180.6080  183.6590  135.8810 C   0  0  0  0  0  1  0  0  0  0  0  0
  1 12  1  0  0  0  0
  2 17  1  0  0  0  0
  3 10  2  0  0  0  0
  3 14  1  0  0  0  0
  4 15  1  0  0  0  0
  6  1  1  0  0  0  0
  7 10  1  0  0  0  0
  8  2  2  0  0  0  0
  8  9  1  0  0  0  0
  9  6  1  0  0  0  0
 10  8  1  0  0  0  0
 11  4  1  0  0  0  0
 12  5  1  0  0  0  0
 12 16  1  1  0  0  0
 12 18  1  0  0  0  0
 13  2  1  0  0  0  0
 13 11  2  0  0  0  0
 14  9  2  0  0  0  0
 15  5  2  0  0  0  0
 17  4  1  0  0  0  0
 17  1  2  0  0  0  0
 19 18  1  6  0  0  0
 19 21  1  0  0  0  0
 20 22  1  0  0  0  0
 21 23  2  0  0  0  0
 21 25  1  0  0  0  0
 23 24  1  0  0  0  0
 24 22  2  0  0  0  0
 25 20  2  0  0  0  0
 26 28  1  0  0  0  0
 26 29  1  0  0  0  0
 27 26  2  0  0  0  0
 28 19  1  0  0  0  0
 30 11  1  0  0  0  0
 32 30  1  6  0  0  0
 32 31  1  0  0  0  0
 33 34  2  0  0  0  0
 33 35  1  0  0  0  0
 34 32  1  0  0  0  0
 35 31  2  0  0  0  0
 36 37  1  0  0  0  0
 36 33  1  0  0  0  0
M  END
>  <MODEL>
8

>  <REMARK>
 VINA RESULT:      -7.8      3.465      9.079
  Name = 
  7 active torsions:
  status: ('A' for Active; 'I' for Inactive)
    1  A    between atoms: C_5  and  C_6
    2  A    between atoms: C_6  and  O_19
    3  A    between atoms: C_6  and  N_36
    4  A    between atoms: C_8  and  C_13
    5  A    between atoms: C_11  and  C_22
    6  A    between atoms: O_19  and  C_28
    7  A    between atoms: C_22  and  C_27
                            x       y       z     vdW  Elec       q    Type
                         _______ _______ _______ _____ _____    ______ ____

>  <TORSDO>
F 7

$$$$
=
 OpenBabel10232412403D

 37 42  0  0  1  0  0  0  0  0999 V2000
  186.7520  178.0020  142.0950 C   0  0  0  0  0  0  0  0  0  0  0  0
  185.6110  178.4440  139.9070 C   0  0  0  0  0  0  0  0  0  0  0  0
  182.1600  179.1540  140.7860 N   0  0  0  0  0  0  0  0  0  0  0  0
  187.7870  177.9710  139.9350 N   0  0  0  0  0  0  0  0  0  0  0  0
  189.2240  177.5520  141.7960 C   0  0  0  0  0  3  0  0  0  0  0  0
  185.2820  178.2680  142.9390 S   0  0  0  0  0  0  0  0  0  0  0  0
  182.9100  179.1810  138.4570 N   0  0  0  0  0  1  0  0  0  0  0  0
  184.3350  178.6830  140.4310 C   0  0  0  0  0  0  0  0  0  0  0  0
  184.0480  178.6390  141.8370 C   0  0  0  0  0  0  0  0  0  0  0  0
  183.1320  179.0050  139.8510 C   0  0  0  0  0  0  0  0  0  0  0  0
  187.4010  178.1800  138.6580 C   0  0  0  0  0  0  0  0  0  0  0  0
  188.0430  177.5860  142.7800 C   0  0  2  0  0  0  0  0  0  0  0  0
  186.0380  178.4710  138.5840 C   0  0  0  0  0  3  0  0  0  0  0  0
  182.7120  178.9300  142.0080 C   0  0  0  0  0  3  0  0  0  0  0  0
  189.0870  177.7130  140.4710 C   0  0  0  0  0  3  0  0  0  0  0  0
  187.8250  176.1710  143.3120 C   0  0  0  0  0  1  0  0  0  0  0  0
  186.7080  178.1290  140.6980 C   0  0  0  0  0  0  0  0  0  0  0  0
  188.2800  178.5010  143.8390 O   0  0  0  0  0  0  0  0  0  0  0  0
  188.0540  177.8880  145.0880 C   0  0  1  0  0  3  0  0  0  0  0  0
  190.5740  176.3870  147.4850 C   0  0  0  0  0  3  0  0  0  0  0  0
  189.3560  177.4310  145.6670 C   0  0  0  0  0  0  0  0  0  0  0  0
  191.7660  176.5150  146.7630 C   0  0  0  0  0  3  0  0  0  0  0  0
  190.5500  177.5510  144.9400 C   0  0  0  0  0  3  0  0  0  0  0  0
  191.7530  177.0970  145.4910 C   0  0  0  0  0  3  0  0  0  0  0  0
  189.3720  176.8430  146.9370 C   0  0  0  0  0  3  0  0  0  0  0  0
  186.1160  178.5640  146.5830 C   0  0  0  0  0  0  0  0  0  0  0  0
  185.6160  179.4160  147.4120 N   0  0  0  0  0  2  0  0  0  0  0  0
  187.3880  178.8270  145.9880 N   0  0  0  0  0  2  0  0  0  0  0  0
  185.3410  177.3370  146.2380 C   0  0  0  0  0  1  0  0  0  0  0  0
  188.3070  178.0640  137.4760 C   0  0  0  0  0  2  0  0  0  0  0  0
  189.7760  176.1410  137.1480 N   0  0  0  0  0  0  0  0  0  0  0  0
  188.5820  176.6310  137.1800 C   0  0  1  0  0  3  0  0  0  0  0  0
  188.2070  174.4800  136.8270 C   0  0  0  0  0  0  0  0  0  0  0  0
  187.5550  175.6220  136.9940 C   0  0  0  0  0  3  0  0  0  0  0  0
  189.6840  174.7090  136.9030 C   0  0  0  0  0  3  0  0  0  0  0  0
  187.5170  173.1670  136.6200 C   0  0  0  0  0  2  0  0  0  0  0  0
  186.2130  173.0760  137.3950 C   0  0  0  0  0  1  0  0  0  0  0  0
  1 12  1  0  0  0  0
  1  6  1  0  0  0  0
  2  8  2  0  0  0  0
  2 17  1  0  0  0  0
  3 14  1  0  0  0  0
  4 15  1  0  0  0  0
  4 17  1  0  0  0  0
  5 12  1  0  0  0  0
  7 10  1  0  0  0  0
  8  9  1  0  0  0  0
  9 14  2  0  0  0  0
  9  6  1  0  0  0  0
 10  8  1  0  0  0  0
 10  3  2  0  0  0  0
 11  4  1  0  0  0  0
 12 16  1  1  0  0  0
 12 18  1  0  0  0  0
 13 11  2  0  0  0  0
 13  2  1  0  0  0  0
 15  5  2  0  0  0  0
 17  1  2  0  0  0  0
 19 18  1  6  0  0  0
 19 21  1  0  0  0  0
 19 28  1  0  0  0  0
 21 25  2  0  0  0  0
 22 20  2  0  0  0  0
 23 24  2  0  0  0  0
 23 21  1  0  0  0  0
 24 22  1  0  0  0  0
 25 20  1  0  0  0  0
 26 27  2  0  0  0  0
 28 26  1  0  0  0  0
 29 26  1  0  0  0  0
 30 11  1  0  0  0  0
 31 32  1  0  0  0  0
 32 30  1  1  0  0  0
 33 35  1  0  0  0  0
 33 34  2  0  0  0  0
 34 32  1  0  0  0  0
 35 31  2  0  0  0  0
 36 33  1  0  0  0  0
 36 37  1  0  0  0  0
M  END
>  <MODEL>
9

>  <REMARK>
 VINA RESULT:      -7.8      2.084      8.090
  Name = 
  7 active torsions:
  status: ('A' for Active; 'I' for Inactive)
    1  A    between atoms: C_5  and  C_6
    2  A    between atoms: C_6  and  O_19
    3  A    between atoms: C_6  and  N_36
    4  A    between atoms: C_8  and  C_13
    5  A    between atoms: C_11  and  C_22
    6  A    between atoms: O_19  and  C_28
    7  A    between atoms: C_22  and  C_27
                            x       y       z     vdW  Elec       q    Type
                         _______ _______ _______ _____ _____    ______ ____

>  <TORSDO>
F 7

$$$$
