=
 OpenBabel10232410483D

 35 39  0  0  1  0  0  0  0  0999 V2000
  186.3850  178.0500  142.7000 C   0  0  0  0  0  0  0  0  0  0  0  0
  187.1880  179.0030  140.6110 C   0  0  0  0  0  3  0  0  0  0  0  0
  188.6830  177.6770  141.9850 C   0  0  0  0  0  0  0  0  0  0  0  0
  187.6500  177.4910  142.9090 C   0  0  0  0  0  3  0  0  0  0  0  0
  188.4440  178.4400  140.8330 C   0  0  0  0  0  3  0  0  0  0  0  0
  186.1490  178.8180  141.5360 C   0  0  0  0  0  0  0  0  0  0  0  0
  189.3750  178.2850  148.6970 C   0  0  0  0  0  2  0  0  0  0  0  0
  189.9050  177.3670  147.6310 C   0  0  0  0  0  0  0  0  0  0  0  0
  184.6450  179.6130  145.2710 N   0  0  0  0  0  2  0  0  0  0  0  0
  185.2770  178.5780  146.0810 C   0  0  1  0  0  3  0  0  0  0  0  0
  186.9940  176.9280  145.4360 C   0  0  0  0  0  3  0  0  0  0  0  0
  185.3420  177.8190  143.7630 C   0  0  1  0  0  3  0  0  0  0  0  0
  188.2720  179.0480  148.2070 O   0  0  0  0  0  0  0  0  0  0  0  0
  185.8990  177.6360  145.1210 C   0  0  0  0  0  0  0  0  0  0  0  0
  187.3340  178.4750  147.3450 C   0  0  0  0  0  0  0  0  0  0  0  0
  187.5760  177.0710  146.8170 C   0  0  2  0  0  3  0  0  0  0  0  0
  189.0520  176.8010  146.7640 C   0  0  0  0  0  3  0  0  0  0  0  0
  184.4380  179.0380  143.9340 C   0  0  0  0  0  2  0  0  0  0  0  0
  186.2890  179.1580  146.9690 N   0  0  0  0  0  0  0  0  0  0  0  0
  191.9440  175.8100  147.6610 C   0  0  0  0  0  0  0  0  0  0  0  0
  191.3130  177.0960  147.5930 N   0  0  0  0  0  2  0  0  0  0  0  0
  191.2640  174.7520  147.7280 O   0  0  0  0  0  1  0  0  0  0  0  0
  193.3290  175.7300  147.6430 O   0  0  0  0  0  0  0  0  0  0  0  0
  184.8800  179.3630  141.2990 O   0  0  0  0  0  0  0  0  0  0  0  0
  183.6750  179.5590  139.2980 C   0  0  0  0  0  3  0  0  0  0  0  0
  183.9420  178.8450  140.3960 C   0  0  0  0  0  0  0  0  0  0  0  0
  182.3940  177.0430  139.5230 C   0  0  0  0  0  0  0  0  0  0  0  0
  183.3000  177.4920  140.6350 C   0  0  0  0  0  2  0  0  0  0  0  0
  182.7480  179.0840  138.2580 C   0  0  0  0  0  3  0  0  0  0  0  0
  182.1470  177.9010  138.3600 C   0  0  0  0  0  3  0  0  0  0  0  0
  181.8340  175.9180  139.5960 O   0  0  0  0  0  0  0  0  0  0  0  0
  189.9310  177.0990  142.2390 O   0  0  0  0  0  0  0  0  0  0  0  0
  190.1400  176.0920  143.2250 C   0  0  0  0  0  2  0  0  0  0  0  0
  191.6420  177.8590  144.1320 C   0  0  0  0  0  1  0  0  0  0  0  0
  191.4130  176.3660  144.0120 C   0  0  0  0  0  2  0  0  0  0  0  0
  1  4  1  0  0  0  0
  2  5  2  0  0  0  0
  2  6  1  0  0  0  0
  3 32  1  0  0  0  0
  3  4  2  0  0  0  0
  5  3  1  0  0  0  0
  6  1  2  0  0  0  0
  8  7  1  0  0  0  0
  9 10  1  0  0  0  0
 10 14  1  6  0  0  0
 10 19  1  0  0  0  0
 12  1  1  6  0  0  0
 12 18  1  0  0  0  0
 12 14  1  0  0  0  0
 13  7  1  0  0  0  0
 14 11  2  0  0  0  0
 15 13  1  0  0  0  0
 16 11  1  6  0  0  0
 16 15  1  0  0  0  0
 17 16  1  0  0  0  0
 17  8  2  0  0  0  0
 18  9  1  0  0  0  0
 19 15  2  0  0  0  0
 20 22  1  0  0  0  0
 21  8  1  0  0  0  0
 21 20  1  0  0  0  0
 23 20  2  0  0  0  0
 24  6  1  0  0  0  0
 25 26  2  0  0  0  0
 26 28  1  0  0  0  0
 26 24  1  0  0  0  0
 27 31  2  0  0  0  0
 27 28  1  0  0  0  0
 29 30  2  0  0  0  0
 29 25  1  0  0  0  0
 30 27  1  0  0  0  0
 32 33  1  0  0  0  0
 33 35  1  0  0  0  0
 35 34  1  0  0  0  0
M  END
>  <MODEL>
1

>  <REMARK>
 VINA RESULT:      -8.6      0.000      0.000
  Name = 
  7 active torsions:
  status: ('A' for Active; 'I' for Inactive)
    1  A    between atoms: C_2  and  C_14
    2  A    between atoms: C_5  and  C_23
    3  A    between atoms: O_6  and  C_7
    4  A    between atoms: O_6  and  C_29
    5  A    between atoms: C_8  and  N_17
    6  A    between atoms: C_14  and  O_31
    7  A    between atoms: C_15  and  O_31
                            x       y       z     vdW  Elec       q    Type
                         _______ _______ _______ _____ _____    ______ ____

>  <TORSDO>
F 7

$$$$
=
 OpenBabel10232410483D

 35 39  0  0  1  0  0  0  0  0999 V2000
  187.2570  178.3330  141.9540 C   0  0  0  0  0  0  0  0  0  0  0  0
  188.8560  176.7220  142.8280 C   0  0  0  0  0  3  0  0  0  0  0  0
  189.1580  177.6360  140.6020 C   0  0  0  0  0  0  0  0  0  0  0  0
  187.9970  178.3960  140.7680 C   0  0  0  0  0  3  0  0  0  0  0  0
  189.5830  176.7950  141.6400 C   0  0  0  0  0  3  0  0  0  0  0  0
  187.6900  177.4840  142.9980 C   0  0  0  0  0  0  0  0  0  0  0  0
  182.9760  176.1890  137.2590 C   0  0  0  0  0  2  0  0  0  0  0  0
  184.3800  176.5670  136.8760 C   0  0  0  0  0  0  0  0  0  0  0  0
  183.8920  178.2190  142.8200 N   0  0  0  0  0  2  0  0  0  0  0  0
  183.7090  178.6040  141.4250 C   0  0  1  0  0  3  0  0  0  0  0  0
  185.3880  178.7840  139.6260 C   0  0  0  0  0  3  0  0  0  0  0  0
  186.0040  179.1680  142.0320 C   0  0  1  0  0  3  0  0  0  0  0  0
  182.7840  176.3120  138.6690 O   0  0  0  0  0  0  0  0  0  0  0  0
  185.0600  178.9410  140.9170 C   0  0  0  0  0  0  0  0  0  0  0  0
  183.3720  177.3590  139.3820 C   0  0  0  0  0  0  0  0  0  0  0  0
  184.3370  178.2890  138.6670 C   0  0  2  0  0  3  0  0  0  0  0  0
  185.0010  177.5550  137.5380 C   0  0  0  0  0  3  0  0  0  0  0  0
  185.1680  178.8050  143.2570 C   0  0  0  0  0  2  0  0  0  0  0  0
  183.1240  177.5050  140.6530 N   0  0  0  0  0  0  0  0  0  0  0  0
  185.9690  174.8180  135.8780 C   0  0  0  0  0  0  0  0  0  0  0  0
  185.0060  175.8770  135.7860 N   0  0  0  0  0  2  0  0  0  0  0  0
  186.3350  174.3640  136.9940 O   0  0  0  0  0  1  0  0  0  0  0  0
  186.5000  174.2790  134.7150 O   0  0  0  0  0  0  0  0  0  0  0  0
  186.9730  177.4290  144.2020 O   0  0  0  0  0  0  0  0  0  0  0  0
  186.7500  178.1040  146.4360 C   0  0  0  0  0  3  0  0  0  0  0  0
  187.5330  177.6020  145.4750 C   0  0  0  0  0  0  0  0  0  0  0  0
  189.3710  177.3440  147.1950 C   0  0  0  0  0  0  0  0  0  0  0  0
  188.9610  177.1800  145.7590 C   0  0  0  0  0  2  0  0  0  0  0  0
  187.2180  178.2780  147.8200 C   0  0  0  0  0  3  0  0  0  0  0  0
  188.4480  177.9180  148.1810 C   0  0  0  0  0  3  0  0  0  0  0  0
  190.5230  176.9910  147.5560 O   0  0  0  0  0  0  0  0  0  0  0  0
  189.8640  177.7330  139.3980 O   0  0  0  0  0  0  0  0  0  0  0  0
  189.7100  176.8080  138.3250 C   0  0  0  0  0  2  0  0  0  0  0  0
  188.8990  178.8140  137.0910 C   0  0  0  0  0  1  0  0  0  0  0  0
  188.7040  177.3270  137.3090 C   0  0  0  0  0  2  0  0  0  0  0  0
  1  6  1  0  0  0  0
  2  6  2  0  0  0  0
  3  4  1  0  0  0  0
  3  5  2  0  0  0  0
  4  1  2  0  0  0  0
  5  2  1  0  0  0  0
  6 24  1  0  0  0  0
  7 13  1  0  0  0  0
  8  7  1  0  0  0  0
  8 17  2  0  0  0  0
  9 18  1  0  0  0  0
 10 19  1  6  0  0  0
 10  9  1  0  0  0  0
 11 14  2  0  0  0  0
 12  1  1  6  0  0  0
 12 18  1  0  0  0  0
 13 15  1  0  0  0  0
 14 10  1  0  0  0  0
 14 12  1  0  0  0  0
 15 19  2  0  0  0  0
 16 17  1  6  0  0  0
 16 15  1  0  0  0  0
 16 11  1  0  0  0  0
 20 22  1  0  0  0  0
 21 20  1  0  0  0  0
 21  8  1  0  0  0  0
 23 20  2  0  0  0  0
 24 26  1  0  0  0  0
 25 29  1  0  0  0  0
 26 28  1  0  0  0  0
 26 25  2  0  0  0  0
 27 31  2  0  0  0  0
 27 30  1  0  0  0  0
 28 27  1  0  0  0  0
 29 30  2  0  0  0  0
 32  3  1  0  0  0  0
 33 32  1  0  0  0  0
 34 35  1  0  0  0  0
 35 33  1  0  0  0  0
M  END
>  <MODEL>
2

>  <REMARK>
 VINA RESULT:      -8.3      3.205      8.326
  Name = 
  7 active torsions:
  status: ('A' for Active; 'I' for Inactive)
    1  A    between atoms: C_2  and  C_14
    2  A    between atoms: C_5  and  C_23
    3  A    between atoms: O_6  and  C_7
    4  A    between atoms: O_6  and  C_29
    5  A    between atoms: C_8  and  N_17
    6  A    between atoms: C_14  and  O_31
    7  A    between atoms: C_15  and  O_31
                            x       y       z     vdW  Elec       q    Type
                         _______ _______ _______ _____ _____    ______ ____

>  <TORSDO>
F 7

$$$$
=
 OpenBabel10232410483D

 35 39  0  0  1  0  0  0  0  0999 V2000
  186.5220  178.6720  141.4580 C   0  0  0  0  0  0  0  0  0  0  0  0
  184.2110  178.9400  142.1640 C   0  0  0  0  0  3  0  0  0  0  0  0
  185.8230  177.9290  143.6680 C   0  0  0  0  0  0  0  0  0  0  0  0
  186.8140  178.0900  142.6960 C   0  0  0  0  0  3  0  0  0  0  0  0
  184.5160  178.3570  143.3940 C   0  0  0  0  0  3  0  0  0  0  0  0
  185.2030  179.1030  141.1860 C   0  0  0  0  0  0  0  0  0  0  0  0
  191.9900  175.8480  144.1220 C   0  0  0  0  0  2  0  0  0  0  0  0
  191.2520  176.9160  144.8820 C   0  0  0  0  0  0  0  0  0  0  0  0
  188.5320  176.8030  139.3250 N   0  0  0  0  0  2  0  0  0  0  0  0
  189.6020  177.3500  140.1510 C   0  0  1  0  0  3  0  0  0  0  0  0
  189.4440  178.6860  142.2190 C   0  0  0  0  0  3  0  0  0  0  0  0
  187.6490  178.7790  140.4620 C   0  0  1  0  0  3  0  0  0  0  0  0
  191.3310  175.5550  142.8890 O   0  0  0  0  0  0  0  0  0  0  0  0
  188.9680  178.3850  141.0020 C   0  0  0  0  0  0  0  0  0  0  0  0
  190.7400  176.5720  142.1350 C   0  0  0  0  0  0  0  0  0  0  0  0
  190.6800  177.9770  142.7090 C   0  0  2  0  0  3  0  0  0  0  0  0
  190.6500  177.9080  144.2090 C   0  0  0  0  0  3  0  0  0  0  0  0
  187.4600  177.8090  139.2980 C   0  0  0  0  0  2  0  0  0  0  0  0
  190.2120  176.3020  140.9740 N   0  0  0  0  0  0  0  0  0  0  0  0
  191.9860  175.9550  147.1440 C   0  0  0  0  0  0  0  0  0  0  0  0
  191.2410  176.8570  146.3150 N   0  0  0  0  0  2  0  0  0  0  0  0
  192.7820  175.1160  146.6460 O   0  0  0  0  0  0  0  0  0  0  0  0
  191.8330  176.0140  148.5220 O   0  0  0  0  0  1  0  0  0  0  0  0
  184.9010  179.7120  139.9600 O   0  0  0  0  0  0  0  0  0  0  0  0
  183.9700  178.1060  138.5290 C   0  0  0  0  0  3  0  0  0  0  0  0
  183.8710  179.3110  139.1000 C   0  0  0  0  0  0  0  0  0  0  0  0
  181.6050  179.5740  138.0040 C   0  0  0  0  0  0  0  0  0  0  0  0
  182.6600  180.1950  138.8750 C   0  0  0  0  0  2  0  0  0  0  0  0
  182.9200  177.5640  137.6510 C   0  0  0  0  0  3  0  0  0  0  0  0
  181.8060  178.2490  137.4050 C   0  0  0  0  0  3  0  0  0  0  0  0
  180.5380  180.2010  137.7770 O   0  0  0  0  0  0  0  0  0  0  0  0
  186.1620  177.3410  144.8910 O   0  0  0  0  0  0  0  0  0  0  0  0
  187.3440  177.6680  145.6150 C   0  0  0  0  0  2  0  0  0  0  0  0
  188.1600  177.6230  147.9680 C   0  0  0  0  0  1  0  0  0  0  0  0
  187.0120  178.0150  147.0590 C   0  0  0  0  0  2  0  0  0  0  0  0
  1  4  1  0  0  0  0
  2  5  2  0  0  0  0
  3 32  1  0  0  0  0
  4  3  2  0  0  0  0
  5  3  1  0  0  0  0
  6  1  2  0  0  0  0
  6  2  1  0  0  0  0
  7  8  1  0  0  0  0
  8 21  1  0  0  0  0
 10  9  1  6  0  0  0
 10 19  1  0  0  0  0
 10 14  1  0  0  0  0
 12 14  1  0  0  0  0
 12  1  1  1  0  0  0
 13  7  1  0  0  0  0
 14 11  2  0  0  0  0
 15 16  1  0  0  0  0
 15 13  1  0  0  0  0
 16 11  1  6  0  0  0
 16 17  1  0  0  0  0
 17  8  2  0  0  0  0
 18  9  1  0  0  0  0
 18 12  1  0  0  0  0
 19 15  2  0  0  0  0
 20 23  1  0  0  0  0
 21 20  1  0  0  0  0
 22 20  2  0  0  0  0
 24  6  1  0  0  0  0
 25 26  2  0  0  0  0
 26 24  1  0  0  0  0
 27 28  1  0  0  0  0
 28 26  1  0  0  0  0
 29 25  1  0  0  0  0
 30 29  2  0  0  0  0
 30 27  1  0  0  0  0
 31 27  2  0  0  0  0
 32 33  1  0  0  0  0
 33 35  1  0  0  0  0
 35 34  1  0  0  0  0
M  END
>  <MODEL>
3

>  <REMARK>
 VINA RESULT:      -8.0      2.338      4.305
  Name = 
  7 active torsions:
  status: ('A' for Active; 'I' for Inactive)
    1  A    between atoms: C_2  and  C_14
    2  A    between atoms: C_5  and  C_23
    3  A    between atoms: O_6  and  C_7
    4  A    between atoms: O_6  and  C_29
    5  A    between atoms: C_8  and  N_17
    6  A    between atoms: C_14  and  O_31
    7  A    between atoms: C_15  and  O_31
                            x       y       z     vdW  Elec       q    Type
                         _______ _______ _______ _____ _____    ______ ____

>  <TORSDO>
F 7

$$$$
=
 OpenBabel10232410483D

 35 39  0  0  1  0  0  0  0  0999 V2000
  187.3070  178.3840  140.6690 C   0  0  0  0  0  0  0  0  0  0  0  0
  184.9010  178.5950  140.3810 C   0  0  0  0  0  3  0  0  0  0  0  0
  185.8240  178.2200  142.5930 C   0  0  0  0  0  0  0  0  0  0  0  0
  187.1080  178.2050  142.0420 C   0  0  0  0  0  3  0  0  0  0  0  0
  184.7180  178.4140  141.7520 C   0  0  0  0  0  3  0  0  0  0  0  0
  186.1890  178.5810  139.8260 C   0  0  0  0  0  0  0  0  0  0  0  0
  191.2850  176.4410  145.7050 C   0  0  0  0  0  2  0  0  0  0  0  0
  190.3600  177.6120  145.8900 C   0  0  0  0  0  0  0  0  0  0  0  0
  189.8900  176.1940  139.8850 N   0  0  0  0  0  2  0  0  0  0  0  0
  190.5980  176.9520  140.9100 C   0  0  1  0  0  3  0  0  0  0  0  0
  189.7370  178.6900  142.4350 C   0  0  0  0  0  3  0  0  0  0  0  0
  188.7260  178.3260  140.1620 C   0  0  1  0  0  3  0  0  0  0  0  0
  191.1190  175.8620  144.4100 O   0  0  0  0  0  0  0  0  0  0  0  0
  189.7340  178.1150  141.2230 C   0  0  0  0  0  0  0  0  0  0  0  0
  190.8890  176.6670  143.2920 C   0  0  0  0  0  0  0  0  0  0  0  0
  190.6750  178.1580  143.4860 C   0  0  2  0  0  3  0  0  0  0  0  0
  190.0890  178.4090  144.8460 C   0  0  0  0  0  3  0  0  0  0  0  0
  188.9430  177.1220  139.2490 C   0  0  0  0  0  2  0  0  0  0  0  0
  190.8180  176.1330  142.1050 N   0  0  0  0  0  0  0  0  0  0  0  0
  188.4490  177.7140  147.5970 C   0  0  0  0  0  0  0  0  0  0  0  0
  189.8170  177.8600  147.1940 N   0  0  0  0  0  2  0  0  0  0  0  0
  187.5720  177.2970  146.7950 O   0  0  0  0  0  0  0  0  0  0  0  0
  188.0860  178.0290  148.8990 O   0  0  0  0  0  1  0  0  0  0  0  0
  186.3740  178.7880  138.4510 O   0  0  0  0  0  0  0  0  0  0  0  0
  186.7610  177.8370  136.3440 C   0  0  0  0  0  3  0  0  0  0  0  0
  186.0090  177.8800  137.4500 C   0  0  0  0  0  0  0  0  0  0  0  0
  184.6400  175.9670  136.5160 C   0  0  0  0  0  0  0  0  0  0  0  0
  184.8340  176.9410  137.6430 C   0  0  0  0  0  2  0  0  0  0  0  0
  186.5000  176.8840  135.2530 C   0  0  0  0  0  3  0  0  0  0  0  0
  185.5060  176.0020  135.3320 C   0  0  0  0  0  3  0  0  0  0  0  0
  183.7180  175.1140  136.5840 O   0  0  0  0  0  0  0  0  0  0  0  0
  185.6760  178.0350  143.9710 O   0  0  0  0  0  0  0  0  0  0  0  0
  185.3440  179.0890  144.8710 C   0  0  0  0  0  2  0  0  0  0  0  0
  182.8750  178.8660  144.6330 C   0  0  0  0  0  1  0  0  0  0  0  0
  184.0420  178.7870  145.5970 C   0  0  0  0  0  2  0  0  0  0  0  0
  1  4  1  0  0  0  0
  2  5  2  0  0  0  0
  3 32  1  0  0  0  0
  4  3  2  0  0  0  0
  5  3  1  0  0  0  0
  6  2  1  0  0  0  0
  6  1  2  0  0  0  0
  7  8  1  0  0  0  0
  8 21  1  0  0  0  0
 10  9  1  6  0  0  0
 10 14  1  0  0  0  0
 10 19  1  0  0  0  0
 12  1  1  1  0  0  0
 12 14  1  0  0  0  0
 13  7  1  0  0  0  0
 14 11  2  0  0  0  0
 15 16  1  0  0  0  0
 15 13  1  0  0  0  0
 16 11  1  6  0  0  0
 16 17  1  0  0  0  0
 17  8  2  0  0  0  0
 18  9  1  0  0  0  0
 18 12  1  0  0  0  0
 19 15  2  0  0  0  0
 20 23  1  0  0  0  0
 21 20  1  0  0  0  0
 22 20  2  0  0  0  0
 24  6  1  0  0  0  0
 25 26  2  0  0  0  0
 26 28  1  0  0  0  0
 26 24  1  0  0  0  0
 27 31  2  0  0  0  0
 27 28  1  0  0  0  0
 29 30  2  0  0  0  0
 29 25  1  0  0  0  0
 30 27  1  0  0  0  0
 32 33  1  0  0  0  0
 33 35  1  0  0  0  0
 34 35  1  0  0  0  0
M  END
>  <MODEL>
4

>  <REMARK>
 VINA RESULT:      -7.9      2.886      4.961
  Name = 
  7 active torsions:
  status: ('A' for Active; 'I' for Inactive)
    1  A    between atoms: C_2  and  C_14
    2  A    between atoms: C_5  and  C_23
    3  A    between atoms: O_6  and  C_7
    4  A    between atoms: O_6  and  C_29
    5  A    between atoms: C_8  and  N_17
    6  A    between atoms: C_14  and  O_31
    7  A    between atoms: C_15  and  O_31
                            x       y       z     vdW  Elec       q    Type
                         _______ _______ _______ _____ _____    ______ ____

>  <TORSDO>
F 7

$$$$
=
 OpenBabel10232410483D

 35 39  0  0  1  0  0  0  0  0999 V2000
  185.5720  176.5800  136.9810 C   0  0  0  0  0  0  0  0  0  0  0  0
  183.6340  175.5970  138.0730 C   0  0  0  0  0  3  0  0  0  0  0  0
  185.3000  174.1620  137.0510 C   0  0  0  0  0  0  0  0  0  0  0  0
  186.0260  175.2930  136.6700 C   0  0  0  0  0  3  0  0  0  0  0  0
  184.0980  174.3210  137.7550 C   0  0  0  0  0  3  0  0  0  0  0  0
  184.3590  176.7360  137.6920 C   0  0  0  0  0  0  0  0  0  0  0  0
  190.7460  177.3380  141.1780 C   0  0  0  0  0  2  0  0  0  0  0  0
  189.3430  177.2980  141.7180 C   0  0  0  0  0  0  0  0  0  0  0  0
  188.6410  177.4020  135.5700 N   0  0  0  0  0  2  0  0  0  0  0  0
  188.7900  178.1770  136.7970 C   0  0  1  0  0  3  0  0  0  0  0  0
  187.3350  178.2350  138.7890 C   0  0  0  0  0  3  0  0  0  0  0  0
  186.4070  177.7420  136.5050 C   0  0  1  0  0  3  0  0  0  0  0  0
  190.7510  177.1450  139.7630 O   0  0  0  0  0  0  0  0  0  0  0  0
  187.4620  178.1520  137.4560 C   0  0  0  0  0  0  0  0  0  0  0  0
  189.7510  177.7030  138.9620 C   0  0  0  0  0  0  0  0  0  0  0  0
  188.5760  178.3990  139.6260 C   0  0  2  0  0  3  0  0  0  0  0  0
  188.3400  177.8040  140.9840 C   0  0  0  0  0  3  0  0  0  0  0  0
  187.2050  177.3810  135.2540 C   0  0  0  0  0  2  0  0  0  0  0  0
  189.8120  177.5870  137.6650 N   0  0  0  0  0  0  0  0  0  0  0  0
  189.4560  177.3510  144.2790 C   0  0  0  0  0  0  0  0  0  0  0  0
  189.1230  176.7460  143.0230 N   0  0  0  0  0  2  0  0  0  0  0  0
  189.9690  178.5000  144.3360 O   0  0  0  0  0  0  0  0  0  0  0  0
  189.2010  176.6600  145.4560 O   0  0  0  0  0  1  0  0  0  0  0  0
  183.9050  178.0170  138.0340 O   0  0  0  0  0  0  0  0  0  0  0  0
  181.9920  178.6600  139.2260 C   0  0  0  0  0  3  0  0  0  0  0  0
  183.2930  178.3510  139.2490 C   0  0  0  0  0  0  0  0  0  0  0  0
  183.2410  178.5950  141.7670 C   0  0  0  0  0  0  0  0  0  0  0  0
  184.0710  178.3050  140.5490 C   0  0  0  0  0  2  0  0  0  0  0  0
  181.2370  178.9730  140.4500 C   0  0  0  0  0  3  0  0  0  0  0  0
  181.8200  178.9400  141.6460 C   0  0  0  0  0  3  0  0  0  0  0  0
  183.7730  178.5500  142.9060 O   0  0  0  0  0  0  0  0  0  0  0  0
  185.7940  172.8960  136.7160 O   0  0  0  0  0  0  0  0  0  0  0  0
  187.0030  172.6950  135.9910 C   0  0  0  0  0  2  0  0  0  0  0  0
  189.2000  173.4610  136.8790 C   0  0  0  0  0  1  0  0  0  0  0  0
  188.1500  172.3700  136.9360 C   0  0  0  0  0  2  0  0  0  0  0  0
  1  6  1  0  0  0  0
  3  5  2  0  0  0  0
  4  1  2  0  0  0  0
  4  3  1  0  0  0  0
  5  2  1  0  0  0  0
  6 24  1  0  0  0  0
  6  2  2  0  0  0  0
  7  8  1  0  0  0  0
  8 21  1  0  0  0  0
 10  9  1  6  0  0  0
 10 14  1  0  0  0  0
 10 19  1  0  0  0  0
 12  1  1  1  0  0  0
 12 14  1  0  0  0  0
 13  7  1  0  0  0  0
 14 11  2  0  0  0  0
 15 16  1  0  0  0  0
 15 13  1  0  0  0  0
 16 11  1  6  0  0  0
 16 17  1  0  0  0  0
 17  8  2  0  0  0  0
 18  9  1  0  0  0  0
 18 12  1  0  0  0  0
 19 15  2  0  0  0  0
 20 22  2  0  0  0  0
 20 23  1  0  0  0  0
 21 20  1  0  0  0  0
 24 26  1  0  0  0  0
 25 26  2  0  0  0  0
 25 29  1  0  0  0  0
 26 28  1  0  0  0  0
 27 31  2  0  0  0  0
 28 27  1  0  0  0  0
 29 30  2  0  0  0  0
 30 27  1  0  0  0  0
 32  3  1  0  0  0  0
 33 32  1  0  0  0  0
 33 35  1  0  0  0  0
 34 35  1  0  0  0  0
M  END
>  <MODEL>
5

>  <REMARK>
 VINA RESULT:      -7.9      4.312      6.742
  Name = 
  7 active torsions:
  status: ('A' for Active; 'I' for Inactive)
    1  A    between atoms: C_2  and  C_14
    2  A    between atoms: C_5  and  C_23
    3  A    between atoms: O_6  and  C_7
    4  A    between atoms: O_6  and  C_29
    5  A    between atoms: C_8  and  N_17
    6  A    between atoms: C_14  and  O_31
    7  A    between atoms: C_15  and  O_31
                            x       y       z     vdW  Elec       q    Type
                         _______ _______ _______ _____ _____    ______ ____

>  <TORSDO>
F 7

$$$$
=
 OpenBabel10232410483D

 35 39  0  0  1  0  0  0  0  0999 V2000
  187.0590  178.3970  141.2810 C   0  0  0  0  0  0  0  0  0  0  0  0
  189.1170  177.3810  140.4750 C   0  0  0  0  0  3  0  0  0  0  0  0
  188.3700  176.9590  142.7440 C   0  0  0  0  0  0  0  0  0  0  0  0
  187.2580  177.7740  142.5180 C   0  0  0  0  0  3  0  0  0  0  0  0
  189.3020  176.7670  141.7140 C   0  0  0  0  0  3  0  0  0  0  0  0
  188.0010  178.1990  140.2450 C   0  0  0  0  0  0  0  0  0  0  0  0
  182.3170  174.9700  138.0070 C   0  0  0  0  0  2  0  0  0  0  0  0
  183.6930  175.0970  137.4140 C   0  0  0  0  0  0  0  0  0  0  0  0
  183.7820  178.8100  142.3640 N   0  0  0  0  0  2  0  0  0  0  0  0
  183.4890  178.6760  140.9410 C   0  0  1  0  0  3  0  0  0  0  0  0
  185.0080  178.0910  139.0870 C   0  0  0  0  0  3  0  0  0  0  0  0
  185.8450  179.2800  141.1380 C   0  0  1  0  0  3  0  0  0  0  0  0
  182.2530  175.6050  139.2840 O   0  0  0  0  0  0  0  0  0  0  0  0
  184.8000  178.7240  140.2520 C   0  0  0  0  0  0  0  0  0  0  0  0
  182.9340  176.8010  139.5220 C   0  0  0  0  0  0  0  0  0  0  0  0
  183.8620  177.3490  138.4520 C   0  0  2  0  0  3  0  0  0  0  0  0
  184.4010  176.2170  137.6250 C   0  0  0  0  0  3  0  0  0  0  0  0
  185.1090  179.4360  142.4660 C   0  0  0  0  0  2  0  0  0  0  0  0
  182.8040  177.4100  140.6670 N   0  0  0  0  0  0  0  0  0  0  0  0
  185.1010  172.9890  137.0250 C   0  0  0  0  0  0  0  0  0  0  0  0
  184.1980  174.0220  136.6100 N   0  0  0  0  0  2  0  0  0  0  0  0
  185.5180  172.9230  138.2120 O   0  0  0  0  0  1  0  0  0  0  0  0
  185.5160  172.0370  136.1040 O   0  0  0  0  0  0  0  0  0  0  0  0
  187.8020  178.7960  138.9920 O   0  0  0  0  0  0  0  0  0  0  0  0
  187.4540  178.8060  136.6730 C   0  0  0  0  0  3  0  0  0  0  0  0
  187.7090  178.0990  137.7800 C   0  0  0  0  0  0  0  0  0  0  0  0
  187.9050  176.0300  136.3360 C   0  0  0  0  0  0  0  0  0  0  0  0
  187.9460  176.6030  137.7250 C   0  0  0  0  0  2  0  0  0  0  0  0
  187.3880  178.1830  135.3410 C   0  0  0  0  0  3  0  0  0  0  0  0
  187.6030  176.8800  135.1790 C   0  0  0  0  0  3  0  0  0  0  0  0
  188.1250  174.8030  136.1640 O   0  0  0  0  0  0  0  0  0  0  0  0
  188.5260  176.3580  143.9980 O   0  0  0  0  0  0  0  0  0  0  0  0
  188.7340  177.0960  145.1980 C   0  0  0  0  0  2  0  0  0  0  0  0
  191.2160  177.2340  145.3350 C   0  0  0  0  0  1  0  0  0  0  0  0
  189.9430  178.0100  145.0650 C   0  0  0  0  0  2  0  0  0  0  0  0
  1  4  1  0  0  0  0
  2  5  2  0  0  0  0
  3 32  1  0  0  0  0
  4  3  2  0  0  0  0
  5  3  1  0  0  0  0
  6  2  1  0  0  0  0
  6  1  2  0  0  0  0
  7 13  1  0  0  0  0
  8 17  2  0  0  0  0
  8  7  1  0  0  0  0
  9 18  1  0  0  0  0
 10 14  1  6  0  0  0
 10  9  1  0  0  0  0
 11 14  2  0  0  0  0
 12  1  1  1  0  0  0
 12 18  1  0  0  0  0
 13 15  1  0  0  0  0
 14 12  1  0  0  0  0
 15 19  2  0  0  0  0
 16 17  1  1  0  0  0
 16 11  1  0  0  0  0
 16 15  1  0  0  0  0
 19 10  1  0  0  0  0
 20 22  1  0  0  0  0
 21 20  1  0  0  0  0
 21  8  1  0  0  0  0
 23 20  2  0  0  0  0
 24  6  1  0  0  0  0
 25 26  2  0  0  0  0
 26 24  1  0  0  0  0
 27 28  1  0  0  0  0
 28 26  1  0  0  0  0
 29 25  1  0  0  0  0
 30 29  2  0  0  0  0
 30 27  1  0  0  0  0
 31 27  2  0  0  0  0
 32 33  1  0  0  0  0
 35 33  1  0  0  0  0
 35 34  1  0  0  0  0
M  END
>  <MODEL>
6

>  <REMARK>
 VINA RESULT:      -7.8      3.717      7.329
  Name = 
  7 active torsions:
  status: ('A' for Active; 'I' for Inactive)
    1  A    between atoms: C_2  and  C_14
    2  A    between atoms: C_5  and  C_23
    3  A    between atoms: O_6  and  C_7
    4  A    between atoms: O_6  and  C_29
    5  A    between atoms: C_8  and  N_17
    6  A    between atoms: C_14  and  O_31
    7  A    between atoms: C_15  and  O_31
                            x       y       z     vdW  Elec       q    Type
                         _______ _______ _______ _____ _____    ______ ____

>  <TORSDO>
F 7

$$$$
=
 OpenBabel10232410483D

 35 39  0  0  1  0  0  0  0  0999 V2000
  187.8180  178.0760  140.4070 C   0  0  0  0  0  0  0  0  0  0  0  0
  187.3750  177.9880  142.7970 C   0  0  0  0  0  3  0  0  0  0  0  0
  189.3450  176.9010  141.8930 C   0  0  0  0  0  0  0  0  0  0  0  0
  188.9780  177.3230  140.6130 C   0  0  0  0  0  3  0  0  0  0  0  0
  188.5340  177.2360  142.9870 C   0  0  0  0  0  3  0  0  0  0  0  0
  187.0030  178.4140  141.5130 C   0  0  0  0  0  0  0  0  0  0  0  0
  191.6090  174.4110  136.2660 C   0  0  0  0  0  2  0  0  0  0  0  0
  192.2550  175.2010  137.3710 C   0  0  0  0  0  0  0  0  0  0  0  0
  186.3130  176.9270  137.4910 N   0  0  0  0  0  2  0  0  0  0  0  0
  187.6420  177.1550  136.9330 C   0  0  1  0  0  3  0  0  0  0  0  0
  189.7320  177.7710  138.0920 C   0  0  0  0  0  3  0  0  0  0  0  0
  187.4870  178.4640  138.9870 C   0  0  1  0  0  3  0  0  0  0  0  0
  190.1880  174.5410  136.3120 O   0  0  0  0  0  0  0  0  0  0  0  0
  188.4000  177.8840  137.9790 C   0  0  0  0  0  0  0  0  0  0  0  0
  189.5930  175.7590  136.6470 C   0  0  0  0  0  0  0  0  0  0  0  0
  190.4720  176.9110  137.1010 C   0  0  2  0  0  3  0  0  0  0  0  0
  191.7160  176.3710  137.7460 C   0  0  0  0  0  3  0  0  0  0  0  0
  186.1270  177.9170  138.5620 C   0  0  0  0  0  2  0  0  0  0  0  0
  188.2960  175.8850  136.6080 N   0  0  0  0  0  0  0  0  0  0  0  0
  194.8020  174.9840  137.5820 C   0  0  0  0  0  0  0  0  0  0  0  0
  193.4530  174.6920  137.9720 N   0  0  0  0  0  2  0  0  0  0  0  0
  195.0510  175.7890  136.6450 O   0  0  0  0  0  0  0  0  0  0  0  0
  195.8520  174.3770  138.2560 O   0  0  0  0  0  1  0  0  0  0  0  0
  185.8510  179.1900  141.3260 O   0  0  0  0  0  0  0  0  0  0  0  0
  183.5410  178.8390  141.5100 C   0  0  0  0  0  3  0  0  0  0  0  0
  184.6990  179.1160  142.1190 C   0  0  0  0  0  0  0  0  0  0  0  0
  183.4710  179.0830  144.3310 C   0  0  0  0  0  0  0  0  0  0  0  0
  184.7800  179.2890  143.6230 C   0  0  0  0  0  2  0  0  0  0  0  0
  182.2800  178.6850  142.2530 C   0  0  0  0  0  3  0  0  0  0  0  0
  182.2440  178.7950  143.5790 C   0  0  0  0  0  3  0  0  0  0  0  0
  183.4240  179.1650  145.5860 O   0  0  0  0  0  0  0  0  0  0  0  0
  190.5140  176.1480  142.0490 O   0  0  0  0  0  0  0  0  0  0  0  0
  191.6080  176.5610  142.8630 C   0  0  0  0  0  2  0  0  0  0  0  0
  191.3910  176.7760  145.3350 C   0  0  0  0  0  1  0  0  0  0  0  0
  191.6080  175.8110  144.1860 C   0  0  0  0  0  2  0  0  0  0  0  0
  1  4  2  0  0  0  0
  1  6  1  0  0  0  0
  2  5  1  0  0  0  0
  3 32  1  0  0  0  0
  3  5  2  0  0  0  0
  4  3  1  0  0  0  0
  6  2  2  0  0  0  0
  7 13  1  0  0  0  0
  7  8  1  0  0  0  0
  8 17  2  0  0  0  0
  8 21  1  0  0  0  0
  9 18  1  0  0  0  0
 10 19  1  1  0  0  0
 10  9  1  0  0  0  0
 10 14  1  0  0  0  0
 12  1  1  1  0  0  0
 13 15  1  0  0  0  0
 14 11  2  0  0  0  0
 14 12  1  0  0  0  0
 15 16  1  0  0  0  0
 16 17  1  1  0  0  0
 16 11  1  0  0  0  0
 18 12  1  0  0  0  0
 19 15  2  0  0  0  0
 20 21  1  0  0  0  0
 20 23  1  0  0  0  0
 22 20  2  0  0  0  0
 24  6  1  0  0  0  0
 24 26  1  0  0  0  0
 25 26  2  0  0  0  0
 25 29  1  0  0  0  0
 26 28  1  0  0  0  0
 27 31  2  0  0  0  0
 28 27  1  0  0  0  0
 29 30  2  0  0  0  0
 30 27  1  0  0  0  0
 32 33  1  0  0  0  0
 33 35  1  0  0  0  0
 35 34  1  0  0  0  0
M  END
>  <MODEL>
7

>  <REMARK>
 VINA RESULT:      -7.7      4.588      7.304
  Name = 
  7 active torsions:
  status: ('A' for Active; 'I' for Inactive)
    1  A    between atoms: C_2  and  C_14
    2  A    between atoms: C_5  and  C_23
    3  A    between atoms: O_6  and  C_7
    4  A    between atoms: O_6  and  C_29
    5  A    between atoms: C_8  and  N_17
    6  A    between atoms: C_14  and  O_31
    7  A    between atoms: C_15  and  O_31
                            x       y       z     vdW  Elec       q    Type
                         _______ _______ _______ _____ _____    ______ ____

>  <TORSDO>
F 7

$$$$
=
 OpenBabel10232410483D

 35 39  0  0  1  0  0  0  0  0999 V2000
  188.3490  177.1640  138.6750 C   0  0  0  0  0  0  0  0  0  0  0  0
  187.6940  178.4330  140.6440 C   0  0  0  0  0  3  0  0  0  0  0  0
  189.5210  176.8440  140.7850 C   0  0  0  0  0  0  0  0  0  0  0  0
  189.3420  176.5350  139.4340 C   0  0  0  0  0  3  0  0  0  0  0  0
  188.6880  177.7970  141.3880 C   0  0  0  0  0  3  0  0  0  0  0  0
  187.5120  178.1260  139.2870 C   0  0  0  0  0  0  0  0  0  0  0  0
  193.8090  173.6790  136.9440 C   0  0  0  0  0  2  0  0  0  0  0  0
  193.9550  175.0440  137.5580 C   0  0  0  0  0  0  0  0  0  0  0  0
  187.8730  174.4070  136.6120 N   0  0  0  0  0  2  0  0  0  0  0  0
  189.1580  174.8250  136.0640 C   0  0  1  0  0  3  0  0  0  0  0  0
  190.6930  176.5830  136.8640 C   0  0  0  0  0  3  0  0  0  0  0  0
  188.2120  176.7470  137.2320 C   0  0  1  0  0  3  0  0  0  0  0  0
  192.4340  173.3010  136.8690 O   0  0  0  0  0  0  0  0  0  0  0  0
  189.4390  176.1530  136.6610 C   0  0  0  0  0  0  0  0  0  0  0  0
  191.4500  174.2410  136.5550 C   0  0  0  0  0  0  0  0  0  0  0  0
  191.8390  175.7050  136.4350 C   0  0  2  0  0  3  0  0  0  0  0  0
  193.0300  175.9820  137.3060 C   0  0  0  0  0  3  0  0  0  0  0  0
  187.1890  175.6250  137.0700 C   0  0  0  0  0  2  0  0  0  0  0  0
  190.2100  173.8670  136.4120 N   0  0  0  0  0  0  0  0  0  0  0  0
  195.8190  174.3720  139.1870 C   0  0  0  0  0  0  0  0  0  0  0  0
  195.1030  175.3120  138.3740 N   0  0  0  0  0  2  0  0  0  0  0  0
  195.4930  173.1560  139.2190 O   0  0  0  0  0  0  0  0  0  0  0  0
  196.8970  174.8090  139.9440 O   0  0  0  0  0  1  0  0  0  0  0  0
  186.5300  178.7840  138.5340 O   0  0  0  0  0  0  0  0  0  0  0  0
  184.5880  177.7360  137.7440 C   0  0  0  0  0  3  0  0  0  0  0  0
  185.1520  178.5530  138.6400 C   0  0  0  0  0  0  0  0  0  0  0  0
  182.9060  178.7390  139.7910 C   0  0  0  0  0  0  0  0  0  0  0  0
  184.3470  179.1670  139.7680 C   0  0  0  0  0  2  0  0  0  0  0  0
  183.1600  177.3820  137.7950 C   0  0  0  0  0  3  0  0  0  0  0  0
  182.3680  177.8490  138.7570 C   0  0  0  0  0  3  0  0  0  0  0  0
  182.1500  179.1570  140.7060 O   0  0  0  0  0  0  0  0  0  0  0  0
  190.5260  176.1870  141.5020 O   0  0  0  0  0  0  0  0  0  0  0  0
  190.4030  175.8330  142.8760 C   0  0  0  0  0  2  0  0  0  0  0  0
  191.3760  177.7720  144.0980 C   0  0  0  0  0  1  0  0  0  0  0  0
  191.5980  176.3350  143.6710 C   0  0  0  0  0  2  0  0  0  0  0  0
  1  6  2  0  0  0  0
  1  4  1  0  0  0  0
  2  5  2  0  0  0  0
  3  5  1  0  0  0  0
  3 32  1  0  0  0  0
  4  3  2  0  0  0  0
  6  2  1  0  0  0  0
  7  8  1  0  0  0  0
  8 21  1  0  0  0  0
  9 18  1  0  0  0  0
 10 19  1  1  0  0  0
 10  9  1  0  0  0  0
 10 14  1  0  0  0  0
 12  1  1  1  0  0  0
 13  7  1  0  0  0  0
 14 11  2  0  0  0  0
 14 12  1  0  0  0  0
 15 13  1  0  0  0  0
 16 15  1  0  0  0  0
 16 11  1  1  0  0  0
 16 17  1  0  0  0  0
 17  8  2  0  0  0  0
 18 12  1  0  0  0  0
 19 15  2  0  0  0  0
 20 22  2  0  0  0  0
 20 23  1  0  0  0  0
 21 20  1  0  0  0  0
 24 26  1  0  0  0  0
 24  6  1  0  0  0  0
 25 29  1  0  0  0  0
 25 26  2  0  0  0  0
 26 28  1  0  0  0  0
 27 31  2  0  0  0  0
 28 27  1  0  0  0  0
 29 30  2  0  0  0  0
 30 27  1  0  0  0  0
 32 33  1  0  0  0  0
 33 35  1  0  0  0  0
 35 34  1  0  0  0  0
M  END
>  <MODEL>
8

>  <REMARK>
 VINA RESULT:      -7.5      5.261      7.574
  Name = 
  7 active torsions:
  status: ('A' for Active; 'I' for Inactive)
    1  A    between atoms: C_2  and  C_14
    2  A    between atoms: C_5  and  C_23
    3  A    between atoms: O_6  and  C_7
    4  A    between atoms: O_6  and  C_29
    5  A    between atoms: C_8  and  N_17
    6  A    between atoms: C_14  and  O_31
    7  A    between atoms: C_15  and  O_31
                            x       y       z     vdW  Elec       q    Type
                         _______ _______ _______ _____ _____    ______ ____

>  <TORSDO>
F 7

$$$$
=
 OpenBabel10232410483D

 35 39  0  0  1  0  0  0  0  0999 V2000
  184.5390  178.4050  139.1820 C   0  0  0  0  0  0  0  0  0  0  0  0
  182.9380  178.6520  140.9960 C   0  0  0  0  0  3  0  0  0  0  0  0
  185.3160  178.6840  141.4720 C   0  0  0  0  0  0  0  0  0  0  0  0
  185.5800  178.5090  140.1110 C   0  0  0  0  0  3  0  0  0  0  0  0
  183.9860  178.7530  141.9110 C   0  0  0  0  0  3  0  0  0  0  0  0
  183.1990  178.4770  139.6290 C   0  0  0  0  0  0  0  0  0  0  0  0
  190.8250  176.0820  138.9620 C   0  0  0  0  0  2  0  0  0  0  0  0
  190.5200  177.3470  139.7150 C   0  0  0  0  0  0  0  0  0  0  0  0
  185.2300  175.9420  136.8280 N   0  0  0  0  0  2  0  0  0  0  0  0
  186.5160  176.6270  136.7590 C   0  0  1  0  0  3  0  0  0  0  0  0
  187.3810  178.4600  138.1660 C   0  0  0  0  0  3  0  0  0  0  0  0
  184.9190  178.1900  137.7390 C   0  0  1  0  0  3  0  0  0  0  0  0
  189.6330  175.5150  138.4180 O   0  0  0  0  0  0  0  0  0  0  0  0
  186.3500  177.8790  137.5340 C   0  0  0  0  0  0  0  0  0  0  0  0
  188.6260  176.3310  137.8970 C   0  0  0  0  0  0  0  0  0  0  0  0
  188.7470  177.8380  138.0430 C   0  0  2  0  0  3  0  0  0  0  0  0
  189.5510  178.1620  139.2700 C   0  0  0  0  0  3  0  0  0  0  0  0
  184.2230  176.9620  137.1550 C   0  0  0  0  0  2  0  0  0  0  0  0
  187.5790  175.7980  137.3320 N   0  0  0  0  0  0  0  0  0  0  0  0
  191.1570  177.1020  142.1870 C   0  0  0  0  0  0  0  0  0  0  0  0
  191.3010  177.6630  140.8760 N   0  0  0  0  0  2  0  0  0  0  0  0
  190.3020  176.2080  142.4250 O   0  0  0  0  0  0  0  0  0  0  0  0
  191.9820  177.5460  143.2110 O   0  0  0  0  0  1  0  0  0  0  0  0
  182.1460  178.4000  138.7070 O   0  0  0  0  0  0  0  0  0  0  0  0
  181.1080  179.1990  136.7630 C   0  0  0  0  0  3  0  0  0  0  0  0
  181.6720  179.4750  137.9440 C   0  0  0  0  0  0  0  0  0  0  0  0
  181.1070  181.9140  137.5720 C   0  0  0  0  0  0  0  0  0  0  0  0
  181.7470  180.8950  138.4710 C   0  0  0  0  0  2  0  0  0  0  0  0
  180.5290  180.2460  135.9050 C   0  0  0  0  0  3  0  0  0  0  0  0
  180.5240  181.5220  136.2840 C   0  0  0  0  0  3  0  0  0  0  0  0
  181.0770  183.1210  137.9240 O   0  0  0  0  0  0  0  0  0  0  0  0
  186.3900  178.7810  142.3630 O   0  0  0  0  0  0  0  0  0  0  0  0
  187.1680  177.6620  142.7760 C   0  0  0  0  0  2  0  0  0  0  0  0
  188.2410  177.4550  145.0130 C   0  0  0  0  0  1  0  0  0  0  0  0
  186.9360  177.3600  144.2490 C   0  0  0  0  0  2  0  0  0  0  0  0
  1  6  2  0  0  0  0
  1  4  1  0  0  0  0
  2  5  2  0  0  0  0
  3  5  1  0  0  0  0
  3 32  1  0  0  0  0
  4  3  2  0  0  0  0
  6  2  1  0  0  0  0
  7  8  1  0  0  0  0
  8 21  1  0  0  0  0
  9 18  1  0  0  0  0
 10  9  1  1  0  0  0
 10 19  1  0  0  0  0
 10 14  1  0  0  0  0
 12  1  1  1  0  0  0
 13  7  1  0  0  0  0
 14 12  1  0  0  0  0
 14 11  2  0  0  0  0
 15 16  1  0  0  0  0
 15 13  1  0  0  0  0
 16 11  1  1  0  0  0
 16 17  1  0  0  0  0
 17  8  2  0  0  0  0
 18 12  1  0  0  0  0
 19 15  2  0  0  0  0
 20 22  2  0  0  0  0
 20 23  1  0  0  0  0
 21 20  1  0  0  0  0
 24  6  1  0  0  0  0
 25 26  2  0  0  0  0
 26 28  1  0  0  0  0
 26 24  1  0  0  0  0
 27 31  2  0  0  0  0
 27 28  1  0  0  0  0
 29 30  2  0  0  0  0
 29 25  1  0  0  0  0
 30 27  1  0  0  0  0
 32 33  1  0  0  0  0
 33 35  1  0  0  0  0
 35 34  1  0  0  0  0
M  END
>  <MODEL>
9

>  <REMARK>
 VINA RESULT:      -7.3      3.603      6.444
  Name = 
  7 active torsions:
  status: ('A' for Active; 'I' for Inactive)
    1  A    between atoms: C_2  and  C_14
    2  A    between atoms: C_5  and  C_23
    3  A    between atoms: O_6  and  C_7
    4  A    between atoms: O_6  and  C_29
    5  A    between atoms: C_8  and  N_17
    6  A    between atoms: C_14  and  O_31
    7  A    between atoms: C_15  and  O_31
                            x       y       z     vdW  Elec       q    Type
                         _______ _______ _______ _____ _____    ______ ____

>  <TORSDO>
F 7

$$$$
