=
 OpenBabel10232410023D

 26 29  0  0  1  0  0  0  0  0999 V2000
  184.7730  178.4470  143.5770 C   0  0  0  0  0  0  0  0  0  0  0  0
  189.8590  177.6070  142.5150 C   0  0  1  0  0  3  0  0  0  0  0  0
  191.3270  177.1840  144.5110 N   0  0  0  0  0  2  0  0  0  0  0  0
  188.7560  177.4890  143.4790 N   0  0  0  0  0  0  0  0  0  0  0  0
  187.4390  177.7870  143.3650 C   0  0  0  0  0  0  0  0  0  0  0  0
  190.1910  177.1920  145.3820 C   0  0  0  0  0  0  0  0  0  0  0  0
  187.8230  177.5340  146.9200 C   0  0  0  0  0  3  0  0  0  0  0  0
  185.4040  178.4460  142.3590 N   0  0  0  0  0  0  0  0  0  0  0  0
  186.7270  178.1330  142.2210 C   0  0  0  0  0  3  0  0  0  0  0  0
  190.2630  177.1790  146.7970 C   0  0  0  0  0  0  0  0  0  0  0  0
  187.8020  177.5120  145.5280 C   0  0  0  0  0  0  0  0  0  0  0  0
  189.0750  177.3580  147.5510 C   0  0  0  0  0  3  0  0  0  0  0  0
  186.8190  177.7880  144.6010 C   0  0  0  0  0  0  0  0  0  0  0  0
  185.4790  178.1270  144.7500 C   0  0  0  0  0  3  0  0  0  0  0  0
  191.1540  176.9570  143.0670 C   0  0  0  0  0  2  0  0  0  0  0  0
  188.9510  177.3410  144.7990 C   0  0  0  0  0  0  0  0  0  0  0  0
  193.5310  175.8500  148.2350 N   0  0  0  0  0  1  0  0  0  0  0  0
  192.1910  175.8200  147.7570 C   0  0  0  0  0  0  0  0  0  0  0  0
  191.5060  177.0490  147.5010 N   0  0  0  0  0  2  0  0  0  0  0  0
  191.6080  174.7120  147.6170 O   0  0  0  0  0  0  0  0  0  0  0  0
  182.2140  179.0850  143.7260 C   0  0  0  0  0  3  0  0  0  0  0  0
  183.3830  178.7930  143.6580 C   0  0  0  0  0  0  0  0  0  0  0  0
  189.4970  176.9780  141.1740 C   0  0  0  0  0  2  0  0  0  0  0  0
  189.9710  177.7620  140.1190 O   0  0  0  0  0  0  0  0  0  0  0  0
  188.8690  177.9290  139.2830 C   0  0  0  0  0  2  0  0  0  0  0  0
  189.0590  179.1110  138.4610 N   0  0  0  0  0  1  0  0  0  0  0  0
  1 22  1  0  0  0  0
  1 14  1  0  0  0  0
  2 23  1  6  0  0  0
  2 15  1  0  0  0  0
  2  4  1  0  0  0  0
  3  6  1  0  0  0  0
  4 16  1  0  0  0  0
  5  4  1  0  0  0  0
  5 13  1  0  0  0  0
  6 10  1  0  0  0  0
  7 12  1  0  0  0  0
  8  1  2  0  0  0  0
  9  8  1  0  0  0  0
  9  5  2  0  0  0  0
 10 19  1  0  0  0  0
 10 12  2  0  0  0  0
 11  7  2  0  0  0  0
 13 14  2  0  0  0  0
 13 11  1  0  0  0  0
 15  3  1  0  0  0  0
 16  6  2  0  0  0  0
 16 11  1  0  0  0  0
 18 17  1  0  0  0  0
 19 18  1  0  0  0  0
 20 18  2  0  0  0  0
 22 21  3  0  0  0  0
 24 23  1  0  0  0  0
 25 24  1  0  0  0  0
 26 25  1  0  0  0  0
M  END
>  <MODEL>
1

>  <REMARK>
 VINA RESULT:      -9.1      0.000      0.000
  Name = 
  5 active torsions:
  status: ('A' for Active; 'I' for Inactive)
    1  A    between atoms: C_1  and  C_19
    2  A    between atoms: C_2  and  C_25
    3  A    between atoms: C_11  and  N_21
    4  A    between atoms: C_14  and  O_18
    5  A    between atoms: O_18  and  C_25
                            x       y       z     vdW  Elec       q    Type
                         _______ _______ _______ _____ _____    ______ ____

>  <TORSDO>
F 5

$$$$
=
 OpenBabel10232410023D

 26 29  0  0  1  0  0  0  0  0999 V2000
  185.2170  178.3360  143.8840 C   0  0  0  0  0  0  0  0  0  0  0  0
  190.2100  176.7290  144.3280 C   0  0  1  0  0  3  0  0  0  0  0  0
  191.5370  176.7170  142.1940 N   0  0  0  0  0  2  0  0  0  0  0  0
  189.1990  177.4370  143.5290 N   0  0  0  0  0  0  0  0  0  0  0  0
  187.9030  177.7330  143.7920 C   0  0  0  0  0  0  0  0  0  0  0  0
  190.4480  177.3150  141.4820 C   0  0  0  0  0  0  0  0  0  0  0  0
  188.0590  178.2380  140.2470 C   0  0  0  0  0  3  0  0  0  0  0  0
  185.8810  177.9070  145.0040 N   0  0  0  0  0  0  0  0  0  0  0  0
  187.2100  177.5910  144.9910 C   0  0  0  0  0  3  0  0  0  0  0  0
  190.4000  177.4740  140.0740 C   0  0  0  0  0  0  0  0  0  0  0  0
  188.1680  178.0920  141.6280 C   0  0  0  0  0  0  0  0  0  0  0  0
  189.1990  177.9280  139.4720 C   0  0  0  0  0  3  0  0  0  0  0  0
  187.2470  178.1580  142.6520 C   0  0  0  0  0  0  0  0  0  0  0  0
  185.8900  178.4600  142.6550 C   0  0  0  0  0  3  0  0  0  0  0  0
  191.6070  176.8120  143.6610 C   0  0  0  0  0  2  0  0  0  0  0  0
  189.3280  177.6500  142.2100 C   0  0  0  0  0  0  0  0  0  0  0  0
  192.5940  175.9460  137.3610 N   0  0  0  0  0  1  0  0  0  0  0  0
  191.5530  176.0230  138.3280 C   0  0  0  0  0  0  0  0  0  0  0  0
  191.5050  177.1360  139.2250 N   0  0  0  0  0  2  0  0  0  0  0  0
  190.7180  175.0840  138.4160 O   0  0  0  0  0  0  0  0  0  0  0  0
  182.6410  178.9040  144.0240 C   0  0  0  0  0  3  0  0  0  0  0  0
  183.8170  178.6440  143.9600 C   0  0  0  0  0  0  0  0  0  0  0  0
  190.2820  177.2780  145.7490 C   0  0  0  0  0  2  0  0  0  0  0  0
  191.5920  177.2240  146.2300 O   0  0  0  0  0  0  0  0  0  0  0  0
  191.4950  176.5290  147.4340 C   0  0  0  0  0  2  0  0  0  0  0  0
  192.7140  175.7720  147.6570 N   0  0  0  0  0  1  0  0  0  0  0  0
  1 22  1  0  0  0  0
  1  8  1  0  0  0  0
  2 23  1  1  0  0  0
  3 15  1  0  0  0  0
  4  5  1  0  0  0  0
  4  2  1  0  0  0  0
  5  9  1  0  0  0  0
  6  3  1  0  0  0  0
  6 16  1  0  0  0  0
  7 11  1  0  0  0  0
  9  8  2  0  0  0  0
 10  6  2  0  0  0  0
 11 16  2  0  0  0  0
 11 13  1  0  0  0  0
 12 10  1  0  0  0  0
 12  7  2  0  0  0  0
 13 14  1  0  0  0  0
 13  5  2  0  0  0  0
 14  1  2  0  0  0  0
 15  2  1  0  0  0  0
 16  4  1  0  0  0  0
 17 18  1  0  0  0  0
 18 20  2  0  0  0  0
 18 19  1  0  0  0  0
 19 10  1  0  0  0  0
 22 21  3  0  0  0  0
 23 24  1  0  0  0  0
 24 25  1  0  0  0  0
 25 26  1  0  0  0  0
M  END
>  <MODEL>
2

>  <REMARK>
 VINA RESULT:      -8.3      1.896      5.681
  Name = 
  5 active torsions:
  status: ('A' for Active; 'I' for Inactive)
    1  A    between atoms: C_1  and  C_19
    2  A    between atoms: C_2  and  C_25
    3  A    between atoms: C_11  and  N_21
    4  A    between atoms: C_14  and  O_18
    5  A    between atoms: O_18  and  C_25
                            x       y       z     vdW  Elec       q    Type
                         _______ _______ _______ _____ _____    ______ ____

>  <TORSDO>
F 5

$$$$
=
 OpenBabel10232410023D

 26 29  0  0  1  0  0  0  0  0999 V2000
  191.5770  176.3780  146.9710 C   0  0  0  0  0  0  0  0  0  0  0  0
  188.7300  177.0000  142.5880 C   0  0  1  0  0  3  0  0  0  0  0  0
  186.3540  177.7430  142.9370 N   0  0  0  0  0  2  0  0  0  0  0  0
  188.8790  177.2830  144.0230 N   0  0  0  0  0  0  0  0  0  0  0  0
  189.8730  176.9780  144.8910 C   0  0  0  0  0  0  0  0  0  0  0  0
  186.5770  177.8860  144.3430 C   0  0  0  0  0  0  0  0  0  0  0  0
  187.1940  177.8190  147.1180 C   0  0  0  0  0  3  0  0  0  0  0  0
  191.9550  176.1710  145.6690 N   0  0  0  0  0  0  0  0  0  0  0  0
  191.1310  176.4500  144.6150 C   0  0  0  0  0  3  0  0  0  0  0  0
  185.5580  178.1360  145.2960 C   0  0  0  0  0  0  0  0  0  0  0  0
  188.1640  177.6090  146.1410 C   0  0  0  0  0  0  0  0  0  0  0  0
  185.8800  178.0920  146.6780 C   0  0  0  0  0  3  0  0  0  0  0  0
  189.4750  177.1870  146.1990 C   0  0  0  0  0  0  0  0  0  0  0  0
  190.3010  176.8860  147.2750 C   0  0  0  0  0  3  0  0  0  0  0  0
  187.4910  177.7260  142.0030 C   0  0  0  0  0  2  0  0  0  0  0  0
  187.8530  177.6490  144.8070 C   0  0  0  0  0  0  0  0  0  0  0  0
  182.4090  179.4290  143.5870 N   0  0  0  0  0  1  0  0  0  0  0  0
  183.7380  179.4510  144.0950 C   0  0  0  0  0  0  0  0  0  0  0  0
  184.1960  178.3750  144.9190 N   0  0  0  0  0  2  0  0  0  0  0  0
  184.4770  180.4430  143.8570 O   0  0  0  0  0  0  0  0  0  0  0  0
  193.2480  175.7880  148.9300 C   0  0  0  0  0  3  0  0  0  0  0  0
  192.4850  176.0570  148.0350 C   0  0  0  0  0  0  0  0  0  0  0  0
  189.9790  177.3980  141.8080 C   0  0  0  0  0  2  0  0  0  0  0  0
  190.4300  176.3320  141.0260 O   0  0  0  0  0  0  0  0  0  0  0  0
  190.4380  176.8310  139.7240 C   0  0  0  0  0  2  0  0  0  0  0  0
  190.7190  175.7530  138.7940 N   0  0  0  0  0  1  0  0  0  0  0  0
  1 14  1  0  0  0  0
  1 22  1  0  0  0  0
  2 23  1  6  0  0  0
  2  4  1  0  0  0  0
  3  6  1  0  0  0  0
  4 16  1  0  0  0  0
  4  5  1  0  0  0  0
  5 13  1  0  0  0  0
  6 16  2  0  0  0  0
  6 10  1  0  0  0  0
  8  1  2  0  0  0  0
  9  5  2  0  0  0  0
  9  8  1  0  0  0  0
 10 12  2  0  0  0  0
 11 13  1  0  0  0  0
 11  7  2  0  0  0  0
 12  7  1  0  0  0  0
 13 14  2  0  0  0  0
 15  2  1  0  0  0  0
 15  3  1  0  0  0  0
 16 11  1  0  0  0  0
 17 18  1  0  0  0  0
 18 19  1  0  0  0  0
 19 10  1  0  0  0  0
 20 18  2  0  0  0  0
 22 21  3  0  0  0  0
 24 23  1  0  0  0  0
 25 24  1  0  0  0  0
 26 25  1  0  0  0  0
M  END
>  <MODEL>
3

>  <REMARK>
 VINA RESULT:      -8.3      2.087      6.216
  Name = 
  5 active torsions:
  status: ('A' for Active; 'I' for Inactive)
    1  A    between atoms: C_1  and  C_19
    2  A    between atoms: C_2  and  C_25
    3  A    between atoms: C_11  and  N_21
    4  A    between atoms: C_14  and  O_18
    5  A    between atoms: O_18  and  C_25
                            x       y       z     vdW  Elec       q    Type
                         _______ _______ _______ _____ _____    ______ ____

>  <TORSDO>
F 5

$$$$
=
 OpenBabel10232410023D

 26 29  0  0  1  0  0  0  0  0999 V2000
  190.1740  176.8850  145.8330 C   0  0  0  0  0  0  0  0  0  0  0  0
  186.1120  178.7090  143.0290 C   0  0  1  0  0  3  0  0  0  0  0  0
  186.4970  178.8820  140.5510 N   0  0  0  0  0  2  0  0  0  0  0  0
  187.3930  177.9900  143.0340 N   0  0  0  0  0  0  0  0  0  0  0  0
  188.2020  177.6210  144.0570 C   0  0  0  0  0  0  0  0  0  0  0  0
  187.7820  178.2640  140.6810 C   0  0  0  0  0  0  0  0  0  0  0  0
  190.3920  177.2830  141.2390 C   0  0  0  0  0  3  0  0  0  0  0  0
  188.9430  177.2940  146.2780 N   0  0  0  0  0  0  0  0  0  0  0  0
  187.9470  177.6740  145.4240 C   0  0  0  0  0  3  0  0  0  0  0  0
  188.7350  178.1670  139.6360 C   0  0  0  0  0  0  0  0  0  0  0  0
  189.4100  177.3720  142.2230 C   0  0  0  0  0  0  0  0  0  0  0  0
  190.0350  177.6820  139.9320 C   0  0  0  0  0  3  0  0  0  0  0  0
  189.4400  177.2150  143.5930 C   0  0  0  0  0  0  0  0  0  0  0  0
  190.4640  176.8480  144.4580 C   0  0  0  0  0  3  0  0  0  0  0  0
  185.4870  178.7240  141.6100 C   0  0  0  0  0  2  0  0  0  0  0  0
  188.1540  177.8430  141.9380 C   0  0  0  0  0  0  0  0  0  0  0  0
  187.2800  178.4990  136.1320 N   0  0  0  0  0  1  0  0  0  0  0  0
  187.7040  177.8570  137.3280 C   0  0  0  0  0  0  0  0  0  0  0  0
  188.4530  178.5960  138.2980 N   0  0  0  0  0  2  0  0  0  0  0  0
  187.4610  176.6330  137.4940 O   0  0  0  0  0  0  0  0  0  0  0  0
  192.0310  176.1870  147.5780 C   0  0  0  0  0  3  0  0  0  0  0  0
  191.1840  176.5050  146.7810 C   0  0  0  0  0  0  0  0  0  0  0  0
  185.1260  178.1010  144.0210 C   0  0  0  0  0  2  0  0  0  0  0  0
  183.8120  178.3980  143.6530 O   0  0  0  0  0  0  0  0  0  0  0  0
  183.3190  179.1690  144.7040 C   0  0  0  0  0  2  0  0  0  0  0  0
  184.0920  178.9050  145.9030 N   0  0  0  0  0  1  0  0  0  0  0  0
  1  8  1  0  0  0  0
  1 22  1  0  0  0  0
  2  4  1  0  0  0  0
  2 23  1  1  0  0  0
  3  6  1  0  0  0  0
  3 15  1  0  0  0  0
  4  5  1  0  0  0  0
  5  9  1  0  0  0  0
  6 16  1  0  0  0  0
  7 11  1  0  0  0  0
  9  8  2  0  0  0  0
 10 12  1  0  0  0  0
 10  6  2  0  0  0  0
 11 13  1  0  0  0  0
 12  7  2  0  0  0  0
 13  5  2  0  0  0  0
 13 14  1  0  0  0  0
 14  1  2  0  0  0  0
 15  2  1  0  0  0  0
 16 11  2  0  0  0  0
 16  4  1  0  0  0  0
 17 18  1  0  0  0  0
 18 20  2  0  0  0  0
 18 19  1  0  0  0  0
 19 10  1  0  0  0  0
 22 21  3  0  0  0  0
 24 23  1  0  0  0  0
 24 25  1  0  0  0  0
 25 26  1  0  0  0  0
M  END
>  <MODEL>
4

>  <REMARK>
 VINA RESULT:      -8.3      2.618      7.278
  Name = 
  5 active torsions:
  status: ('A' for Active; 'I' for Inactive)
    1  A    between atoms: C_1  and  C_19
    2  A    between atoms: C_2  and  C_25
    3  A    between atoms: C_11  and  N_21
    4  A    between atoms: C_14  and  O_18
    5  A    between atoms: O_18  and  C_25
                            x       y       z     vdW  Elec       q    Type
                         _______ _______ _______ _____ _____    ______ ____

>  <TORSDO>
F 5

$$$$
=
 OpenBabel10232410023D

 26 29  0  0  1  0  0  0  0  0999 V2000
  191.2970  176.4800  146.1220 C   0  0  0  0  0  0  0  0  0  0  0  0
  189.0020  177.3810  141.4720 C   0  0  1  0  0  3  0  0  0  0  0  0
  186.5720  178.0170  141.5680 N   0  0  0  0  0  2  0  0  0  0  0  0
  188.9570  177.5460  142.9310 N   0  0  0  0  0  0  0  0  0  0  0  0
  189.8460  177.2000  143.8940 C   0  0  0  0  0  0  0  0  0  0  0  0
  186.6100  178.0480  142.9990 C   0  0  0  0  0  0  0  0  0  0  0  0
  186.8740  177.7670  145.8170 C   0  0  0  0  0  3  0  0  0  0  0  0
  191.8450  176.3960  144.8670 N   0  0  0  0  0  0  0  0  0  0  0  0
  191.1500  176.7360  143.7420 C   0  0  0  0  0  3  0  0  0  0  0  0
  185.4700  178.1850  143.8290 C   0  0  0  0  0  0  0  0  0  0  0  0
  187.9670  177.6690  144.9590 C   0  0  0  0  0  0  0  0  0  0  0  0
  185.6160  178.0340  145.2330 C   0  0  0  0  0  3  0  0  0  0  0  0
  189.2780  177.2860  145.1520 C   0  0  0  0  0  0  0  0  0  0  0  0
  189.9730  176.9200  146.2980 C   0  0  0  0  0  3  0  0  0  0  0  0
  187.8180  178.1140  140.7910 C   0  0  0  0  0  2  0  0  0  0  0  0
  187.8260  177.8120  143.6030 C   0  0  0  0  0  0  0  0  0  0  0  0
  181.9090  179.4210  143.2860 N   0  0  0  0  0  1  0  0  0  0  0  0
  183.0720  179.0230  144.0020 C   0  0  0  0  0  0  0  0  0  0  0  0
  184.1570  178.4120  143.3000 N   0  0  0  0  0  2  0  0  0  0  0  0
  183.1090  179.1660  145.2530 O   0  0  0  0  0  0  0  0  0  0  0  0
  192.7320  175.7790  148.2260 C   0  0  0  0  0  3  0  0  0  0  0  0
  192.0760  176.0990  147.2660 C   0  0  0  0  0  0  0  0  0  0  0  0
  190.3220  177.8820  140.8940 C   0  0  0  0  0  2  0  0  0  0  0  0
  191.0230  176.8350  140.2900 O   0  0  0  0  0  0  0  0  0  0  0  0
  190.4830  176.7450  139.0080 C   0  0  0  0  0  2  0  0  0  0  0  0
  190.7270  175.4190  138.4720 N   0  0  0  0  0  1  0  0  0  0  0  0
  1 14  1  0  0  0  0
  1 22  1  0  0  0  0
  2 23  1  6  0  0  0
  2  4  1  0  0  0  0
  3  6  1  0  0  0  0
  4 16  1  0  0  0  0
  4  5  1  0  0  0  0
  5 13  1  0  0  0  0
  6 16  2  0  0  0  0
  6 10  1  0  0  0  0
  8  1  2  0  0  0  0
  9  5  2  0  0  0  0
  9  8  1  0  0  0  0
 10 12  2  0  0  0  0
 11 13  1  0  0  0  0
 11  7  2  0  0  0  0
 12  7  1  0  0  0  0
 13 14  2  0  0  0  0
 15  2  1  0  0  0  0
 15  3  1  0  0  0  0
 16 11  1  0  0  0  0
 17 18  1  0  0  0  0
 18 20  2  0  0  0  0
 19 10  1  0  0  0  0
 19 18  1  0  0  0  0
 22 21  3  0  0  0  0
 24 23  1  0  0  0  0
 25 24  1  0  0  0  0
 26 25  1  0  0  0  0
M  END
>  <MODEL>
5

>  <REMARK>
 VINA RESULT:      -8.0      2.255      6.219
  Name = 
  5 active torsions:
  status: ('A' for Active; 'I' for Inactive)
    1  A    between atoms: C_1  and  C_19
    2  A    between atoms: C_2  and  C_25
    3  A    between atoms: C_11  and  N_21
    4  A    between atoms: C_14  and  O_18
    5  A    between atoms: O_18  and  C_25
                            x       y       z     vdW  Elec       q    Type
                         _______ _______ _______ _____ _____    ______ ____

>  <TORSDO>
F 5

$$$$
=
 OpenBabel10232410023D

 26 29  0  0  1  0  0  0  0  0999 V2000
  188.4130  178.3300  139.3610 C   0  0  0  0  0  0  0  0  0  0  0  0
  186.5380  177.8560  144.2560 C   0  0  1  0  0  3  0  0  0  0  0  0
  188.2560  177.4050  146.0350 N   0  0  0  0  0  2  0  0  0  0  0  0
  187.7020  178.0850  143.3890 N   0  0  0  0  0  0  0  0  0  0  0  0
  187.7980  178.2140  142.0440 C   0  0  0  0  0  0  0  0  0  0  0  0
  189.3160  177.5460  145.0840 C   0  0  0  0  0  0  0  0  0  0  0  0
  191.2070  177.5940  142.9610 C   0  0  0  0  0  3  0  0  0  0  0  0
  187.1120  178.4020  139.7900 N   0  0  0  0  0  0  0  0  0  0  0  0
  186.7720  178.3390  141.1110 C   0  0  0  0  0  3  0  0  0  0  0  0
  190.6750  177.2410  145.3460 C   0  0  0  0  0  0  0  0  0  0  0  0
  189.8660  177.9120  142.7620 C   0  0  0  0  0  0  0  0  0  0  0  0
  191.6060  177.2620  144.2750 C   0  0  0  0  0  3  0  0  0  0  0  0
  189.1150  178.1350  141.6280 C   0  0  0  0  0  0  0  0  0  0  0  0
  189.4640  178.1780  140.2830 C   0  0  0  0  0  3  0  0  0  0  0  0
  186.9260  177.9700  145.7530 C   0  0  0  0  0  2  0  0  0  0  0  0
  188.9670  177.8900  143.7960 C   0  0  0  0  0  0  0  0  0  0  0  0
  192.6410  175.6900  148.2160 N   0  0  0  0  0  1  0  0  0  0  0  0
  192.0720  175.8040  146.9170 C   0  0  0  0  0  0  0  0  0  0  0  0
  191.1380  176.8530  146.6460 N   0  0  0  0  0  2  0  0  0  0  0  0
  192.3560  174.9480  146.0380 O   0  0  0  0  0  0  0  0  0  0  0  0
  188.9490  178.4480  136.7770 C   0  0  0  0  0  3  0  0  0  0  0  0
  188.7040  178.3950  137.9570 C   0  0  0  0  0  0  0  0  0  0  0  0
  185.4070  178.8300  143.9400 C   0  0  0  0  0  2  0  0  0  0  0  0
  184.2390  178.1360  143.6140 O   0  0  0  0  0  0  0  0  0  0  0  0
  183.2130  178.8900  144.1830 C   0  0  0  0  0  2  0  0  0  0  0  0
  183.5260  179.1630  145.5740 N   0  0  0  0  0  1  0  0  0  0  0  0
  1  8  2  0  0  0  0
  1 14  1  0  0  0  0
  2 23  1  6  0  0  0
  2 15  1  0  0  0  0
  4 16  1  0  0  0  0
  4  2  1  0  0  0  0
  5  4  1  0  0  0  0
  6 10  1  0  0  0  0
  6  3  1  0  0  0  0
  7 12  1  0  0  0  0
  8  9  1  0  0  0  0
  9  5  2  0  0  0  0
 10 19  1  0  0  0  0
 11  7  2  0  0  0  0
 11 16  1  0  0  0  0
 12 10  2  0  0  0  0
 13  5  1  0  0  0  0
 13 11  1  0  0  0  0
 14 13  2  0  0  0  0
 15  3  1  0  0  0  0
 16  6  2  0  0  0  0
 18 17  1  0  0  0  0
 19 18  1  0  0  0  0
 20 18  2  0  0  0  0
 21 22  3  0  0  0  0
 22  1  1  0  0  0  0
 24 23  1  0  0  0  0
 24 25  1  0  0  0  0
 25 26  1  0  0  0  0
M  END
>  <MODEL>
6

>  <REMARK>
 VINA RESULT:      -7.9      1.964      4.724
  Name = 
  5 active torsions:
  status: ('A' for Active; 'I' for Inactive)
    1  A    between atoms: C_1  and  C_19
    2  A    between atoms: C_2  and  C_25
    3  A    between atoms: C_11  and  N_21
    4  A    between atoms: C_14  and  O_18
    5  A    between atoms: O_18  and  C_25
                            x       y       z     vdW  Elec       q    Type
                         _______ _______ _______ _____ _____    ______ ____

>  <TORSDO>
F 5

$$$$
=
 OpenBabel10232410023D

 26 29  0  0  1  0  0  0  0  0999 V2000
  187.3330  177.8890  146.3980 C   0  0  0  0  0  0  0  0  0  0  0  0
  184.9030  178.9800  141.8580 C   0  0  1  0  0  3  0  0  0  0  0  0
  186.3260  178.7890  139.7950 N   0  0  0  0  0  2  0  0  0  0  0  0
  186.0500  178.3570  142.5350 N   0  0  0  0  0  0  0  0  0  0  0  0
  186.3320  178.2060  143.8510 C   0  0  0  0  0  0  0  0  0  0  0  0
  187.4230  178.2860  140.5660 C   0  0  0  0  0  0  0  0  0  0  0  0
  189.5240  177.5800  142.3470 C   0  0  0  0  0  3  0  0  0  0  0  0
  186.0340  178.2800  146.1950 N   0  0  0  0  0  0  0  0  0  0  0  0
  185.5090  178.4550  144.9460 C   0  0  0  0  0  3  0  0  0  0  0  0
  188.7330  178.0910  140.0640 C   0  0  0  0  0  0  0  0  0  0  0  0
  188.2140  177.7560  142.7840 C   0  0  0  0  0  0  0  0  0  0  0  0
  189.7730  177.7460  140.9660 C   0  0  0  0  0  3  0  0  0  0  0  0
  187.6450  177.8170  144.0390 C   0  0  0  0  0  0  0  0  0  0  0  0
  188.1900  177.6580  145.3080 C   0  0  0  0  0  3  0  0  0  0  0  0
  184.9560  178.7310  140.3290 C   0  0  0  0  0  2  0  0  0  0  0  0
  187.2100  178.0920  141.9130 C   0  0  0  0  0  0  0  0  0  0  0  0
  188.9340  177.7840  136.2730 N   0  0  0  0  0  1  0  0  0  0  0  0
  188.7890  177.3630  137.6240 C   0  0  0  0  0  0  0  0  0  0  0  0
  189.0640  178.2860  138.6830 N   0  0  0  0  0  2  0  0  0  0  0  0
  188.4740  176.1700  137.8720 O   0  0  0  0  0  0  0  0  0  0  0  0
  188.2440  177.5980  148.8600 C   0  0  0  0  0  3  0  0  0  0  0  0
  187.8280  177.7310  147.7360 C   0  0  0  0  0  0  0  0  0  0  0  0
  183.5800  178.4690  142.4200 C   0  0  0  0  0  2  0  0  0  0  0  0
  182.5260  178.7900  141.5610 O   0  0  0  0  0  0  0  0  0  0  0  0
  181.4370  179.0000  142.4050 C   0  0  0  0  0  2  0  0  0  0  0  0
  181.8440  178.7910  143.7820 N   0  0  0  0  0  1  0  0  0  0  0  0
  1 22  1  0  0  0  0
  2 23  1  1  0  0  0
  2  4  1  0  0  0  0
  3 15  1  0  0  0  0
  3  6  1  0  0  0  0
  4  5  1  0  0  0  0
  5 13  2  0  0  0  0
  5  9  1  0  0  0  0
  6 16  1  0  0  0  0
  7 11  1  0  0  0  0
  8  1  1  0  0  0  0
  9  8  2  0  0  0  0
 10  6  2  0  0  0  0
 10 12  1  0  0  0  0
 11 13  1  0  0  0  0
 12  7  2  0  0  0  0
 13 14  1  0  0  0  0
 14  1  2  0  0  0  0
 15  2  1  0  0  0  0
 16  4  1  0  0  0  0
 16 11  2  0  0  0  0
 17 18  1  0  0  0  0
 18 20  2  0  0  0  0
 18 19  1  0  0  0  0
 19 10  1  0  0  0  0
 22 21  3  0  0  0  0
 24 25  1  0  0  0  0
 24 23  1  0  0  0  0
 25 26  1  0  0  0  0
M  END
>  <MODEL>
7

>  <REMARK>
 VINA RESULT:      -7.6      3.432      6.724
  Name = 
  5 active torsions:
  status: ('A' for Active; 'I' for Inactive)
    1  A    between atoms: C_1  and  C_19
    2  A    between atoms: C_2  and  C_25
    3  A    between atoms: C_11  and  N_21
    4  A    between atoms: C_14  and  O_18
    5  A    between atoms: O_18  and  C_25
                            x       y       z     vdW  Elec       q    Type
                         _______ _______ _______ _____ _____    ______ ____

>  <TORSDO>
F 5

$$$$
=
 OpenBabel10232410023D

 26 29  0  0  1  0  0  0  0  0999 V2000
  183.5470  178.7540  141.6100 C   0  0  0  0  0  0  0  0  0  0  0  0
  188.7050  178.4010  140.6240 C   0  0  1  0  0  3  0  0  0  0  0  0
  190.1590  177.9370  142.6210 N   0  0  0  0  0  2  0  0  0  0  0  0
  187.5950  178.1220  141.5460 N   0  0  0  0  0  0  0  0  0  0  0  0
  186.2610  178.3240  141.4200 C   0  0  0  0  0  0  0  0  0  0  0  0
  189.0080  177.7880  143.4590 C   0  0  0  0  0  0  0  0  0  0  0  0
  186.5890  177.8200  144.9530 C   0  0  0  0  0  3  0  0  0  0  0  0
  184.2010  178.9000  140.4130 N   0  0  0  0  0  0  0  0  0  0  0  0
  185.5470  178.7030  140.2870 C   0  0  0  0  0  3  0  0  0  0  0  0
  189.0520  177.6670  144.8700 C   0  0  0  0  0  0  0  0  0  0  0  0
  186.5990  177.9070  143.5640 C   0  0  0  0  0  0  0  0  0  0  0  0
  187.8370  177.6930  145.6030 C   0  0  0  0  0  3  0  0  0  0  0  0
  185.6170  178.1780  142.6350 C   0  0  0  0  0  0  0  0  0  0  0  0
  184.2510  178.3980  142.7730 C   0  0  0  0  0  3  0  0  0  0  0  0
  190.0360  177.8130  141.1600 C   0  0  0  0  0  2  0  0  0  0  0  0
  187.7730  177.8850  142.8550 C   0  0  0  0  0  0  0  0  0  0  0  0
  191.8070  176.6360  147.2890 N   0  0  0  0  0  1  0  0  0  0  0  0
  190.4850  176.8540  146.8120 C   0  0  0  0  0  0  0  0  0  0  0  0
  190.2860  177.5800  145.5950 N   0  0  0  0  0  2  0  0  0  0  0  0
  189.5050  176.4540  147.4940 O   0  0  0  0  0  0  0  0  0  0  0  0
  180.9420  179.1770  141.7390 C   0  0  0  0  0  3  0  0  0  0  0  0
  182.1320  178.9840  141.6800 C   0  0  0  0  0  0  0  0  0  0  0  0
  188.4220  177.8540  139.2290 C   0  0  0  0  0  2  0  0  0  0  0  0
  188.4540  178.8820  138.2830 O   0  0  0  0  0  0  0  0  0  0  0  0
  187.8670  178.3300  137.1450 C   0  0  0  0  0  2  0  0  0  0  0  0
  188.8930  177.7180  136.3200 N   0  0  0  0  0  1  0  0  0  0  0  0
  1 22  1  0  0  0  0
  1 14  1  0  0  0  0
  2 23  1  6  0  0  0
  2 15  1  0  0  0  0
  2  4  1  0  0  0  0
  3  6  1  0  0  0  0
  4 16  1  0  0  0  0
  5  4  1  0  0  0  0
  5 13  1  0  0  0  0
  6 10  1  0  0  0  0
  7 12  1  0  0  0  0
  8  1  2  0  0  0  0
  9  8  1  0  0  0  0
  9  5  2  0  0  0  0
 10 19  1  0  0  0  0
 10 12  2  0  0  0  0
 11  7  2  0  0  0  0
 13 14  2  0  0  0  0
 13 11  1  0  0  0  0
 15  3  1  0  0  0  0
 16  6  2  0  0  0  0
 16 11  1  0  0  0  0
 18 17  1  0  0  0  0
 18 20  2  0  0  0  0
 19 18  1  0  0  0  0
 22 21  3  0  0  0  0
 24 23  1  0  0  0  0
 25 24  1  0  0  0  0
 26 25  1  0  0  0  0
M  END
>  <MODEL>
8

>  <REMARK>
 VINA RESULT:      -7.4      1.669      2.369
  Name = 
  5 active torsions:
  status: ('A' for Active; 'I' for Inactive)
    1  A    between atoms: C_1  and  C_19
    2  A    between atoms: C_2  and  C_25
    3  A    between atoms: C_11  and  N_21
    4  A    between atoms: C_14  and  O_18
    5  A    between atoms: O_18  and  C_25
                            x       y       z     vdW  Elec       q    Type
                         _______ _______ _______ _____ _____    ______ ____

>  <TORSDO>
F 5

$$$$
=
 OpenBabel10232410023D

 26 29  0  0  1  0  0  0  0  0999 V2000
  190.8590  177.1370  139.8100 C   0  0  0  0  0  0  0  0  0  0  0  0
  186.3570  178.0040  142.3950 C   0  0  1  0  0  3  0  0  0  0  0  0
  186.4850  177.7840  144.8950 N   0  0  0  0  0  2  0  0  0  0  0  0
  187.8220  177.8980  142.4530 N   0  0  0  0  0  0  0  0  0  0  0  0
  188.7400  177.7060  141.4750 C   0  0  0  0  0  0  0  0  0  0  0  0
  187.9010  177.5850  144.8320 C   0  0  0  0  0  0  0  0  0  0  0  0
  190.6380  176.9370  144.4170 C   0  0  0  0  0  3  0  0  0  0  0  0
  189.6260  177.4480  139.2980 N   0  0  0  0  0  0  0  0  0  0  0  0
  188.5520  177.7270  140.0960 C   0  0  0  0  0  3  0  0  0  0  0  0
  188.7070  177.1990  145.9320 C   0  0  0  0  0  0  0  0  0  0  0  0
  189.8110  177.3480  143.3750 C   0  0  0  0  0  0  0  0  0  0  0  0
  190.0690  176.8720  145.7080 C   0  0  0  0  0  3  0  0  0  0  0  0
  189.9770  177.3880  142.0070 C   0  0  0  0  0  0  0  0  0  0  0  0
  191.0660  177.0830  141.2000 C   0  0  0  0  0  3  0  0  0  0  0  0
  185.7730  178.4130  143.7710 C   0  0  0  0  0  2  0  0  0  0  0  0
  188.4940  177.6630  143.5910 C   0  0  0  0  0  0  0  0  0  0  0  0
  187.7230  177.8440  149.5550 N   0  0  0  0  0  1  0  0  0  0  0  0
  188.5010  177.9200  148.3660 C   0  0  0  0  0  0  0  0  0  0  0  0
  188.1830  177.0700  147.2600 N   0  0  0  0  0  2  0  0  0  0  0  0
  189.4910  178.6960  148.3210 O   0  0  0  0  0  0  0  0  0  0  0  0
  192.8600  176.6010  138.1710 C   0  0  0  0  0  3  0  0  0  0  0  0
  191.9470  176.8460  138.9190 C   0  0  0  0  0  0  0  0  0  0  0  0
  185.9120  178.9990  141.3280 C   0  0  0  0  0  2  0  0  0  0  0  0
  184.5320  179.2050  141.3940 O   0  0  0  0  0  0  0  0  0  0  0  0
  184.0740  178.9330  140.1060 C   0  0  0  0  0  2  0  0  0  0  0  0
  184.4640  180.0110  139.2150 N   0  0  0  0  0  1  0  0  0  0  0  0
  1 14  1  0  0  0  0
  2 23  1  6  0  0  0
  2  4  1  0  0  0  0
  2 15  1  0  0  0  0
  4 16  1  0  0  0  0
  5 13  1  0  0  0  0
  5  4  1  0  0  0  0
  6  3  1  0  0  0  0
  6 10  1  0  0  0  0
  7 12  1  0  0  0  0
  8  1  2  0  0  0  0
  8  9  1  0  0  0  0
  9  5  2  0  0  0  0
 10 19  1  0  0  0  0
 11 16  1  0  0  0  0
 11  7  2  0  0  0  0
 12 10  2  0  0  0  0
 13 11  1  0  0  0  0
 14 13  2  0  0  0  0
 15  3  1  0  0  0  0
 16  6  2  0  0  0  0
 18 17  1  0  0  0  0
 19 18  1  0  0  0  0
 20 18  2  0  0  0  0
 21 22  3  0  0  0  0
 22  1  1  0  0  0  0
 23 24  1  0  0  0  0
 25 24  1  0  0  0  0
 26 25  1  0  0  0  0
M  END
>  <MODEL>
9

>  <REMARK>
 VINA RESULT:      -7.4      2.563      5.196
  Name = 
  5 active torsions:
  status: ('A' for Active; 'I' for Inactive)
    1  A    between atoms: C_1  and  C_19
    2  A    between atoms: C_2  and  C_25
    3  A    between atoms: C_11  and  N_21
    4  A    between atoms: C_14  and  O_18
    5  A    between atoms: O_18  and  C_25
                            x       y       z     vdW  Elec       q    Type
                         _______ _______ _______ _____ _____    ______ ____

>  <TORSDO>
F 5

$$$$
