=
 OpenBabel10232409593D

 58 64  0  0  1  0  0  0  0  0999 V2000
  187.8690  173.0390  137.0540 C   0  0  0  0  0  1  0  0  0  0  0  0
  189.0560  176.7160  138.1750 C   0  0  0  0  0  0  0  0  0  0  0  0
  188.4830  174.3650  136.6570 C   0  0  1  0  0  3  0  0  0  0  0  0
  186.9990  178.4080  135.9340 O   0  0  0  0  0  0  0  0  0  0  0  0
  190.2360  175.8870  137.8910 C   0  0  1  0  0  3  0  0  0  0  0  0
  190.9450  175.7940  139.1190 O   0  0  0  0  0  0  0  0  0  0  0  0
  189.2300  177.3180  139.3310 C   0  0  0  0  0  0  0  0  0  0  0  0
  186.8900  178.2850  139.5330 C   0  0  1  0  0  3  0  0  0  0  0  0
  187.4140  175.4670  136.8410 C   0  0  1  0  0  3  0  0  0  0  0  0
  186.6800  178.6970  138.1830 O   0  0  0  0  0  0  0  0  0  0  0  0
  190.4770  176.8500  139.8430 N   0  0  0  0  0  0  0  0  0  0  0  0
  187.9300  176.7610  137.3040 N   0  0  0  0  0  0  0  0  0  0  0  0
  189.8760  174.4910  137.3310 C   0  0  2  0  0  3  0  0  0  0  0  0
  187.1930  177.9800  137.1020 C   0  0  0  0  0  0  0  0  0  0  0  0
  188.3760  178.4230  139.9360 C   0  0  1  0  0  3  0  0  0  0  0  0
  191.7130  172.8130  134.4870 N   0  0  0  0  0  0  0  0  0  0  0  0
  192.4120  173.9260  136.8920 C   0  0  0  0  0  0  0  0  0  0  0  0
  190.7460  173.3700  135.2590 C   0  0  0  0  0  3  0  0  0  0  0  0
  191.0420  173.9230  136.5060 C   0  0  0  0  0  0  0  0  0  0  0  0
  192.7780  174.4480  137.9780 O   0  0  0  0  0  0  0  0  0  0  0  0
  193.0020  172.7770  134.9080 C   0  0  0  0  0  3  0  0  0  0  0  0
  193.3500  173.3290  136.0990 N   0  0  0  0  0  0  0  0  0  0  0  0
  194.6920  173.2980  136.5240 N   0  0  0  0  0  2  0  0  0  0  0  0
  196.3220  174.3400  134.9690 C   0  0  0  0  0  2  0  0  0  0  0  0
  196.8910  175.2730  136.0320 C   0  0  0  0  0  2  0  0  0  0  0  0
  195.8080  173.0500  135.6070 C   0  0  1  0  0  3  0  0  0  0  0  0
  196.9340  172.3070  136.3350 C   0  0  0  0  0  2  0  0  0  0  0  0
  197.9010  174.5650  136.8870 C   0  0  0  0  0  3  0  0  0  0  0  0
  197.8890  173.2290  137.0610 C   0  0  0  0  0  3  0  0  0  0  0  0
  184.7560  179.0810  139.7330 C   0  0  0  0  0  1  0  0  0  0  0  0
  185.9710  178.8980  140.4090 O   0  0  0  0  0  0  0  0  0  0  0  0
  186.5980  175.5950  135.5540 C   0  0  0  0  0  2  0  0  0  0  0  0
  184.2370  176.2280  136.0610 C   0  0  0  0  0  3  0  0  0  0  0  0
  184.7640  173.8820  135.7590 C   0  0  0  0  0  3  0  0  0  0  0  0
  182.4860  174.5570  136.2830 C   0  0  0  0  0  0  0  0  0  0  0  0
  183.4250  173.5490  136.0090 C   0  0  0  0  0  3  0  0  0  0  0  0
  182.9010  175.8970  136.3090 C   0  0  0  0  0  3  0  0  0  0  0  0
  185.1690  175.2250  135.7880 C   0  0  0  0  0  0  0  0  0  0  0  0
  180.1310  175.2340  136.8250 N   0  0  0  0  0  1  0  0  0  0  0  0
  181.0780  174.2110  136.5340 C   0  0  0  0  0  0  0  0  0  0  0  0
  180.7010  173.0090  136.5210 O   0  0  0  0  0  0  0  0  0  0  0  0
  191.3800  177.6980  140.6210 C   0  0  0  0  0  2  0  0  0  0  0  0
  191.8640  177.0030  141.8830 C   0  0  0  0  0  2  0  0  0  0  0  0
  191.6320  177.8790  143.0940 C   0  0  0  0  0  1  0  0  0  0  0  0
  188.5400  178.5220  141.4600 C   0  0  0  0  0  2  0  0  0  0  0  0
  187.8570  177.3760  142.1750 C   0  0  0  0  0  0  0  0  0  0  0  0
  188.4800  176.2960  142.3630 O   0  0  0  0  0  0  0  0  0  0  0  0
  186.5460  177.4640  142.6630 O   0  0  0  0  0  0  0  0  0  0  0  0
  186.1880  177.5920  143.9980 N   0  0  0  0  0  0  0  0  0  0  0  0
  184.9060  178.0220  144.0740 O   0  0  0  0  0  1  0  0  0  0  0  0
  187.0730  178.5790  144.6200 C   0  0  0  0  0  2  0  0  0  0  0  0
  188.9970  177.4750  145.6130 C   0  0  0  0  0  3  0  0  0  0  0  0
  187.7700  177.9780  145.7960 C   0  0  0  0  0  0  0  0  0  0  0  0
  187.5860  177.9970  148.3000 C   0  0  0  0  0  3  0  0  0  0  0  0
  189.0310  178.1130  148.6070 C   0  0  0  0  0  3  0  0  0  0  0  0
  190.0120  177.6040  147.8630 C   0  0  0  0  0  3  0  0  0  0  0  0
  189.7710  176.7460  146.6680 C   0  0  0  0  0  2  0  0  0  0  0  0
  187.0410  177.9310  147.0820 C   0  0  0  0  0  3  0  0  0  0  0  0
  2  7  2  0  0  0  0
  3  9  1  0  0  0  0
  3  1  1  1  0  0  0
  3 13  1  0  0  0  0
  4 14  2  0  0  0  0
  5  2  1  1  0  0  0
  5  6  1  0  0  0  0
  6 11  1  0  0  0  0
  7 11  1  0  0  0  0
  7 15  1  0  0  0  0
  8 15  1  0  0  0  0
  8 31  1  1  0  0  0
  9 32  1  6  0  0  0
  9 12  1  0  0  0  0
 10  8  1  0  0  0  0
 11 42  1  0  0  0  0
 12  2  1  0  0  0  0
 13 19  1  6  0  0  0
 13  5  1  0  0  0  0
 14 12  1  0  0  0  0
 14 10  1  0  0  0  0
 15 45  1  1  0  0  0
 16 21  2  0  0  0  0
 16 18  1  0  0  0  0
 17 20  2  0  0  0  0
 18 19  2  0  0  0  0
 19 17  1  0  0  0  0
 21 22  1  0  0  0  0
 22 23  1  0  0  0  0
 22 17  1  0  0  0  0
 24 26  1  0  0  0  0
 24 25  1  0  0  0  0
 25 28  1  0  0  0  0
 26 27  1  0  0  0  0
 26 23  1  1  0  0  0
 27 29  1  0  0  0  0
 28 29  2  0  0  0  0
 30 31  1  0  0  0  0
 32 38  1  0  0  0  0
 33 37  1  0  0  0  0
 34 38  1  0  0  0  0
 34 36  2  0  0  0  0
 35 37  2  0  0  0  0
 35 40  1  0  0  0  0
 36 35  1  0  0  0  0
 38 33  2  0  0  0  0
 40 39  1  0  0  0  0
 41 40  2  0  0  0  0
 42 43  1  0  0  0  0
 43 44  1  0  0  0  0
 45 46  1  0  0  0  0
 46 47  2  0  0  0  0
 46 48  1  0  0  0  0
 48 49  1  0  0  0  0
 49 50  1  0  0  0  0
 49 51  1  0  0  0  0
 51 53  1  0  0  0  0
 52 53  2  0  0  0  0
 52 57  1  0  0  0  0
 53 58  1  0  0  0  0
 54 55  1  0  0  0  0
 56 55  2  0  0  0  0
 57 56  1  0  0  0  0
 58 54  2  0  0  0  0
M  END
>  <MODEL>
1

>  <REMARK>
 VINA RESULT:      -8.2      0.000      0.000
  Name = 
  15 active torsions:
  status: ('A' for Active; 'I' for Inactive)
    1  A    between atoms: C_4  and  C_10
    2  A    between atoms: C_8  and  C_36
    3  A    between atoms: C_8  and  O_39
    4  A    between atoms: C_10  and  N_17
    5  A    between atoms: N_17  and  O_39
    6  A    between atoms: C_22  and  C_56
    7  A    between atoms: C_23  and  C_41
    8  A    between atoms: C_23  and  C_52
    9  A    between atoms: C_24  and  C_31
   10  A    between atoms: C_33  and  O_35
   11  A    between atoms: C_34  and  C_37
   12  A    between atoms: C_34  and  N_47
   13  A    between atoms: C_36  and  C_58
   14  A    between atoms: C_40  and  N_48
   15  A    between atoms: N_48  and  N_53
                            x       y       z     vdW  Elec       q    Type
                         _______ _______ _______ _____ _____    ______ ____

>  <TORSDO>
F 15

$$$$
=
 OpenBabel10232409593D

 58 64  0  0  1  0  0  0  0  0999 V2000
  187.0900  178.8710  136.1690 C   0  0  0  0  0  1  0  0  0  0  0  0
  189.6300  176.4590  138.1470 C   0  0  0  0  0  0  0  0  0  0  0  0
  187.2820  177.6360  137.0230 C   0  0  1  0  0  3  0  0  0  0  0  0
  188.7810  173.5850  136.3750 O   0  0  0  0  0  0  0  0  0  0  0  0
  188.8200  177.2130  139.1140 C   0  0  1  0  0  3  0  0  0  0  0  0
  189.7400  178.0080  139.8500 O   0  0  0  0  0  0  0  0  0  0  0  0
  190.8940  176.5390  138.5010 C   0  0  0  0  0  0  0  0  0  0  0  0
  191.8660  175.4450  136.4250 C   0  0  1  0  0  3  0  0  0  0  0  0
  188.1180  176.6150  136.2170 C   0  0  1  0  0  3  0  0  0  0  0  0
  190.9190  174.3950  136.2370 O   0  0  0  0  0  0  0  0  0  0  0  0
  190.9360  177.3860  139.6480 N   0  0  0  0  0  0  0  0  0  0  0  0
  189.0570  175.8160  137.0120 N   0  0  0  0  0  0  0  0  0  0  0  0
  187.7250  178.0770  138.4450 C   0  0  2  0  0  3  0  0  0  0  0  0
  189.5650  174.5570  136.5350 C   0  0  0  0  0  0  0  0  0  0  0  0
  192.0660  175.7560  137.9260 C   0  0  1  0  0  3  0  0  0  0  0  0
  184.2130  178.7020  139.6910 N   0  0  0  0  0  0  0  0  0  0  0  0
  186.6940  178.4790  140.8360 C   0  0  0  0  0  0  0  0  0  0  0  0
  185.2800  178.4330  138.8980 C   0  0  0  0  0  3  0  0  0  0  0  0
  186.5700  178.3400  139.4240 C   0  0  0  0  0  0  0  0  0  0  0  0
  187.8110  178.3600  141.4030 O   0  0  0  0  0  0  0  0  0  0  0  0
  184.3700  178.8890  141.0250 C   0  0  0  0  0  3  0  0  0  0  0  0
  185.5980  178.7780  141.5940 N   0  0  0  0  0  0  0  0  0  0  0  0
  185.7500  178.9630  142.9820 N   0  0  0  0  0  2  0  0  0  0  0  0
  186.4130  177.0510  144.4190 C   0  0  0  0  0  2  0  0  0  0  0  0
  187.5030  177.8380  145.1360 C   0  0  0  0  0  2  0  0  0  0  0  0
  185.2880  177.9810  143.9670 C   0  0  1  0  0  3  0  0  0  0  0  0
  184.6480  178.6960  145.1630 C   0  0  0  0  0  2  0  0  0  0  0  0
  186.9260  178.6840  146.2340 C   0  0  0  0  0  3  0  0  0  0  0  0
  185.6490  179.1110  146.2190 C   0  0  0  0  0  3  0  0  0  0  0  0
  192.9330  175.8030  134.4350 C   0  0  0  0  0  1  0  0  0  0  0  0
  193.0510  175.2070  135.6990 O   0  0  0  0  0  0  0  0  0  0  0  0
  187.1790  175.7450  135.3810 C   0  0  0  0  0  2  0  0  0  0  0  0
  185.5980  174.7840  137.0560 C   0  0  0  0  0  3  0  0  0  0  0  0
  184.7710  176.4680  135.5220 C   0  0  0  0  0  3  0  0  0  0  0  0
  183.2710  175.4750  137.1590 C   0  0  0  0  0  0  0  0  0  0  0  0
  183.4970  176.3670  136.0980 C   0  0  0  0  0  3  0  0  0  0  0  0
  184.3280  174.6830  137.6320 C   0  0  0  0  0  3  0  0  0  0  0  0
  185.8220  175.6720  136.0030 C   0  0  0  0  0  0  0  0  0  0  0  0
  181.3330  176.5240  138.3610 N   0  0  0  0  0  1  0  0  0  0  0  0
  181.9360  175.3760  137.7730 C   0  0  0  0  0  0  0  0  0  0  0  0
  181.3270  174.2730  137.8080 O   0  0  0  0  0  0  0  0  0  0  0  0
  191.8830  177.1840  140.7450 C   0  0  0  0  0  2  0  0  0  0  0  0
  191.2400  177.4310  142.1000 C   0  0  0  0  0  2  0  0  0  0  0  0
  190.5210  176.1900  142.5800 C   0  0  0  0  0  1  0  0  0  0  0  0
  193.4140  176.4470  138.1830 C   0  0  0  0  0  2  0  0  0  0  0  0
  194.4320  175.4940  138.7710 C   0  0  0  0  0  0  0  0  0  0  0  0
  194.9800  175.7660  139.8740 O   0  0  0  0  0  0  0  0  0  0  0  0
  194.7910  174.2930  138.1450 O   0  0  0  0  0  0  0  0  0  0  0  0
  196.0260  174.0170  137.5750 N   0  0  0  0  0  0  0  0  0  0  0  0
  196.6570  175.1830  137.2990 O   0  0  0  0  0  1  0  0  0  0  0  0
  195.8050  173.2750  136.3320 C   0  0  0  0  0  2  0  0  0  0  0  0
  194.1900  171.5110  135.8970 C   0  0  0  0  0  3  0  0  0  0  0  0
  195.2280  171.9300  136.6310 C   0  0  0  0  0  0  0  0  0  0  0  0
  195.8860  169.8310  137.8440 C   0  0  0  0  0  3  0  0  0  0  0  0
  195.3890  168.8570  136.8440 C   0  0  0  0  0  3  0  0  0  0  0  0
  194.3340  169.0480  136.0530 C   0  0  0  0  0  3  0  0  0  0  0  0
  193.4420  170.2390  136.1520 C   0  0  0  0  0  2  0  0  0  0  0  0
  195.8100  171.1620  137.7540 C   0  0  0  0  0  3  0  0  0  0  0  0
  2  7  2  0  0  0  0
  3  1  1  6  0  0  0
  3 13  1  0  0  0  0
  4 14  2  0  0  0  0
  5  2  1  6  0  0  0
  5  6  1  0  0  0  0
  7 11  1  0  0  0  0
  8 31  1  1  0  0  0
  8 15  1  0  0  0  0
  9 32  1  1  0  0  0
  9 12  1  0  0  0  0
  9  3  1  0  0  0  0
 10  8  1  0  0  0  0
 10 14  1  0  0  0  0
 11  6  1  0  0  0  0
 11 42  1  0  0  0  0
 12  2  1  0  0  0  0
 13  5  1  0  0  0  0
 13 19  1  1  0  0  0
 14 12  1  0  0  0  0
 15 45  1  6  0  0  0
 15  7  1  0  0  0  0
 16 21  2  0  0  0  0
 17 20  2  0  0  0  0
 17 22  1  0  0  0  0
 18 19  2  0  0  0  0
 18 16  1  0  0  0  0
 19 17  1  0  0  0  0
 21 22  1  0  0  0  0
 22 23  1  0  0  0  0
 24 25  1  0  0  0  0
 25 28  1  0  0  0  0
 26 23  1  6  0  0  0
 26 24  1  0  0  0  0
 26 27  1  0  0  0  0
 27 29  1  0  0  0  0
 29 28  2  0  0  0  0
 30 31  1  0  0  0  0
 32 38  1  0  0  0  0
 33 37  1  0  0  0  0
 34 38  1  0  0  0  0
 34 36  2  0  0  0  0
 35 37  2  0  0  0  0
 35 40  1  0  0  0  0
 36 35  1  0  0  0  0
 38 33  2  0  0  0  0
 40 41  2  0  0  0  0
 40 39  1  0  0  0  0
 42 43  1  0  0  0  0
 43 44  1  0  0  0  0
 45 46  1  0  0  0  0
 46 47  2  0  0  0  0
 48 46  1  0  0  0  0
 49 48  1  0  0  0  0
 50 49  1  0  0  0  0
 51 53  1  0  0  0  0
 51 49  1  0  0  0  0
 52 57  1  0  0  0  0
 52 53  2  0  0  0  0
 53 58  1  0  0  0  0
 55 54  1  0  0  0  0
 56 57  1  0  0  0  0
 56 55  2  0  0  0  0
 58 54  2  0  0  0  0
M  END
>  <MODEL>
2

>  <REMARK>
 VINA RESULT:      -7.7      2.138      9.104
  Name = 
  15 active torsions:
  status: ('A' for Active; 'I' for Inactive)
    1  A    between atoms: C_4  and  C_10
    2  A    between atoms: C_8  and  C_36
    3  A    between atoms: C_8  and  O_39
    4  A    between atoms: C_10  and  N_17
    5  A    between atoms: N_17  and  O_39
    6  A    between atoms: C_22  and  C_56
    7  A    between atoms: C_23  and  C_41
    8  A    between atoms: C_23  and  C_52
    9  A    between atoms: C_24  and  C_31
   10  A    between atoms: C_33  and  O_35
   11  A    between atoms: C_34  and  C_37
   12  A    between atoms: C_34  and  N_47
   13  A    between atoms: C_36  and  C_58
   14  A    between atoms: C_40  and  N_48
   15  A    between atoms: N_48  and  N_53
                            x       y       z     vdW  Elec       q    Type
                         _______ _______ _______ _____ _____    ______ ____

>  <TORSDO>
F 15

$$$$
=
 OpenBabel10232409593D

 58 64  0  0  1  0  0  0  0  0999 V2000
  187.8190  173.1930  137.1530 C   0  0  0  0  0  1  0  0  0  0  0  0
  189.0000  176.8250  138.4160 C   0  0  0  0  0  0  0  0  0  0  0  0
  188.3740  174.5550  136.7970 C   0  0  1  0  0  3  0  0  0  0  0  0
  186.7550  178.5950  136.4280 O   0  0  0  0  0  0  0  0  0  0  0  0
  190.1760  176.0460  138.0020 C   0  0  1  0  0  3  0  0  0  0  0  0
  190.9700  175.8980  139.1710 O   0  0  0  0  0  0  0  0  0  0  0  0
  189.2400  177.3610  139.5920 C   0  0  0  0  0  0  0  0  0  0  0  0
  186.8990  178.2520  140.0110 C   0  0  1  0  0  3  0  0  0  0  0  0
  187.2970  175.6160  137.1210 C   0  0  1  0  0  3  0  0  0  0  0  0
  186.5870  178.7390  138.7070 O   0  0  0  0  0  0  0  0  0  0  0  0
  190.5300  176.8950  139.9880 N   0  0  0  0  0  0  0  0  0  0  0  0
  187.8150  176.8930  137.6270 N   0  0  0  0  0  0  0  0  0  0  0  0
  189.8080  174.6770  137.3820 C   0  0  2  0  0  3  0  0  0  0  0  0
  187.0390  178.1030  137.5510 C   0  0  0  0  0  0  0  0  0  0  0  0
  188.4060  178.4050  140.3200 C   0  0  1  0  0  3  0  0  0  0  0  0
  191.8460  172.3490  135.2130 N   0  0  0  0  0  0  0  0  0  0  0  0
  192.0090  174.9790  135.9650 C   0  0  0  0  0  0  0  0  0  0  0  0
  190.8760  172.8660  136.0090 C   0  0  0  0  0  3  0  0  0  0  0  0
  190.9260  174.1900  136.4460 C   0  0  0  0  0  0  0  0  0  0  0  0
  192.1080  176.1970  136.2670 O   0  0  0  0  0  0  0  0  0  0  0  0
  192.8980  173.1090  134.8190 C   0  0  0  0  0  3  0  0  0  0  0  0
  192.9790  174.4120  135.1900 N   0  0  0  0  0  0  0  0  0  0  0  0
  194.0700  175.1980  134.7670 N   0  0  0  0  0  2  0  0  0  0  0  0
  195.7740  174.6250  136.4780 C   0  0  0  0  0  2  0  0  0  0  0  0
  196.5620  173.7230  135.5350 C   0  0  0  0  0  2  0  0  0  0  0  0
  195.0690  175.7330  135.6960 C   0  0  1  0  0  3  0  0  0  0  0  0
  196.0780  176.6040  134.9400 C   0  0  0  0  0  2  0  0  0  0  0  0
  197.4720  174.5270  134.6520 C   0  0  0  0  0  3  0  0  0  0  0  0
  197.2250  175.8150  134.3460 C   0  0  0  0  0  3  0  0  0  0  0  0
  184.7880  179.0460  140.3870 C   0  0  0  0  0  1  0  0  0  0  0  0
  186.0300  178.7870  140.9850 O   0  0  0  0  0  0  0  0  0  0  0  0
  186.3910  175.8000  135.9030 C   0  0  0  0  0  2  0  0  0  0  0  0
  184.0060  176.5140  135.7160 C   0  0  0  0  0  3  0  0  0  0  0  0
  184.5500  174.6850  137.2110 C   0  0  0  0  0  3  0  0  0  0  0  0
  182.2480  175.4440  137.0070 C   0  0  0  0  0  0  0  0  0  0  0  0
  183.2010  174.5820  137.5760 C   0  0  0  0  0  3  0  0  0  0  0  0
  182.6600  176.4110  136.0770 C   0  0  0  0  0  3  0  0  0  0  0  0
  184.9520  175.6560  136.2800 C   0  0  0  0  0  0  0  0  0  0  0  0
  180.3470  175.9600  138.5630 N   0  0  0  0  0  1  0  0  0  0  0  0
  180.8280  175.3290  137.3800 C   0  0  0  0  0  0  0  0  0  0  0  0
  180.0330  174.6540  136.6750 O   0  0  0  0  0  0  0  0  0  0  0  0
  191.4660  177.7180  140.7550 C   0  0  0  0  0  2  0  0  0  0  0  0
  192.8200  177.0450  140.9060 C   0  0  0  0  0  2  0  0  0  0  0  0
  193.6840  177.3140  139.6950 C   0  0  0  0  0  1  0  0  0  0  0  0
  188.6730  178.4160  141.8340 C   0  0  0  0  0  2  0  0  0  0  0  0
  188.1150  177.1840  142.5130 C   0  0  0  0  0  0  0  0  0  0  0  0
  188.6020  176.0510  142.2500 O   0  0  0  0  0  0  0  0  0  0  0  0
  187.0740  177.2430  143.4490 O   0  0  0  0  0  0  0  0  0  0  0  0
  187.2110  177.0760  144.8200 N   0  0  0  0  0  0  0  0  0  0  0  0
  185.9820  176.9780  145.3800 O   0  0  0  0  0  1  0  0  0  0  0  0
  187.9030  178.2490  145.3610 C   0  0  0  0  0  2  0  0  0  0  0  0
  189.3840  177.3810  147.0810 C   0  0  0  0  0  3  0  0  0  0  0  0
  189.2650  177.8670  145.8400 C   0  0  0  0  0  0  0  0  0  0  0  0
  191.5270  177.3680  144.8680 C   0  0  0  0  0  3  0  0  0  0  0  0
  191.8540  176.1960  145.7130 C   0  0  0  0  0  3  0  0  0  0  0  0
  191.4490  176.0250  146.9710 C   0  0  0  0  0  3  0  0  0  0  0  0
  190.6930  177.0600  147.7340 C   0  0  0  0  0  2  0  0  0  0  0  0
  190.4070  178.0960  144.9280 C   0  0  0  0  0  3  0  0  0  0  0  0
  2  7  2  0  0  0  0
  3  9  1  0  0  0  0
  3  1  1  1  0  0  0
  3 13  1  0  0  0  0
  4 14  2  0  0  0  0
  5  2  1  1  0  0  0
  5  6  1  0  0  0  0
  6 11  1  0  0  0  0
  7 11  1  0  0  0  0
  7 15  1  0  0  0  0
  8 15  1  0  0  0  0
  8 31  1  1  0  0  0
  9 32  1  6  0  0  0
  9 12  1  0  0  0  0
 10  8  1  0  0  0  0
 11 42  1  0  0  0  0
 12  2  1  0  0  0  0
 13 19  1  6  0  0  0
 13  5  1  0  0  0  0
 14 12  1  0  0  0  0
 14 10  1  0  0  0  0
 15 45  1  1  0  0  0
 16 18  1  0  0  0  0
 17 20  2  0  0  0  0
 17 19  1  0  0  0  0
 18 19  2  0  0  0  0
 21 22  1  0  0  0  0
 21 16  2  0  0  0  0
 22 17  1  0  0  0  0
 23 22  1  0  0  0  0
 25 24  1  0  0  0  0
 26 23  1  6  0  0  0
 26 24  1  0  0  0  0
 27 26  1  0  0  0  0
 28 25  1  0  0  0  0
 29 28  2  0  0  0  0
 29 27  1  0  0  0  0
 30 31  1  0  0  0  0
 32 38  1  0  0  0  0
 33 37  2  0  0  0  0
 33 38  1  0  0  0  0
 34 36  1  0  0  0  0
 35 40  1  0  0  0  0
 35 36  2  0  0  0  0
 37 35  1  0  0  0  0
 38 34  2  0  0  0  0
 40 39  1  0  0  0  0
 41 40  2  0  0  0  0
 42 43  1  0  0  0  0
 44 43  1  0  0  0  0
 45 46  1  0  0  0  0
 46 48  1  0  0  0  0
 47 46  2  0  0  0  0
 48 49  1  0  0  0  0
 49 51  1  0  0  0  0
 49 50  1  0  0  0  0
 51 53  1  0  0  0  0
 52 57  1  0  0  0  0
 53 52  2  0  0  0  0
 54 58  2  0  0  0  0
 54 55  1  0  0  0  0
 55 56  2  0  0  0  0
 56 57  1  0  0  0  0
 58 53  1  0  0  0  0
M  END
>  <MODEL>
3

>  <REMARK>
 VINA RESULT:      -7.6      1.207      1.841
  Name = 
  15 active torsions:
  status: ('A' for Active; 'I' for Inactive)
    1  A    between atoms: C_4  and  C_10
    2  A    between atoms: C_8  and  C_36
    3  A    between atoms: C_8  and  O_39
    4  A    between atoms: C_10  and  N_17
    5  A    between atoms: N_17  and  O_39
    6  A    between atoms: C_22  and  C_56
    7  A    between atoms: C_23  and  C_41
    8  A    between atoms: C_23  and  C_52
    9  A    between atoms: C_24  and  C_31
   10  A    between atoms: C_33  and  O_35
   11  A    between atoms: C_34  and  C_37
   12  A    between atoms: C_34  and  N_47
   13  A    between atoms: C_36  and  C_58
   14  A    between atoms: C_40  and  N_48
   15  A    between atoms: N_48  and  N_53
                            x       y       z     vdW  Elec       q    Type
                         _______ _______ _______ _____ _____    ______ ____

>  <TORSDO>
F 15

$$$$
=
 OpenBabel10232409593D

 58 64  0  0  1  0  0  0  0  0999 V2000
  186.8580  178.6750  135.9110 C   0  0  0  0  0  1  0  0  0  0  0  0
  189.4120  176.3690  137.9940 C   0  0  0  0  0  0  0  0  0  0  0  0
  187.0550  177.4920  136.8350 C   0  0  1  0  0  3  0  0  0  0  0  0
  188.5210  173.4000  136.4100 O   0  0  0  0  0  0  0  0  0  0  0  0
  188.6200  177.1860  138.9260 C   0  0  1  0  0  3  0  0  0  0  0  0
  189.5560  178.0170  139.5990 O   0  0  0  0  0  0  0  0  0  0  0  0
  190.6820  176.4620  138.3250 C   0  0  0  0  0  0  0  0  0  0  0  0
  191.6170  175.2390  136.3050 C   0  0  1  0  0  3  0  0  0  0  0  0
  187.8740  176.4200  136.0800 C   0  0  1  0  0  3  0  0  0  0  0  0
  190.6610  174.1860  136.1930 O   0  0  0  0  0  0  0  0  0  0  0  0
  190.7450  177.3760  139.4180 N   0  0  0  0  0  0  0  0  0  0  0  0
  188.8200  175.6630  136.9080 N   0  0  0  0  0  0  0  0  0  0  0  0
  187.5210  178.0150  138.2210 C   0  0  2  0  0  3  0  0  0  0  0  0
  189.3130  174.3740  136.5000 C   0  0  0  0  0  0  0  0  0  0  0  0
  191.8410  175.6390  137.7810 C   0  0  1  0  0  3  0  0  0  0  0  0
  184.0510  178.8460  139.4630 N   0  0  0  0  0  0  0  0  0  0  0  0
  186.5110  178.4720  140.6110 C   0  0  0  0  0  0  0  0  0  0  0  0
  185.1010  178.5160  138.6710 C   0  0  0  0  0  3  0  0  0  0  0  0
  186.3820  178.3440  139.1990 C   0  0  2  0  0  3  0  0  0  0  0  0
  187.6180  178.2840  141.1800 O   0  0  0  0  0  0  0  0  0  0  0  0
  184.2150  179.0200  140.7980 C   0  0  0  0  0  2  0  0  0  0  0  0
  185.4330  178.8330  141.3680 N   0  0  0  0  0  0  0  0  0  0  0  0
  185.5940  179.0050  142.7570 N   0  0  0  0  0  2  0  0  0  0  0  0
  186.3140  177.0490  144.1040 C   0  0  0  0  0  2  0  0  0  0  0  0
  187.4400  177.8110  144.7920 C   0  0  0  0  0  2  0  0  0  0  0  0
  185.1730  177.9960  143.7340 C   0  0  1  0  0  3  0  0  0  0  0  0
  184.5930  178.6780  144.9780 C   0  0  0  0  0  2  0  0  0  0  0  0
  186.9200  178.6260  145.9400 C   0  0  0  0  0  3  0  0  0  0  0  0
  185.6450  179.0570  145.9990 C   0  0  0  0  0  3  0  0  0  0  0  0
  192.9940  175.9640  134.6300 C   0  0  0  0  0  1  0  0  0  0  0  0
  192.7910  174.9500  135.5780 O   0  0  0  0  0  0  0  0  0  0  0  0
  186.9170  175.5070  135.3100 C   0  0  0  0  0  2  0  0  0  0  0  0
  184.5160  176.1850  135.3790 C   0  0  0  0  0  3  0  0  0  0  0  0
  185.3660  174.7660  137.1500 C   0  0  0  0  0  3  0  0  0  0  0  0
  183.0410  175.4820  137.1780 C   0  0  0  0  0  0  0  0  0  0  0  0
  184.1040  174.7710  137.7610 C   0  0  0  0  0  3  0  0  0  0  0  0
  183.2560  176.1890  135.9860 C   0  0  0  0  0  3  0  0  0  0  0  0
  185.5710  175.4770  135.9580 C   0  0  0  0  0  0  0  0  0  0  0  0
  181.5560  175.9450  139.1470 N   0  0  0  0  0  1  0  0  0  0  0  0
  181.7120  175.4790  137.8110 C   0  0  0  0  0  0  0  0  0  0  0  0
  180.7070  175.0410  137.1890 O   0  0  0  0  0  0  0  0  0  0  0  0
  191.7060  177.2340  140.5120 C   0  0  0  0  0  2  0  0  0  0  0  0
  191.0710  177.5130  141.8640 C   0  0  0  0  0  2  0  0  0  0  0  0
  190.7630  176.2170  142.5830 C   0  0  0  0  0  1  0  0  0  0  0  0
  193.1960  176.3350  137.9780 C   0  0  0  0  0  2  0  0  0  0  0  0
  194.2200  175.4080  138.5970 C   0  0  0  0  0  0  0  0  0  0  0  0
  194.8350  175.7620  139.6400 O   0  0  0  0  0  0  0  0  0  0  0  0
  194.5130  174.1450  138.0670 O   0  0  0  0  0  0  0  0  0  0  0  0
  195.5380  173.8610  137.1740 N   0  0  0  0  0  0  0  0  0  0  0  0
  195.6490  172.5180  137.0380 O   0  0  0  0  0  1  0  0  0  0  0  0
  196.7850  174.4020  137.7180 C   0  0  0  0  0  2  0  0  0  0  0  0
  198.9720  173.4060  137.3550 C   0  0  0  0  0  3  0  0  0  0  0  0
  197.9300  174.0560  136.8230 C   0  0  0  0  0  0  0  0  0  0  0  0
  198.4010  173.8670  134.3630 C   0  0  0  0  0  3  0  0  0  0  0  0
  199.1880  172.6130  134.4050 C   0  0  0  0  0  3  0  0  0  0  0  0
  199.9660  172.2330  135.4180 C   0  0  0  0  0  3  0  0  0  0  0  0
  200.2320  173.0900  136.6090 C   0  0  0  0  0  2  0  0  0  0  0  0
  197.8620  174.4960  135.4120 C   0  0  0  0  0  3  0  0  0  0  0  0
  2  7  2  0  0  0  0
  3  1  1  6  0  0  0
  3 13  1  0  0  0  0
  4 14  2  0  0  0  0
  5  2  1  6  0  0  0
  5  6  1  0  0  0  0
  7 11  1  0  0  0  0
  8 31  1  1  0  0  0
  8 15  1  0  0  0  0
  9 32  1  1  0  0  0
  9  3  1  0  0  0  0
  9 12  1  0  0  0  0
 10  8  1  0  0  0  0
 10 14  1  0  0  0  0
 11  6  1  0  0  0  0
 11 42  1  0  0  0  0
 12  2  1  0  0  0  0
 13  5  1  0  0  0  0
 13 19  1  1  0  0  0
 14 12  1  0  0  0  0
 15 45  1  6  0  0  0
 15  7  1  0  0  0  0
 16 21  1  0  0  0  0
 17 20  2  0  0  0  0
 17 22  1  0  0  0  0
 18 16  2  0  0  0  0
 19 18  1  1  0  0  0
 19 17  1  0  0  0  0
 21 22  1  0  0  0  0
 22 23  1  0  0  0  0
 24 25  1  0  0  0  0
 25 28  1  0  0  0  0
 26 23  1  6  0  0  0
 26 24  1  0  0  0  0
 26 27  1  0  0  0  0
 27 29  1  0  0  0  0
 28 29  2  0  0  0  0
 30 31  1  0  0  0  0
 32 38  1  0  0  0  0
 33 38  2  0  0  0  0
 33 37  1  0  0  0  0
 34 36  2  0  0  0  0
 35 36  1  0  0  0  0
 35 40  1  0  0  0  0
 37 35  2  0  0  0  0
 38 34  1  0  0  0  0
 40 39  1  0  0  0  0
 41 40  2  0  0  0  0
 42 43  1  0  0  0  0
 43 44  1  0  0  0  0
 45 46  1  0  0  0  0
 46 47  2  0  0  0  0
 48 46  1  0  0  0  0
 49 51  1  0  0  0  0
 49 48  1  0  0  0  0
 50 49  1  0  0  0  0
 53 52  2  0  0  0  0
 53 51  1  0  0  0  0
 54 55  1  0  0  0  0
 54 58  2  0  0  0  0
 55 56  2  0  0  0  0
 56 57  1  0  0  0  0
 57 52  1  0  0  0  0
 58 53  1  0  0  0  0
M  END
>  <MODEL>
4

>  <REMARK>
 VINA RESULT:      -7.1      2.062      9.398
  Name = 
  15 active torsions:
  status: ('A' for Active; 'I' for Inactive)
    1  A    between atoms: C_4  and  C_10
    2  A    between atoms: C_8  and  C_36
    3  A    between atoms: C_8  and  O_39
    4  A    between atoms: C_10  and  N_17
    5  A    between atoms: N_17  and  O_39
    6  A    between atoms: C_22  and  C_56
    7  A    between atoms: C_23  and  C_41
    8  A    between atoms: C_23  and  C_52
    9  A    between atoms: C_24  and  C_31
   10  A    between atoms: C_33  and  O_35
   11  A    between atoms: C_34  and  C_37
   12  A    between atoms: C_34  and  N_47
   13  A    between atoms: C_36  and  C_58
   14  A    between atoms: C_40  and  N_48
   15  A    between atoms: N_48  and  N_53
                            x       y       z     vdW  Elec       q    Type
                         _______ _______ _______ _____ _____    ______ ____

>  <TORSDO>
F 15

$$$$
=
 OpenBabel10232409593D

 58 64  0  0  1  0  0  0  0  0999 V2000
  189.3520  175.5790  142.6810 C   0  0  0  0  0  1  0  0  0  0  0  0
  190.4650  177.0610  139.1110 C   0  0  0  0  0  0  0  0  0  0  0  0
  189.6800  176.7970  141.8450 C   0  0  1  0  0  3  0  0  0  0  0  0
  193.3250  178.6470  140.3060 O   0  0  0  0  0  0  0  0  0  0  0  0
  189.0560  177.3980  139.3620 C   0  0  1  0  0  3  0  0  0  0  0  0
  188.3180  176.7490  138.3360 O   0  0  0  0  0  0  0  0  0  0  0  0
  190.5720  176.5660  137.8970 C   0  0  0  0  0  0  0  0  0  0  0  0
  192.9990  175.8390  138.0720 C   0  0  1  0  0  3  0  0  0  0  0  0
  191.1700  176.7190  141.4390 C   0  0  1  0  0  3  0  0  0  0  0  0
  193.5390  176.9580  138.7740 O   0  0  0  0  0  0  0  0  0  0  0  0
  189.2480  176.5120  137.3690 N   0  0  0  0  0  0  0  0  0  0  0  0
  191.4770  177.2330  140.0990 N   0  0  0  0  0  0  0  0  0  0  0  0
  188.5740  176.9770  140.7700 C   0  0  2  0  0  3  0  0  0  0  0  0
  192.8070  177.6490  139.7390 C   0  0  0  0  0  0  0  0  0  0  0  0
  191.8520  176.2690  137.1300 C   0  0  1  0  0  3  0  0  0  0  0  0
  186.1490  178.7580  143.0550 N   0  0  0  0  0  0  0  0  0  0  0  0
  186.4480  178.4750  140.3460 C   0  0  0  0  0  0  0  0  0  0  0  0
  187.1990  178.0420  142.5820 C   0  0  0  0  0  3  0  0  0  0  0  0
  187.3820  177.8400  141.2130 C   0  0  2  0  0  3  0  0  0  0  0  0
  186.5640  178.3890  139.0950 O   0  0  0  0  0  0  0  0  0  0  0  0
  185.2410  179.3020  142.2070 C   0  0  0  0  0  2  0  0  0  0  0  0
  185.3890  179.1630  140.8640 N   0  0  0  0  0  0  0  0  0  0  0  0
  184.4480  179.7400  139.9890 N   0  0  0  0  0  2  0  0  0  0  0  0
  182.5430  179.2800  138.4650 C   0  0  0  0  0  2  0  0  0  0  0  0
  183.3340  178.2930  137.6140 C   0  0  0  0  0  2  0  0  0  0  0  0
  183.0590  179.2790  139.9040 C   0  0  1  0  0  3  0  0  0  0  0  0
  182.9240  177.8910  140.5400 C   0  0  0  0  0  2  0  0  0  0  0  0
  183.3720  176.9360  138.2530 C   0  0  0  0  0  3  0  0  0  0  0  0
  183.2340  176.7610  139.5810 C   0  0  0  0  0  3  0  0  0  0  0  0
  194.7350  174.4060  138.4710 C   0  0  0  0  0  1  0  0  0  0  0  0
  194.0150  175.0700  137.4680 O   0  0  0  0  0  0  0  0  0  0  0  0
  192.0210  177.3810  142.5240 C   0  0  0  0  0  2  0  0  0  0  0  0
  190.3580  178.3760  144.0960 C   0  0  0  0  0  3  0  0  0  0  0  0
  191.5980  176.4210  144.8130 C   0  0  0  0  0  3  0  0  0  0  0  0
  189.9830  177.4520  146.3120 C   0  0  0  0  0  0  0  0  0  0  0  0
  190.9390  176.4570  146.0500 C   0  0  0  0  0  3  0  0  0  0  0  0
  189.6990  178.4120  145.3290 C   0  0  0  0  0  3  0  0  0  0  0  0
  191.3070  177.3860  143.8360 C   0  0  0  0  0  0  0  0  0  0  0  0
  189.6690  178.4220  148.6050 N   0  0  0  0  0  1  0  0  0  0  0  0
  189.2820  177.4840  147.6060 C   0  0  0  0  0  0  0  0  0  0  0  0
  188.3540  176.6690  147.8520 O   0  0  0  0  0  0  0  0  0  0  0  0
  188.9510  176.7460  135.9550 C   0  0  0  0  0  2  0  0  0  0  0  0
  188.1640  178.0290  135.7460 C   0  0  0  0  0  2  0  0  0  0  0  0
  186.7180  177.7180  135.4260 C   0  0  0  0  0  1  0  0  0  0  0  0
  191.6360  175.2480  136.0020 C   0  0  0  0  0  2  0  0  0  0  0  0
  190.8900  174.0240  136.4880 C   0  0  0  0  0  0  0  0  0  0  0  0
  190.9970  173.6610  137.6910 O   0  0  0  0  0  0  0  0  0  0  0  0
  190.0550  173.2680  135.6530 O   0  0  0  0  0  0  0  0  0  0  0  0
  188.7390  172.9210  135.9280 N   0  0  0  0  0  0  0  0  0  0  0  0
  188.6050  171.5770  135.8250 O   0  0  0  0  0  1  0  0  0  0  0  0
  187.8750  173.5760  134.9440 C   0  0  0  0  0  2  0  0  0  0  0  0
  185.5770  174.3460  134.7610 C   0  0  0  0  0  3  0  0  0  0  0  0
  186.5610  173.9250  135.5630 C   0  0  0  0  0  0  0  0  0  0  0  0
  185.3380  173.5270  137.7210 C   0  0  0  0  0  3  0  0  0  0  0  0
  184.0020  173.2440  137.1440 C   0  0  0  0  0  3  0  0  0  0  0  0
  183.5270  173.7800  136.0210 C   0  0  0  0  0  3  0  0  0  0  0  0
  184.2470  174.8320  135.2490 C   0  0  0  0  0  2  0  0  0  0  0  0
  186.4450  173.8280  137.0350 C   0  0  0  0  0  3  0  0  0  0  0  0
  2  5  1  0  0  0  0
  2 12  1  0  0  0  0
  3  1  1  6  0  0  0
  5  6  1  6  0  0  0
  5 13  1  0  0  0  0
  7  2  2  0  0  0  0
  8 31  1  6  0  0  0
  8 10  1  0  0  0  0
  9  3  1  0  0  0  0
  9 32  1  1  0  0  0
 10 14  1  0  0  0  0
 11  7  1  0  0  0  0
 11  6  1  0  0  0  0
 12  9  1  0  0  0  0
 13 19  1  1  0  0  0
 13  3  1  0  0  0  0
 14 12  1  0  0  0  0
 14  4  2  0  0  0  0
 15 45  1  6  0  0  0
 15  7  1  0  0  0  0
 15  8  1  0  0  0  0
 17 22  1  0  0  0  0
 17 19  1  0  0  0  0
 18 16  2  0  0  0  0
 19 18  1  6  0  0  0
 20 17  2  0  0  0  0
 21 16  1  0  0  0  0
 22 21  1  0  0  0  0
 23 22  1  0  0  0  0
 24 26  1  0  0  0  0
 25 28  1  0  0  0  0
 25 24  1  0  0  0  0
 26 23  1  6  0  0  0
 26 27  1  0  0  0  0
 28 29  2  0  0  0  0
 29 27  1  0  0  0  0
 31 30  1  0  0  0  0
 32 38  1  0  0  0  0
 33 37  1  0  0  0  0
 34 36  2  0  0  0  0
 35 40  1  0  0  0  0
 36 35  1  0  0  0  0
 37 35  2  0  0  0  0
 38 33  2  0  0  0  0
 38 34  1  0  0  0  0
 40 41  2  0  0  0  0
 40 39  1  0  0  0  0
 42 11  1  0  0  0  0
 43 42  1  0  0  0  0
 44 43  1  0  0  0  0
 45 46  1  0  0  0  0
 46 47  2  0  0  0  0
 48 49  1  0  0  0  0
 48 46  1  0  0  0  0
 50 49  1  0  0  0  0
 51 53  1  0  0  0  0
 51 49  1  0  0  0  0
 52 57  1  0  0  0  0
 52 53  2  0  0  0  0
 53 58  1  0  0  0  0
 55 54  1  0  0  0  0
 56 55  2  0  0  0  0
 57 56  1  0  0  0  0
 58 54  2  0  0  0  0
M  END
>  <MODEL>
5

>  <REMARK>
 VINA RESULT:      -7.0      2.719     10.254
  Name = 
  15 active torsions:
  status: ('A' for Active; 'I' for Inactive)
    1  A    between atoms: C_4  and  C_10
    2  A    between atoms: C_8  and  C_36
    3  A    between atoms: C_8  and  O_39
    4  A    between atoms: C_10  and  N_17
    5  A    between atoms: N_17  and  O_39
    6  A    between atoms: C_22  and  C_56
    7  A    between atoms: C_23  and  C_41
    8  A    between atoms: C_23  and  C_52
    9  A    between atoms: C_24  and  C_31
   10  A    between atoms: C_33  and  O_35
   11  A    between atoms: C_34  and  C_37
   12  A    between atoms: C_34  and  N_47
   13  A    between atoms: C_36  and  C_58
   14  A    between atoms: C_40  and  N_48
   15  A    between atoms: N_48  and  N_53
                            x       y       z     vdW  Elec       q    Type
                         _______ _______ _______ _____ _____    ______ ____

>  <TORSDO>
F 15

$$$$
=
 OpenBabel10232409593D

 58 64  0  0  1  0  0  0  0  0999 V2000
  189.0930  173.7180  136.8090 C   0  0  0  0  0  1  0  0  0  0  0  0
  188.8580  177.2420  138.7330 C   0  0  0  0  0  0  0  0  0  0  0  0
  189.3990  175.2010  136.8100 C   0  0  1  0  0  3  0  0  0  0  0  0
  187.1080  178.8680  136.2000 O   0  0  0  0  0  0  0  0  0  0  0  0
  190.2530  176.7780  138.7330 C   0  0  1  0  0  3  0  0  0  0  0  0
  190.5940  176.5880  140.0990 O   0  0  0  0  0  0  0  0  0  0  0  0
  188.5340  177.6090  139.9540 C   0  0  0  0  0  0  0  0  0  0  0  0
  186.0560  177.9620  139.5250 C   0  0  1  0  0  3  0  0  0  0  0  0
  188.0580  175.9710  136.7890 C   0  0  1  0  0  3  0  0  0  0  0  0
  186.1180  178.5940  138.2470 O   0  0  0  0  0  0  0  0  0  0  0  0
  189.6720  177.3340  140.7700 N   0  0  0  0  0  0  0  0  0  0  0  0
  188.0470  177.2180  137.5620 N   0  0  0  0  0  0  0  0  0  0  0  0
  190.4620  175.4890  137.9050 C   0  0  2  0  0  3  0  0  0  0  0  0
  187.0850  178.2570  137.3010 C   0  0  0  0  0  0  0  0  0  0  0  0
  187.2750  178.3400  140.3960 C   0  0  1  0  0  3  0  0  0  0  0  0
  194.0140  176.5170  137.1260 N   0  0  0  0  0  0  0  0  0  0  0  0
  192.5330  174.2240  136.8770 C   0  0  0  0  0  0  0  0  0  0  0  0
  192.7280  176.5150  137.5590 C   0  0  0  0  0  3  0  0  0  0  0  0
  191.9190  175.3850  137.4280 C   0  0  0  0  0  0  0  0  0  0  0  0
  191.8940  173.1450  136.7670 O   0  0  0  0  0  0  0  0  0  0  0  0
  194.5530  175.4130  136.5500 C   0  0  0  0  0  3  0  0  0  0  0  0
  193.8210  174.2770  136.4270 N   0  0  0  0  0  0  0  0  0  0  0  0
  194.3920  173.1320  135.8380 N   0  0  0  0  0  2  0  0  0  0  0  0
  195.0980  170.7590  135.6620 C   0  0  0  0  0  2  0  0  0  0  0  0
  196.4810  171.1060  135.1230 C   0  0  0  0  0  2  0  0  0  0  0  0
  194.5800  171.8750  136.5680 C   0  0  1  0  0  3  0  0  0  0  0  0
  195.5130  172.0950  137.7640 C   0  0  0  0  0  2  0  0  0  0  0  0
  197.4170  171.4800  136.2350 C   0  0  0  0  0  3  0  0  0  0  0  0
  196.9800  171.9720  137.4100 C   0  0  0  0  0  3  0  0  0  0  0  0
  183.7950  177.8320  139.2110 C   0  0  0  0  0  1  0  0  0  0  0  0
  184.7990  178.1540  140.1360 O   0  0  0  0  0  0  0  0  0  0  0  0
  187.6240  176.1840  135.3380 C   0  0  0  0  0  2  0  0  0  0  0  0
  185.1690  176.4380  134.9640 C   0  0  0  0  0  3  0  0  0  0  0  0
  186.1040  174.2030  135.0140 C   0  0  0  0  0  3  0  0  0  0  0  0
  183.7140  174.5130  134.6810 C   0  0  0  0  0  0  0  0  0  0  0  0
  184.8250  173.6640  134.8120 C   0  0  0  0  0  3  0  0  0  0  0  0
  183.8940  175.9020  134.7610 C   0  0  0  0  0  3  0  0  0  0  0  0
  186.2730  175.5940  135.0920 C   0  0  0  0  0  0  0  0  0  0  0  0
  181.2450  174.8130  134.3470 N   0  0  0  0  0  1  0  0  0  0  0  0
  182.3720  173.9500  134.4570 C   0  0  0  0  0  0  0  0  0  0  0  0
  182.2040  172.7040  134.3870 O   0  0  0  0  0  0  0  0  0  0  0  0
  190.0540  178.1770  141.9030 C   0  0  0  0  0  2  0  0  0  0  0  0
  191.5010  177.9550  142.3120 C   0  0  0  0  0  2  0  0  0  0  0  0
  191.5720  177.2280  143.6370 C   0  0  0  0  0  1  0  0  0  0  0  0
  186.9800  178.1470  141.8920 C   0  0  0  0  0  2  0  0  0  0  0  0
  186.0110  179.1860  142.4130 C   0  0  0  0  0  0  0  0  0  0  0  0
  185.3760  179.9130  141.6010 O   0  0  0  0  0  0  0  0  0  0  0  0
  185.7670  179.3720  143.7810 O   0  0  0  0  0  0  0  0  0  0  0  0
  185.2200  178.4280  144.6390 N   0  0  0  0  0  0  0  0  0  0  0  0
  183.8750  178.4090  144.4790 O   0  0  0  0  0  1  0  0  0  0  0  0
  185.5430  178.8140  146.0150 C   0  0  0  0  0  2  0  0  0  0  0  0
  187.6760  177.7420  145.5570 C   0  0  0  0  0  3  0  0  0  0  0  0
  186.7700  178.0980  146.4760 C   0  0  0  0  0  0  0  0  0  0  0  0
  188.0200  177.7010  148.6180 C   0  0  0  0  0  3  0  0  0  0  0  0
  189.3900  177.8960  148.0900 C   0  0  0  0  0  3  0  0  0  0  0  0
  189.7790  177.6020  146.8500 C   0  0  0  0  0  3  0  0  0  0  0  0
  188.8960  176.9270  145.8550 C   0  0  0  0  0  2  0  0  0  0  0  0
  186.8850  177.7820  147.9170 C   0  0  0  0  0  3  0  0  0  0  0  0
  2  7  2  0  0  0  0
  3  1  1  1  0  0  0
  3 13  1  0  0  0  0
  4 14  2  0  0  0  0
  5  2  1  1  0  0  0
  5  6  1  0  0  0  0
  6 11  1  0  0  0  0
  7 15  1  0  0  0  0
  7 11  1  0  0  0  0
  8 31  1  1  0  0  0
  8 15  1  0  0  0  0
  9 32  1  6  0  0  0
  9  3  1  0  0  0  0
  9 12  1  0  0  0  0
 10  8  1  0  0  0  0
 11 42  1  0  0  0  0
 12  2  1  0  0  0  0
 13 19  1  6  0  0  0
 13  5  1  0  0  0  0
 14 12  1  0  0  0  0
 14 10  1  0  0  0  0
 15 45  1  1  0  0  0
 16 18  1  0  0  0  0
 17 19  1  0  0  0  0
 19 18  2  0  0  0  0
 20 17  2  0  0  0  0
 21 16  2  0  0  0  0
 22 21  1  0  0  0  0
 22 17  1  0  0  0  0
 23 22  1  0  0  0  0
 24 26  1  0  0  0  0
 25 24  1  0  0  0  0
 25 28  1  0  0  0  0
 26 23  1  6  0  0  0
 26 27  1  0  0  0  0
 28 29  2  0  0  0  0
 29 27  1  0  0  0  0
 30 31  1  0  0  0  0
 33 38  1  0  0  0  0
 34 38  2  0  0  0  0
 35 37  1  0  0  0  0
 35 36  2  0  0  0  0
 36 34  1  0  0  0  0
 37 33  2  0  0  0  0
 38 32  1  0  0  0  0
 39 40  1  0  0  0  0
 40 35  1  0  0  0  0
 41 40  2  0  0  0  0
 42 43  1  0  0  0  0
 43 44  1  0  0  0  0
 45 46  1  0  0  0  0
 46 48  1  0  0  0  0
 47 46  2  0  0  0  0
 48 49  1  0  0  0  0
 49 51  1  0  0  0  0
 50 49  1  0  0  0  0
 51 53  1  0  0  0  0
 52 57  1  0  0  0  0
 52 53  2  0  0  0  0
 53 58  1  0  0  0  0
 55 54  1  0  0  0  0
 56 55  2  0  0  0  0
 57 56  1  0  0  0  0
 58 54  2  0  0  0  0
M  END
>  <MODEL>
6

>  <REMARK>
 VINA RESULT:      -7.0      1.558      2.031
  Name = 
  15 active torsions:
  status: ('A' for Active; 'I' for Inactive)
    1  A    between atoms: C_4  and  C_10
    2  A    between atoms: C_8  and  C_36
    3  A    between atoms: C_8  and  O_39
    4  A    between atoms: C_10  and  N_17
    5  A    between atoms: N_17  and  O_39
    6  A    between atoms: C_22  and  C_56
    7  A    between atoms: C_23  and  C_41
    8  A    between atoms: C_23  and  C_52
    9  A    between atoms: C_24  and  C_31
   10  A    between atoms: C_33  and  O_35
   11  A    between atoms: C_34  and  C_37
   12  A    between atoms: C_34  and  N_47
   13  A    between atoms: C_36  and  C_58
   14  A    between atoms: C_40  and  N_48
   15  A    between atoms: N_48  and  N_53
                            x       y       z     vdW  Elec       q    Type
                         _______ _______ _______ _____ _____    ______ ____

>  <TORSDO>
F 15

$$$$
=
 OpenBabel10232409593D

 58 64  0  0  1  0  0  0  0  0999 V2000
  189.3030  175.5860  142.7550 C   0  0  0  0  0  1  0  0  0  0  0  0
  190.4990  177.0850  139.2190 C   0  0  0  0  0  0  0  0  0  0  0  0
  189.6520  176.8080  141.9330 C   0  0  1  0  0  3  0  0  0  0  0  0
  193.3330  178.6600  140.4880 O   0  0  0  0  0  0  0  0  0  0  0  0
  189.0850  177.4230  139.4400 C   0  0  1  0  0  3  0  0  0  0  0  0
  188.3690  176.7810  138.3940 O   0  0  0  0  0  0  0  0  0  0  0  0
  190.6330  176.5960  138.0060 C   0  0  0  0  0  0  0  0  0  0  0  0
  193.0540  175.8650  138.2320 C   0  0  1  0  0  3  0  0  0  0  0  0
  191.1510  176.7290  141.5610 C   0  0  1  0  0  3  0  0  0  0  0  0
  193.5790  176.9790  138.9520 O   0  0  0  0  0  0  0  0  0  0  0  0
  189.3200  176.5470  137.4470 N   0  0  0  0  0  0  0  0  0  0  0  0
  191.4880  177.2500  140.2320 N   0  0  0  0  0  0  0  0  0  0  0  0
  188.5710  176.9950  140.8350 C   0  0  2  0  0  3  0  0  0  0  0  0
  192.8260  177.6660  139.9040 C   0  0  0  0  0  0  0  0  0  0  0  0
  191.9290  176.3010  137.2660 C   0  0  1  0  0  3  0  0  0  0  0  0
  186.1130  178.7910  143.0730 N   0  0  0  0  0  0  0  0  0  0  0  0
  186.4430  178.4790  140.3710 C   0  0  0  0  0  0  0  0  0  0  0  0
  187.1710  178.0740  142.6200 C   0  0  0  0  0  3  0  0  0  0  0  0
  187.3700  177.8580  141.2550 C   0  0  2  0  0  3  0  0  0  0  0  0
  186.5730  178.3800  139.1220 O   0  0  0  0  0  0  0  0  0  0  0  0
  185.2120  179.3210  142.2090 C   0  0  0  0  0  2  0  0  0  0  0  0
  185.3750  179.1680  140.8700 N   0  0  0  0  0  0  0  0  0  0  0  0
  184.4410  179.7320  139.9790 N   0  0  0  0  0  2  0  0  0  0  0  0
  182.4860  179.3060  138.5100 C   0  0  0  0  0  2  0  0  0  0  0  0
  183.2220  178.2770  137.6600 C   0  0  0  0  0  2  0  0  0  0  0  0
  183.0360  179.3160  139.9360 C   0  0  1  0  0  3  0  0  0  0  0  0
  182.8720  177.9450  140.6020 C   0  0  0  0  0  2  0  0  0  0  0  0
  183.2310  176.9320  138.3250 C   0  0  0  0  0  3  0  0  0  0  0  0
  183.1210  176.7870  139.6600 C   0  0  0  0  0  3  0  0  0  0  0  0
  194.9690  174.6880  138.6540 C   0  0  0  0  0  1  0  0  0  0  0  0
  194.0830  175.0970  137.6470 O   0  0  0  0  0  0  0  0  0  0  0  0
  191.9780  177.3850  142.6680 C   0  0  0  0  0  2  0  0  0  0  0  0
  191.4740  176.5090  144.9510 C   0  0  0  0  0  3  0  0  0  0  0  0
  190.2080  178.4090  144.1380 C   0  0  0  0  0  3  0  0  0  0  0  0
  189.7440  177.4940  146.3430 C   0  0  0  0  0  0  0  0  0  0  0  0
  189.4750  178.4320  145.3330 C   0  0  0  0  0  3  0  0  0  0  0  0
  190.7460  176.5320  146.1440 C   0  0  0  0  0  3  0  0  0  0  0  0
  191.2080  177.4430  143.9480 C   0  0  0  0  0  0  0  0  0  0  0  0
  189.0400  178.6710  148.4450 N   0  0  0  0  0  1  0  0  0  0  0  0
  188.9830  177.5240  147.6040 C   0  0  0  0  0  0  0  0  0  0  0  0
  188.2990  176.5290  147.9630 O   0  0  0  0  0  0  0  0  0  0  0  0
  189.0560  176.7880  136.0290 C   0  0  0  0  0  2  0  0  0  0  0  0
  188.2210  178.0400  135.8120 C   0  0  0  0  0  2  0  0  0  0  0  0
  186.8160  177.6720  135.3900 C   0  0  0  0  0  1  0  0  0  0  0  0
  191.7370  175.2860  136.1290 C   0  0  0  0  0  2  0  0  0  0  0  0
  191.4830  173.8910  136.6570 C   0  0  0  0  0  0  0  0  0  0  0  0
  190.7490  173.7290  137.6690 O   0  0  0  0  0  0  0  0  0  0  0  0
  192.0230  172.7460  136.0550 O   0  0  0  0  0  0  0  0  0  0  0  0
  193.3750  172.4590  135.9340 N   0  0  0  0  0  0  0  0  0  0  0  0
  193.8690  173.0990  134.8470 O   0  0  0  0  0  1  0  0  0  0  0  0
  193.5260  171.0120  135.7600 C   0  0  0  0  0  2  0  0  0  0  0  0
  194.2330  169.2920  137.3250 C   0  0  0  0  0  3  0  0  0  0  0  0
  194.5010  170.4730  136.7550 C   0  0  0  0  0  0  0  0  0  0  0  0
  196.8880  170.8490  137.4390 C   0  0  0  0  0  3  0  0  0  0  0  0
  197.2800  169.4280  137.5890 C   0  0  0  0  0  3  0  0  0  0  0  0
  196.4640  168.4480  137.9740 C   0  0  0  0  0  3  0  0  0  0  0  0
  195.0580  168.6810  138.4140 C   0  0  0  0  0  2  0  0  0  0  0  0
  195.6810  171.3010  137.0840 C   0  0  0  0  0  3  0  0  0  0  0  0
  2  5  1  0  0  0  0
  2 12  1  0  0  0  0
  3  1  1  6  0  0  0
  5  6  1  6  0  0  0
  5 13  1  0  0  0  0
  7  2  2  0  0  0  0
  8 31  1  6  0  0  0
  8 10  1  0  0  0  0
  9  3  1  0  0  0  0
  9 32  1  1  0  0  0
 10 14  1  0  0  0  0
 11  7  1  0  0  0  0
 11  6  1  0  0  0  0
 12  9  1  0  0  0  0
 13 19  1  1  0  0  0
 13  3  1  0  0  0  0
 14 12  1  0  0  0  0
 14  4  2  0  0  0  0
 15 45  1  6  0  0  0
 15  7  1  0  0  0  0
 15  8  1  0  0  0  0
 17 22  1  0  0  0  0
 17 19  1  0  0  0  0
 18 16  2  0  0  0  0
 19 18  1  6  0  0  0
 20 17  2  0  0  0  0
 21 16  1  0  0  0  0
 22 21  1  0  0  0  0
 23 22  1  0  0  0  0
 24 26  1  0  0  0  0
 25 28  1  0  0  0  0
 25 24  1  0  0  0  0
 26 23  1  6  0  0  0
 26 27  1  0  0  0  0
 28 29  2  0  0  0  0
 29 27  1  0  0  0  0
 31 30  1  0  0  0  0
 32 38  1  0  0  0  0
 33 37  1  0  0  0  0
 34 36  2  0  0  0  0
 35 40  1  0  0  0  0
 36 35  1  0  0  0  0
 37 35  2  0  0  0  0
 38 34  1  0  0  0  0
 38 33  2  0  0  0  0
 40 41  2  0  0  0  0
 40 39  1  0  0  0  0
 42 11  1  0  0  0  0
 43 42  1  0  0  0  0
 44 43  1  0  0  0  0
 45 46  1  0  0  0  0
 46 47  2  0  0  0  0
 48 46  1  0  0  0  0
 49 48  1  0  0  0  0
 50 49  1  0  0  0  0
 51 49  1  0  0  0  0
 51 53  1  0  0  0  0
 52 57  1  0  0  0  0
 53 58  1  0  0  0  0
 53 52  2  0  0  0  0
 54 55  1  0  0  0  0
 55 56  2  0  0  0  0
 56 57  1  0  0  0  0
 58 54  2  0  0  0  0
M  END
>  <MODEL>
7

>  <REMARK>
 VINA RESULT:      -6.5      2.701     10.769
  Name = 
  15 active torsions:
  status: ('A' for Active; 'I' for Inactive)
    1  A    between atoms: C_4  and  C_10
    2  A    between atoms: C_8  and  C_36
    3  A    between atoms: C_8  and  O_39
    4  A    between atoms: C_10  and  N_17
    5  A    between atoms: N_17  and  O_39
    6  A    between atoms: C_22  and  C_56
    7  A    between atoms: C_23  and  C_41
    8  A    between atoms: C_23  and  C_52
    9  A    between atoms: C_24  and  C_31
   10  A    between atoms: C_33  and  O_35
   11  A    between atoms: C_34  and  C_37
   12  A    between atoms: C_34  and  N_47
   13  A    between atoms: C_36  and  C_58
   14  A    between atoms: C_40  and  N_48
   15  A    between atoms: N_48  and  N_53
                            x       y       z     vdW  Elec       q    Type
                         _______ _______ _______ _____ _____    ______ ____

>  <TORSDO>
F 15

$$$$
=
 OpenBabel10232409593D

 58 64  0  0  1  0  0  0  0  0999 V2000
  188.4140  173.8520  136.4950 C   0  0  0  0  0  1  0  0  0  0  0  0
  189.4130  177.0170  138.7670 C   0  0  0  0  0  0  0  0  0  0  0  0
  188.9400  175.2700  136.5570 C   0  0  1  0  0  3  0  0  0  0  0  0
  187.2060  179.2230  137.2230 O   0  0  0  0  0  0  0  0  0  0  0  0
  190.6320  176.4050  138.2190 C   0  0  1  0  0  3  0  0  0  0  0  0
  191.3760  175.9560  139.3440 O   0  0  0  0  0  0  0  0  0  0  0  0
  189.5810  177.2130  140.0570 C   0  0  0  0  0  0  0  0  0  0  0  0
  187.1950  177.9090  140.5770 C   0  0  1  0  0  3  0  0  0  0  0  0
  187.8140  176.1800  137.1010 C   0  0  1  0  0  3  0  0  0  0  0  0
  186.9270  178.7300  139.4420 O   0  0  0  0  0  0  0  0  0  0  0  0
  190.8650  176.6810  140.3790 N   0  0  0  0  0  0  0  0  0  0  0  0
  188.2650  177.2770  137.9650 N   0  0  0  0  0  0  0  0  0  0  0  0
  190.3400  175.2540  137.2290 C   0  0  2  0  0  3  0  0  0  0  0  0
  187.4540  178.4460  138.1820 C   0  0  0  0  0  0  0  0  0  0  0  0
  188.6790  177.9990  140.9970 C   0  0  1  0  0  3  0  0  0  0  0  0
  192.6910  175.9160  134.3460 N   0  0  0  0  0  0  0  0  0  0  0  0
  192.4560  173.9970  136.2880 C   0  0  0  0  0  0  0  0  0  0  0  0
  191.7000  176.0300  135.2650 C   0  0  0  0  0  3  0  0  0  0  0  0
  191.5160  175.0650  136.2580 C   0  0  0  0  0  0  0  0  0  0  0  0
  192.3980  173.1080  137.1780 O   0  0  0  0  0  0  0  0  0  0  0  0
  193.5350  174.8550  134.3640 C   0  0  0  0  0  3  0  0  0  0  0  0
  193.4210  173.9040  135.3260 N   0  0  0  0  0  0  0  0  0  0  0  0
  194.3090  172.8110  135.3440 N   0  0  0  0  0  2  0  0  0  0  0  0
  196.0060  173.0710  137.1370 C   0  0  0  0  0  2  0  0  0  0  0  0
  195.5900  171.7910  137.8540 C   0  0  0  0  0  2  0  0  0  0  0  0
  195.7380  172.9560  135.6370 C   0  0  1  0  0  3  0  0  0  0  0  0
  196.5220  171.7910  135.0220 C   0  0  0  0  0  2  0  0  0  0  0  0
  196.2070  170.5840  137.2090 C   0  0  0  0  0  3  0  0  0  0  0  0
  196.5830  170.5720  135.9160 C   0  0  0  0  0  3  0  0  0  0  0  0
  185.2810  179.0250  141.1460 C   0  0  0  0  0  1  0  0  0  0  0  0
  186.2630  178.1380  141.6120 O   0  0  0  0  0  0  0  0  0  0  0  0
  186.9600  176.6750  135.9330 C   0  0  0  0  0  2  0  0  0  0  0  0
  184.5720  176.7250  135.2080 C   0  0  0  0  0  3  0  0  0  0  0  0
  185.1750  175.3330  137.0980 C   0  0  0  0  0  3  0  0  0  0  0  0
  182.8590  175.4450  136.3630 C   0  0  0  0  0  0  0  0  0  0  0  0
  183.8360  174.9460  137.2410 C   0  0  0  0  0  3  0  0  0  0  0  0
  183.2360  176.3380  135.3480 C   0  0  0  0  0  3  0  0  0  0  0  0
  185.5420  176.2270  136.0800 C   0  0  0  0  0  0  0  0  0  0  0  0
  181.0580  174.2100  137.5980 N   0  0  0  0  0  1  0  0  0  0  0  0
  181.4540  175.0310  136.5040 C   0  0  0  0  0  0  0  0  0  0  0  0
  180.5960  175.3730  135.6480 O   0  0  0  0  0  0  0  0  0  0  0  0
  191.7370  177.2790  141.3910 C   0  0  0  0  0  2  0  0  0  0  0  0
  193.2000  176.9540  141.1420 C   0  0  0  0  0  2  0  0  0  0  0  0
  193.7250  177.7410  139.9620 C   0  0  0  0  0  1  0  0  0  0  0  0
  188.8750  177.5980  142.4680 C   0  0  0  0  0  2  0  0  0  0  0  0
  189.4680  178.7260  143.2840 C   0  0  0  0  0  0  0  0  0  0  0  0
  189.8600  179.7770  142.7080 O   0  0  0  0  0  0  0  0  0  0  0  0
  189.5900  178.6640  144.6790 O   0  0  0  0  0  0  0  0  0  0  0  0
  190.5290  177.9160  145.3750 N   0  0  0  0  0  0  0  0  0  0  0  0
  191.3970  177.3630  144.4940 O   0  0  0  0  0  1  0  0  0  0  0  0
  189.8270  176.8560  146.1020 C   0  0  0  0  0  2  0  0  0  0  0  0
  188.3440  177.9840  147.6630 C   0  0  0  0  0  3  0  0  0  0  0  0
  188.4670  177.3220  146.5060 C   0  0  0  0  0  0  0  0  0  0  0  0
  186.2230  177.7080  145.4460 C   0  0  0  0  0  3  0  0  0  0  0  0
  185.9060  178.9940  146.1100 C   0  0  0  0  0  3  0  0  0  0  0  0
  186.3030  179.3390  147.3340 C   0  0  0  0  0  3  0  0  0  0  0  0
  187.0350  178.4140  148.2470 C   0  0  0  0  0  2  0  0  0  0  0  0
  187.3300  176.9810  145.6240 C   0  0  0  0  0  3  0  0  0  0  0  0
  2  7  2  0  0  0  0
  3  1  1  1  0  0  0
  3  9  1  0  0  0  0
  3 13  1  0  0  0  0
  4 14  2  0  0  0  0
  5  2  1  1  0  0  0
  5  6  1  0  0  0  0
  6 11  1  0  0  0  0
  7 11  1  0  0  0  0
  7 15  1  0  0  0  0
  8 15  1  0  0  0  0
  8 31  1  1  0  0  0
  9 32  1  6  0  0  0
  9 12  1  0  0  0  0
 10  8  1  0  0  0  0
 11 42  1  0  0  0  0
 12 14  1  0  0  0  0
 12  2  1  0  0  0  0
 13 19  1  6  0  0  0
 13  5  1  0  0  0  0
 14 10  1  0  0  0  0
 15 45  1  1  0  0  0
 16 21  2  0  0  0  0
 16 18  1  0  0  0  0
 17 20  2  0  0  0  0
 18 19  2  0  0  0  0
 19 17  1  0  0  0  0
 21 22  1  0  0  0  0
 22 23  1  0  0  0  0
 22 17  1  0  0  0  0
 24 25  1  0  0  0  0
 26 23  1  1  0  0  0
 26 24  1  0  0  0  0
 27 26  1  0  0  0  0
 27 29  1  0  0  0  0
 28 25  1  0  0  0  0
 29 28  2  0  0  0  0
 30 31  1  0  0  0  0
 32 38  1  0  0  0  0
 33 37  2  0  0  0  0
 33 38  1  0  0  0  0
 34 36  1  0  0  0  0
 35 40  1  0  0  0  0
 35 36  2  0  0  0  0
 37 35  1  0  0  0  0
 38 34  2  0  0  0  0
 40 39  1  0  0  0  0
 41 40  2  0  0  0  0
 43 42  1  0  0  0  0
 44 43  1  0  0  0  0
 45 46  1  0  0  0  0
 46 48  1  0  0  0  0
 47 46  2  0  0  0  0
 48 49  1  0  0  0  0
 49 51  1  0  0  0  0
 50 49  1  0  0  0  0
 51 53  1  0  0  0  0
 52 57  1  0  0  0  0
 53 52  2  0  0  0  0
 54 58  2  0  0  0  0
 54 55  1  0  0  0  0
 55 56  2  0  0  0  0
 56 57  1  0  0  0  0
 58 53  1  0  0  0  0
M  END
>  <MODEL>
8

>  <REMARK>
 VINA RESULT:      -6.4      1.703      2.366
  Name = 
  15 active torsions:
  status: ('A' for Active; 'I' for Inactive)
    1  A    between atoms: C_4  and  C_10
    2  A    between atoms: C_8  and  C_36
    3  A    between atoms: C_8  and  O_39
    4  A    between atoms: C_10  and  N_17
    5  A    between atoms: N_17  and  O_39
    6  A    between atoms: C_22  and  C_56
    7  A    between atoms: C_23  and  C_41
    8  A    between atoms: C_23  and  C_52
    9  A    between atoms: C_24  and  C_31
   10  A    between atoms: C_33  and  O_35
   11  A    between atoms: C_34  and  C_37
   12  A    between atoms: C_34  and  N_47
   13  A    between atoms: C_36  and  C_58
   14  A    between atoms: C_40  and  N_48
   15  A    between atoms: N_48  and  N_53
                            x       y       z     vdW  Elec       q    Type
                         _______ _______ _______ _____ _____    ______ ____

>  <TORSDO>
F 15

$$$$
=
 OpenBabel10232409593D

 58 64  0  0  1  0  0  0  0  0999 V2000
  186.3060  177.9920  135.2730 C   0  0  0  0  0  1  0  0  0  0  0  0
  188.8180  175.7850  137.5080 C   0  0  0  0  0  0  0  0  0  0  0  0
  186.4780  176.9620  136.3690 C   0  0  1  0  0  3  0  0  0  0  0  0
  187.4870  172.7170  136.5410 O   0  0  0  0  0  0  0  0  0  0  0  0
  188.2070  176.8270  138.3450 C   0  0  1  0  0  3  0  0  0  0  0  0
  189.2820  177.6460  138.7850 O   0  0  0  0  0  0  0  0  0  0  0  0
  190.1170  175.7860  137.7120 C   0  0  0  0  0  0  0  0  0  0  0  0
  190.7220  174.1500  135.8650 C   0  0  1  0  0  3  0  0  0  0  0  0
  187.1080  175.6940  135.7460 C   0  0  1  0  0  3  0  0  0  0  0  0
  189.6610  173.2090  136.0170 O   0  0  0  0  0  0  0  0  0  0  0  0
  190.3790  176.8540  138.6210 N   0  0  0  0  0  0  0  0  0  0  0  0
  188.0530  174.9820  136.6130 N   0  0  0  0  0  0  0  0  0  0  0  0
  187.1290  177.6490  137.6000 C   0  0  2  0  0  3  0  0  0  0  0  0
  188.3760  173.5960  136.3960 C   0  0  0  0  0  0  0  0  0  0  0  0
  191.1300  174.7590  137.2260 C   0  0  1  0  0  3  0  0  0  0  0  0
  184.0320  179.3830  138.8950 N   0  0  0  0  0  0  0  0  0  0  0  0
  186.2980  178.3190  140.0090 C   0  0  0  0  0  0  0  0  0  0  0  0
  184.9450  178.7910  138.0850 C   0  0  0  0  0  3  0  0  0  0  0  0
  186.1310  178.2600  138.5970 C   0  0  0  0  0  0  0  0  0  0  0  0
  187.3130  177.8210  140.5620 O   0  0  0  0  0  0  0  0  0  0  0  0
  184.2460  179.4770  140.2310 C   0  0  0  0  0  3  0  0  0  0  0  0
  185.3680  178.9500  140.7840 N   0  0  0  0  0  0  0  0  0  0  0  0
  185.5770  179.0420  142.1740 N   0  0  0  0  0  2  0  0  0  0  0  0
  186.1860  177.3860  143.9200 C   0  0  0  0  0  2  0  0  0  0  0  0
  186.9030  178.4150  144.7870 C   0  0  0  0  0  2  0  0  0  0  0  0
  185.0640  178.0480  143.1210 C   0  0  1  0  0  3  0  0  0  0  0  0
  184.0270  178.6910  144.0490 C   0  0  0  0  0  2  0  0  0  0  0  0
  185.9280  179.1930  145.6220 C   0  0  0  0  0  3  0  0  0  0  0  0
  184.6410  179.3560  145.2620 C   0  0  0  0  0  3  0  0  0  0  0  0
  191.7600  172.2180  135.2190 C   0  0  0  0  0  1  0  0  0  0  0  0
  191.7830  173.6160  135.1050 O   0  0  0  0  0  0  0  0  0  0  0  0
  185.9950  174.7830  135.2280 C   0  0  0  0  0  2  0  0  0  0  0  0
  184.6830  174.4990  137.3330 C   0  0  0  0  0  3  0  0  0  0  0  0
  183.6180  175.5840  135.4460 C   0  0  0  0  0  3  0  0  0  0  0  0
  182.3810  175.2540  137.5150 C   0  0  0  0  0  0  0  0  0  0  0  0
  182.4390  175.7240  136.1920 C   0  0  0  0  0  3  0  0  0  0  0  0
  183.5090  174.6400  138.0790 C   0  0  0  0  0  3  0  0  0  0  0  0
  184.7410  174.9680  136.0190 C   0  0  0  0  0  0  0  0  0  0  0  0
  180.1280  174.4200  138.2400 N   0  0  0  0  0  1  0  0  0  0  0  0
  181.1480  175.4110  138.3040 C   0  0  0  0  0  0  0  0  0  0  0  0
  180.9710  176.4320  139.0210 O   0  0  0  0  0  0  0  0  0  0  0  0
  191.4260  176.7850  139.6410 C   0  0  0  0  0  2  0  0  0  0  0  0
  190.8570  176.8890  141.0460 C   0  0  0  0  0  2  0  0  0  0  0  0
  191.8290  177.6020  141.9600 C   0  0  0  0  0  1  0  0  0  0  0  0
  192.5600  175.3200  137.1870 C   0  0  0  0  0  2  0  0  0  0  0  0
  192.7960  176.1750  135.9610 C   0  0  0  0  0  0  0  0  0  0  0  0
  191.8570  176.8810  135.5010 O   0  0  0  0  0  0  0  0  0  0  0  0
  194.0350  176.2340  135.3090 O   0  0  0  0  0  0  0  0  0  0  0  0
  195.2230  176.6800  135.8710 N   0  0  0  0  0  0  0  0  0  0  0  0
  195.4620  177.9470  135.4540 O   0  0  0  0  0  1  0  0  0  0  0  0
  196.3050  175.8030  135.4200 C   0  0  0  0  0  2  0  0  0  0  0  0
  195.8900  173.4340  135.0690 C   0  0  0  0  0  3  0  0  0  0  0  0
  196.1020  174.4210  135.9480 C   0  0  0  0  0  0  0  0  0  0  0  0
  196.5040  173.1450  138.0740 C   0  0  0  0  0  3  0  0  0  0  0  0
  197.0200  171.8970  137.4640 C   0  0  0  0  0  3  0  0  0  0  0  0
  196.6470  171.4150  136.2790 C   0  0  0  0  0  3  0  0  0  0  0  0
  195.5640  172.0240  135.4540 C   0  0  0  0  0  2  0  0  0  0  0  0
  196.1000  174.2360  137.4150 C   0  0  0  0  0  3  0  0  0  0  0  0
  2  7  2  0  0  0  0
  3  1  1  6  0  0  0
  3 13  1  0  0  0  0
  5  2  1  6  0  0  0
  5  6  1  0  0  0  0
  7 11  1  0  0  0  0
  8 31  1  1  0  0  0
  8 10  1  0  0  0  0
  8 15  1  0  0  0  0
  9 32  1  1  0  0  0
  9  3  1  0  0  0  0
  9 12  1  0  0  0  0
 10 14  1  0  0  0  0
 11  6  1  0  0  0  0
 11 42  1  0  0  0  0
 12  2  1  0  0  0  0
 13  5  1  0  0  0  0
 13 19  1  1  0  0  0
 14  4  2  0  0  0  0
 14 12  1  0  0  0  0
 15 45  1  6  0  0  0
 15  7  1  0  0  0  0
 16 21  2  0  0  0  0
 17 20  2  0  0  0  0
 17 22  1  0  0  0  0
 18 19  2  0  0  0  0
 18 16  1  0  0  0  0
 19 17  1  0  0  0  0
 21 22  1  0  0  0  0
 22 23  1  0  0  0  0
 24 25  1  0  0  0  0
 25 28  1  0  0  0  0
 26 23  1  6  0  0  0
 26 24  1  0  0  0  0
 26 27  1  0  0  0  0
 27 29  1  0  0  0  0
 29 28  2  0  0  0  0
 31 30  1  0  0  0  0
 32 38  1  0  0  0  0
 33 37  1  0  0  0  0
 34 38  1  0  0  0  0
 34 36  2  0  0  0  0
 35 37  2  0  0  0  0
 35 40  1  0  0  0  0
 36 35  1  0  0  0  0
 38 33  2  0  0  0  0
 39 40  1  0  0  0  0
 40 41  2  0  0  0  0
 42 43  1  0  0  0  0
 43 44  1  0  0  0  0
 46 45  1  0  0  0  0
 47 46  2  0  0  0  0
 48 49  1  0  0  0  0
 48 46  1  0  0  0  0
 50 49  1  0  0  0  0
 51 49  1  0  0  0  0
 51 53  1  0  0  0  0
 52 57  1  0  0  0  0
 52 53  2  0  0  0  0
 53 58  1  0  0  0  0
 55 54  1  0  0  0  0
 56 55  2  0  0  0  0
 57 56  1  0  0  0  0
 58 54  2  0  0  0  0
M  END
>  <MODEL>
9

>  <REMARK>
 VINA RESULT:      -6.2      2.221      9.111
  Name = 
  15 active torsions:
  status: ('A' for Active; 'I' for Inactive)
    1  A    between atoms: C_4  and  C_10
    2  A    between atoms: C_8  and  C_36
    3  A    between atoms: C_8  and  O_39
    4  A    between atoms: C_10  and  N_17
    5  A    between atoms: N_17  and  O_39
    6  A    between atoms: C_22  and  C_56
    7  A    between atoms: C_23  and  C_41
    8  A    between atoms: C_23  and  C_52
    9  A    between atoms: C_24  and  C_31
   10  A    between atoms: C_33  and  O_35
   11  A    between atoms: C_34  and  C_37
   12  A    between atoms: C_34  and  N_47
   13  A    between atoms: C_36  and  C_58
   14  A    between atoms: C_40  and  N_48
   15  A    between atoms: N_48  and  N_53
                            x       y       z     vdW  Elec       q    Type
                         _______ _______ _______ _____ _____    ______ ____

>  <TORSDO>
F 15

$$$$
