=
 OpenBabel10232409513D

 59 61  0  0  1  0  0  0  0  0999 V2000
  188.6850  177.5140  140.5300 C   0  0  0  0  0  2  0  0  0  0  0  0
  190.4110  177.2380  138.6900 C   0  0  1  0  0  3  0  0  0  0  0  0
  189.3870  178.1830  139.3500 C   0  0  1  0  0  3  0  0  0  0  0  0
  189.7220  177.1200  141.5840 C   0  0  2  0  0  3  0  0  0  0  0  0
  191.4530  176.8350  139.7520 C   0  0  2  0  0  3  0  0  0  0  0  0
  190.7840  176.2010  140.9800 C   0  0  0  0  0  2  0  0  0  0  0  0
  188.4320  178.8250  138.3930 C   0  0  0  0  0  0  0  0  0  0  0  0
  188.8540  179.7170  137.6100 O   0  0  0  0  0  0  0  0  0  0  0  0
  187.1030  178.3900  138.3280 O   0  0  0  0  0  0  0  0  0  0  0  0
  186.3490  178.4440  137.1710 N   0  0  0  0  0  2  0  0  0  0  0  0
  185.3950  176.5580  135.7690 C   0  0  0  0  0  1  0  0  0  0  0  0
  184.0900  177.8100  137.3530 C   0  0  0  0  0  0  0  0  0  0  0  0
  185.2710  177.5510  136.8720 C   0  0  0  0  0  0  0  0  0  0  0  0
  182.9040  178.0840  137.8320 C   0  0  0  0  0  3  0  0  0  0  0  0
  182.6920  178.9680  139.0300 C   0  0  2  0  0  0  0  0  0  0  0  0
  183.9780  179.7280  139.3220 C   0  0  0  0  0  1  0  0  0  0  0  0
  181.9350  176.7070  139.9340 C   0  0  0  0  0  1  0  0  0  0  0  0
  182.3170  178.1430  140.2710 C   0  0  0  0  0  2  0  0  0  0  0  0
  181.5890  179.9760  138.6920 C   0  0  0  0  0  2  0  0  0  0  0  0
  180.3430  179.3460  138.6010 O   0  0  0  0  0  1  0  0  0  0  0  0
  193.5360  177.4960  140.1230 C   0  0  0  0  0  1  0  0  0  0  0  0
  192.2150  177.9410  140.1350 O   0  0  0  0  0  0  0  0  0  0  0  0
  189.0470  176.4060  142.7430 C   0  0  0  0  0  2  0  0  0  0  0  0
  187.5950  176.8490  142.8690 C   0  0  0  0  0  2  0  0  0  0  0  0
  188.6130  177.9250  144.9050 C   0  0  0  0  0  1  0  0  0  0  0  0
  187.4550  177.9500  143.9100 C   0  0  2  0  0  3  0  0  0  0  0  0
  186.0540  177.9660  144.5750 C   0  0  2  0  0  3  0  0  0  0  0  0
  185.1070  179.0220  143.9960 C   0  0  0  0  0  3  0  0  0  0  0  0
  183.6630  178.5520  143.9560 C   0  0  0  0  0  1  0  0  0  0  0  0
  185.5490  179.4170  142.6030 C   0  0  0  0  0  1  0  0  0  0  0  0
  185.8280  179.1530  146.7070 C   0  0  0  0  0  1  0  0  0  0  0  0
  185.9700  177.8630  146.0480 N   0  0  0  0  0  0  0  0  0  0  0  0
  187.1870  177.2410  146.5430 C   0  0  0  0  0  1  0  0  0  0  0  0
  189.7570  176.0080  138.0000 C   0  0  1  0  0  3  0  0  0  0  0  0
  189.7620  177.2520  135.9810 O   0  0  0  0  0  0  0  0  0  0  0  0
  189.3030  176.3040  136.6000 C   0  0  0  0  0  0  0  0  0  0  0  0
  188.2940  175.4220  135.9480 C   0  0  0  0  0  1  0  0  0  0  0  0
  190.6120  174.7350  138.0320 C   0  0  0  0  0  2  0  0  0  0  0  0
  191.7430  174.7620  137.0170 C   0  0  0  0  0  2  0  0  0  0  0  0
  192.6460  173.5770  137.2590 C   0  0  0  0  0  2  0  0  0  0  0  0
  193.9720  174.0240  137.4920 O   0  0  0  0  0  0  0  0  0  0  0  0
  195.3450  172.7500  138.8120 O   0  0  0  0  0  0  0  0  0  0  0  0
  195.0320  173.1290  137.6530 C   0  0  0  0  0  0  0  0  0  0  0  0
  197.2270  172.4640  136.6630 C   0  0  0  0  0  0  0  0  0  0  0  0
  197.7250  174.8840  136.1930 C   0  0  0  0  0  3  0  0  0  0  0  0
  198.0590  173.5080  136.6060 C   0  0  0  0  0  3  0  0  0  0  0  0
  195.7540  174.4040  134.7350 C   0  0  0  0  0  3  0  0  0  0  0  0
  195.3490  173.2070  135.1570 C   0  0  0  0  0  3  0  0  0  0  0  0
  195.7500  172.5760  136.4520 C   0  0  2  0  0  3  0  0  0  0  0  0
  196.7160  175.2920  135.4140 C   0  0  0  0  0  0  0  0  0  0  0  0
  195.4200  177.2440  135.6770 O   0  0  0  0  0  1  0  0  0  0  0  0
  196.6090  176.7530  135.1340 C   0  0  0  0  0  2  0  0  0  0  0  0
  197.7490  171.1630  137.1720 C   0  0  0  0  0  2  0  0  0  0  0  0
  197.4000  170.0330  136.2170 C   0  0  0  0  0  2  0  0  0  0  0  0
  195.0940  169.0910  136.1110 C   0  0  0  0  0  2  0  0  0  0  0  0
  196.4010  169.0860  136.8670 C   0  0  2  0  0  3  0  0  0  0  0  0
  194.8470  169.0720  138.4720 C   0  0  0  0  0  2  0  0  0  0  0  0
  194.0550  169.0130  137.1860 C   0  0  0  0  0  2  0  0  0  0  0  0
  196.1550  169.4940  138.1850 O   0  0  0  0  0  0  0  0  0  0  0  0
  1  4  1  0  0  0  0
  2 34  1  1  0  0  0
  2  3  1  0  0  0  0
  2  5  1  0  0  0  0
  3  7  1  6  0  0  0
  3  1  1  0  0  0  0
  4 23  1  1  0  0  0
  5 22  1  1  0  0  0
  5  6  1  0  0  0  0
  6  4  1  0  0  0  0
  8  7  2  0  0  0  0
  9  7  1  0  0  0  0
 10  9  1  0  0  0  0
 11 13  1  0  0  0  0
 12 14  2  0  0  0  0
 13 10  1  0  0  0  0
 13 12  2  0  0  0  0
 14 15  1  0  0  0  0
 15 16  1  1  0  0  0
 15 18  1  0  0  0  0
 17 18  1  0  0  0  0
 19 15  1  0  0  0  0
 20 19  1  0  0  0  0
 21 22  1  0  0  0  0
 23 24  1  0  0  0  0
 24 26  1  0  0  0  0
 26 27  1  0  0  0  0
 26 25  1  1  0  0  0
 27 28  1  1  0  0  0
 27 32  1  0  0  0  0
 29 28  1  0  0  0  0
 30 28  1  0  0  0  0
 32 33  1  0  0  0  0
 32 31  1  0  0  0  0
 34 38  1  6  0  0  0
 35 36  2  0  0  0  0
 36 34  1  0  0  0  0
 37 36  1  0  0  0  0
 39 40  1  0  0  0  0
 39 38  1  0  0  0  0
 40 41  1  0  0  0  0
 41 43  1  0  0  0  0
 43 42  2  0  0  0  0
 44 53  1  0  0  0  0
 45 46  1  0  0  0  0
 46 44  2  0  0  0  0
 47 48  2  0  0  0  0
 47 50  1  0  0  0  0
 48 49  1  0  0  0  0
 49 44  1  0  0  0  0
 49 43  1  1  0  0  0
 50 45  2  0  0  0  0
 52 50  1  0  0  0  0
 52 51  1  0  0  0  0
 54 53  1  0  0  0  0
 55 56  1  0  0  0  0
 55 58  1  0  0  0  0
 56 54  1  6  0  0  0
 56 59  1  0  0  0  0
 58 57  1  0  0  0  0
 59 57  1  0  0  0  0
M  END
>  <MODEL>
1

>  <REMARK>
 VINA RESULT:      -5.9      0.000      0.000
  Name = 
  26 active torsions:
  status: ('A' for Active; 'I' for Inactive)
    1  A    between atoms: C_1  and  C_50
    2  A    between atoms: C_3  and  C_5
    3  A    between atoms: C_4  and  C_18
    4  A    between atoms: C_5  and  C_6
    5  A    between atoms: C_5  and  C_29
    6  A    between atoms: C_6  and  C_57
    7  A    between atoms: O_13  and  C_38
    8  A    between atoms: O_13  and  C_54
    9  A    between atoms: N_15  and  C_42
   10  A    between atoms: C_17  and  C_28
   11  A    between atoms: C_17  and  C_47
   12  A    between atoms: C_18  and  C_53
   13  A    between atoms: C_18  and  C_59
   14  A    between atoms: C_20  and  C_21
   15  A    between atoms: C_21  and  O_30
   16  A    between atoms: C_23  and  C_33
   17  A    between atoms: C_25  and  C_28
   18  A    between atoms: O_30  and  N_56
   19  A    between atoms: C_33  and  C_50
   20  A    between atoms: C_34  and  O_58
   21  A    between atoms: C_37  and  C_42
   22  A    between atoms: C_38  and  C_39
   23  A    between atoms: C_41  and  C_46
   24  A    between atoms: C_42  and  C_47
   25  A    between atoms: C_43  and  N_56
   26  A    between atoms: C_54  and  C_57
                            x       y       z     vdW  Elec       q    Type
                         _______ _______ _______ _____ _____    ______ ____

>  <TORSDO>
F 26

$$$$
=
 OpenBabel10232409513D

 59 61  0  0  1  0  0  0  0  0999 V2000
  188.6150  177.2960  140.6340 C   0  0  0  0  0  2  0  0  0  0  0  0
  190.2380  177.2980  138.6840 C   0  0  1  0  0  3  0  0  0  0  0  0
  189.1810  178.1030  139.4670 C   0  0  1  0  0  3  0  0  0  0  0  0
  189.7460  176.9270  141.5970 C   0  0  2  0  0  3  0  0  0  0  0  0
  191.3760  176.9200  139.6530 C   0  0  2  0  0  3  0  0  0  0  0  0
  190.8420  176.1480  140.8690 C   0  0  0  0  0  2  0  0  0  0  0  0
  188.1170  178.7180  138.6150 C   0  0  0  0  0  0  0  0  0  0  0  0
  188.4520  179.3880  137.6020 O   0  0  0  0  0  0  0  0  0  0  0  0
  186.7660  178.4960  138.9060 O   0  0  0  0  0  0  0  0  0  0  0  0
  185.7700  178.5520  137.9490 N   0  0  0  0  0  2  0  0  0  0  0  0
  185.4760  176.1770  137.1090 C   0  0  0  0  0  1  0  0  0  0  0  0
  183.6370  177.6790  137.4770 C   0  0  0  0  0  0  0  0  0  0  0  0
  184.9100  177.4560  137.6200 C   0  0  0  0  0  0  0  0  0  0  0  0
  182.3580  177.9150  137.3260 C   0  0  0  0  0  3  0  0  0  0  0  0
  181.6720  179.1120  137.9240 C   0  0  2  0  0  0  0  0  0  0  0  0
  180.9890  179.9000  136.8160 C   0  0  0  0  0  1  0  0  0  0  0  0
  182.2590  181.4980  138.6050 C   0  0  0  0  0  1  0  0  0  0  0  0
  182.6760  180.0330  138.6340 C   0  0  0  0  0  2  0  0  0  0  0  0
  180.6060  178.6120  138.9040 C   0  0  0  0  0  2  0  0  0  0  0  0
  181.1900  177.9570  139.9920 O   0  0  0  0  0  1  0  0  0  0  0  0
  193.3830  177.6480  140.2470 C   0  0  0  0  0  1  0  0  0  0  0  0
  192.0640  178.0610  140.0700 O   0  0  0  0  0  0  0  0  0  0  0  0
  189.2080  176.0810  142.7380 C   0  0  0  0  0  2  0  0  0  0  0  0
  187.9720  176.7300  143.3470 C   0  0  0  0  0  2  0  0  0  0  0  0
  189.8790  177.8620  144.5390 C   0  0  0  0  0  1  0  0  0  0  0  0
  188.3660  177.8120  144.3420 C   0  0  2  0  0  3  0  0  0  0  0  0
  187.5620  177.7250  145.6650 C   0  0  2  0  0  3  0  0  0  0  0  0
  186.2770  178.5610  145.6620 C   0  0  0  0  0  3  0  0  0  0  0  0
  185.1500  177.9010  146.4390 C   0  0  0  0  0  1  0  0  0  0  0  0
  185.8240  178.8250  144.2420 C   0  0  0  0  0  1  0  0  0  0  0  0
  188.4180  176.5180  147.6180 C   0  0  0  0  0  1  0  0  0  0  0  0
  188.2970  177.8040  146.9460 N   0  0  0  0  0  0  0  0  0  0  0  0
  187.5890  178.7080  147.8350 C   0  0  0  0  0  1  0  0  0  0  0  0
  189.6490  176.0630  137.9460 C   0  0  1  0  0  3  0  0  0  0  0  0
  189.7400  177.3470  135.9540 O   0  0  0  0  0  0  0  0  0  0  0  0
  189.2950  176.3580  136.5170 C   0  0  0  0  0  0  0  0  0  0  0  0
  188.4060  175.4260  135.7680 C   0  0  0  0  0  1  0  0  0  0  0  0
  190.5120  174.7990  138.0380 C   0  0  0  0  0  2  0  0  0  0  0  0
  191.7020  174.8310  137.0930 C   0  0  0  0  0  2  0  0  0  0  0  0
  192.6730  173.7460  137.4920 C   0  0  0  0  0  2  0  0  0  0  0  0
  193.9860  174.2790  137.5650 O   0  0  0  0  0  0  0  0  0  0  0  0
  195.1440  172.8920  138.9740 O   0  0  0  0  0  0  0  0  0  0  0  0
  195.0900  173.4770  137.8600 C   0  0  0  0  0  0  0  0  0  0  0  0
  196.0640  174.2060  135.6780 C   0  0  0  0  0  0  0  0  0  0  0  0
  194.2790  172.9080  134.4720 C   0  0  0  0  0  3  0  0  0  0  0  0
  195.1780  174.0570  134.6890 C   0  0  0  0  0  3  0  0  0  0  0  0
  195.5940  171.1350  135.6410 C   0  0  0  0  0  3  0  0  0  0  0  0
  196.3820  171.8320  136.4590 C   0  0  0  0  0  3  0  0  0  0  0  0
  196.1710  173.2640  136.8350 C   0  0  2  0  0  3  0  0  0  0  0  0
  194.4260  171.6490  134.9020 C   0  0  0  0  0  0  0  0  0  0  0  0
  193.9480  169.4040  134.3620 O   0  0  0  0  0  1  0  0  0  0  0  0
  193.3700  170.6650  134.5280 C   0  0  0  0  0  2  0  0  0  0  0  0
  196.8370  175.4790  135.7570 C   0  0  0  0  0  2  0  0  0  0  0  0
  197.8670  175.5530  134.6400 C   0  0  0  0  0  2  0  0  0  0  0  0
  199.3910  173.5800  134.6520 C   0  0  0  0  0  2  0  0  0  0  0  0
  199.2020  175.0030  135.1210 C   0  0  2  0  0  3  0  0  0  0  0  0
  200.0920  173.9630  136.8870 C   0  0  0  0  0  2  0  0  0  0  0  0
  200.0490  172.9020  135.8120 C   0  0  0  0  0  2  0  0  0  0  0  0
  199.2410  175.0180  136.5220 O   0  0  0  0  0  0  0  0  0  0  0  0
  1  4  1  0  0  0  0
  2 34  1  1  0  0  0
  2  3  1  0  0  0  0
  2  5  1  0  0  0  0
  3  7  1  6  0  0  0
  3  1  1  0  0  0  0
  4 23  1  1  0  0  0
  5 22  1  1  0  0  0
  5  6  1  0  0  0  0
  6  4  1  0  0  0  0
  7  9  1  0  0  0  0
  8  7  2  0  0  0  0
 10  9  1  0  0  0  0
 11 13  1  0  0  0  0
 12 13  2  0  0  0  0
 13 10  1  0  0  0  0
 14 12  2  0  0  0  0
 14 15  1  0  0  0  0
 15 16  1  6  0  0  0
 15 18  1  0  0  0  0
 15 19  1  0  0  0  0
 17 18  1  0  0  0  0
 19 20  1  0  0  0  0
 22 21  1  0  0  0  0
 23 24  1  0  0  0  0
 24 26  1  0  0  0  0
 26 25  1  1  0  0  0
 26 27  1  0  0  0  0
 27 28  1  1  0  0  0
 27 32  1  0  0  0  0
 28 29  1  0  0  0  0
 30 28  1  0  0  0  0
 32 31  1  0  0  0  0
 32 33  1  0  0  0  0
 34 38  1  6  0  0  0
 35 36  2  0  0  0  0
 36 34  1  0  0  0  0
 37 36  1  0  0  0  0
 39 40  1  0  0  0  0
 39 38  1  0  0  0  0
 40 41  1  0  0  0  0
 41 43  1  0  0  0  0
 43 42  2  0  0  0  0
 44 53  1  0  0  0  0
 44 49  1  0  0  0  0
 45 46  1  0  0  0  0
 45 50  2  0  0  0  0
 46 44  2  0  0  0  0
 47 48  2  0  0  0  0
 48 49  1  0  0  0  0
 49 43  1  6  0  0  0
 50 47  1  0  0  0  0
 51 52  1  0  0  0  0
 52 50  1  0  0  0  0
 54 53  1  0  0  0  0
 55 56  1  0  0  0  0
 55 58  1  0  0  0  0
 56 54  1  1  0  0  0
 56 59  1  0  0  0  0
 58 57  1  0  0  0  0
 59 57  1  0  0  0  0
M  END
>  <MODEL>
2

>  <REMARK>
 VINA RESULT:      -5.7      1.460      3.153
  Name = 
  26 active torsions:
  status: ('A' for Active; 'I' for Inactive)
    1  A    between atoms: C_1  and  C_50
    2  A    between atoms: C_3  and  C_5
    3  A    between atoms: C_4  and  C_18
    4  A    between atoms: C_5  and  C_6
    5  A    between atoms: C_5  and  C_29
    6  A    between atoms: C_6  and  C_57
    7  A    between atoms: O_13  and  C_38
    8  A    between atoms: O_13  and  C_54
    9  A    between atoms: N_15  and  C_42
   10  A    between atoms: C_17  and  C_28
   11  A    between atoms: C_17  and  C_47
   12  A    between atoms: C_18  and  C_53
   13  A    between atoms: C_18  and  C_59
   14  A    between atoms: C_20  and  C_21
   15  A    between atoms: C_21  and  O_30
   16  A    between atoms: C_23  and  C_33
   17  A    between atoms: C_25  and  C_28
   18  A    between atoms: O_30  and  N_56
   19  A    between atoms: C_33  and  C_50
   20  A    between atoms: C_34  and  O_58
   21  A    between atoms: C_37  and  C_42
   22  A    between atoms: C_38  and  C_39
   23  A    between atoms: C_41  and  C_46
   24  A    between atoms: C_42  and  C_47
   25  A    between atoms: C_43  and  N_56
   26  A    between atoms: C_54  and  C_57
                            x       y       z     vdW  Elec       q    Type
                         _______ _______ _______ _____ _____    ______ ____

>  <TORSDO>
F 26

$$$$
=
 OpenBabel10232409513D

 59 61  0  0  1  0  0  0  0  0999 V2000
  183.2370  177.1180  139.0160 C   0  0  0  0  0  2  0  0  0  0  0  0
  182.1110  179.3580  139.4050 C   0  0  1  0  0  3  0  0  0  0  0  0
  183.2850  178.6180  138.7320 C   0  0  1  0  0  3  0  0  0  0  0  0
  181.9300  176.5370  138.4710 C   0  0  2  0  0  3  0  0  0  0  0  0
  180.7930  178.7710  138.8620 C   0  0  2  0  0  3  0  0  0  0  0  0
  180.7250  177.2530  139.0820 C   0  0  0  0  0  2  0  0  0  0  0  0
  184.6290  179.2180  139.0020 C   0  0  0  0  0  0  0  0  0  0  0  0
  184.8470  179.7600  140.1180 O   0  0  0  0  0  0  0  0  0  0  0  0
  185.6480  179.1190  138.0470 O   0  0  0  0  0  0  0  0  0  0  0  0
  186.3400  177.9470  137.8030 N   0  0  0  0  0  2  0  0  0  0  0  0
  188.0590  178.3820  139.6160 C   0  0  0  0  0  1  0  0  0  0  0  0
  188.3370  176.7080  137.9140 C   0  0  0  0  0  0  0  0  0  0  0  0
  187.5440  177.5690  138.4800 C   0  0  0  0  0  0  0  0  0  0  0  0
  189.1350  175.8490  137.3320 C   0  0  0  0  0  3  0  0  0  0  0  0
  188.6690  174.8920  136.2700 C   0  0  2  0  0  0  0  0  0  0  0  0
  187.7200  175.6190  135.3280 C   0  0  0  0  0  1  0  0  0  0  0  0
  187.8100  172.5160  135.9250 C   0  0  0  0  0  1  0  0  0  0  0  0
  187.9300  173.6950  136.8840 C   0  0  0  0  0  2  0  0  0  0  0  0
  189.8930  174.4270  135.4750 C   0  0  0  0  0  2  0  0  0  0  0  0
  190.0930  175.2290  134.3470 O   0  0  0  0  0  1  0  0  0  0  0  0
  180.9790  180.4170  137.3900 C   0  0  0  0  0  1  0  0  0  0  0  0
  180.6460  179.0690  137.5060 O   0  0  0  0  0  0  0  0  0  0  0  0
  181.8420  175.0550  138.7890 C   0  0  0  0  0  2  0  0  0  0  0  0
  181.1890  174.3010  137.6370 C   0  0  0  0  0  2  0  0  0  0  0  0
  182.3210  174.2920  135.3880 C   0  0  0  0  0  1  0  0  0  0  0  0
  182.2410  173.6340  136.7630 C   0  0  2  0  0  3  0  0  0  0  0  0
  182.0840  172.0920  136.7140 C   0  0  2  0  0  3  0  0  0  0  0  0
  183.4170  171.3350  136.7000 C   0  0  0  0  0  3  0  0  0  0  0  0
  184.5620  172.1590  137.2610 C   0  0  0  0  0  1  0  0  0  0  0  0
  183.7550  170.8920  135.2920 C   0  0  0  0  0  1  0  0  0  0  0  0
  180.5340  172.4830  134.8570 C   0  0  0  0  0  1  0  0  0  0  0  0
  181.0830  171.5120  135.7920 N   0  0  0  0  0  0  0  0  0  0  0  0
  179.9840  170.9760  136.5760 C   0  0  0  0  0  1  0  0  0  0  0  0
  182.1780  179.3370  140.9580 C   0  0  1  0  0  3  0  0  0  0  0  0
  180.2380  180.6130  141.4360 O   0  0  0  0  0  0  0  0  0  0  0  0
  180.8390  179.5620  141.5980 C   0  0  0  0  0  0  0  0  0  0  0  0
  180.2240  178.4850  142.4240 C   0  0  0  0  0  1  0  0  0  0  0  0
  182.8550  178.0920  141.5450 C   0  0  0  0  0  2  0  0  0  0  0  0
  183.7990  178.4220  142.6900 C   0  0  0  0  0  2  0  0  0  0  0  0
  185.1010  177.6900  142.4750 C   0  0  0  0  0  2  0  0  0  0  0  0
  185.9860  177.9580  143.5520 O   0  0  0  0  0  0  0  0  0  0  0  0
  187.9540  178.8310  142.7690 O   0  0  0  0  0  0  0  0  0  0  0  0
  187.3720  177.9070  143.3960 C   0  0  0  0  0  0  0  0  0  0  0  0
  189.0400  177.2660  145.1420 C   0  0  0  0  0  0  0  0  0  0  0  0
  190.8850  178.1290  143.6660 C   0  0  0  0  0  3  0  0  0  0  0  0
  190.1970  177.9070  144.9510 C   0  0  0  0  0  3  0  0  0  0  0  0
  189.9610  176.2010  142.3730 C   0  0  0  0  0  3  0  0  0  0  0  0
  188.8460  175.8980  143.0350 C   0  0  0  0  0  3  0  0  0  0  0  0
  188.1670  176.7940  144.0220 C   0  0  2  0  0  3  0  0  0  0  0  0
  190.7710  177.4230  142.5340 C   0  0  0  0  0  0  0  0  0  0  0  0
  192.5520  176.8700  141.0910 O   0  0  0  0  0  1  0  0  0  0  0  0
  191.5970  177.8510  141.3690 C   0  0  0  0  0  2  0  0  0  0  0  0
  188.4770  177.2060  146.5210 C   0  0  0  0  0  2  0  0  0  0  0  0
  188.0970  178.5950  147.0090 C   0  0  0  0  0  2  0  0  0  0  0  0
  185.9390  177.3470  146.9550 C   0  0  0  0  0  2  0  0  0  0  0  0
  186.5950  178.6760  147.2450 C   0  0  2  0  0  3  0  0  0  0  0  0
  184.7170  179.2230  146.1640 C   0  0  0  0  0  2  0  0  0  0  0  0
  184.6500  177.7180  146.2920 C   0  0  0  0  0  2  0  0  0  0  0  0
  186.0370  179.6420  146.3960 O   0  0  0  0  0  0  0  0  0  0  0  0
  2 34  1  1  0  0  0
  3  7  1  1  0  0  0
  3  1  1  0  0  0  0
  3  2  1  0  0  0  0
  4 23  1  1  0  0  0
  4  1  1  0  0  0  0
  4  6  1  0  0  0  0
  5 22  1  6  0  0  0
  5  6  1  0  0  0  0
  5  2  1  0  0  0  0
  7  8  2  0  0  0  0
  9  7  1  0  0  0  0
 10  9  1  0  0  0  0
 10 13  1  0  0  0  0
 12 13  2  0  0  0  0
 13 11  1  0  0  0  0
 14 12  2  0  0  0  0
 15 16  1  6  0  0  0
 15 18  1  0  0  0  0
 15 14  1  0  0  0  0
 17 18  1  0  0  0  0
 19 15  1  0  0  0  0
 20 19  1  0  0  0  0
 21 22  1  0  0  0  0
 24 23  1  0  0  0  0
 26 25  1  6  0  0  0
 26 24  1  0  0  0  0
 27 28  1  6  0  0  0
 27 26  1  0  0  0  0
 28 29  1  0  0  0  0
 30 28  1  0  0  0  0
 31 32  1  0  0  0  0
 32 33  1  0  0  0  0
 32 27  1  0  0  0  0
 34 38  1  6  0  0  0
 34 36  1  0  0  0  0
 35 36  2  0  0  0  0
 36 37  1  0  0  0  0
 38 39  1  0  0  0  0
 40 39  1  0  0  0  0
 40 41  1  0  0  0  0
 42 43  2  0  0  0  0
 43 41  1  0  0  0  0
 44 53  1  0  0  0  0
 45 46  1  0  0  0  0
 46 44  2  0  0  0  0
 47 50  1  0  0  0  0
 47 48  2  0  0  0  0
 48 49  1  0  0  0  0
 49 43  1  6  0  0  0
 49 44  1  0  0  0  0
 50 45  2  0  0  0  0
 51 52  1  0  0  0  0
 52 50  1  0  0  0  0
 53 54  1  0  0  0  0
 55 56  1  0  0  0  0
 56 54  1  6  0  0  0
 57 58  1  0  0  0  0
 57 59  1  0  0  0  0
 58 55  1  0  0  0  0
 59 56  1  0  0  0  0
M  END
>  <MODEL>
3

>  <REMARK>
 VINA RESULT:      -4.9      4.441     10.600
  Name = 
  26 active torsions:
  status: ('A' for Active; 'I' for Inactive)
    1  A    between atoms: C_1  and  C_50
    2  A    between atoms: C_3  and  C_5
    3  A    between atoms: C_4  and  C_18
    4  A    between atoms: C_5  and  C_6
    5  A    between atoms: C_5  and  C_29
    6  A    between atoms: C_6  and  C_57
    7  A    between atoms: O_13  and  C_38
    8  A    between atoms: O_13  and  C_54
    9  A    between atoms: N_15  and  C_42
   10  A    between atoms: C_17  and  C_28
   11  A    between atoms: C_17  and  C_47
   12  A    between atoms: C_18  and  C_53
   13  A    between atoms: C_18  and  C_59
   14  A    between atoms: C_20  and  C_21
   15  A    between atoms: C_21  and  O_30
   16  A    between atoms: C_23  and  C_33
   17  A    between atoms: C_25  and  C_28
   18  A    between atoms: O_30  and  N_56
   19  A    between atoms: C_33  and  C_50
   20  A    between atoms: C_34  and  O_58
   21  A    between atoms: C_37  and  C_42
   22  A    between atoms: C_38  and  C_39
   23  A    between atoms: C_41  and  C_46
   24  A    between atoms: C_42  and  C_47
   25  A    between atoms: C_43  and  N_56
   26  A    between atoms: C_54  and  C_57
                            x       y       z     vdW  Elec       q    Type
                         _______ _______ _______ _____ _____    ______ ____

>  <TORSDO>
F 26

$$$$
=
 OpenBabel10232409513D

 59 61  0  0  1  0  0  0  0  0999 V2000
  190.4920  174.9980  137.4430 C   0  0  0  0  0  2  0  0  0  0  0  0
  188.8050  176.5990  136.4290 C   0  0  1  0  0  3  0  0  0  0  0  0
  190.0540  176.4560  137.3230 C   0  0  1  0  0  3  0  0  0  0  0  0
  190.8310  174.4490  136.0550 C   0  0  2  0  0  3  0  0  0  0  0  0
  189.1430  176.0420  135.0320 C   0  0  2  0  0  3  0  0  0  0  0  0
  189.6360  174.5900  135.1120 C   0  0  0  0  0  2  0  0  0  0  0  0
  189.9480  177.1430  138.6470 C   0  0  0  0  0  0  0  0  0  0  0  0
  189.2380  178.1790  138.7460 O   0  0  0  0  0  0  0  0  0  0  0  0
  190.5790  176.6020  139.7730 O   0  0  0  0  0  0  0  0  0  0  0  0
  189.9940  176.5770  141.0250 N   0  0  0  0  0  2  0  0  0  0  0  0
  191.8090  177.7450  142.3570 C   0  0  0  0  0  1  0  0  0  0  0  0
  189.5060  177.6860  143.0420 C   0  0  0  0  0  0  0  0  0  0  0  0
  190.3740  177.4340  142.1070 C   0  0  0  0  0  0  0  0  0  0  0  0
  188.6290  177.9270  143.9830 C   0  0  0  0  0  3  0  0  0  0  0  0
  187.1470  177.7720  143.7780 C   0  0  2  0  0  0  0  0  0  0  0  0
  186.7580  176.3240  144.0370 C   0  0  0  0  0  1  0  0  0  0  0  0
  185.2330  178.2230  142.1560 C   0  0  0  0  0  1  0  0  0  0  0  0
  186.7430  178.1400  142.3430 C   0  0  0  0  0  2  0  0  0  0  0  0
  186.4280  178.6660  144.7930 C   0  0  0  0  0  2  0  0  0  0  0  0
  186.1170  177.9550  145.9560 O   0  0  0  0  0  1  0  0  0  0  0  0
  189.5720  178.1330  134.4340 C   0  0  0  0  0  1  0  0  0  0  0  0
  190.0980  176.8420  134.4030 O   0  0  0  0  0  0  0  0  0  0  0  0
  191.2210  172.9850  136.1500 C   0  0  0  0  0  2  0  0  0  0  0  0
  192.6080  172.8410  136.7620 C   0  0  0  0  0  2  0  0  0  0  0  0
  193.3200  172.8580  134.3470 C   0  0  0  0  0  1  0  0  0  0  0  0
  193.5950  172.2960  135.7400 C   0  0  2  0  0  3  0  0  0  0  0  0
  193.7050  170.7500  135.7840 C   0  0  2  0  0  3  0  0  0  0  0  0
  195.0160  170.2400  136.3930 C   0  0  0  0  0  3  0  0  0  0  0  0
  195.3220  170.8790  137.7360 C   0  0  0  0  0  1  0  0  0  0  0  0
  196.1680  170.4860  135.4410 C   0  0  0  0  0  1  0  0  0  0  0  0
  191.8500  170.0380  134.3490 C   0  0  0  0  0  1  0  0  0  0  0  0
  193.2840  169.9770  134.5950 N   0  0  0  0  0  0  0  0  0  0  0  0
  193.6440  168.5840  134.7930 C   0  0  0  0  0  1  0  0  0  0  0  0
  187.5340  175.9460  137.0400 C   0  0  1  0  0  3  0  0  0  0  0  0
  186.2320  177.4900  138.2820 O   0  0  0  0  0  0  0  0  0  0  0  0
  186.4080  176.9240  137.2140 C   0  0  0  0  0  0  0  0  0  0  0  0
  185.5050  177.2240  136.0670 C   0  0  0  0  0  1  0  0  0  0  0  0
  187.0500  174.6920  136.3030 C   0  0  0  0  0  2  0  0  0  0  0  0
  186.3020  173.7290  137.2110 C   0  0  0  0  0  2  0  0  0  0  0  0
  185.4690  172.8020  136.3600 C   0  0  0  0  0  2  0  0  0  0  0  0
  184.2480  173.4360  136.0130 O   0  0  0  0  0  0  0  0  0  0  0  0
  183.7460  173.9500  138.1890 O   0  0  0  0  0  0  0  0  0  0  0  0
  183.3820  173.9450  136.9840 C   0  0  0  0  0  0  0  0  0  0  0  0
  181.0470  174.4850  137.6880 C   0  0  0  0  0  0  0  0  0  0  0  0
  180.4010  172.0830  137.3130 C   0  0  0  0  0  3  0  0  0  0  0  0
  180.3830  173.3750  138.0250 C   0  0  0  0  0  3  0  0  0  0  0  0
  180.9940  172.8890  135.0240 C   0  0  0  0  0  3  0  0  0  0  0  0
  181.5560  174.0740  135.2560 C   0  0  0  0  0  3  0  0  0  0  0  0
  182.0570  174.5370  136.5860 C   0  0  2  0  0  3  0  0  0  0  0  0
  180.6930  171.8510  136.0270 C   0  0  0  0  0  0  0  0  0  0  0  0
  181.9020  169.9980  135.2090 O   0  0  0  0  0  1  0  0  0  0  0  0
  180.6200  170.4410  135.5480 C   0  0  0  0  0  2  0  0  0  0  0  0
  180.9450  175.6750  138.5820 C   0  0  0  0  0  2  0  0  0  0  0  0
  180.7960  176.9490  137.7660 C   0  0  0  0  0  2  0  0  0  0  0  0
  180.9770  179.4350  137.8250 C   0  0  0  0  0  2  0  0  0  0  0  0
  181.0680  178.1660  138.6390 C   0  0  2  0  0  3  0  0  0  0  0  0
  182.7800  179.4030  139.3700 C   0  0  0  0  0  2  0  0  0  0  0  0
  182.0820  180.2890  138.3630 C   0  0  0  0  0  2  0  0  0  0  0  0
  182.3580  178.0770  139.1810 O   0  0  0  0  0  0  0  0  0  0  0  0
  2 34  1  1  0  0  0
  2  3  1  0  0  0  0
  3  1  1  0  0  0  0
  3  7  1  1  0  0  0
  4 23  1  1  0  0  0
  4  1  1  0  0  0  0
  5 22  1  1  0  0  0
  5  6  1  0  0  0  0
  5  2  1  0  0  0  0
  6  4  1  0  0  0  0
  7  8  2  0  0  0  0
  7  9  1  0  0  0  0
  9 10  1  0  0  0  0
 10 13  1  0  0  0  0
 12 14  2  0  0  0  0
 13 11  1  0  0  0  0
 13 12  2  0  0  0  0
 15 14  1  0  0  0  0
 15 16  1  1  0  0  0
 15 19  1  0  0  0  0
 17 18  1  0  0  0  0
 18 15  1  0  0  0  0
 19 20  1  0  0  0  0
 22 21  1  0  0  0  0
 23 24  1  0  0  0  0
 26 25  1  6  0  0  0
 26 27  1  0  0  0  0
 26 24  1  0  0  0  0
 27 28  1  6  0  0  0
 28 29  1  0  0  0  0
 30 28  1  0  0  0  0
 31 32  1  0  0  0  0
 32 33  1  0  0  0  0
 32 27  1  0  0  0  0
 34 38  1  6  0  0  0
 34 36  1  0  0  0  0
 36 35  2  0  0  0  0
 37 36  1  0  0  0  0
 38 39  1  0  0  0  0
 40 39  1  0  0  0  0
 41 40  1  0  0  0  0
 41 43  1  0  0  0  0
 43 42  2  0  0  0  0
 44 46  2  0  0  0  0
 44 53  1  0  0  0  0
 45 46  1  0  0  0  0
 47 48  2  0  0  0  0
 47 50  1  0  0  0  0
 48 49  1  0  0  0  0
 49 43  1  1  0  0  0
 49 44  1  0  0  0  0
 50 45  2  0  0  0  0
 51 52  1  0  0  0  0
 52 50  1  0  0  0  0
 54 53  1  0  0  0  0
 55 58  1  0  0  0  0
 55 56  1  0  0  0  0
 56 54  1  6  0  0  0
 56 59  1  0  0  0  0
 58 57  1  0  0  0  0
 59 57  1  0  0  0  0
M  END
>  <MODEL>
4

>  <REMARK>
 VINA RESULT:      -4.4      3.612     11.498
  Name = 
  26 active torsions:
  status: ('A' for Active; 'I' for Inactive)
    1  A    between atoms: C_1  and  C_50
    2  A    between atoms: C_3  and  C_5
    3  A    between atoms: C_4  and  C_18
    4  A    between atoms: C_5  and  C_6
    5  A    between atoms: C_5  and  C_29
    6  A    between atoms: C_6  and  C_57
    7  A    between atoms: O_13  and  C_38
    8  A    between atoms: O_13  and  C_54
    9  A    between atoms: N_15  and  C_42
   10  A    between atoms: C_17  and  C_28
   11  A    between atoms: C_17  and  C_47
   12  A    between atoms: C_18  and  C_53
   13  A    between atoms: C_18  and  C_59
   14  A    between atoms: C_20  and  C_21
   15  A    between atoms: C_21  and  O_30
   16  A    between atoms: C_23  and  C_33
   17  A    between atoms: C_25  and  C_28
   18  A    between atoms: O_30  and  N_56
   19  A    between atoms: C_33  and  C_50
   20  A    between atoms: C_34  and  O_58
   21  A    between atoms: C_37  and  C_42
   22  A    between atoms: C_38  and  C_39
   23  A    between atoms: C_41  and  C_46
   24  A    between atoms: C_42  and  C_47
   25  A    between atoms: C_43  and  N_56
   26  A    between atoms: C_54  and  C_57
                            x       y       z     vdW  Elec       q    Type
                         _______ _______ _______ _____ _____    ______ ____

>  <TORSDO>
F 26

$$$$
=
 OpenBabel10232409513D

 59 61  0  0  1  0  0  0  0  0999 V2000
  190.0610  176.5400  138.8760 C   0  0  0  0  0  2  0  0  0  0  0  0
  188.2640  177.5340  137.3850 C   0  0  1  0  0  3  0  0  0  0  0  0
  189.1310  177.7300  138.6460 C   0  0  1  0  0  3  0  0  0  0  0  0
  190.9940  176.3810  137.6730 C   0  0  2  0  0  3  0  0  0  0  0  0
  189.2020  177.3680  136.1730 C   0  0  2  0  0  3  0  0  0  0  0  0
  190.1890  176.2110  136.3840 C   0  0  0  0  0  2  0  0  0  0  0  0
  188.3620  178.1120  139.8710 C   0  0  0  0  0  0  0  0  0  0  0  0
  187.3660  178.8750  139.7570 O   0  0  0  0  0  0  0  0  0  0  0  0
  188.7110  177.5760  141.1160 O   0  0  0  0  0  0  0  0  0  0  0  0
  188.2980  178.1270  142.3150 N   0  0  0  0  0  2  0  0  0  0  0  0
  186.4250  177.1490  143.7180 C   0  0  0  0  0  1  0  0  0  0  0  0
  188.7310  177.1150  144.3940 C   0  0  0  0  0  0  0  0  0  0  0  0
  187.8740  177.3600  143.4470 C   0  0  0  0  0  0  0  0  0  0  0  0
  189.5970  176.8810  145.3470 C   0  0  0  0  0  3  0  0  0  0  0  0
  191.0840  176.9360  145.1310 C   0  0  2  0  0  0  0  0  0  0  0  0
  191.4800  178.3600  144.7670 C   0  0  0  0  0  1  0  0  0  0  0  0
  191.9240  174.6170  144.4850 C   0  0  0  0  0  1  0  0  0  0  0  0
  191.5160  176.0000  143.9920 C   0  0  0  0  0  2  0  0  0  0  0  0
  191.7730  176.5520  146.4430 C   0  0  0  0  0  2  0  0  0  0  0  0
  191.5720  177.5310  147.4210 O   0  0  0  0  0  1  0  0  0  0  0  0
  189.0050  179.5740  136.2560 C   0  0  0  0  0  1  0  0  0  0  0  0
  189.8940  178.5540  135.9230 O   0  0  0  0  0  0  0  0  0  0  0  0
  191.8920  175.1710  137.8620 C   0  0  0  0  0  2  0  0  0  0  0  0
  193.3580  175.5770  137.7750 C   0  0  0  0  0  2  0  0  0  0  0  0
  195.2270  174.2960  138.8740 C   0  0  0  0  0  1  0  0  0  0  0  0
  194.2540  174.3490  137.6990 C   0  0  2  0  0  3  0  0  0  0  0  0
  194.9320  174.1920  136.3130 C   0  0  2  0  0  3  0  0  0  0  0  0
  196.4170  173.8200  136.3900 C   0  0  0  0  0  3  0  0  0  0  0  0
  197.2750  174.6460  135.4480 C   0  0  0  0  0  1  0  0  0  0  0  0
  196.6060  172.3490  136.0900 C   0  0  0  0  0  1  0  0  0  0  0  0
  194.5120  176.5500  135.7910 C   0  0  0  0  0  1  0  0  0  0  0  0
  194.6440  175.1970  135.2680 N   0  0  0  0  0  0  0  0  0  0  0  0
  193.3930  174.8470  134.6160 C   0  0  0  0  0  1  0  0  0  0  0  0
  187.2440  176.3680  137.5150 C   0  0  1  0  0  3  0  0  0  0  0  0
  185.4830  177.6710  136.6080 O   0  0  0  0  0  0  0  0  0  0  0  0
  185.8190  176.8340  137.4320 C   0  0  0  0  0  0  0  0  0  0  0  0
  184.7970  176.2560  138.3500 C   0  0  0  0  0  1  0  0  0  0  0  0
  187.4880  175.2040  136.5480 C   0  0  0  0  0  2  0  0  0  0  0  0
  186.7290  175.3580  135.2400 C   0  0  0  0  0  2  0  0  0  0  0  0
  185.6720  174.2830  135.1590 C   0  0  0  0  0  2  0  0  0  0  0  0
  184.3830  174.8750  135.1830 O   0  0  0  0  0  0  0  0  0  0  0  0
  183.3220  172.8680  135.4900 O   0  0  0  0  0  0  0  0  0  0  0  0
  183.2220  174.1070  135.2850 C   0  0  0  0  0  0  0  0  0  0  0  0
  181.3440  175.1480  136.5610 C   0  0  0  0  0  0  0  0  0  0  0  0
  180.5140  172.8540  137.1720 C   0  0  0  0  0  3  0  0  0  0  0  0
  180.8140  174.2760  137.4230 C   0  0  0  0  0  3  0  0  0  0  0  0
  180.2350  172.9300  134.6900 C   0  0  0  0  0  3  0  0  0  0  0  0
  180.8870  174.0390  134.3460 C   0  0  0  0  0  3  0  0  0  0  0  0
  181.8690  174.7590  135.2150 C   0  0  2  0  0  3  0  0  0  0  0  0
  180.2940  172.2500  135.9980 C   0  0  0  0  0  0  0  0  0  0  0  0
  181.0690  170.0860  135.4730 O   0  0  0  0  0  1  0  0  0  0  0  0
  179.9930  170.7900  136.0200 C   0  0  0  0  0  2  0  0  0  0  0  0
  181.6310  176.5340  137.0340 C   0  0  0  0  0  2  0  0  0  0  0  0
  180.4980  177.0490  137.9070 C   0  0  0  0  0  2  0  0  0  0  0  0
  180.5640  179.5390  138.0040 C   0  0  0  0  0  2  0  0  0  0  0  0
  180.9590  178.2610  138.7040 C   0  0  2  0  0  3  0  0  0  0  0  0
  182.7480  179.5810  138.9350 C   0  0  0  0  0  2  0  0  0  0  0  0
  181.7350  180.4460  138.2180 C   0  0  0  0  0  2  0  0  0  0  0  0
  182.3550  178.2380  138.8310 O   0  0  0  0  0  0  0  0  0  0  0  0
  2 34  1  1  0  0  0
  2  3  1  0  0  0  0
  3  1  1  0  0  0  0
  3  7  1  1  0  0  0
  4 23  1  1  0  0  0
  4  1  1  0  0  0  0
  5 22  1  1  0  0  0
  5  6  1  0  0  0  0
  5  2  1  0  0  0  0
  6  4  1  0  0  0  0
  7  9  1  0  0  0  0
  8  7  2  0  0  0  0
  9 10  1  0  0  0  0
 10 13  1  0  0  0  0
 12 14  2  0  0  0  0
 13 11  1  0  0  0  0
 13 12  2  0  0  0  0
 15 16  1  6  0  0  0
 15 14  1  0  0  0  0
 15 19  1  0  0  0  0
 18 17  1  0  0  0  0
 18 15  1  0  0  0  0
 19 20  1  0  0  0  0
 22 21  1  0  0  0  0
 24 23  1  0  0  0  0
 26 24  1  0  0  0  0
 26 25  1  1  0  0  0
 27 28  1  1  0  0  0
 27 26  1  0  0  0  0
 29 28  1  0  0  0  0
 30 28  1  0  0  0  0
 32 31  1  0  0  0  0
 32 27  1  0  0  0  0
 33 32  1  0  0  0  0
 34 38  1  6  0  0  0
 35 36  2  0  0  0  0
 36 34  1  0  0  0  0
 36 37  1  0  0  0  0
 39 38  1  0  0  0  0
 40 41  1  0  0  0  0
 40 39  1  0  0  0  0
 41 43  1  0  0  0  0
 43 42  2  0  0  0  0
 44 53  1  0  0  0  0
 44 46  2  0  0  0  0
 45 46  1  0  0  0  0
 47 50  1  0  0  0  0
 48 47  2  0  0  0  0
 48 49  1  0  0  0  0
 49 43  1  1  0  0  0
 49 44  1  0  0  0  0
 50 52  1  0  0  0  0
 50 45  2  0  0  0  0
 51 52  1  0  0  0  0
 53 54  1  0  0  0  0
 55 58  1  0  0  0  0
 55 56  1  0  0  0  0
 56 54  1  6  0  0  0
 56 59  1  0  0  0  0
 58 57  1  0  0  0  0
 59 57  1  0  0  0  0
M  END
>  <MODEL>
5

>  <REMARK>
 VINA RESULT:      -3.5      3.529     11.655
  Name = 
  26 active torsions:
  status: ('A' for Active; 'I' for Inactive)
    1  A    between atoms: C_1  and  C_50
    2  A    between atoms: C_3  and  C_5
    3  A    between atoms: C_4  and  C_18
    4  A    between atoms: C_5  and  C_6
    5  A    between atoms: C_5  and  C_29
    6  A    between atoms: C_6  and  C_57
    7  A    between atoms: O_13  and  C_38
    8  A    between atoms: O_13  and  C_54
    9  A    between atoms: N_15  and  C_42
   10  A    between atoms: C_17  and  C_28
   11  A    between atoms: C_17  and  C_47
   12  A    between atoms: C_18  and  C_53
   13  A    between atoms: C_18  and  C_59
   14  A    between atoms: C_20  and  C_21
   15  A    between atoms: C_21  and  O_30
   16  A    between atoms: C_23  and  C_33
   17  A    between atoms: C_25  and  C_28
   18  A    between atoms: O_30  and  N_56
   19  A    between atoms: C_33  and  C_50
   20  A    between atoms: C_34  and  O_58
   21  A    between atoms: C_37  and  C_42
   22  A    between atoms: C_38  and  C_39
   23  A    between atoms: C_41  and  C_46
   24  A    between atoms: C_42  and  C_47
   25  A    between atoms: C_43  and  N_56
   26  A    between atoms: C_54  and  C_57
                            x       y       z     vdW  Elec       q    Type
                         _______ _______ _______ _____ _____    ______ ____

>  <TORSDO>
F 26

$$$$
=
 OpenBabel10232409513D

 59 61  0  0  1  0  0  0  0  0999 V2000
  188.0910  177.2180  141.0800 C   0  0  0  0  0  2  0  0  0  0  0  0
  190.2460  177.6040  139.7980 C   0  0  1  0  0  3  0  0  0  0  0  0
  188.8290  178.1300  140.1030 C   0  0  1  0  0  3  0  0  0  0  0  0
  188.8670  177.1440  142.3970 C   0  0  2  0  0  3  0  0  0  0  0  0
  191.0290  177.5230  141.1230 C   0  0  2  0  0  3  0  0  0  0  0  0
  190.2950  176.6520  142.1540 C   0  0  0  0  0  2  0  0  0  0  0  0
  188.0180  178.4610  138.8900 C   0  0  0  0  0  0  0  0  0  0  0  0
  188.4340  179.3470  138.0960 O   0  0  0  0  0  0  0  0  0  0  0  0
  186.8470  177.7470  138.6100 O   0  0  0  0  0  0  0  0  0  0  0  0
  186.2410  177.7510  137.3670 N   0  0  0  0  0  2  0  0  0  0  0  0
  185.2650  175.9250  135.9040 C   0  0  0  0  0  1  0  0  0  0  0  0
  183.9490  177.2250  137.4370 C   0  0  0  0  0  0  0  0  0  0  0  0
  185.1370  176.9130  137.0100 C   0  0  0  0  0  0  0  0  0  0  0  0
  182.7560  177.5530  137.8630 C   0  0  0  0  0  3  0  0  0  0  0  0
  182.5300  178.4360  139.0590 C   0  0  2  0  0  0  0  0  0  0  0  0
  183.6880  178.2630  140.0310 C   0  0  0  0  0  1  0  0  0  0  0  0
  180.3100  177.1880  138.9430 C   0  0  0  0  0  1  0  0  0  0  0  0
  181.2240  178.0720  139.7810 C   0  0  0  0  0  2  0  0  0  0  0  0
  182.5000  179.8910  138.5810 C   0  0  0  0  0  2  0  0  0  0  0  0
  183.6550  180.5730  138.9750 O   0  0  0  0  0  1  0  0  0  0  0  0
  191.5440  178.6040  142.9890 C   0  0  0  0  0  1  0  0  0  0  0  0
  191.2500  178.8010  141.6410 O   0  0  0  0  0  0  0  0  0  0  0  0
  188.1740  176.2000  143.3630 C   0  0  0  0  0  2  0  0  0  0  0  0
  187.3480  176.9850  144.3750 C   0  0  0  0  0  2  0  0  0  0  0  0
  189.1470  176.0930  145.8940 C   0  0  0  0  0  1  0  0  0  0  0  0
  188.1400  177.2140  145.6540 C   0  0  2  0  0  3  0  0  0  0  0  0
  187.2270  177.5110  146.8730 C   0  0  2  0  0  3  0  0  0  0  0  0
  185.8480  178.0620  146.4920 C   0  0  0  0  0  3  0  0  0  0  0  0
  185.8630  179.5630  146.2620 C   0  0  0  0  0  1  0  0  0  0  0  0
  184.8330  177.7240  147.5630 C   0  0  0  0  0  1  0  0  0  0  0  0
  189.2650  178.3050  147.9790 C   0  0  0  0  0  1  0  0  0  0  0  0
  187.8150  178.1910  148.0470 N   0  0  0  0  0  0  0  0  0  0  0  0
  187.4830  177.4310  149.2400 C   0  0  0  0  0  1  0  0  0  0  0  0
  190.2480  176.2570  139.0210 C   0  0  1  0  0  3  0  0  0  0  0  0
  190.4030  177.3190  136.9070 O   0  0  0  0  0  0  0  0  0  0  0  0
  189.9000  176.4250  137.5700 C   0  0  0  0  0  0  0  0  0  0  0  0
  188.9450  175.4810  136.9250 C   0  0  0  0  0  1  0  0  0  0  0  0
  191.5350  175.4390  139.1760 C   0  0  0  0  0  2  0  0  0  0  0  0
  192.5630  175.7540  138.1010 C   0  0  0  0  0  2  0  0  0  0  0  0
  193.5420  174.6080  138.0100 C   0  0  0  0  0  2  0  0  0  0  0  0
  194.8250  175.0990  137.6550 O   0  0  0  0  0  0  0  0  0  0  0  0
  196.3720  173.6350  138.5000 O   0  0  0  0  0  0  0  0  0  0  0  0
  195.9200  174.2480  137.4960 C   0  0  0  0  0  0  0  0  0  0  0  0
  196.6520  175.2780  135.3420 C   0  0  0  0  0  0  0  0  0  0  0  0
  194.2530  175.3590  134.5900 C   0  0  0  0  0  3  0  0  0  0  0  0
  195.6270  175.8770  134.7290 C   0  0  0  0  0  3  0  0  0  0  0  0
  194.7230  172.9120  134.7690 C   0  0  0  0  0  3  0  0  0  0  0  0
  195.9020  172.8740  135.3870 C   0  0  0  0  0  3  0  0  0  0  0  0
  196.5130  174.0160  136.1340 C   0  0  2  0  0  3  0  0  0  0  0  0
  193.8400  174.0860  134.6370 C   0  0  0  0  0  0  0  0  0  0  0  0
  191.9820  172.7980  135.3050 O   0  0  0  0  0  1  0  0  0  0  0  0
  192.3850  173.8270  134.4490 C   0  0  0  0  0  2  0  0  0  0  0  0
  197.9520  176.0030  135.4300 C   0  0  0  0  0  2  0  0  0  0  0  0
  199.0990  175.1050  134.9930 C   0  0  0  0  0  2  0  0  0  0  0  0
  199.8260  173.0910  136.2690 C   0  0  0  0  0  2  0  0  0  0  0  0
  199.8620  174.5990  136.2090 C   0  0  2  0  0  3  0  0  0  0  0  0
  199.5340  174.1500  138.3730 C   0  0  0  0  0  2  0  0  0  0  0  0
  199.6750  172.7910  137.7280 C   0  0  0  0  0  2  0  0  0  0  0  0
  199.2750  175.1040  137.3770 O   0  0  0  0  0  0  0  0  0  0  0  0
  1  4  1  0  0  0  0
  2 34  1  1  0  0  0
  2  3  1  0  0  0  0
  2  5  1  0  0  0  0
  3  7  1  6  0  0  0
  3  1  1  0  0  0  0
  4 23  1  1  0  0  0
  5 22  1  1  0  0  0
  5  6  1  0  0  0  0
  6  4  1  0  0  0  0
  8  7  2  0  0  0  0
  9  7  1  0  0  0  0
 10  9  1  0  0  0  0
 11 13  1  0  0  0  0
 12 14  2  0  0  0  0
 13 10  1  0  0  0  0
 13 12  2  0  0  0  0
 14 15  1  0  0  0  0
 15 18  1  0  0  0  0
 15 16  1  1  0  0  0
 17 18  1  0  0  0  0
 19 20  1  0  0  0  0
 19 15  1  0  0  0  0
 22 21  1  0  0  0  0
 23 24  1  0  0  0  0
 24 26  1  0  0  0  0
 26 25  1  1  0  0  0
 26 27  1  0  0  0  0
 27 28  1  6  0  0  0
 27 32  1  0  0  0  0
 28 30  1  0  0  0  0
 29 28  1  0  0  0  0
 31 32  1  0  0  0  0
 32 33  1  0  0  0  0
 34 38  1  6  0  0  0
 35 36  2  0  0  0  0
 36 34  1  0  0  0  0
 37 36  1  0  0  0  0
 39 38  1  0  0  0  0
 40 39  1  0  0  0  0
 41 40  1  0  0  0  0
 43 41  1  0  0  0  0
 43 42  2  0  0  0  0
 44 53  1  0  0  0  0
 44 49  1  0  0  0  0
 45 50  2  0  0  0  0
 45 46  1  0  0  0  0
 46 44  2  0  0  0  0
 47 48  2  0  0  0  0
 48 49  1  0  0  0  0
 49 43  1  1  0  0  0
 50 47  1  0  0  0  0
 52 50  1  0  0  0  0
 52 51  1  0  0  0  0
 54 53  1  0  0  0  0
 55 58  1  0  0  0  0
 56 54  1  6  0  0  0
 56 55  1  0  0  0  0
 56 59  1  0  0  0  0
 58 57  1  0  0  0  0
 59 57  1  0  0  0  0
M  END
>  <MODEL>
6

>  <REMARK>
 VINA RESULT:      -3.5      2.017      3.066
  Name = 
  26 active torsions:
  status: ('A' for Active; 'I' for Inactive)
    1  A    between atoms: C_1  and  C_50
    2  A    between atoms: C_3  and  C_5
    3  A    between atoms: C_4  and  C_18
    4  A    between atoms: C_5  and  C_6
    5  A    between atoms: C_5  and  C_29
    6  A    between atoms: C_6  and  C_57
    7  A    between atoms: O_13  and  C_38
    8  A    between atoms: O_13  and  C_54
    9  A    between atoms: N_15  and  C_42
   10  A    between atoms: C_17  and  C_28
   11  A    between atoms: C_17  and  C_47
   12  A    between atoms: C_18  and  C_53
   13  A    between atoms: C_18  and  C_59
   14  A    between atoms: C_20  and  C_21
   15  A    between atoms: C_21  and  O_30
   16  A    between atoms: C_23  and  C_33
   17  A    between atoms: C_25  and  C_28
   18  A    between atoms: O_30  and  N_56
   19  A    between atoms: C_33  and  C_50
   20  A    between atoms: C_34  and  O_58
   21  A    between atoms: C_37  and  C_42
   22  A    between atoms: C_38  and  C_39
   23  A    between atoms: C_41  and  C_46
   24  A    between atoms: C_42  and  C_47
   25  A    between atoms: C_43  and  N_56
   26  A    between atoms: C_54  and  C_57
                            x       y       z     vdW  Elec       q    Type
                         _______ _______ _______ _____ _____    ______ ____

>  <TORSDO>
F 26

$$$$
=
 OpenBabel10232409513D

 59 61  0  0  1  0  0  0  0  0999 V2000
  183.9660  176.8830  139.1600 C   0  0  0  0  0  2  0  0  0  0  0  0
  183.4130  179.2840  139.7660 C   0  0  1  0  0  3  0  0  0  0  0  0
  184.3250  178.3520  138.9440 C   0  0  1  0  0  3  0  0  0  0  0  0
  182.5180  176.6420  138.7250 C   0  0  2  0  0  3  0  0  0  0  0  0
  181.9540  179.0390  139.3340 C   0  0  2  0  0  3  0  0  0  0  0  0
  181.5650  177.5620  139.4890 C   0  0  0  0  0  2  0  0  0  0  0  0
  185.7880  178.6220  139.1020 C   0  0  0  0  0  0  0  0  0  0  0  0
  186.2400  178.9090  140.2430 O   0  0  0  0  0  0  0  0  0  0  0  0
  186.6500  178.4930  138.0070 O   0  0  0  0  0  0  0  0  0  0  0  0
  186.4950  177.5200  137.0370 N   0  0  0  0  0  2  0  0  0  0  0  0
  186.8240  178.7470  134.8420 C   0  0  0  0  0  1  0  0  0  0  0  0
  187.5890  176.5000  135.2210 C   0  0  0  0  0  0  0  0  0  0  0  0
  187.0850  177.5840  135.7340 C   0  0  0  0  0  0  0  0  0  0  0  0
  188.0850  175.4030  134.7090 C   0  0  0  0  0  3  0  0  0  0  0  0
  188.5060  174.2280  135.5470 C   0  0  2  0  0  0  0  0  0  0  0  0
  188.4410  172.9650  134.7000 C   0  0  0  0  0  1  0  0  0  0  0  0
  187.3950  172.5920  137.1560 C   0  0  0  0  0  1  0  0  0  0  0  0
  187.5830  174.0510  136.7620 C   0  0  0  0  0  2  0  0  0  0  0  0
  189.9540  174.4500  135.9910 C   0  0  0  0  0  2  0  0  0  0  0  0
  190.0530  174.4800  137.3860 O   0  0  0  0  0  1  0  0  0  0  0  0
  180.5630  178.8560  137.6180 C   0  0  0  0  0  1  0  0  0  0  0  0
  181.7570  179.4550  138.0160 O   0  0  0  0  0  0  0  0  0  0  0  0
  182.1270  175.1970  138.9810 C   0  0  0  0  0  2  0  0  0  0  0  0
  180.9900  174.7810  138.0560 C   0  0  0  0  0  2  0  0  0  0  0  0
  180.2670  175.2710  135.6950 C   0  0  0  0  0  1  0  0  0  0  0  0
  181.4240  174.8550  136.6000 C   0  0  2  0  0  3  0  0  0  0  0  0
  182.1600  173.5720  136.1320 C   0  0  2  0  0  3  0  0  0  0  0  0
  181.8680  172.3420  136.9980 C   0  0  0  0  0  3  0  0  0  0  0  0
  182.9900  171.3190  136.9560 C   0  0  0  0  0  1  0  0  0  0  0  0
  180.5720  171.6900  136.5650 C   0  0  0  0  0  1  0  0  0  0  0  0
  184.1190  175.0220  135.8780 C   0  0  0  0  0  1  0  0  0  0  0  0
  183.5820  173.6760  135.7390 N   0  0  0  0  0  0  0  0  0  0  0  0
  183.7110  173.2850  134.3460 C   0  0  0  0  0  1  0  0  0  0  0  0
  183.6120  179.1420  141.3020 C   0  0  1  0  0  3  0  0  0  0  0  0
  181.3310  179.7070  141.6190 O   0  0  0  0  0  0  0  0  0  0  0  0
  182.3120  179.1250  142.0540 C   0  0  0  0  0  0  0  0  0  0  0  0
  182.2110  178.3720  143.3360 C   0  0  0  0  0  1  0  0  0  0  0  0
  184.4930  177.9590  141.7190 C   0  0  0  0  0  2  0  0  0  0  0  0
  184.7930  177.9480  143.2090 C   0  0  0  0  0  2  0  0  0  0  0  0
  186.1500  177.3230  143.4300 C   0  0  0  0  0  2  0  0  0  0  0  0
  187.1550  178.3220  143.3640 O   0  0  0  0  0  0  0  0  0  0  0  0
  189.0620  178.9200  142.2430 O   0  0  0  0  0  0  0  0  0  0  0  0
  188.4410  178.0420  142.8980 C   0  0  0  0  0  0  0  0  0  0  0  0
  190.1790  176.8690  144.2570 C   0  0  0  0  0  0  0  0  0  0  0  0
  191.9440  177.6730  142.6570 C   0  0  0  0  0  3  0  0  0  0  0  0
  191.3960  177.3470  143.9860 C   0  0  0  0  0  3  0  0  0  0  0  0
  190.5390  176.1540  141.2560 C   0  0  0  0  0  3  0  0  0  0  0  0
  189.4810  175.9200  142.0300 C   0  0  0  0  0  3  0  0  0  0  0  0
  189.1010  176.7310  143.2280 C   0  0  2  0  0  3  0  0  0  0  0  0
  191.5650  177.1930  141.4650 C   0  0  0  0  0  0  0  0  0  0  0  0
  191.6350  177.2520  139.1090 O   0  0  0  0  0  1  0  0  0  0  0  0
  192.2990  177.6770  140.2620 C   0  0  0  0  0  2  0  0  0  0  0  0
  189.7930  176.6660  145.6840 C   0  0  0  0  0  2  0  0  0  0  0  0
  190.2110  177.8580  146.5290 C   0  0  0  0  0  2  0  0  0  0  0  0
  188.8950  178.1270  148.6300 C   0  0  0  0  0  2  0  0  0  0  0  0
  188.9890  178.5010  147.1700 C   0  0  2  0  0  3  0  0  0  0  0  0
  186.8130  178.1060  147.4890 C   0  0  0  0  0  2  0  0  0  0  0  0
  187.4290  177.9290  148.8580 C   0  0  0  0  0  2  0  0  0  0  0  0
  187.8290  178.0570  146.5210 O   0  0  0  0  0  0  0  0  0  0  0  0
  2 34  1  1  0  0  0
  3  7  1  1  0  0  0
  3  1  1  0  0  0  0
  3  2  1  0  0  0  0
  4 23  1  1  0  0  0
  4  1  1  0  0  0  0
  4  6  1  0  0  0  0
  5 22  1  6  0  0  0
  5  6  1  0  0  0  0
  5  2  1  0  0  0  0
  7  8  2  0  0  0  0
  9  7  1  0  0  0  0
 10  9  1  0  0  0  0
 11 13  1  0  0  0  0
 12 13  2  0  0  0  0
 13 10  1  0  0  0  0
 14 12  2  0  0  0  0
 14 15  1  0  0  0  0
 15 16  1  6  0  0  0
 15 19  1  0  0  0  0
 15 18  1  0  0  0  0
 18 17  1  0  0  0  0
 19 20  1  0  0  0  0
 21 22  1  0  0  0  0
 24 23  1  0  0  0  0
 26 25  1  6  0  0  0
 26 24  1  0  0  0  0
 27 26  1  0  0  0  0
 27 28  1  1  0  0  0
 29 28  1  0  0  0  0
 30 28  1  0  0  0  0
 32 31  1  0  0  0  0
 32 27  1  0  0  0  0
 33 32  1  0  0  0  0
 34 38  1  6  0  0  0
 34 36  1  0  0  0  0
 35 36  2  0  0  0  0
 36 37  1  0  0  0  0
 38 39  1  0  0  0  0
 39 40  1  0  0  0  0
 41 40  1  0  0  0  0
 42 43  2  0  0  0  0
 43 41  1  0  0  0  0
 44 53  1  0  0  0  0
 45 46  1  0  0  0  0
 46 44  2  0  0  0  0
 47 50  1  0  0  0  0
 47 48  2  0  0  0  0
 48 49  1  0  0  0  0
 49 43  1  6  0  0  0
 49 44  1  0  0  0  0
 50 45  2  0  0  0  0
 51 52  1  0  0  0  0
 52 50  1  0  0  0  0
 53 54  1  0  0  0  0
 55 58  1  0  0  0  0
 56 54  1  6  0  0  0
 56 55  1  0  0  0  0
 57 58  1  0  0  0  0
 59 56  1  0  0  0  0
 59 57  1  0  0  0  0
M  END
>  <MODEL>
7

>  <REMARK>
 VINA RESULT:      -3.3      4.374      9.861
  Name = 
  26 active torsions:
  status: ('A' for Active; 'I' for Inactive)
    1  A    between atoms: C_1  and  C_50
    2  A    between atoms: C_3  and  C_5
    3  A    between atoms: C_4  and  C_18
    4  A    between atoms: C_5  and  C_6
    5  A    between atoms: C_5  and  C_29
    6  A    between atoms: C_6  and  C_57
    7  A    between atoms: O_13  and  C_38
    8  A    between atoms: O_13  and  C_54
    9  A    between atoms: N_15  and  C_42
   10  A    between atoms: C_17  and  C_28
   11  A    between atoms: C_17  and  C_47
   12  A    between atoms: C_18  and  C_53
   13  A    between atoms: C_18  and  C_59
   14  A    between atoms: C_20  and  C_21
   15  A    between atoms: C_21  and  O_30
   16  A    between atoms: C_23  and  C_33
   17  A    between atoms: C_25  and  C_28
   18  A    between atoms: O_30  and  N_56
   19  A    between atoms: C_33  and  C_50
   20  A    between atoms: C_34  and  O_58
   21  A    between atoms: C_37  and  C_42
   22  A    between atoms: C_38  and  C_39
   23  A    between atoms: C_41  and  C_46
   24  A    between atoms: C_42  and  C_47
   25  A    between atoms: C_43  and  N_56
   26  A    between atoms: C_54  and  C_57
                            x       y       z     vdW  Elec       q    Type
                         _______ _______ _______ _____ _____    ______ ____

>  <TORSDO>
F 26

$$$$
=
 OpenBabel10232409513D

 59 61  0  0  1  0  0  0  0  0999 V2000
  188.9570  177.8230  140.2170 C   0  0  0  0  0  2  0  0  0  0  0  0
  189.4840  177.6180  142.6910 C   0  0  1  0  0  3  0  0  0  0  0  0
  188.4720  178.1110  141.6360 C   0  0  1  0  0  3  0  0  0  0  0  0
  189.1400  176.3140  140.0360 C   0  0  2  0  0  3  0  0  0  0  0  0
  189.6740  176.0990  142.5070 C   0  0  2  0  0  3  0  0  0  0  0  0
  190.1150  175.7610  141.0750 C   0  0  0  0  0  2  0  0  0  0  0  0
  188.0270  179.5270  141.8230 C   0  0  0  0  0  0  0  0  0  0  0  0
  188.8630  180.3880  142.2080 O   0  0  0  0  0  0  0  0  0  0  0  0
  186.7140  179.8990  141.5110 O   0  0  0  0  0  0  0  0  0  0  0  0
  185.7180  180.0150  142.4630 N   0  0  0  0  0  2  0  0  0  0  0  0
  184.7920  178.3880  144.1730 C   0  0  0  0  0  1  0  0  0  0  0  0
  184.2090  178.3200  141.8430 C   0  0  0  0  0  0  0  0  0  0  0  0
  184.8040  178.9670  142.8020 C   0  0  0  0  0  0  0  0  0  0  0  0
  183.6220  177.6690  140.8720 C   0  0  0  0  0  3  0  0  0  0  0  0
  183.4660  178.2330  139.4870 C   0  0  2  0  0  0  0  0  0  0  0  0
  182.0680  178.8170  139.3430 C   0  0  0  0  0  1  0  0  0  0  0  0
  182.3670  176.8080  137.6810 C   0  0  0  0  0  1  0  0  0  0  0  0
  183.6570  177.1470  138.4180 C   0  0  0  0  0  2  0  0  0  0  0  0
  184.4900  179.3580  139.3100 C   0  0  0  0  0  2  0  0  0  0  0  0
  185.5920  178.9210  138.5670 O   0  0  0  0  0  1  0  0  0  0  0  0
  187.9110  176.1570  143.8480 C   0  0  0  0  0  1  0  0  0  0  0  0
  188.4990  175.4160  142.8250 O   0  0  0  0  0  0  0  0  0  0  0  0
  189.6700  176.0130  138.6450 C   0  0  0  0  0  2  0  0  0  0  0  0
  188.7270  176.5650  137.5840 C   0  0  0  0  0  2  0  0  0  0  0  0
  189.4160  177.0930  135.2210 C   0  0  0  0  0  1  0  0  0  0  0  0
  189.0600  175.9910  136.2150 C   0  0  2  0  0  3  0  0  0  0  0  0
  187.9760  175.0070  135.7020 C   0  0  2  0  0  3  0  0  0  0  0  0
  186.5650  175.3220  136.2120 C   0  0  0  0  0  3  0  0  0  0  0  0
  185.9960  174.2110  137.0770 C   0  0  0  0  0  1  0  0  0  0  0  0
  185.6330  175.5860  135.0490 C   0  0  0  0  0  1  0  0  0  0  0  0
  189.6380  173.2560  136.1250 C   0  0  0  0  0  1  0  0  0  0  0  0
  188.2790  173.5590  135.7010 N   0  0  0  0  0  0  0  0  0  0  0  0
  188.1080  173.0490  134.3520 C   0  0  0  0  0  1  0  0  0  0  0  0
  190.8300  178.3950  142.6620 C   0  0  1  0  0  3  0  0  0  0  0  0
  191.2060  180.2550  144.0840 O   0  0  0  0  0  0  0  0  0  0  0  0
  191.1540  179.0390  143.9790 C   0  0  0  0  0  0  0  0  0  0  0  0
  191.3970  178.1890  145.1790 C   0  0  0  0  0  1  0  0  0  0  0  0
  192.0230  177.5770  142.1540 C   0  0  0  0  0  2  0  0  0  0  0  0
  192.6320  178.1530  140.8850 C   0  0  0  0  0  2  0  0  0  0  0  0
  192.5990  177.0990  139.8050 C   0  0  0  0  0  2  0  0  0  0  0  0
  193.8560  177.0440  139.1500 O   0  0  0  0  0  0  0  0  0  0  0  0
  195.4470  175.4360  139.5180 O   0  0  0  0  0  0  0  0  0  0  0  0
  194.4670  175.8300  138.8310 C   0  0  0  0  0  0  0  0  0  0  0  0
  194.8900  173.9210  137.2760 C   0  0  0  0  0  0  0  0  0  0  0  0
  196.2470  175.4450  135.8070 C   0  0  0  0  0  3  0  0  0  0  0  0
  195.9380  174.1740  136.4870 C   0  0  0  0  0  3  0  0  0  0  0  0
  193.9420  176.3990  135.6600 C   0  0  0  0  0  3  0  0  0  0  0  0
  193.2820  175.7430  136.6120 C   0  0  0  0  0  3  0  0  0  0  0  0
  193.9230  174.9720  137.7220 C   0  0  2  0  0  3  0  0  0  0  0  0
  195.4050  176.4310  135.4710 C   0  0  0  0  0  0  0  0  0  0  0  0
  195.6950  178.7710  135.5040 O   0  0  0  0  0  1  0  0  0  0  0  0
  195.9750  177.6150  134.7690 C   0  0  0  0  0  2  0  0  0  0  0  0
  194.7920  172.5810  137.9240 C   0  0  0  0  0  2  0  0  0  0  0  0
  194.6040  171.4910  136.8810 C   0  0  0  0  0  2  0  0  0  0  0  0
  196.2890  170.0300  135.7680 C   0  0  0  0  0  2  0  0  0  0  0  0
  195.6360  170.3900  137.0810 C   0  0  2  0  0  3  0  0  0  0  0  0
  195.7730  168.1600  137.1380 C   0  0  0  0  0  2  0  0  0  0  0  0
  196.4420  168.5420  135.8370 C   0  0  0  0  0  2  0  0  0  0  0  0
  195.0090  169.2460  137.5940 O   0  0  0  0  0  0  0  0  0  0  0  0
  1  3  1  0  0  0  0
  2 34  1  6  0  0  0
  3  7  1  6  0  0  0
  3  2  1  0  0  0  0
  4 23  1  6  0  0  0
  4  1  1  0  0  0  0
  4  6  1  0  0  0  0
  5  2  1  0  0  0  0
  5 22  1  6  0  0  0
  6  5  1  0  0  0  0
  7  8  2  0  0  0  0
  9  7  1  0  0  0  0
  9 10  1  0  0  0  0
 10 13  1  0  0  0  0
 12 13  2  0  0  0  0
 13 11  1  0  0  0  0
 14 12  2  0  0  0  0
 15 16  1  6  0  0  0
 15 14  1  0  0  0  0
 17 18  1  0  0  0  0
 18 15  1  0  0  0  0
 19 15  1  0  0  0  0
 20 19  1  0  0  0  0
 22 21  1  0  0  0  0
 24 23  1  0  0  0  0
 26 25  1  6  0  0  0
 26 24  1  0  0  0  0
 27 28  1  1  0  0  0
 27 26  1  0  0  0  0
 28 29  1  0  0  0  0
 30 28  1  0  0  0  0
 32 27  1  0  0  0  0
 32 31  1  0  0  0  0
 33 32  1  0  0  0  0
 34 38  1  1  0  0  0
 34 36  1  0  0  0  0
 36 35  2  0  0  0  0
 36 37  1  0  0  0  0
 39 38  1  0  0  0  0
 40 39  1  0  0  0  0
 41 40  1  0  0  0  0
 43 41  1  0  0  0  0
 43 42  2  0  0  0  0
 44 49  1  0  0  0  0
 44 53  1  0  0  0  0
 45 46  1  0  0  0  0
 46 44  2  0  0  0  0
 47 48  2  0  0  0  0
 48 49  1  0  0  0  0
 49 43  1  1  0  0  0
 50 47  1  0  0  0  0
 50 45  2  0  0  0  0
 52 50  1  0  0  0  0
 52 51  1  0  0  0  0
 54 53  1  0  0  0  0
 55 58  1  0  0  0  0
 55 56  1  0  0  0  0
 56 54  1  6  0  0  0
 56 59  1  0  0  0  0
 57 59  1  0  0  0  0
 58 57  1  0  0  0  0
M  END
>  <MODEL>
8

>  <REMARK>
 VINA RESULT:      -3.1      2.154      5.574
  Name = 
  26 active torsions:
  status: ('A' for Active; 'I' for Inactive)
    1  A    between atoms: C_1  and  C_50
    2  A    between atoms: C_3  and  C_5
    3  A    between atoms: C_4  and  C_18
    4  A    between atoms: C_5  and  C_6
    5  A    between atoms: C_5  and  C_29
    6  A    between atoms: C_6  and  C_57
    7  A    between atoms: O_13  and  C_38
    8  A    between atoms: O_13  and  C_54
    9  A    between atoms: N_15  and  C_42
   10  A    between atoms: C_17  and  C_28
   11  A    between atoms: C_17  and  C_47
   12  A    between atoms: C_18  and  C_53
   13  A    between atoms: C_18  and  C_59
   14  A    between atoms: C_20  and  C_21
   15  A    between atoms: C_21  and  O_30
   16  A    between atoms: C_23  and  C_33
   17  A    between atoms: C_25  and  C_28
   18  A    between atoms: O_30  and  N_56
   19  A    between atoms: C_33  and  C_50
   20  A    between atoms: C_34  and  O_58
   21  A    between atoms: C_37  and  C_42
   22  A    between atoms: C_38  and  C_39
   23  A    between atoms: C_41  and  C_46
   24  A    between atoms: C_42  and  C_47
   25  A    between atoms: C_43  and  N_56
   26  A    between atoms: C_54  and  C_57
                            x       y       z     vdW  Elec       q    Type
                         _______ _______ _______ _____ _____    ______ ____

>  <TORSDO>
F 26

$$$$
=
 OpenBabel10232409513D

 59 61  0  0  1  0  0  0  0  0999 V2000
  187.1340  177.2350  137.8440 C   0  0  0  0  0  2  0  0  0  0  0  0
  188.8110  175.4960  137.0700 C   0  0  1  0  0  3  0  0  0  0  0  0
  188.2680  176.3040  138.2660 C   0  0  1  0  0  3  0  0  0  0  0  0
  185.9840  176.4090  137.2620 C   0  0  2  0  0  3  0  0  0  0  0  0
  187.6540  174.6670  136.4790 C   0  0  2  0  0  3  0  0  0  0  0  0
  186.4700  175.5620  136.0860 C   0  0  0  0  0  2  0  0  0  0  0  0
  189.3200  176.9980  139.0730 C   0  0  0  0  0  0  0  0  0  0  0  0
  190.5340  176.7810  138.8140 O   0  0  0  0  0  0  0  0  0  0  0  0
  188.9560  177.9240  140.0570 O   0  0  0  0  0  0  0  0  0  0  0  0
  187.6640  178.3920  140.2090 N   0  0  0  0  0  2  0  0  0  0  0  0
  185.4860  178.7170  141.4670 C   0  0  0  0  0  1  0  0  0  0  0  0
  187.5590  178.1620  142.5480 C   0  0  0  0  0  0  0  0  0  0  0  0
  186.9160  178.3050  141.4270 C   0  0  0  0  0  0  0  0  0  0  0  0
  188.2150  178.0280  143.6730 C   0  0  0  0  0  3  0  0  0  0  0  0
  189.6170  177.4890  143.7420 C   0  0  2  0  0  0  0  0  0  0  0  0
  189.6720  176.1520  143.0170 C   0  0  0  0  0  1  0  0  0  0  0  0
  191.5660  177.4320  145.3840 C   0  0  0  0  0  1  0  0  0  0  0  0
  190.0620  177.2780  145.1960 C   0  0  0  0  0  2  0  0  0  0  0  0
  190.5450  178.4760  143.0270 C   0  0  0  0  0  2  0  0  0  0  0  0
  191.6430  177.8170  142.4650 O   0  0  0  0  0  1  0  0  0  0  0  0
  187.0810  172.5310  136.6250 C   0  0  0  0  0  1  0  0  0  0  0  0
  187.2400  173.6890  137.3850 O   0  0  0  0  0  0  0  0  0  0  0  0
  184.8670  177.3230  136.7900 C   0  0  0  0  0  2  0  0  0  0  0  0
  184.7880  178.5660  137.6670 C   0  0  0  0  0  2  0  0  0  0  0  0
  183.2360  180.2980  138.6310 C   0  0  0  0  0  1  0  0  0  0  0  0
  183.4030  179.1930  137.5920 C   0  0  2  0  0  3  0  0  0  0  0  0
  182.2690  178.1350  137.6100 C   0  0  2  0  0  3  0  0  0  0  0  0
  180.9970  178.5810  136.8820 C   0  0  0  0  0  3  0  0  0  0  0  0
  180.4190  177.4920  135.9940 C   0  0  0  0  0  1  0  0  0  0  0  0
  181.2710  179.8170  136.0520 C   0  0  0  0  0  1  0  0  0  0  0  0
  182.2290  175.9870  138.7890 C   0  0  0  0  0  1  0  0  0  0  0  0
  181.9890  177.4210  138.8740 N   0  0  0  0  0  0  0  0  0  0  0  0
  180.5930  177.6200  139.2220 C   0  0  0  0  0  1  0  0  0  0  0  0
  189.5190  176.3780  136.0030 C   0  0  1  0  0  3  0  0  0  0  0  0
  189.3790  178.7180  136.3600 O   0  0  0  0  0  0  0  0  0  0  0  0
  188.8780  177.7270  135.8500 C   0  0  0  0  0  0  0  0  0  0  0  0
  187.6280  177.8650  135.0510 C   0  0  0  0  0  1  0  0  0  0  0  0
  191.0330  176.5190  136.2010 C   0  0  0  0  0  2  0  0  0  0  0  0
  191.8260  176.1130  134.9700 C   0  0  0  0  0  2  0  0  0  0  0  0
  192.3170  174.6970  135.1490 C   0  0  0  0  0  2  0  0  0  0  0  0
  193.0480  174.5920  136.3600 O   0  0  0  0  0  0  0  0  0  0  0  0
  194.9120  175.5390  137.2970 O   0  0  0  0  0  0  0  0  0  0  0  0
  194.4290  174.7920  136.4060 C   0  0  0  0  0  0  0  0  0  0  0  0
  195.5760  172.6490  135.8290 C   0  0  0  0  0  0  0  0  0  0  0  0
  197.3440  173.1580  137.5430 C   0  0  0  0  0  3  0  0  0  0  0  0
  196.4170  172.2840  136.8000 C   0  0  0  0  0  3  0  0  0  0  0  0
  197.6410  174.9690  135.8480 C   0  0  0  0  0  3  0  0  0  0  0  0
  196.5650  174.8390  135.0740 C   0  0  0  0  0  3  0  0  0  0  0  0
  195.3340  174.0740  135.4430 C   0  0  2  0  0  3  0  0  0  0  0  0
  197.8570  174.3340  137.1620 C   0  0  0  0  0  0  0  0  0  0  0  0
  198.2300  175.0420  139.3800 O   0  0  0  0  0  1  0  0  0  0  0  0
  198.7920  175.0150  138.1010 C   0  0  0  0  0  2  0  0  0  0  0  0
  194.6700  171.6180  135.2450 C   0  0  0  0  0  2  0  0  0  0  0  0
  195.0330  170.2320  135.7550 C   0  0  0  0  0  2  0  0  0  0  0  0
  194.7550  169.6300  138.1580 C   0  0  0  0  0  2  0  0  0  0  0  0
  194.0510  169.7950  136.8330 C   0  0  2  0  0  3  0  0  0  0  0  0
  193.1640  167.9310  137.6890 C   0  0  0  0  0  2  0  0  0  0  0  0
  194.1120  168.4210  138.7610 C   0  0  0  0  0  2  0  0  0  0  0  0
  193.4790  168.5650  136.4770 O   0  0  0  0  0  0  0  0  0  0  0  0
  1  3  1  0  0  0  0
  2 34  1  6  0  0  0
  2  3  1  0  0  0  0
  3  7  1  6  0  0  0
  4 23  1  6  0  0  0
  4  1  1  0  0  0  0
  5  2  1  0  0  0  0
  5 22  1  1  0  0  0
  6  5  1  0  0  0  0
  6  4  1  0  0  0  0
  7  9  1  0  0  0  0
  8  7  2  0  0  0  0
  9 10  1  0  0  0  0
 10 13  1  0  0  0  0
 12 14  2  0  0  0  0
 13 11  1  0  0  0  0
 13 12  2  0  0  0  0
 14 15  1  0  0  0  0
 15 16  1  6  0  0  0
 15 18  1  0  0  0  0
 18 17  1  0  0  0  0
 19 15  1  0  0  0  0
 20 19  1  0  0  0  0
 21 22  1  0  0  0  0
 23 24  1  0  0  0  0
 26 27  1  0  0  0  0
 26 24  1  0  0  0  0
 26 25  1  1  0  0  0
 27 28  1  1  0  0  0
 27 32  1  0  0  0  0
 29 28  1  0  0  0  0
 30 28  1  0  0  0  0
 31 32  1  0  0  0  0
 32 33  1  0  0  0  0
 34 38  1  1  0  0  0
 36 34  1  0  0  0  0
 36 35  2  0  0  0  0
 37 36  1  0  0  0  0
 39 40  1  0  0  0  0
 39 38  1  0  0  0  0
 40 41  1  0  0  0  0
 41 43  1  0  0  0  0
 43 42  2  0  0  0  0
 44 46  2  0  0  0  0
 46 45  1  0  0  0  0
 47 50  1  0  0  0  0
 48 49  1  0  0  0  0
 48 47  2  0  0  0  0
 49 44  1  0  0  0  0
 49 43  1  1  0  0  0
 50 45  2  0  0  0  0
 50 52  1  0  0  0  0
 52 51  1  0  0  0  0
 53 54  1  0  0  0  0
 53 44  1  0  0  0  0
 55 58  1  0  0  0  0
 56 54  1  6  0  0  0
 56 55  1  0  0  0  0
 57 58  1  0  0  0  0
 59 56  1  0  0  0  0
 59 57  1  0  0  0  0
M  END
>  <MODEL>
9

>  <REMARK>
 VINA RESULT:      -3.0      2.369      5.760
  Name = 
  26 active torsions:
  status: ('A' for Active; 'I' for Inactive)
    1  A    between atoms: C_1  and  C_50
    2  A    between atoms: C_3  and  C_5
    3  A    between atoms: C_4  and  C_18
    4  A    between atoms: C_5  and  C_6
    5  A    between atoms: C_5  and  C_29
    6  A    between atoms: C_6  and  C_57
    7  A    between atoms: O_13  and  C_38
    8  A    between atoms: O_13  and  C_54
    9  A    between atoms: N_15  and  C_42
   10  A    between atoms: C_17  and  C_28
   11  A    between atoms: C_17  and  C_47
   12  A    between atoms: C_18  and  C_53
   13  A    between atoms: C_18  and  C_59
   14  A    between atoms: C_20  and  C_21
   15  A    between atoms: C_21  and  O_30
   16  A    between atoms: C_23  and  C_33
   17  A    between atoms: C_25  and  C_28
   18  A    between atoms: O_30  and  N_56
   19  A    between atoms: C_33  and  C_50
   20  A    between atoms: C_34  and  O_58
   21  A    between atoms: C_37  and  C_42
   22  A    between atoms: C_38  and  C_39
   23  A    between atoms: C_41  and  C_46
   24  A    between atoms: C_42  and  C_47
   25  A    between atoms: C_43  and  N_56
   26  A    between atoms: C_54  and  C_57
                            x       y       z     vdW  Elec       q    Type
                         _______ _______ _______ _____ _____    ______ ____

>  <TORSDO>
F 26

$$$$
