=
 OpenBabel10232411033D

 39 42  0  0  1  0  0  0  0  0999 V2000
  188.5630  178.6320  140.2720 C   0  0  2  0  0  3  0  0  0  0  0  0
  190.2640  177.3580  139.3090 C   0  0  2  0  0  3  0  0  0  0  0  0
  187.9390  177.5370  139.4250 C   0  0  0  0  0  2  0  0  0  0  0  0
  189.9670  178.1500  140.5830 C   0  0  2  0  0  3  0  0  0  0  0  0
  189.0220  176.7730  138.8110 N   0  0  0  0  0  2  0  0  0  0  0  0
  190.0530  177.3630  141.9150 C   0  0  2  0  0  3  0  0  0  0  0  0
  191.1830  177.8670  142.7780 C   0  0  0  0  0  0  0  0  0  0  0  0
  192.3250  177.5390  142.5030 O   0  0  0  0  0  0  0  0  0  0  0  0
  190.9500  178.7780  143.9470 C   0  0  0  0  0  2  0  0  0  0  0  0
  191.2100  177.2690  145.9190 C   0  0  0  0  0  3  0  0  0  0  0  0
  190.6880  176.6070  147.0340 C   0  0  0  0  0  3  0  0  0  0  0  0
  189.3280  176.7320  147.3480 C   0  0  0  0  0  3  0  0  0  0  0  0
  190.3740  178.0470  145.1140 C   0  0  0  0  0  0  0  0  0  0  0  0
  189.0150  178.1760  145.4340 C   0  0  0  0  0  3  0  0  0  0  0  0
  188.4910  177.5170  146.5480 C   0  0  0  0  0  3  0  0  0  0  0  0
  190.0950  175.9780  141.7140 O   0  0  0  0  0  0  0  0  0  0  0  0
  188.2830  175.7760  143.0910 O   0  0  0  0  0  1  0  0  0  0  0  0
  189.6130  175.4030  142.8920 C   0  0  0  0  0  2  0  0  0  0  0  0
  191.4650  176.3960  139.2960 C   0  0  0  0  0  2  0  0  0  0  0  0
  193.8040  174.7120  135.4330 C   0  0  0  0  0  0  0  0  0  0  0  0
  192.6430  175.6520  137.2300 C   0  0  0  0  0  0  0  0  0  0  0  0
  195.0430  174.7080  134.9140 N   0  0  0  0  0  0  0  0  0  0  0  0
  196.9190  176.3620  135.0170 C   0  0  0  0  0  1  0  0  0  0  0  0
  193.6260  175.8020  136.1880 C   0  0  0  0  0  0  0  0  0  0  0  0
  192.3960  176.5910  138.1400 C   0  0  0  0  0  2  0  0  0  0  0  0
  192.7640  173.3150  135.8110 S   0  0  0  0  0  0  0  0  0  0  0  0
  195.5350  175.9030  135.3330 C   0  0  0  0  0  0  0  0  0  0  0  0
  192.0190  174.2800  137.2090 C   0  0  0  0  0  3  0  0  0  0  0  0
  194.7170  176.5850  136.1740 N   0  0  0  0  0  2  0  0  0  0  0  0
  187.7060  179.0050  141.4730 C   0  0  0  0  0  2  0  0  0  0  0  0
  186.4020  178.2380  141.4180 C   0  0  0  0  0  2  0  0  0  0  0  0
  185.2290  179.1270  141.8060 C   0  0  1  0  0  3  0  0  0  0  0  0
  184.5300  179.4860  140.6500 O   0  0  0  0  0  1  0  0  0  0  0  0
  182.8480  178.8140  142.5500 C   0  0  0  0  0  1  0  0  0  0  0  0
  184.2970  178.4020  142.7880 C   0  0  2  0  0  3  0  0  0  0  0  0
  185.6250  177.7510  144.6790 F   0  0  0  0  0  0  0  0  0  0  0  0
  184.6710  178.6610  144.2560 C   0  0  0  0  0  0  0  0  0  0  0  0
  183.5550  178.5170  145.0610 F   0  0  0  0  0  0  0  0  0  0  0  0
  185.1730  179.9440  144.4050 F   0  0  0  0  0  0  0  0  0  0  0  0
  1  4  1  0  0  0  0
  1 30  1  1  0  0  0
  2 19  1  1  0  0  0
  2  4  1  0  0  0  0
  3  1  1  0  0  0  0
  4  6  1  1  0  0  0
  5  2  1  0  0  0  0
  5  3  1  0  0  0  0
  6 16  1  6  0  0  0
  6  7  1  0  0  0  0
  7  9  1  0  0  0  0
  8  7  2  0  0  0  0
  9 13  1  0  0  0  0
 10 11  1  0  0  0  0
 11 12  2  0  0  0  0
 13 14  1  0  0  0  0
 13 10  2  0  0  0  0
 14 15  2  0  0  0  0
 15 12  1  0  0  0  0
 16 18  1  0  0  0  0
 18 17  1  0  0  0  0
 20 26  1  0  0  0  0
 20 24  2  0  0  0  0
 21 25  1  0  0  0  0
 22 27  2  0  0  0  0
 22 20  1  0  0  0  0
 23 27  1  0  0  0  0
 24 21  1  0  0  0  0
 25 19  1  0  0  0  0
 26 28  1  0  0  0  0
 27 29  1  0  0  0  0
 28 21  2  0  0  0  0
 29 24  1  0  0  0  0
 31 30  1  0  0  0  0
 31 32  1  0  0  0  0
 32 33  1  6  0  0  0
 32 35  1  0  0  0  0
 35 34  1  1  0  0  0
 35 37  1  0  0  0  0
 37 39  1  0  0  0  0
 37 36  1  0  0  0  0
 37 38  1  0  0  0  0
M  END
>  <MODEL>
1

>  <REMARK>
 VINA RESULT:      -7.8      0.000      0.000
  Name = 
  13 active torsions:
  status: ('A' for Active; 'I' for Inactive)
    1  A    between atoms: O_1  and  C_11
    2  A    between atoms: O_1  and  C_21
    3  A    between atoms: C_3  and  C_35
    4  A    between atoms: C_9  and  C_28
    5  A    between atoms: C_9  and  C_29
    6  A    between atoms: C_11  and  C_20
    7  A    between atoms: C_11  and  C_26
    8  A    between atoms: C_12  and  C_28
    9  A    between atoms: C_15  and  C_22
   10  A    between atoms: C_18  and  C_22
   11  A    between atoms: C_19  and  C_20
   12  A    between atoms: C_19  and  C_27
   13  A    between atoms: C_29  and  C_35
                            x       y       z     vdW  Elec       q    Type
                         _______ _______ _______ _____ _____    ______ ____

>  <TORSDO>
F 13

$$$$
=
 OpenBabel10232411033D

 39 42  0  0  1  0  0  0  0  0999 V2000
  188.3430  178.5860  140.3930 C   0  0  2  0  0  3  0  0  0  0  0  0
  190.2930  177.5560  139.6260 C   0  0  2  0  0  3  0  0  0  0  0  0
  188.0150  177.7690  139.1560 C   0  0  0  0  0  2  0  0  0  0  0  0
  189.6320  177.9980  140.9340 C   0  0  2  0  0  3  0  0  0  0  0  0
  189.2550  177.1590  138.6790 N   0  0  0  0  0  2  0  0  0  0  0  0
  189.3920  176.8890  141.9890 C   0  0  2  0  0  3  0  0  0  0  0  0
  189.0460  177.4770  143.3340 C   0  0  0  0  0  0  0  0  0  0  0  0
  189.5620  178.5310  143.6670 O   0  0  0  0  0  0  0  0  0  0  0  0
  188.0700  176.8210  144.2660 C   0  0  0  0  0  2  0  0  0  0  0  0
  187.2180  177.8920  146.3540 C   0  0  0  0  0  3  0  0  0  0  0  0
  187.3800  178.2800  147.6870 C   0  0  0  0  0  3  0  0  0  0  0  0
  188.5910  178.0300  148.3460 C   0  0  0  0  0  3  0  0  0  0  0  0
  188.2660  177.2630  145.6770 C   0  0  0  0  0  0  0  0  0  0  0  0
  189.4750  177.0070  146.3420 C   0  0  0  0  0  3  0  0  0  0  0  0
  189.6390  177.3930  147.6730 C   0  0  0  0  0  3  0  0  0  0  0  0
  190.4490  175.9720  142.0490 O   0  0  0  0  0  0  0  0  0  0  0  0
  191.7620  175.3500  143.8130 O   0  0  0  0  0  1  0  0  0  0  0  0
  191.2970  176.4300  143.0610 C   0  0  0  0  0  2  0  0  0  0  0  0
  191.4930  176.5950  139.6890 C   0  0  0  0  0  2  0  0  0  0  0  0
  193.5280  174.7450  135.7310 C   0  0  0  0  0  0  0  0  0  0  0  0
  192.5300  175.7700  137.5790 C   0  0  0  0  0  0  0  0  0  0  0  0
  194.7470  174.5900  135.1900 N   0  0  0  0  0  0  0  0  0  0  0  0
  196.8340  175.9670  135.3160 C   0  0  0  0  0  1  0  0  0  0  0  0
  193.5110  175.8220  136.5250 C   0  0  0  0  0  0  0  0  0  0  0  0
  192.4260  176.7020  138.5240 C   0  0  0  0  0  2  0  0  0  0  0  0
  192.3100  173.4920  136.0800 S   0  0  0  0  0  0  0  0  0  0  0  0
  195.4040  175.6910  135.6410 C   0  0  0  0  0  0  0  0  0  0  0  0
  191.7230  174.4990  137.5230 C   0  0  0  0  0  3  0  0  0  0  0  0
  194.6990  176.4480  136.5190 N   0  0  0  0  0  2  0  0  0  0  0  0
  187.1820  178.6600  141.3730 C   0  0  0  0  0  2  0  0  0  0  0  0
  185.8970  178.2940  140.6590 C   0  0  0  0  0  2  0  0  0  0  0  0
  184.7530  179.1930  141.1010 C   0  0  1  0  0  3  0  0  0  0  0  0
  184.0630  179.6400  139.9700 O   0  0  0  0  0  1  0  0  0  0  0  0
  182.3500  178.7760  141.7110 C   0  0  0  0  0  1  0  0  0  0  0  0
  183.8000  178.4400  142.0410 C   0  0  2  0  0  3  0  0  0  0  0  0
  182.9020  178.6560  144.2590 F   0  0  0  0  0  0  0  0  0  0  0  0
  184.0730  178.7430  143.5240 C   0  0  0  0  0  0  0  0  0  0  0  0
  184.5710  180.0270  143.6600 F   0  0  0  0  0  0  0  0  0  0  0  0
  184.9960  177.8450  144.0360 F   0  0  0  0  0  0  0  0  0  0  0  0
  1  4  1  0  0  0  0
  1 30  1  1  0  0  0
  2 19  1  1  0  0  0
  2  4  1  0  0  0  0
  3  1  1  0  0  0  0
  4  6  1  1  0  0  0
  5  3  1  0  0  0  0
  5  2  1  0  0  0  0
  6 16  1  1  0  0  0
  6  7  1  0  0  0  0
  7  8  2  0  0  0  0
  7  9  1  0  0  0  0
  9 13  1  0  0  0  0
 10 11  1  0  0  0  0
 11 12  2  0  0  0  0
 13 14  1  0  0  0  0
 13 10  2  0  0  0  0
 14 15  2  0  0  0  0
 15 12  1  0  0  0  0
 16 18  1  0  0  0  0
 18 17  1  0  0  0  0
 20 26  1  0  0  0  0
 20 24  2  0  0  0  0
 21 25  1  0  0  0  0
 22 27  2  0  0  0  0
 22 20  1  0  0  0  0
 23 27  1  0  0  0  0
 24 21  1  0  0  0  0
 25 19  1  0  0  0  0
 26 28  1  0  0  0  0
 27 29  1  0  0  0  0
 28 21  2  0  0  0  0
 29 24  1  0  0  0  0
 31 32  1  0  0  0  0
 31 30  1  0  0  0  0
 32 33  1  6  0  0  0
 32 35  1  0  0  0  0
 35 34  1  6  0  0  0
 35 37  1  0  0  0  0
 37 38  1  0  0  0  0
 37 39  1  0  0  0  0
 37 36  1  0  0  0  0
M  END
>  <MODEL>
2

>  <REMARK>
 VINA RESULT:      -7.2      1.112      1.722
  Name = 
  13 active torsions:
  status: ('A' for Active; 'I' for Inactive)
    1  A    between atoms: O_1  and  C_11
    2  A    between atoms: O_1  and  C_21
    3  A    between atoms: C_3  and  C_35
    4  A    between atoms: C_9  and  C_28
    5  A    between atoms: C_9  and  C_29
    6  A    between atoms: C_11  and  C_20
    7  A    between atoms: C_11  and  C_26
    8  A    between atoms: C_12  and  C_28
    9  A    between atoms: C_15  and  C_22
   10  A    between atoms: C_18  and  C_22
   11  A    between atoms: C_19  and  C_20
   12  A    between atoms: C_19  and  C_27
   13  A    between atoms: C_29  and  C_35
                            x       y       z     vdW  Elec       q    Type
                         _______ _______ _______ _____ _____    ______ ____

>  <TORSDO>
F 13

$$$$
=
 OpenBabel10232411033D

 39 42  0  0  1  0  0  0  0  0999 V2000
  189.6880  176.9030  139.2550 C   0  0  2  0  0  3  0  0  0  0  0  0
  187.8500  178.1000  140.0560 C   0  0  2  0  0  3  0  0  0  0  0  0
  189.7670  178.3290  138.7410 C   0  0  0  0  0  2  0  0  0  0  0  0
  188.7860  176.9640  140.4730 C   0  0  2  0  0  3  0  0  0  0  0  0
  188.5930  179.0490  139.2300 N   0  0  0  0  0  2  0  0  0  0  0  0
  189.5700  177.1730  141.7940 C   0  0  2  0  0  3  0  0  0  0  0  0
  189.0980  176.2250  142.8680 C   0  0  0  0  0  0  0  0  0  0  0  0
  189.8200  175.2990  143.1960 O   0  0  0  0  0  0  0  0  0  0  0  0
  187.7790  176.3980  143.5630 C   0  0  0  0  0  2  0  0  0  0  0  0
  186.8190  177.4650  145.6050 C   0  0  0  0  0  3  0  0  0  0  0  0
  186.9540  177.9900  146.8940 C   0  0  0  0  0  3  0  0  0  0  0  0
  188.2150  178.0300  147.5030 C   0  0  0  0  0  3  0  0  0  0  0  0
  187.9410  176.9890  144.9230 C   0  0  0  0  0  0  0  0  0  0  0  0
  189.2010  177.0230  145.5380 C   0  0  0  0  0  3  0  0  0  0  0  0
  189.3400  177.5460  146.8250 C   0  0  0  0  0  3  0  0  0  0  0  0
  189.5700  178.5110  142.2080 O   0  0  0  0  0  0  0  0  0  0  0  0
  191.7670  177.9000  142.3630 O   0  0  0  0  0  1  0  0  0  0  0  0
  190.7610  178.6940  142.9150 C   0  0  0  0  0  2  0  0  0  0  0  0
  186.9560  178.7550  141.1220 C   0  0  0  0  0  2  0  0  0  0  0  0
  182.2870  178.8980  142.3080 C   0  0  0  0  0  0  0  0  0  0  0  0
  184.5230  178.9320  141.6320 C   0  0  0  0  0  0  0  0  0  0  0  0
  181.1300  178.3080  141.9660 N   0  0  0  0  0  0  0  0  0  0  0  0
  180.2940  177.3670  139.8010 C   0  0  0  0  0  1  0  0  0  0  0  0
  183.1290  178.8950  141.2690 C   0  0  0  0  0  0  0  0  0  0  0  0
  185.5110  178.8390  140.7440 C   0  0  0  0  0  2  0  0  0  0  0  0
  183.0300  179.0110  143.9240 S   0  0  0  0  0  0  0  0  0  0  0  0
  181.3180  178.0500  140.6450 C   0  0  0  0  0  0  0  0  0  0  0  0
  184.7050  178.9910  143.1270 C   0  0  0  0  0  3  0  0  0  0  0  0
  182.5620  178.3390  140.1860 N   0  0  0  0  0  2  0  0  0  0  0  0
  191.0590  176.2810  139.4720 C   0  0  0  0  0  2  0  0  0  0  0  0
  192.0900  177.0400  138.6640 C   0  0  0  0  0  2  0  0  0  0  0  0
  192.5240  176.2400  137.4450 C   0  0  1  0  0  3  0  0  0  0  0  0
  193.8310  176.6030  137.1060 O   0  0  0  0  0  1  0  0  0  0  0  0
  193.8340  174.1030  137.6420 C   0  0  0  0  0  1  0  0  0  0  0  0
  192.4480  174.7320  137.7270 C   0  0  2  0  0  3  0  0  0  0  0  0
  192.0140  172.7690  136.4140 F   0  0  0  0  0  0  0  0  0  0  0  0
  191.4920  174.0010  136.7700 C   0  0  0  0  0  0  0  0  0  0  0  0
  191.3200  174.7440  135.6160 F   0  0  0  0  0  0  0  0  0  0  0  0
  190.2590  173.8120  137.3740 F   0  0  0  0  0  0  0  0  0  0  0  0
  1 30  1  1  0  0  0
  1  4  1  0  0  0  0
  2  4  1  0  0  0  0
  2 19  1  1  0  0  0
  3  5  1  0  0  0  0
  3  1  1  0  0  0  0
  4  6  1  1  0  0  0
  5  2  1  0  0  0  0
  6 16  1  1  0  0  0
  6  7  1  0  0  0  0
  7  8  2  0  0  0  0
  7  9  1  0  0  0  0
  9 13  1  0  0  0  0
 10 11  1  0  0  0  0
 11 12  2  0  0  0  0
 13 14  1  0  0  0  0
 13 10  2  0  0  0  0
 14 15  2  0  0  0  0
 15 12  1  0  0  0  0
 16 18  1  0  0  0  0
 17 18  1  0  0  0  0
 20 26  1  0  0  0  0
 21 28  2  0  0  0  0
 22 20  1  0  0  0  0
 23 27  1  0  0  0  0
 24 21  1  0  0  0  0
 24 20  2  0  0  0  0
 25 19  1  0  0  0  0
 25 21  1  0  0  0  0
 27 22  2  0  0  0  0
 28 26  1  0  0  0  0
 29 27  1  0  0  0  0
 29 24  1  0  0  0  0
 31 30  1  0  0  0  0
 32 33  1  1  0  0  0
 32 35  1  0  0  0  0
 32 31  1  0  0  0  0
 35 34  1  6  0  0  0
 36 37  1  0  0  0  0
 37 39  1  0  0  0  0
 37 35  1  0  0  0  0
 38 37  1  0  0  0  0
M  END
>  <MODEL>
3

>  <REMARK>
 VINA RESULT:      -7.2      4.437      8.760
  Name = 
  13 active torsions:
  status: ('A' for Active; 'I' for Inactive)
    1  A    between atoms: O_1  and  C_11
    2  A    between atoms: O_1  and  C_21
    3  A    between atoms: C_3  and  C_35
    4  A    between atoms: C_9  and  C_28
    5  A    between atoms: C_9  and  C_29
    6  A    between atoms: C_11  and  C_20
    7  A    between atoms: C_11  and  C_26
    8  A    between atoms: C_12  and  C_28
    9  A    between atoms: C_15  and  C_22
   10  A    between atoms: C_18  and  C_22
   11  A    between atoms: C_19  and  C_20
   12  A    between atoms: C_19  and  C_27
   13  A    between atoms: C_29  and  C_35
                            x       y       z     vdW  Elec       q    Type
                         _______ _______ _______ _____ _____    ______ ____

>  <TORSDO>
F 13

$$$$
=
 OpenBabel10232411033D

 39 42  0  0  1  0  0  0  0  0999 V2000
  189.7030  176.2250  138.3520 C   0  0  2  0  0  3  0  0  0  0  0  0
  188.8260  177.9650  139.6380 C   0  0  2  0  0  3  0  0  0  0  0  0
  189.8340  177.5250  137.5780 C   0  0  0  0  0  2  0  0  0  0  0  0
  189.5630  176.6350  139.8050 C   0  0  2  0  0  3  0  0  0  0  0  0
  189.2540  178.5920  138.3900 N   0  0  0  0  0  2  0  0  0  0  0  0
  190.9220  176.6940  140.5480 C   0  0  2  0  0  3  0  0  0  0  0  0
  190.7360  176.5720  142.0400 C   0  0  0  0  0  0  0  0  0  0  0  0
  190.1480  175.6000  142.4840 O   0  0  0  0  0  0  0  0  0  0  0  0
  191.2730  177.5950  142.9980 C   0  0  0  0  0  2  0  0  0  0  0  0
  191.6400  176.6880  145.2940 C   0  0  0  0  0  3  0  0  0  0  0  0
  191.2240  176.4830  146.6130 C   0  0  0  0  0  3  0  0  0  0  0  0
  189.9710  176.9500  147.0310 C   0  0  0  0  0  3  0  0  0  0  0  0
  190.8040  177.3510  144.3930 C   0  0  0  0  0  0  0  0  0  0  0  0
  189.5530  177.8240  144.8160 C   0  0  0  0  0  3  0  0  0  0  0  0
  189.1350  177.6210  146.1330 C   0  0  0  0  0  3  0  0  0  0  0  0
  191.6820  177.8110  140.1820 O   0  0  0  0  0  0  0  0  0  0  0  0
  193.4130  177.2310  138.8070 O   0  0  0  0  0  1  0  0  0  0  0  0
  193.0090  177.3740  140.1350 C   0  0  0  0  0  2  0  0  0  0  0  0
  188.7510  178.9270  140.8360 C   0  0  0  0  0  2  0  0  0  0  0  0
  184.3660  178.3220  142.7420 C   0  0  0  0  0  0  0  0  0  0  0  0
  186.5270  178.4810  141.8680 C   0  0  0  0  0  0  0  0  0  0  0  0
  183.7160  178.5480  143.8960 N   0  0  0  0  0  0  0  0  0  0  0  0
  184.4760  178.5690  146.2810 C   0  0  0  0  0  1  0  0  0  0  0  0
  185.6710  178.1440  142.9770 C   0  0  0  0  0  0  0  0  0  0  0  0
  187.8560  178.4630  141.9410 C   0  0  0  0  0  2  0  0  0  0  0  0
  183.9290  178.8760  141.1060 S   0  0  0  0  0  0  0  0  0  0  0  0
  184.7040  178.3950  144.8170 C   0  0  0  0  0  0  0  0  0  0  0  0
  185.7310  178.9440  140.6740 C   0  0  0  0  0  3  0  0  0  0  0  0
  185.9400  178.2060  144.2900 N   0  0  0  0  0  2  0  0  0  0  0  0
  190.8210  175.2420  138.0410 C   0  0  0  0  0  2  0  0  0  0  0  0
  190.2450  174.0270  137.3460 C   0  0  0  0  0  2  0  0  0  0  0  0
  189.3520  174.4350  136.1840 C   0  0  1  0  0  3  0  0  0  0  0  0
  189.9950  174.1170  134.9840 O   0  0  0  0  0  1  0  0  0  0  0  0
  187.8850  172.6570  135.1810 C   0  0  0  0  0  1  0  0  0  0  0  0
  187.9930  173.7250  136.2640 C   0  0  2  0  0  3  0  0  0  0  0  0
  187.2240  175.8930  135.5730 F   0  0  0  0  0  0  0  0  0  0  0  0
  186.8100  174.7000  136.1430 C   0  0  0  0  0  0  0  0  0  0  0  0
  186.2980  174.9790  137.3970 F   0  0  0  0  0  0  0  0  0  0  0  0
  185.8100  174.1480  135.3590 F   0  0  0  0  0  0  0  0  0  0  0  0
  1 30  1  1  0  0  0
  1  4  1  0  0  0  0
  2  4  1  0  0  0  0
  2 19  1  1  0  0  0
  3  1  1  0  0  0  0
  3  5  1  0  0  0  0
  4  6  1  6  0  0  0
  5  2  1  0  0  0  0
  6 16  1  1  0  0  0
  6  7  1  0  0  0  0
  7  8  2  0  0  0  0
  7  9  1  0  0  0  0
  9 13  1  0  0  0  0
 10 11  1  0  0  0  0
 11 12  2  0  0  0  0
 13 14  1  0  0  0  0
 13 10  2  0  0  0  0
 14 15  2  0  0  0  0
 15 12  1  0  0  0  0
 17 18  1  0  0  0  0
 18 16  1  0  0  0  0
 19 25  1  0  0  0  0
 20 24  2  0  0  0  0
 20 22  1  0  0  0  0
 21 25  1  0  0  0  0
 21 24  1  0  0  0  0
 22 27  2  0  0  0  0
 24 29  1  0  0  0  0
 26 20  1  0  0  0  0
 27 23  1  0  0  0  0
 28 26  1  0  0  0  0
 28 21  2  0  0  0  0
 29 27  1  0  0  0  0
 31 30  1  0  0  0  0
 32 33  1  6  0  0  0
 32 35  1  0  0  0  0
 32 31  1  0  0  0  0
 35 34  1  6  0  0  0
 36 37  1  0  0  0  0
 37 35  1  0  0  0  0
 37 38  1  0  0  0  0
 39 37  1  0  0  0  0
M  END
>  <MODEL>
4

>  <REMARK>
 VINA RESULT:      -7.1      4.127      7.859
  Name = 
  13 active torsions:
  status: ('A' for Active; 'I' for Inactive)
    1  A    between atoms: O_1  and  C_11
    2  A    between atoms: O_1  and  C_21
    3  A    between atoms: C_3  and  C_35
    4  A    between atoms: C_9  and  C_28
    5  A    between atoms: C_9  and  C_29
    6  A    between atoms: C_11  and  C_20
    7  A    between atoms: C_11  and  C_26
    8  A    between atoms: C_12  and  C_28
    9  A    between atoms: C_15  and  C_22
   10  A    between atoms: C_18  and  C_22
   11  A    between atoms: C_19  and  C_20
   12  A    between atoms: C_19  and  C_27
   13  A    between atoms: C_29  and  C_35
                            x       y       z     vdW  Elec       q    Type
                         _______ _______ _______ _____ _____    ______ ____

>  <TORSDO>
F 13

$$$$
=
 OpenBabel10232411033D

 39 42  0  0  1  0  0  0  0  0999 V2000
  181.9170  177.2020  139.9850 C   0  0  2  0  0  3  0  0  0  0  0  0
  183.4800  178.1300  141.4500 C   0  0  2  0  0  3  0  0  0  0  0  0
  181.2070  178.1730  140.9120 C   0  0  0  0  0  2  0  0  0  0  0  0
  183.3770  177.6120  140.0140 C   0  0  2  0  0  3  0  0  0  0  0  0
  182.2000  178.7180  141.8360 N   0  0  0  0  0  2  0  0  0  0  0  0
  183.7420  178.6190  138.8940 C   0  0  2  0  0  3  0  0  0  0  0  0
  185.0490  178.2540  138.2340 C   0  0  0  0  0  0  0  0  0  0  0  0
  186.0920  178.6200  138.7490 O   0  0  0  0  0  0  0  0  0  0  0  0
  185.1060  177.4350  136.9770 C   0  0  0  0  0  2  0  0  0  0  0  0
  187.3350  177.8060  135.9150 C   0  0  0  0  0  3  0  0  0  0  0  0
  188.6490  177.4090  135.6510 C   0  0  0  0  0  3  0  0  0  0  0  0
  189.1260  176.1910  136.1540 C   0  0  0  0  0  3  0  0  0  0  0  0
  186.4950  176.9850  136.6720 C   0  0  0  0  0  0  0  0  0  0  0  0
  186.9770  175.7690  137.1800 C   0  0  0  0  0  3  0  0  0  0  0  0
  188.2890  175.3700  136.9190 C   0  0  0  0  0  3  0  0  0  0  0  0
  183.7070  179.9470  139.3390 O   0  0  0  0  0  0  0  0  0  0  0  0
  182.7670  181.9480  138.7610 O   0  0  0  0  0  1  0  0  0  0  0  0
  182.6700  180.5620  138.6330 C   0  0  0  0  0  2  0  0  0  0  0  0
  184.7060  178.9680  141.8500 C   0  0  0  0  0  2  0  0  0  0  0  0
  186.7340  177.6590  146.0220 C   0  0  0  0  0  0  0  0  0  0  0  0
  185.7680  178.1540  143.9530 C   0  0  0  0  0  0  0  0  0  0  0  0
  187.9520  177.5810  146.5830 N   0  0  0  0  0  0  0  0  0  0  0  0
  190.2210  177.1300  145.6270 C   0  0  0  0  0  1  0  0  0  0  0  0
  186.8300  177.5240  144.6950 C   0  0  0  0  0  0  0  0  0  0  0  0
  185.7400  178.2110  142.6240 C   0  0  0  0  0  2  0  0  0  0  0  0
  185.2990  178.5270  146.6230 S   0  0  0  0  0  0  0  0  0  0  0  0
  188.7430  177.2980  145.5140 C   0  0  0  0  0  0  0  0  0  0  0  0
  184.7670  178.8120  144.8690 C   0  0  0  0  0  3  0  0  0  0  0  0
  188.1020  177.3150  144.3190 N   0  0  0  0  0  2  0  0  0  0  0  0
  181.2730  177.1290  138.6080 C   0  0  0  0  0  2  0  0  0  0  0  0
  180.3270  175.9480  138.5570 C   0  0  0  0  0  2  0  0  0  0  0  0
  181.0860  174.6520  138.3090 C   0  0  1  0  0  3  0  0  0  0  0  0
  180.1690  173.6030  138.2020 O   0  0  0  0  0  1  0  0  0  0  0  0
  181.2050  174.1010  135.8590 C   0  0  0  0  0  1  0  0  0  0  0  0
  181.9310  174.7520  137.0300 C   0  0  2  0  0  3  0  0  0  0  0  0
  184.1130  174.3960  136.0910 F   0  0  0  0  0  0  0  0  0  0  0  0
  183.3210  174.1150  137.1920 C   0  0  0  0  0  0  0  0  0  0  0  0
  183.2020  172.7410  137.2950 F   0  0  0  0  0  0  0  0  0  0  0  0
  183.9430  174.6010  138.3310 F   0  0  0  0  0  0  0  0  0  0  0  0
  1 30  1  6  0  0  0
  1  4  1  0  0  0  0
  1  3  1  0  0  0  0
  2  5  1  0  0  0  0
  2 19  1  6  0  0  0
  3  5  1  0  0  0  0
  4  6  1  6  0  0  0
  4  2  1  0  0  0  0
  6  7  1  1  0  0  0
  6 16  1  0  0  0  0
  7  8  2  0  0  0  0
  9  7  1  0  0  0  0
 10 13  1  0  0  0  0
 11 10  2  0  0  0  0
 11 12  1  0  0  0  0
 12 15  2  0  0  0  0
 13  9  1  0  0  0  0
 13 14  2  0  0  0  0
 15 14  1  0  0  0  0
 18 17  1  0  0  0  0
 18 16  1  0  0  0  0
 19 25  1  0  0  0  0
 20 22  1  0  0  0  0
 20 26  1  0  0  0  0
 21 24  1  0  0  0  0
 21 28  2  0  0  0  0
 24 20  2  0  0  0  0
 25 21  1  0  0  0  0
 27 23  1  0  0  0  0
 27 22  2  0  0  0  0
 28 26  1  0  0  0  0
 29 24  1  0  0  0  0
 29 27  1  0  0  0  0
 31 30  1  0  0  0  0
 32 33  1  6  0  0  0
 32 31  1  0  0  0  0
 35 34  1  6  0  0  0
 35 37  1  0  0  0  0
 35 32  1  0  0  0  0
 36 37  1  0  0  0  0
 37 38  1  0  0  0  0
 37 39  1  0  0  0  0
M  END
>  <MODEL>
5

>  <REMARK>
 VINA RESULT:      -6.8      5.341      9.467
  Name = 
  13 active torsions:
  status: ('A' for Active; 'I' for Inactive)
    1  A    between atoms: O_1  and  C_11
    2  A    between atoms: O_1  and  C_21
    3  A    between atoms: C_3  and  C_35
    4  A    between atoms: C_9  and  C_28
    5  A    between atoms: C_9  and  C_29
    6  A    between atoms: C_11  and  C_20
    7  A    between atoms: C_11  and  C_26
    8  A    between atoms: C_12  and  C_28
    9  A    between atoms: C_15  and  C_22
   10  A    between atoms: C_18  and  C_22
   11  A    between atoms: C_19  and  C_20
   12  A    between atoms: C_19  and  C_27
   13  A    between atoms: C_29  and  C_35
                            x       y       z     vdW  Elec       q    Type
                         _______ _______ _______ _____ _____    ______ ____

>  <TORSDO>
F 13

$$$$
=
 OpenBabel10232411033D

 39 42  0  0  1  0  0  0  0  0999 V2000
  189.8160  176.1070  138.4010 C   0  0  2  0  0  3  0  0  0  0  0  0
  188.8160  177.8680  139.5630 C   0  0  2  0  0  3  0  0  0  0  0  0
  189.9190  177.3710  137.5660 C   0  0  0  0  0  2  0  0  0  0  0  0
  189.6040  176.5830  139.8250 C   0  0  2  0  0  3  0  0  0  0  0  0
  189.2620  178.4500  138.3000 N   0  0  0  0  0  2  0  0  0  0  0  0
  190.9300  176.7420  140.6120 C   0  0  2  0  0  3  0  0  0  0  0  0
  190.7030  176.6290  142.0990 C   0  0  0  0  0  0  0  0  0  0  0  0
  190.1370  175.6400  142.5340 O   0  0  0  0  0  0  0  0  0  0  0  0
  191.1710  177.6810  143.0610 C   0  0  0  0  0  2  0  0  0  0  0  0
  191.6050  176.7480  145.3360 C   0  0  0  0  0  3  0  0  0  0  0  0
  191.2150  176.5030  146.6560 C   0  0  0  0  0  3  0  0  0  0  0  0
  189.9500  176.9100  147.0980 C   0  0  0  0  0  3  0  0  0  0  0  0
  190.7310  177.3920  144.4570 C   0  0  0  0  0  0  0  0  0  0  0  0
  189.4670  177.8060  144.9040 C   0  0  0  0  0  3  0  0  0  0  0  0
  189.0750  177.5630  146.2220 C   0  0  0  0  0  3  0  0  0  0  0  0
  191.6270  177.9030  140.2530 O   0  0  0  0  0  0  0  0  0  0  0  0
  193.4910  177.2750  139.0880 O   0  0  0  0  0  1  0  0  0  0  0  0
  192.9830  177.5820  140.3520 C   0  0  0  0  0  2  0  0  0  0  0  0
  188.6530  178.8850  140.7050 C   0  0  0  0  0  2  0  0  0  0  0  0
  184.3720  178.2180  142.8170 C   0  0  0  0  0  0  0  0  0  0  0  0
  186.4860  178.4070  141.8400 C   0  0  0  0  0  0  0  0  0  0  0  0
  183.7790  178.4220  144.0060 N   0  0  0  0  0  0  0  0  0  0  0  0
  184.6570  178.4150  146.3500 C   0  0  0  0  0  1  0  0  0  0  0  0
  185.6890  178.0470  142.9850 C   0  0  0  0  0  0  0  0  0  0  0  0
  187.8170  178.3980  141.8470 C   0  0  0  0  0  2  0  0  0  0  0  0
  183.8500  178.7920  141.2130 S   0  0  0  0  0  0  0  0  0  0  0  0
  184.8130  178.2640  144.8740 C   0  0  0  0  0  0  0  0  0  0  0  0
  185.6290  178.8800  140.6940 C   0  0  0  0  0  3  0  0  0  0  0  0
  186.0230  178.0930  144.2840 N   0  0  0  0  0  2  0  0  0  0  0  0
  190.9890  175.1620  138.1830 C   0  0  0  0  0  2  0  0  0  0  0  0
  190.8430  174.4840  136.8370 C   0  0  0  0  0  2  0  0  0  0  0  0
  191.9540  174.9100  135.8890 C   0  0  1  0  0  3  0  0  0  0  0  0
  192.6360  175.9960  136.4470 O   0  0  0  0  0  1  0  0  0  0  0  0
  192.2260  172.4110  135.8430 C   0  0  0  0  0  1  0  0  0  0  0  0
  192.9260  173.7480  135.6300 C   0  0  2  0  0  3  0  0  0  0  0  0
  195.0630  172.8060  136.1850 F   0  0  0  0  0  0  0  0  0  0  0  0
  194.1800  173.8200  136.5160 C   0  0  0  0  0  0  0  0  0  0  0  0
  193.8290  173.6670  137.8450 F   0  0  0  0  0  0  0  0  0  0  0  0
  194.8140  175.0420  136.3540 F   0  0  0  0  0  0  0  0  0  0  0  0
  1 30  1  1  0  0  0
  1  4  1  0  0  0  0
  2  4  1  0  0  0  0
  2 19  1  1  0  0  0
  3  5  1  0  0  0  0
  3  1  1  0  0  0  0
  4  6  1  6  0  0  0
  5  2  1  0  0  0  0
  6 16  1  1  0  0  0
  6  7  1  0  0  0  0
  7  8  2  0  0  0  0
  7  9  1  0  0  0  0
  9 13  1  0  0  0  0
 10 11  1  0  0  0  0
 11 12  2  0  0  0  0
 13 14  1  0  0  0  0
 13 10  2  0  0  0  0
 14 15  2  0  0  0  0
 15 12  1  0  0  0  0
 16 18  1  0  0  0  0
 17 18  1  0  0  0  0
 19 25  1  0  0  0  0
 20 24  2  0  0  0  0
 20 22  1  0  0  0  0
 21 25  1  0  0  0  0
 21 24  1  0  0  0  0
 22 27  2  0  0  0  0
 24 29  1  0  0  0  0
 26 20  1  0  0  0  0
 27 23  1  0  0  0  0
 28 26  1  0  0  0  0
 28 21  2  0  0  0  0
 29 27  1  0  0  0  0
 31 30  1  0  0  0  0
 32 33  1  1  0  0  0
 32 31  1  0  0  0  0
 35 34  1  1  0  0  0
 35 32  1  0  0  0  0
 35 37  1  0  0  0  0
 36 37  1  0  0  0  0
 37 38  1  0  0  0  0
 39 37  1  0  0  0  0
M  END
>  <MODEL>
6

>  <REMARK>
 VINA RESULT:      -6.7      4.607      8.648
  Name = 
  13 active torsions:
  status: ('A' for Active; 'I' for Inactive)
    1  A    between atoms: O_1  and  C_11
    2  A    between atoms: O_1  and  C_21
    3  A    between atoms: C_3  and  C_35
    4  A    between atoms: C_9  and  C_28
    5  A    between atoms: C_9  and  C_29
    6  A    between atoms: C_11  and  C_20
    7  A    between atoms: C_11  and  C_26
    8  A    between atoms: C_12  and  C_28
    9  A    between atoms: C_15  and  C_22
   10  A    between atoms: C_18  and  C_22
   11  A    between atoms: C_19  and  C_20
   12  A    between atoms: C_19  and  C_27
   13  A    between atoms: C_29  and  C_35
                            x       y       z     vdW  Elec       q    Type
                         _______ _______ _______ _____ _____    ______ ____

>  <TORSDO>
F 13

$$$$
=
 OpenBabel10232411033D

 39 42  0  0  1  0  0  0  0  0999 V2000
  189.5440  177.0240  140.0270 C   0  0  2  0  0  3  0  0  0  0  0  0
  190.5010  175.7950  138.2890 C   0  0  2  0  0  3  0  0  0  0  0  0
  190.9050  177.6110  139.7000 C   0  0  0  0  0  2  0  0  0  0  0  0
  189.1290  176.2530  138.7890 C   0  0  2  0  0  3  0  0  0  0  0  0
  191.4950  176.8090  138.6310 N   0  0  0  0  0  2  0  0  0  0  0  0
  188.2900  177.1040  137.8020 C   0  0  2  0  0  3  0  0  0  0  0  0
  187.1110  176.3270  137.2730 C   0  0  0  0  0  0  0  0  0  0  0  0
  187.1280  175.1090  137.3450 O   0  0  0  0  0  0  0  0  0  0  0  0
  185.9070  177.0030  136.6840 C   0  0  0  0  0  2  0  0  0  0  0  0
  185.3490  178.6460  138.4780 C   0  0  0  0  0  3  0  0  0  0  0  0
  184.4790  179.1560  139.4470 C   0  0  0  0  0  3  0  0  0  0  0  0
  183.2420  178.5390  139.6690 C   0  0  0  0  0  3  0  0  0  0  0  0
  184.9870  177.5170  137.7390 C   0  0  0  0  0  0  0  0  0  0  0  0
  183.7440  176.9050  137.9590 C   0  0  0  0  0  3  0  0  0  0  0  0
  182.8730  177.4130  138.9250 C   0  0  0  0  0  3  0  0  0  0  0  0
  189.0720  177.6690  136.7870 O   0  0  0  0  0  0  0  0  0  0  0  0
  188.9830  179.7750  137.6700 O   0  0  0  0  0  1  0  0  0  0  0  0
  188.5860  178.9660  136.6040 C   0  0  0  0  0  2  0  0  0  0  0  0
  190.6230  175.2480  136.8560 C   0  0  0  0  0  2  0  0  0  0  0  0
  195.2960  175.4310  135.6900 C   0  0  0  0  0  0  0  0  0  0  0  0
  193.0000  175.3590  136.1120 C   0  0  0  0  0  0  0  0  0  0  0  0
  196.2760  176.3390  135.5450 N   0  0  0  0  0  0  0  0  0  0  0  0
  196.2580  178.7350  134.8210 C   0  0  0  0  0  1  0  0  0  0  0  0
  194.1080  175.9940  135.4460 C   0  0  0  0  0  0  0  0  0  0  0  0
  191.7560  175.8310  136.0710 C   0  0  0  0  0  2  0  0  0  0  0  0
  195.2830  173.9810  136.7260 S   0  0  0  0  0  0  0  0  0  0  0  0
  195.5930  177.4310  135.1120 C   0  0  0  0  0  0  0  0  0  0  0  0
  193.4480  174.1710  136.9240 C   0  0  0  0  0  3  0  0  0  0  0  0
  194.2450  177.2830  135.0960 N   0  0  0  0  0  2  0  0  0  0  0  0
  188.5560  178.0710  140.5220 C   0  0  0  0  0  2  0  0  0  0  0  0
  188.6230  178.1520  142.0320 C   0  0  0  0  0  2  0  0  0  0  0  0
  187.5450  177.2900  142.6730 C   0  0  1  0  0  3  0  0  0  0  0  0
  188.1450  176.1620  143.2430 O   0  0  0  0  0  1  0  0  0  0  0  0
  186.7300  177.3010  145.0510 C   0  0  0  0  0  1  0  0  0  0  0  0
  186.7770  178.0810  143.7420 C   0  0  2  0  0  3  0  0  0  0  0  0
  184.9480  177.6120  142.2590 F   0  0  0  0  0  0  0  0  0  0  0  0
  185.3470  178.4330  143.3010 C   0  0  0  0  0  0  0  0  0  0  0  0
  185.2980  179.7420  142.8580 F   0  0  0  0  0  0  0  0  0  0  0  0
  184.4660  178.2800  144.3590 F   0  0  0  0  0  0  0  0  0  0  0  0
  1 30  1  6  0  0  0
  2 19  1  6  0  0  0
  2  5  1  0  0  0  0
  2  4  1  0  0  0  0
  3  1  1  0  0  0  0
  4  6  1  6  0  0  0
  4  1  1  0  0  0  0
  5  3  1  0  0  0  0
  6 16  1  6  0  0  0
  7  8  2  0  0  0  0
  7  6  1  0  0  0  0
  9  7  1  0  0  0  0
  9 13  1  0  0  0  0
 10 11  1  0  0  0  0
 11 12  2  0  0  0  0
 13 14  1  0  0  0  0
 13 10  2  0  0  0  0
 14 15  2  0  0  0  0
 15 12  1  0  0  0  0
 18 16  1  0  0  0  0
 18 17  1  0  0  0  0
 20 26  1  0  0  0  0
 21 28  2  0  0  0  0
 22 20  1  0  0  0  0
 23 27  1  0  0  0  0
 24 20  2  0  0  0  0
 24 21  1  0  0  0  0
 25 21  1  0  0  0  0
 25 19  1  0  0  0  0
 26 28  1  0  0  0  0
 27 22  2  0  0  0  0
 29 27  1  0  0  0  0
 29 24  1  0  0  0  0
 30 31  1  0  0  0  0
 31 32  1  0  0  0  0
 32 33  1  1  0  0  0
 32 35  1  0  0  0  0
 35 34  1  1  0  0  0
 36 37  1  0  0  0  0
 37 35  1  0  0  0  0
 37 39  1  0  0  0  0
 38 37  1  0  0  0  0
M  END
>  <MODEL>
7

>  <REMARK>
 VINA RESULT:      -6.6      2.578      5.218
  Name = 
  13 active torsions:
  status: ('A' for Active; 'I' for Inactive)
    1  A    between atoms: O_1  and  C_11
    2  A    between atoms: O_1  and  C_21
    3  A    between atoms: C_3  and  C_35
    4  A    between atoms: C_9  and  C_28
    5  A    between atoms: C_9  and  C_29
    6  A    between atoms: C_11  and  C_20
    7  A    between atoms: C_11  and  C_26
    8  A    between atoms: C_12  and  C_28
    9  A    between atoms: C_15  and  C_22
   10  A    between atoms: C_18  and  C_22
   11  A    between atoms: C_19  and  C_20
   12  A    between atoms: C_19  and  C_27
   13  A    between atoms: C_29  and  C_35
                            x       y       z     vdW  Elec       q    Type
                         _______ _______ _______ _____ _____    ______ ____

>  <TORSDO>
F 13

$$$$
=
 OpenBabel10232411033D

 39 42  0  0  1  0  0  0  0  0999 V2000
  187.5810  178.7110  140.8620 C   0  0  2  0  0  3  0  0  0  0  0  0
  189.5620  178.1440  139.7650 C   0  0  2  0  0  3  0  0  0  0  0  0
  187.2450  177.8910  139.6290 C   0  0  0  0  0  2  0  0  0  0  0  0
  189.0280  178.3870  141.1790 C   0  0  2  0  0  3  0  0  0  0  0  0
  188.4960  177.5740  138.9460 N   0  0  0  0  0  2  0  0  0  0  0  0
  189.1780  177.2120  142.1780 C   0  0  2  0  0  3  0  0  0  0  0  0
  188.9500  177.6670  143.5980 C   0  0  0  0  0  0  0  0  0  0  0  0
  189.6030  178.6020  144.0290 O   0  0  0  0  0  0  0  0  0  0  0  0
  187.9280  177.0230  144.4890 C   0  0  0  0  0  2  0  0  0  0  0  0
  189.3730  177.0270  146.5250 C   0  0  0  0  0  3  0  0  0  0  0  0
  189.6090  177.3650  147.8610 C   0  0  0  0  0  3  0  0  0  0  0  0
  188.6270  178.0430  148.5950 C   0  0  0  0  0  3  0  0  0  0  0  0
  188.1550  177.3570  145.9250 C   0  0  0  0  0  0  0  0  0  0  0  0
  187.1760  178.0420  146.6600 C   0  0  0  0  0  3  0  0  0  0  0  0
  187.4090  178.3820  147.9940 C   0  0  0  0  0  3  0  0  0  0  0  0
  190.3850  176.5220  142.0130 O   0  0  0  0  0  0  0  0  0  0  0  0
  191.5940  175.4860  143.6530 O   0  0  0  0  0  1  0  0  0  0  0  0
  190.3790  175.5010  142.9680 C   0  0  0  0  0  2  0  0  0  0  0  0
  190.9270  177.4560  139.5960 C   0  0  0  0  0  2  0  0  0  0  0  0
  192.6260  174.2690  136.4050 C   0  0  0  0  0  0  0  0  0  0  0  0
  191.7810  175.7010  138.0450 C   0  0  0  0  0  0  0  0  0  0  0  0
  192.1780  173.4830  135.4110 N   0  0  0  0  0  0  0  0  0  0  0  0
  189.9970  172.3110  135.0440 C   0  0  0  0  0  1  0  0  0  0  0  0
  191.6550  174.4740  137.3020 C   0  0  0  0  0  0  0  0  0  0  0  0
  190.8640  176.1260  138.9120 C   0  0  0  0  0  2  0  0  0  0  0  0
  193.9110  175.5020  136.3390 S   0  0  0  0  0  0  0  0  0  0  0  0
  190.9250  173.1700  135.8350 C   0  0  0  0  0  0  0  0  0  0  0  0
  193.0140  176.4690  137.6430 C   0  0  0  0  0  3  0  0  0  0  0  0
  190.5370  173.8100  136.9670 N   0  0  0  0  0  2  0  0  0  0  0  0
  186.5880  178.5000  141.9960 C   0  0  0  0  0  2  0  0  0  0  0  0
  185.2600  179.1270  141.6250 C   0  0  0  0  0  2  0  0  0  0  0  0
  184.1020  178.3550  142.2390 C   0  0  1  0  0  3  0  0  0  0  0  0
  184.0910  178.5750  143.6200 O   0  0  0  0  0  1  0  0  0  0  0  0
  181.6660  178.7970  142.6760 C   0  0  0  0  0  1  0  0  0  0  0  0
  182.7660  178.7920  141.6200 C   0  0  2  0  0  3  0  0  0  0  0  0
  182.3950  178.6130  139.2540 F   0  0  0  0  0  0  0  0  0  0  0  0
  182.3440  177.9010  140.4410 C   0  0  0  0  0  0  0  0  0  0  0  0
  181.0440  177.4620  140.6220 F   0  0  0  0  0  0  0  0  0  0  0  0
  183.1820  176.8020  140.3440 F   0  0  0  0  0  0  0  0  0  0  0  0
  1  4  1  0  0  0  0
  1 30  1  1  0  0  0
  2 19  1  1  0  0  0
  2  4  1  0  0  0  0
  3  1  1  0  0  0  0
  4  6  1  1  0  0  0
  5  3  1  0  0  0  0
  5  2  1  0  0  0  0
  6 16  1  1  0  0  0
  6  7  1  0  0  0  0
  7  8  2  0  0  0  0
  7  9  1  0  0  0  0
  9 13  1  0  0  0  0
 10 11  1  0  0  0  0
 11 12  2  0  0  0  0
 13 10  2  0  0  0  0
 13 14  1  0  0  0  0
 14 15  2  0  0  0  0
 15 12  1  0  0  0  0
 16 18  1  0  0  0  0
 18 17  1  0  0  0  0
 20 24  2  0  0  0  0
 21 25  1  0  0  0  0
 22 27  2  0  0  0  0
 22 20  1  0  0  0  0
 23 27  1  0  0  0  0
 24 21  1  0  0  0  0
 25 19  1  0  0  0  0
 26 20  1  0  0  0  0
 26 28  1  0  0  0  0
 27 29  1  0  0  0  0
 28 21  2  0  0  0  0
 29 24  1  0  0  0  0
 31 30  1  0  0  0  0
 31 32  1  0  0  0  0
 32 33  1  1  0  0  0
 35 32  1  0  0  0  0
 35 34  1  1  0  0  0
 36 37  1  0  0  0  0
 37 38  1  0  0  0  0
 37 35  1  0  0  0  0
 39 37  1  0  0  0  0
M  END
>  <MODEL>
8

>  <REMARK>
 VINA RESULT:      -6.4      2.337      3.078
  Name = 
  13 active torsions:
  status: ('A' for Active; 'I' for Inactive)
    1  A    between atoms: O_1  and  C_11
    2  A    between atoms: O_1  and  C_21
    3  A    between atoms: C_3  and  C_35
    4  A    between atoms: C_9  and  C_28
    5  A    between atoms: C_9  and  C_29
    6  A    between atoms: C_11  and  C_20
    7  A    between atoms: C_11  and  C_26
    8  A    between atoms: C_12  and  C_28
    9  A    between atoms: C_15  and  C_22
   10  A    between atoms: C_18  and  C_22
   11  A    between atoms: C_19  and  C_20
   12  A    between atoms: C_19  and  C_27
   13  A    between atoms: C_29  and  C_35
                            x       y       z     vdW  Elec       q    Type
                         _______ _______ _______ _____ _____    ______ ____

>  <TORSDO>
F 13

$$$$
=
 OpenBabel10232411033D

 39 42  0  0  1  0  0  0  0  0999 V2000
  191.0350  176.9090  137.5880 C   0  0  2  0  0  3  0  0  0  0  0  0
  189.7930  177.4760  139.4820 C   0  0  2  0  0  3  0  0  0  0  0  0
  191.1950  175.8150  138.6280 C   0  0  0  0  0  2  0  0  0  0  0  0
  189.7560  177.6340  137.9600 C   0  0  2  0  0  3  0  0  0  0  0  0
  190.4340  176.2060  139.8120 N   0  0  0  0  0  2  0  0  0  0  0  0
  188.5070  177.0610  137.2430 C   0  0  2  0  0  3  0  0  0  0  0  0
  187.5090  178.1480  136.9280 C   0  0  0  0  0  0  0  0  0  0  0  0
  187.8170  179.3090  137.1380 O   0  0  0  0  0  0  0  0  0  0  0  0
  186.1600  177.8480  136.3420 C   0  0  0  0  0  2  0  0  0  0  0  0
  184.2010  176.6150  137.2760 C   0  0  0  0  0  3  0  0  0  0  0  0
  183.2480  176.4040  138.2780 C   0  0  0  0  0  3  0  0  0  0  0  0
  183.2290  177.2300  139.4090 C   0  0  0  0  0  3  0  0  0  0  0  0
  185.1260  177.6550  137.4000 C   0  0  0  0  0  0  0  0  0  0  0  0
  185.1090  178.4760  138.5370 C   0  0  0  0  0  3  0  0  0  0  0  0
  184.1590  178.2670  139.5390 C   0  0  0  0  0  3  0  0  0  0  0  0
  187.9420  175.9840  137.9350 O   0  0  0  0  0  0  0  0  0  0  0  0
  186.6870  174.1740  137.3260 O   0  0  0  0  0  1  0  0  0  0  0  0
  187.7910  174.9600  136.9960 C   0  0  0  0  0  2  0  0  0  0  0  0
  188.5180  177.7700  140.2900 C   0  0  0  0  0  2  0  0  0  0  0  0
  186.6830  177.5830  144.7430 C   0  0  0  0  0  0  0  0  0  0  0  0
  187.6020  177.5300  142.5950 C   0  0  0  0  0  0  0  0  0  0  0  0
  187.0830  177.7310  146.0170 N   0  0  0  0  0  0  0  0  0  0  0  0
  189.2600  177.2710  147.1640 C   0  0  0  0  0  1  0  0  0  0  0  0
  187.7050  177.1680  143.9860 C   0  0  0  0  0  0  0  0  0  0  0  0
  188.5640  177.2900  141.7060 C   0  0  0  0  0  2  0  0  0  0  0  0
  185.3720  178.4400  143.8930 S   0  0  0  0  0  0  0  0  0  0  0  0
  188.3660  177.2870  145.9690 C   0  0  0  0  0  0  0  0  0  0  0  0
  186.3300  178.2870  142.3120 C   0  0  0  0  0  3  0  0  0  0  0  0
  188.8130  176.9870  144.7230 N   0  0  0  0  0  2  0  0  0  0  0  0
  191.1100  176.3810  136.1630 C   0  0  0  0  0  2  0  0  0  0  0  0
  191.6450  174.9640  136.1790 C   0  0  0  0  0  2  0  0  0  0  0  0
  192.9490  174.8650  135.4020 C   0  0  1  0  0  3  0  0  0  0  0  0
  192.9230  175.7880  134.3530 O   0  0  0  0  0  1  0  0  0  0  0  0
  195.2920  175.7680  135.5290 C   0  0  0  0  0  1  0  0  0  0  0  0
  194.1520  175.1350  136.3180 C   0  0  2  0  0  3  0  0  0  0  0  0
  194.1450  172.7350  136.3980 F   0  0  0  0  0  0  0  0  0  0  0  0
  194.6560  173.8620  137.0190 C   0  0  0  0  0  0  0  0  0  0  0  0
  194.2380  173.8520  138.3380 F   0  0  0  0  0  0  0  0  0  0  0  0
  196.0400  173.8090  136.9830 F   0  0  0  0  0  0  0  0  0  0  0  0
  1 30  1  6  0  0  0
  1  4  1  0  0  0  0
  1  3  1  0  0  0  0
  2  5  1  0  0  0  0
  2 19  1  6  0  0  0
  3  5  1  0  0  0  0
  4  6  1  6  0  0  0
  4  2  1  0  0  0  0
  6  7  1  1  0  0  0
  6 16  1  0  0  0  0
  7  8  2  0  0  0  0
  9  7  1  0  0  0  0
  9 13  1  0  0  0  0
 10 13  2  0  0  0  0
 10 11  1  0  0  0  0
 11 12  2  0  0  0  0
 12 15  1  0  0  0  0
 13 14  1  0  0  0  0
 14 15  2  0  0  0  0
 18 17  1  0  0  0  0
 18 16  1  0  0  0  0
 19 25  1  0  0  0  0
 20 22  1  0  0  0  0
 21 24  1  0  0  0  0
 24 29  1  0  0  0  0
 24 20  2  0  0  0  0
 25 21  1  0  0  0  0
 26 20  1  0  0  0  0
 27 22  2  0  0  0  0
 27 23  1  0  0  0  0
 28 21  2  0  0  0  0
 28 26  1  0  0  0  0
 29 27  1  0  0  0  0
 30 31  1  0  0  0  0
 32 33  1  6  0  0  0
 32 31  1  0  0  0  0
 32 35  1  0  0  0  0
 35 34  1  6  0  0  0
 35 37  1  0  0  0  0
 36 37  1  0  0  0  0
 37 38  1  0  0  0  0
 39 37  1  0  0  0  0
M  END
>  <MODEL>
9

>  <REMARK>
 VINA RESULT:      -6.3      5.102      9.618
  Name = 
  13 active torsions:
  status: ('A' for Active; 'I' for Inactive)
    1  A    between atoms: O_1  and  C_11
    2  A    between atoms: O_1  and  C_21
    3  A    between atoms: C_3  and  C_35
    4  A    between atoms: C_9  and  C_28
    5  A    between atoms: C_9  and  C_29
    6  A    between atoms: C_11  and  C_20
    7  A    between atoms: C_11  and  C_26
    8  A    between atoms: C_12  and  C_28
    9  A    between atoms: C_15  and  C_22
   10  A    between atoms: C_18  and  C_22
   11  A    between atoms: C_19  and  C_20
   12  A    between atoms: C_19  and  C_27
   13  A    between atoms: C_29  and  C_35
                            x       y       z     vdW  Elec       q    Type
                         _______ _______ _______ _____ _____    ______ ____

>  <TORSDO>
F 13

$$$$
