=
 OpenBabel10232410283D

 43 50  0  0  1  0  0  0  0  0999 V2000
  191.5860  176.4810  147.2560 C   0  0  0  0  0  0  0  0  0  0  0  0
  187.3300  177.7470  144.8180 C   0  0  0  0  0  0  0  0  0  0  0  0
  187.9710  177.8850  142.0810 C   0  0  0  0  0  0  0  0  0  0  0  0
  189.3050  177.0840  146.7070 C   0  0  0  0  0  0  0  0  0  0  0  0
  191.9290  176.5230  145.9030 C   0  0  0  0  0  3  0  0  0  0  0  0
  192.5480  176.1610  148.2040 O   0  0  0  0  0  1  0  0  0  0  0  0
  189.6430  177.1320  145.3320 C   0  0  0  0  0  0  0  0  0  0  0  0
  190.2770  176.7600  147.6570 C   0  0  0  0  0  3  0  0  0  0  0  0
  190.9650  176.8470  144.9450 C   0  0  0  0  0  3  0  0  0  0  0  0
  188.9530  177.5410  143.0160 C   0  0  0  0  0  3  0  0  0  0  0  0
  188.6520  177.4690  144.3840 C   0  0  0  0  0  0  0  0  0  0  0  0
  187.0230  177.6900  146.1840 C   0  0  0  0  0  3  0  0  0  0  0  0
  186.3330  178.0770  143.8830 C   0  0  0  0  0  0  0  0  0  0  0  0
  186.6700  178.1520  142.5230 C   0  0  0  0  0  3  0  0  0  0  0  0
  188.0030  177.3630  147.1200 C   0  0  0  0  0  3  0  0  0  0  0  0
  188.3040  177.9730  140.6500 C   0  0  0  0  0  0  0  0  0  0  0  0
  189.3960  177.2050  140.1240 N   0  0  0  0  0  2  0  0  0  0  0  0
  187.6300  178.7250  139.8930 O   0  0  0  0  0  0  0  0  0  0  0  0
  189.8480  177.2350  138.7660 C   0  0  0  0  0  0  0  0  0  0  0  0
  189.3030  177.9860  137.9130 O   0  0  0  0  0  0  0  0  0  0  0  0
  190.9660  176.3450  138.3530 C   0  0  0  0  0  2  0  0  0  0  0  0
  190.7110  175.8220  137.0160 N   0  0  0  0  0  0  0  0  0  0  0  0
  191.4170  173.4790  136.6450 C   0  0  0  0  0  2  0  0  0  0  0  0
  193.1860  175.4780  136.5210 C   0  0  2  0  0  3  0  0  0  0  0  0
  189.5480  174.9460  137.1370 C   0  0  0  0  0  2  0  0  0  0  0  0
  191.8080  174.9310  136.6620 C   0  0  2  0  0  0  0  0  0  0  0  0
  192.3360  175.2990  135.4120 O   0  0  0  0  0  0  0  0  0  0  0  0
  189.9110  173.5490  136.6400 C   0  0  0  0  0  2  0  0  0  0  0  0
  194.1810  174.4080  136.5610 N   0  0  0  0  0  0  0  0  0  0  0  0
  195.8860  175.8370  135.3970 C   0  0  0  0  0  2  0  0  0  0  0  0
  196.4160  174.5460  137.4480 C   0  0  0  0  0  3  0  0  0  0  0  0
  196.5170  174.5700  135.9400 C   0  0  1  0  0  3  0  0  0  0  0  0
  194.9450  174.5360  137.7960 C   0  0  0  0  0  3  0  0  0  0  0  0
  195.0960  174.5290  135.4130 C   0  0  1  0  0  3  0  0  0  0  0  0
  185.0310  178.3600  144.3360 O   0  0  0  0  0  0  0  0  0  0  0  0
  182.7430  178.5640  141.3940 C   0  0  0  0  0  3  0  0  0  0  0  0
  181.5390  178.8730  142.0350 C   0  0  0  0  0  0  0  0  0  0  0  0
  182.6780  178.8470  144.1730 C   0  0  0  0  0  3  0  0  0  0  0  0
  183.9100  178.3960  142.1440 C   0  0  0  0  0  3  0  0  0  0  0  0
  183.8880  178.5450  143.5400 C   0  0  0  0  0  0  0  0  0  0  0  0
  181.5090  179.0190  143.4250 C   0  0  0  0  0  3  0  0  0  0  0  0
  180.3230  180.3350  140.6430 O   0  0  0  0  0  1  0  0  0  0  0  0
  180.3010  179.0730  141.2360 C   0  0  0  0  0  2  0  0  0  0  0  0
  1  8  1  0  0  0  0
  1  6  1  0  0  0  0
  2 12  1  0  0  0  0
  3 14  2  0  0  0  0
  3 10  1  0  0  0  0
  4 15  1  0  0  0  0
  4  8  2  0  0  0  0
  5  1  2  0  0  0  0
  7  4  1  0  0  0  0
  9  7  2  0  0  0  0
  9  5  1  0  0  0  0
 10 11  2  0  0  0  0
 11  2  1  0  0  0  0
 11  7  1  0  0  0  0
 12 15  2  0  0  0  0
 13 35  1  0  0  0  0
 13  2  2  0  0  0  0
 14 13  1  0  0  0  0
 16  3  1  0  0  0  0
 17 16  1  0  0  0  0
 18 16  2  0  0  0  0
 19 17  1  0  0  0  0
 20 19  2  0  0  0  0
 21 19  1  0  0  0  0
 22 25  1  0  0  0  0
 22 21  1  0  0  0  0
 24 29  1  6  0  0  0
 24 26  1  0  0  0  0
 26 23  1  1  0  0  0
 26 22  1  0  0  0  0
 27 24  1  0  0  0  0
 27 26  1  0  0  0  0
 28 23  1  0  0  0  0
 28 25  1  0  0  0  0
 29 33  1  0  0  0  0
 31 33  2  0  0  0  0
 32 30  1  1  0  0  0
 32 31  1  0  0  0  0
 34 30  1  1  0  0  0
 34 32  1  0  0  0  0
 34 29  1  0  0  0  0
 36 37  2  0  0  0  0
 36 39  1  0  0  0  0
 37 41  1  0  0  0  0
 39 40  2  0  0  0  0
 40 38  1  0  0  0  0
 40 35  1  0  0  0  0
 41 38  2  0  0  0  0
 42 43  1  0  0  0  0
 43 37  1  0  0  0  0
M  END
>  <MODEL>
1

>  <REMARK>
 VINA RESULT:     -11.6      0.000      0.000
  Name = 
  7 active torsions:
  status: ('A' for Active; 'I' for Inactive)
    1  A    between atoms: O_1  and  C_34
    2  A    between atoms: O_1  and  C_35
    3  A    between atoms: C_2  and  C_13
    4  A    between atoms: C_3  and  N_4
    5  A    between atoms: C_3  and  C_12
    6  A    between atoms: N_11  and  C_14
    7  A    between atoms: C_19  and  C_37
                            x       y       z     vdW  Elec       q    Type
                         _______ _______ _______ _____ _____    ______ ____

>  <TORSDO>
F 7

$$$$
=
 OpenBabel10232410283D

 43 50  0  0  1  0  0  0  0  0999 V2000
  191.0510  176.7760  146.7910 C   0  0  0  0  0  0  0  0  0  0  0  0
  189.0500  177.9580  142.2890 C   0  0  0  0  0  0  0  0  0  0  0  0
  186.2770  178.2320  142.6800 C   0  0  0  0  0  0  0  0  0  0  0  0
  190.7280  177.2940  144.4470 C   0  0  0  0  0  0  0  0  0  0  0  0
  189.6810  176.9250  147.0190 C   0  0  0  0  0  3  0  0  0  0  0  0
  191.8940  176.4440  147.8420 O   0  0  0  0  0  1  0  0  0  0  0  0
  189.3360  177.4450  144.6660 C   0  0  0  0  0  0  0  0  0  0  0  0
  191.5730  176.9610  145.5090 C   0  0  0  0  0  3  0  0  0  0  0  0
  188.8270  177.2570  145.9630 C   0  0  0  0  0  3  0  0  0  0  0  0
  187.1090  177.9170  143.7580 C   0  0  0  0  0  3  0  0  0  0  0  0
  188.4940  177.7740  143.5830 C   0  0  0  0  0  0  0  0  0  0  0  0
  190.4300  177.8050  142.1020 C   0  0  0  0  0  3  0  0  0  0  0  0
  188.2210  178.2920  141.2040 C   0  0  0  0  0  0  0  0  0  0  0  0
  186.8400  178.4150  141.4120 C   0  0  0  0  0  3  0  0  0  0  0  0
  191.2610  177.4740  143.1710 C   0  0  0  0  0  3  0  0  0  0  0  0
  184.8230  178.3630  142.8750 C   0  0  0  0  0  0  0  0  0  0  0  0
  183.9500  178.3860  141.7370 N   0  0  0  0  0  2  0  0  0  0  0  0
  184.3520  178.4560  144.0420 O   0  0  0  0  0  0  0  0  0  0  0  0
  182.5300  178.5520  141.7880 C   0  0  0  0  0  0  0  0  0  0  0  0
  181.9310  178.7150  142.8860 O   0  0  0  0  0  0  0  0  0  0  0  0
  181.7460  178.5080  140.5240 C   0  0  0  0  0  2  0  0  0  0  0  0
  182.4890  179.1700  139.4600 N   0  0  0  0  0  0  0  0  0  0  0  0
  181.5750  178.8610  137.1810 C   0  0  0  0  0  2  0  0  0  0  0  0
  183.0900  176.9750  138.3160 C   0  0  2  0  0  3  0  0  0  0  0  0
  181.7090  180.3500  139.0920 C   0  0  0  0  0  2  0  0  0  0  0  0
  182.4460  178.3180  138.2800 C   0  0  2  0  0  0  0  0  0  0  0  0
  183.7500  178.1070  137.7970 O   0  0  0  0  0  0  0  0  0  0  0  0
  181.3770  180.2950  137.6030 C   0  0  0  0  0  2  0  0  0  0  0  0
  182.6110  176.1350  137.2200 N   0  0  0  0  0  0  0  0  0  0  0  0
  184.6690  174.7000  137.3100 C   0  0  0  0  0  2  0  0  0  0  0  0
  182.3840  173.7370  137.2320 C   0  0  0  0  0  3  0  0  0  0  0  0
  183.6110  174.0790  136.4190 C   0  0  1  0  0  3  0  0  0  0  0  0
  181.8410  175.0340  137.7880 C   0  0  0  0  0  3  0  0  0  0  0  0
  183.7530  175.5880  136.4700 C   0  0  1  0  0  3  0  0  0  0  0  0
  188.7920  178.4590  139.9280 O   0  0  0  0  0  0  0  0  0  0  0  0
  187.1920  177.3260  136.7530 C   0  0  0  0  0  3  0  0  0  0  0  0
  187.9990  176.2260  136.4450 C   0  0  0  0  0  0  0  0  0  0  0  0
  189.2970  176.6240  138.4520 C   0  0  0  0  0  3  0  0  0  0  0  0
  187.4400  178.0720  137.9070 C   0  0  0  0  0  3  0  0  0  0  0  0
  188.4910  177.7220  138.7720 C   0  0  0  0  0  0  0  0  0  0  0  0
  189.0480  175.8730  137.2980 C   0  0  0  0  0  3  0  0  0  0  0  0
  186.6750  175.9930  134.5100 O   0  0  0  0  0  1  0  0  0  0  0  0
  187.7230  175.4180  135.2280 C   0  0  0  0  0  2  0  0  0  0  0  0
  1  5  1  0  0  0  0
  1  6  1  0  0  0  0
  2 11  1  0  0  0  0
  3 16  1  0  0  0  0
  3 10  1  0  0  0  0
  4  7  2  0  0  0  0
  4  8  1  0  0  0  0
  7  9  1  0  0  0  0
  8  1  2  0  0  0  0
  9  5  2  0  0  0  0
 11 10  2  0  0  0  0
 11  7  1  0  0  0  0
 12  2  1  0  0  0  0
 12 15  2  0  0  0  0
 13 14  1  0  0  0  0
 13  2  2  0  0  0  0
 14  3  2  0  0  0  0
 15  4  1  0  0  0  0
 16 18  2  0  0  0  0
 17 19  1  0  0  0  0
 17 16  1  0  0  0  0
 19 20  2  0  0  0  0
 21 19  1  0  0  0  0
 22 21  1  0  0  0  0
 23 28  1  0  0  0  0
 24 29  1  6  0  0  0
 25 22  1  0  0  0  0
 26 23  1  6  0  0  0
 26 24  1  0  0  0  0
 26 22  1  0  0  0  0
 27 26  1  0  0  0  0
 27 24  1  0  0  0  0
 28 25  1  0  0  0  0
 29 33  1  0  0  0  0
 31 33  2  0  0  0  0
 32 34  1  0  0  0  0
 32 31  1  1  0  0  0
 32 30  1  0  0  0  0
 34 29  1  0  0  0  0
 34 30  1  1  0  0  0
 35 13  1  0  0  0  0
 36 39  1  0  0  0  0
 37 36  2  0  0  0  0
 37 41  1  0  0  0  0
 38 40  1  0  0  0  0
 39 40  2  0  0  0  0
 40 35  1  0  0  0  0
 41 38  2  0  0  0  0
 42 43  1  0  0  0  0
 43 37  1  0  0  0  0
M  END
>  <MODEL>
2

>  <REMARK>
 VINA RESULT:     -11.3      3.772      7.930
  Name = 
  7 active torsions:
  status: ('A' for Active; 'I' for Inactive)
    1  A    between atoms: O_1  and  C_34
    2  A    between atoms: O_1  and  C_35
    3  A    between atoms: C_2  and  C_13
    4  A    between atoms: C_3  and  N_4
    5  A    between atoms: C_3  and  C_12
    6  A    between atoms: N_11  and  C_14
    7  A    between atoms: C_19  and  C_37
                            x       y       z     vdW  Elec       q    Type
                         _______ _______ _______ _____ _____    ______ ____

>  <TORSDO>
F 7

$$$$
=
 OpenBabel10232410283D

 43 50  0  0  1  0  0  0  0  0999 V2000
  187.8670  177.4710  147.6030 C   0  0  0  0  0  0  0  0  0  0  0  0
  186.7420  178.4130  142.7550 C   0  0  0  0  0  0  0  0  0  0  0  0
  189.0130  177.7200  141.2440 C   0  0  0  0  0  0  0  0  0  0  0  0
  186.7520  178.1150  145.5510 C   0  0  0  0  0  0  0  0  0  0  0  0
  189.0020  177.1010  146.8780 C   0  0  0  0  0  3  0  0  0  0  0  0
  187.8540  177.3360  148.9840 O   0  0  0  0  0  1  0  0  0  0  0  0
  187.8990  177.7450  144.8060 C   0  0  0  0  0  0  0  0  0  0  0  0
  186.7450  177.9760  146.9420 C   0  0  0  0  0  3  0  0  0  0  0  0
  189.0190  177.2370  145.4870 C   0  0  0  0  0  3  0  0  0  0  0  0
  189.0170  177.5570  142.6330 C   0  0  0  0  0  3  0  0  0  0  0  0
  187.8950  177.8980  143.4030 C   0  0  0  0  0  0  0  0  0  0  0  0
  185.6210  178.7690  143.5160 C   0  0  0  0  0  3  0  0  0  0  0  0
  186.7240  178.5650  141.3570 C   0  0  0  0  0  0  0  0  0  0  0  0
  187.8670  178.2250  140.6190 C   0  0  0  0  0  3  0  0  0  0  0  0
  185.6270  178.6230  144.9030 C   0  0  0  0  0  3  0  0  0  0  0  0
  190.2030  177.3730  140.4500 C   0  0  0  0  0  0  0  0  0  0  0  0
  190.0500  176.7030  139.1910 N   0  0  0  0  0  2  0  0  0  0  0  0
  191.3530  177.6650  140.8820 O   0  0  0  0  0  0  0  0  0  0  0  0
  191.1230  176.2730  138.3480 C   0  0  0  0  0  0  0  0  0  0  0  0
  192.3260  176.4480  138.6830 O   0  0  0  0  0  0  0  0  0  0  0  0
  190.8100  175.6300  137.0430 C   0  0  0  0  0  2  0  0  0  0  0  0
  190.6780  174.1900  137.2220 N   0  0  0  0  0  0  0  0  0  0  0  0
  189.8700  172.9480  135.2400 C   0  0  0  0  0  2  0  0  0  0  0  0
  188.1590  174.2300  136.8430 C   0  0  2  0  0  3  0  0  0  0  0  0
  191.8180  173.5870  136.5360 C   0  0  0  0  0  2  0  0  0  0  0  0
  189.5160  173.7460  136.4650 C   0  0  2  0  0  0  0  0  0  0  0  0
  188.6640  172.9950  137.2950 O   0  0  0  0  0  0  0  0  0  0  0  0
  191.3150  172.5990  135.4870 C   0  0  0  0  0  2  0  0  0  0  0  0
  187.2020  174.0070  135.7600 N   0  0  0  0  0  0  0  0  0  0  0  0
  185.2620  174.0580  137.3530 C   0  0  0  0  0  2  0  0  0  0  0  0
  185.2750  175.3540  135.2380 C   0  0  0  0  0  3  0  0  0  0  0  0
  184.7860  174.0940  135.9140 C   0  0  1  0  0  3  0  0  0  0  0  0
  186.7860  175.3060  135.2420 C   0  0  0  0  0  3  0  0  0  0  0  0
  186.0220  173.2920  136.2720 C   0  0  1  0  0  3  0  0  0  0  0  0
  185.5740  179.0870  140.7360 O   0  0  0  0  0  0  0  0  0  0  0  0
  183.9330  177.6480  137.7090 C   0  0  0  0  0  3  0  0  0  0  0  0
  182.8950  176.9260  138.3070 C   0  0  0  0  0  0  0  0  0  0  0  0
  183.6470  177.6630  140.4890 C   0  0  0  0  0  3  0  0  0  0  0  0
  184.8260  178.3720  138.5010 C   0  0  0  0  0  3  0  0  0  0  0  0
  184.6850  178.3930  139.8990 C   0  0  0  0  0  0  0  0  0  0  0  0
  182.7490  176.9390  139.6970 C   0  0  0  0  0  3  0  0  0  0  0  0
  181.4390  175.0790  138.1760 O   0  0  0  0  0  1  0  0  0  0  0  0
  181.9300  176.1710  137.4630 C   0  0  0  0  0  2  0  0  0  0  0  0
  1  6  1  0  0  0  0
  2 11  1  0  0  0  0
  2 12  1  0  0  0  0
  3 10  1  0  0  0  0
  4  8  2  0  0  0  0
  5  1  2  0  0  0  0
  7  9  2  0  0  0  0
  7  4  1  0  0  0  0
  8  1  1  0  0  0  0
  9  5  1  0  0  0  0
 10 11  2  0  0  0  0
 11  7  1  0  0  0  0
 12 15  2  0  0  0  0
 13  2  2  0  0  0  0
 14  3  2  0  0  0  0
 14 13  1  0  0  0  0
 15  4  1  0  0  0  0
 16 18  2  0  0  0  0
 16  3  1  0  0  0  0
 17 16  1  0  0  0  0
 19 20  2  0  0  0  0
 19 17  1  0  0  0  0
 21 22  1  0  0  0  0
 21 19  1  0  0  0  0
 23 28  1  0  0  0  0
 24 29  1  6  0  0  0
 24 27  1  0  0  0  0
 25 22  1  0  0  0  0
 26 23  1  6  0  0  0
 26 24  1  0  0  0  0
 26 22  1  0  0  0  0
 26 27  1  0  0  0  0
 28 25  1  0  0  0  0
 29 34  1  0  0  0  0
 31 33  2  0  0  0  0
 32 31  1  6  0  0  0
 32 34  1  0  0  0  0
 32 30  1  0  0  0  0
 33 29  1  0  0  0  0
 34 30  1  1  0  0  0
 35 13  1  0  0  0  0
 36 37  2  0  0  0  0
 36 39  1  0  0  0  0
 37 41  1  0  0  0  0
 39 40  2  0  0  0  0
 40 38  1  0  0  0  0
 40 35  1  0  0  0  0
 41 38  2  0  0  0  0
 43 42  1  0  0  0  0
 43 37  1  0  0  0  0
M  END
>  <MODEL>
3

>  <REMARK>
 VINA RESULT:     -11.1      2.745      4.834
  Name = 
  7 active torsions:
  status: ('A' for Active; 'I' for Inactive)
    1  A    between atoms: O_1  and  C_34
    2  A    between atoms: O_1  and  C_35
    3  A    between atoms: C_2  and  C_13
    4  A    between atoms: C_3  and  N_4
    5  A    between atoms: C_3  and  C_12
    6  A    between atoms: N_11  and  C_14
    7  A    between atoms: C_19  and  C_37
                            x       y       z     vdW  Elec       q    Type
                         _______ _______ _______ _____ _____    ______ ____

>  <TORSDO>
F 7

$$$$
=
 OpenBabel10232410283D

 43 50  0  0  1  0  0  0  0  0999 V2000
  181.3390  179.0610  142.0800 C   0  0  0  0  0  0  0  0  0  0  0  0
  185.9770  178.3090  143.9760 C   0  0  0  0  0  0  0  0  0  0  0  0
  187.7030  177.9500  141.7820 C   0  0  0  0  0  0  0  0  0  0  0  0
  183.2330  178.7680  143.5620 C   0  0  0  0  0  0  0  0  0  0  0  0
  182.1750  178.9050  140.9720 C   0  0  0  0  0  3  0  0  0  0  0  0
  179.9820  179.2830  141.8970 O   0  0  0  0  0  1  0  0  0  0  0  0
  184.0900  178.6070  142.4450 C   0  0  0  0  0  0  0  0  0  0  0  0
  181.8670  178.9930  143.3720 C   0  0  0  0  0  3  0  0  0  0  0  0
  183.5420  178.6790  141.1510 C   0  0  0  0  0  3  0  0  0  0  0  0
  186.3420  178.1930  141.5720 C   0  0  0  0  0  3  0  0  0  0  0  0
  185.4650  178.3730  142.6530 C   0  0  0  0  0  0  0  0  0  0  0  0
  185.1070  178.4740  145.0620 C   0  0  0  0  0  3  0  0  0  0  0  0
  187.3470  178.0830  144.1940 C   0  0  0  0  0  0  0  0  0  0  0  0
  188.1930  177.8950  143.0920 C   0  0  0  0  0  3  0  0  0  0  0  0
  183.7470  178.7010  144.8560 C   0  0  0  0  0  3  0  0  0  0  0  0
  188.6080  177.7480  140.6390 C   0  0  0  0  0  0  0  0  0  0  0  0
  188.0640  177.5400  139.3270 N   0  0  0  0  0  2  0  0  0  0  0  0
  189.8570  177.7550  140.8170 O   0  0  0  0  0  0  0  0  0  0  0  0
  188.8310  177.2880  138.1450 C   0  0  0  0  0  0  0  0  0  0  0  0
  190.0890  177.2100  138.1880 O   0  0  0  0  0  0  0  0  0  0  0  0
  188.1300  177.1390  136.8410 C   0  0  0  0  0  2  0  0  0  0  0  0
  187.8390  175.7320  136.5970 N   0  0  0  0  0  0  0  0  0  0  0  0
  186.1530  175.2920  134.8390 C   0  0  0  0  0  2  0  0  0  0  0  0
  185.4060  175.9610  137.3170 C   0  0  2  0  0  3  0  0  0  0  0  0
  188.5220  175.3860  135.3520 C   0  0  0  0  0  2  0  0  0  0  0  0
  186.4210  175.6110  136.2840 C   0  0  2  0  0  0  0  0  0  0  0  0
  185.8330  174.6340  137.1080 O   0  0  0  0  0  0  0  0  0  0  0  0
  187.5060  174.8450  134.3490 C   0  0  0  0  0  2  0  0  0  0  0  0
  184.0900  176.1580  136.7110 N   0  0  0  0  0  0  0  0  0  0  0  0
  182.9300  175.7460  138.8990 C   0  0  0  0  0  2  0  0  0  0  0  0
  182.3750  177.6810  137.4490 C   0  0  0  0  0  3  0  0  0  0  0  0
  181.9640  176.2870  137.8640 C   0  0  1  0  0  3  0  0  0  0  0  0
  183.7440  177.5710  136.8160 C   0  0  0  0  0  3  0  0  0  0  0  0
  183.0820  175.3600  137.4290 C   0  0  1  0  0  3  0  0  0  0  0  0
  187.8310  178.0130  145.5150 O   0  0  0  0  0  0  0  0  0  0  0  0
  191.3680  176.8260  145.5830 C   0  0  0  0  0  3  0  0  0  0  0  0
  191.4350  176.3150  146.8830 C   0  0  0  0  0  0  0  0  0  0  0  0
  189.1170  176.9270  147.2370 C   0  0  0  0  0  3  0  0  0  0  0  0
  190.1780  177.3870  145.1140 C   0  0  0  0  0  3  0  0  0  0  0  0
  189.0390  177.4350  145.9350 C   0  0  0  0  0  0  0  0  0  0  0  0
  190.3070  176.3610  147.7080 C   0  0  0  0  0  3  0  0  0  0  0  0
  192.9840  176.1790  148.6530 O   0  0  0  0  0  1  0  0  0  0  0  0
  192.6950  175.6970  147.3770 C   0  0  0  0  0  2  0  0  0  0  0  0
  1  8  1  0  0  0  0
  2 13  1  0  0  0  0
  2 12  1  0  0  0  0
  3 14  1  0  0  0  0
  4 15  1  0  0  0  0
  5  9  1  0  0  0  0
  5  1  2  0  0  0  0
  6  1  1  0  0  0  0
  7 11  1  0  0  0  0
  7  4  1  0  0  0  0
  8  4  2  0  0  0  0
  9  7  2  0  0  0  0
 10  3  2  0  0  0  0
 10 11  1  0  0  0  0
 11  2  2  0  0  0  0
 13 35  1  0  0  0  0
 14 13  2  0  0  0  0
 15 12  2  0  0  0  0
 16 18  2  0  0  0  0
 16  3  1  0  0  0  0
 17 16  1  0  0  0  0
 19 20  2  0  0  0  0
 19 17  1  0  0  0  0
 21 19  1  0  0  0  0
 22 21  1  0  0  0  0
 24 29  1  6  0  0  0
 25 22  1  0  0  0  0
 26 23  1  6  0  0  0
 26 22  1  0  0  0  0
 26 27  1  0  0  0  0
 26 24  1  0  0  0  0
 27 24  1  0  0  0  0
 28 23  1  0  0  0  0
 28 25  1  0  0  0  0
 29 33  1  0  0  0  0
 29 34  1  0  0  0  0
 32 31  1  6  0  0  0
 32 30  1  0  0  0  0
 33 31  2  0  0  0  0
 34 32  1  0  0  0  0
 34 30  1  1  0  0  0
 35 40  1  0  0  0  0
 36 37  1  0  0  0  0
 37 43  1  0  0  0  0
 37 41  2  0  0  0  0
 38 41  1  0  0  0  0
 39 36  2  0  0  0  0
 39 40  1  0  0  0  0
 40 38  2  0  0  0  0
 43 42  1  0  0  0  0
M  END
>  <MODEL>
4

>  <REMARK>
 VINA RESULT:     -11.1      3.229      8.242
  Name = 
  7 active torsions:
  status: ('A' for Active; 'I' for Inactive)
    1  A    between atoms: O_1  and  C_34
    2  A    between atoms: O_1  and  C_35
    3  A    between atoms: C_2  and  C_13
    4  A    between atoms: C_3  and  N_4
    5  A    between atoms: C_3  and  C_12
    6  A    between atoms: N_11  and  C_14
    7  A    between atoms: C_19  and  C_37
                            x       y       z     vdW  Elec       q    Type
                         _______ _______ _______ _____ _____    ______ ____

>  <TORSDO>
F 7

$$$$
=
 OpenBabel10232410283D

 43 50  0  0  1  0  0  0  0  0999 V2000
  189.8990  177.4980  138.3590 C   0  0  0  0  0  0  0  0  0  0  0  0
  184.9380  178.3770  138.8900 C   0  0  0  0  0  0  0  0  0  0  0  0
  184.4670  178.7420  141.6400 C   0  0  0  0  0  0  0  0  0  0  0  0
  187.5360  177.8430  137.9530 C   0  0  0  0  0  0  0  0  0  0  0  0
  189.6990  177.6930  139.7270 C   0  0  0  0  0  3  0  0  0  0  0  0
  191.1720  177.2280  137.8780 O   0  0  0  0  0  1  0  0  0  0  0  0
  187.3210  178.0410  139.3400 C   0  0  0  0  0  0  0  0  0  0  0  0
  188.8210  177.5730  137.4740 C   0  0  0  0  0  3  0  0  0  0  0  0
  188.4180  177.9620  140.2170 C   0  0  0  0  0  3  0  0  0  0  0  0
  185.7630  178.4910  141.1770 C   0  0  0  0  0  3  0  0  0  0  0  0
  186.0170  178.3050  139.8100 C   0  0  0  0  0  0  0  0  0  0  0  0
  185.1800  178.1800  137.5240 C   0  0  0  0  0  3  0  0  0  0  0  0
  183.6360  178.6460  139.3460 C   0  0  0  0  0  0  0  0  0  0  0  0
  183.4150  178.8150  140.7210 C   0  0  0  0  0  3  0  0  0  0  0  0
  186.4680  177.9130  137.0600 C   0  0  0  0  0  3  0  0  0  0  0  0
  184.2130  178.9190  143.0790 C   0  0  0  0  0  0  0  0  0  0  0  0
  185.3160  179.0100  143.9920 N   0  0  0  0  0  2  0  0  0  0  0  0
  183.0260  178.9870  143.5040 O   0  0  0  0  0  0  0  0  0  0  0  0
  185.2040  179.1380  145.4130 C   0  0  0  0  0  0  0  0  0  0  0  0
  184.0770  179.1600  145.9790 O   0  0  0  0  0  0  0  0  0  0  0  0
  186.4390  179.2710  146.2320 C   0  0  0  0  0  2  0  0  0  0  0  0
  186.8390  177.9630  146.7350 N   0  0  0  0  0  0  0  0  0  0  0  0
  189.1460  177.8320  147.6210 C   0  0  0  0  0  2  0  0  0  0  0  0
  188.6790  177.6950  144.9940 C   0  0  2  0  0  3  0  0  0  0  0  0
  186.7990  178.0580  148.1930 C   0  0  0  0  0  2  0  0  0  0  0  0
  188.2470  177.7670  146.4170 C   0  0  2  0  0  0  0  0  0  0  0  0
  188.4200  176.5380  145.7560 O   0  0  0  0  0  0  0  0  0  0  0  0
  188.1700  177.7010  148.7630 C   0  0  0  0  0  2  0  0  0  0  0  0
  190.1220  177.8960  144.8730 N   0  0  0  0  0  0  0  0  0  0  0  0
  190.3020  176.1350  143.0930 C   0  0  0  0  0  2  0  0  0  0  0  0
  191.3490  178.3710  142.8560 C   0  0  0  0  0  3  0  0  0  0  0  0
  191.5920  176.9230  143.2120 C   0  0  1  0  0  3  0  0  0  0  0  0
  190.3600  178.9180  143.8600 C   0  0  0  0  0  3  0  0  0  0  0  0
  190.7710  176.6420  144.4550 C   0  0  1  0  0  3  0  0  0  0  0  0
  182.5790  178.7030  138.4170 O   0  0  0  0  0  0  0  0  0  0  0  0
  180.4690  181.0090  136.3790 C   0  0  0  0  0  3  0  0  0  0  0  0
  180.7300  182.2220  137.0240 C   0  0  0  0  0  0  0  0  0  0  0  0
  182.2140  181.0790  138.5600 C   0  0  0  0  0  3  0  0  0  0  0  0
  181.0790  179.8350  136.8270 C   0  0  0  0  0  3  0  0  0  0  0  0
  181.9640  179.8620  137.9170 C   0  0  0  0  0  0  0  0  0  0  0  0
  181.6070  182.2570  138.1120 C   0  0  0  0  0  3  0  0  0  0  0  0
  181.0830  184.4280  136.2770 O   0  0  0  0  0  1  0  0  0  0  0  0
  180.0980  183.4760  136.5350 C   0  0  0  0  0  2  0  0  0  0  0  0
  1  5  1  0  0  0  0
  2 13  2  0  0  0  0
  2 11  1  0  0  0  0
  3 16  1  0  0  0  0
  4  7  2  0  0  0  0
  5  9  2  0  0  0  0
  6  1  1  0  0  0  0
  7 11  1  0  0  0  0
  7  9  1  0  0  0  0
  8  4  1  0  0  0  0
  8  1  2  0  0  0  0
 10  3  1  0  0  0  0
 11 10  2  0  0  0  0
 12  2  1  0  0  0  0
 13 14  1  0  0  0  0
 14  3  2  0  0  0  0
 15 12  2  0  0  0  0
 15  4  1  0  0  0  0
 16 18  2  0  0  0  0
 16 17  1  0  0  0  0
 17 19  1  0  0  0  0
 19 20  2  0  0  0  0
 19 21  1  0  0  0  0
 21 22  1  0  0  0  0
 22 25  1  0  0  0  0
 23 28  1  0  0  0  0
 24 29  1  1  0  0  0
 24 27  1  0  0  0  0
 24 26  1  0  0  0  0
 25 28  1  0  0  0  0
 26 22  1  0  0  0  0
 26 23  1  1  0  0  0
 27 26  1  0  0  0  0
 30 32  1  0  0  0  0
 31 33  2  0  0  0  0
 32 31  1  6  0  0  0
 32 34  1  0  0  0  0
 33 29  1  0  0  0  0
 34 30  1  6  0  0  0
 34 29  1  0  0  0  0
 35 13  1  0  0  0  0
 36 39  2  0  0  0  0
 36 37  1  0  0  0  0
 37 41  2  0  0  0  0
 39 40  1  0  0  0  0
 40 35  1  0  0  0  0
 40 38  2  0  0  0  0
 41 38  1  0  0  0  0
 42 43  1  0  0  0  0
 43 37  1  0  0  0  0
M  END
>  <MODEL>
5

>  <REMARK>
 VINA RESULT:     -10.5      3.872      8.259
  Name = 
  7 active torsions:
  status: ('A' for Active; 'I' for Inactive)
    1  A    between atoms: O_1  and  C_34
    2  A    between atoms: O_1  and  C_35
    3  A    between atoms: C_2  and  C_13
    4  A    between atoms: C_3  and  N_4
    5  A    between atoms: C_3  and  C_12
    6  A    between atoms: N_11  and  C_14
    7  A    between atoms: C_19  and  C_37
                            x       y       z     vdW  Elec       q    Type
                         _______ _______ _______ _____ _____    ______ ____

>  <TORSDO>
F 7

$$$$
=
 OpenBabel10232410283D

 43 50  0  0  1  0  0  0  0  0999 V2000
  188.5600  177.3870  147.1020 C   0  0  0  0  0  0  0  0  0  0  0  0
  187.9590  178.1860  142.1360 C   0  0  0  0  0  0  0  0  0  0  0  0
  185.1870  178.3090  141.6630 C   0  0  0  0  0  0  0  0  0  0  0  0
  188.9360  177.7510  144.7370 C   0  0  0  0  0  0  0  0  0  0  0  0
  187.1800  177.4620  146.9010 C   0  0  0  0  0  3  0  0  0  0  0  0
  189.0620  177.1680  148.3770 O   0  0  0  0  0  1  0  0  0  0  0  0
  187.5380  177.8270  144.5210 C   0  0  0  0  0  0  0  0  0  0  0  0
  189.4360  177.5320  146.0240 C   0  0  0  0  0  3  0  0  0  0  0  0
  186.6700  177.6800  145.6180 C   0  0  0  0  0  3  0  0  0  0  0  0
  185.6690  178.1080  142.9600 C   0  0  0  0  0  3  0  0  0  0  0  0
  187.0470  178.0420  143.2150 C   0  0  0  0  0  0  0  0  0  0  0  0
  189.3370  178.1090  142.3790 C   0  0  0  0  0  3  0  0  0  0  0  0
  187.4820  178.4070  140.8320 C   0  0  0  0  0  0  0  0  0  0  0  0
  186.0980  178.4550  140.6100 C   0  0  0  0  0  3  0  0  0  0  0  0
  189.8210  177.8920  143.6690 C   0  0  0  0  0  3  0  0  0  0  0  0
  183.7380  178.3600  141.4070 C   0  0  0  0  0  0  0  0  0  0  0  0
  183.2230  177.9330  140.1380 N   0  0  0  0  0  2  0  0  0  0  0  0
  182.9560  178.7810  142.3040 O   0  0  0  0  0  0  0  0  0  0  0  0
  181.8460  177.9730  139.7490 C   0  0  0  0  0  0  0  0  0  0  0  0
  180.9620  178.4250  140.5260 O   0  0  0  0  0  0  0  0  0  0  0  0
  181.4520  177.4500  138.4130 C   0  0  0  0  0  2  0  0  0  0  0  0
  182.3310  178.0010  137.3900 N   0  0  0  0  0  0  0  0  0  0  0  0
  182.1950  176.9010  135.1770 C   0  0  0  0  0  2  0  0  0  0  0  0
  183.6470  175.8330  137.1500 C   0  0  2  0  0  3  0  0  0  0  0  0
  181.4810  178.7990  136.5090 C   0  0  0  0  0  2  0  0  0  0  0  0
  182.7970  176.9020  136.5550 C   0  0  2  0  0  0  0  0  0  0  0  0
  184.2000  176.9330  136.4650 O   0  0  0  0  0  0  0  0  0  0  0  0
  181.6140  178.2880  135.0760 C   0  0  0  0  0  2  0  0  0  0  0  0
  183.6770  174.6500  136.2920 N   0  0  0  0  0  0  0  0  0  0  0  0
  185.8070  173.8380  137.3450 C   0  0  0  0  0  2  0  0  0  0  0  0
  183.8480  172.3550  137.0030 C   0  0  0  0  0  3  0  0  0  0  0  0
  185.1960  172.7700  136.4590 C   0  0  1  0  0  3  0  0  0  0  0  0
  182.9570  173.5750  136.9660 C   0  0  0  0  0  3  0  0  0  0  0  0
  185.0700  174.2280  136.0650 C   0  0  1  0  0  3  0  0  0  0  0  0
  188.4020  178.5370  139.7760 O   0  0  0  0  0  0  0  0  0  0  0  0
  188.8810  175.8770  137.2010 C   0  0  0  0  0  3  0  0  0  0  0  0
  188.2580  176.4780  136.1030 C   0  0  0  0  0  0  0  0  0  0  0  0
  187.7600  178.4250  137.4570 C   0  0  0  0  0  3  0  0  0  0  0  0
  188.9410  176.5500  138.4240 C   0  0  0  0  0  3  0  0  0  0  0  0
  188.3880  177.8350  138.5600 C   0  0  0  0  0  0  0  0  0  0  0  0
  187.7020  177.7540  136.2310 C   0  0  0  0  0  3  0  0  0  0  0  0
  188.8760  174.5500  134.8980 O   0  0  0  0  0  1  0  0  0  0  0  0
  188.2120  175.7720  134.7950 C   0  0  0  0  0  2  0  0  0  0  0  0
  1  6  1  0  0  0  0
  2 12  1  0  0  0  0
  2 11  1  0  0  0  0
  3 10  1  0  0  0  0
  4  8  1  0  0  0  0
  5  1  1  0  0  0  0
  7  4  2  0  0  0  0
  7  9  1  0  0  0  0
  8  1  2  0  0  0  0
  9  5  2  0  0  0  0
 10 11  2  0  0  0  0
 11  7  1  0  0  0  0
 12 15  2  0  0  0  0
 13  2  2  0  0  0  0
 14 13  1  0  0  0  0
 14  3  2  0  0  0  0
 15  4  1  0  0  0  0
 16  3  1  0  0  0  0
 16 18  2  0  0  0  0
 17 16  1  0  0  0  0
 19 17  1  0  0  0  0
 19 20  2  0  0  0  0
 21 19  1  0  0  0  0
 22 21  1  0  0  0  0
 24 29  1  6  0  0  0
 25 22  1  0  0  0  0
 26 23  1  6  0  0  0
 26 24  1  0  0  0  0
 26 22  1  0  0  0  0
 27 26  1  0  0  0  0
 27 24  1  0  0  0  0
 28 23  1  0  0  0  0
 28 25  1  0  0  0  0
 29 33  1  0  0  0  0
 32 31  1  1  0  0  0
 32 30  1  0  0  0  0
 33 31  2  0  0  0  0
 34 29  1  0  0  0  0
 34 32  1  0  0  0  0
 34 30  1  1  0  0  0
 35 13  1  0  0  0  0
 36 39  1  0  0  0  0
 37 41  1  0  0  0  0
 37 36  2  0  0  0  0
 38 40  1  0  0  0  0
 39 40  2  0  0  0  0
 40 35  1  0  0  0  0
 41 38  2  0  0  0  0
 43 42  1  0  0  0  0
 43 37  1  0  0  0  0
M  END
>  <MODEL>
6

>  <REMARK>
 VINA RESULT:     -10.5      3.790      7.665
  Name = 
  7 active torsions:
  status: ('A' for Active; 'I' for Inactive)
    1  A    between atoms: O_1  and  C_34
    2  A    between atoms: O_1  and  C_35
    3  A    between atoms: C_2  and  C_13
    4  A    between atoms: C_3  and  N_4
    5  A    between atoms: C_3  and  C_12
    6  A    between atoms: N_11  and  C_14
    7  A    between atoms: C_19  and  C_37
                            x       y       z     vdW  Elec       q    Type
                         _______ _______ _______ _____ _____    ______ ____

>  <TORSDO>
F 7

$$$$
=
 OpenBabel10232410283D

 43 50  0  0  1  0  0  0  0  0999 V2000
  188.0830  177.5110  146.9080 C   0  0  0  0  0  0  0  0  0  0  0  0
  185.3700  178.5720  142.7630 C   0  0  0  0  0  0  0  0  0  0  0  0
  187.1290  178.3940  140.5730 C   0  0  0  0  0  0  0  0  0  0  0  0
  186.3000  178.0890  145.3720 C   0  0  0  0  0  0  0  0  0  0  0  0
  188.9740  177.3970  145.8390 C   0  0  0  0  0  3  0  0  0  0  0  0
  188.5240  177.2820  148.2030 O   0  0  0  0  0  1  0  0  0  0  0  0
  187.1970  177.9780  144.2810 C   0  0  0  0  0  0  0  0  0  0  0  0
  186.7490  177.8560  146.6750 C   0  0  0  0  0  3  0  0  0  0  0  0
  188.5360  177.6290  144.5320 C   0  0  0  0  0  3  0  0  0  0  0  0
  187.5920  178.1380  141.8680 C   0  0  0  0  0  3  0  0  0  0  0  0
  186.7310  178.2240  142.9720 C   0  0  0  0  0  0  0  0  0  0  0  0
  184.5050  178.6720  143.8600 C   0  0  0  0  0  3  0  0  0  0  0  0
  184.8940  178.8130  141.4620 C   0  0  0  0  0  0  0  0  0  0  0  0
  185.7840  178.7300  140.3820 C   0  0  0  0  0  3  0  0  0  0  0  0
  184.9670  178.4340  145.1540 C   0  0  0  0  0  3  0  0  0  0  0  0
  188.0480  178.3160  139.4250 C   0  0  0  0  0  0  0  0  0  0  0  0
  187.8620  177.2990  138.4310 N   0  0  0  0  0  2  0  0  0  0  0  0
  188.9950  179.1430  139.3220 O   0  0  0  0  0  0  0  0  0  0  0  0
  188.7080  177.0890  137.2960 C   0  0  0  0  0  0  0  0  0  0  0  0
  189.7270  177.8060  137.1000 O   0  0  0  0  0  0  0  0  0  0  0  0
  188.3640  176.0200  136.3190 C   0  0  0  0  0  2  0  0  0  0  0  0
  188.2910  174.7350  137.0020 N   0  0  0  0  0  0  0  0  0  0  0  0
  187.3010  172.8910  135.6800 C   0  0  0  0  0  2  0  0  0  0  0  0
  185.7450  174.6730  136.9230 C   0  0  2  0  0  3  0  0  0  0  0  0
  189.3640  173.9150  136.4420 C   0  0  0  0  0  2  0  0  0  0  0  0
  187.0640  174.0700  136.5840 C   0  0  2  0  0  0  0  0  0  0  0  0
  186.3320  173.6660  137.7140 O   0  0  0  0  0  0  0  0  0  0  0  0
  188.7740  172.6310  135.8660 C   0  0  0  0  0  2  0  0  0  0  0  0
  184.6810  174.1010  136.1010 N   0  0  0  0  0  0  0  0  0  0  0  0
  182.9340  174.6990  137.8020 C   0  0  0  0  0  2  0  0  0  0  0  0
  182.6590  175.1990  135.3880 C   0  0  0  0  0  3  0  0  0  0  0  0
  182.2960  174.2460  136.5040 C   0  0  1  0  0  3  0  0  0  0  0  0
  184.1610  175.1470  135.2280 C   0  0  0  0  0  3  0  0  0  0  0  0
  183.5920  173.6070  136.9620 C   0  0  1  0  0  3  0  0  0  0  0  0
  183.5440  179.1660  141.2790 O   0  0  0  0  0  0  0  0  0  0  0  0
  180.9710  177.2910  139.3310 C   0  0  0  0  0  3  0  0  0  0  0  0
  181.0020  178.0020  138.1270 C   0  0  0  0  0  0  0  0  0  0  0  0
  182.7180  179.4520  139.0340 C   0  0  0  0  0  3  0  0  0  0  0  0
  181.8120  177.6620  140.3820 C   0  0  0  0  0  3  0  0  0  0  0  0
  182.7000  178.7420  140.2400 C   0  0  0  0  0  0  0  0  0  0  0  0
  181.8790  179.0800  137.9780 C   0  0  0  0  0  3  0  0  0  0  0  0
  180.6160  178.1200  135.8060 O   0  0  0  0  0  1  0  0  0  0  0  0
  180.1220  177.5950  136.9990 C   0  0  0  0  0  2  0  0  0  0  0  0
  1  6  1  0  0  0  0
  2 11  1  0  0  0  0
  2 12  1  0  0  0  0
  3 10  1  0  0  0  0
  4  8  2  0  0  0  0
  5  1  2  0  0  0  0
  7  9  2  0  0  0  0
  7  4  1  0  0  0  0
  8  1  1  0  0  0  0
  9  5  1  0  0  0  0
 10 11  2  0  0  0  0
 11  7  1  0  0  0  0
 12 15  2  0  0  0  0
 13  2  2  0  0  0  0
 14  3  2  0  0  0  0
 14 13  1  0  0  0  0
 15  4  1  0  0  0  0
 16  3  1  0  0  0  0
 17 16  1  0  0  0  0
 18 16  2  0  0  0  0
 19 17  1  0  0  0  0
 20 19  2  0  0  0  0
 21 22  1  0  0  0  0
 21 19  1  0  0  0  0
 23 28  1  0  0  0  0
 24 29  1  6  0  0  0
 24 27  1  0  0  0  0
 25 22  1  0  0  0  0
 26 23  1  6  0  0  0
 26 24  1  0  0  0  0
 26 22  1  0  0  0  0
 26 27  1  0  0  0  0
 28 25  1  0  0  0  0
 29 34  1  0  0  0  0
 32 31  1  6  0  0  0
 32 34  1  0  0  0  0
 32 30  1  0  0  0  0
 33 31  2  0  0  0  0
 33 29  1  0  0  0  0
 34 30  1  1  0  0  0
 35 13  1  0  0  0  0
 36 39  1  0  0  0  0
 37 36  2  0  0  0  0
 38 40  1  0  0  0  0
 40 39  2  0  0  0  0
 40 35  1  0  0  0  0
 41 37  1  0  0  0  0
 41 38  2  0  0  0  0
 42 43  1  0  0  0  0
 43 37  1  0  0  0  0
M  END
>  <MODEL>
7

>  <REMARK>
 VINA RESULT:     -10.4      3.238      5.718
  Name = 
  7 active torsions:
  status: ('A' for Active; 'I' for Inactive)
    1  A    between atoms: O_1  and  C_34
    2  A    between atoms: O_1  and  C_35
    3  A    between atoms: C_2  and  C_13
    4  A    between atoms: C_3  and  N_4
    5  A    between atoms: C_3  and  C_12
    6  A    between atoms: N_11  and  C_14
    7  A    between atoms: C_19  and  C_37
                            x       y       z     vdW  Elec       q    Type
                         _______ _______ _______ _____ _____    ______ ____

>  <TORSDO>
F 7

$$$$
=
 OpenBabel10232410283D

 43 50  0  0  1  0  0  0  0  0999 V2000
  180.8850  174.9180  136.9760 C   0  0  0  0  0  0  0  0  0  0  0  0
  184.8210  177.6570  138.6090 C   0  0  0  0  0  0  0  0  0  0  0  0
  184.3180  178.2730  141.3090 C   0  0  0  0  0  0  0  0  0  0  0  0
  182.9710  176.1390  137.1320 C   0  0  0  0  0  0  0  0  0  0  0  0
  180.6170  175.1920  138.3190 C   0  0  0  0  0  3  0  0  0  0  0  0
  179.9820  174.1750  136.2290 O   0  0  0  0  0  1  0  0  0  0  0  0
  182.7090  176.4250  138.4950 C   0  0  0  0  0  0  0  0  0  0  0  0
  182.0590  175.3900  136.3840 C   0  0  0  0  0  3  0  0  0  0  0  0
  181.5220  175.9420  139.0750 C   0  0  0  0  0  3  0  0  0  0  0  0
  183.4020  177.5060  140.5820 C   0  0  0  0  0  3  0  0  0  0  0  0
  183.6350  177.1900  139.2350 C   0  0  0  0  0  0  0  0  0  0  0  0
  185.0570  177.3570  137.2610 C   0  0  0  0  0  3  0  0  0  0  0  0
  185.7550  178.4140  139.3390 C   0  0  0  0  0  0  0  0  0  0  0  0
  185.4850  178.7220  140.6800 C   0  0  0  0  0  3  0  0  0  0  0  0
  184.1380  176.6060  136.5280 C   0  0  0  0  0  3  0  0  0  0  0  0
  184.0530  178.6120  142.7170 C   0  0  0  0  0  0  0  0  0  0  0  0
  185.1490  178.7800  143.6280 N   0  0  0  0  0  2  0  0  0  0  0  0
  182.8640  178.7500  143.1170 O   0  0  0  0  0  0  0  0  0  0  0  0
  185.0250  179.0640  145.0250 C   0  0  0  0  0  0  0  0  0  0  0  0
  183.8940  179.1710  145.5710 O   0  0  0  0  0  0  0  0  0  0  0  0
  186.2550  179.2600  145.8390 C   0  0  0  0  0  2  0  0  0  0  0  0
  186.6430  177.9980  146.4560 N   0  0  0  0  0  0  0  0  0  0  0  0
  188.8960  177.9720  147.4810 C   0  0  0  0  0  2  0  0  0  0  0  0
  188.5860  177.6430  144.8470 C   0  0  2  0  0  3  0  0  0  0  0  0
  186.5160  178.1940  147.8990 C   0  0  0  0  0  2  0  0  0  0  0  0
  188.0700  177.8070  146.2350 C   0  0  2  0  0  0  0  0  0  0  0  0
  188.3000  176.5380  145.6730 O   0  0  0  0  0  0  0  0  0  0  0  0
  187.8560  177.9040  148.5700 C   0  0  0  0  0  2  0  0  0  0  0  0
  190.0310  177.8630  144.7960 N   0  0  0  0  0  0  0  0  0  0  0  0
  190.3350  176.0190  143.1190 C   0  0  0  0  0  2  0  0  0  0  0  0
  191.3620  178.2580  142.8280 C   0  0  0  0  0  3  0  0  0  0  0  0
  191.6050  176.8330  143.2700 C   0  0  1  0  0  3  0  0  0  0  0  0
  190.3110  178.8370  143.7470 C   0  0  0  0  0  3  0  0  0  0  0  0
  190.7190  176.6010  144.4780 C   0  0  1  0  0  3  0  0  0  0  0  0
  186.9190  178.8750  138.6960 O   0  0  0  0  0  0  0  0  0  0  0  0
  190.0490  177.0550  139.6020 C   0  0  0  0  0  3  0  0  0  0  0  0
  190.5750  176.8140  138.3280 C   0  0  0  0  0  0  0  0  0  0  0  0
  188.6800  177.9520  137.3360 C   0  0  0  0  0  3  0  0  0  0  0  0
  188.8400  177.7420  139.7390 C   0  0  0  0  0  3  0  0  0  0  0  0
  188.1490  178.2040  138.6070 C   0  0  0  0  0  0  0  0  0  0  0  0
  189.8910  177.2670  137.1960 C   0  0  0  0  0  3  0  0  0  0  0  0
  192.9060  176.9060  138.6580 O   0  0  0  0  0  1  0  0  0  0  0  0
  191.8720  176.1010  138.1810 C   0  0  0  0  0  2  0  0  0  0  0  0
  1  5  1  0  0  0  0
  2 11  1  0  0  0  0
  2 13  1  0  0  0  0
  3 16  1  0  0  0  0
  4  7  1  0  0  0  0
  5  9  2  0  0  0  0
  6  1  1  0  0  0  0
  7  9  1  0  0  0  0
  7 11  2  0  0  0  0
  8  1  2  0  0  0  0
  8  4  1  0  0  0  0
 10  3  2  0  0  0  0
 11 10  1  0  0  0  0
 12  2  2  0  0  0  0
 13 14  2  0  0  0  0
 14  3  1  0  0  0  0
 15  4  2  0  0  0  0
 15 12  1  0  0  0  0
 16 18  2  0  0  0  0
 16 17  1  0  0  0  0
 17 19  1  0  0  0  0
 19 20  2  0  0  0  0
 19 21  1  0  0  0  0
 21 22  1  0  0  0  0
 22 25  1  0  0  0  0
 23 28  1  0  0  0  0
 24 29  1  1  0  0  0
 24 27  1  0  0  0  0
 24 26  1  0  0  0  0
 25 28  1  0  0  0  0
 26 22  1  0  0  0  0
 26 23  1  1  0  0  0
 27 26  1  0  0  0  0
 30 32  1  0  0  0  0
 31 33  2  0  0  0  0
 32 31  1  6  0  0  0
 32 34  1  0  0  0  0
 33 29  1  0  0  0  0
 34 30  1  6  0  0  0
 34 29  1  0  0  0  0
 35 13  1  0  0  0  0
 36 39  1  0  0  0  0
 37 36  2  0  0  0  0
 38 40  1  0  0  0  0
 40 35  1  0  0  0  0
 40 39  2  0  0  0  0
 41 38  2  0  0  0  0
 41 37  1  0  0  0  0
 43 37  1  0  0  0  0
 43 42  1  0  0  0  0
M  END
>  <MODEL>
8

>  <REMARK>
 VINA RESULT:     -10.4      3.355      9.855
  Name = 
  7 active torsions:
  status: ('A' for Active; 'I' for Inactive)
    1  A    between atoms: O_1  and  C_34
    2  A    between atoms: O_1  and  C_35
    3  A    between atoms: C_2  and  C_13
    4  A    between atoms: C_3  and  N_4
    5  A    between atoms: C_3  and  C_12
    6  A    between atoms: N_11  and  C_14
    7  A    between atoms: C_19  and  C_37
                            x       y       z     vdW  Elec       q    Type
                         _______ _______ _______ _____ _____    ______ ____

>  <TORSDO>
F 7

$$$$
=
 OpenBabel10232410283D

 43 50  0  0  1  0  0  0  0  0999 V2000
  187.7070  177.6070  147.1800 C   0  0  0  0  0  0  0  0  0  0  0  0
  188.5880  177.9770  142.2050 C   0  0  0  0  0  0  0  0  0  0  0  0
  186.1070  178.4850  140.9760 C   0  0  0  0  0  0  0  0  0  0  0  0
  188.7510  177.6630  144.9950 C   0  0  0  0  0  0  0  0  0  0  0  0
  186.4650  177.8760  146.6000 C   0  0  0  0  0  3  0  0  0  0  0  0
  187.8070  177.4430  148.5540 O   0  0  0  0  0  1  0  0  0  0  0  0
  187.4960  177.9350  144.3960 C   0  0  0  0  0  0  0  0  0  0  0  0
  188.8470  177.5010  146.3800 C   0  0  0  0  0  3  0  0  0  0  0  0
  186.3590  178.0390  145.2160 C   0  0  0  0  0  3  0  0  0  0  0  0
  186.1870  178.3440  142.3650 C   0  0  0  0  0  3  0  0  0  0  0  0
  187.4140  178.0890  142.9960 C   0  0  0  0  0  0  0  0  0  0  0  0
  189.8160  177.7100  142.8240 C   0  0  0  0  0  3  0  0  0  0  0  0
  188.5190  178.1350  140.8100 C   0  0  0  0  0  0  0  0  0  0  0  0
  187.2740  178.3770  140.2110 C   0  0  0  0  0  3  0  0  0  0  0  0
  189.8960  177.5530  144.2070 C   0  0  0  0  0  3  0  0  0  0  0  0
  184.8100  178.7360  140.3260 C   0  0  0  0  0  0  0  0  0  0  0  0
  183.9280  177.6390  140.0490 N   0  0  0  0  0  2  0  0  0  0  0  0
  184.4820  179.9130  140.0140 O   0  0  0  0  0  0  0  0  0  0  0  0
  182.6640  177.7420  139.3850 C   0  0  0  0  0  0  0  0  0  0  0  0
  182.2370  178.8520  138.9660 O   0  0  0  0  0  0  0  0  0  0  0  0
  181.8330  176.5210  139.2090 C   0  0  0  0  0  2  0  0  0  0  0  0
  181.3010  176.4790  137.8530 N   0  0  0  0  0  0  0  0  0  0  0  0
  181.6360  174.3410  136.6520 C   0  0  0  0  0  2  0  0  0  0  0  0
  183.6010  176.1460  136.8080 C   0  0  2  0  0  3  0  0  0  0  0  0
  180.0720  175.6930  137.9210 C   0  0  0  0  0  2  0  0  0  0  0  0
  182.2050  175.6790  137.0380 C   0  0  2  0  0  0  0  0  0  0  0  0
  182.5670  176.3950  135.8830 O   0  0  0  0  0  0  0  0  0  0  0  0
  180.1700  174.5110  136.9600 C   0  0  0  0  0  2  0  0  0  0  0  0
  184.4450  175.0550  136.3240 N   0  0  0  0  0  0  0  0  0  0  0  0
  186.0580  176.6620  135.2660 C   0  0  0  0  0  2  0  0  0  0  0  0
  186.8090  174.7830  136.7010 C   0  0  0  0  0  3  0  0  0  0  0  0
  186.6210  175.2550  135.2780 C   0  0  1  0  0  3  0  0  0  0  0  0
  185.4420  174.7580  137.3470 C   0  0  0  0  0  3  0  0  0  0  0  0
  185.1310  175.4620  135.0860 C   0  0  1  0  0  3  0  0  0  0  0  0
  189.6930  178.0100  140.0440 O   0  0  0  0  0  0  0  0  0  0  0  0
  189.4770  177.7320  136.3290 C   0  0  0  0  0  3  0  0  0  0  0  0
  190.0830  176.4860  136.1360 C   0  0  0  0  0  0  0  0  0  0  0  0
  190.4020  176.2770  138.5280 C   0  0  0  0  0  3  0  0  0  0  0  0
  189.3360  178.2470  137.6190 C   0  0  0  0  0  3  0  0  0  0  0  0
  189.7910  177.5190  138.7320 C   0  0  0  0  0  0  0  0  0  0  0  0
  190.5410  175.7570  137.2370 C   0  0  0  0  0  3  0  0  0  0  0  0
  190.4760  174.5590  134.8380 O   0  0  0  0  0  1  0  0  0  0  0  0
  190.2150  175.9270  134.7640 C   0  0  0  0  0  2  0  0  0  0  0  0
  1  6  1  0  0  0  0
  2 12  1  0  0  0  0
  2 11  1  0  0  0  0
  3 10  1  0  0  0  0
  4  8  1  0  0  0  0
  5  1  1  0  0  0  0
  7  4  2  0  0  0  0
  7  9  1  0  0  0  0
  8  1  2  0  0  0  0
  9  5  2  0  0  0  0
 10 11  2  0  0  0  0
 11  7  1  0  0  0  0
 12 15  2  0  0  0  0
 13  2  2  0  0  0  0
 14 13  1  0  0  0  0
 14  3  2  0  0  0  0
 15  4  1  0  0  0  0
 16  3  1  0  0  0  0
 17 16  1  0  0  0  0
 18 16  2  0  0  0  0
 19 17  1  0  0  0  0
 20 19  2  0  0  0  0
 21 19  1  0  0  0  0
 22 25  1  0  0  0  0
 22 21  1  0  0  0  0
 23 28  1  0  0  0  0
 24 29  1  6  0  0  0
 24 26  1  0  0  0  0
 26 23  1  6  0  0  0
 26 22  1  0  0  0  0
 27 24  1  0  0  0  0
 27 26  1  0  0  0  0
 28 25  1  0  0  0  0
 29 33  1  0  0  0  0
 31 33  2  0  0  0  0
 32 30  1  1  0  0  0
 32 31  1  0  0  0  0
 34 30  1  1  0  0  0
 34 32  1  0  0  0  0
 34 29  1  0  0  0  0
 35 13  1  0  0  0  0
 36 39  1  0  0  0  0
 37 36  2  0  0  0  0
 37 41  1  0  0  0  0
 38 40  1  0  0  0  0
 39 40  2  0  0  0  0
 40 35  1  0  0  0  0
 41 38  2  0  0  0  0
 43 42  1  0  0  0  0
 43 37  1  0  0  0  0
M  END
>  <MODEL>
9

>  <REMARK>
 VINA RESULT:     -10.1      3.502      7.690
  Name = 
  7 active torsions:
  status: ('A' for Active; 'I' for Inactive)
    1  A    between atoms: O_1  and  C_34
    2  A    between atoms: O_1  and  C_35
    3  A    between atoms: C_2  and  C_13
    4  A    between atoms: C_3  and  N_4
    5  A    between atoms: C_3  and  C_12
    6  A    between atoms: N_11  and  C_14
    7  A    between atoms: C_19  and  C_37
                            x       y       z     vdW  Elec       q    Type
                         _______ _______ _______ _____ _____    ______ ____

>  <TORSDO>
F 7

$$$$
