=
 OpenBabel10232410043D

 28 30  0  0  1  0  0  0  0  0999 V2000
  183.7390  179.0420  142.3900 S   0  0  0  0  0  0  0  0  0  0  0  0
  185.0000  178.8470  143.4920 C   0  0  0  0  0  0  0  0  0  0  0  0
  184.7480  178.8600  141.0580 C   0  0  0  0  0  0  0  0  0  0  0  0
  186.1840  178.6550  142.8660 N   0  0  0  0  0  0  0  0  0  0  0  0
  186.0500  178.6750  141.5140 C   0  0  0  0  0  0  0  0  0  0  0  0
  186.0150  178.7660  145.7800 N   0  0  0  0  0  2  0  0  0  0  0  0
  183.7150  179.0190  145.4670 O   0  0  0  0  0  0  0  0  0  0  0  0
  184.8560  178.8830  144.9500 C   0  0  0  0  0  0  0  0  0  0  0  0
  185.9550  178.8520  147.2320 C   0  0  0  0  0  2  0  0  0  0  0  0
  187.2210  178.4240  147.8130 N   0  0  0  0  0  2  0  0  0  0  0  0
  188.2240  177.7220  147.0740 C   0  0  0  0  0  0  0  0  0  0  0  0
  190.4200  176.6650  147.0060 C   0  0  2  0  0  3  0  0  0  0  0  0
  187.9890  177.3230  145.6440 C   0  0  0  0  0  2  0  0  0  0  0  0
  191.6840  177.0680  147.5990 N   0  0  0  0  0  1  0  0  0  0  0  0
  190.4220  176.8920  145.5010 C   0  0  0  0  0  0  0  0  0  0  0  0
  189.3400  177.4090  147.6620 N   0  0  0  0  0  0  0  0  0  0  0  0
  189.2830  177.2300  144.8930 C   0  0  0  0  0  3  0  0  0  0  0  0
  191.8550  175.5040  144.0210 C   0  0  0  0  0  1  0  0  0  0  0  0
  191.5580  176.7130  144.7030 O   0  0  0  0  0  0  0  0  0  0  0  0
  187.2170  178.4680  140.6100 C   0  0  0  0  0  2  0  0  0  0  0  0
  188.3320  178.0800  141.3640 O   0  0  0  0  0  0  0  0  0  0  0  0
  190.6360  177.1370  140.9540 C   0  0  0  0  0  1  0  0  0  0  0  0
  188.7580  177.0700  139.1240 C   0  0  0  0  0  2  0  0  0  0  0  0
  189.2750  177.5880  140.4510 C   0  0  0  0  0  0  0  0  0  0  0  0
  189.3710  178.4600  139.2210 C   0  0  0  0  0  2  0  0  0  0  0  0
  184.3120  178.9600  139.6370 C   0  0  0  0  0  2  0  0  0  0  0  0
  184.4130  180.2820  139.2060 O   0  0  0  0  0  0  0  0  0  0  0  0
  183.1410  180.6410  138.9140 N   0  0  0  0  0  1  0  0  0  0  0  0
  1  2  1  0  0  0  0
  2  8  1  0  0  0  0
  3  5  2  0  0  0  0
  3  1  1  0  0  0  0
  4  2  2  0  0  0  0
  5  4  1  0  0  0  0
  6  9  1  0  0  0  0
  8  7  2  0  0  0  0
  8  6  1  0  0  0  0
  9 10  1  0  0  0  0
 11 16  2  0  0  0  0
 11 10  1  0  0  0  0
 12 14  1  1  0  0  0
 12 16  1  0  0  0  0
 13 11  1  0  0  0  0
 15 12  1  0  0  0  0
 17 15  2  0  0  0  0
 17 13  1  0  0  0  0
 18 19  1  0  0  0  0
 19 15  1  0  0  0  0
 20 21  1  0  0  0  0
 20  5  1  0  0  0  0
 23 25  1  0  0  0  0
 23 24  1  0  0  0  0
 24 22  1  0  0  0  0
 24 21  1  0  0  0  0
 25 24  1  0  0  0  0
 26  3  1  0  0  0  0
 27 26  1  0  0  0  0
 28 27  1  0  0  0  0
M  END
>  <MODEL>
1

>  <REMARK>
 VINA RESULT:      -7.8      0.000      0.000
  Name = 
  9 active torsions:
  status: ('A' for Active; 'I' for Inactive)
    1  A    between atoms: N_2  and  C_22
    2  A    between atoms: O_4  and  C_13
    3  A    between atoms: O_4  and  C_15
    4  A    between atoms: O_9  and  C_17
    5  A    between atoms: C_10  and  C_25
    6  A    between atoms: N_12  and  C_22
    7  A    between atoms: C_13  and  C_24
    8  A    between atoms: C_14  and  C_17
    9  A    between atoms: C_19  and  O_28
                            x       y       z     vdW  Elec       q    Type
                         _______ _______ _______ _____ _____    ______ ____

>  <TORSDO>
F 9

$$$$
=
 OpenBabel10232410043D

 28 30  0  0  1  0  0  0  0  0999 V2000
  188.8750  177.5190  138.9370 S   0  0  0  0  0  0  0  0  0  0  0  0
  188.1350  178.0110  140.3700 C   0  0  0  0  0  0  0  0  0  0  0  0
  190.3380  177.1860  139.6950 C   0  0  0  0  0  0  0  0  0  0  0  0
  188.9840  177.9370  141.4200 N   0  0  0  0  0  0  0  0  0  0  0  0
  190.2120  177.4920  141.0470 C   0  0  0  0  0  0  0  0  0  0  0  0
  186.1140  178.4950  141.7660 N   0  0  0  0  0  2  0  0  0  0  0  0
  186.1210  178.8440  139.4570 O   0  0  0  0  0  0  0  0  0  0  0  0
  186.7480  178.4700  140.4850 C   0  0  0  0  0  0  0  0  0  0  0  0
  184.7600  178.9940  141.9650 C   0  0  0  0  0  2  0  0  0  0  0  0
  184.5900  179.4510  143.3380 N   0  0  0  0  0  2  0  0  0  0  0  0
  185.2680  178.8600  144.4500 C   0  0  0  0  0  0  0  0  0  0  0  0
  185.7060  178.8050  146.8470 C   0  0  2  0  0  3  0  0  0  0  0  0
  186.1620  177.6660  144.2600 C   0  0  0  0  0  2  0  0  0  0  0  0
  185.8900  179.8860  147.8010 N   0  0  0  0  0  1  0  0  0  0  0  0
  187.0270  178.1170  146.5350 C   0  0  0  0  0  0  0  0  0  0  0  0
  185.0840  179.3530  145.6380 N   0  0  0  0  0  0  0  0  0  0  0  0
  187.2290  177.6220  145.3120 C   0  0  0  0  0  3  0  0  0  0  0  0
  188.5190  176.6510  147.8740 C   0  0  0  0  0  1  0  0  0  0  0  0
  188.0340  177.9280  147.4890 O   0  0  0  0  0  0  0  0  0  0  0  0
  191.3120  177.3120  142.0370 C   0  0  0  0  0  2  0  0  0  0  0  0
  190.8280  176.6220  143.1560 O   0  0  0  0  0  0  0  0  0  0  0  0
  191.5950  176.6160  145.5600 C   0  0  0  0  0  1  0  0  0  0  0  0
  191.7780  178.7490  144.0450 C   0  0  0  0  0  2  0  0  0  0  0  0
  191.2380  177.3530  144.2800 C   0  0  0  0  0  0  0  0  0  0  0  0
  190.3480  178.5480  144.5260 C   0  0  0  0  0  2  0  0  0  0  0  0
  191.5700  176.7150  139.0030 C   0  0  0  0  0  2  0  0  0  0  0  0
  191.2300  176.1210  137.7890 O   0  0  0  0  0  0  0  0  0  0  0  0
  191.4740  174.8030  137.9760 N   0  0  0  0  0  1  0  0  0  0  0  0
  1  3  1  0  0  0  0
  1  2  1  0  0  0  0
  2  8  1  0  0  0  0
  2  4  2  0  0  0  0
  3  5  2  0  0  0  0
  5  4  1  0  0  0  0
  5 20  1  0  0  0  0
  6  9  1  0  0  0  0
  7  8  2  0  0  0  0
  8  6  1  0  0  0  0
  9 10  1  0  0  0  0
 10 11  1  0  0  0  0
 11 16  2  0  0  0  0
 12 14  1  1  0  0  0
 13 11  1  0  0  0  0
 13 17  1  0  0  0  0
 15 12  1  0  0  0  0
 15 19  1  0  0  0  0
 16 12  1  0  0  0  0
 17 15  2  0  0  0  0
 19 18  1  0  0  0  0
 20 21  1  0  0  0  0
 21 24  1  0  0  0  0
 23 24  1  0  0  0  0
 23 25  1  0  0  0  0
 24 25  1  0  0  0  0
 24 22  1  0  0  0  0
 26  3  1  0  0  0  0
 27 28  1  0  0  0  0
 27 26  1  0  0  0  0
M  END
>  <MODEL>
2

>  <REMARK>
 VINA RESULT:      -7.8      2.775      5.398
  Name = 
  9 active torsions:
  status: ('A' for Active; 'I' for Inactive)
    1  A    between atoms: N_2  and  C_22
    2  A    between atoms: O_4  and  C_13
    3  A    between atoms: O_4  and  C_15
    4  A    between atoms: O_9  and  C_17
    5  A    between atoms: C_10  and  C_25
    6  A    between atoms: N_12  and  C_22
    7  A    between atoms: C_13  and  C_24
    8  A    between atoms: C_14  and  C_17
    9  A    between atoms: C_19  and  O_28
                            x       y       z     vdW  Elec       q    Type
                         _______ _______ _______ _____ _____    ______ ____

>  <TORSDO>
F 9

$$$$
=
 OpenBabel10232410043D

 28 30  0  0  1  0  0  0  0  0999 V2000
  186.8550  178.3640  139.3740 S   0  0  0  0  0  0  0  0  0  0  0  0
  187.9260  178.2320  140.6690 C   0  0  0  0  0  0  0  0  0  0  0  0
  185.5510  178.7340  140.3660 C   0  0  0  0  0  0  0  0  0  0  0  0
  187.3080  178.4550  141.8510 N   0  0  0  0  0  0  0  0  0  0  0  0
  185.9860  178.7210  141.6880 C   0  0  0  0  0  0  0  0  0  0  0  0
  190.1250  177.6800  141.7320 N   0  0  0  0  0  2  0  0  0  0  0  0
  189.8890  177.8370  139.4140 O   0  0  0  0  0  0  0  0  0  0  0  0
  189.3510  177.9110  140.5520 C   0  0  0  0  0  0  0  0  0  0  0  0
  191.5300  177.2990  141.6910 C   0  0  0  0  0  2  0  0  0  0  0  0
  191.9530  176.7980  142.9920 N   0  0  0  0  0  2  0  0  0  0  0  0
  191.2840  177.1270  144.2120 C   0  0  0  0  0  0  0  0  0  0  0  0
  191.1150  176.9010  146.6340 C   0  0  2  0  0  3  0  0  0  0  0  0
  190.1230  178.0810  144.2220 C   0  0  0  0  0  2  0  0  0  0  0  0
  191.2940  175.7410  147.4910 N   0  0  0  0  0  1  0  0  0  0  0  0
  189.6450  177.2720  146.5110 C   0  0  0  0  0  0  0  0  0  0  0  0
  191.7090  176.6070  145.3260 N   0  0  0  0  0  0  0  0  0  0  0  0
  189.1980  177.7910  145.3650 C   0  0  0  0  0  3  0  0  0  0  0  0
  188.5120  178.1540  148.5380 C   0  0  0  0  0  1  0  0  0  0  0  0
  188.7340  177.1440  147.5660 O   0  0  0  0  0  0  0  0  0  0  0  0
  185.1000  179.0170  142.8500 C   0  0  0  0  0  2  0  0  0  0  0  0
  185.2560  178.0230  143.8250 O   0  0  0  0  0  0  0  0  0  0  0  0
  183.2270  179.0020  144.9610 C   0  0  0  0  0  1  0  0  0  0  0  0
  185.2900  178.1160  146.3170 C   0  0  0  0  0  2  0  0  0  0  0  0
  184.6680  178.5220  144.9960 C   0  0  0  0  0  0  0  0  0  0  0  0
  185.5840  179.4840  145.7170 C   0  0  0  0  0  2  0  0  0  0  0  0
  184.1550  178.9610  139.8950 C   0  0  0  0  0  2  0  0  0  0  0  0
  184.0600  180.2160  139.2960 O   0  0  0  0  0  0  0  0  0  0  0  0
  182.8540  180.2070  138.6810 N   0  0  0  0  0  1  0  0  0  0  0  0
  1  3  1  0  0  0  0
  1  2  1  0  0  0  0
  2  4  2  0  0  0  0
  3  5  2  0  0  0  0
  5  4  1  0  0  0  0
  5 20  1  0  0  0  0
  7  8  2  0  0  0  0
  8  2  1  0  0  0  0
  8  6  1  0  0  0  0
  9  6  1  0  0  0  0
  9 10  1  0  0  0  0
 10 11  1  0  0  0  0
 11 13  1  0  0  0  0
 11 16  2  0  0  0  0
 12 14  1  1  0  0  0
 13 17  1  0  0  0  0
 15 12  1  0  0  0  0
 15 19  1  0  0  0  0
 16 12  1  0  0  0  0
 17 15  2  0  0  0  0
 19 18  1  0  0  0  0
 20 21  1  0  0  0  0
 21 24  1  0  0  0  0
 22 24  1  0  0  0  0
 24 25  1  0  0  0  0
 24 23  1  0  0  0  0
 25 23  1  0  0  0  0
 26  3  1  0  0  0  0
 27 26  1  0  0  0  0
 28 27  1  0  0  0  0
M  END
>  <MODEL>
3

>  <REMARK>
 VINA RESULT:      -7.8      2.083      4.875
  Name = 
  9 active torsions:
  status: ('A' for Active; 'I' for Inactive)
    1  A    between atoms: N_2  and  C_22
    2  A    between atoms: O_4  and  C_13
    3  A    between atoms: O_4  and  C_15
    4  A    between atoms: O_9  and  C_17
    5  A    between atoms: C_10  and  C_25
    6  A    between atoms: N_12  and  C_22
    7  A    between atoms: C_13  and  C_24
    8  A    between atoms: C_14  and  C_17
    9  A    between atoms: C_19  and  O_28
                            x       y       z     vdW  Elec       q    Type
                         _______ _______ _______ _____ _____    ______ ____

>  <TORSDO>
F 9

$$$$
=
 OpenBabel10232410043D

 28 30  0  0  1  0  0  0  0  0999 V2000
  190.9770  176.8730  143.8430 S   0  0  0  0  0  0  0  0  0  0  0  0
  189.6850  177.1900  142.8080 C   0  0  0  0  0  0  0  0  0  0  0  0
  190.0400  177.0610  145.2250 C   0  0  0  0  0  0  0  0  0  0  0  0
  188.5480  177.4480  143.4940 N   0  0  0  0  0  0  0  0  0  0  0  0
  188.7450  177.3900  144.8370 C   0  0  0  0  0  0  0  0  0  0  0  0
  189.0550  178.1930  140.6020 N   0  0  0  0  0  2  0  0  0  0  0  0
  190.4530  176.3280  140.7450 O   0  0  0  0  0  0  0  0  0  0  0  0
  189.7620  177.1970  141.3440 C   0  0  0  0  0  0  0  0  0  0  0  0
  189.1320  178.2960  139.1510 C   0  0  0  0  0  2  0  0  0  0  0  0
  187.7950  178.4170  138.5850 N   0  0  0  0  0  2  0  0  0  0  0  0
  187.1850  177.3960  137.7910 C   0  0  0  0  0  0  0  0  0  0  0  0
  185.2700  176.6030  136.5080 C   0  0  2  0  0  3  0  0  0  0  0  0
  187.9380  176.1430  137.4380 C   0  0  0  0  0  2  0  0  0  0  0  0
  183.8440  176.7170  136.7670 N   0  0  0  0  0  1  0  0  0  0  0  0
  185.7610  175.1840  136.7530 C   0  0  0  0  0  0  0  0  0  0  0  0
  185.9750  177.5730  137.3530 N   0  0  0  0  0  0  0  0  0  0  0  0
  186.9990  174.9960  137.2180 C   0  0  0  0  0  3  0  0  0  0  0  0
  184.6290  173.0830  137.4400 C   0  0  0  0  0  1  0  0  0  0  0  0
  184.9940  174.0490  136.4660 O   0  0  0  0  0  0  0  0  0  0  0  0
  187.6310  177.6230  145.7990 C   0  0  0  0  0  2  0  0  0  0  0  0
  186.4180  177.2290  145.2190 O   0  0  0  0  0  0  0  0  0  0  0  0
  185.0140  179.0670  144.2120 C   0  0  0  0  0  1  0  0  0  0  0  0
  184.7310  178.3060  146.7060 C   0  0  0  0  0  2  0  0  0  0  0  0
  185.5230  178.2900  145.4140 C   0  0  0  0  0  0  0  0  0  0  0  0
  185.9600  179.1900  146.5460 C   0  0  0  0  0  2  0  0  0  0  0  0
  190.5490  176.9610  146.6220 C   0  0  0  0  0  2  0  0  0  0  0  0
  191.9370  176.8420  146.6090 O   0  0  0  0  0  0  0  0  0  0  0  0
  192.2430  176.3010  147.8120 N   0  0  0  0  0  1  0  0  0  0  0  0
  1  3  1  0  0  0  0
  2  4  2  0  0  0  0
  2  1  1  0  0  0  0
  3 26  1  0  0  0  0
  4  5  1  0  0  0  0
  5  3  2  0  0  0  0
  5 20  1  0  0  0  0
  6  8  1  0  0  0  0
  7  8  2  0  0  0  0
  8  2  1  0  0  0  0
  9  6  1  0  0  0  0
 10  9  1  0  0  0  0
 11 10  1  0  0  0  0
 12 15  1  0  0  0  0
 12 14  1  1  0  0  0
 12 16  1  0  0  0  0
 13 11  1  0  0  0  0
 15 17  2  0  0  0  0
 16 11  2  0  0  0  0
 17 13  1  0  0  0  0
 19 15  1  0  0  0  0
 19 18  1  0  0  0  0
 21 24  1  0  0  0  0
 21 20  1  0  0  0  0
 22 24  1  0  0  0  0
 24 25  1  0  0  0  0
 24 23  1  0  0  0  0
 25 23  1  0  0  0  0
 27 26  1  0  0  0  0
 27 28  1  0  0  0  0
M  END
>  <MODEL>
4

>  <REMARK>
 VINA RESULT:      -7.7      3.339      8.703
  Name = 
  9 active torsions:
  status: ('A' for Active; 'I' for Inactive)
    1  A    between atoms: N_2  and  C_22
    2  A    between atoms: O_4  and  C_13
    3  A    between atoms: O_4  and  C_15
    4  A    between atoms: O_9  and  C_17
    5  A    between atoms: C_10  and  C_25
    6  A    between atoms: N_12  and  C_22
    7  A    between atoms: C_13  and  C_24
    8  A    between atoms: C_14  and  C_17
    9  A    between atoms: C_19  and  O_28
                            x       y       z     vdW  Elec       q    Type
                         _______ _______ _______ _____ _____    ______ ____

>  <TORSDO>
F 9

$$$$
=
 OpenBabel10232410043D

 28 30  0  0  1  0  0  0  0  0999 V2000
  188.7240  177.7720  141.3400 S   0  0  0  0  0  0  0  0  0  0  0  0
  187.2980  178.4450  140.7450 C   0  0  0  0  0  0  0  0  0  0  0  0
  189.4570  177.7490  139.8280 C   0  0  0  0  0  0  0  0  0  0  0  0
  187.3610  178.6450  139.4090 N   0  0  0  0  0  0  0  0  0  0  0  0
  188.5530  178.2470  138.8940 C   0  0  0  0  0  0  0  0  0  0  0  0
  185.9840  178.2160  142.8640 N   0  0  0  0  0  2  0  0  0  0  0  0
  185.2380  179.5480  141.0970 O   0  0  0  0  0  0  0  0  0  0  0  0
  186.1210  178.7740  141.5550 C   0  0  0  0  0  0  0  0  0  0  0  0
  184.8730  178.5440  143.7460 C   0  0  0  0  0  2  0  0  0  0  0  0
  185.3350  178.6260  145.1260 N   0  0  0  0  0  2  0  0  0  0  0  0
  186.5130  177.9680  145.5970 C   0  0  0  0  0  0  0  0  0  0  0  0
  188.0440  177.4700  147.4290 C   0  0  2  0  0  3  0  0  0  0  0  0
  187.3180  177.0840  144.6860 C   0  0  0  0  0  2  0  0  0  0  0  0
  188.5560  178.3180  148.4920 N   0  0  0  0  0  1  0  0  0  0  0  0
  189.1150  177.1900  146.3850 C   0  0  0  0  0  0  0  0  0  0  0  0
  186.8710  178.1220  146.8370 N   0  0  0  0  0  0  0  0  0  0  0  0
  188.7570  177.0460  145.1070 C   0  0  0  0  0  3  0  0  0  0  0  0
  191.4910  176.8820  145.7300 C   0  0  0  0  0  1  0  0  0  0  0  0
  190.4680  177.0240  146.7040 O   0  0  0  0  0  0  0  0  0  0  0  0
  188.8620  178.3860  137.4420 C   0  0  0  0  0  2  0  0  0  0  0  0
  187.6750  178.5820  136.7250 O   0  0  0  0  0  0  0  0  0  0  0  0
  186.6560  177.8340  134.5420 C   0  0  0  0  0  1  0  0  0  0  0  0
  189.1930  177.4630  135.0940 C   0  0  0  0  0  2  0  0  0  0  0  0
  187.7950  177.8310  135.5480 C   0  0  0  0  0  0  0  0  0  0  0  0
  188.3260  176.4430  135.8200 C   0  0  0  0  0  2  0  0  0  0  0  0
  190.8170  177.2110  139.5460 C   0  0  0  0  0  2  0  0  0  0  0  0
  190.7820  175.8170  139.5550 O   0  0  0  0  0  0  0  0  0  0  0  0
  190.8800  175.4670  138.2500 N   0  0  0  0  0  1  0  0  0  0  0  0
  2  1  1  0  0  0  0
  2  8  1  0  0  0  0
  3  1  1  0  0  0  0
  4  2  2  0  0  0  0
  5  4  1  0  0  0  0
  5  3  2  0  0  0  0
  6  9  1  0  0  0  0
  7  8  2  0  0  0  0
  8  6  1  0  0  0  0
  9 10  1  0  0  0  0
 10 11  1  0  0  0  0
 11 16  2  0  0  0  0
 12 14  1  1  0  0  0
 13 17  1  0  0  0  0
 13 11  1  0  0  0  0
 15 19  1  0  0  0  0
 15 12  1  0  0  0  0
 16 12  1  0  0  0  0
 17 15  2  0  0  0  0
 18 19  1  0  0  0  0
 20  5  1  0  0  0  0
 21 20  1  0  0  0  0
 22 24  1  0  0  0  0
 23 24  1  0  0  0  0
 23 25  1  0  0  0  0
 24 25  1  0  0  0  0
 24 21  1  0  0  0  0
 26 27  1  0  0  0  0
 26  3  1  0  0  0  0
 28 27  1  0  0  0  0
M  END
>  <MODEL>
5

>  <REMARK>
 VINA RESULT:      -7.6      2.839      4.435
  Name = 
  9 active torsions:
  status: ('A' for Active; 'I' for Inactive)
    1  A    between atoms: N_2  and  C_22
    2  A    between atoms: O_4  and  C_13
    3  A    between atoms: O_4  and  C_15
    4  A    between atoms: O_9  and  C_17
    5  A    between atoms: C_10  and  C_25
    6  A    between atoms: N_12  and  C_22
    7  A    between atoms: C_13  and  C_24
    8  A    between atoms: C_14  and  C_17
    9  A    between atoms: C_19  and  O_28
                            x       y       z     vdW  Elec       q    Type
                         _______ _______ _______ _____ _____    ______ ____

>  <TORSDO>
F 9

$$$$
=
 OpenBabel10232410043D

 28 30  0  0  1  0  0  0  0  0999 V2000
  188.6480  177.3460  147.7770 S   0  0  0  0  0  0  0  0  0  0  0  0
  187.7880  177.9070  146.4400 C   0  0  0  0  0  0  0  0  0  0  0  0
  189.9690  176.8770  146.8500 C   0  0  0  0  0  0  0  0  0  0  0  0
  188.4820  177.7350  145.2920 N   0  0  0  0  0  0  0  0  0  0  0  0
  189.6890  177.1510  145.5140 C   0  0  0  0  0  0  0  0  0  0  0  0
  185.5220  178.2550  145.4320 N   0  0  0  0  0  2  0  0  0  0  0  0
  186.1210  179.2310  147.4660 O   0  0  0  0  0  0  0  0  0  0  0  0
  186.4500  178.5040  146.4910 C   0  0  0  0  0  0  0  0  0  0  0  0
  184.1590  178.7660  145.4440 C   0  0  0  0  0  2  0  0  0  0  0  0
  183.4790  178.4100  144.2050 N   0  0  0  0  0  2  0  0  0  0  0  0
  183.9720  178.7660  142.9110 C   0  0  0  0  0  0  0  0  0  0  0  0
  183.7210  178.7130  140.4860 C   0  0  2  0  0  3  0  0  0  0  0  0
  185.2140  179.6010  142.7630 C   0  0  0  0  0  2  0  0  0  0  0  0
  183.2810  177.6460  139.6030 N   0  0  0  0  0  1  0  0  0  0  0  0
  185.2240  178.9290  140.3810 C   0  0  0  0  0  0  0  0  0  0  0  0
  183.3190  178.3780  141.8560 N   0  0  0  0  0  0  0  0  0  0  0  0
  185.9040  179.3110  141.4640 C   0  0  0  0  0  3  0  0  0  0  0  0
  187.0290  177.9080  139.0130 C   0  0  0  0  0  1  0  0  0  0  0  0
  185.9330  178.7950  139.1820 O   0  0  0  0  0  0  0  0  0  0  0  0
  190.6400  176.8750  144.4000 C   0  0  0  0  0  2  0  0  0  0  0  0
  190.7140  177.9930  143.5580 O   0  0  0  0  0  0  0  0  0  0  0  0
  191.7620  177.5350  141.3090 C   0  0  0  0  0  1  0  0  0  0  0  0
  189.4200  176.5600  141.9790 C   0  0  0  0  0  2  0  0  0  0  0  0
  190.5680  177.5120  142.2490 C   0  0  0  0  0  0  0  0  0  0  0  0
  189.3070  178.0300  141.5990 C   0  0  0  0  0  2  0  0  0  0  0  0
  191.1920  176.2110  147.3800 C   0  0  0  0  0  2  0  0  0  0  0  0
  191.9540  177.1330  148.0970 O   0  0  0  0  0  0  0  0  0  0  0  0
  192.9580  176.3990  148.6330 N   0  0  0  0  0  1  0  0  0  0  0  0
  2  8  1  0  0  0  0
  2  1  1  0  0  0  0
  3 26  1  0  0  0  0
  3  1  1  0  0  0  0
  4  5  1  0  0  0  0
  4  2  2  0  0  0  0
  5  3  2  0  0  0  0
  6  9  1  0  0  0  0
  6  8  1  0  0  0  0
  8  7  2  0  0  0  0
 10  9  1  0  0  0  0
 11 10  1  0  0  0  0
 12 14  1  6  0  0  0
 12 16  1  0  0  0  0
 13 11  1  0  0  0  0
 15 12  1  0  0  0  0
 15 17  2  0  0  0  0
 16 11  2  0  0  0  0
 17 13  1  0  0  0  0
 18 19  1  0  0  0  0
 19 15  1  0  0  0  0
 20  5  1  0  0  0  0
 21 20  1  0  0  0  0
 22 24  1  0  0  0  0
 23 24  1  0  0  0  0
 24 21  1  0  0  0  0
 25 23  1  0  0  0  0
 25 24  1  0  0  0  0
 26 27  1  0  0  0  0
 27 28  1  0  0  0  0
M  END
>  <MODEL>
6

>  <REMARK>
 VINA RESULT:      -7.5      2.291      6.868
  Name = 
  9 active torsions:
  status: ('A' for Active; 'I' for Inactive)
    1  A    between atoms: N_2  and  C_22
    2  A    between atoms: O_4  and  C_13
    3  A    between atoms: O_4  and  C_15
    4  A    between atoms: O_9  and  C_17
    5  A    between atoms: C_10  and  C_25
    6  A    between atoms: N_12  and  C_22
    7  A    between atoms: C_13  and  C_24
    8  A    between atoms: C_14  and  C_17
    9  A    between atoms: C_19  and  O_28
                            x       y       z     vdW  Elec       q    Type
                         _______ _______ _______ _____ _____    ______ ____

>  <TORSDO>
F 9

$$$$
=
 OpenBabel10232410043D

 28 30  0  0  1  0  0  0  0  0999 V2000
  184.4290  178.6580  140.2480 S   0  0  0  0  0  0  0  0  0  0  0  0
  185.0390  178.6540  141.8200 C   0  0  0  0  0  0  0  0  0  0  0  0
  185.9460  178.4500  139.5570 C   0  0  0  0  0  0  0  0  0  0  0  0
  186.3830  178.5080  141.8320 N   0  0  0  0  0  0  0  0  0  0  0  0
  186.8920  178.4080  140.5760 C   0  0  0  0  0  0  0  0  0  0  0  0
  184.8380  178.5980  144.3150 N   0  0  0  0  0  2  0  0  0  0  0  0
  183.0110  179.0960  142.9490 O   0  0  0  0  0  0  0  0  0  0  0  0
  184.2320  178.7970  143.0350 C   0  0  0  0  0  0  0  0  0  0  0  0
  184.1140  178.7800  145.5650 C   0  0  0  0  0  2  0  0  0  0  0  0
  185.0430  178.7820  146.6880 N   0  0  0  0  0  2  0  0  0  0  0  0
  186.3320  178.1640  146.6380 C   0  0  0  0  0  0  0  0  0  0  0  0
  188.4380  177.6210  147.7400 C   0  0  2  0  0  3  0  0  0  0  0  0
  186.7770  177.4080  145.4170 C   0  0  0  0  0  2  0  0  0  0  0  0
  189.2750  178.4130  148.6240 N   0  0  0  0  0  1  0  0  0  0  0  0
  189.0650  177.4930  146.3590 C   0  0  0  0  0  0  0  0  0  0  0  0
  187.1110  178.2430  147.6750 N   0  0  0  0  0  0  0  0  0  0  0  0
  188.2700  177.4280  145.2880 C   0  0  0  0  0  3  0  0  0  0  0  0
  191.2420  176.3480  146.7010 C   0  0  0  0  0  1  0  0  0  0  0  0
  190.4450  177.3870  146.1530 O   0  0  0  0  0  0  0  0  0  0  0  0
  188.3520  178.2220  140.3380 C   0  0  0  0  0  2  0  0  0  0  0  0
  189.0210  178.1310  141.5660 O   0  0  0  0  0  0  0  0  0  0  0  0
  190.4160  176.7810  139.9540 C   0  0  0  0  0  1  0  0  0  0  0  0
  191.2110  177.2820  142.4030 C   0  0  0  0  0  2  0  0  0  0  0  0
  190.1140  177.2780  141.3580 C   0  0  0  0  0  0  0  0  0  0  0  0
  190.1670  176.1740  142.3890 C   0  0  0  0  0  2  0  0  0  0  0  0
  186.2180  178.3990  138.0930 C   0  0  0  0  0  2  0  0  0  0  0  0
  186.4640  177.0820  137.7070 O   0  0  0  0  0  0  0  0  0  0  0  0
  187.6110  177.1470  136.9910 N   0  0  0  0  0  1  0  0  0  0  0  0
  1  2  1  0  0  0  0
  2  4  2  0  0  0  0
  2  8  1  0  0  0  0
  3  1  1  0  0  0  0
  3  5  2  0  0  0  0
  5  4  1  0  0  0  0
  6  9  1  0  0  0  0
  7  8  2  0  0  0  0
  8  6  1  0  0  0  0
  9 10  1  0  0  0  0
 11 10  1  0  0  0  0
 11 16  2  0  0  0  0
 12 14  1  1  0  0  0
 13 11  1  0  0  0  0
 15 12  1  0  0  0  0
 16 12  1  0  0  0  0
 17 13  1  0  0  0  0
 17 15  2  0  0  0  0
 19 15  1  0  0  0  0
 19 18  1  0  0  0  0
 20  5  1  0  0  0  0
 20 21  1  0  0  0  0
 22 24  1  0  0  0  0
 24 21  1  0  0  0  0
 24 25  1  0  0  0  0
 24 23  1  0  0  0  0
 25 23  1  0  0  0  0
 26  3  1  0  0  0  0
 27 26  1  0  0  0  0
 28 27  1  0  0  0  0
M  END
>  <MODEL>
7

>  <REMARK>
 VINA RESULT:      -7.5      1.917      2.530
  Name = 
  9 active torsions:
  status: ('A' for Active; 'I' for Inactive)
    1  A    between atoms: N_2  and  C_22
    2  A    between atoms: O_4  and  C_13
    3  A    between atoms: O_4  and  C_15
    4  A    between atoms: O_9  and  C_17
    5  A    between atoms: C_10  and  C_25
    6  A    between atoms: N_12  and  C_22
    7  A    between atoms: C_13  and  C_24
    8  A    between atoms: C_14  and  C_17
    9  A    between atoms: C_19  and  O_28
                            x       y       z     vdW  Elec       q    Type
                         _______ _______ _______ _____ _____    ______ ____

>  <TORSDO>
F 9

$$$$
=
 OpenBabel10232410043D

 28 30  0  0  1  0  0  0  0  0999 V2000
  191.2140  177.0890  144.5390 S   0  0  0  0  0  0  0  0  0  0  0  0
  189.9930  177.5170  143.4590 C   0  0  0  0  0  0  0  0  0  0  0  0
  190.1880  177.1410  145.8690 C   0  0  0  0  0  0  0  0  0  0  0  0
  188.8130  177.7110  144.0910 N   0  0  0  0  0  0  0  0  0  0  0  0
  188.9210  177.5160  145.4320 C   0  0  0  0  0  0  0  0  0  0  0  0
  191.3770  177.2280  141.3920 N   0  0  0  0  0  2  0  0  0  0  0  0
  189.2510  178.1910  141.3190 O   0  0  0  0  0  0  0  0  0  0  0  0
  190.1670  177.6720  142.0120 C   0  0  0  0  0  0  0  0  0  0  0  0
  191.5950  177.2970  139.9540 C   0  0  0  0  0  2  0  0  0  0  0  0
  190.8660  176.2270  139.2840 N   0  0  0  0  0  2  0  0  0  0  0  0
  189.8690  176.4640  138.2870 C   0  0  0  0  0  0  0  0  0  0  0  0
  188.2370  175.5820  136.7050 C   0  0  2  0  0  3  0  0  0  0  0  0
  189.4670  177.8650  137.9190 C   0  0  0  0  0  2  0  0  0  0  0  0
  188.3060  174.4350  135.8160 N   0  0  0  0  0  1  0  0  0  0  0  0
  188.3640  176.8860  135.9310 C   0  0  0  0  0  0  0  0  0  0  0  0
  189.2910  175.4500  137.7160 N   0  0  0  0  0  0  0  0  0  0  0  0
  188.9700  177.9270  136.5050 C   0  0  0  0  0  3  0  0  0  0  0  0
  186.8110  178.0160  134.3560 C   0  0  0  0  0  1  0  0  0  0  0  0
  187.8270  177.0700  134.6510 O   0  0  0  0  0  0  0  0  0  0  0  0
  187.7450  177.6570  146.3380 C   0  0  0  0  0  2  0  0  0  0  0  0
  186.5890  177.2180  145.6790 O   0  0  0  0  0  0  0  0  0  0  0  0
  185.1950  178.9410  144.4730 C   0  0  0  0  0  1  0  0  0  0  0  0
  184.8230  178.3740  147.0070 C   0  0  0  0  0  2  0  0  0  0  0  0
  185.6680  178.2720  145.7530 C   0  0  0  0  0  0  0  0  0  0  0  0
  186.0420  179.2690  146.8250 C   0  0  0  0  0  2  0  0  0  0  0  0
  190.6030  176.8980  147.2790 C   0  0  0  0  0  2  0  0  0  0  0  0
  191.9940  176.9200  147.3690 O   0  0  0  0  0  0  0  0  0  0  0  0
  192.3290  175.6630  147.7440 N   0  0  0  0  0  1  0  0  0  0  0  0
  1  3  1  0  0  0  0
  2  4  2  0  0  0  0
  2  1  1  0  0  0  0
  3 26  1  0  0  0  0
  4  5  1  0  0  0  0
  5  3  2  0  0  0  0
  5 20  1  0  0  0  0
  6  8  1  0  0  0  0
  7  8  2  0  0  0  0
  8  2  1  0  0  0  0
  9  6  1  0  0  0  0
 10  9  1  0  0  0  0
 11 10  1  0  0  0  0
 12 14  1  6  0  0  0
 12 16  1  0  0  0  0
 13 11  1  0  0  0  0
 15 17  2  0  0  0  0
 15 12  1  0  0  0  0
 16 11  2  0  0  0  0
 17 13  1  0  0  0  0
 18 19  1  0  0  0  0
 19 15  1  0  0  0  0
 21 24  1  0  0  0  0
 21 20  1  0  0  0  0
 22 24  1  0  0  0  0
 24 25  1  0  0  0  0
 24 23  1  0  0  0  0
 25 23  1  0  0  0  0
 26 27  1  0  0  0  0
 27 28  1  0  0  0  0
M  END
>  <MODEL>
8

>  <REMARK>
 VINA RESULT:      -7.5      3.773      8.733
  Name = 
  9 active torsions:
  status: ('A' for Active; 'I' for Inactive)
    1  A    between atoms: N_2  and  C_22
    2  A    between atoms: O_4  and  C_13
    3  A    between atoms: O_4  and  C_15
    4  A    between atoms: O_9  and  C_17
    5  A    between atoms: C_10  and  C_25
    6  A    between atoms: N_12  and  C_22
    7  A    between atoms: C_13  and  C_24
    8  A    between atoms: C_14  and  C_17
    9  A    between atoms: C_19  and  O_28
                            x       y       z     vdW  Elec       q    Type
                         _______ _______ _______ _____ _____    ______ ____

>  <TORSDO>
F 9

$$$$
=
 OpenBabel10232410043D

 28 30  0  0  1  0  0  0  0  0999 V2000
  190.9000  176.9550  143.5660 S   0  0  0  0  0  0  0  0  0  0  0  0
  189.5970  177.3210  142.5610 C   0  0  0  0  0  0  0  0  0  0  0  0
  189.9860  177.1080  144.9670 C   0  0  0  0  0  0  0  0  0  0  0  0
  188.4730  177.5680  143.2730 N   0  0  0  0  0  0  0  0  0  0  0  0
  188.6890  177.4640  144.6100 C   0  0  0  0  0  0  0  0  0  0  0  0
  190.4850  176.4560  140.3860 N   0  0  0  0  0  2  0  0  0  0  0  0
  188.9670  178.2280  140.4720 O   0  0  0  0  0  0  0  0  0  0  0  0
  189.6530  177.3750  141.0980 C   0  0  0  0  0  0  0  0  0  0  0  0
  190.5450  176.4130  138.9310 C   0  0  0  0  0  2  0  0  0  0  0  0
  191.8860  176.7530  138.4750 N   0  0  0  0  0  2  0  0  0  0  0  0
  192.7030  175.8610  137.7120 C   0  0  0  0  0  0  0  0  0  0  0  0
  194.8030  175.4140  136.5570 C   0  0  2  0  0  3  0  0  0  0  0  0
  192.2330  174.4690  137.3920 C   0  0  0  0  0  2  0  0  0  0  0  0
  195.6210  176.2710  135.7140 N   0  0  0  0  0  1  0  0  0  0  0  0
  194.0630  174.3740  135.7280 C   0  0  0  0  0  0  0  0  0  0  0  0
  193.8760  176.2590  137.3170 N   0  0  0  0  0  0  0  0  0  0  0  0
  192.8520  173.9720  136.1200 C   0  0  0  0  0  3  0  0  0  0  0  0
  194.5790  172.3710  134.3530 C   0  0  0  0  0  1  0  0  0  0  0  0
  194.6120  173.7700  134.5920 O   0  0  0  0  0  0  0  0  0  0  0  0
  187.5920  177.6770  145.5970 C   0  0  0  0  0  2  0  0  0  0  0  0
  186.3620  177.3530  145.0090 O   0  0  0  0  0  0  0  0  0  0  0  0
  184.7550  179.1900  144.3720 C   0  0  0  0  0  1  0  0  0  0  0  0
  184.8460  178.1990  146.7990 C   0  0  0  0  0  2  0  0  0  0  0  0
  185.4560  178.3400  145.4190 C   0  0  0  0  0  0  0  0  0  0  0  0
  186.0020  179.1620  146.5630 C   0  0  0  0  0  2  0  0  0  0  0  0
  190.5140  176.9560  146.3530 C   0  0  0  0  0  2  0  0  0  0  0  0
  191.8390  176.5270  146.3060 O   0  0  0  0  0  0  0  0  0  0  0  0
  192.1790  176.3320  147.6020 N   0  0  0  0  0  1  0  0  0  0  0  0
  1  3  1  0  0  0  0
  2  4  2  0  0  0  0
  2  1  1  0  0  0  0
  3 26  1  0  0  0  0
  4  5  1  0  0  0  0
  5  3  2  0  0  0  0
  5 20  1  0  0  0  0
  6  8  1  0  0  0  0
  7  8  2  0  0  0  0
  8  2  1  0  0  0  0
  9  6  1  0  0  0  0
 10  9  1  0  0  0  0
 11 10  1  0  0  0  0
 12 14  1  6  0  0  0
 12 16  1  0  0  0  0
 13 11  1  0  0  0  0
 15 17  2  0  0  0  0
 15 12  1  0  0  0  0
 16 11  2  0  0  0  0
 17 13  1  0  0  0  0
 18 19  1  0  0  0  0
 19 15  1  0  0  0  0
 21 24  1  0  0  0  0
 21 20  1  0  0  0  0
 22 24  1  0  0  0  0
 24 25  1  0  0  0  0
 24 23  1  0  0  0  0
 25 23  1  0  0  0  0
 27 26  1  0  0  0  0
 27 28  1  0  0  0  0
M  END
>  <MODEL>
9

>  <REMARK>
 VINA RESULT:      -7.4      5.213      8.930
  Name = 
  9 active torsions:
  status: ('A' for Active; 'I' for Inactive)
    1  A    between atoms: N_2  and  C_22
    2  A    between atoms: O_4  and  C_13
    3  A    between atoms: O_4  and  C_15
    4  A    between atoms: O_9  and  C_17
    5  A    between atoms: C_10  and  C_25
    6  A    between atoms: N_12  and  C_22
    7  A    between atoms: C_13  and  C_24
    8  A    between atoms: C_14  and  C_17
    9  A    between atoms: C_19  and  O_28
                            x       y       z     vdW  Elec       q    Type
                         _______ _______ _______ _____ _____    ______ ____

>  <TORSDO>
F 9

$$$$
