=
 OpenBabel10232410303D

 43 47  0  0  1  0  0  0  0  0999 V2000
  186.0060  175.6320  136.9680 C   0  0  0  0  0  0  0  0  0  0  0  0
  187.2650  176.0190  136.4500 C   0  0  0  0  0  0  0  0  0  0  0  0
  187.8180  173.6950  136.1950 C   0  0  0  0  0  0  0  0  0  0  0  0
  186.6130  173.3180  136.6920 N   0  0  0  0  0  0  0  0  0  0  0  0
  185.7100  174.2600  137.0820 C   0  0  0  0  0  3  0  0  0  0  0  0
  192.6970  175.9180  138.2290 O   0  0  0  0  0  0  0  0  0  0  0  0
  188.8520  172.7750  135.6820 C   0  0  0  0  0  2  0  0  0  0  0  0
  192.5890  174.8640  137.5480 C   0  0  0  0  0  0  0  0  0  0  0  0
  190.5010  175.7380  136.4260 C   0  0  0  0  0  2  0  0  0  0  0  0
  189.9410  173.7150  135.1450 C   0  0  2  0  0  3  0  0  0  0  0  0
  191.2330  173.4830  135.9070 C   0  0  0  0  0  2  0  0  0  0  0  0
  191.4870  174.7020  136.6470 N   0  0  0  0  0  0  0  0  0  0  0  0
  188.1640  175.0120  136.0710 C   0  0  0  0  0  0  0  0  0  0  0  0
  189.4980  175.1680  135.4360 C   0  0  1  0  0  3  0  0  0  0  0  0
  182.8950  177.8120  137.0640 C   0  0  0  0  0  3  0  0  0  0  0  0
  184.2690  178.3030  138.9890 C   0  0  0  0  0  3  0  0  0  0  0  0
  185.2030  177.3560  138.5620 C   0  0  0  0  0  3  0  0  0  0  0  0
  183.1080  178.5400  138.2410 C   0  0  0  0  0  0  0  0  0  0  0  0
  183.8190  176.8550  136.6330 C   0  0  0  0  0  0  0  0  0  0  0  0
  184.9940  176.6270  137.3850 C   0  0  0  0  0  0  0  0  0  0  0  0
  179.9880  181.0620  140.8710 O   0  0  0  0  0  1  0  0  0  0  0  0
  182.1390  179.5120  138.6690 N   0  0  0  0  0  0  0  0  0  0  0  0
  180.2860  180.4890  139.6320 C   0  0  1  0  0  3  0  0  0  0  0  0
  181.9880  180.6840  137.9960 O   0  0  0  0  0  0  0  0  0  0  0  0
  181.1140  181.4440  138.7950 C   0  0  0  0  0  2  0  0  0  0  0  0
  181.1770  179.2720  139.7300 C   0  0  2  0  0  3  0  0  0  0  0  0
  181.9080  179.1580  141.0690 C   0  0  0  0  0  2  0  0  0  0  0  0
  181.3200  178.1590  141.8460 O   0  0  0  0  0  1  0  0  0  0  0  0
  183.5610  176.1520  135.3410 C   0  0  0  0  0  2  0  0  0  0  0  0
  182.1980  175.6490  135.3190 N   0  0  0  0  0  2  0  0  0  0  0  0
  182.2350  174.3250  135.9100 C   0  0  0  0  0  1  0  0  0  0  0  0
  188.2140  178.1800  137.2750 C   0  0  0  0  0  0  0  0  0  0  0  0
  188.5660  179.5390  137.0390 N   0  0  0  0  0  1  0  0  0  0  0  0
  188.4470  177.6710  138.4050 O   0  0  0  0  0  0  0  0  0  0  0  0
  187.5910  177.4000  136.2430 N   0  0  0  0  0  0  0  0  0  0  0  0
  187.2530  178.0110  134.9660 C   0  0  0  0  0  1  0  0  0  0  0  0
  193.6300  173.7930  137.6930 C   0  0  0  0  0  2  0  0  0  0  0  0
  194.9990  174.3320  138.1250 C   0  0  1  0  0  3  0  0  0  0  0  0
  195.5520  173.5490  139.1410 O   0  0  0  0  0  1  0  0  0  0  0  0
  195.6110  175.5650  136.1610 F   0  0  0  0  0  0  0  0  0  0  0  0
  197.2590  174.7420  137.4670 F   0  0  0  0  0  0  0  0  0  0  0  0
  195.9890  174.5090  136.9710 C   0  0  0  0  0  0  0  0  0  0  0  0
  196.0120  173.3530  136.2140 F   0  0  0  0  0  0  0  0  0  0  0  0
  1  5  1  0  0  0  0
  1 20  1  0  0  0  0
  2  1  2  0  0  0  0
  3  4  1  0  0  0  0
  4  5  2  0  0  0  0
  7  3  1  0  0  0  0
  8 37  1  0  0  0  0
  8  6  2  0  0  0  0
  9 12  1  0  0  0  0
 10 14  1  0  0  0  0
 10  7  1  1  0  0  0
 10 11  1  0  0  0  0
 11 12  1  0  0  0  0
 12  8  1  0  0  0  0
 13  3  2  0  0  0  0
 13  2  1  0  0  0  0
 14 13  1  0  0  0  0
 14  9  1  1  0  0  0
 15 18  1  0  0  0  0
 17 16  1  0  0  0  0
 18 22  1  0  0  0  0
 18 16  2  0  0  0  0
 19 15  2  0  0  0  0
 19 20  1  0  0  0  0
 20 17  2  0  0  0  0
 22 26  1  0  0  0  0
 23 26  1  0  0  0  0
 23 21  1  1  0  0  0
 24 22  1  0  0  0  0
 24 25  1  0  0  0  0
 25 23  1  0  0  0  0
 26 27  1  1  0  0  0
 27 28  1  0  0  0  0
 29 19  1  0  0  0  0
 30 29  1  0  0  0  0
 30 31  1  0  0  0  0
 32 34  2  0  0  0  0
 33 32  1  0  0  0  0
 35  2  1  0  0  0  0
 35 32  1  0  0  0  0
 36 35  1  0  0  0  0
 37 38  1  0  0  0  0
 38 39  1  1  0  0  0
 40 42  1  0  0  0  0
 42 41  1  0  0  0  0
 42 38  1  0  0  0  0
 43 42  1  0  0  0  0
M  END
>  <MODEL>
1

>  <REMARK>
 VINA RESULT:      -5.4      0.000      0.000
  Name = 
  9 active torsions:
  status: ('A' for Active; 'I' for Inactive)
    1  A    between atoms: N_2  and  C_23
    2  A    between atoms: C_3  and  C_42
    3  A    between atoms: C_4  and  N_40
    4  A    between atoms: C_5  and  C_43
    5  A    between atoms: N_7  and  C_35
    6  A    between atoms: C_18  and  C_27
    7  A    between atoms: C_18  and  C_31
    8  A    between atoms: C_19  and  C_31
    9  A    between atoms: C_23  and  C_36
                            x       y       z     vdW  Elec       q    Type
                         _______ _______ _______ _____ _____    ______ ____

>  <TORSDO>
F 9

$$$$
=
 OpenBabel10232410303D

 43 47  0  0  1  0  0  0  0  0999 V2000
  189.6350  176.8710  139.6200 C   0  0  0  0  0  0  0  0  0  0  0  0
  188.5640  177.6820  139.1730 C   0  0  0  0  0  0  0  0  0  0  0  0
  187.7280  177.7310  141.4250 C   0  0  0  0  0  0  0  0  0  0  0  0
  188.7510  176.9530  141.8590 N   0  0  0  0  0  0  0  0  0  0  0  0
  189.6970  176.5170  140.9820 C   0  0  0  0  0  3  0  0  0  0  0  0
  182.9440  177.0480  138.3360 O   0  0  0  0  0  0  0  0  0  0  0  0
  186.6800  178.3160  142.2850 C   0  0  0  0  0  2  0  0  0  0  0  0
  183.0170  177.5450  139.4910 C   0  0  0  0  0  0  0  0  0  0  0  0
  185.3820  178.3260  139.0650 C   0  0  0  0  0  2  0  0  0  0  0  0
  185.8600  179.1840  141.3190 C   0  0  2  0  0  3  0  0  0  0  0  0
  184.4300  178.6770  141.2690 C   0  0  0  0  0  2  0  0  0  0  0  0
  184.2290  178.1740  139.9270 N   0  0  0  0  0  0  0  0  0  0  0  0
  187.6100  178.0980  140.1130 C   0  0  0  0  0  0  0  0  0  0  0  0
  186.4530  179.0060  139.9020 C   0  0  1  0  0  3  0  0  0  0  0  0
  191.4920  174.9200  136.9400 C   0  0  0  0  0  3  0  0  0  0  0  0
  192.9660  176.5920  137.8720 C   0  0  0  0  0  3  0  0  0  0  0  0
  191.9460  177.0130  138.7270 C   0  0  0  0  0  3  0  0  0  0  0  0
  192.7480  175.5400  136.9720 C   0  0  0  0  0  0  0  0  0  0  0  0
  190.4620  175.3400  137.7870 C   0  0  0  0  0  0  0  0  0  0  0  0
  190.6900  176.3950  138.7000 C   0  0  0  0  0  0  0  0  0  0  0  0
  196.9230  173.9470  135.2270 O   0  0  0  0  0  1  0  0  0  0  0  0
  193.7900  175.0970  136.0860 N   0  0  0  0  0  0  0  0  0  0  0  0
  195.8420  174.8200  135.0750 C   0  0  1  0  0  3  0  0  0  0  0  0
  193.4920  174.6460  134.8370 O   0  0  0  0  0  0  0  0  0  0  0  0
  194.7060  174.1310  134.3460 C   0  0  0  0  0  2  0  0  0  0  0  0
  195.2040  175.2240  136.3850 C   0  0  2  0  0  3  0  0  0  0  0  0
  195.5670  174.3000  137.5490 C   0  0  0  0  0  2  0  0  0  0  0  0
  196.5230  174.9130  138.3610 O   0  0  0  0  0  1  0  0  0  0  0  0
  189.1630  174.6020  137.7430 C   0  0  0  0  0  2  0  0  0  0  0  0
  189.3670  173.2850  137.1640 N   0  0  0  0  0  2  0  0  0  0  0  0
  188.0510  172.7620  136.8480 C   0  0  0  0  0  1  0  0  0  0  0  0
  187.6760  177.4520  136.8470 C   0  0  0  0  0  0  0  0  0  0  0  0
  187.5850  177.9380  135.5120 N   0  0  0  0  0  1  0  0  0  0  0  0
  187.0410  176.4120  137.1690 O   0  0  0  0  0  0  0  0  0  0  0  0
  188.4900  178.1330  137.8140 N   0  0  0  0  0  0  0  0  0  0  0  0
  189.2830  179.2890  137.4210 C   0  0  0  0  0  1  0  0  0  0  0  0
  181.8200  177.4740  140.3920 C   0  0  0  0  0  2  0  0  0  0  0  0
  181.3090  178.8510  140.8330 C   0  0  1  0  0  3  0  0  0  0  0  0
  180.3630  179.3490  139.9350 O   0  0  0  0  0  1  0  0  0  0  0  0
  181.8160  178.9060  143.1760 F   0  0  0  0  0  0  0  0  0  0  0  0
  179.9820  180.0050  142.4500 F   0  0  0  0  0  0  0  0  0  0  0  0
  180.7740  178.8860  142.2660 C   0  0  0  0  0  0  0  0  0  0  0  0
  180.0080  177.7570  142.4900 F   0  0  0  0  0  0  0  0  0  0  0  0
  1  5  1  0  0  0  0
  2  1  2  0  0  0  0
  2 13  1  0  0  0  0
  3  4  1  0  0  0  0
  3  7  1  0  0  0  0
  5  4  2  0  0  0  0
  6  8  2  0  0  0  0
  8 12  1  0  0  0  0
  8 37  1  0  0  0  0
  9 12  1  0  0  0  0
 10 11  1  6  0  0  0
 10  7  1  0  0  0  0
 12 11  1  0  0  0  0
 13  3  2  0  0  0  0
 14  9  1  6  0  0  0
 14 13  1  0  0  0  0
 14 10  1  0  0  0  0
 15 18  2  0  0  0  0
 15 19  1  0  0  0  0
 16 17  2  0  0  0  0
 18 16  1  0  0  0  0
 19 20  2  0  0  0  0
 20 17  1  0  0  0  0
 20  1  1  0  0  0  0
 22 26  1  0  0  0  0
 22 18  1  0  0  0  0
 23 21  1  1  0  0  0
 23 26  1  0  0  0  0
 24 22  1  0  0  0  0
 25 24  1  0  0  0  0
 25 23  1  0  0  0  0
 26 27  1  1  0  0  0
 27 28  1  0  0  0  0
 29 19  1  0  0  0  0
 30 29  1  0  0  0  0
 31 30  1  0  0  0  0
 32 34  2  0  0  0  0
 32 35  1  0  0  0  0
 33 32  1  0  0  0  0
 35  2  1  0  0  0  0
 36 35  1  0  0  0  0
 37 38  1  0  0  0  0
 38 39  1  6  0  0  0
 38 42  1  0  0  0  0
 42 41  1  0  0  0  0
 42 43  1  0  0  0  0
 42 40  1  0  0  0  0
M  END
>  <MODEL>
2

>  <REMARK>
 VINA RESULT:      -5.2      5.055     10.960
  Name = 
  9 active torsions:
  status: ('A' for Active; 'I' for Inactive)
    1  A    between atoms: N_2  and  C_23
    2  A    between atoms: C_3  and  C_42
    3  A    between atoms: C_4  and  N_40
    4  A    between atoms: C_5  and  C_43
    5  A    between atoms: N_7  and  C_35
    6  A    between atoms: C_18  and  C_27
    7  A    between atoms: C_18  and  C_31
    8  A    between atoms: C_19  and  C_31
    9  A    between atoms: C_23  and  C_36
                            x       y       z     vdW  Elec       q    Type
                         _______ _______ _______ _____ _____    ______ ____

>  <TORSDO>
F 9

$$$$
=
 OpenBabel10232410303D

 43 47  0  0  1  0  0  0  0  0999 V2000
  192.8000  175.7000  137.6660 C   0  0  0  0  0  0  0  0  0  0  0  0
  191.7240  175.5920  136.7530 C   0  0  0  0  0  0  0  0  0  0  0  0
  190.4870  177.1450  138.1070 C   0  0  0  0  0  0  0  0  0  0  0  0
  191.5150  177.2510  138.9860 N   0  0  0  0  0  0  0  0  0  0  0  0
  192.6600  176.5420  138.7860 C   0  0  0  0  0  3  0  0  0  0  0  0
  186.5090  173.2480  136.7370 O   0  0  0  0  0  0  0  0  0  0  0  0
  189.2230  177.9070  138.1800 C   0  0  0  0  0  2  0  0  0  0  0  0
  186.2930  174.4460  137.0600 C   0  0  0  0  0  0  0  0  0  0  0  0
  188.5570  175.1470  136.1810 C   0  0  0  0  0  2  0  0  0  0  0  0
  188.4790  177.4970  136.9010 C   0  0  2  0  0  3  0  0  0  0  0  0
  187.1730  176.8170  137.2690 C   0  0  0  0  0  2  0  0  0  0  0  0
  187.2990  175.4420  136.8350 N   0  0  0  0  0  0  0  0  0  0  0  0
  190.5620  176.3360  137.0070 C   0  0  0  0  0  0  0  0  0  0  0  0
  189.3440  176.4470  136.1650 C   0  0  1  0  0  3  0  0  0  0  0  0
  196.2870  174.7290  136.5110 C   0  0  0  0  0  3  0  0  0  0  0  0
  195.4130  172.9940  137.9460 C   0  0  0  0  0  3  0  0  0  0  0  0
  194.2320  173.7220  138.1040 C   0  0  0  0  0  3  0  0  0  0  0  0
  196.4500  173.4910  137.1450 C   0  0  0  0  0  0  0  0  0  0  0  0
  195.1120  175.4700  136.6710 C   0  0  0  0  0  0  0  0  0  0  0  0
  194.0650  174.9590  137.4710 C   0  0  0  0  0  0  0  0  0  0  0  0
  199.6910  170.2330  135.7680 O   0  0  0  0  0  1  0  0  0  0  0  0
  197.6710  172.7520  136.9740 N   0  0  0  0  0  0  0  0  0  0  0  0
  199.1870  171.0240  136.8050 C   0  0  1  0  0  3  0  0  0  0  0  0
  198.8750  173.3320  137.2310 O   0  0  0  0  0  0  0  0  0  0  0  0
  199.8240  172.3980  136.7780 C   0  0  0  0  0  2  0  0  0  0  0  0
  197.7140  171.3350  136.6640 C   0  0  2  0  0  3  0  0  0  0  0  0
  197.1750  171.1030  135.2510 C   0  0  0  0  0  2  0  0  0  0  0  0
  195.9910  170.3670  135.3090 O   0  0  0  0  0  1  0  0  0  0  0  0
  194.9780  176.7560  135.9230 C   0  0  0  0  0  2  0  0  0  0  0  0
  196.2880  177.2100  135.4880 N   0  0  0  0  0  2  0  0  0  0  0  0
  196.0680  178.3790  134.6580 C   0  0  0  0  0  1  0  0  0  0  0  0
  191.5090  173.4110  135.5510 C   0  0  0  0  0  0  0  0  0  0  0  0
  191.5910  172.6570  134.3460 N   0  0  0  0  0  1  0  0  0  0  0  0
  191.1550  172.8350  136.6150 O   0  0  0  0  0  0  0  0  0  0  0  0
  191.8370  174.8090  135.5580 N   0  0  0  0  0  0  0  0  0  0  0  0
  192.3200  175.4540  134.3460 C   0  0  0  0  0  1  0  0  0  0  0  0
  184.9740  174.8090  137.6740 C   0  0  0  0  0  2  0  0  0  0  0  0
  183.8580  175.0070  136.6410 C   0  0  1  0  0  3  0  0  0  0  0  0
  184.3760  175.4210  135.4120 O   0  0  0  0  0  1  0  0  0  0  0  0
  183.6120  172.6290  136.8230 F   0  0  0  0  0  0  0  0  0  0  0  0
  181.8160  173.9280  137.2530 F   0  0  0  0  0  0  0  0  0  0  0  0
  182.9470  173.7900  136.4690 C   0  0  0  0  0  0  0  0  0  0  0  0
  182.5620  173.6980  135.1450 F   0  0  0  0  0  0  0  0  0  0  0  0
  1  5  1  0  0  0  0
  2 13  1  0  0  0  0
  2  1  2  0  0  0  0
  3  7  1  0  0  0  0
  3  4  1  0  0  0  0
  5  4  2  0  0  0  0
  6  8  2  0  0  0  0
  8 37  1  0  0  0  0
  9 12  1  0  0  0  0
 10 11  1  1  0  0  0
 10  7  1  0  0  0  0
 12  8  1  0  0  0  0
 12 11  1  0  0  0  0
 13  3  2  0  0  0  0
 14  9  1  1  0  0  0
 14 10  1  0  0  0  0
 14 13  1  0  0  0  0
 15 19  2  0  0  0  0
 15 18  1  0  0  0  0
 16 17  1  0  0  0  0
 18 16  2  0  0  0  0
 19 20  1  0  0  0  0
 20  1  1  0  0  0  0
 20 17  2  0  0  0  0
 22 18  1  0  0  0  0
 22 24  1  0  0  0  0
 23 21  1  6  0  0  0
 25 23  1  0  0  0  0
 25 24  1  0  0  0  0
 26 27  1  6  0  0  0
 26 23  1  0  0  0  0
 26 22  1  0  0  0  0
 27 28  1  0  0  0  0
 29 19  1  0  0  0  0
 30 29  1  0  0  0  0
 31 30  1  0  0  0  0
 32 35  1  0  0  0  0
 32 34  2  0  0  0  0
 33 32  1  0  0  0  0
 35  2  1  0  0  0  0
 36 35  1  0  0  0  0
 38 39  1  6  0  0  0
 38 37  1  0  0  0  0
 42 38  1  0  0  0  0
 42 40  1  0  0  0  0
 42 41  1  0  0  0  0
 43 42  1  0  0  0  0
M  END
>  <MODEL>
3

>  <REMARK>
 VINA RESULT:      -4.8      5.052     11.932
  Name = 
  9 active torsions:
  status: ('A' for Active; 'I' for Inactive)
    1  A    between atoms: N_2  and  C_23
    2  A    between atoms: C_3  and  C_42
    3  A    between atoms: C_4  and  N_40
    4  A    between atoms: C_5  and  C_43
    5  A    between atoms: N_7  and  C_35
    6  A    between atoms: C_18  and  C_27
    7  A    between atoms: C_18  and  C_31
    8  A    between atoms: C_19  and  C_31
    9  A    between atoms: C_23  and  C_36
                            x       y       z     vdW  Elec       q    Type
                         _______ _______ _______ _____ _____    ______ ____

>  <TORSDO>
F 9

$$$$
=
 OpenBabel10232410303D

 43 47  0  0  1  0  0  0  0  0999 V2000
  189.3250  176.9480  140.3800 C   0  0  0  0  0  0  0  0  0  0  0  0
  188.2840  177.7930  139.9260 C   0  0  0  0  0  0  0  0  0  0  0  0
  187.3120  177.6890  142.1220 C   0  0  0  0  0  0  0  0  0  0  0  0
  188.3060  176.8790  142.5620 N   0  0  0  0  0  0  0  0  0  0  0  0
  189.3040  176.5000  141.7160 C   0  0  0  0  0  3  0  0  0  0  0  0
  182.7240  177.2460  138.7090 O   0  0  0  0  0  0  0  0  0  0  0  0
  186.2140  178.2190  142.9550 C   0  0  0  0  0  2  0  0  0  0  0  0
  182.7270  177.6620  139.8980 C   0  0  0  0  0  0  0  0  0  0  0  0
  185.1140  178.4590  139.6710 C   0  0  0  0  0  2  0  0  0  0  0  0
  185.4550  179.1560  142.0040 C   0  0  2  0  0  3  0  0  0  0  0  0
  184.0310  178.6600  141.8330 C   0  0  0  0  0  2  0  0  0  0  0  0
  183.9110  178.2520  140.4480 N   0  0  0  0  0  0  0  0  0  0  0  0
  187.2740  178.1470  140.8330 C   0  0  0  0  0  0  0  0  0  0  0  0
  186.1330  179.0730  140.6170 C   0  0  1  0  0  3  0  0  0  0  0  0
  192.7760  176.5420  138.8440 C   0  0  0  0  0  3  0  0  0  0  0  0
  191.1780  175.2660  137.5580 C   0  0  0  0  0  3  0  0  0  0  0  0
  190.1580  175.6830  138.4150 C   0  0  0  0  0  3  0  0  0  0  0  0
  192.4970  175.6950  137.7640 C   0  0  0  0  0  0  0  0  0  0  0  0
  191.7630  176.9580  139.7130 C   0  0  0  0  0  0  0  0  0  0  0  0
  190.4330  176.5320  139.4940 C   0  0  0  0  0  0  0  0  0  0  0  0
  196.3250  173.4540  135.9380 O   0  0  0  0  0  1  0  0  0  0  0  0
  193.5560  175.2730  136.8900 N   0  0  0  0  0  0  0  0  0  0  0  0
  195.6270  174.6560  136.0870 C   0  0  1  0  0  3  0  0  0  0  0  0
  193.4770  175.4910  135.5490 O   0  0  0  0  0  0  0  0  0  0  0  0
  194.5700  174.7900  135.0090 C   0  0  0  0  0  2  0  0  0  0  0  0
  194.8160  174.7280  137.3610 C   0  0  2  0  0  3  0  0  0  0  0  0
  194.5750  173.3630  138.0070 C   0  0  0  0  0  2  0  0  0  0  0  0
  195.6160  173.0640  138.8880 O   0  0  0  0  0  1  0  0  0  0  0  0
  192.1160  177.9060  140.8120 C   0  0  0  0  0  2  0  0  0  0  0  0
  192.3510  177.1680  142.0410 N   0  0  0  0  0  2  0  0  0  0  0  0
  191.8620  177.9990  143.1240 C   0  0  0  0  0  1  0  0  0  0  0  0
  187.5800  177.7010  137.5290 C   0  0  0  0  0  0  0  0  0  0  0  0
  187.5680  178.2780  136.2270 N   0  0  0  0  0  1  0  0  0  0  0  0
  186.9640  176.6200  137.7290 O   0  0  0  0  0  0  0  0  0  0  0  0
  188.2930  178.3380  138.6000 N   0  0  0  0  0  0  0  0  0  0  0  0
  189.0660  179.5450  138.3500 C   0  0  0  0  0  1  0  0  0  0  0  0
  181.4780  177.5340  140.7180 C   0  0  0  0  0  2  0  0  0  0  0  0
  180.6870  178.8430  140.8290 C   0  0  1  0  0  3  0  0  0  0  0  0
  181.0480  179.5540  141.9760 O   0  0  0  0  0  1  0  0  0  0  0  0
  179.9820  180.8540  139.7290 F   0  0  0  0  0  0  0  0  0  0  0  0
  182.0880  180.1190  139.3730 F   0  0  0  0  0  0  0  0  0  0  0  0
  180.7770  179.7300  139.5860 C   0  0  0  0  0  0  0  0  0  0  0  0
  180.3420  179.0140  138.4870 F   0  0  0  0  0  0  0  0  0  0  0  0
  1  5  1  0  0  0  0
  2  1  2  0  0  0  0
  2 13  1  0  0  0  0
  3  4  1  0  0  0  0
  3  7  1  0  0  0  0
  5  4  2  0  0  0  0
  6  8  2  0  0  0  0
  8 12  1  0  0  0  0
  8 37  1  0  0  0  0
  9 12  1  0  0  0  0
 10 11  1  6  0  0  0
 10  7  1  0  0  0  0
 12 11  1  0  0  0  0
 13  3  2  0  0  0  0
 14  9  1  6  0  0  0
 14 13  1  0  0  0  0
 14 10  1  0  0  0  0
 15 19  1  0  0  0  0
 16 18  1  0  0  0  0
 16 17  2  0  0  0  0
 17 20  1  0  0  0  0
 18 15  2  0  0  0  0
 19 29  1  0  0  0  0
 20 19  2  0  0  0  0
 20  1  1  0  0  0  0
 22 26  1  0  0  0  0
 22 18  1  0  0  0  0
 23 21  1  6  0  0  0
 23 26  1  0  0  0  0
 24 22  1  0  0  0  0
 25 24  1  0  0  0  0
 25 23  1  0  0  0  0
 26 27  1  6  0  0  0
 27 28  1  0  0  0  0
 29 30  1  0  0  0  0
 30 31  1  0  0  0  0
 32 34  2  0  0  0  0
 32 35  1  0  0  0  0
 33 32  1  0  0  0  0
 35  2  1  0  0  0  0
 36 35  1  0  0  0  0
 37 38  1  0  0  0  0
 38 39  1  1  0  0  0
 41 42  1  0  0  0  0
 42 40  1  0  0  0  0
 42 38  1  0  0  0  0
 43 42  1  0  0  0  0
M  END
>  <MODEL>
4

>  <REMARK>
 VINA RESULT:      -4.8      5.074     11.150
  Name = 
  9 active torsions:
  status: ('A' for Active; 'I' for Inactive)
    1  A    between atoms: N_2  and  C_23
    2  A    between atoms: C_3  and  C_42
    3  A    between atoms: C_4  and  N_40
    4  A    between atoms: C_5  and  C_43
    5  A    between atoms: N_7  and  C_35
    6  A    between atoms: C_18  and  C_27
    7  A    between atoms: C_18  and  C_31
    8  A    between atoms: C_19  and  C_31
    9  A    between atoms: C_23  and  C_36
                            x       y       z     vdW  Elec       q    Type
                         _______ _______ _______ _____ _____    ______ ____

>  <TORSDO>
F 9

$$$$
=
 OpenBabel10232410303D

 43 47  0  0  1  0  0  0  0  0999 V2000
  189.6120  175.9110  135.4650 C   0  0  0  0  0  0  0  0  0  0  0  0
  188.3580  175.2620  135.3660 C   0  0  0  0  0  0  0  0  0  0  0  0
  187.3650  177.3780  134.8080 C   0  0  0  0  0  0  0  0  0  0  0  0
  188.5630  178.0060  134.9030 N   0  0  0  0  0  0  0  0  0  0  0  0
  189.6810  177.2990  135.2300 C   0  0  0  0  0  3  0  0  0  0  0  0
  183.5130  175.1030  138.3980 O   0  0  0  0  0  0  0  0  0  0  0  0
  186.0980  178.0190  134.4010 C   0  0  0  0  0  2  0  0  0  0  0  0
  183.2840  175.9760  137.5180 C   0  0  0  0  0  0  0  0  0  0  0  0
  185.1970  175.1290  136.1010 C   0  0  0  0  0  2  0  0  0  0  0  0
  185.1000  176.8530  134.3500 C   0  0  2  0  0  3  0  0  0  0  0  0
  183.9860  177.0940  135.3520 C   0  0  0  0  0  2  0  0  0  0  0  0
  184.1170  176.0590  136.3550 N   0  0  0  0  0  0  0  0  0  0  0  0
  187.2360  176.0350  135.0350 C   0  0  0  0  0  0  0  0  0  0  0  0
  185.8440  175.5730  134.7990 C   0  0  1  0  0  3  0  0  0  0  0  0
  192.4660  174.3180  137.4020 C   0  0  0  0  0  3  0  0  0  0  0  0
  192.7710  173.8930  135.0440 C   0  0  0  0  0  3  0  0  0  0  0  0
  191.6000  174.6000  134.7670 C   0  0  0  0  0  3  0  0  0  0  0  0
  193.2160  173.7480  136.3650 C   0  0  0  0  0  0  0  0  0  0  0  0
  191.2870  175.0200  137.1350 C   0  0  0  0  0  0  0  0  0  0  0  0
  190.8480  175.1730  135.8000 C   0  0  0  0  0  0  0  0  0  0  0  0
  197.7870  172.6150  137.2800 O   0  0  0  0  0  1  0  0  0  0  0  0
  194.4200  173.0230  136.6650 N   0  0  0  0  0  0  0  0  0  0  0  0
  196.5990  172.2730  136.6260 C   0  0  1  0  0  3  0  0  0  0  0  0
  194.3620  171.7890  137.2350 O   0  0  0  0  0  0  0  0  0  0  0  0
  195.6980  171.4800  137.5510 C   0  0  0  0  0  2  0  0  0  0  0  0
  195.7430  173.4670  136.2680 C   0  0  2  0  0  3  0  0  0  0  0  0
  196.1120  174.7350  137.0400 C   0  0  0  0  0  2  0  0  0  0  0  0
  196.8200  175.6060  136.2110 O   0  0  0  0  0  1  0  0  0  0  0  0
  190.5630  175.6510  138.2800 C   0  0  0  0  0  2  0  0  0  0  0  0
  191.0780  176.9900  138.5080 N   0  0  0  0  0  2  0  0  0  0  0  0
  191.0060  177.2250  139.9380 C   0  0  0  0  0  1  0  0  0  0  0  0
  188.0110  173.2520  136.8110 C   0  0  0  0  0  0  0  0  0  0  0  0
  187.8590  171.8420  136.9420 N   0  0  0  0  0  1  0  0  0  0  0  0
  187.9490  173.9760  137.8410 O   0  0  0  0  0  0  0  0  0  0  0  0
  188.2410  173.8420  135.5220 N   0  0  0  0  0  0  0  0  0  0  0  0
  188.3890  172.9980  134.3460 C   0  0  0  0  0  1  0  0  0  0  0  0
  182.1290  176.9140  137.7070 C   0  0  0  0  0  2  0  0  0  0  0  0
  182.3980  178.0060  138.7490 C   0  0  1  0  0  3  0  0  0  0  0  0
  181.7030  179.1780  138.4430 O   0  0  0  0  0  1  0  0  0  0  0  0
  183.3120  177.2970  140.8500 F   0  0  0  0  0  0  0  0  0  0  0  0
  181.4440  178.5660  140.8670 F   0  0  0  0  0  0  0  0  0  0  0  0
  182.1260  177.5710  140.1900 C   0  0  0  0  0  0  0  0  0  0  0  0
  181.3490  176.4280  140.1780 F   0  0  0  0  0  0  0  0  0  0  0  0
  1 20  1  0  0  0  0
  2  1  1  0  0  0  0
  2 35  1  0  0  0  0
  3  4  2  0  0  0  0
  3 13  1  0  0  0  0
  4  5  1  0  0  0  0
  5  1  2  0  0  0  0
  7  3  1  0  0  0  0
  8 37  1  0  0  0  0
  8  6  2  0  0  0  0
  9 12  1  0  0  0  0
 10  7  1  1  0  0  0
 10 14  1  0  0  0  0
 10 11  1  0  0  0  0
 11 12  1  0  0  0  0
 12  8  1  0  0  0  0
 13  2  2  0  0  0  0
 14 13  1  0  0  0  0
 14  9  1  1  0  0  0
 16 18  1  0  0  0  0
 17 16  2  0  0  0  0
 17 20  1  0  0  0  0
 18 22  1  0  0  0  0
 18 15  2  0  0  0  0
 19 15  1  0  0  0  0
 19 29  1  0  0  0  0
 20 19  2  0  0  0  0
 22 24  1  0  0  0  0
 23 21  1  1  0  0  0
 23 25  1  0  0  0  0
 24 25  1  0  0  0  0
 26 23  1  0  0  0  0
 26 22  1  0  0  0  0
 26 27  1  1  0  0  0
 28 27  1  0  0  0  0
 29 30  1  0  0  0  0
 30 31  1  0  0  0  0
 32 33  1  0  0  0  0
 32 34  2  0  0  0  0
 35 32  1  0  0  0  0
 36 35  1  0  0  0  0
 37 38  1  0  0  0  0
 38 39  1  6  0  0  0
 38 42  1  0  0  0  0
 42 40  1  0  0  0  0
 42 41  1  0  0  0  0
 43 42  1  0  0  0  0
M  END
>  <MODEL>
5

>  <REMARK>
 VINA RESULT:      -4.8      4.355     10.887
  Name = 
  9 active torsions:
  status: ('A' for Active; 'I' for Inactive)
    1  A    between atoms: N_2  and  C_23
    2  A    between atoms: C_3  and  C_42
    3  A    between atoms: C_4  and  N_40
    4  A    between atoms: C_5  and  C_43
    5  A    between atoms: N_7  and  C_35
    6  A    between atoms: C_18  and  C_27
    7  A    between atoms: C_18  and  C_31
    8  A    between atoms: C_19  and  C_31
    9  A    between atoms: C_23  and  C_36
                            x       y       z     vdW  Elec       q    Type
                         _______ _______ _______ _____ _____    ______ ____

>  <TORSDO>
F 9

$$$$
=
 OpenBabel10232410303D

 43 47  0  0  1  0  0  0  0  0999 V2000
  189.8630  177.0250  137.2020 C   0  0  0  0  0  0  0  0  0  0  0  0
  188.8460  176.3080  136.5280 C   0  0  0  0  0  0  0  0  0  0  0  0
  187.2850  178.0180  137.1720 C   0  0  0  0  0  0  0  0  0  0  0  0
  188.2550  178.7090  137.8200 N   0  0  0  0  0  0  0  0  0  0  0  0
  189.5300  178.2320  137.8490 C   0  0  0  0  0  3  0  0  0  0  0  0
  184.2730  173.2090  138.0030 O   0  0  0  0  0  0  0  0  0  0  0  0
  185.8840  178.4610  137.0160 C   0  0  0  0  0  2  0  0  0  0  0  0
  183.7970  174.3550  137.7880 C   0  0  0  0  0  0  0  0  0  0  0  0
  185.8600  175.0290  136.4930 C   0  0  0  0  0  2  0  0  0  0  0  0
  185.2600  177.3830  136.1160 C   0  0  2  0  0  3  0  0  0  0  0  0
  184.1320  176.6930  136.8600 C   0  0  0  0  0  2  0  0  0  0  0  0
  184.5620  175.3250  137.0610 N   0  0  0  0  0  0  0  0  0  0  0  0
  187.5460  176.8360  136.5340 C   0  0  0  0  0  0  0  0  0  0  0  0
  186.3420  176.3130  135.8400 C   0  0  1  0  0  3  0  0  0  0  0  0
  193.2440  175.8110  138.4400 C   0  0  0  0  0  3  0  0  0  0  0  0
  193.2700  175.9120  136.0270 C   0  0  0  0  0  3  0  0  0  0  0  0
  191.9500  176.3660  136.0330 C   0  0  0  0  0  3  0  0  0  0  0  0
  193.9290  175.6340  137.2310 C   0  0  0  0  0  0  0  0  0  0  0  0
  191.9180  176.2550  138.4550 C   0  0  0  0  0  0  0  0  0  0  0  0
  191.2610  176.5460  137.2390 C   0  0  0  0  0  0  0  0  0  0  0  0
  197.8590  172.9500  137.8410 O   0  0  0  0  0  1  0  0  0  0  0  0
  195.2890  175.1660  137.2390 N   0  0  0  0  0  0  0  0  0  0  0  0
  197.2830  174.2220  137.9060 C   0  0  1  0  0  3  0  0  0  0  0  0
  196.2180  175.7220  136.4150 O   0  0  0  0  0  0  0  0  0  0  0  0
  197.3530  174.9040  136.5540 C   0  0  0  0  0  2  0  0  0  0  0  0
  195.7980  174.1970  138.1920 C   0  0  2  0  0  3  0  0  0  0  0  0
  195.1520  172.8350  137.9340 C   0  0  0  0  0  2  0  0  0  0  0  0
  195.1000  172.5870  136.5610 O   0  0  0  0  0  1  0  0  0  0  0  0
  191.2610  176.4780  139.7790 C   0  0  0  0  0  2  0  0  0  0  0  0
  192.0870  177.3490  140.5970 N   0  0  0  0  0  2  0  0  0  0  0  0
  191.3130  177.6620  141.7830 C   0  0  0  0  0  1  0  0  0  0  0  0
  189.2790  173.8470  136.4520 C   0  0  0  0  0  0  0  0  0  0  0  0
  189.5330  172.6650  135.6990 N   0  0  0  0  0  1  0  0  0  0  0  0
  189.1850  173.7700  137.7060 O   0  0  0  0  0  0  0  0  0  0  0  0
  189.1400  175.1140  135.7910 N   0  0  0  0  0  0  0  0  0  0  0  0
  189.3250  175.2140  134.3510 C   0  0  0  0  0  1  0  0  0  0  0  0
  182.4240  174.6800  138.2960 C   0  0  0  0  0  2  0  0  0  0  0  0
  181.3120  173.9020  137.5820 C   0  0  1  0  0  3  0  0  0  0  0  0
  180.1030  174.0010  138.2730 O   0  0  0  0  0  1  0  0  0  0  0  0
  181.0110  175.6550  135.9730 F   0  0  0  0  0  0  0  0  0  0  0  0
  182.2150  173.8420  135.3700 F   0  0  0  0  0  0  0  0  0  0  0  0
  181.1330  174.2840  136.1110 C   0  0  0  0  0  0  0  0  0  0  0  0
  179.9860  173.6840  135.6250 F   0  0  0  0  0  0  0  0  0  0  0  0
  1 20  1  0  0  0  0
  1  5  1  0  0  0  0
  2 13  1  0  0  0  0
  2  1  2  0  0  0  0
  3  4  1  0  0  0  0
  4  5  2  0  0  0  0
  7  3  1  0  0  0  0
  8  6  2  0  0  0  0
  8 37  1  0  0  0  0
  9 12  1  0  0  0  0
 10 11  1  1  0  0  0
 10  7  1  0  0  0  0
 11 12  1  0  0  0  0
 12  8  1  0  0  0  0
 13  3  2  0  0  0  0
 14 10  1  0  0  0  0
 14  9  1  1  0  0  0
 14 13  1  0  0  0  0
 15 19  1  0  0  0  0
 16 17  2  0  0  0  0
 16 18  1  0  0  0  0
 17 20  1  0  0  0  0
 18 22  1  0  0  0  0
 18 15  2  0  0  0  0
 19 29  1  0  0  0  0
 20 19  2  0  0  0  0
 22 26  1  0  0  0  0
 23 21  1  6  0  0  0
 23 26  1  0  0  0  0
 24 25  1  0  0  0  0
 24 22  1  0  0  0  0
 25 23  1  0  0  0  0
 26 27  1  6  0  0  0
 28 27  1  0  0  0  0
 29 30  1  0  0  0  0
 30 31  1  0  0  0  0
 32 34  2  0  0  0  0
 33 32  1  0  0  0  0
 35 32  1  0  0  0  0
 35  2  1  0  0  0  0
 36 35  1  0  0  0  0
 38 39  1  1  0  0  0
 38 37  1  0  0  0  0
 40 42  1  0  0  0  0
 41 42  1  0  0  0  0
 42 38  1  0  0  0  0
 43 42  1  0  0  0  0
M  END
>  <MODEL>
6

>  <REMARK>
 VINA RESULT:      -4.7      4.862     10.869
  Name = 
  9 active torsions:
  status: ('A' for Active; 'I' for Inactive)
    1  A    between atoms: N_2  and  C_23
    2  A    between atoms: C_3  and  C_42
    3  A    between atoms: C_4  and  N_40
    4  A    between atoms: C_5  and  C_43
    5  A    between atoms: N_7  and  C_35
    6  A    between atoms: C_18  and  C_27
    7  A    between atoms: C_18  and  C_31
    8  A    between atoms: C_19  and  C_31
    9  A    between atoms: C_23  and  C_36
                            x       y       z     vdW  Elec       q    Type
                         _______ _______ _______ _____ _____    ______ ____

>  <TORSDO>
F 9

$$$$
=
 OpenBabel10232410303D

 43 47  0  0  1  0  0  0  0  0999 V2000
  188.3610  176.4800  135.3560 C   0  0  0  0  0  0  0  0  0  0  0  0
  187.2610  175.6640  135.7120 C   0  0  0  0  0  0  0  0  0  0  0  0
  185.8000  177.2780  134.6930 C   0  0  0  0  0  0  0  0  0  0  0  0
  186.8510  178.0640  134.3500 N   0  0  0  0  0  0  0  0  0  0  0  0
  188.1190  177.6890  134.6730 C   0  0  0  0  0  3  0  0  0  0  0  0
  182.9720  175.8910  139.4860 O   0  0  0  0  0  0  0  0  0  0  0  0
  184.3890  177.5430  134.3460 C   0  0  0  0  0  2  0  0  0  0  0  0
  182.4620  176.3520  138.4300 C   0  0  0  0  0  0  0  0  0  0  0  0
  184.3100  175.3440  137.0320 C   0  0  0  0  0  2  0  0  0  0  0  0
  183.6480  176.3030  134.8670 C   0  0  2  0  0  3  0  0  0  0  0  0
  182.6440  176.7190  135.9260 C   0  0  0  0  0  2  0  0  0  0  0  0
  183.1070  176.1370  137.1690 N   0  0  0  0  0  0  0  0  0  0  0  0
  185.9730  176.0990  135.3650 C   0  0  0  0  0  0  0  0  0  0  0  0
  184.6840  175.3870  135.5590 C   0  0  1  0  0  3  0  0  0  0  0  0
  191.7130  176.1400  137.1130 C   0  0  0  0  0  3  0  0  0  0  0  0
  191.7660  174.8870  135.0490 C   0  0  0  0  0  3  0  0  0  0  0  0
  190.4520  175.2740  134.7810 C   0  0  0  0  0  3  0  0  0  0  0  0
  192.4090  175.3200  136.2170 C   0  0  0  0  0  0  0  0  0  0  0  0
  190.3930  176.5250  136.8590 C   0  0  0  0  0  0  0  0  0  0  0  0
  189.7530  176.0950  135.6740 C   0  0  0  0  0  0  0  0  0  0  0  0
  196.3910  172.7400  136.9260 O   0  0  0  0  0  1  0  0  0  0  0  0
  193.7620  174.9290  136.5040 N   0  0  0  0  0  0  0  0  0  0  0  0
  195.5940  173.8090  137.3440 C   0  0  1  0  0  3  0  0  0  0  0  0
  194.7780  175.8300  136.4170 O   0  0  0  0  0  0  0  0  0  0  0  0
  195.9480  175.0650  136.5720 C   0  0  0  0  0  2  0  0  0  0  0  0
  194.1260  173.6260  137.0290 C   0  0  2  0  0  3  0  0  0  0  0  0
  193.8600  172.5530  135.9710 C   0  0  0  0  0  2  0  0  0  0  0  0
  193.6390  171.3220  136.5890 O   0  0  0  0  0  1  0  0  0  0  0  0
  189.7250  177.4460  137.8270 C   0  0  0  0  0  2  0  0  0  0  0  0
  190.4840  177.4930  139.0640 N   0  0  0  0  0  2  0  0  0  0  0  0
  189.5480  177.2140  140.1370 C   0  0  0  0  0  1  0  0  0  0  0  0
  187.3880  173.1710  135.5870 C   0  0  0  0  0  0  0  0  0  0  0  0
  187.6190  171.9170  136.2210 N   0  0  0  0  0  1  0  0  0  0  0  0
  187.1180  173.1970  134.3560 O   0  0  0  0  0  0  0  0  0  0  0  0
  187.4520  174.3900  136.3410 N   0  0  0  0  0  0  0  0  0  0  0  0
  187.6880  174.3520  137.7770 C   0  0  0  0  0  1  0  0  0  0  0  0
  181.1760  177.1190  138.5170 C   0  0  0  0  0  2  0  0  0  0  0  0
  181.3290  178.4850  139.1970 C   0  0  1  0  0  3  0  0  0  0  0  0
  181.8400  178.3520  140.4890 O   0  0  0  0  0  1  0  0  0  0  0  0
  183.4960  179.1980  138.4580 F   0  0  0  0  0  0  0  0  0  0  0  0
  181.7420  179.4790  137.0640 F   0  0  0  0  0  0  0  0  0  0  0  0
  182.1460  179.4940  138.3870 C   0  0  0  0  0  0  0  0  0  0  0  0
  181.9390  180.7600  138.9020 F   0  0  0  0  0  0  0  0  0  0  0  0
  1 20  1  0  0  0  0
  1  2  1  0  0  0  0
  2 35  1  0  0  0  0
  3 13  1  0  0  0  0
  4  5  1  0  0  0  0
  4  3  2  0  0  0  0
  5  1  2  0  0  0  0
  7  3  1  0  0  0  0
  8 37  1  0  0  0  0
  8  6  2  0  0  0  0
  9 12  1  0  0  0  0
 10  7  1  1  0  0  0
 10 14  1  0  0  0  0
 10 11  1  0  0  0  0
 11 12  1  0  0  0  0
 12  8  1  0  0  0  0
 13 14  1  0  0  0  0
 13  2  2  0  0  0  0
 14  9  1  1  0  0  0
 16 18  1  0  0  0  0
 17 16  2  0  0  0  0
 17 20  1  0  0  0  0
 18 22  1  0  0  0  0
 18 15  2  0  0  0  0
 19 15  1  0  0  0  0
 19 29  1  0  0  0  0
 20 19  2  0  0  0  0
 22 26  1  0  0  0  0
 23 21  1  6  0  0  0
 24 22  1  0  0  0  0
 24 25  1  0  0  0  0
 25 23  1  0  0  0  0
 26 27  1  6  0  0  0
 26 23  1  0  0  0  0
 27 28  1  0  0  0  0
 29 30  1  0  0  0  0
 30 31  1  0  0  0  0
 32 33  1  0  0  0  0
 32 35  1  0  0  0  0
 34 32  2  0  0  0  0
 35 36  1  0  0  0  0
 37 38  1  0  0  0  0
 38 39  1  1  0  0  0
 41 42  1  0  0  0  0
 42 40  1  0  0  0  0
 42 43  1  0  0  0  0
 42 38  1  0  0  0  0
M  END
>  <MODEL>
7

>  <REMARK>
 VINA RESULT:      -4.6      4.247     10.498
  Name = 
  9 active torsions:
  status: ('A' for Active; 'I' for Inactive)
    1  A    between atoms: N_2  and  C_23
    2  A    between atoms: C_3  and  C_42
    3  A    between atoms: C_4  and  N_40
    4  A    between atoms: C_5  and  C_43
    5  A    between atoms: N_7  and  C_35
    6  A    between atoms: C_18  and  C_27
    7  A    between atoms: C_18  and  C_31
    8  A    between atoms: C_19  and  C_31
    9  A    between atoms: C_23  and  C_36
                            x       y       z     vdW  Elec       q    Type
                         _______ _______ _______ _____ _____    ______ ____

>  <TORSDO>
F 9

$$$$
=
 OpenBabel10232410303D

 43 47  0  0  1  0  0  0  0  0999 V2000
  189.4310  177.1330  139.6280 C   0  0  0  0  0  0  0  0  0  0  0  0
  188.4040  177.7780  138.8990 C   0  0  0  0  0  0  0  0  0  0  0  0
  187.1290  177.9340  140.9300 C   0  0  0  0  0  0  0  0  0  0  0  0
  188.1100  177.3150  141.6340 N   0  0  0  0  0  0  0  0  0  0  0  0
  189.2490  176.9090  141.0070 C   0  0  0  0  0  3  0  0  0  0  0  0
  183.1480  176.4590  137.0730 O   0  0  0  0  0  0  0  0  0  0  0  0
  185.8810  178.4740  141.5040 C   0  0  0  0  0  2  0  0  0  0  0  0
  182.9420  177.0620  138.1600 C   0  0  0  0  0  0  0  0  0  0  0  0
  185.2640  178.0570  138.1130 C   0  0  0  0  0  2  0  0  0  0  0  0
  185.1980  179.1580  140.3110 C   0  0  2  0  0  3  0  0  0  0  0  0
  183.8600  178.4940  140.0430 C   0  0  0  0  0  2  0  0  0  0  0  0
  183.9790  177.8560  138.7490 N   0  0  0  0  0  0  0  0  0  0  0  0
  187.2460  178.1680  139.5870 C   0  0  0  0  0  0  0  0  0  0  0  0
  186.0790  178.9210  139.0620 C   0  0  1  0  0  3  0  0  0  0  0  0
  191.9430  175.2150  137.5180 C   0  0  0  0  0  3  0  0  0  0  0  0
  193.0750  177.0170  138.6610 C   0  0  0  0  0  3  0  0  0  0  0  0
  191.8690  177.3980  139.2520 C   0  0  0  0  0  3  0  0  0  0  0  0
  193.1220  175.9190  137.7910 C   0  0  0  0  0  0  0  0  0  0  0  0
  190.7280  175.5950  138.0980 C   0  0  0  0  0  0  0  0  0  0  0  0
  190.6880  176.6950  138.9840 C   0  0  0  0  0  0  0  0  0  0  0  0
  197.0160  173.4260  136.5120 O   0  0  0  0  0  1  0  0  0  0  0  0
  194.3570  175.5160  137.1750 N   0  0  0  0  0  0  0  0  0  0  0  0
  196.4770  174.6690  136.8540 C   0  0  1  0  0  3  0  0  0  0  0  0
  194.7890  176.1120  136.0310 O   0  0  0  0  0  0  0  0  0  0  0  0
  195.8990  175.3480  135.6280 C   0  0  0  0  0  2  0  0  0  0  0  0
  195.2840  174.5760  137.7780 C   0  0  2  0  0  3  0  0  0  0  0  0
  194.6500  173.1840  137.8150 C   0  0  0  0  0  2  0  0  0  0  0  0
  195.2090  172.4360  138.8530 O   0  0  0  0  0  1  0  0  0  0  0  0
  189.5170  174.7690  137.8110 C   0  0  0  0  0  2  0  0  0  0  0  0
  189.8530  173.7160  136.8690 N   0  0  0  0  0  2  0  0  0  0  0  0
  188.6380  172.9570  136.6420 C   0  0  0  0  0  1  0  0  0  0  0  0
  187.9920  177.2710  136.4860 C   0  0  0  0  0  0  0  0  0  0  0  0
  188.1290  177.6240  135.1130 N   0  0  0  0  0  1  0  0  0  0  0  0
  187.3680  176.2190  136.7910 O   0  0  0  0  0  0  0  0  0  0  0  0
  188.5650  178.0970  137.5100 N   0  0  0  0  0  0  0  0  0  0  0  0
  189.3500  179.2690  137.1520 C   0  0  0  0  0  1  0  0  0  0  0  0
  181.5990  176.9400  138.8170 C   0  0  0  0  0  2  0  0  0  0  0  0
  181.3350  175.5470  139.4040 C   0  0  1  0  0  3  0  0  0  0  0  0
  180.5320  175.6240  140.5440 O   0  0  0  0  0  1  0  0  0  0  0  0
  179.9820  173.6020  139.0400 F   0  0  0  0  0  0  0  0  0  0  0  0
  179.9980  175.2090  137.4540 F   0  0  0  0  0  0  0  0  0  0  0  0
  180.7620  174.5470  138.3980 C   0  0  0  0  0  0  0  0  0  0  0  0
  181.8040  173.9040  137.7570 F   0  0  0  0  0  0  0  0  0  0  0  0
  1  5  1  0  0  0  0
  2 13  1  0  0  0  0
  2  1  2  0  0  0  0
  3  7  1  0  0  0  0
  3  4  1  0  0  0  0
  5  4  2  0  0  0  0
  6  8  2  0  0  0  0
  8 12  1  0  0  0  0
  8 37  1  0  0  0  0
  9 12  1  0  0  0  0
 10 11  1  6  0  0  0
 10  7  1  0  0  0  0
 12 11  1  0  0  0  0
 13  3  2  0  0  0  0
 14  9  1  6  0  0  0
 14 13  1  0  0  0  0
 14 10  1  0  0  0  0
 15 18  2  0  0  0  0
 15 19  1  0  0  0  0
 16 17  2  0  0  0  0
 18 16  1  0  0  0  0
 19 20  2  0  0  0  0
 20 17  1  0  0  0  0
 20  1  1  0  0  0  0
 22 26  1  0  0  0  0
 22 18  1  0  0  0  0
 23 21  1  6  0  0  0
 23 26  1  0  0  0  0
 24 22  1  0  0  0  0
 25 24  1  0  0  0  0
 25 23  1  0  0  0  0
 26 27  1  6  0  0  0
 27 28  1  0  0  0  0
 29 19  1  0  0  0  0
 30 29  1  0  0  0  0
 31 30  1  0  0  0  0
 32 34  2  0  0  0  0
 32 35  1  0  0  0  0
 33 32  1  0  0  0  0
 35  2  1  0  0  0  0
 36 35  1  0  0  0  0
 37 38  1  0  0  0  0
 38 39  1  1  0  0  0
 41 42  1  0  0  0  0
 42 40  1  0  0  0  0
 42 38  1  0  0  0  0
 43 42  1  0  0  0  0
M  END
>  <MODEL>
8

>  <REMARK>
 VINA RESULT:      -4.5      4.657     10.652
  Name = 
  9 active torsions:
  status: ('A' for Active; 'I' for Inactive)
    1  A    between atoms: N_2  and  C_23
    2  A    between atoms: C_3  and  C_42
    3  A    between atoms: C_4  and  N_40
    4  A    between atoms: C_5  and  C_43
    5  A    between atoms: N_7  and  C_35
    6  A    between atoms: C_18  and  C_27
    7  A    between atoms: C_18  and  C_31
    8  A    between atoms: C_19  and  C_31
    9  A    between atoms: C_23  and  C_36
                            x       y       z     vdW  Elec       q    Type
                         _______ _______ _______ _____ _____    ______ ____

>  <TORSDO>
F 9

$$$$
=
 OpenBabel10232410303D

 43 47  0  0  1  0  0  0  0  0999 V2000
  186.4240  175.9700  137.1870 C   0  0  0  0  0  0  0  0  0  0  0  0
  187.6550  176.3810  136.6230 C   0  0  0  0  0  0  0  0  0  0  0  0
  188.2750  174.0690  136.4160 C   0  0  0  0  0  0  0  0  0  0  0  0
  187.0970  173.6680  136.9580 N   0  0  0  0  0  0  0  0  0  0  0  0
  186.1750  174.5920  137.3470 C   0  0  0  0  0  3  0  0  0  0  0  0
  193.1350  176.5000  138.2470 O   0  0  0  0  0  0  0  0  0  0  0  0
  189.3230  173.1670  135.8980 C   0  0  0  0  0  2  0  0  0  0  0  0
  193.0420  175.4240  137.5980 C   0  0  0  0  0  0  0  0  0  0  0  0
  190.8960  176.2010  136.5130 C   0  0  0  0  0  2  0  0  0  0  0  0
  190.3660  174.1260  135.3050 C   0  0  2  0  0  3  0  0  0  0  0  0
  191.6850  173.9560  136.0360 C   0  0  0  0  0  2  0  0  0  0  0  0
  191.9210  175.2020  136.7340 N   0  0  0  0  0  0  0  0  0  0  0  0
  188.5750  175.3920  136.2460 C   0  0  0  0  0  0  0  0  0  0  0  0
  189.8850  175.5710  135.5690 C   0  0  1  0  0  3  0  0  0  0  0  0
  184.5590  178.6740  139.0970 C   0  0  0  0  0  3  0  0  0  0  0  0
  183.2230  177.9660  137.2130 C   0  0  0  0  0  3  0  0  0  0  0  0
  184.2180  177.0560  136.8510 C   0  0  0  0  0  3  0  0  0  0  0  0
  183.3850  178.7810  138.3410 C   0  0  0  0  0  0  0  0  0  0  0  0
  185.5650  177.7720  138.7380 C   0  0  0  0  0  0  0  0  0  0  0  0
  185.3930  176.9440  137.6050 C   0  0  0  0  0  0  0  0  0  0  0  0
  179.9840  181.1290  140.7790 O   0  0  0  0  0  1  0  0  0  0  0  0
  182.3680  179.7220  138.7250 N   0  0  0  0  0  0  0  0  0  0  0  0
  180.4160  180.6350  139.5440 C   0  0  1  0  0  3  0  0  0  0  0  0
  182.2790  180.9350  138.1130 O   0  0  0  0  0  0  0  0  0  0  0  0
  181.3200  181.6420  138.8600 C   0  0  0  0  0  2  0  0  0  0  0  0
  181.3020  179.4150  139.6600 C   0  0  2  0  0  3  0  0  0  0  0  0
  181.8880  179.2190  141.0600 C   0  0  0  0  0  2  0  0  0  0  0  0
  181.7280  177.8920  141.4590 O   0  0  0  0  0  1  0  0  0  0  0  0
  186.7680  177.6650  139.6170 C   0  0  0  0  0  2  0  0  0  0  0  0
  186.8000  178.7840  140.5430 N   0  0  0  0  0  2  0  0  0  0  0  0
  187.7800  178.4540  141.5600 C   0  0  0  0  0  1  0  0  0  0  0  0
  188.7380  178.5400  137.2690 C   0  0  0  0  0  0  0  0  0  0  0  0
  189.0340  179.9030  136.9800 N   0  0  0  0  0  1  0  0  0  0  0  0
  189.1860  178.0230  138.3280 O   0  0  0  0  0  0  0  0  0  0  0  0
  187.9310  177.7650  136.3690 N   0  0  0  0  0  0  0  0  0  0  0  0
  187.3510  178.3840  135.1860 C   0  0  0  0  0  1  0  0  0  0  0  0
  194.1200  174.3910  137.7420 C   0  0  0  0  0  2  0  0  0  0  0  0
  195.2660  174.5660  136.7390 C   0  0  1  0  0  3  0  0  0  0  0  0
  195.1480  175.7710  136.0430 O   0  0  0  0  0  1  0  0  0  0  0  0
  197.1320  173.1340  137.2070 F   0  0  0  0  0  0  0  0  0  0  0  0
  197.5370  175.3080  136.7520 F   0  0  0  0  0  0  0  0  0  0  0  0
  196.6590  174.4260  137.3560 C   0  0  0  0  0  0  0  0  0  0  0  0
  196.5880  174.7220  138.7040 F   0  0  0  0  0  0  0  0  0  0  0  0
  1  5  1  0  0  0  0
  1 20  1  0  0  0  0
  2  1  2  0  0  0  0
  3  4  1  0  0  0  0
  4  5  2  0  0  0  0
  7  3  1  0  0  0  0
  8 37  1  0  0  0  0
  8  6  2  0  0  0  0
  9 12  1  0  0  0  0
 10 14  1  0  0  0  0
 10  7  1  1  0  0  0
 10 11  1  0  0  0  0
 11 12  1  0  0  0  0
 12  8  1  0  0  0  0
 13  3  2  0  0  0  0
 13  2  1  0  0  0  0
 14 13  1  0  0  0  0
 14  9  1  1  0  0  0
 16 18  1  0  0  0  0
 17 16  2  0  0  0  0
 17 20  1  0  0  0  0
 18 22  1  0  0  0  0
 18 15  2  0  0  0  0
 19 15  1  0  0  0  0
 19 29  1  0  0  0  0
 20 19  2  0  0  0  0
 22 26  1  0  0  0  0
 23 26  1  0  0  0  0
 23 21  1  1  0  0  0
 24 22  1  0  0  0  0
 24 25  1  0  0  0  0
 25 23  1  0  0  0  0
 26 27  1  1  0  0  0
 27 28  1  0  0  0  0
 29 30  1  0  0  0  0
 30 31  1  0  0  0  0
 32 34  2  0  0  0  0
 33 32  1  0  0  0  0
 35  2  1  0  0  0  0
 35 32  1  0  0  0  0
 36 35  1  0  0  0  0
 38 39  1  1  0  0  0
 38 42  1  0  0  0  0
 38 37  1  0  0  0  0
 40 42  1  0  0  0  0
 41 42  1  0  0  0  0
 42 43  1  0  0  0  0
M  END
>  <MODEL>
9

>  <REMARK>
 VINA RESULT:      -4.1      1.347      2.356
  Name = 
  9 active torsions:
  status: ('A' for Active; 'I' for Inactive)
    1  A    between atoms: N_2  and  C_23
    2  A    between atoms: C_3  and  C_42
    3  A    between atoms: C_4  and  N_40
    4  A    between atoms: C_5  and  C_43
    5  A    between atoms: N_7  and  C_35
    6  A    between atoms: C_18  and  C_27
    7  A    between atoms: C_18  and  C_31
    8  A    between atoms: C_19  and  C_31
    9  A    between atoms: C_23  and  C_36
                            x       y       z     vdW  Elec       q    Type
                         _______ _______ _______ _____ _____    ______ ____

>  <TORSDO>
F 9

$$$$
