=
 OpenBabel10232412053D

 42 45  0  0  1  0  0  0  0  0999 V2000
  188.5160  177.4430  145.4320 C   0  0  1  0  0  3  0  0  0  0  0  0
  191.9540  176.0830  146.3760 C   0  0  0  0  0  3  0  0  0  0  0  0
  189.7470  177.0840  146.2140 C   0  0  0  0  0  0  0  0  0  0  0  0
  190.8260  176.4130  145.6180 C   0  0  0  0  0  3  0  0  0  0  0  0
  192.0080  176.4200  147.7320 C   0  0  0  0  0  0  0  0  0  0  0  0
  193.1290  176.0950  148.4840 O   0  0  0  0  0  1  0  0  0  0  0  0
  189.8040  177.4110  147.5740 C   0  0  0  0  0  3  0  0  0  0  0  0
  190.9330  177.0820  148.3300 C   0  0  0  0  0  3  0  0  0  0  0  0
  185.5470  179.2890  146.5540 O   0  0  0  0  0  0  0  0  0  0  0  0
  187.6350  178.3450  146.1690 N   0  0  0  0  0  2  0  0  0  0  0  0
  186.2480  178.5080  145.8610 C   0  0  0  0  0  0  0  0  0  0  0  0
  185.6260  177.7940  144.7080 C   0  0  0  0  0  2  0  0  0  0  0  0
  184.2140  178.1590  144.6070 N   0  0  0  0  0  2  0  0  0  0  0  0
  183.9360  178.8830  143.3590 C   0  0  0  0  0  0  0  0  0  0  0  0
  184.3550  177.9930  142.2000 C   0  0  0  0  0  1  0  0  0  0  0  0
  184.7830  180.1510  143.2910 C   0  0  0  0  0  1  0  0  0  0  0  0
  180.1880  178.1530  142.4300 C   0  0  0  0  0  2  0  0  0  0  0  0
  180.1710  178.6240  143.8670 C   0  0  0  0  0  2  0  0  0  0  0  0
  181.5990  178.5940  144.3460 C   0  0  0  0  0  2  0  0  0  0  0  0
  181.6950  178.7900  141.6350 S   0  0  0  0  0  0  0  0  0  0  0  0
  182.4340  179.2340  143.2490 C   0  0  2  0  0  3  0  0  0  0  0  0
  188.3560  176.0820  142.8190 N   0  0  0  0  0  2  0  0  0  0  0  0
  188.7800  177.3040  142.8730 C   0  0  0  0  0  0  0  0  0  0  0  0
  188.8560  178.0010  144.1240 N   0  0  0  0  0  2  0  0  0  0  0  0
  189.1550  177.0480  140.4540 C   0  0  2  0  0  3  0  0  0  0  0  0
  189.0730  178.0360  141.6040 C   0  0  2  0  0  3  0  0  0  0  0  0
  190.4230  177.6170  141.0520 C   0  0  0  0  0  2  0  0  0  0  0  0
  189.1730  176.8650  137.9750 C   0  0  2  0  0  3  0  0  0  0  0  0
  187.9600  176.9480  137.1090 C   0  0  0  0  0  2  0  0  0  0  0  0
  187.4770  178.1160  139.1090 O   0  0  0  0  0  0  0  0  0  0  0  0
  188.8410  177.7600  139.1500 C   0  0  1  0  0  3  0  0  0  0  0  0
  186.8870  177.3630  138.0810 C   0  0  1  0  0  3  0  0  0  0  0  0
  185.8290  178.1930  137.3770 C   0  0  0  0  0  2  0  0  0  0  0  0
  184.5730  178.0230  138.0180 O   0  0  0  0  0  0  0  0  0  0  0  0
  182.6190  179.2350  138.2390 O   0  0  0  0  0  0  0  0  0  0  0  0
  183.8440  179.1070  138.5060 C   0  0  0  0  0  0  0  0  0  0  0  0
  184.4760  180.0550  139.2990 O   0  0  0  0  0  1  0  0  0  0  0  0
  190.2810  177.3700  137.2900 O   0  0  0  0  0  0  0  0  0  0  0  0
  192.9160  176.7040  137.8530 O   0  0  0  0  0  1  0  0  0  0  0  0
  191.6170  175.4990  135.7320 O   0  0  0  0  0  0  0  0  0  0  0  0
  191.4290  176.1200  137.2960 P   0  0  0  0  0  0  0  0  0  0  0  0
  190.9540  175.0160  138.2120 O   0  0  0  0  0  1  0  0  0  0  0  0
  1 24  1  6  0  0  0
  1 10  1  0  0  0  0
  1  3  1  0  0  0  0
  2  5  1  0  0  0  0
  3  7  2  0  0  0  0
  4  3  1  0  0  0  0
  4  2  2  0  0  0  0
  5  8  2  0  0  0  0
  5  6  1  0  0  0  0
  7  8  1  0  0  0  0
 11 10  1  0  0  0  0
 11  9  2  0  0  0  0
 12 11  1  0  0  0  0
 13 12  1  0  0  0  0
 14 13  1  0  0  0  0
 15 14  1  0  0  0  0
 16 14  1  0  0  0  0
 17 18  1  0  0  0  0
 18 19  1  0  0  0  0
 20 17  1  0  0  0  0
 20 21  1  0  0  0  0
 21 14  1  6  0  0  0
 21 19  1  0  0  0  0
 22 23  2  0  0  0  0
 23 24  1  0  0  0  0
 25 27  1  6  0  0  0
 25 26  1  0  0  0  0
 26 23  1  1  0  0  0
 27 26  1  0  0  0  0
 28 38  1  6  0  0  0
 28 31  1  0  0  0  0
 29 28  1  0  0  0  0
 29 32  1  0  0  0  0
 31 30  1  1  0  0  0
 31 25  1  0  0  0  0
 32 33  1  6  0  0  0
 32 30  1  0  0  0  0
 33 34  1  0  0  0  0
 34 36  1  0  0  0  0
 35 36  2  0  0  0  0
 36 37  1  0  0  0  0
 38 41  1  0  0  0  0
 40 41  2  0  0  0  0
 41 39  1  0  0  0  0
 41 42  1  0  0  0  0
M  END
>  <MODEL>
1

>  <REMARK>
 VINA RESULT:      -7.4      0.000      0.000
  Name = 
  14 active torsions:
  status: ('A' for Active; 'I' for Inactive)
    1  A    between atoms: C_1  and  N_12
    2  A    between atoms: C_1  and  C_13
    3  A    between atoms: C_1  and  N_39
    4  A    between atoms: C_4  and  N_28
    5  A    between atoms: C_4  and  C_37
    6  A    between atoms: C_5  and  C_17
    7  A    between atoms: C_6  and  O_27
    8  A    between atoms: C_11  and  C_25
    9  A    between atoms: C_11  and  N_28
   10  A    between atoms: O_19  and  C_20
   11  A    between atoms: O_19  and  C_31
   12  A    between atoms: C_20  and  C_23
   13  A    between atoms: C_24  and  C_32
   14  A    between atoms: O_27  and  P_33
                            x       y       z     vdW  Elec       q    Type
                         _______ _______ _______ _____ _____    ______ ____

>  <TORSDO>
F 14

$$$$
=
 OpenBabel10232412053D

 42 45  0  0  1  0  0  0  0  0999 V2000
  186.4450  177.8440  144.1970 C   0  0  1  0  0  3  0  0  0  0  0  0
  187.1700  178.3050  147.9150 C   0  0  0  0  0  3  0  0  0  0  0  0
  187.1550  177.9110  145.5180 C   0  0  0  0  0  0  0  0  0  0  0  0
  186.4770  178.2400  146.7020 C   0  0  0  0  0  3  0  0  0  0  0  0
  188.5420  178.0440  147.9500 C   0  0  0  0  0  0  0  0  0  0  0  0
  189.2300  178.1060  149.1550 O   0  0  0  0  0  1  0  0  0  0  0  0
  188.5310  177.6590  145.5600 C   0  0  0  0  0  3  0  0  0  0  0  0
  189.2230  177.7230  146.7740 C   0  0  0  0  0  3  0  0  0  0  0  0
  183.2420  179.3130  143.1650 O   0  0  0  0  0  0  0  0  0  0  0  0
  185.2020  178.6120  144.1970 N   0  0  0  0  0  2  0  0  0  0  0  0
  184.3040  178.6440  143.0840 C   0  0  0  0  0  0  0  0  0  0  0  0
  184.6230  177.9290  141.8150 C   0  0  0  0  0  2  0  0  0  0  0  0
  184.6310  178.8780  140.7030 N   0  0  0  0  0  2  0  0  0  0  0  0
  183.6890  178.4780  139.6500 C   0  0  0  0  0  0  0  0  0  0  0  0
  184.4960  177.9020  138.4970 C   0  0  0  0  0  1  0  0  0  0  0  0
  182.9470  179.7020  139.1190 C   0  0  0  0  0  1  0  0  0  0  0  0
  180.1980  176.6780  139.8030 C   0  0  0  0  0  2  0  0  0  0  0  0
  181.2210  175.5790  139.6200 C   0  0  0  0  0  2  0  0  0  0  0  0
  182.5110  176.2530  139.2320 C   0  0  0  0  0  2  0  0  0  0  0  0
  181.0290  178.1170  140.5450 S   0  0  0  0  0  0  0  0  0  0  0  0
  182.6850  177.4280  140.1780 C   0  0  2  0  0  3  0  0  0  0  0  0
  188.3290  176.1570  142.6780 N   0  0  0  0  0  2  0  0  0  0  0  0
  188.2310  177.4160  142.3900 C   0  0  0  0  0  0  0  0  0  0  0  0
  187.3140  178.2610  143.0990 N   0  0  0  0  0  2  0  0  0  0  0  0
  189.0500  176.9230  140.1220 C   0  0  2  0  0  3  0  0  0  0  0  0
  188.9890  177.9640  141.2270 C   0  0  2  0  0  3  0  0  0  0  0  0
  190.2600  177.1660  140.9990 C   0  0  0  0  0  2  0  0  0  0  0  0
  190.0110  176.7130  137.8400 C   0  0  2  0  0  3  0  0  0  0  0  0
  189.2170  176.7600  136.5770 C   0  0  0  0  0  2  0  0  0  0  0  0
  187.9910  177.9400  138.2220 O   0  0  0  0  0  0  0  0  0  0  0  0
  189.2440  177.6140  138.7840 C   0  0  1  0  0  3  0  0  0  0  0  0
  187.8480  177.1620  137.0610 C   0  0  1  0  0  3  0  0  0  0  0  0
  187.1240  177.9610  135.9930 C   0  0  0  0  0  2  0  0  0  0  0  0
  186.5980  177.0860  135.0060 O   0  0  0  0  0  0  0  0  0  0  0  0
  184.2910  176.9640  135.0360 O   0  0  0  0  0  0  0  0  0  0  0  0
  185.4030  176.3940  135.1990 C   0  0  0  0  0  0  0  0  0  0  0  0
  185.4400  175.0570  135.5740 O   0  0  0  0  0  1  0  0  0  0  0  0
  191.2880  177.2350  137.6180 O   0  0  0  0  0  0  0  0  0  0  0  0
  191.5150  174.4960  137.9980 O   0  0  0  0  0  1  0  0  0  0  0  0
  193.7180  176.1220  138.3730 O   0  0  0  0  0  1  0  0  0  0  0  0
  192.3100  175.8900  137.4620 P   0  0  0  0  0  0  0  0  0  0  0  0
  192.6850  175.7200  136.0080 O   0  0  0  0  0  0  0  0  0  0  0  0
  1 24  1  6  0  0  0
  1 10  1  0  0  0  0
  1  3  1  0  0  0  0
  2  5  1  0  0  0  0
  3  7  2  0  0  0  0
  3  4  1  0  0  0  0
  4  2  2  0  0  0  0
  5  6  1  0  0  0  0
  7  8  1  0  0  0  0
  8  5  2  0  0  0  0
 11  9  2  0  0  0  0
 11 10  1  0  0  0  0
 12 11  1  0  0  0  0
 13 12  1  0  0  0  0
 14 13  1  0  0  0  0
 15 14  1  0  0  0  0
 16 14  1  0  0  0  0
 17 20  1  0  0  0  0
 18 17  1  0  0  0  0
 19 18  1  0  0  0  0
 19 21  1  0  0  0  0
 21 14  1  6  0  0  0
 21 20  1  0  0  0  0
 23 22  2  0  0  0  0
 23 24  1  0  0  0  0
 25 27  1  1  0  0  0
 25 26  1  0  0  0  0
 26 23  1  1  0  0  0
 27 26  1  0  0  0  0
 28 38  1  6  0  0  0
 28 31  1  0  0  0  0
 29 32  1  0  0  0  0
 29 28  1  0  0  0  0
 31 30  1  6  0  0  0
 31 25  1  0  0  0  0
 32 33  1  6  0  0  0
 32 30  1  0  0  0  0
 34 36  1  0  0  0  0
 34 33  1  0  0  0  0
 35 36  2  0  0  0  0
 36 37  1  0  0  0  0
 41 38  1  0  0  0  0
 41 39  1  0  0  0  0
 41 40  1  0  0  0  0
 42 41  2  0  0  0  0
M  END
>  <MODEL>
2

>  <REMARK>
 VINA RESULT:      -7.1      2.138      3.260
  Name = 
  14 active torsions:
  status: ('A' for Active; 'I' for Inactive)
    1  A    between atoms: C_1  and  N_12
    2  A    between atoms: C_1  and  C_13
    3  A    between atoms: C_1  and  N_39
    4  A    between atoms: C_4  and  N_28
    5  A    between atoms: C_4  and  C_37
    6  A    between atoms: C_5  and  C_17
    7  A    between atoms: C_6  and  O_27
    8  A    between atoms: C_11  and  C_25
    9  A    between atoms: C_11  and  N_28
   10  A    between atoms: O_19  and  C_20
   11  A    between atoms: O_19  and  C_31
   12  A    between atoms: C_20  and  C_23
   13  A    between atoms: C_24  and  C_32
   14  A    between atoms: O_27  and  P_33
                            x       y       z     vdW  Elec       q    Type
                         _______ _______ _______ _____ _____    ______ ____

>  <TORSDO>
F 14

$$$$
=
 OpenBabel10232412053D

 42 45  0  0  1  0  0  0  0  0999 V2000
  190.1630  177.5470  138.3130 C   0  0  1  0  0  3  0  0  0  0  0  0
  190.9910  175.5600  135.1620 C   0  0  0  0  0  3  0  0  0  0  0  0
  190.6460  176.4670  137.3900 C   0  0  0  0  0  0  0  0  0  0  0  0
  190.5420  176.5900  135.9950 C   0  0  0  0  0  3  0  0  0  0  0  0
  191.5430  174.4030  135.7180 C   0  0  0  0  0  0  0  0  0  0  0  0
  191.9920  173.3820  134.8910 O   0  0  0  0  0  1  0  0  0  0  0  0
  191.1920  175.3010  137.9390 C   0  0  0  0  0  3  0  0  0  0  0  0
  191.6430  174.2730  137.1050 C   0  0  0  0  0  3  0  0  0  0  0  0
  187.1590  179.0950  136.8780 O   0  0  0  0  0  0  0  0  0  0  0  0
  189.2660  178.4870  137.6450 N   0  0  0  0  0  2  0  0  0  0  0  0
  187.8730  178.2290  137.4440 C   0  0  0  0  0  0  0  0  0  0  0  0
  187.2610  176.9350  137.8620 C   0  0  0  0  0  2  0  0  0  0  0  0
  186.1960  176.5690  136.9290 N   0  0  0  0  0  2  0  0  0  0  0  0
  186.4670  175.2760  136.2870 C   0  0  0  0  0  0  0  0  0  0  0  0
  187.6090  174.6120  137.0400 C   0  0  0  0  0  1  0  0  0  0  0  0
  186.9330  175.4930  134.8500 C   0  0  0  0  0  1  0  0  0  0  0  0
  184.5200  171.9000  135.7800 C   0  0  0  0  0  2  0  0  0  0  0  0
  184.2030  172.3500  137.1880 C   0  0  0  0  0  2  0  0  0  0  0  0
  185.1820  173.4470  137.5190 C   0  0  0  0  0  2  0  0  0  0  0  0
  185.0050  173.3590  134.8070 S   0  0  0  0  0  0  0  0  0  0  0  0
  185.2120  174.3740  136.3160 C   0  0  2  0  0  3  0  0  0  0  0  0
  191.3220  177.3840  141.0210 N   0  0  0  0  0  2  0  0  0  0  0  0
  190.1350  176.9130  140.8100 C   0  0  0  0  0  0  0  0  0  0  0  0
  189.5350  176.9900  139.5090 N   0  0  0  0  0  2  0  0  0  0  0  0
  188.8320  177.5640  142.7940 C   0  0  2  0  0  3  0  0  0  0  0  0
  189.3340  176.3980  141.9600 C   0  0  2  0  0  3  0  0  0  0  0  0
  190.0110  176.7450  143.2740 C   0  0  0  0  0  2  0  0  0  0  0  0
  187.5520  177.8070  144.9100 C   0  0  2  0  0  3  0  0  0  0  0  0
  186.1710  178.3640  145.0080 C   0  0  0  0  0  2  0  0  0  0  0  0
  186.4320  177.5120  142.8150 O   0  0  0  0  0  0  0  0  0  0  0  0
  187.5820  177.1480  143.5470 C   0  0  1  0  0  3  0  0  0  0  0  0
  185.7640  178.4960  143.5630 C   0  0  1  0  0  3  0  0  0  0  0  0
  184.2640  178.3210  143.4190 C   0  0  0  0  0  2  0  0  0  0  0  0
  183.7870  179.0990  142.3300 O   0  0  0  0  0  0  0  0  0  0  0  0
  183.6180  177.7440  140.4670 O   0  0  0  0  0  1  0  0  0  0  0  0
  184.0940  178.7780  141.0080 C   0  0  0  0  0  0  0  0  0  0  0  0
  184.9320  179.6110  140.2790 O   0  0  0  0  0  0  0  0  0  0  0  0
  187.7490  176.8470  145.9070 O   0  0  0  0  0  0  0  0  0  0  0  0
  188.2160  178.3710  148.1790 O   0  0  0  0  0  1  0  0  0  0  0  0
  189.9750  178.5000  146.0510 O   0  0  0  0  0  0  0  0  0  0  0  0
  188.9410  177.4890  146.9290 P   0  0  0  0  0  0  0  0  0  0  0  0
  189.7450  176.3550  147.5230 O   0  0  0  0  0  1  0  0  0  0  0  0
  1 10  1  6  0  0  0
  1 24  1  0  0  0  0
  2  5  2  0  0  0  0
  2  4  1  0  0  0  0
  3  7  1  0  0  0  0
  3  1  1  0  0  0  0
  4  3  2  0  0  0  0
  5  8  1  0  0  0  0
  6  5  1  0  0  0  0
  8  7  2  0  0  0  0
  9 11  2  0  0  0  0
 11 10  1  0  0  0  0
 11 12  1  0  0  0  0
 13 12  1  0  0  0  0
 14 13  1  0  0  0  0
 14 15  1  0  0  0  0
 16 14  1  0  0  0  0
 17 18  1  0  0  0  0
 18 19  1  0  0  0  0
 20 17  1  0  0  0  0
 20 21  1  0  0  0  0
 21 14  1  6  0  0  0
 21 19  1  0  0  0  0
 23 22  2  0  0  0  0
 24 23  1  0  0  0  0
 25 27  1  1  0  0  0
 25 31  1  0  0  0  0
 26 23  1  6  0  0  0
 26 25  1  0  0  0  0
 26 27  1  0  0  0  0
 28 29  1  0  0  0  0
 28 38  1  1  0  0  0
 30 32  1  0  0  0  0
 31 30  1  6  0  0  0
 31 28  1  0  0  0  0
 32 33  1  1  0  0  0
 32 29  1  0  0  0  0
 34 33  1  0  0  0  0
 35 36  1  0  0  0  0
 36 34  1  0  0  0  0
 37 36  2  0  0  0  0
 38 41  1  0  0  0  0
 40 41  2  0  0  0  0
 41 42  1  0  0  0  0
 41 39  1  0  0  0  0
M  END
>  <MODEL>
3

>  <REMARK>
 VINA RESULT:      -7.0      3.742      8.167
  Name = 
  14 active torsions:
  status: ('A' for Active; 'I' for Inactive)
    1  A    between atoms: C_1  and  N_12
    2  A    between atoms: C_1  and  C_13
    3  A    between atoms: C_1  and  N_39
    4  A    between atoms: C_4  and  N_28
    5  A    between atoms: C_4  and  C_37
    6  A    between atoms: C_5  and  C_17
    7  A    between atoms: C_6  and  O_27
    8  A    between atoms: C_11  and  C_25
    9  A    between atoms: C_11  and  N_28
   10  A    between atoms: O_19  and  C_20
   11  A    between atoms: O_19  and  C_31
   12  A    between atoms: C_20  and  C_23
   13  A    between atoms: C_24  and  C_32
   14  A    between atoms: O_27  and  P_33
                            x       y       z     vdW  Elec       q    Type
                         _______ _______ _______ _____ _____    ______ ____

>  <TORSDO>
F 14

$$$$
=
 OpenBabel10232412053D

 42 45  0  0  1  0  0  0  0  0999 V2000
  190.7020  175.1100  136.8350 C   0  0  1  0  0  3  0  0  0  0  0  0
  194.3370  175.9800  136.0680 C   0  0  0  0  0  3  0  0  0  0  0  0
  192.2030  175.1090  136.8360 C   0  0  0  0  0  0  0  0  0  0  0  0
  192.9390  176.0130  136.0530 C   0  0  0  0  0  3  0  0  0  0  0  0
  195.0050  175.0430  136.8610 C   0  0  0  0  0  0  0  0  0  0  0  0
  196.3930  175.0120  136.8780 O   0  0  0  0  0  1  0  0  0  0  0  0
  192.8790  174.1690  137.6210 C   0  0  0  0  0  3  0  0  0  0  0  0
  194.2770  174.1380  137.6370 C   0  0  0  0  0  3  0  0  0  0  0  0
  188.4470  172.2470  137.2770 O   0  0  0  0  0  0  0  0  0  0  0  0
  190.1470  173.8310  137.2680 N   0  0  0  0  0  2  0  0  0  0  0  0
  188.8490  173.3700  136.8800 C   0  0  0  0  0  0  0  0  0  0  0  0
  187.9510  174.2150  136.0410 C   0  0  0  0  0  2  0  0  0  0  0  0
  186.9470  174.8570  136.8880 N   0  0  0  0  0  2  0  0  0  0  0  0
  185.6070  174.7720  136.2910 C   0  0  0  0  0  0  0  0  0  0  0  0
  185.7670  174.3050  134.8530 C   0  0  0  0  0  1  0  0  0  0  0  0
  184.9630  176.1550  136.2520 C   0  0  0  0  0  1  0  0  0  0  0  0
  182.3750  172.6140  136.8770 C   0  0  0  0  0  2  0  0  0  0  0  0
  183.5390  171.6650  137.0470 C   0  0  0  0  0  2  0  0  0  0  0  0
  184.7550  172.3760  136.5110 C   0  0  0  0  0  2  0  0  0  0  0  0
  182.9640  174.3070  137.1880 S   0  0  0  0  0  0  0  0  0  0  0  0
  184.7150  173.7840  137.0780 C   0  0  2  0  0  3  0  0  0  0  0  0
  189.4090  177.5720  135.8470 N   0  0  0  0  0  2  0  0  0  0  0  0
  189.5550  177.4000  137.1220 C   0  0  0  0  0  0  0  0  0  0  0  0
  190.1660  176.2090  137.6370 N   0  0  0  0  0  2  0  0  0  0  0  0
  188.0350  177.6910  139.0350 C   0  0  2  0  0  3  0  0  0  0  0  0
  188.9700  178.3960  138.0690 C   0  0  2  0  0  3  0  0  0  0  0  0
  187.4680  178.4860  137.8800 C   0  0  0  0  0  2  0  0  0  0  0  0
  186.5520  178.3180  140.9280 C   0  0  2  0  0  3  0  0  0  0  0  0
  186.8370  178.0260  142.3630 C   0  0  0  0  0  2  0  0  0  0  0  0
  188.9150  178.0940  141.2330 O   0  0  0  0  0  0  0  0  0  0  0  0
  187.9240  178.5010  140.3150 C   0  0  1  0  0  3  0  0  0  0  0  0
  188.2500  177.5050  142.3200 C   0  0  1  0  0  3  0  0  0  0  0  0
  188.9770  177.8410  143.6100 C   0  0  0  0  0  2  0  0  0  0  0  0
  188.6450  176.8920  144.6140 O   0  0  0  0  0  0  0  0  0  0  0  0
  189.9750  177.1970  146.4790 O   0  0  0  0  0  0  0  0  0  0  0  0
  188.8220  177.1660  145.9700 C   0  0  0  0  0  0  0  0  0  0  0  0
  187.7130  177.4100  146.7690 O   0  0  0  0  0  1  0  0  0  0  0  0
  185.8210  179.5050  140.8210 O   0  0  0  0  0  0  0  0  0  0  0  0
  183.7640  180.2780  139.1260 O   0  0  0  0  0  0  0  0  0  0  0  0
  183.1950  178.8090  141.3960 O   0  0  0  0  0  1  0  0  0  0  0  0
  184.3230  179.0600  140.1600 P   0  0  0  0  0  0  0  0  0  0  0  0
  184.4900  177.7790  139.3750 O   0  0  0  0  0  1  0  0  0  0  0  0
  1  3  1  0  0  0  0
  1 10  1  1  0  0  0
  1 24  1  0  0  0  0
  2  5  1  0  0  0  0
  3  7  2  0  0  0  0
  4  2  2  0  0  0  0
  4  3  1  0  0  0  0
  5  6  1  0  0  0  0
  5  8  2  0  0  0  0
  7  8  1  0  0  0  0
 11 10  1  0  0  0  0
 11  9  2  0  0  0  0
 12 11  1  0  0  0  0
 12 13  1  0  0  0  0
 14 13  1  0  0  0  0
 15 14  1  0  0  0  0
 16 14  1  0  0  0  0
 17 18  1  0  0  0  0
 17 20  1  0  0  0  0
 19 18  1  0  0  0  0
 19 21  1  0  0  0  0
 21 14  1  6  0  0  0
 21 20  1  0  0  0  0
 22 23  2  0  0  0  0
 23 24  1  0  0  0  0
 25 27  1  6  0  0  0
 25 31  1  0  0  0  0
 26 23  1  6  0  0  0
 26 25  1  0  0  0  0
 27 26  1  0  0  0  0
 28 38  1  1  0  0  0
 28 29  1  0  0  0  0
 30 32  1  0  0  0  0
 31 28  1  0  0  0  0
 31 30  1  1  0  0  0
 32 29  1  0  0  0  0
 32 33  1  1  0  0  0
 33 34  1  0  0  0  0
 34 36  1  0  0  0  0
 36 35  2  0  0  0  0
 36 37  1  0  0  0  0
 39 41  2  0  0  0  0
 41 38  1  0  0  0  0
 41 40  1  0  0  0  0
 42 41  1  0  0  0  0
M  END
>  <MODEL>
4

>  <REMARK>
 VINA RESULT:      -7.0      4.201      8.539
  Name = 
  14 active torsions:
  status: ('A' for Active; 'I' for Inactive)
    1  A    between atoms: C_1  and  N_12
    2  A    between atoms: C_1  and  C_13
    3  A    between atoms: C_1  and  N_39
    4  A    between atoms: C_4  and  N_28
    5  A    between atoms: C_4  and  C_37
    6  A    between atoms: C_5  and  C_17
    7  A    between atoms: C_6  and  O_27
    8  A    between atoms: C_11  and  C_25
    9  A    between atoms: C_11  and  N_28
   10  A    between atoms: O_19  and  C_20
   11  A    between atoms: O_19  and  C_31
   12  A    between atoms: C_20  and  C_23
   13  A    between atoms: C_24  and  C_32
   14  A    between atoms: O_27  and  P_33
                            x       y       z     vdW  Elec       q    Type
                         _______ _______ _______ _____ _____    ______ ____

>  <TORSDO>
F 14

$$$$
=
 OpenBabel10232412053D

 42 45  0  0  1  0  0  0  0  0999 V2000
  189.4050  177.9350  138.7150 C   0  0  1  0  0  3  0  0  0  0  0  0
  190.1300  176.5530  135.2330 C   0  0  0  0  0  3  0  0  0  0  0  0
  189.8480  177.0370  137.5970 C   0  0  0  0  0  0  0  0  0  0  0  0
  189.7170  177.4170  136.2520 C   0  0  0  0  0  3  0  0  0  0  0  0
  190.6720  175.3050  135.5530 C   0  0  0  0  0  0  0  0  0  0  0  0
  191.0840  174.4470  134.5410 O   0  0  0  0  0  1  0  0  0  0  0  0
  190.3850  175.7820  137.9090 C   0  0  0  0  0  3  0  0  0  0  0  0
  190.7980  174.9190  136.8890 C   0  0  0  0  0  3  0  0  0  0  0  0
  185.9830  178.8450  137.7450 O   0  0  0  0  0  0  0  0  0  0  0  0
  188.2180  178.7110  138.3660 N   0  0  0  0  0  2  0  0  0  0  0  0
  186.9680  178.1110  138.0150 C   0  0  0  0  0  0  0  0  0  0  0  0
  186.8220  176.6290  137.9280 C   0  0  0  0  0  2  0  0  0  0  0  0
  185.5940  176.2970  137.2060 N   0  0  0  0  0  2  0  0  0  0  0  0
  185.6850  174.9730  136.5760 C   0  0  0  0  0  0  0  0  0  0  0  0
  186.9910  174.3330  137.0210 C   0  0  0  0  0  1  0  0  0  0  0  0
  185.7430  175.1200  135.0580 C   0  0  0  0  0  1  0  0  0  0  0  0
  182.7860  172.4060  135.9030 C   0  0  0  0  0  2  0  0  0  0  0  0
  183.5750  171.8410  137.0630 C   0  0  0  0  0  2  0  0  0  0  0  0
  184.8630  172.6200  137.1270 C   0  0  0  0  0  2  0  0  0  0  0  0
  183.0630  174.2030  135.8410 S   0  0  0  0  0  0  0  0  0  0  0  0
  184.4870  174.0850  136.9850 C   0  0  2  0  0  3  0  0  0  0  0  0
  188.5930  179.0200  141.3360 N   0  0  0  0  0  2  0  0  0  0  0  0
  188.8100  177.7490  141.2160 C   0  0  0  0  0  0  0  0  0  0  0  0
  189.1920  177.1860  139.9520 N   0  0  0  0  0  2  0  0  0  0  0  0
  189.2050  177.4000  143.6200 C   0  0  2  0  0  3  0  0  0  0  0  0
  188.5400  176.8450  142.3730 C   0  0  2  0  0  3  0  0  0  0  0  0
  189.8330  176.2370  142.8840 C   0  0  0  0  0  2  0  0  0  0  0  0
  189.2050  177.3330  146.1040 C   0  0  2  0  0  3  0  0  0  0  0  0
  188.1230  177.8880  146.9680 C   0  0  0  0  0  2  0  0  0  0  0  0
  187.1550  177.3800  144.8700 O   0  0  0  0  0  0  0  0  0  0  0  0
  188.4770  176.8910  144.8520 C   0  0  1  0  0  3  0  0  0  0  0  0
  187.0530  178.2470  145.9700 C   0  0  1  0  0  3  0  0  0  0  0  0
  185.6780  178.1180  146.6000 C   0  0  0  0  0  2  0  0  0  0  0  0
  184.8350  179.1660  146.1430 O   0  0  0  0  0  0  0  0  0  0  0  0
  184.7320  179.0540  143.8380 O   0  0  0  0  0  0  0  0  0  0  0  0
  184.1290  179.0710  144.9440 C   0  0  0  0  0  0  0  0  0  0  0  0
  182.7430  178.9910  144.9710 O   0  0  0  0  0  1  0  0  0  0  0  0
  189.7910  176.2280  146.7280 O   0  0  0  0  0  0  0  0  0  0  0  0
  192.3460  175.1460  146.7320 O   0  0  0  0  0  1  0  0  0  0  0  0
  191.7990  177.3830  148.2590 O   0  0  0  0  0  1  0  0  0  0  0  0
  191.4490  176.5780  146.8120 P   0  0  0  0  0  0  0  0  0  0  0  0
  191.8260  177.4660  145.6490 O   0  0  0  0  0  0  0  0  0  0  0  0
  1 10  1  6  0  0  0
  1 24  1  0  0  0  0
  2  5  2  0  0  0  0
  2  4  1  0  0  0  0
  3  7  1  0  0  0  0
  3  1  1  0  0  0  0
  4  3  2  0  0  0  0
  5  8  1  0  0  0  0
  6  5  1  0  0  0  0
  8  7  2  0  0  0  0
  9 11  2  0  0  0  0
 11 10  1  0  0  0  0
 12 11  1  0  0  0  0
 13 12  1  0  0  0  0
 14 15  1  0  0  0  0
 14 13  1  0  0  0  0
 16 14  1  0  0  0  0
 17 18  1  0  0  0  0
 18 19  1  0  0  0  0
 20 17  1  0  0  0  0
 20 21  1  0  0  0  0
 21 14  1  6  0  0  0
 21 19  1  0  0  0  0
 23 22  2  0  0  0  0
 24 23  1  0  0  0  0
 25 27  1  1  0  0  0
 25 31  1  0  0  0  0
 26 23  1  6  0  0  0
 26 27  1  0  0  0  0
 26 25  1  0  0  0  0
 28 38  1  1  0  0  0
 28 29  1  0  0  0  0
 30 32  1  0  0  0  0
 31 30  1  1  0  0  0
 31 28  1  0  0  0  0
 32 33  1  1  0  0  0
 32 29  1  0  0  0  0
 34 33  1  0  0  0  0
 35 36  2  0  0  0  0
 36 37  1  0  0  0  0
 36 34  1  0  0  0  0
 38 41  1  0  0  0  0
 39 41  1  0  0  0  0
 41 40  1  0  0  0  0
 42 41  2  0  0  0  0
M  END
>  <MODEL>
5

>  <REMARK>
 VINA RESULT:      -6.9      3.482      8.376
  Name = 
  14 active torsions:
  status: ('A' for Active; 'I' for Inactive)
    1  A    between atoms: C_1  and  N_12
    2  A    between atoms: C_1  and  C_13
    3  A    between atoms: C_1  and  N_39
    4  A    between atoms: C_4  and  N_28
    5  A    between atoms: C_4  and  C_37
    6  A    between atoms: C_5  and  C_17
    7  A    between atoms: C_6  and  O_27
    8  A    between atoms: C_11  and  C_25
    9  A    between atoms: C_11  and  N_28
   10  A    between atoms: O_19  and  C_20
   11  A    between atoms: O_19  and  C_31
   12  A    between atoms: C_20  and  C_23
   13  A    between atoms: C_24  and  C_32
   14  A    between atoms: O_27  and  P_33
                            x       y       z     vdW  Elec       q    Type
                         _______ _______ _______ _____ _____    ______ ____

>  <TORSDO>
F 14

$$$$
=
 OpenBabel10232412053D

 42 45  0  0  1  0  0  0  0  0999 V2000
  190.6480  175.1100  136.8550 C   0  0  1  0  0  3  0  0  0  0  0  0
  194.3320  174.4320  137.5810 C   0  0  0  0  0  3  0  0  0  0  0  0
  192.1460  175.1210  136.7740 C   0  0  0  0  0  0  0  0  0  0  0  0
  192.9370  174.3920  137.6760 C   0  0  0  0  0  3  0  0  0  0  0  0
  194.9420  175.2020  136.5870 C   0  0  0  0  0  0  0  0  0  0  0  0
  196.3270  175.2390  136.4910 O   0  0  0  0  0  1  0  0  0  0  0  0
  192.7660  175.8960  135.7860 C   0  0  0  0  0  3  0  0  0  0  0  0
  194.1600  175.9340  135.6910 C   0  0  0  0  0  3  0  0  0  0  0  0
  188.5110  172.1610  137.3240 O   0  0  0  0  0  0  0  0  0  0  0  0
  190.1280  173.8300  137.3290 N   0  0  0  0  0  2  0  0  0  0  0  0
  188.8840  173.2790  136.8860 C   0  0  0  0  0  0  0  0  0  0  0  0
  188.0040  174.0250  135.9410 C   0  0  0  0  0  2  0  0  0  0  0  0
  186.9060  174.6480  136.6780 N   0  0  0  0  0  2  0  0  0  0  0  0
  185.6240  173.9920  136.3870 C   0  0  0  0  0  0  0  0  0  0  0  0
  185.1970  173.2320  137.6320 C   0  0  0  0  0  1  0  0  0  0  0  0
  185.8030  172.9700  135.2680 C   0  0  0  0  0  1  0  0  0  0  0  0
  182.6270  176.4270  137.1160 C   0  0  0  0  0  2  0  0  0  0  0  0
  183.6600  177.2540  136.3860 C   0  0  0  0  0  2  0  0  0  0  0  0
  184.9350  176.4500  136.3870 C   0  0  0  0  0  2  0  0  0  0  0  0
  182.8970  174.6760  136.7040 S   0  0  0  0  0  0  0  0  0  0  0  0
  184.5480  175.0320  135.9990 C   0  0  2  0  0  3  0  0  0  0  0  0
  189.3420  177.5830  135.9130 N   0  0  0  0  0  2  0  0  0  0  0  0
  189.5290  177.4080  137.1820 C   0  0  0  0  0  0  0  0  0  0  0  0
  190.1470  176.2110  137.6760 N   0  0  0  0  0  2  0  0  0  0  0  0
  188.1070  177.7010  139.1700 C   0  0  2  0  0  3  0  0  0  0  0  0
  188.9830  178.4070  138.1490 C   0  0  2  0  0  3  0  0  0  0  0  0
  187.4710  178.4790  138.0390 C   0  0  0  0  0  2  0  0  0  0  0  0
  186.7140  178.3370  141.1270 C   0  0  2  0  0  3  0  0  0  0  0  0
  187.0730  178.0600  142.5500 C   0  0  0  0  0  2  0  0  0  0  0  0
  189.0920  178.1310  141.3180 O   0  0  0  0  0  0  0  0  0  0  0  0
  188.0540  178.5230  140.4460 C   0  0  1  0  0  3  0  0  0  0  0  0
  188.4850  177.5470  142.4420 C   0  0  1  0  0  3  0  0  0  0  0  0
  189.2720  177.9000  143.6910 C   0  0  0  0  0  2  0  0  0  0  0  0
  189.0870  176.8960  144.6800 O   0  0  0  0  0  0  0  0  0  0  0  0
  189.1730  176.7140  146.9810 O   0  0  0  0  0  1  0  0  0  0  0  0
  188.6210  177.2020  145.9580 C   0  0  0  0  0  0  0  0  0  0  0  0
  187.5370  178.0570  146.1050 O   0  0  0  0  0  0  0  0  0  0  0  0
  185.9720  179.5180  141.0460 O   0  0  0  0  0  0  0  0  0  0  0  0
  184.0840  180.1860  139.1250 O   0  0  0  0  0  0  0  0  0  0  0  0
  183.2740  179.0500  141.5110 O   0  0  0  0  0  1  0  0  0  0  0  0
  184.4940  179.0790  140.3370 P   0  0  0  0  0  0  0  0  0  0  0  0
  184.6270  177.7020  139.7280 O   0  0  0  0  0  1  0  0  0  0  0  0
  1 10  1  1  0  0  0
  1 24  1  0  0  0  0
  2  4  1  0  0  0  0
  3  1  1  0  0  0  0
  3  4  2  0  0  0  0
  5  2  2  0  0  0  0
  6  5  1  0  0  0  0
  7  3  1  0  0  0  0
  8  7  2  0  0  0  0
  8  5  1  0  0  0  0
 11  9  2  0  0  0  0
 11 10  1  0  0  0  0
 12 13  1  0  0  0  0
 12 11  1  0  0  0  0
 14 13  1  0  0  0  0
 14 15  1  0  0  0  0
 16 14  1  0  0  0  0
 18 19  1  0  0  0  0
 18 17  1  0  0  0  0
 20 17  1  0  0  0  0
 21 19  1  0  0  0  0
 21 14  1  1  0  0  0
 21 20  1  0  0  0  0
 22 23  2  0  0  0  0
 23 24  1  0  0  0  0
 25 27  1  6  0  0  0
 25 31  1  0  0  0  0
 26 23  1  6  0  0  0
 26 25  1  0  0  0  0
 27 26  1  0  0  0  0
 28 38  1  1  0  0  0
 28 29  1  0  0  0  0
 30 32  1  0  0  0  0
 31 28  1  0  0  0  0
 31 30  1  1  0  0  0
 32 29  1  0  0  0  0
 32 33  1  1  0  0  0
 33 34  1  0  0  0  0
 34 36  1  0  0  0  0
 36 37  2  0  0  0  0
 36 35  1  0  0  0  0
 39 41  2  0  0  0  0
 41 38  1  0  0  0  0
 41 40  1  0  0  0  0
 42 41  1  0  0  0  0
M  END
>  <MODEL>
6

>  <REMARK>
 VINA RESULT:      -6.9      4.152      8.487
  Name = 
  14 active torsions:
  status: ('A' for Active; 'I' for Inactive)
    1  A    between atoms: C_1  and  N_12
    2  A    between atoms: C_1  and  C_13
    3  A    between atoms: C_1  and  N_39
    4  A    between atoms: C_4  and  N_28
    5  A    between atoms: C_4  and  C_37
    6  A    between atoms: C_5  and  C_17
    7  A    between atoms: C_6  and  O_27
    8  A    between atoms: C_11  and  C_25
    9  A    between atoms: C_11  and  N_28
   10  A    between atoms: O_19  and  C_20
   11  A    between atoms: O_19  and  C_31
   12  A    between atoms: C_20  and  C_23
   13  A    between atoms: C_24  and  C_32
   14  A    between atoms: O_27  and  P_33
                            x       y       z     vdW  Elec       q    Type
                         _______ _______ _______ _____ _____    ______ ____

>  <TORSDO>
F 14

$$$$
=
 OpenBabel10232412053D

 42 45  0  0  1  0  0  0  0  0999 V2000
  188.5600  177.4830  145.3080 C   0  0  1  0  0  3  0  0  0  0  0  0
  190.9670  176.7440  148.1750 C   0  0  0  0  0  3  0  0  0  0  0  0
  189.7610  177.0290  146.0860 C   0  0  0  0  0  0  0  0  0  0  0  0
  189.8290  177.1670  147.4810 C   0  0  0  0  0  3  0  0  0  0  0  0
  192.0410  176.1830  147.4790 C   0  0  0  0  0  0  0  0  0  0  0  0
  193.1700  175.7600  148.1690 O   0  0  0  0  0  1  0  0  0  0  0  0
  190.8440  176.4730  145.3950 C   0  0  0  0  0  3  0  0  0  0  0  0
  191.9810  176.0490  146.0910 C   0  0  0  0  0  3  0  0  0  0  0  0
  185.7670  179.5110  146.5590 O   0  0  0  0  0  0  0  0  0  0  0  0
  187.7860  178.4930  146.0240 N   0  0  0  0  0  2  0  0  0  0  0  0
  186.3680  178.6290  145.8940 C   0  0  0  0  0  0  0  0  0  0  0  0
  185.5940  177.7670  144.9550 C   0  0  0  0  0  2  0  0  0  0  0  0
  184.1690  178.0770  145.0610 N   0  0  0  0  0  2  0  0  0  0  0  0
  183.6980  178.8370  143.8960 C   0  0  0  0  0  0  0  0  0  0  0  0
  184.0990  180.2910  144.0940 C   0  0  0  0  0  1  0  0  0  0  0  0
  182.1740  178.7910  143.8220 C   0  0  0  0  0  1  0  0  0  0  0  0
  184.2300  178.7150  140.0040 C   0  0  0  0  0  2  0  0  0  0  0  0
  185.6150  178.7850  140.6060 C   0  0  0  0  0  2  0  0  0  0  0  0
  185.4350  179.1620  142.0540 C   0  0  0  0  0  2  0  0  0  0  0  0
  183.0950  178.0320  141.2510 S   0  0  0  0  0  0  0  0  0  0  0  0
  184.3170  178.2850  142.5910 C   0  0  2  0  0  3  0  0  0  0  0  0
  187.9740  176.1840  142.7240 N   0  0  0  0  0  2  0  0  0  0  0  0
  188.6420  177.2920  142.7400 C   0  0  0  0  0  0  0  0  0  0  0  0
  188.9310  177.9590  143.9770 N   0  0  0  0  0  2  0  0  0  0  0  0
  189.3860  176.8880  140.4280 C   0  0  2  0  0  3  0  0  0  0  0  0
  189.0070  177.9480  141.4480 C   0  0  2  0  0  3  0  0  0  0  0  0
  190.4660  177.6920  141.1180 C   0  0  0  0  0  2  0  0  0  0  0  0
  189.8780  176.5620  138.0140 C   0  0  2  0  0  3  0  0  0  0  0  0
  188.8470  176.3160  136.9640 C   0  0  0  0  0  2  0  0  0  0  0  0
  187.7820  177.4660  138.7370 O   0  0  0  0  0  0  0  0  0  0  0  0
  189.1620  177.4310  139.0280 C   0  0  1  0  0  3  0  0  0  0  0  0
  187.5560  176.5380  137.7080 C   0  0  1  0  0  3  0  0  0  0  0  0
  186.4870  177.0640  136.7670 C   0  0  0  0  0  2  0  0  0  0  0  0
  185.4440  176.1080  136.6350 O   0  0  0  0  0  0  0  0  0  0  0  0
  183.7390  175.6140  138.1140 O   0  0  0  0  0  1  0  0  0  0  0  0
  184.1750  176.3280  137.1700 C   0  0  0  0  0  0  0  0  0  0  0  0
  183.3840  177.3470  136.6590 O   0  0  0  0  0  0  0  0  0  0  0  0
  190.9570  177.2610  137.4670 O   0  0  0  0  0  0  0  0  0  0  0  0
  192.7810  175.9300  135.8540 O   0  0  0  0  0  0  0  0  0  0  0  0
  191.7590  174.6780  138.0950 O   0  0  0  0  0  1  0  0  0  0  0  0
  192.2480  176.1610  137.4430 P   0  0  0  0  0  0  0  0  0  0  0  0
  193.3840  176.7150  138.2730 O   0  0  0  0  0  1  0  0  0  0  0  0
  1 24  1  6  0  0  0
  1 10  1  0  0  0  0
  1  3  1  0  0  0  0
  3  4  2  0  0  0  0
  4  2  1  0  0  0  0
  5  6  1  0  0  0  0
  5  2  2  0  0  0  0
  7  3  1  0  0  0  0
  7  8  2  0  0  0  0
  8  5  1  0  0  0  0
 11 10  1  0  0  0  0
 11  9  2  0  0  0  0
 12 13  1  0  0  0  0
 12 11  1  0  0  0  0
 14 15  1  0  0  0  0
 14 13  1  0  0  0  0
 16 14  1  0  0  0  0
 17 18  1  0  0  0  0
 17 20  1  0  0  0  0
 18 19  1  0  0  0  0
 19 21  1  0  0  0  0
 20 21  1  0  0  0  0
 21 14  1  1  0  0  0
 22 23  2  0  0  0  0
 23 24  1  0  0  0  0
 25 27  1  6  0  0  0
 25 26  1  0  0  0  0
 26 23  1  1  0  0  0
 27 26  1  0  0  0  0
 28 38  1  6  0  0  0
 28 31  1  0  0  0  0
 29 32  1  0  0  0  0
 29 28  1  0  0  0  0
 31 30  1  6  0  0  0
 31 25  1  0  0  0  0
 32 33  1  6  0  0  0
 32 30  1  0  0  0  0
 34 33  1  0  0  0  0
 34 36  1  0  0  0  0
 36 35  1  0  0  0  0
 37 36  2  0  0  0  0
 39 41  2  0  0  0  0
 41 38  1  0  0  0  0
 41 40  1  0  0  0  0
 41 42  1  0  0  0  0
M  END
>  <MODEL>
7

>  <REMARK>
 VINA RESULT:      -6.9      1.148      2.217
  Name = 
  14 active torsions:
  status: ('A' for Active; 'I' for Inactive)
    1  A    between atoms: C_1  and  N_12
    2  A    between atoms: C_1  and  C_13
    3  A    between atoms: C_1  and  N_39
    4  A    between atoms: C_4  and  N_28
    5  A    between atoms: C_4  and  C_37
    6  A    between atoms: C_5  and  C_17
    7  A    between atoms: C_6  and  O_27
    8  A    between atoms: C_11  and  C_25
    9  A    between atoms: C_11  and  N_28
   10  A    between atoms: O_19  and  C_20
   11  A    between atoms: O_19  and  C_31
   12  A    between atoms: C_20  and  C_23
   13  A    between atoms: C_24  and  C_32
   14  A    between atoms: O_27  and  P_33
                            x       y       z     vdW  Elec       q    Type
                         _______ _______ _______ _____ _____    ______ ____

>  <TORSDO>
F 14

$$$$
=
 OpenBabel10232412053D

 42 45  0  0  1  0  0  0  0  0999 V2000
  190.1480  176.8890  138.7630 C   0  0  1  0  0  3  0  0  0  0  0  0
  189.7850  177.3980  142.5270 C   0  0  0  0  0  3  0  0  0  0  0  0
  190.4640  177.1330  140.2100 C   0  0  0  0  0  0  0  0  0  0  0  0
  189.4590  177.1580  141.1880 C   0  0  0  0  0  3  0  0  0  0  0  0
  191.1160  177.6160  142.8930 C   0  0  0  0  0  0  0  0  0  0  0  0
  191.4410  177.8510  144.2220 O   0  0  0  0  0  1  0  0  0  0  0  0
  191.7940  177.3600  140.5830 C   0  0  0  0  0  3  0  0  0  0  0  0
  192.1200  177.5980  141.9220 C   0  0  0  0  0  3  0  0  0  0  0  0
  188.0160  179.2990  136.9930 O   0  0  0  0  0  0  0  0  0  0  0  0
  189.6750  178.0950  138.0880 N   0  0  0  0  0  2  0  0  0  0  0  0
  188.3580  178.2210  137.5430 C   0  0  0  0  0  0  0  0  0  0  0  0
  187.3970  177.0820  137.5810 C   0  0  0  0  0  2  0  0  0  0  0  0
  186.8700  176.8360  136.2400 N   0  0  0  0  0  2  0  0  0  0  0  0
  185.4410  176.4980  136.2780 C   0  0  0  0  0  0  0  0  0  0  0  0
  184.7790  177.1350  135.0660 C   0  0  0  0  0  1  0  0  0  0  0  0
  184.7940  177.1020  137.5210 C   0  0  0  0  0  1  0  0  0  0  0  0
  186.3500  172.7900  137.2090 C   0  0  0  0  0  2  0  0  0  0  0  0
  184.8910  172.9580  137.5690 C   0  0  0  0  0  2  0  0  0  0  0  0
  184.6080  174.4380  137.5340 C   0  0  0  0  0  2  0  0  0  0  0  0
  186.7760  174.0250  135.9440 S   0  0  0  0  0  0  0  0  0  0  0  0
  185.2370  174.9660  136.2550 C   0  0  2  0  0  3  0  0  0  0  0  0
  190.3680  174.1550  137.6770 N   0  0  0  0  0  2  0  0  0  0  0  0
  191.3660  174.9690  137.5520 C   0  0  0  0  0  0  0  0  0  0  0  0
  191.2870  176.3100  138.0540 N   0  0  0  0  0  2  0  0  0  0  0  0
  193.6500  174.0650  137.7120 C   0  0  2  0  0  3  0  0  0  0  0  0
  192.5640  174.5460  136.7660 C   0  0  2  0  0  3  0  0  0  0  0  0
  193.7490  175.4390  137.0860 C   0  0  0  0  0  2  0  0  0  0  0  0
  196.0160  173.4900  137.2140 C   0  0  2  0  0  3  0  0  0  0  0  0
  196.6740  172.2030  137.5870 C   0  0  0  0  0  2  0  0  0  0  0  0
  194.3500  171.7850  137.4300 O   0  0  0  0  0  0  0  0  0  0  0  0
  194.5710  173.1040  136.9810 C   0  0  1  0  0  3  0  0  0  0  0  0
  195.5200  171.3750  138.0900 C   0  0  1  0  0  3  0  0  0  0  0  0
  195.7710  169.9020  137.8240 C   0  0  0  0  0  2  0  0  0  0  0  0
  195.8420  169.1920  139.0520 O   0  0  0  0  0  0  0  0  0  0  0  0
  193.8080  168.0990  139.1360 O   0  0  0  0  0  0  0  0  0  0  0  0
  194.6950  168.7740  139.7260 C   0  0  0  0  0  0  0  0  0  0  0  0
  194.5300  169.1020  141.0650 O   0  0  0  0  0  1  0  0  0  0  0  0
  196.5740  173.9830  136.0310 O   0  0  0  0  0  0  0  0  0  0  0  0
  197.6900  175.3110  138.1980 O   0  0  0  0  0  1  0  0  0  0  0  0
  197.2220  176.6770  135.8410 O   0  0  0  0  0  0  0  0  0  0  0  0
  197.6690  175.1870  136.5100 P   0  0  0  0  0  0  0  0  0  0  0  0
  199.0510  174.8210  136.0210 O   0  0  0  0  0  1  0  0  0  0  0  0
  1 24  1  6  0  0  0
  1  3  1  0  0  0  0
  2  5  1  0  0  0  0
  3  7  2  0  0  0  0
  3  4  1  0  0  0  0
  4  2  2  0  0  0  0
  5  6  1  0  0  0  0
  7  8  1  0  0  0  0
  8  5  2  0  0  0  0
  9 11  2  0  0  0  0
 10  1  1  0  0  0  0
 11 12  1  0  0  0  0
 11 10  1  0  0  0  0
 13 14  1  0  0  0  0
 13 12  1  0  0  0  0
 14 16  1  0  0  0  0
 15 14  1  0  0  0  0
 17 18  1  0  0  0  0
 19 18  1  0  0  0  0
 20 21  1  0  0  0  0
 20 17  1  0  0  0  0
 21 14  1  1  0  0  0
 21 19  1  0  0  0  0
 23 22  2  0  0  0  0
 23 24  1  0  0  0  0
 25 27  1  6  0  0  0
 26 27  1  0  0  0  0
 26 23  1  1  0  0  0
 26 25  1  0  0  0  0
 28 38  1  6  0  0  0
 28 29  1  0  0  0  0
 29 32  1  0  0  0  0
 30 32  1  0  0  0  0
 31 28  1  0  0  0  0
 31 30  1  1  0  0  0
 31 25  1  0  0  0  0
 32 33  1  6  0  0  0
 33 34  1  0  0  0  0
 34 36  1  0  0  0  0
 35 36  2  0  0  0  0
 36 37  1  0  0  0  0
 38 41  1  0  0  0  0
 40 41  2  0  0  0  0
 41 39  1  0  0  0  0
 42 41  1  0  0  0  0
M  END
>  <MODEL>
8

>  <REMARK>
 VINA RESULT:      -6.8      5.393      8.680
  Name = 
  14 active torsions:
  status: ('A' for Active; 'I' for Inactive)
    1  A    between atoms: C_1  and  N_12
    2  A    between atoms: C_1  and  C_13
    3  A    between atoms: C_1  and  N_39
    4  A    between atoms: C_4  and  N_28
    5  A    between atoms: C_4  and  C_37
    6  A    between atoms: C_5  and  C_17
    7  A    between atoms: C_6  and  O_27
    8  A    between atoms: C_11  and  C_25
    9  A    between atoms: C_11  and  N_28
   10  A    between atoms: O_19  and  C_20
   11  A    between atoms: O_19  and  C_31
   12  A    between atoms: C_20  and  C_23
   13  A    between atoms: C_24  and  C_32
   14  A    between atoms: O_27  and  P_33
                            x       y       z     vdW  Elec       q    Type
                         _______ _______ _______ _____ _____    ______ ____

>  <TORSDO>
F 14

$$$$
=
 OpenBabel10232412053D

 42 45  0  0  1  0  0  0  0  0999 V2000
  182.2960  177.8090  139.5970 C   0  0  1  0  0  3  0  0  0  0  0  0
  181.5700  181.1420  137.8870 C   0  0  0  0  0  3  0  0  0  0  0  0
  181.7850  178.8400  138.6330 C   0  0  0  0  0  0  0  0  0  0  0  0
  182.0700  180.2050  138.7970 C   0  0  0  0  0  3  0  0  0  0  0  0
  180.7820  180.7220  136.8130 C   0  0  0  0  0  0  0  0  0  0  0  0
  180.2880  181.6520  135.9080 O   0  0  0  0  0  1  0  0  0  0  0  0
  180.9880  178.4280  137.5590 C   0  0  0  0  0  3  0  0  0  0  0  0
  180.4900  179.3650  136.6490 C   0  0  0  0  0  3  0  0  0  0  0  0
  184.1260  175.2980  137.6420 O   0  0  0  0  0  0  0  0  0  0  0  0
  182.6640  176.5630  138.9310 N   0  0  0  0  0  2  0  0  0  0  0  0
  183.8660  176.4090  138.1700 C   0  0  0  0  0  0  0  0  0  0  0  0
  184.7990  177.5540  137.9630 C   0  0  0  0  0  2  0  0  0  0  0  0
  185.9200  177.1310  137.1260 N   0  0  0  0  0  2  0  0  0  0  0  0
  187.1740  177.7680  137.5480 C   0  0  0  0  0  0  0  0  0  0  0  0
  186.9320  178.4260  138.8970 C   0  0  0  0  0  1  0  0  0  0  0  0
  187.5570  178.8710  136.5650 C   0  0  0  0  0  1  0  0  0  0  0  0
  190.8960  176.5430  137.2380 C   0  0  0  0  0  2  0  0  0  0  0  0
  190.4590  176.1820  138.6400 C   0  0  0  0  0  2  0  0  0  0  0  0
  189.1720  176.9230  138.8930 C   0  0  0  0  0  2  0  0  0  0  0  0
  189.4130  176.6890  136.1940 S   0  0  0  0  0  0  0  0  0  0  0  0
  188.3120  176.7270  137.6560 C   0  0  2  0  0  3  0  0  0  0  0  0
  182.2070  178.7390  142.3960 N   0  0  0  0  0  2  0  0  0  0  0  0
  183.3270  178.7820  141.7490 C   0  0  0  0  0  0  0  0  0  0  0  0
  183.4090  178.3230  140.3920 N   0  0  0  0  0  2  0  0  0  0  0  0
  185.0910  178.0360  143.2950 C   0  0  2  0  0  3  0  0  0  0  0  0
  184.5720  179.1960  142.4630 C   0  0  2  0  0  3  0  0  0  0  0  0
  184.3530  179.1750  143.9640 C   0  0  0  0  0  2  0  0  0  0  0  0
  186.9610  177.7180  144.9000 C   0  0  2  0  0  3  0  0  0  0  0  0
  188.1410  176.8360  144.6640 C   0  0  0  0  0  2  0  0  0  0  0  0
  187.2980  177.4640  142.5440 O   0  0  0  0  0  0  0  0  0  0  0  0
  186.5850  178.1980  143.5140 C   0  0  1  0  0  3  0  0  0  0  0  0
  187.9720  176.4350  143.2220 C   0  0  1  0  0  3  0  0  0  0  0  0
  189.3250  176.1950  142.5770 C   0  0  0  0  0  2  0  0  0  0  0  0
  189.9960  177.4320  142.3830 O   0  0  0  0  0  0  0  0  0  0  0  0
  191.8980  177.2610  143.6840 O   0  0  0  0  0  0  0  0  0  0  0  0
  190.8960  177.9350  143.3220 C   0  0  0  0  0  0  0  0  0  0  0  0
  190.6870  179.1970  143.8630 O   0  0  0  0  0  1  0  0  0  0  0  0
  187.3320  178.8060  145.6950 O   0  0  0  0  0  0  0  0  0  0  0  0
  185.9920  180.1170  147.7410 O   0  0  0  0  0  1  0  0  0  0  0  0
  187.4890  177.8630  148.3020 O   0  0  0  0  0  1  0  0  0  0  0  0
  186.4930  178.6100  147.1560 P   0  0  0  0  0  0  0  0  0  0  0  0
  185.2780  177.7420  146.9160 O   0  0  0  0  0  0  0  0  0  0  0  0
  1 10  1  6  0  0  0
  1 24  1  0  0  0  0
  2  4  1  0  0  0  0
  3  4  2  0  0  0  0
  3  1  1  0  0  0  0
  5  2  2  0  0  0  0
  6  5  1  0  0  0  0
  7  3  1  0  0  0  0
  8  5  1  0  0  0  0
  8  7  2  0  0  0  0
  9 11  2  0  0  0  0
 11 10  1  0  0  0  0
 12 11  1  0  0  0  0
 13 14  1  0  0  0  0
 13 12  1  0  0  0  0
 14 15  1  0  0  0  0
 16 14  1  0  0  0  0
 17 18  1  0  0  0  0
 18 19  1  0  0  0  0
 20 17  1  0  0  0  0
 20 21  1  0  0  0  0
 21 14  1  6  0  0  0
 21 19  1  0  0  0  0
 23 22  2  0  0  0  0
 24 23  1  0  0  0  0
 25 31  1  0  0  0  0
 25 27  1  1  0  0  0
 26 23  1  6  0  0  0
 26 25  1  0  0  0  0
 26 27  1  0  0  0  0
 28 38  1  1  0  0  0
 29 28  1  0  0  0  0
 30 32  1  0  0  0  0
 31 30  1  6  0  0  0
 31 28  1  0  0  0  0
 32 33  1  6  0  0  0
 32 29  1  0  0  0  0
 34 33  1  0  0  0  0
 34 36  1  0  0  0  0
 36 35  2  0  0  0  0
 36 37  1  0  0  0  0
 38 41  1  0  0  0  0
 41 39  1  0  0  0  0
 41 40  1  0  0  0  0
 42 41  2  0  0  0  0
M  END
>  <MODEL>
9

>  <REMARK>
 VINA RESULT:      -6.7      4.151      9.758
  Name = 
  14 active torsions:
  status: ('A' for Active; 'I' for Inactive)
    1  A    between atoms: C_1  and  N_12
    2  A    between atoms: C_1  and  C_13
    3  A    between atoms: C_1  and  N_39
    4  A    between atoms: C_4  and  N_28
    5  A    between atoms: C_4  and  C_37
    6  A    between atoms: C_5  and  C_17
    7  A    between atoms: C_6  and  O_27
    8  A    between atoms: C_11  and  C_25
    9  A    between atoms: C_11  and  N_28
   10  A    between atoms: O_19  and  C_20
   11  A    between atoms: O_19  and  C_31
   12  A    between atoms: C_20  and  C_23
   13  A    between atoms: C_24  and  C_32
   14  A    between atoms: O_27  and  P_33
                            x       y       z     vdW  Elec       q    Type
                         _______ _______ _______ _____ _____    ______ ____

>  <TORSDO>
F 14

$$$$
