=
 OpenBabel10232412163D

 48 50  0  0  1  0  0  0  0  0999 V2000
  190.5500  175.9610  137.7190 C   0  0  0  0  0  0  0  0  0  0  0  0
  193.5710  176.0840  138.3220 C   0  0  0  0  0  3  0  0  0  0  0  0
  191.3360  175.6690  136.4750 C   0  0  0  0  0  2  0  0  0  0  0  0
  191.1280  176.5810  138.7770 C   0  0  0  0  0  0  0  0  0  0  0  0
  193.3960  174.8540  137.5250 C   0  0  0  0  0  3  0  0  0  0  0  0
  192.3660  174.6100  136.7150 C   0  0  0  0  0  0  0  0  0  0  0  0
  192.5920  176.8300  138.8500 C   0  0  0  0  0  3  0  0  0  0  0  0
  189.5490  178.0500  139.7640 O   0  0  0  0  0  0  0  0  0  0  0  0
  190.4240  176.4330  141.2090 N   0  0  0  0  0  2  0  0  0  0  0  0
  190.3370  177.0800  139.9310 C   0  0  0  0  0  0  0  0  0  0  0  0
  188.4520  177.5650  144.7920 C   0  0  0  0  0  0  0  0  0  0  0  0
  189.6900  178.1230  144.4570 C   0  0  0  0  0  3  0  0  0  0  0  0
  189.7450  176.8010  142.4190 C   0  0  0  0  0  0  0  0  0  0  0  0
  187.8630  176.6210  143.9480 C   0  0  0  0  0  3  0  0  0  0  0  0
  188.5050  176.2420  142.7660 C   0  0  0  0  0  3  0  0  0  0  0  0
  190.3330  177.7460  143.2740 C   0  0  0  0  0  0  0  0  0  0  0  0
  191.5590  178.3170  142.9530 O   0  0  0  0  0  1  0  0  0  0  0  0
  187.7760  177.9570  146.0600 C   0  0  0  0  0  2  0  0  0  0  0  0
  188.2240  177.0570  147.1950 C   0  0  2  0  0  3  0  0  0  0  0  0
  188.5620  177.8850  148.3620 N   0  0  0  0  0  2  0  0  0  0  0  0
  189.6200  177.3260  147.5090 C   0  0  0  0  0  2  0  0  0  0  0  0
  192.3150  173.3610  136.0800 O   0  0  0  0  0  0  0  0  0  0  0  0
  193.3920  172.6960  135.4750 C   0  0  0  0  0  0  0  0  0  0  0  0
  193.2840  172.1480  134.3460 O   0  0  0  0  0  0  0  0  0  0  0  0
  194.7060  172.6710  136.1700 C   0  0  0  0  0  2  0  0  0  0  0  0
  195.7750  173.2370  135.2600 C   0  0  0  0  0  2  0  0  0  0  0  0
  197.0910  173.3060  136.0070 C   0  0  0  0  0  2  0  0  0  0  0  0
  198.7540  175.3740  135.4200 O   0  0  0  0  0  0  0  0  0  0  0  0
  197.9350  175.2810  137.9020 O   0  0  0  0  0  1  0  0  0  0  0  0
  197.5520  175.0410  136.2720 P   0  0  0  0  0  0  0  0  0  0  0  0
  196.2620  176.0450  135.8400 O   0  0  0  0  0  1  0  0  0  0  0  0
  189.0980  175.5510  137.7370 C   0  0  1  0  0  3  0  0  0  0  0  0
  188.1980  176.5400  137.0350 C   0  0  0  0  0  0  0  0  0  0  0  0
  188.6720  177.6250  136.5970 O   0  0  0  0  0  0  0  0  0  0  0  0
  186.7910  176.2960  136.9510 N   0  0  0  0  0  2  0  0  0  0  0  0
  185.8180  176.9260  134.8150 C   0  0  0  0  0  1  0  0  0  0  0  0
  185.8730  177.2190  136.3040 C   0  0  1  0  0  3  0  0  0  0  0  0
  184.0910  177.8070  137.9310 C   0  0  0  0  0  3  0  0  0  0  0  0
  184.5130  177.0700  136.9060 C   0  0  0  0  0  3  0  0  0  0  0  0
  184.9260  178.7950  138.5330 N   0  0  0  0  0  2  0  0  0  0  0  0
  184.5780  179.3940  139.8120 C   0  0  0  0  0  2  0  0  0  0  0  0
  185.5070  178.8920  140.9050 C   0  0  0  0  0  2  0  0  0  0  0  0
  185.0590  179.3330  142.1500 O   0  0  0  0  0  0  0  0  0  0  0  0
  184.7850  178.1660  142.8600 C   0  0  0  0  0  2  0  0  0  0  0  0
  183.9300  178.4550  143.9240 O   0  0  0  0  0  0  0  0  0  0  0  0
  184.5450  179.5130  144.5930 C   0  0  0  0  0  1  0  0  0  0  0  0
  188.9440  174.1540  137.2170 C   0  0  0  0  0  3  0  0  0  0  0  0
  188.7190  173.9520  136.0340 O   0  0  0  0  0  0  0  0  0  0  0  0
  1 32  1  0  0  0  0
  1  4  2  0  0  0  0
  2  7  2  0  0  0  0
  3  6  1  0  0  0  0
  3  1  1  0  0  0  0
  4  7  1  0  0  0  0
  4 10  1  0  0  0  0
  5  2  1  0  0  0  0
  6  5  2  0  0  0  0
  8 10  2  0  0  0  0
  9 13  1  0  0  0  0
 10  9  1  0  0  0  0
 11 18  1  0  0  0  0
 12 11  1  0  0  0  0
 13 15  2  0  0  0  0
 13 16  1  0  0  0  0
 14 11  2  0  0  0  0
 15 14  1  0  0  0  0
 16 12  2  0  0  0  0
 17 16  1  0  0  0  0
 19 18  1  6  0  0  0
 19 21  1  0  0  0  0
 19 20  1  0  0  0  0
 21 20  1  0  0  0  0
 22  6  1  0  0  0  0
 23 22  1  0  0  0  0
 23 25  1  0  0  0  0
 24 23  2  0  0  0  0
 26 27  1  0  0  0  0
 26 25  1  0  0  0  0
 27 30  1  0  0  0  0
 28 30  2  0  0  0  0
 30 29  1  0  0  0  0
 31 30  1  0  0  0  0
 32 47  1  6  0  0  0
 33 32  1  0  0  0  0
 34 33  2  0  0  0  0
 35 33  1  0  0  0  0
 37 36  1  6  0  0  0
 37 39  1  0  0  0  0
 37 35  1  0  0  0  0
 38 40  1  0  0  0  0
 39 38  2  0  0  0  0
 40 41  1  0  0  0  0
 41 42  1  0  0  0  0
 42 43  1  0  0  0  0
 43 44  1  0  0  0  0
 44 45  1  0  0  0  0
 45 46  1  0  0  0  0
 48 47  2  0  0  0  0
M  END
>  <MODEL>
1

>  <REMARK>
 VINA RESULT:      -6.8      0.000      0.000
  Name = 
  21 active torsions:
  status: ('A' for Active; 'I' for Inactive)
    1  A    between atoms: C_1  and  C_19
    2  A    between atoms: C_4  and  N_37
    3  A    between atoms: C_6  and  C_35
    4  A    between atoms: C_7  and  C_12
    5  A    between atoms: C_7  and  O_26
    6  A    between atoms: C_8  and  O_31
    7  A    between atoms: C_8  and  C_33
    8  A    between atoms: C_9  and  C_23
    9  A    between atoms: C_9  and  N_24
   10  A    between atoms: C_10  and  C_35
   11  A    between atoms: O_11  and  C_18
   12  A    between atoms: C_12  and  N_14
   13  A    between atoms: C_13  and  C_19
   14  A    between atoms: N_14  and  C_22
   15  A    between atoms: C_16  and  C_35
   16  A    between atoms: C_18  and  O_26
   17  A    between atoms: C_25  and  C_28
   18  A    between atoms: C_25  and  P_34
   19  A    between atoms: C_28  and  C_33
   20  A    between atoms: O_31  and  C_43
   21  A    between atoms: C_36  and  C_42
                            x       y       z     vdW  Elec       q    Type
                         _______ _______ _______ _____ _____    ______ ____

>  <TORSDO>
F 21

$$$$
=
 OpenBabel10232412163D

 48 50  0  0  1  0  0  0  0  0999 V2000
  191.5310  176.4460  138.0540 C   0  0  0  0  0  0  0  0  0  0  0  0
  191.3300  175.2570  135.2170 C   0  0  0  0  0  3  0  0  0  0  0  0
  192.5900  175.4030  137.8560 C   0  0  0  0  0  2  0  0  0  0  0  0
  190.4460  176.4990  137.2410 C   0  0  0  0  0  0  0  0  0  0  0  0
  192.7690  175.5180  135.4140 C   0  0  0  0  0  3  0  0  0  0  0  0
  193.3660  175.6430  136.5980 C   0  0  0  0  0  0  0  0  0  0  0  0
  190.3340  175.6730  136.0110 C   0  0  0  0  0  3  0  0  0  0  0  0
  189.3410  178.5970  137.2510 O   0  0  0  0  0  0  0  0  0  0  0  0
  188.0740  176.8160  138.0810 N   0  0  0  0  0  2  0  0  0  0  0  0
  189.2790  177.3700  137.5340 C   0  0  0  0  0  0  0  0  0  0  0  0
  184.5560  178.9220  139.1700 C   0  0  0  0  0  0  0  0  0  0  0  0
  185.6650  178.9080  140.0210 C   0  0  0  0  0  3  0  0  0  0  0  0
  186.8750  177.5190  138.4360 C   0  0  0  0  0  0  0  0  0  0  0  0
  184.6000  178.2320  137.9570 C   0  0  0  0  0  3  0  0  0  0  0  0
  185.7540  177.5350  137.5900 C   0  0  0  0  0  3  0  0  0  0  0  0
  186.8220  178.2120  139.6550 C   0  0  0  0  0  0  0  0  0  0  0  0
  187.9190  178.2140  140.5090 O   0  0  0  0  0  1  0  0  0  0  0  0
  183.3200  179.6520  139.5690 C   0  0  0  0  0  2  0  0  0  0  0  0
  182.1010  178.7740  139.3610 C   0  0  2  0  0  3  0  0  0  0  0  0
  181.0820  179.1190  140.3640 N   0  0  0  0  0  2  0  0  0  0  0  0
  181.9130  177.9170  140.5250 C   0  0  0  0  0  2  0  0  0  0  0  0
  194.7320  175.9590  136.6130 O   0  0  0  0  0  0  0  0  0  0  0  0
  195.4370  176.6280  135.6010 C   0  0  0  0  0  0  0  0  0  0  0  0
  195.3260  177.8700  135.4260 O   0  0  0  0  0  0  0  0  0  0  0  0
  196.3680  175.8550  134.7390 C   0  0  0  0  0  2  0  0  0  0  0  0
  197.6140  175.5000  135.5220 C   0  0  0  0  0  2  0  0  0  0  0  0
  197.8660  174.0100  135.4260 C   0  0  0  0  0  2  0  0  0  0  0  0
  195.7210  172.7790  136.5530 O   0  0  0  0  0  0  0  0  0  0  0  0
  197.1590  174.2210  138.1940 O   0  0  0  0  0  1  0  0  0  0  0  0
  197.1460  173.1740  136.8660 P   0  0  0  0  0  0  0  0  0  0  0  0
  198.0450  171.7880  137.2290 O   0  0  0  0  0  1  0  0  0  0  0  0
  191.7150  177.4180  139.1930 C   0  0  1  0  0  3  0  0  0  0  0  0
  191.0800  176.9450  140.4780 C   0  0  0  0  0  0  0  0  0  0  0  0
  190.3260  175.9330  140.4760 O   0  0  0  0  0  0  0  0  0  0  0  0
  191.2510  177.6990  141.6830 N   0  0  0  0  0  2  0  0  0  0  0  0
  191.4710  176.1920  143.5770 C   0  0  0  0  0  1  0  0  0  0  0  0
  190.6500  177.3030  142.9470 C   0  0  1  0  0  3  0  0  0  0  0  0
  189.8540  178.5100  144.9670 C   0  0  0  0  0  3  0  0  0  0  0  0
  190.5970  178.4830  143.8620 C   0  0  0  0  0  3  0  0  0  0  0  0
  189.0440  177.3990  145.3470 N   0  0  0  0  0  2  0  0  0  0  0  0
  189.0060  176.9350  146.7250 C   0  0  0  0  0  2  0  0  0  0  0  0
  187.7710  177.4680  147.4320 C   0  0  0  0  0  2  0  0  0  0  0  0
  186.7600  177.7140  146.5030 O   0  0  0  0  0  0  0  0  0  0  0  0
  186.0160  178.7530  147.0580 C   0  0  0  0  0  2  0  0  0  0  0  0
  184.9590  179.0780  146.2070 O   0  0  0  0  0  0  0  0  0  0  0  0
  185.3900  178.6770  144.9420 C   0  0  0  0  0  1  0  0  0  0  0  0
  193.1640  177.7650  139.3530 C   0  0  0  0  0  3  0  0  0  0  0  0
  193.8800  177.1150  140.0980 O   0  0  0  0  0  0  0  0  0  0  0  0
  1 32  1  0  0  0  0
  2  5  1  0  0  0  0
  2  7  2  0  0  0  0
  3  1  1  0  0  0  0
  4 10  1  0  0  0  0
  4  1  2  0  0  0  0
  5  6  2  0  0  0  0
  6 22  1  0  0  0  0
  6  3  1  0  0  0  0
  7  4  1  0  0  0  0
  8 10  2  0  0  0  0
  9 13  1  0  0  0  0
 10  9  1  0  0  0  0
 11 18  1  0  0  0  0
 11 12  1  0  0  0  0
 13 16  1  0  0  0  0
 14 11  2  0  0  0  0
 15 14  1  0  0  0  0
 15 13  2  0  0  0  0
 16 12  2  0  0  0  0
 16 17  1  0  0  0  0
 19 18  1  1  0  0  0
 19 20  1  0  0  0  0
 19 21  1  0  0  0  0
 20 21  1  0  0  0  0
 23 22  1  0  0  0  0
 24 23  2  0  0  0  0
 25 26  1  0  0  0  0
 25 23  1  0  0  0  0
 27 26  1  0  0  0  0
 27 30  1  0  0  0  0
 28 30  2  0  0  0  0
 30 31  1  0  0  0  0
 30 29  1  0  0  0  0
 32 47  1  1  0  0  0
 32 33  1  0  0  0  0
 33 35  1  0  0  0  0
 34 33  2  0  0  0  0
 35 37  1  0  0  0  0
 37 36  1  1  0  0  0
 37 39  1  0  0  0  0
 38 40  1  0  0  0  0
 39 38  2  0  0  0  0
 40 41  1  0  0  0  0
 41 42  1  0  0  0  0
 43 44  1  0  0  0  0
 43 42  1  0  0  0  0
 45 44  1  0  0  0  0
 46 45  1  0  0  0  0
 47 48  2  0  0  0  0
M  END
>  <MODEL>
2

>  <REMARK>
 VINA RESULT:      -6.2      2.154      5.820
  Name = 
  21 active torsions:
  status: ('A' for Active; 'I' for Inactive)
    1  A    between atoms: C_1  and  C_19
    2  A    between atoms: C_4  and  N_37
    3  A    between atoms: C_6  and  C_35
    4  A    between atoms: C_7  and  C_12
    5  A    between atoms: C_7  and  O_26
    6  A    between atoms: C_8  and  O_31
    7  A    between atoms: C_8  and  C_33
    8  A    between atoms: C_9  and  C_23
    9  A    between atoms: C_9  and  N_24
   10  A    between atoms: C_10  and  C_35
   11  A    between atoms: O_11  and  C_18
   12  A    between atoms: C_12  and  N_14
   13  A    between atoms: C_13  and  C_19
   14  A    between atoms: N_14  and  C_22
   15  A    between atoms: C_16  and  C_35
   16  A    between atoms: C_18  and  O_26
   17  A    between atoms: C_25  and  C_28
   18  A    between atoms: C_25  and  P_34
   19  A    between atoms: C_28  and  C_33
   20  A    between atoms: O_31  and  C_43
   21  A    between atoms: C_36  and  C_42
                            x       y       z     vdW  Elec       q    Type
                         _______ _______ _______ _____ _____    ______ ____

>  <TORSDO>
F 21

$$$$
=
 OpenBabel10232412163D

 48 50  0  0  1  0  0  0  0  0999 V2000
  188.8730  175.4990  136.9940 C   0  0  0  0  0  0  0  0  0  0  0  0
  188.3660  172.7890  135.6150 C   0  0  0  0  0  3  0  0  0  0  0  0
  189.9960  174.5500  137.2940 C   0  0  0  0  0  2  0  0  0  0  0  0
  187.6770  175.0420  136.5480 C   0  0  0  0  0  0  0  0  0  0  0  0
  189.7810  173.0950  135.3320 C   0  0  0  0  0  3  0  0  0  0  0  0
  190.5380  173.9310  136.0420 C   0  0  0  0  0  0  0  0  0  0  0  0
  187.4660  173.6260  136.1470 C   0  0  0  0  0  3  0  0  0  0  0  0
  186.1590  176.3930  135.3250 O   0  0  0  0  0  0  0  0  0  0  0  0
  185.6710  176.1810  137.6030 N   0  0  0  0  0  2  0  0  0  0  0  0
  186.4820  175.9190  136.4480 C   0  0  0  0  0  0  0  0  0  0  0  0
  182.2560  178.6880  137.8390 C   0  0  0  0  0  0  0  0  0  0  0  0
  183.4650  179.0810  138.4200 C   0  0  0  0  0  3  0  0  0  0  0  0
  184.5050  177.0140  137.6770 C   0  0  0  0  0  0  0  0  0  0  0  0
  182.1660  177.4580  137.1830 C   0  0  0  0  0  3  0  0  0  0  0  0
  183.2850  176.6250  137.1000 C   0  0  0  0  0  3  0  0  0  0  0  0
  184.5870  178.2490  138.3370 C   0  0  0  0  0  0  0  0  0  0  0  0
  185.7840  178.6590  138.9140 O   0  0  0  0  0  1  0  0  0  0  0  0
  181.0590  179.5680  137.9410 C   0  0  0  0  0  2  0  0  0  0  0  0
  181.3550  180.7570  138.8350 C   0  0  2  0  0  3  0  0  0  0  0  0
  180.0910  181.4150  139.1960 N   0  0  0  0  0  2  0  0  0  0  0  0
  180.9610  181.9860  138.1580 C   0  0  0  0  0  2  0  0  0  0  0  0
  191.8470  174.1660  135.6000 O   0  0  0  0  0  0  0  0  0  0  0  0
  192.9060  173.2470  135.6280 C   0  0  0  0  0  0  0  0  0  0  0  0
  192.8140  172.1450  136.2310 O   0  0  0  0  0  0  0  0  0  0  0  0
  194.1580  173.5670  134.8920 C   0  0  0  0  0  2  0  0  0  0  0  0
  195.3400  173.4820  135.8350 C   0  0  0  0  0  2  0  0  0  0  0  0
  195.2730  174.6160  136.8360 C   0  0  0  0  0  2  0  0  0  0  0  0
  195.6660  175.1090  139.4790 O   0  0  0  0  0  1  0  0  0  0  0  0
  197.6450  173.8980  138.2730 O   0  0  0  0  0  0  0  0  0  0  0  0
  195.9700  174.0740  138.4210 P   0  0  0  0  0  0  0  0  0  0  0  0
  195.2830  172.5950  138.8690 O   0  0  0  0  0  1  0  0  0  0  0  0
  189.1260  176.9690  137.2210 C   0  0  1  0  0  3  0  0  0  0  0  0
  189.7040  177.2620  138.5850 C   0  0  0  0  0  0  0  0  0  0  0  0
  190.9560  177.3030  138.7450 O   0  0  0  0  0  0  0  0  0  0  0  0
  188.8390  177.3980  139.7170 N   0  0  0  0  0  2  0  0  0  0  0  0
  188.2660  178.3610  141.8730 C   0  0  0  0  0  1  0  0  0  0  0  0
  189.3390  177.6630  141.0570 C   0  0  1  0  0  3  0  0  0  0  0  0
  190.6920  176.2790  142.6130 C   0  0  0  0  0  3  0  0  0  0  0  0
  189.7200  176.3730  141.7080 C   0  0  0  0  0  3  0  0  0  0  0  0
  191.4470  177.4210  143.0190 N   0  0  0  0  0  2  0  0  0  0  0  0
  191.3490  177.9420  144.3730 C   0  0  0  0  0  2  0  0  0  0  0  0
  191.5170  176.8230  145.3870 C   0  0  0  0  0  2  0  0  0  0  0  0
  190.5800  176.9640  146.4110 O   0  0  0  0  0  0  0  0  0  0  0  0
  189.4980  177.6080  145.8130 C   0  0  0  0  0  2  0  0  0  0  0  0
  188.5800  177.9870  146.7920 O   0  0  0  0  0  0  0  0  0  0  0  0
  188.6590  176.9830  147.7580 C   0  0  0  0  0  1  0  0  0  0  0  0
  189.9500  177.5350  136.1050 C   0  0  0  0  0  3  0  0  0  0  0  0
  189.6380  177.3410  134.9420 O   0  0  0  0  0  0  0  0  0  0  0  0
  1 32  1  0  0  0  0
  1  3  1  0  0  0  0
  2  7  2  0  0  0  0
  4  1  2  0  0  0  0
  5  2  1  0  0  0  0
  5  6  2  0  0  0  0
  6  3  1  0  0  0  0
  7  4  1  0  0  0  0
  8 10  2  0  0  0  0
  9 13  1  0  0  0  0
 10  4  1  0  0  0  0
 10  9  1  0  0  0  0
 11 18  1  0  0  0  0
 11 12  1  0  0  0  0
 13 16  1  0  0  0  0
 14 11  2  0  0  0  0
 15 14  1  0  0  0  0
 15 13  2  0  0  0  0
 16 12  2  0  0  0  0
 16 17  1  0  0  0  0
 19 18  1  6  0  0  0
 19 20  1  0  0  0  0
 21 19  1  0  0  0  0
 21 20  1  0  0  0  0
 22 23  1  0  0  0  0
 22  6  1  0  0  0  0
 23 24  2  0  0  0  0
 25 23  1  0  0  0  0
 25 26  1  0  0  0  0
 26 27  1  0  0  0  0
 27 30  1  0  0  0  0
 29 30  2  0  0  0  0
 30 31  1  0  0  0  0
 30 28  1  0  0  0  0
 32 47  1  6  0  0  0
 32 33  1  0  0  0  0
 33 34  2  0  0  0  0
 33 35  1  0  0  0  0
 35 37  1  0  0  0  0
 37 39  1  0  0  0  0
 37 36  1  1  0  0  0
 38 40  1  0  0  0  0
 39 38  2  0  0  0  0
 40 41  1  0  0  0  0
 41 42  1  0  0  0  0
 42 43  1  0  0  0  0
 44 43  1  0  0  0  0
 44 45  1  0  0  0  0
 45 46  1  0  0  0  0
 48 47  2  0  0  0  0
M  END
>  <MODEL>
3

>  <REMARK>
 VINA RESULT:      -6.1      2.424      6.422
  Name = 
  21 active torsions:
  status: ('A' for Active; 'I' for Inactive)
    1  A    between atoms: C_1  and  C_19
    2  A    between atoms: C_4  and  N_37
    3  A    between atoms: C_6  and  C_35
    4  A    between atoms: C_7  and  C_12
    5  A    between atoms: C_7  and  O_26
    6  A    between atoms: C_8  and  O_31
    7  A    between atoms: C_8  and  C_33
    8  A    between atoms: C_9  and  C_23
    9  A    between atoms: C_9  and  N_24
   10  A    between atoms: C_10  and  C_35
   11  A    between atoms: O_11  and  C_18
   12  A    between atoms: C_12  and  N_14
   13  A    between atoms: C_13  and  C_19
   14  A    between atoms: N_14  and  C_22
   15  A    between atoms: C_16  and  C_35
   16  A    between atoms: C_18  and  O_26
   17  A    between atoms: C_25  and  C_28
   18  A    between atoms: C_25  and  P_34
   19  A    between atoms: C_28  and  C_33
   20  A    between atoms: O_31  and  C_43
   21  A    between atoms: C_36  and  C_42
                            x       y       z     vdW  Elec       q    Type
                         _______ _______ _______ _____ _____    ______ ____

>  <TORSDO>
F 21

$$$$
=
 OpenBabel10232412163D

 48 50  0  0  1  0  0  0  0  0999 V2000
  191.5920  176.3850  137.8940 C   0  0  0  0  0  0  0  0  0  0  0  0
  191.4020  175.1860  135.0610 C   0  0  0  0  0  3  0  0  0  0  0  0
  192.6470  175.3350  137.7080 C   0  0  0  0  0  2  0  0  0  0  0  0
  190.5130  176.4410  137.0750 C   0  0  0  0  0  0  0  0  0  0  0  0
  192.8420  175.4390  135.2660 C   0  0  0  0  0  3  0  0  0  0  0  0
  193.4320  175.5650  136.4540 C   0  0  0  0  0  0  0  0  0  0  0  0
  190.4040  175.6110  135.8470 C   0  0  0  0  0  3  0  0  0  0  0  0
  189.4290  178.5500  137.0900 O   0  0  0  0  0  0  0  0  0  0  0  0
  188.1290  176.7710  137.8750 N   0  0  0  0  0  2  0  0  0  0  0  0
  189.3500  177.3200  137.3570 C   0  0  0  0  0  0  0  0  0  0  0  0
  184.6120  178.9000  138.9240 C   0  0  0  0  0  0  0  0  0  0  0  0
  185.7110  178.8780  139.7880 C   0  0  0  0  0  3  0  0  0  0  0  0
  186.9300  177.4820  138.2150 C   0  0  0  0  0  0  0  0  0  0  0  0
  184.6660  178.2110  137.7100 C   0  0  0  0  0  3  0  0  0  0  0  0
  185.8200  177.5060  137.3560 C   0  0  0  0  0  3  0  0  0  0  0  0
  186.8680  178.1740  139.4350 C   0  0  0  0  0  0  0  0  0  0  0  0
  187.9550  178.1690  140.3020 O   0  0  0  0  0  1  0  0  0  0  0  0
  183.3760  179.6380  139.3090 C   0  0  0  0  0  2  0  0  0  0  0  0
  182.1940  178.6900  139.3630 C   0  0  2  0  0  3  0  0  0  0  0  0
  181.4220  178.9530  140.5860 N   0  0  0  0  0  2  0  0  0  0  0  0
  182.3330  177.8030  140.5100 C   0  0  0  0  0  2  0  0  0  0  0  0
  194.8000  175.8730  136.4760 O   0  0  0  0  0  0  0  0  0  0  0  0
  195.4670  176.7390  135.5970 C   0  0  0  0  0  0  0  0  0  0  0  0
  195.2160  177.9730  135.5640 O   0  0  0  0  0  0  0  0  0  0  0  0
  196.5240  176.1910  134.7080 C   0  0  0  0  0  2  0  0  0  0  0  0
  196.9250  174.8090  135.1820 C   0  0  0  0  0  2  0  0  0  0  0  0
  198.3680  174.8290  135.6400 C   0  0  0  0  0  2  0  0  0  0  0  0
  199.8120  174.6790  137.9380 O   0  0  0  0  0  1  0  0  0  0  0  0
  198.2850  172.6110  137.4510 O   0  0  0  0  0  0  0  0  0  0  0  0
  198.4660  174.2910  137.3700 P   0  0  0  0  0  0  0  0  0  0  0  0
  197.2430  175.0360  138.2690 O   0  0  0  0  0  1  0  0  0  0  0  0
  191.7750  177.3600  139.0310 C   0  0  1  0  0  3  0  0  0  0  0  0
  191.1370  176.8920  140.3170 C   0  0  0  0  0  0  0  0  0  0  0  0
  190.2870  175.9580  140.2970 O   0  0  0  0  0  0  0  0  0  0  0  0
  191.4180  177.5690  141.5460 N   0  0  0  0  0  2  0  0  0  0  0  0
  191.6140  176.0320  143.4180 C   0  0  0  0  0  1  0  0  0  0  0  0
  190.8210  177.1750  142.8120 C   0  0  1  0  0  3  0  0  0  0  0  0
  189.8010  178.6080  144.5660 C   0  0  0  0  0  3  0  0  0  0  0  0
  190.8140  178.3450  143.7420 C   0  0  0  0  0  3  0  0  0  0  0  0
  188.6390  177.7810  144.6080 N   0  0  0  0  0  2  0  0  0  0  0  0
  187.7430  177.8030  145.7530 C   0  0  0  0  0  2  0  0  0  0  0  0
  188.3630  177.0640  146.9280 C   0  0  0  0  0  2  0  0  0  0  0  0
  189.6100  177.6110  147.2300 O   0  0  0  0  0  0  0  0  0  0  0  0
  190.4100  176.5150  147.5460 C   0  0  0  0  0  2  0  0  0  0  0  0
  191.7370  176.9250  147.6750 O   0  0  0  0  0  0  0  0  0  0  0  0
  192.4850  175.7650  147.4740 C   0  0  0  0  0  1  0  0  0  0  0  0
  193.2250  177.7060  139.1940 C   0  0  0  0  0  3  0  0  0  0  0  0
  193.9240  177.0950  139.9850 O   0  0  0  0  0  0  0  0  0  0  0  0
  1 32  1  0  0  0  0
  2  5  1  0  0  0  0
  2  7  2  0  0  0  0
  3  1  1  0  0  0  0
  4 10  1  0  0  0  0
  4  1  2  0  0  0  0
  5  6  2  0  0  0  0
  6 22  1  0  0  0  0
  6  3  1  0  0  0  0
  7  4  1  0  0  0  0
  8 10  2  0  0  0  0
  9 13  1  0  0  0  0
 10  9  1  0  0  0  0
 11 18  1  0  0  0  0
 11 12  1  0  0  0  0
 13 16  1  0  0  0  0
 14 11  2  0  0  0  0
 15 14  1  0  0  0  0
 15 13  2  0  0  0  0
 16 12  2  0  0  0  0
 16 17  1  0  0  0  0
 19 18  1  1  0  0  0
 19 21  1  0  0  0  0
 19 20  1  0  0  0  0
 21 20  1  0  0  0  0
 23 22  1  0  0  0  0
 24 23  2  0  0  0  0
 25 26  1  0  0  0  0
 25 23  1  0  0  0  0
 26 27  1  0  0  0  0
 27 30  1  0  0  0  0
 30 29  2  0  0  0  0
 30 28  1  0  0  0  0
 30 31  1  0  0  0  0
 32 47  1  1  0  0  0
 32 33  1  0  0  0  0
 33 35  1  0  0  0  0
 34 33  2  0  0  0  0
 35 37  1  0  0  0  0
 37 36  1  1  0  0  0
 37 39  1  0  0  0  0
 38 40  1  0  0  0  0
 39 38  2  0  0  0  0
 40 41  1  0  0  0  0
 41 42  1  0  0  0  0
 42 43  1  0  0  0  0
 43 44  1  0  0  0  0
 44 45  1  0  0  0  0
 46 45  1  0  0  0  0
 47 48  2  0  0  0  0
M  END
>  <MODEL>
4

>  <REMARK>
 VINA RESULT:      -6.0      2.349      6.084
  Name = 
  21 active torsions:
  status: ('A' for Active; 'I' for Inactive)
    1  A    between atoms: C_1  and  C_19
    2  A    between atoms: C_4  and  N_37
    3  A    between atoms: C_6  and  C_35
    4  A    between atoms: C_7  and  C_12
    5  A    between atoms: C_7  and  O_26
    6  A    between atoms: C_8  and  O_31
    7  A    between atoms: C_8  and  C_33
    8  A    between atoms: C_9  and  C_23
    9  A    between atoms: C_9  and  N_24
   10  A    between atoms: C_10  and  C_35
   11  A    between atoms: O_11  and  C_18
   12  A    between atoms: C_12  and  N_14
   13  A    between atoms: C_13  and  C_19
   14  A    between atoms: N_14  and  C_22
   15  A    between atoms: C_16  and  C_35
   16  A    between atoms: C_18  and  O_26
   17  A    between atoms: C_25  and  C_28
   18  A    between atoms: C_25  and  P_34
   19  A    between atoms: C_28  and  C_33
   20  A    between atoms: O_31  and  C_43
   21  A    between atoms: C_36  and  C_42
                            x       y       z     vdW  Elec       q    Type
                         _______ _______ _______ _____ _____    ______ ____

>  <TORSDO>
F 21

$$$$
=
 OpenBabel10232412163D

 48 50  0  0  1  0  0  0  0  0999 V2000
  190.8930  175.7360  137.5640 C   0  0  0  0  0  0  0  0  0  0  0  0
  193.8890  175.8500  138.2800 C   0  0  0  0  0  3  0  0  0  0  0  0
  191.7220  175.3750  136.3670 C   0  0  0  0  0  2  0  0  0  0  0  0
  191.4370  176.3990  138.6140 C   0  0  0  0  0  0  0  0  0  0  0  0
  193.7280  174.5860  137.5360 C   0  0  0  0  0  3  0  0  0  0  0  0
  192.7270  174.3150  136.6990 C   0  0  0  0  0  0  0  0  0  0  0  0
  192.9000  176.6330  138.7330 C   0  0  0  0  0  3  0  0  0  0  0  0
  190.0010  178.0510  139.5250 O   0  0  0  0  0  0  0  0  0  0  0  0
  190.4550  176.2510  140.9480 N   0  0  0  0  0  2  0  0  0  0  0  0
  190.6090  176.9620  139.7110 C   0  0  0  0  0  0  0  0  0  0  0  0
  188.3020  177.4740  144.3930 C   0  0  0  0  0  0  0  0  0  0  0  0
  189.6100  176.9950  144.5080 C   0  0  0  0  0  3  0  0  0  0  0  0
  189.7110  176.6650  142.1030 C   0  0  0  0  0  0  0  0  0  0  0  0
  187.6940  177.5440  143.1380 C   0  0  0  0  0  3  0  0  0  0  0  0
  188.3950  177.1430  141.9970 C   0  0  0  0  0  3  0  0  0  0  0  0
  190.3140  176.5940  143.3680 C   0  0  0  0  0  0  0  0  0  0  0  0
  191.6180  176.1280  143.4990 O   0  0  0  0  0  1  0  0  0  0  0  0
  187.5500  177.8860  145.6110 C   0  0  0  0  0  2  0  0  0  0  0  0
  186.0590  177.8870  145.3330 C   0  0  2  0  0  3  0  0  0  0  0  0
  185.5340  179.2470  145.5230 N   0  0  0  0  0  2  0  0  0  0  0  0
  185.3350  178.2170  146.5530 C   0  0  0  0  0  2  0  0  0  0  0  0
  192.6830  173.0380  136.1220 O   0  0  0  0  0  0  0  0  0  0  0  0
  193.7440  172.3860  135.4760 C   0  0  0  0  0  0  0  0  0  0  0  0
  193.5960  171.8250  134.3580 O   0  0  0  0  0  0  0  0  0  0  0  0
  195.0880  172.3910  136.1120 C   0  0  0  0  0  2  0  0  0  0  0  0
  196.0660  173.1410  135.2330 C   0  0  0  0  0  2  0  0  0  0  0  0
  197.4100  173.2220  135.9250 C   0  0  0  0  0  2  0  0  0  0  0  0
  197.9140  175.1220  137.8010 O   0  0  0  0  0  1  0  0  0  0  0  0
  196.5640  175.9520  135.7210 O   0  0  0  0  0  1  0  0  0  0  0  0
  197.7980  174.9540  136.3040 P   0  0  0  0  0  0  0  0  0  0  0  0
  199.2640  175.3820  135.5770 O   0  0  0  0  0  0  0  0  0  0  0  0
  189.4350  175.3450  137.5430 C   0  0  1  0  0  3  0  0  0  0  0  0
  188.5440  176.4250  136.9800 C   0  0  0  0  0  0  0  0  0  0  0  0
  188.8470  176.9930  135.8940 O   0  0  0  0  0  0  0  0  0  0  0  0
  187.4080  176.8780  137.7240 N   0  0  0  0  0  2  0  0  0  0  0  0
  187.3440  179.0360  136.6090 C   0  0  0  0  0  1  0  0  0  0  0  0
  186.5230  177.9270  137.2410 C   0  0  1  0  0  3  0  0  0  0  0  0
  184.4510  176.7280  136.5780 C   0  0  0  0  0  3  0  0  0  0  0  0
  185.5760  177.3540  136.2370 C   0  0  0  0  0  3  0  0  0  0  0  0
  184.0790  176.5550  137.9450 N   0  0  0  0  0  2  0  0  0  0  0  0
  182.9190  175.7580  138.3110 C   0  0  0  0  0  2  0  0  0  0  0  0
  182.3200  176.2580  139.6160 C   0  0  0  0  0  2  0  0  0  0  0  0
  181.4110  177.2850  139.3590 O   0  0  0  0  0  0  0  0  0  0  0  0
  181.1860  177.8750  140.6010 C   0  0  0  0  0  2  0  0  0  0  0  0
  181.0050  179.2490  140.4410 O   0  0  0  0  0  0  0  0  0  0  0  0
  181.0490  179.4510  139.0610 C   0  0  0  0  0  1  0  0  0  0  0  0
  189.2590  174.0270  136.8530 C   0  0  0  0  0  3  0  0  0  0  0  0
  189.3780  172.9810  137.4700 O   0  0  0  0  0  0  0  0  0  0  0  0
  1  4  2  0  0  0  0
  2  7  2  0  0  0  0
  3  6  1  0  0  0  0
  3  1  1  0  0  0  0
  4  7  1  0  0  0  0
  4 10  1  0  0  0  0
  5  2  1  0  0  0  0
  6  5  2  0  0  0  0
  8 10  2  0  0  0  0
  9 13  1  0  0  0  0
 10  9  1  0  0  0  0
 11 12  1  0  0  0  0
 11 18  1  0  0  0  0
 13 16  1  0  0  0  0
 14 11  2  0  0  0  0
 15 13  2  0  0  0  0
 15 14  1  0  0  0  0
 16 17  1  0  0  0  0
 16 12  2  0  0  0  0
 19 20  1  0  0  0  0
 19 18  1  1  0  0  0
 19 21  1  0  0  0  0
 20 21  1  0  0  0  0
 22  6  1  0  0  0  0
 23 25  1  0  0  0  0
 23 22  1  0  0  0  0
 24 23  2  0  0  0  0
 26 27  1  0  0  0  0
 26 25  1  0  0  0  0
 27 30  1  0  0  0  0
 29 30  1  0  0  0  0
 30 28  1  0  0  0  0
 31 30  2  0  0  0  0
 32 47  1  6  0  0  0
 32  1  1  0  0  0  0
 33 32  1  0  0  0  0
 33 35  1  0  0  0  0
 34 33  2  0  0  0  0
 37 36  1  6  0  0  0
 37 35  1  0  0  0  0
 38 40  1  0  0  0  0
 39 38  2  0  0  0  0
 39 37  1  0  0  0  0
 40 41  1  0  0  0  0
 41 42  1  0  0  0  0
 43 42  1  0  0  0  0
 43 44  1  0  0  0  0
 45 44  1  0  0  0  0
 46 45  1  0  0  0  0
 47 48  2  0  0  0  0
M  END
>  <MODEL>
5

>  <REMARK>
 VINA RESULT:      -5.9      1.765      2.322
  Name = 
  21 active torsions:
  status: ('A' for Active; 'I' for Inactive)
    1  A    between atoms: C_1  and  C_19
    2  A    between atoms: C_4  and  N_37
    3  A    between atoms: C_6  and  C_35
    4  A    between atoms: C_7  and  C_12
    5  A    between atoms: C_7  and  O_26
    6  A    between atoms: C_8  and  O_31
    7  A    between atoms: C_8  and  C_33
    8  A    between atoms: C_9  and  C_23
    9  A    between atoms: C_9  and  N_24
   10  A    between atoms: C_10  and  C_35
   11  A    between atoms: O_11  and  C_18
   12  A    between atoms: C_12  and  N_14
   13  A    between atoms: C_13  and  C_19
   14  A    between atoms: N_14  and  C_22
   15  A    between atoms: C_16  and  C_35
   16  A    between atoms: C_18  and  O_26
   17  A    between atoms: C_25  and  C_28
   18  A    between atoms: C_25  and  P_34
   19  A    between atoms: C_28  and  C_33
   20  A    between atoms: O_31  and  C_43
   21  A    between atoms: C_36  and  C_42
                            x       y       z     vdW  Elec       q    Type
                         _______ _______ _______ _____ _____    ______ ____

>  <TORSDO>
F 21

$$$$
=
 OpenBabel10232412163D

 48 50  0  0  1  0  0  0  0  0999 V2000
  188.4420  177.4380  141.8120 C   0  0  0  0  0  0  0  0  0  0  0  0
  189.8130  176.1960  144.2780 C   0  0  0  0  0  3  0  0  0  0  0  0
  187.4180  177.1040  142.8560 C   0  0  0  0  0  2  0  0  0  0  0  0
  189.6740  176.8730  141.8400 C   0  0  0  0  0  0  0  0  0  0  0  0
  188.8690  177.1860  144.8310 C   0  0  0  0  0  3  0  0  0  0  0  0
  187.8000  177.6610  144.1930 C   0  0  0  0  0  0  0  0  0  0  0  0
  190.1490  176.0580  142.9890 C   0  0  0  0  0  3  0  0  0  0  0  0
  191.3670  178.0310  140.6490 O   0  0  0  0  0  0  0  0  0  0  0  0
  190.7640  175.9630  139.7380 N   0  0  0  0  0  2  0  0  0  0  0  0
  190.6320  177.0070  140.7130 C   0  0  0  0  0  0  0  0  0  0  0  0
  193.2680  175.8830  136.3130 C   0  0  0  0  0  0  0  0  0  0  0  0
  192.2450  174.9430  136.4650 C   0  0  0  0  0  3  0  0  0  0  0  0
  191.6230  175.9480  138.5890 C   0  0  0  0  0  0  0  0  0  0  0  0
  193.4760  176.8510  137.2990 C   0  0  0  0  0  3  0  0  0  0  0  0
  192.6560  176.8850  138.4300 C   0  0  0  0  0  3  0  0  0  0  0  0
  191.4220  174.9760  137.5970 C   0  0  0  0  0  0  0  0  0  0  0  0
  190.4040  174.0380  137.7280 O   0  0  0  0  0  1  0  0  0  0  0  0
  194.1510  175.8370  135.1150 C   0  0  0  0  0  2  0  0  0  0  0  0
  195.6080  175.8000  135.5360 C   0  0  2  0  0  3  0  0  0  0  0  0
  196.3630  174.9700  134.5870 N   0  0  0  0  0  2  0  0  0  0  0  0
  195.9760  174.4380  135.9000 C   0  0  0  0  0  2  0  0  0  0  0  0
  187.0410  178.6520  144.8330 O   0  0  0  0  0  0  0  0  0  0  0  0
  185.6560  178.6190  145.0520 C   0  0  0  0  0  0  0  0  0  0  0  0
  185.1430  177.9040  145.9530 O   0  0  0  0  0  0  0  0  0  0  0  0
  184.7750  179.4820  144.2230 C   0  0  0  0  0  2  0  0  0  0  0  0
  183.3590  178.9450  144.2520 C   0  0  0  0  0  2  0  0  0  0  0  0
  182.8460  178.7910  142.8360 C   0  0  0  0  0  2  0  0  0  0  0  0
  180.5010  178.4250  141.5110 O   0  0  0  0  0  0  0  0  0  0  0  0
  180.6130  180.5790  142.9910 O   0  0  0  0  0  1  0  0  0  0  0  0
  181.0380  178.9510  142.8220 P   0  0  0  0  0  0  0  0  0  0  0  0
  180.3770  178.0580  144.0970 O   0  0  0  0  0  1  0  0  0  0  0  0
  188.0400  178.4100  140.7300 C   0  0  1  0  0  3  0  0  0  0  0  0
  187.9040  177.7600  139.3750 C   0  0  0  0  0  0  0  0  0  0  0  0
  187.6370  176.5290  139.2880 O   0  0  0  0  0  0  0  0  0  0  0  0
  188.1740  178.5110  138.1870 N   0  0  0  0  0  2  0  0  0  0  0  0
  187.1280  178.7630  136.0080 C   0  0  0  0  0  1  0  0  0  0  0  0
  188.0770  177.9350  136.8560 C   0  0  1  0  0  3  0  0  0  0  0  0
  189.7230  177.1570  135.1660 C   0  0  0  0  0  3  0  0  0  0  0  0
  189.4330  177.9060  136.2280 C   0  0  0  0  0  3  0  0  0  0  0  0
  188.7440  176.3160  134.5570 N   0  0  0  0  0  2  0  0  0  0  0  0
  188.6140  174.9180  134.9390 C   0  0  0  0  0  2  0  0  0  0  0  0
  187.1520  174.5030  134.9450 C   0  0  0  0  0  2  0  0  0  0  0  0
  186.9300  173.5600  135.9490 O   0  0  0  0  0  0  0  0  0  0  0  0
  185.8360  174.0520  136.6590 C   0  0  0  0  0  2  0  0  0  0  0  0
  185.5740  173.2200  137.7480 O   0  0  0  0  0  0  0  0  0  0  0  0
  184.4900  172.4410  137.3430 C   0  0  0  0  0  1  0  0  0  0  0  0
  186.8120  179.1660  141.1380 C   0  0  0  0  0  3  0  0  0  0  0  0
  185.7950  179.1090  140.4660 O   0  0  0  0  0  0  0  0  0  0  0  0
  1  4  2  0  0  0  0
  1  3  1  0  0  0  0
  2  5  1  0  0  0  0
  3  6  1  0  0  0  0
  4  7  1  0  0  0  0
  6  5  2  0  0  0  0
  6 22  1  0  0  0  0
  7  2  2  0  0  0  0
  8 10  2  0  0  0  0
  9 10  1  0  0  0  0
 10  4  1  0  0  0  0
 11 12  2  0  0  0  0
 11 14  1  0  0  0  0
 12 16  1  0  0  0  0
 13  9  1  0  0  0  0
 14 15  2  0  0  0  0
 15 13  1  0  0  0  0
 16 17  1  0  0  0  0
 16 13  2  0  0  0  0
 18 11  1  0  0  0  0
 19 18  1  6  0  0  0
 19 21  1  0  0  0  0
 20 19  1  0  0  0  0
 20 21  1  0  0  0  0
 22 23  1  0  0  0  0
 23 24  2  0  0  0  0
 25 26  1  0  0  0  0
 25 23  1  0  0  0  0
 27 26  1  0  0  0  0
 28 30  2  0  0  0  0
 30 27  1  0  0  0  0
 30 29  1  0  0  0  0
 30 31  1  0  0  0  0
 32 47  1  1  0  0  0
 32  1  1  0  0  0  0
 33 32  1  0  0  0  0
 34 33  2  0  0  0  0
 35 33  1  0  0  0  0
 37 36  1  6  0  0  0
 37 35  1  0  0  0  0
 38 39  2  0  0  0  0
 39 37  1  0  0  0  0
 40 41  1  0  0  0  0
 40 38  1  0  0  0  0
 41 42  1  0  0  0  0
 42 43  1  0  0  0  0
 43 44  1  0  0  0  0
 44 45  1  0  0  0  0
 46 45  1  0  0  0  0
 48 47  2  0  0  0  0
M  END
>  <MODEL>
6

>  <REMARK>
 VINA RESULT:      -5.7      4.047     10.117
  Name = 
  21 active torsions:
  status: ('A' for Active; 'I' for Inactive)
    1  A    between atoms: C_1  and  C_19
    2  A    between atoms: C_4  and  N_37
    3  A    between atoms: C_6  and  C_35
    4  A    between atoms: C_7  and  C_12
    5  A    between atoms: C_7  and  O_26
    6  A    between atoms: C_8  and  O_31
    7  A    between atoms: C_8  and  C_33
    8  A    between atoms: C_9  and  C_23
    9  A    between atoms: C_9  and  N_24
   10  A    between atoms: C_10  and  C_35
   11  A    between atoms: O_11  and  C_18
   12  A    between atoms: C_12  and  N_14
   13  A    between atoms: C_13  and  C_19
   14  A    between atoms: N_14  and  C_22
   15  A    between atoms: C_16  and  C_35
   16  A    between atoms: C_18  and  O_26
   17  A    between atoms: C_25  and  C_28
   18  A    between atoms: C_25  and  P_34
   19  A    between atoms: C_28  and  C_33
   20  A    between atoms: O_31  and  C_43
   21  A    between atoms: C_36  and  C_42
                            x       y       z     vdW  Elec       q    Type
                         _______ _______ _______ _____ _____    ______ ____

>  <TORSDO>
F 21

$$$$
=
 OpenBabel10232412163D

 48 50  0  0  1  0  0  0  0  0999 V2000
  185.5530  177.3870  137.2680 C   0  0  0  0  0  0  0  0  0  0  0  0
  183.9860  174.7630  136.8650 C   0  0  0  0  0  3  0  0  0  0  0  0
  184.0830  177.6350  137.4310 C   0  0  0  0  0  2  0  0  0  0  0  0
  186.0060  176.2770  136.6350 C   0  0  0  0  0  0  0  0  0  0  0  0
  183.3970  175.3700  138.0740 C   0  0  0  0  0  3  0  0  0  0  0  0
  183.4670  176.6630  138.3890 C   0  0  0  0  0  0  0  0  0  0  0  0
  185.1040  175.1620  136.2430 C   0  0  0  0  0  3  0  0  0  0  0  0
  187.8310  176.5100  135.1390 O   0  0  0  0  0  0  0  0  0  0  0  0
  188.3640  175.5300  137.1950 N   0  0  0  0  0  2  0  0  0  0  0  0
  187.4340  176.1030  136.2650 C   0  0  0  0  0  0  0  0  0  0  0  0
  192.4830  174.7350  136.5570 C   0  0  0  0  0  0  0  0  0  0  0  0
  191.5530  173.6920  136.5650 C   0  0  0  0  0  3  0  0  0  0  0  0
  189.7610  175.2790  136.9850 C   0  0  0  0  0  0  0  0  0  0  0  0
  192.0580  176.0490  136.7690 C   0  0  0  0  0  3  0  0  0  0  0  0
  190.7040  176.3200  136.9810 C   0  0  0  0  0  3  0  0  0  0  0  0
  190.1960  173.9610  136.7750 C   0  0  0  0  0  0  0  0  0  0  0  0
  189.2840  172.9130  136.7710 O   0  0  0  0  0  1  0  0  0  0  0  0
  193.9290  174.4430  136.3480 C   0  0  0  0  0  2  0  0  0  0  0  0
  194.7660  175.1530  137.3950 C   0  0  2  0  0  3  0  0  0  0  0  0
  196.0920  174.5240  137.4590 N   0  0  0  0  0  2  0  0  0  0  0  0
  195.0760  174.2310  138.4790 C   0  0  0  0  0  2  0  0  0  0  0  0
  182.9120  177.0700  139.6110 O   0  0  0  0  0  0  0  0  0  0  0  0
  181.9210  178.0470  139.7850 C   0  0  0  0  0  0  0  0  0  0  0  0
  180.9240  178.1250  139.0180 O   0  0  0  0  0  0  0  0  0  0  0  0
  182.0320  178.9910  140.9280 C   0  0  0  0  0  2  0  0  0  0  0  0
  182.9480  178.4100  141.9840 C   0  0  0  0  0  2  0  0  0  0  0  0
  182.6320  179.0330  143.3270 C   0  0  0  0  0  2  0  0  0  0  0  0
  185.1110  178.0580  143.8650 O   0  0  0  0  0  0  0  0  0  0  0  0
  183.7560  178.8530  145.9560 O   0  0  0  0  0  1  0  0  0  0  0  0
  184.1410  179.1180  144.3310 P   0  0  0  0  0  0  0  0  0  0  0  0
  184.8520  180.6430  144.1600 O   0  0  0  0  0  1  0  0  0  0  0  0
  186.4990  178.4240  137.8240 C   0  0  1  0  0  3  0  0  0  0  0  0
  187.0390  178.0580  139.1850 C   0  0  0  0  0  0  0  0  0  0  0  0
  186.3190  178.2070  140.2120 O   0  0  0  0  0  0  0  0  0  0  0  0
  188.3990  177.6350  139.3280 N   0  0  0  0  0  2  0  0  0  0  0  0
  190.4070  176.8100  140.4190 C   0  0  0  0  0  1  0  0  0  0  0  0
  188.9800  177.2870  140.6150 C   0  0  1  0  0  3  0  0  0  0  0  0
  188.6060  178.4230  142.7920 C   0  0  0  0  0  3  0  0  0  0  0  0
  188.9580  178.4840  141.5090 C   0  0  0  0  0  3  0  0  0  0  0  0
  188.2140  177.1930  143.4000 N   0  0  0  0  0  2  0  0  0  0  0  0
  188.7620  176.7830  144.6830 C   0  0  0  0  0  2  0  0  0  0  0  0
  189.6680  177.8670  145.2460 C   0  0  0  0  0  2  0  0  0  0  0  0
  189.3540  178.1000  146.5850 O   0  0  0  0  0  0  0  0  0  0  0  0
  189.6680  176.9080  147.2350 C   0  0  0  0  0  2  0  0  0  0  0  0
  190.9080  177.0300  147.8620 O   0  0  0  0  0  0  0  0  0  0  0  0
  191.7550  176.1930  147.1340 C   0  0  0  0  0  1  0  0  0  0  0  0
  187.5800  178.7290  136.8320 C   0  0  0  0  0  3  0  0  0  0  0  0
  188.5170  179.4480  137.1360 O   0  0  0  0  0  0  0  0  0  0  0  0
  1  3  1  0  0  0  0
  1 32  1  0  0  0  0
  2  5  1  0  0  0  0
  3  6  1  0  0  0  0
  4  1  2  0  0  0  0
  5  6  2  0  0  0  0
  6 22  1  0  0  0  0
  7  4  1  0  0  0  0
  7  2  2  0  0  0  0
  8 10  2  0  0  0  0
 10  4  1  0  0  0  0
 10  9  1  0  0  0  0
 11 12  2  0  0  0  0
 11 14  1  0  0  0  0
 12 16  1  0  0  0  0
 13  9  1  0  0  0  0
 14 15  2  0  0  0  0
 15 13  1  0  0  0  0
 16 13  2  0  0  0  0
 17 16  1  0  0  0  0
 18 11  1  0  0  0  0
 19 18  1  6  0  0  0
 19 20  1  0  0  0  0
 19 21  1  0  0  0  0
 20 21  1  0  0  0  0
 22 23  1  0  0  0  0
 23 25  1  0  0  0  0
 24 23  2  0  0  0  0
 25 26  1  0  0  0  0
 26 27  1  0  0  0  0
 27 30  1  0  0  0  0
 28 30  2  0  0  0  0
 30 29  1  0  0  0  0
 31 30  1  0  0  0  0
 32 47  1  6  0  0  0
 32 33  1  0  0  0  0
 33 35  1  0  0  0  0
 33 34  2  0  0  0  0
 35 37  1  0  0  0  0
 37 36  1  6  0  0  0
 37 39  1  0  0  0  0
 38 40  1  0  0  0  0
 39 38  2  0  0  0  0
 40 41  1  0  0  0  0
 41 42  1  0  0  0  0
 42 43  1  0  0  0  0
 43 44  1  0  0  0  0
 44 45  1  0  0  0  0
 46 45  1  0  0  0  0
 47 48  2  0  0  0  0
M  END
>  <MODEL>
7

>  <REMARK>
 VINA RESULT:      -5.4      3.869      9.657
  Name = 
  21 active torsions:
  status: ('A' for Active; 'I' for Inactive)
    1  A    between atoms: C_1  and  C_19
    2  A    between atoms: C_4  and  N_37
    3  A    between atoms: C_6  and  C_35
    4  A    between atoms: C_7  and  C_12
    5  A    between atoms: C_7  and  O_26
    6  A    between atoms: C_8  and  O_31
    7  A    between atoms: C_8  and  C_33
    8  A    between atoms: C_9  and  C_23
    9  A    between atoms: C_9  and  N_24
   10  A    between atoms: C_10  and  C_35
   11  A    between atoms: O_11  and  C_18
   12  A    between atoms: C_12  and  N_14
   13  A    between atoms: C_13  and  C_19
   14  A    between atoms: N_14  and  C_22
   15  A    between atoms: C_16  and  C_35
   16  A    between atoms: C_18  and  O_26
   17  A    between atoms: C_25  and  C_28
   18  A    between atoms: C_25  and  P_34
   19  A    between atoms: C_28  and  C_33
   20  A    between atoms: O_31  and  C_43
   21  A    between atoms: C_36  and  C_42
                            x       y       z     vdW  Elec       q    Type
                         _______ _______ _______ _____ _____    ______ ____

>  <TORSDO>
F 21

$$$$
=
 OpenBabel10232412163D

 48 50  0  0  1  0  0  0  0  0999 V2000
  190.8220  176.4280  138.4070 C   0  0  0  0  0  0  0  0  0  0  0  0
  190.6070  175.4560  135.4890 C   0  0  0  0  0  3  0  0  0  0  0  0
  191.8340  175.3510  138.1460 C   0  0  0  0  0  2  0  0  0  0  0  0
  189.7540  176.5920  137.5880 C   0  0  0  0  0  0  0  0  0  0  0  0
  192.0540  175.6320  135.7210 C   0  0  0  0  0  3  0  0  0  0  0  0
  192.6390  175.6420  136.9180 C   0  0  0  0  0  0  0  0  0  0  0  0
  189.6210  175.8620  136.3000 C   0  0  0  0  0  3  0  0  0  0  0  0
  188.8490  178.7260  138.0850 O   0  0  0  0  0  0  0  0  0  0  0  0
  187.2880  176.9860  138.0290 N   0  0  0  0  0  2  0  0  0  0  0  0
  188.6260  177.4950  137.9300 C   0  0  0  0  0  0  0  0  0  0  0  0
  183.7500  179.1230  138.9870 C   0  0  0  0  0  0  0  0  0  0  0  0
  183.8360  178.3920  137.7990 C   0  0  0  0  0  3  0  0  0  0  0  0
  186.1010  177.7180  138.3670 C   0  0  0  0  0  0  0  0  0  0  0  0
  184.8370  179.1600  139.8630 C   0  0  0  0  0  3  0  0  0  0  0  0
  186.0070  178.4600  139.5550 C   0  0  0  0  0  3  0  0  0  0  0  0
  185.0060  177.6890  137.4900 C   0  0  0  0  0  0  0  0  0  0  0  0
  185.0710  176.9600  136.3080 O   0  0  0  0  0  1  0  0  0  0  0  0
  182.5090  179.8830  139.3060 C   0  0  0  0  0  2  0  0  0  0  0  0
  181.3570  178.9280  139.5570 C   0  0  2  0  0  3  0  0  0  0  0  0
  180.7440  179.2430  140.8550 N   0  0  0  0  0  2  0  0  0  0  0  0
  181.6550  178.0980  140.7170 C   0  0  0  0  0  2  0  0  0  0  0  0
  194.0180  175.8890  136.9700 O   0  0  0  0  0  0  0  0  0  0  0  0
  195.0090  174.9710  137.3480 C   0  0  0  0  0  0  0  0  0  0  0  0
  195.7400  175.1590  138.3560 O   0  0  0  0  0  0  0  0  0  0  0  0
  195.1730  173.7220  136.5570 C   0  0  0  0  0  2  0  0  0  0  0  0
  194.5880  172.5530  137.3220 C   0  0  0  0  0  2  0  0  0  0  0  0
  195.7000  171.6160  137.7440 C   0  0  0  0  0  2  0  0  0  0  0  0
  196.5170  169.3170  136.5460 O   0  0  0  0  0  1  0  0  0  0  0  0
  194.0160  169.9580  136.1250 O   0  0  0  0  0  0  0  0  0  0  0  0
  195.3070  169.9250  137.2170 P   0  0  0  0  0  0  0  0  0  0  0  0
  194.8850  168.9930  138.5630 O   0  0  0  0  0  1  0  0  0  0  0  0
  191.0370  177.3050  139.6160 C   0  0  1  0  0  3  0  0  0  0  0  0
  190.4730  176.7090  140.8820 C   0  0  0  0  0  0  0  0  0  0  0  0
  189.4570  175.9600  140.8310 O   0  0  0  0  0  0  0  0  0  0  0  0
  191.0260  177.0680  142.1530 N   0  0  0  0  0  2  0  0  0  0  0  0
  191.6010  175.7490  144.1110 C   0  0  0  0  0  1  0  0  0  0  0  0
  190.5140  176.5400  143.4070 C   0  0  1  0  0  3  0  0  0  0  0  0
  188.7840  177.8720  144.5940 C   0  0  0  0  0  3  0  0  0  0  0  0
  190.0610  177.6710  144.2730 C   0  0  0  0  0  3  0  0  0  0  0  0
  187.7520  177.0100  144.1170 N   0  0  0  0  0  2  0  0  0  0  0  0
  186.7750  177.4760  143.1450 C   0  0  0  0  0  2  0  0  0  0  0  0
  185.9950  178.6570  143.6990 C   0  0  0  0  0  2  0  0  0  0  0  0
  184.6850  178.2710  143.9840 O   0  0  0  0  0  0  0  0  0  0  0  0
  184.3080  179.0690  145.0620 C   0  0  0  0  0  2  0  0  0  0  0  0
  184.6330  178.4260  146.2560 O   0  0  0  0  0  0  0  0  0  0  0  0
  185.7190  179.1440  146.7580 C   0  0  0  0  0  1  0  0  0  0  0  0
  192.4830  177.6760  139.7410 C   0  0  0  0  0  3  0  0  0  0  0  0
  193.2800  176.9060  140.2510 O   0  0  0  0  0  0  0  0  0  0  0  0
  1 32  1  0  0  0  0
  2  5  1  0  0  0  0
  2  7  2  0  0  0  0
  3  1  1  0  0  0  0
  4 10  1  0  0  0  0
  4  1  2  0  0  0  0
  5  6  2  0  0  0  0
  6 22  1  0  0  0  0
  6  3  1  0  0  0  0
  7  4  1  0  0  0  0
  9 13  1  0  0  0  0
 10  9  1  0  0  0  0
 10  8  2  0  0  0  0
 11 18  1  0  0  0  0
 11 14  1  0  0  0  0
 12 11  2  0  0  0  0
 13 15  1  0  0  0  0
 15 14  2  0  0  0  0
 16 12  1  0  0  0  0
 16 13  2  0  0  0  0
 17 16  1  0  0  0  0
 19 18  1  1  0  0  0
 19 21  1  0  0  0  0
 19 20  1  0  0  0  0
 21 20  1  0  0  0  0
 22 23  1  0  0  0  0
 23 24  2  0  0  0  0
 25 26  1  0  0  0  0
 25 23  1  0  0  0  0
 26 27  1  0  0  0  0
 28 30  1  0  0  0  0
 29 30  2  0  0  0  0
 30 27  1  0  0  0  0
 30 31  1  0  0  0  0
 32 47  1  1  0  0  0
 32 33  1  0  0  0  0
 33 35  1  0  0  0  0
 34 33  2  0  0  0  0
 35 37  1  0  0  0  0
 37 36  1  1  0  0  0
 37 39  1  0  0  0  0
 39 38  2  0  0  0  0
 40 38  1  0  0  0  0
 41 42  1  0  0  0  0
 41 40  1  0  0  0  0
 42 43  1  0  0  0  0
 43 44  1  0  0  0  0
 44 45  1  0  0  0  0
 45 46  1  0  0  0  0
 47 48  2  0  0  0  0
M  END
>  <MODEL>
8

>  <REMARK>
 VINA RESULT:      -5.2      2.373      6.001
  Name = 
  21 active torsions:
  status: ('A' for Active; 'I' for Inactive)
    1  A    between atoms: C_1  and  C_19
    2  A    between atoms: C_4  and  N_37
    3  A    between atoms: C_6  and  C_35
    4  A    between atoms: C_7  and  C_12
    5  A    between atoms: C_7  and  O_26
    6  A    between atoms: C_8  and  O_31
    7  A    between atoms: C_8  and  C_33
    8  A    between atoms: C_9  and  C_23
    9  A    between atoms: C_9  and  N_24
   10  A    between atoms: C_10  and  C_35
   11  A    between atoms: O_11  and  C_18
   12  A    between atoms: C_12  and  N_14
   13  A    between atoms: C_13  and  C_19
   14  A    between atoms: N_14  and  C_22
   15  A    between atoms: C_16  and  C_35
   16  A    between atoms: C_18  and  O_26
   17  A    between atoms: C_25  and  C_28
   18  A    between atoms: C_25  and  P_34
   19  A    between atoms: C_28  and  C_33
   20  A    between atoms: O_31  and  C_43
   21  A    between atoms: C_36  and  C_42
                            x       y       z     vdW  Elec       q    Type
                         _______ _______ _______ _____ _____    ______ ____

>  <TORSDO>
F 21

$$$$
=
 OpenBabel10232412163D

 48 50  0  0  1  0  0  0  0  0999 V2000
  187.4060  176.3520  137.3640 C   0  0  0  0  0  0  0  0  0  0  0  0
  186.8360  173.9830  135.4750 C   0  0  0  0  0  3  0  0  0  0  0  0
  188.4160  175.2650  137.5820 C   0  0  0  0  0  2  0  0  0  0  0  0
  186.2300  176.0940  136.7390 C   0  0  0  0  0  0  0  0  0  0  0  0
  188.2930  174.2000  135.3770 C   0  0  0  0  0  3  0  0  0  0  0  0
  189.0340  174.8250  136.2910 C   0  0  0  0  0  0  0  0  0  0  0  0
  185.9540  174.7960  136.0710 C   0  0  0  0  0  3  0  0  0  0  0  0
  184.7410  177.5320  135.5820 O   0  0  0  0  0  0  0  0  0  0  0  0
  184.4550  177.4820  137.9030 N   0  0  0  0  0  2  0  0  0  0  0  0
  185.1230  177.0830  136.6970 C   0  0  0  0  0  0  0  0  0  0  0  0
  181.3360  180.3300  138.3130 C   0  0  0  0  0  0  0  0  0  0  0  0
  182.5400  180.4920  139.0060 C   0  0  0  0  0  3  0  0  0  0  0  0
  183.3880  178.4330  138.0330 C   0  0  0  0  0  0  0  0  0  0  0  0
  181.1530  179.2190  137.4860 C   0  0  0  0  0  3  0  0  0  0  0  0
  182.1740  178.2760  137.3450 C   0  0  0  0  0  3  0  0  0  0  0  0
  183.5640  179.5490  138.8650 C   0  0  0  0  0  0  0  0  0  0  0  0
  184.7570  179.7300  139.5560 O   0  0  0  0  0  1  0  0  0  0  0  0
  180.2420  181.3270  138.4760 C   0  0  0  0  0  2  0  0  0  0  0  0
  180.7170  182.7030  138.0500 C   0  0  2  0  0  3  0  0  0  0  0  0
  179.9820  183.1150  136.8450 N   0  0  0  0  0  2  0  0  0  0  0  0
  181.3600  182.6150  136.7460 C   0  0  0  0  0  2  0  0  0  0  0  0
  190.3960  175.0090  136.0150 O   0  0  0  0  0  0  0  0  0  0  0  0
  191.4650  174.6430  136.8460 C   0  0  0  0  0  0  0  0  0  0  0  0
  191.3270  173.8050  137.7760 O   0  0  0  0  0  0  0  0  0  0  0  0
  192.8070  175.2330  136.5960 C   0  0  0  0  0  2  0  0  0  0  0  0
  193.8660  174.1560  136.7080 C   0  0  0  0  0  2  0  0  0  0  0  0
  195.2160  174.7970  136.9570 C   0  0  0  0  0  2  0  0  0  0  0  0
  197.4010  174.0970  138.4130 O   0  0  0  0  0  0  0  0  0  0  0  0
  195.2620  172.6630  138.8680 O   0  0  0  0  0  1  0  0  0  0  0  0
  195.8980  174.1920  138.5260 P   0  0  0  0  0  0  0  0  0  0  0  0
  195.4960  175.2630  139.7720 O   0  0  0  0  0  1  0  0  0  0  0  0
  187.7460  177.7300  137.8760 C   0  0  1  0  0  3  0  0  0  0  0  0
  188.7450  177.7070  139.0080 C   0  0  0  0  0  0  0  0  0  0  0  0
  189.9820  177.7330  138.7590 O   0  0  0  0  0  0  0  0  0  0  0  0
  188.2960  177.5570  140.3580 N   0  0  0  0  0  2  0  0  0  0  0  0
  188.8830  178.6310  142.4570 C   0  0  0  0  0  1  0  0  0  0  0  0
  189.2100  177.5100  141.4870 C   0  0  1  0  0  3  0  0  0  0  0  0
  190.0000  175.7240  143.0220 C   0  0  0  0  0  3  0  0  0  0  0  0
  189.0860  176.1880  142.1720 C   0  0  0  0  0  3  0  0  0  0  0  0
  191.1770  176.4690  143.3310 N   0  0  0  0  0  2  0  0  0  0  0  0
  191.5200  176.7930  144.7070 C   0  0  0  0  0  2  0  0  0  0  0  0
  190.5130  177.7700  145.2900 C   0  0  0  0  0  2  0  0  0  0  0  0
  189.7690  177.1460  146.2910 O   0  0  0  0  0  0  0  0  0  0  0  0
  188.4800  177.6530  146.1420 C   0  0  0  0  0  2  0  0  0  0  0  0
  187.7310  177.3700  147.2840 O   0  0  0  0  0  0  0  0  0  0  0  0
  188.5560  177.7380  148.3470 C   0  0  0  0  0  1  0  0  0  0  0  0
  188.1690  178.6170  136.7450 C   0  0  0  0  0  3  0  0  0  0  0  0
  188.1460  179.8310  136.8650 O   0  0  0  0  0  0  0  0  0  0  0  0
  1  3  1  0  0  0  0
  1 32  1  0  0  0  0
  2  7  2  0  0  0  0
  4  1  2  0  0  0  0
  5  2  1  0  0  0  0
  5  6  2  0  0  0  0
  6  3  1  0  0  0  0
  7  4  1  0  0  0  0
  8 10  2  0  0  0  0
  9 13  1  0  0  0  0
 10  4  1  0  0  0  0
 10  9  1  0  0  0  0
 11 18  1  0  0  0  0
 11 12  1  0  0  0  0
 13 16  1  0  0  0  0
 14 11  2  0  0  0  0
 15 14  1  0  0  0  0
 15 13  2  0  0  0  0
 16 12  2  0  0  0  0
 16 17  1  0  0  0  0
 19 18  1  6  0  0  0
 20 19  1  0  0  0  0
 21 20  1  0  0  0  0
 21 19  1  0  0  0  0
 22  6  1  0  0  0  0
 22 23  1  0  0  0  0
 23 24  2  0  0  0  0
 25 26  1  0  0  0  0
 25 23  1  0  0  0  0
 26 27  1  0  0  0  0
 27 30  1  0  0  0  0
 28 30  2  0  0  0  0
 30 29  1  0  0  0  0
 30 31  1  0  0  0  0
 32 47  1  6  0  0  0
 32 33  1  0  0  0  0
 33 35  1  0  0  0  0
 34 33  2  0  0  0  0
 35 37  1  0  0  0  0
 37 39  1  0  0  0  0
 37 36  1  1  0  0  0
 38 40  1  0  0  0  0
 39 38  2  0  0  0  0
 40 41  1  0  0  0  0
 41 42  1  0  0  0  0
 42 43  1  0  0  0  0
 44 43  1  0  0  0  0
 44 45  1  0  0  0  0
 45 46  1  0  0  0  0
 47 48  2  0  0  0  0
M  END
>  <MODEL>
9

>  <REMARK>
 VINA RESULT:      -5.2      2.704      7.017
  Name = 
  21 active torsions:
  status: ('A' for Active; 'I' for Inactive)
    1  A    between atoms: C_1  and  C_19
    2  A    between atoms: C_4  and  N_37
    3  A    between atoms: C_6  and  C_35
    4  A    between atoms: C_7  and  C_12
    5  A    between atoms: C_7  and  O_26
    6  A    between atoms: C_8  and  O_31
    7  A    between atoms: C_8  and  C_33
    8  A    between atoms: C_9  and  C_23
    9  A    between atoms: C_9  and  N_24
   10  A    between atoms: C_10  and  C_35
   11  A    between atoms: O_11  and  C_18
   12  A    between atoms: C_12  and  N_14
   13  A    between atoms: C_13  and  C_19
   14  A    between atoms: N_14  and  C_22
   15  A    between atoms: C_16  and  C_35
   16  A    between atoms: C_18  and  O_26
   17  A    between atoms: C_25  and  C_28
   18  A    between atoms: C_25  and  P_34
   19  A    between atoms: C_28  and  C_33
   20  A    between atoms: O_31  and  C_43
   21  A    between atoms: C_36  and  C_42
                            x       y       z     vdW  Elec       q    Type
                         _______ _______ _______ _____ _____    ______ ____

>  <TORSDO>
F 21

$$$$
