=
 OpenBabel10232410023D

 28 30  0  0  0  0  0  0  0  0999 V2000
  190.1930  178.4280  143.0270 C   0  0  0  0  0  2  0  0  0  0  0  0
  189.1540  177.4150  142.6520 C   0  0  0  0  0  0  0  0  0  0  0  0
  188.2010  177.4480  144.9580 C   0  0  0  0  0  0  0  0  0  0  0  0
  191.0780  177.9060  144.0600 N   0  0  0  0  0  0  0  0  0  0  0  0
  189.2910  177.6510  145.7090 C   0  0  0  0  0  3  0  0  0  0  0  0
  190.7020  177.5890  145.2680 C   0  0  0  0  0  0  0  0  0  0  0  0
  188.2420  177.0230  143.5400 C   0  0  0  0  0  3  0  0  0  0  0  0
  191.6770  177.2070  146.2430 N   0  0  0  0  0  0  0  0  0  0  0  0
  191.5480  176.1630  146.9970 C   0  0  0  0  0  3  0  0  0  0  0  0
  192.5680  175.8410  147.9540 C   0  0  0  0  0  0  0  0  0  0  0  0
  193.3890  175.5810  148.7270 N   0  0  0  0  0  0  0  0  0  0  0  0
  186.8780  177.4810  145.6490 C   0  0  0  0  0  2  0  0  0  0  0  0
  185.8370  178.1120  144.7870 C   0  0  0  0  0  0  0  0  0  0  0  0
  183.5870  178.7440  142.8250 C   0  0  0  0  0  0  0  0  0  0  0  0
  181.5270  178.9150  143.9430 C   0  0  0  0  0  3  0  0  0  0  0  0
  182.9690  178.8070  144.1380 C   0  0  0  0  0  0  0  0  0  0  0  0
  181.2400  178.9750  142.6780 N   0  0  0  0  0  0  0  0  0  0  0  0
  185.7840  177.7800  143.4920 C   0  0  0  0  0  3  0  0  0  0  0  0
  184.7860  178.2460  142.5090 C   0  0  0  0  0  3  0  0  0  0  0  0
  185.0110  179.2110  145.3830 C   0  0  0  0  0  2  0  0  0  0  0  0
  182.4550  178.9180  141.9280 C   0  0  0  0  0  0  0  0  0  0  0  0
  182.4870  178.7020  140.3060 S   0  0  0  0  0  0  0  0  0  0  0  0
  183.5740  178.9800  145.2710 N   0  0  0  0  0  0  0  0  0  0  0  0
  189.0890  176.8980  141.3520 O   0  0  0  0  0  0  0  0  0  0  0  0
  189.7910  177.4720  140.2540 C   0  0  0  0  0  2  0  0  0  0  0  0
  188.8080  177.9520  139.1960 C   0  0  0  0  0  2  0  0  0  0  0  0
  186.6480  178.5380  138.8720 O   0  0  0  0  0  1  0  0  0  0  0  0
  187.6070  178.4760  139.8300 N   0  0  0  0  0  2  0  0  0  0  0  0
  1  4  1  0  0  0  0
  2  1  1  0  0  0  0
  2  7  2  0  0  0  0
  3 12  1  0  0  0  0
  3  5  2  0  0  0  0
  4  6  2  0  0  0  0
  6  5  1  0  0  0  0
  6  8  1  0  0  0  0
  7  3  1  0  0  0  0
  8  9  2  0  0  0  0
  9 10  1  0  0  0  0
 10 11  3  0  0  0  0
 13 20  1  0  0  0  0
 13 12  1  0  0  0  0
 14 16  1  0  0  0  0
 15 16  1  0  0  0  0
 16 23  2  0  0  0  0
 17 15  2  0  0  0  0
 18 13  2  0  0  0  0
 19 14  2  0  0  0  0
 19 18  1  0  0  0  0
 21 17  1  0  0  0  0
 21 14  1  0  0  0  0
 22 21  2  0  0  0  0
 23 20  1  0  0  0  0
 24  2  1  0  0  0  0
 25 24  1  0  0  0  0
 26 28  1  0  0  0  0
 26 25  1  0  0  0  0
 27 28  1  0  0  0  0
M  END
>  <MODEL>
1

>  <REMARK>
 VINA RESULT:      -8.6      0.000      0.000
  Name = 
  8 active torsions:
  status: ('A' for Active; 'I' for Inactive)
    1  A    between atoms: C_1  and  C_3
    2  A    between atoms: C_3  and  C_11
    3  A    between atoms: C_7  and  O_9
    4  A    between atoms: C_8  and  O_9
    5  A    between atoms: C_8  and  C_22
    6  A    between atoms: N_15  and  C_19
    7  A    between atoms: C_16  and  C_20
    8  A    between atoms: C_22  and  N_25
                            x       y       z     vdW  Elec       q    Type
                         _______ _______ _______ _____ _____    ______ ____

>  <TORSDO>
F 8

$$$$
=
 OpenBabel10232410023D

 28 30  0  0  0  0  0  0  0  0999 V2000
  190.2840  175.8400  142.9390 C   0  0  0  0  0  2  0  0  0  0  0  0
  190.3950  176.5940  144.2290 C   0  0  0  0  0  0  0  0  0  0  0  0
  188.0210  177.3440  144.0640 C   0  0  0  0  0  0  0  0  0  0  0  0
  190.0050  176.7420  141.8310 N   0  0  0  0  0  0  0  0  0  0  0  0
  187.8600  177.4810  142.7420 C   0  0  0  0  0  3  0  0  0  0  0  0
  188.9180  177.4520  141.7080 C   0  0  0  0  0  0  0  0  0  0  0  0
  189.3390  177.2330  144.7300 C   0  0  0  0  0  3  0  0  0  0  0  0
  188.6890  178.2100  140.5150 N   0  0  0  0  0  0  0  0  0  0  0  0
  189.3220  177.9890  139.4080 C   0  0  0  0  0  3  0  0  0  0  0  0
  189.0400  178.7900  138.2510 C   0  0  0  0  0  0  0  0  0  0  0  0
  188.8120  179.4370  137.3190 N   0  0  0  0  0  0  0  0  0  0  0  0
  186.8060  177.4940  144.9200 C   0  0  0  0  0  2  0  0  0  0  0  0
  185.6840  178.1140  144.1570 C   0  0  0  0  0  0  0  0  0  0  0  0
  183.2390  178.7210  142.4360 C   0  0  0  0  0  0  0  0  0  0  0  0
  181.3190  178.9690  143.7700 C   0  0  0  0  0  3  0  0  0  0  0  0
  182.7730  178.8410  143.8070 C   0  0  0  0  0  0  0  0  0  0  0  0
  180.8930  178.9910  142.5430 N   0  0  0  0  0  0  0  0  0  0  0  0
  185.4820  177.7400  142.8890 C   0  0  0  0  0  3  0  0  0  0  0  0
  184.3870  178.1900  142.0060 C   0  0  0  0  0  3  0  0  0  0  0  0
  184.9470  179.2490  144.8010 C   0  0  0  0  0  2  0  0  0  0  0  0
  182.0160  178.8850  141.6650 C   0  0  0  0  0  0  0  0  0  0  0  0
  181.8630  178.6130  140.0590 S   0  0  0  0  0  0  0  0  0  0  0  0
  183.5040  179.0410  144.8580 N   0  0  0  0  0  0  0  0  0  0  0  0
  191.5920  176.6060  144.9560 O   0  0  0  0  0  0  0  0  0  0  0  0
  191.6360  176.7320  146.3730 C   0  0  0  0  0  2  0  0  0  0  0  0
  192.3700  175.5460  146.9830 C   0  0  0  0  0  2  0  0  0  0  0  0
  192.4350  177.1530  148.5730 O   0  0  0  0  0  1  0  0  0  0  0  0
  192.8070  175.8700  148.3340 N   0  0  0  0  0  2  0  0  0  0  0  0
  1  2  1  0  0  0  0
  2  7  2  0  0  0  0
  2 24  1  0  0  0  0
  3  7  1  0  0  0  0
  3 12  1  0  0  0  0
  4  1  1  0  0  0  0
  5  3  2  0  0  0  0
  6  4  2  0  0  0  0
  6  5  1  0  0  0  0
  8  6  1  0  0  0  0
  9  8  2  0  0  0  0
 10  9  1  0  0  0  0
 11 10  3  0  0  0  0
 13 20  1  0  0  0  0
 13 12  1  0  0  0  0
 14 16  1  0  0  0  0
 15 16  1  0  0  0  0
 16 23  2  0  0  0  0
 17 15  2  0  0  0  0
 18 13  2  0  0  0  0
 19 14  2  0  0  0  0
 19 18  1  0  0  0  0
 20 23  1  0  0  0  0
 21 14  1  0  0  0  0
 21 17  1  0  0  0  0
 22 21  2  0  0  0  0
 24 25  1  0  0  0  0
 25 26  1  0  0  0  0
 26 28  1  0  0  0  0
 28 27  1  0  0  0  0
M  END
>  <MODEL>
2

>  <REMARK>
 VINA RESULT:      -8.3      2.058      5.406
  Name = 
  8 active torsions:
  status: ('A' for Active; 'I' for Inactive)
    1  A    between atoms: C_1  and  C_3
    2  A    between atoms: C_3  and  C_11
    3  A    between atoms: C_7  and  O_9
    4  A    between atoms: C_8  and  O_9
    5  A    between atoms: C_8  and  C_22
    6  A    between atoms: N_15  and  C_19
    7  A    between atoms: C_16  and  C_20
    8  A    between atoms: C_22  and  N_25
                            x       y       z     vdW  Elec       q    Type
                         _______ _______ _______ _____ _____    ______ ____

>  <TORSDO>
F 8

$$$$
=
 OpenBabel10232410023D

 28 30  0  0  0  0  0  0  0  0999 V2000
  189.3280  178.5420  138.2930 C   0  0  0  0  0  2  0  0  0  0  0  0
  188.6590  178.2850  139.6090 C   0  0  0  0  0  0  0  0  0  0  0  0
  190.7540  177.3120  140.5530 C   0  0  0  0  0  0  0  0  0  0  0  0
  189.7530  177.2940  137.6740 N   0  0  0  0  0  0  0  0  0  0  0  0
  191.2950  176.7180  139.4820 C   0  0  0  0  0  3  0  0  0  0  0  0
  190.6520  176.4890  138.1700 C   0  0  0  0  0  0  0  0  0  0  0  0
  189.3450  177.7620  140.6240 C   0  0  0  0  0  3  0  0  0  0  0  0
  191.0870  175.3530  137.4150 N   0  0  0  0  0  0  0  0  0  0  0  0
  192.2050  174.7420  137.6440 C   0  0  0  0  0  3  0  0  0  0  0  0
  192.5770  173.6080  136.8460 C   0  0  0  0  0  0  0  0  0  0  0  0
  192.8760  172.6940  136.2020 N   0  0  0  0  0  0  0  0  0  0  0  0
  191.5740  177.3520  141.8000 C   0  0  0  0  0  2  0  0  0  0  0  0
  190.7300  177.1090  143.0060 C   0  0  0  0  0  0  0  0  0  0  0  0
  188.9770  177.3070  145.4940 C   0  0  0  0  0  0  0  0  0  0  0  0
  186.7020  177.1110  144.9320 C   0  0  0  0  0  3  0  0  0  0  0  0
  188.0610  176.9800  144.4150 C   0  0  0  0  0  0  0  0  0  0  0  0
  186.7220  177.4240  146.1930 N   0  0  0  0  0  0  0  0  0  0  0  0
  191.0080  177.7730  144.1330 C   0  0  0  0  0  3  0  0  0  0  0  0
  190.2450  177.7140  145.3960 C   0  0  0  0  0  3  0  0  0  0  0  0
  189.7180  176.0050  142.9360 C   0  0  0  0  0  2  0  0  0  0  0  0
  188.0820  177.5210  146.6220 C   0  0  0  0  0  0  0  0  0  0  0  0
  188.5120  178.1490  148.0700 S   0  0  0  0  0  0  0  0  0  0  0  0
  188.3670  176.4390  143.2780 N   0  0  0  0  0  0  0  0  0  0  0  0
  187.3170  178.6300  139.8150 O   0  0  0  0  0  0  0  0  0  0  0  0
  186.7380  178.7510  141.1100 C   0  0  0  0  0  2  0  0  0  0  0  0
  185.2640  179.1100  140.9950 C   0  0  0  0  0  2  0  0  0  0  0  0
  184.4160  180.2870  139.2610 O   0  0  0  0  0  1  0  0  0  0  0  0
  184.8410  179.0450  139.6030 N   0  0  0  0  0  2  0  0  0  0  0  0
  1  2  1  0  0  0  0
  2 24  1  0  0  0  0
  2  7  2  0  0  0  0
  3  7  1  0  0  0  0
  3 12  1  0  0  0  0
  4  6  2  0  0  0  0
  4  1  1  0  0  0  0
  5  3  2  0  0  0  0
  6  5  1  0  0  0  0
  8  9  2  0  0  0  0
  8  6  1  0  0  0  0
 10  9  1  0  0  0  0
 11 10  3  0  0  0  0
 12 13  1  0  0  0  0
 13 18  2  0  0  0  0
 14 21  1  0  0  0  0
 15 17  2  0  0  0  0
 16 15  1  0  0  0  0
 16 14  1  0  0  0  0
 17 21  1  0  0  0  0
 18 19  1  0  0  0  0
 19 14  2  0  0  0  0
 20 13  1  0  0  0  0
 20 23  1  0  0  0  0
 21 22  2  0  0  0  0
 23 16  2  0  0  0  0
 24 25  1  0  0  0  0
 26 25  1  0  0  0  0
 27 28  1  0  0  0  0
 28 26  1  0  0  0  0
M  END
>  <MODEL>
3

>  <REMARK>
 VINA RESULT:      -8.2      3.491      6.616
  Name = 
  8 active torsions:
  status: ('A' for Active; 'I' for Inactive)
    1  A    between atoms: C_1  and  C_3
    2  A    between atoms: C_3  and  C_11
    3  A    between atoms: C_7  and  O_9
    4  A    between atoms: C_8  and  O_9
    5  A    between atoms: C_8  and  C_22
    6  A    between atoms: N_15  and  C_19
    7  A    between atoms: C_16  and  C_20
    8  A    between atoms: C_22  and  N_25
                            x       y       z     vdW  Elec       q    Type
                         _______ _______ _______ _____ _____    ______ ____

>  <TORSDO>
F 8

$$$$
=
 OpenBabel10232410023D

 28 30  0  0  0  0  0  0  0  0999 V2000
  187.8210  176.5510  143.2840 C   0  0  0  0  0  2  0  0  0  0  0  0
  187.7360  177.8330  142.5140 C   0  0  0  0  0  0  0  0  0  0  0  0
  190.0400  177.5150  141.6120 C   0  0  0  0  0  0  0  0  0  0  0  0
  188.8800  176.6130  144.2820 N   0  0  0  0  0  0  0  0  0  0  0  0
  190.6590  176.9060  142.6310 C   0  0  0  0  0  3  0  0  0  0  0  0
  190.1490  176.7340  144.0090 C   0  0  0  0  0  0  0  0  0  0  0  0
  188.7440  178.2210  141.7350 C   0  0  0  0  0  3  0  0  0  0  0  0
  191.1180  176.6560  145.0610 N   0  0  0  0  0  0  0  0  0  0  0  0
  190.7980  176.4560  146.2990 C   0  0  0  0  0  3  0  0  0  0  0  0
  191.8250  176.3900  147.3010 C   0  0  0  0  0  0  0  0  0  0  0  0
  192.6500  176.3370  148.1100 N   0  0  0  0  0  0  0  0  0  0  0  0
  190.7940  177.6390  140.3290 C   0  0  0  0  0  2  0  0  0  0  0  0
  189.9010  177.4070  139.1570 C   0  0  0  0  0  0  0  0  0  0  0  0
  187.8620  176.3830  137.1330 C   0  0  0  0  0  0  0  0  0  0  0  0
  185.8080  177.5000  137.3760 C   0  0  0  0  0  3  0  0  0  0  0  0
  187.2070  177.4980  137.7940 C   0  0  0  0  0  0  0  0  0  0  0  0
  185.5870  176.5550  136.5140 N   0  0  0  0  0  0  0  0  0  0  0  0
  189.8510  176.1850  138.6150 C   0  0  0  0  0  3  0  0  0  0  0  0
  188.9800  175.7540  137.5040 C   0  0  0  0  0  3  0  0  0  0  0  0
  189.2330  178.6000  138.5440 C   0  0  0  0  0  2  0  0  0  0  0  0
  186.8090  175.8510  136.2810 C   0  0  0  0  0  0  0  0  0  0  0  0
  186.8740  174.4360  135.4620 S   0  0  0  0  0  0  0  0  0  0  0  0
  187.7840  178.4610  138.4420 N   0  0  0  0  0  0  0  0  0  0  0  0
  186.5810  178.6250  142.5590 O   0  0  0  0  0  0  0  0  0  0  0  0
  185.2660  178.0780  142.5360 C   0  0  0  0  0  2  0  0  0  0  0  0
  184.5830  178.4110  141.2180 C   0  0  0  0  0  2  0  0  0  0  0  0
  184.5020  179.8820  139.5030 O   0  0  0  0  0  1  0  0  0  0  0  0
  185.2580  179.5280  140.5730 N   0  0  0  0  0  2  0  0  0  0  0  0
  1  4  1  0  0  0  0
  2 24  1  0  0  0  0
  2  1  1  0  0  0  0
  3  7  1  0  0  0  0
  3  5  2  0  0  0  0
  5  6  1  0  0  0  0
  6  4  2  0  0  0  0
  6  8  1  0  0  0  0
  7  2  2  0  0  0  0
  8  9  2  0  0  0  0
  9 10  1  0  0  0  0
 10 11  3  0  0  0  0
 12  3  1  0  0  0  0
 13 12  1  0  0  0  0
 14 19  2  0  0  0  0
 14 16  1  0  0  0  0
 15 16  1  0  0  0  0
 16 23  2  0  0  0  0
 17 15  2  0  0  0  0
 18 13  2  0  0  0  0
 19 18  1  0  0  0  0
 20 13  1  0  0  0  0
 21 17  1  0  0  0  0
 21 14  1  0  0  0  0
 22 21  2  0  0  0  0
 23 20  1  0  0  0  0
 25 24  1  0  0  0  0
 26 25  1  0  0  0  0
 27 28  1  0  0  0  0
 28 26  1  0  0  0  0
M  END
>  <MODEL>
4

>  <REMARK>
 VINA RESULT:      -7.8      2.729      5.372
  Name = 
  8 active torsions:
  status: ('A' for Active; 'I' for Inactive)
    1  A    between atoms: C_1  and  C_3
    2  A    between atoms: C_3  and  C_11
    3  A    between atoms: C_7  and  O_9
    4  A    between atoms: C_8  and  O_9
    5  A    between atoms: C_8  and  C_22
    6  A    between atoms: N_15  and  C_19
    7  A    between atoms: C_16  and  C_20
    8  A    between atoms: C_22  and  N_25
                            x       y       z     vdW  Elec       q    Type
                         _______ _______ _______ _____ _____    ______ ____

>  <TORSDO>
F 8

$$$$
=
 OpenBabel10232410023D

 28 30  0  0  0  0  0  0  0  0999 V2000
  190.2510  176.3850  138.3630 C   0  0  0  0  0  2  0  0  0  0  0  0
  191.4640  176.7840  139.1470 C   0  0  0  0  0  0  0  0  0  0  0  0
  190.2130  176.5900  141.2970 C   0  0  0  0  0  0  0  0  0  0  0  0
  189.1800  177.3560  138.5340 N   0  0  0  0  0  0  0  0  0  0  0  0
  188.9810  176.9760  140.9410 C   0  0  0  0  0  3  0  0  0  0  0  0
  188.5790  177.6060  139.6650 C   0  0  0  0  0  0  0  0  0  0  0  0
  191.4230  176.8290  140.4780 C   0  0  0  0  0  3  0  0  0  0  0  0
  187.4510  178.4870  139.6960 N   0  0  0  0  0  0  0  0  0  0  0  0
  186.3410  178.2320  139.0820 C   0  0  0  0  0  3  0  0  0  0  0  0
  185.2510  179.1640  139.1570 C   0  0  0  0  0  0  0  0  0  0  0  0
  184.3730  179.9150  139.2200 N   0  0  0  0  0  0  0  0  0  0  0  0
  190.3890  176.0520  142.6790 C   0  0  0  0  0  2  0  0  0  0  0  0
  189.6170  176.8560  143.6710 C   0  0  0  0  0  0  0  0  0  0  0  0
  187.6940  177.9020  145.7950 C   0  0  0  0  0  0  0  0  0  0  0  0
  188.6810  177.8240  147.9280 C   0  0  0  0  0  3  0  0  0  0  0  0
  188.9450  177.6760  146.4990 C   0  0  0  0  0  0  0  0  0  0  0  0
  187.4430  178.1600  148.1320 N   0  0  0  0  0  0  0  0  0  0  0  0
  188.2810  176.8160  143.6340 C   0  0  0  0  0  3  0  0  0  0  0  0
  187.3580  177.4860  144.5720 C   0  0  0  0  0  3  0  0  0  0  0  0
  190.3820  177.7990  144.5500 C   0  0  0  0  0  2  0  0  0  0  0  0
  186.7820  178.2680  146.8690 C   0  0  0  0  0  0  0  0  0  0  0  0
  185.1590  178.4130  146.7270 S   0  0  0  0  0  0  0  0  0  0  0  0
  190.1260  177.5970  145.9730 N   0  0  0  0  0  0  0  0  0  0  0  0
  192.6750  177.0710  138.5040 O   0  0  0  0  0  0  0  0  0  0  0  0
  193.1180  176.3780  137.3420 C   0  0  0  0  0  2  0  0  0  0  0  0
  193.6730  175.0130  137.7250 C   0  0  0  0  0  2  0  0  0  0  0  0
  195.4350  175.0380  139.1410 O   0  0  0  0  0  1  0  0  0  0  0  0
  195.1250  175.0740  137.8210 N   0  0  0  0  0  2  0  0  0  0  0  0
  1  4  1  0  0  0  0
  1  2  1  0  0  0  0
  2  7  2  0  0  0  0
  3 12  1  0  0  0  0
  4  6  2  0  0  0  0
  5  3  2  0  0  0  0
  6  8  1  0  0  0  0
  6  5  1  0  0  0  0
  7  3  1  0  0  0  0
  9 10  1  0  0  0  0
  9  8  2  0  0  0  0
 10 11  3  0  0  0  0
 12 13  1  0  0  0  0
 13 20  1  0  0  0  0
 14 16  1  0  0  0  0
 14 21  1  0  0  0  0
 15 17  2  0  0  0  0
 16 15  1  0  0  0  0
 18 13  2  0  0  0  0
 18 19  1  0  0  0  0
 19 14  2  0  0  0  0
 20 23  1  0  0  0  0
 21 17  1  0  0  0  0
 22 21  2  0  0  0  0
 23 16  2  0  0  0  0
 24  2  1  0  0  0  0
 25 26  1  0  0  0  0
 25 24  1  0  0  0  0
 26 28  1  0  0  0  0
 28 27  1  0  0  0  0
M  END
>  <MODEL>
5

>  <REMARK>
 VINA RESULT:      -7.7      3.460      6.907
  Name = 
  8 active torsions:
  status: ('A' for Active; 'I' for Inactive)
    1  A    between atoms: C_1  and  C_3
    2  A    between atoms: C_3  and  C_11
    3  A    between atoms: C_7  and  O_9
    4  A    between atoms: C_8  and  O_9
    5  A    between atoms: C_8  and  C_22
    6  A    between atoms: N_15  and  C_19
    7  A    between atoms: C_16  and  C_20
    8  A    between atoms: C_22  and  N_25
                            x       y       z     vdW  Elec       q    Type
                         _______ _______ _______ _____ _____    ______ ____

>  <TORSDO>
F 8

$$$$
=
 OpenBabel10232410023D

 28 30  0  0  0  0  0  0  0  0999 V2000
  184.4010  179.1280  139.6560 C   0  0  0  0  0  2  0  0  0  0  0  0
  183.6620  178.1450  140.5120 C   0  0  0  0  0  0  0  0  0  0  0  0
  185.0050  178.7880  142.5140 C   0  0  0  0  0  0  0  0  0  0  0  0
  185.8140  178.7880  139.5760 N   0  0  0  0  0  0  0  0  0  0  0  0
  186.1970  179.0680  141.9750 C   0  0  0  0  0  3  0  0  0  0  0  0
  186.6360  178.7910  140.5890 C   0  0  0  0  0  0  0  0  0  0  0  0
  183.9330  178.0440  141.8120 C   0  0  0  0  0  3  0  0  0  0  0  0
  188.0340  178.5650  140.3770 N   0  0  0  0  0  0  0  0  0  0  0  0
  188.6730  177.5680  140.8990 C   0  0  0  0  0  3  0  0  0  0  0  0
  190.0760  177.4050  140.6430 C   0  0  0  0  0  0  0  0  0  0  0  0
  191.2070  177.2750  140.4370 N   0  0  0  0  0  0  0  0  0  0  0  0
  184.8230  179.0870  143.9660 C   0  0  0  0  0  2  0  0  0  0  0  0
  185.8460  178.3830  144.7920 C   0  0  0  0  0  0  0  0  0  0  0  0
  188.3640  177.4340  146.2290 C   0  0  0  0  0  0  0  0  0  0  0  0
  188.4560  178.2980  148.4140 C   0  0  0  0  0  3  0  0  0  0  0  0
  187.6020  178.1480  147.2390 C   0  0  0  0  0  0  0  0  0  0  0  0
  189.6000  177.7110  148.2250 N   0  0  0  0  0  0  0  0  0  0  0  0
  187.0170  178.0600  144.2320 C   0  0  0  0  0  3  0  0  0  0  0  0
  188.1670  177.4280  144.9080 C   0  0  0  0  0  3  0  0  0  0  0  0
  185.4410  177.9250  146.1610 C   0  0  0  0  0  2  0  0  0  0  0  0
  189.6040  177.1210  146.9230 C   0  0  0  0  0  0  0  0  0  0  0  0
  190.9590  176.5250  146.2250 S   0  0  0  0  0  0  0  0  0  0  0  0
  186.3310  178.4010  147.2150 N   0  0  0  0  0  0  0  0  0  0  0  0
  182.6410  177.3480  139.9770 O   0  0  0  0  0  0  0  0  0  0  0  0
  182.5230  177.0740  138.5850 C   0  0  0  0  0  2  0  0  0  0  0  0
  183.3180  175.8270  138.2260 C   0  0  0  0  0  2  0  0  0  0  0  0
  184.0980  177.2650  136.6650 O   0  0  0  0  0  1  0  0  0  0  0  0
  184.4630  176.1840  137.4010 N   0  0  0  0  0  2  0  0  0  0  0  0
  1  2  1  0  0  0  0
  2  7  2  0  0  0  0
  3 12  1  0  0  0  0
  4  1  1  0  0  0  0
  4  6  2  0  0  0  0
  5  3  2  0  0  0  0
  6  5  1  0  0  0  0
  7  3  1  0  0  0  0
  8  6  1  0  0  0  0
  8  9  2  0  0  0  0
 10  9  1  0  0  0  0
 11 10  3  0  0  0  0
 12 13  1  0  0  0  0
 13 20  1  0  0  0  0
 14 21  1  0  0  0  0
 14 16  1  0  0  0  0
 16 15  1  0  0  0  0
 17 15  2  0  0  0  0
 18 13  2  0  0  0  0
 18 19  1  0  0  0  0
 19 14  2  0  0  0  0
 20 23  1  0  0  0  0
 21 17  1  0  0  0  0
 22 21  2  0  0  0  0
 23 16  2  0  0  0  0
 24  2  1  0  0  0  0
 25 24  1  0  0  0  0
 26 25  1  0  0  0  0
 27 28  1  0  0  0  0
 28 26  1  0  0  0  0
M  END
>  <MODEL>
6

>  <REMARK>
 VINA RESULT:      -7.7      3.352      6.304
  Name = 
  8 active torsions:
  status: ('A' for Active; 'I' for Inactive)
    1  A    between atoms: C_1  and  C_3
    2  A    between atoms: C_3  and  C_11
    3  A    between atoms: C_7  and  O_9
    4  A    between atoms: C_8  and  O_9
    5  A    between atoms: C_8  and  C_22
    6  A    between atoms: N_15  and  C_19
    7  A    between atoms: C_16  and  C_20
    8  A    between atoms: C_22  and  N_25
                            x       y       z     vdW  Elec       q    Type
                         _______ _______ _______ _____ _____    ______ ____

>  <TORSDO>
F 8

$$$$
=
 OpenBabel10232410023D

 28 30  0  0  0  0  0  0  0  0999 V2000
  184.2960  179.1300  139.7100 C   0  0  0  0  0  2  0  0  0  0  0  0
  183.5310  178.1490  140.5450 C   0  0  0  0  0  0  0  0  0  0  0  0
  184.8190  178.7900  142.5840 C   0  0  0  0  0  0  0  0  0  0  0  0
  185.7100  178.7870  139.6690 N   0  0  0  0  0  0  0  0  0  0  0  0
  186.0270  179.0670  142.0770 C   0  0  0  0  0  3  0  0  0  0  0  0
  186.5030  178.7890  140.7050 C   0  0  0  0  0  0  0  0  0  0  0  0
  183.7660  178.0480  141.8520 C   0  0  0  0  0  3  0  0  0  0  0  0
  187.9060  178.5600  140.5320 N   0  0  0  0  0  0  0  0  0  0  0  0
  188.5470  177.6180  141.1470 C   0  0  0  0  0  3  0  0  0  0  0  0
  189.9550  177.4480  140.9240 C   0  0  0  0  0  0  0  0  0  0  0  0
  191.0900  177.3110  140.7460 N   0  0  0  0  0  0  0  0  0  0  0  0
  184.5980  179.0900  144.0300 C   0  0  0  0  0  2  0  0  0  0  0  0
  185.6130  178.4060  144.8820 C   0  0  0  0  0  0  0  0  0  0  0  0
  188.1210  177.4830  146.3540 C   0  0  0  0  0  0  0  0  0  0  0  0
  188.2250  178.4310  148.5040 C   0  0  0  0  0  3  0  0  0  0  0  0
  187.3680  178.2460  147.3360 C   0  0  0  0  0  0  0  0  0  0  0  0
  189.3610  177.8230  148.3380 N   0  0  0  0  0  0  0  0  0  0  0  0
  186.7790  178.0480  144.3350 C   0  0  0  0  0  3  0  0  0  0  0  0
  187.9220  177.4290  145.0350 C   0  0  0  0  0  3  0  0  0  0  0  0
  185.2040  178.0070  146.2680 C   0  0  0  0  0  2  0  0  0  0  0  0
  189.3570  177.1830  147.0600 C   0  0  0  0  0  0  0  0  0  0  0  0
  190.7040  176.5430  146.3850 S   0  0  0  0  0  0  0  0  0  0  0  0
  186.1000  178.5120  147.3030 N   0  0  0  0  0  0  0  0  0  0  0  0
  182.5240  177.3540  139.9820 O   0  0  0  0  0  0  0  0  0  0  0  0
  181.1520  177.4710  140.3450 C   0  0  0  0  0  2  0  0  0  0  0  0
  180.5210  178.6580  139.6330 C   0  0  0  0  0  2  0  0  0  0  0  0
  180.0010  179.6150  141.6140 O   0  0  0  0  0  1  0  0  0  0  0  0
  180.6510  179.8570  140.4480 N   0  0  0  0  0  2  0  0  0  0  0  0
  1  2  1  0  0  0  0
  2  7  2  0  0  0  0
  3 12  1  0  0  0  0
  4  1  1  0  0  0  0
  4  6  2  0  0  0  0
  5  3  2  0  0  0  0
  6  5  1  0  0  0  0
  7  3  1  0  0  0  0
  8  6  1  0  0  0  0
  8  9  2  0  0  0  0
 10  9  1  0  0  0  0
 11 10  3  0  0  0  0
 12 13  1  0  0  0  0
 13 20  1  0  0  0  0
 14 21  1  0  0  0  0
 14 16  1  0  0  0  0
 16 15  1  0  0  0  0
 17 15  2  0  0  0  0
 18 13  2  0  0  0  0
 18 19  1  0  0  0  0
 19 14  2  0  0  0  0
 20 23  1  0  0  0  0
 21 17  1  0  0  0  0
 22 21  2  0  0  0  0
 23 16  2  0  0  0  0
 24 25  1  0  0  0  0
 24  2  1  0  0  0  0
 26 25  1  0  0  0  0
 26 28  1  0  0  0  0
 28 27  1  0  0  0  0
M  END
>  <MODEL>
7

>  <REMARK>
 VINA RESULT:      -7.6      3.253      6.590
  Name = 
  8 active torsions:
  status: ('A' for Active; 'I' for Inactive)
    1  A    between atoms: C_1  and  C_3
    2  A    between atoms: C_3  and  C_11
    3  A    between atoms: C_7  and  O_9
    4  A    between atoms: C_8  and  O_9
    5  A    between atoms: C_8  and  C_22
    6  A    between atoms: N_15  and  C_19
    7  A    between atoms: C_16  and  C_20
    8  A    between atoms: C_22  and  N_25
                            x       y       z     vdW  Elec       q    Type
                         _______ _______ _______ _____ _____    ______ ____

>  <TORSDO>
F 8

$$$$
=
 OpenBabel10232410023D

 28 30  0  0  0  0  0  0  0  0999 V2000
  189.7990  175.7670  138.2480 C   0  0  0  0  0  2  0  0  0  0  0  0
  191.1740  176.3610  138.2370 C   0  0  0  0  0  0  0  0  0  0  0  0
  190.8710  177.2590  140.5450 C   0  0  0  0  0  0  0  0  0  0  0  0
  188.7850  176.8050  138.3690 N   0  0  0  0  0  0  0  0  0  0  0  0
  189.5650  177.5560  140.5610 C   0  0  0  0  0  3  0  0  0  0  0  0
  188.6430  177.5850  139.4050 C   0  0  0  0  0  0  0  0  0  0  0  0
  191.6430  176.9970  139.3090 C   0  0  0  0  0  3  0  0  0  0  0  0
  187.5330  178.4870  139.4750 N   0  0  0  0  0  0  0  0  0  0  0  0
  186.3550  178.1900  139.0280 C   0  0  0  0  0  3  0  0  0  0  0  0
  185.2890  179.1450  139.1320 C   0  0  0  0  0  0  0  0  0  0  0  0
  184.4300  179.9160  139.2140 N   0  0  0  0  0  0  0  0  0  0  0  0
  191.6160  177.3790  141.8330 C   0  0  0  0  0  2  0  0  0  0  0  0
  190.7180  177.1310  142.9980 C   0  0  0  0  0  0  0  0  0  0  0  0
  188.8950  177.3190  145.4370 C   0  0  0  0  0  0  0  0  0  0  0  0
  186.6340  177.2910  144.7950 C   0  0  0  0  0  3  0  0  0  0  0  0
  187.9990  177.1000  144.3150 C   0  0  0  0  0  0  0  0  0  0  0  0
  186.6290  177.5410  146.0690 N   0  0  0  0  0  0  0  0  0  0  0  0
  190.9960  177.7230  144.1650 C   0  0  0  0  0  3  0  0  0  0  0  0
  190.1890  177.6510  145.3990 C   0  0  0  0  0  3  0  0  0  0  0  0
  189.6450  176.0970  142.8430 C   0  0  0  0  0  2  0  0  0  0  0  0
  187.9770  177.5340  146.5450 C   0  0  0  0  0  0  0  0  0  0  0  0
  188.3940  178.0660  148.0350 S   0  0  0  0  0  0  0  0  0  0  0  0
  188.3110  176.5960  143.1620 N   0  0  0  0  0  0  0  0  0  0  0  0
  192.0100  176.2200  137.1210 O   0  0  0  0  0  0  0  0  0  0  0  0
  193.4310  176.2550  137.2100 C   0  0  0  0  0  2  0  0  0  0  0  0
  193.9570  174.9190  137.7150 C   0  0  0  0  0  2  0  0  0  0  0  0
  195.3480  175.2930  139.4580 O   0  0  0  0  0  1  0  0  0  0  0  0
  195.3490  175.0530  138.1230 N   0  0  0  0  0  2  0  0  0  0  0  0
  1  4  1  0  0  0  0
  2  1  1  0  0  0  0
  2  7  2  0  0  0  0
  3  5  2  0  0  0  0
  3 12  1  0  0  0  0
  4  6  2  0  0  0  0
  6  8  1  0  0  0  0
  6  5  1  0  0  0  0
  7  3  1  0  0  0  0
  9 10  1  0  0  0  0
  9  8  2  0  0  0  0
 10 11  3  0  0  0  0
 12 13  1  0  0  0  0
 13 18  2  0  0  0  0
 14 21  1  0  0  0  0
 15 17  2  0  0  0  0
 16 15  1  0  0  0  0
 16 14  1  0  0  0  0
 17 21  1  0  0  0  0
 18 19  1  0  0  0  0
 19 14  2  0  0  0  0
 20 13  1  0  0  0  0
 20 23  1  0  0  0  0
 21 22  2  0  0  0  0
 23 16  2  0  0  0  0
 24 25  1  0  0  0  0
 24  2  1  0  0  0  0
 25 26  1  0  0  0  0
 26 28  1  0  0  0  0
 28 27  1  0  0  0  0
M  END
>  <MODEL>
8

>  <REMARK>
 VINA RESULT:      -7.5      3.819      7.177
  Name = 
  8 active torsions:
  status: ('A' for Active; 'I' for Inactive)
    1  A    between atoms: C_1  and  C_3
    2  A    between atoms: C_3  and  C_11
    3  A    between atoms: C_7  and  O_9
    4  A    between atoms: C_8  and  O_9
    5  A    between atoms: C_8  and  C_22
    6  A    between atoms: N_15  and  C_19
    7  A    between atoms: C_16  and  C_20
    8  A    between atoms: C_22  and  N_25
                            x       y       z     vdW  Elec       q    Type
                         _______ _______ _______ _____ _____    ______ ____

>  <TORSDO>
F 8

$$$$
=
 OpenBabel10232410023D

 28 30  0  0  0  0  0  0  0  0999 V2000
  187.1580  177.7890  138.5140 C   0  0  0  0  0  2  0  0  0  0  0  0
  188.5260  178.3880  138.3960 C   0  0  0  0  0  0  0  0  0  0  0  0
  189.0230  177.8760  140.7860 C   0  0  0  0  0  0  0  0  0  0  0  0
  186.3500  178.5260  139.4760 N   0  0  0  0  0  0  0  0  0  0  0  0
  187.8240  178.0270  141.3610 C   0  0  0  0  0  3  0  0  0  0  0  0
  186.6100  178.6130  140.7510 C   0  0  0  0  0  0  0  0  0  0  0  0
  189.3600  178.3760  139.4330 C   0  0  0  0  0  3  0  0  0  0  0  0
  185.6800  179.2560  141.6290 N   0  0  0  0  0  0  0  0  0  0  0  0
  185.0540  178.6300  142.5730 C   0  0  0  0  0  3  0  0  0  0  0  0
  184.1350  179.3400  143.4160 C   0  0  0  0  0  0  0  0  0  0  0  0
  183.3920  179.9120  144.0950 N   0  0  0  0  0  0  0  0  0  0  0  0
  190.1260  177.3330  141.6350 C   0  0  0  0  0  2  0  0  0  0  0  0
  189.6840  177.1700  143.0500 C   0  0  0  0  0  0  0  0  0  0  0  0
  188.8220  177.5320  145.9540 C   0  0  0  0  0  0  0  0  0  0  0  0
  186.4780  177.5530  146.1350 C   0  0  0  0  0  3  0  0  0  0  0  0
  187.5890  177.2940  145.2240 C   0  0  0  0  0  0  0  0  0  0  0  0
  186.9190  177.8610  147.3170 N   0  0  0  0  0  0  0  0  0  0  0  0
  190.3590  177.8040  144.0150 C   0  0  0  0  0  3  0  0  0  0  0  0
  190.0270  177.8170  145.4540 C   0  0  0  0  0  3  0  0  0  0  0  0
  188.6050  176.1670  143.3310 C   0  0  0  0  0  2  0  0  0  0  0  0
  188.3480  177.8290  147.2980 C   0  0  0  0  0  0  0  0  0  0  0  0
  189.2640  178.4130  148.5210 S   0  0  0  0  0  0  0  0  0  0  0  0
  187.4740  176.7270  144.0640 N   0  0  0  0  0  0  0  0  0  0  0  0
  188.9730  178.9290  137.1830 O   0  0  0  0  0  0  0  0  0  0  0  0
  188.8980  178.2250  135.9470 C   0  0  0  0  0  2  0  0  0  0  0  0
  189.8120  177.0090  135.9800 C   0  0  0  0  0  2  0  0  0  0  0  0
  187.8350  176.0980  135.3690 O   0  0  0  0  0  1  0  0  0  0  0  0
  189.0200  175.7880  135.9530 N   0  0  0  0  0  2  0  0  0  0  0  0
  1  4  1  0  0  0  0
  2  1  1  0  0  0  0
  2  7  2  0  0  0  0
  3  5  2  0  0  0  0
  3 12  1  0  0  0  0
  4  6  2  0  0  0  0
  6  5  1  0  0  0  0
  6  8  1  0  0  0  0
  7  3  1  0  0  0  0
  8  9  2  0  0  0  0
  9 10  1  0  0  0  0
 10 11  3  0  0  0  0
 12 13  1  0  0  0  0
 13 20  1  0  0  0  0
 13 18  2  0  0  0  0
 14 21  1  0  0  0  0
 15 17  2  0  0  0  0
 16 14  1  0  0  0  0
 16 15  1  0  0  0  0
 18 19  1  0  0  0  0
 19 14  2  0  0  0  0
 20 23  1  0  0  0  0
 21 17  1  0  0  0  0
 21 22  2  0  0  0  0
 23 16  2  0  0  0  0
 24  2  1  0  0  0  0
 25 26  1  0  0  0  0
 25 24  1  0  0  0  0
 27 28  1  0  0  0  0
 28 26  1  0  0  0  0
M  END
>  <MODEL>
9

>  <REMARK>
 VINA RESULT:      -7.2      3.253      6.383
  Name = 
  8 active torsions:
  status: ('A' for Active; 'I' for Inactive)
    1  A    between atoms: C_1  and  C_3
    2  A    between atoms: C_3  and  C_11
    3  A    between atoms: C_7  and  O_9
    4  A    between atoms: C_8  and  O_9
    5  A    between atoms: C_8  and  C_22
    6  A    between atoms: N_15  and  C_19
    7  A    between atoms: C_16  and  C_20
    8  A    between atoms: C_22  and  N_25
                            x       y       z     vdW  Elec       q    Type
                         _______ _______ _______ _____ _____    ______ ____

>  <TORSDO>
F 8

$$$$
