=
 OpenBabel10232409203D

 30 32  0  0  1  0  0  0  0  0999 V2000
  189.9650  177.6640  142.1870 C   0  0  1  0  0  3  0  0  0  0  0  0
  185.7020  179.2540  140.3680 N   0  0  0  0  0  0  0  0  0  0  0  0
  187.9370  177.4850  143.4440 O   0  0  0  0  0  0  0  0  0  0  0  0
  188.4910  177.8490  142.3710 C   0  0  0  0  0  0  0  0  0  0  0  0
  184.1350  178.8410  141.8450 C   0  0  0  0  0  0  0  0  0  0  0  0
  187.7340  178.4590  141.3210 N   0  0  0  0  0  2  0  0  0  0  0  0
  185.3960  178.3370  142.4650 C   0  0  0  0  0  2  0  0  0  0  0  0
  186.3220  178.6940  141.3500 C   0  0  0  0  0  0  0  0  0  0  0  0
  184.3430  179.3460  140.6770 N   0  0  0  0  0  0  0  0  0  0  0  0
  182.6440  179.0490  143.7090 N   0  0  0  0  0  2  0  0  0  0  0  0
  182.8060  178.7880  142.4560 C   0  0  0  0  0  3  0  0  0  0  0  0
  191.6140  176.6110  145.2570 C   0  0  0  0  0  0  0  0  0  0  0  0
  191.7480  177.9120  145.3700 O   0  0  0  0  0  0  0  0  0  0  0  0
  192.2210  175.4650  146.4320 Cl  0  0  0  0  0  0  0  0  0  0  0  0
  190.9390  176.2680  144.0950 C   0  0  0  0  0  3  0  0  0  0  0  0
  190.6590  177.4850  143.5020 C   0  0  0  0  0  0  0  0  0  0  0  0
  191.1380  179.8630  144.0930 N   0  0  0  0  0  1  0  0  0  0  0  0
  191.1860  178.4590  144.3250 C   0  0  0  0  0  0  0  0  0  0  0  0
  190.2400  176.5420  141.3000 N   0  0  0  0  0  2  0  0  0  0  0  0
  192.9410  176.6830  138.1100 C   0  0  0  0  0  0  0  0  0  0  0  0
  190.7090  176.1000  138.9420 C   0  0  1  0  0  3  0  0  0  0  0  0
  193.3740  176.6740  139.5530 C   0  0  0  0  0  2  0  0  0  0  0  0
  191.6670  176.4110  137.8310 C   0  0  0  0  0  3  0  0  0  0  0  0
  190.8880  177.0750  140.1130 C   0  0  2  0  0  3  0  0  0  0  0  0
  192.3590  177.4160  140.4310 C   0  0  0  0  0  2  0  0  0  0  0  0
  189.4100  176.1570  138.4690 F   0  0  0  0  0  0  0  0  0  0  0  0
  195.4260  176.5680  135.3290 N   0  0  0  0  0  1  0  0  0  0  0  0
  194.6010  176.0990  136.3890 C   0  0  0  0  0  0  0  0  0  0  0  0
  194.6330  174.7150  136.7280 N   0  0  0  0  0  1  0  0  0  0  0  0
  193.8440  176.9460  137.0230 N   0  0  0  0  0  0  0  0  0  0  0  0
  1 19  1  6  0  0  0
  1  4  1  0  0  0  0
  1 16  1  0  0  0  0
  2  9  1  0  0  0  0
  2  8  2  0  0  0  0
  4  3  2  0  0  0  0
  5 11  1  0  0  0  0
  5  7  1  0  0  0  0
  6  8  1  0  0  0  0
  6  4  1  0  0  0  0
  8  7  1  0  0  0  0
  9  5  2  0  0  0  0
 11 10  2  0  0  0  0
 12 13  1  0  0  0  0
 12 14  1  0  0  0  0
 15 12  2  0  0  0  0
 16 15  1  0  0  0  0
 16 18  2  0  0  0  0
 17 18  1  0  0  0  0
 18 13  1  0  0  0  0
 20 22  1  0  0  0  0
 21 26  1  6  0  0  0
 21 24  1  0  0  0  0
 22 25  1  0  0  0  0
 23 20  2  0  0  0  0
 23 21  1  0  0  0  0
 24 25  1  0  0  0  0
 24 19  1  1  0  0  0
 27 28  1  0  0  0  0
 28 29  1  0  0  0  0
 28 30  2  0  0  0  0
 30 20  1  0  0  0  0
M  END
>  <MODEL>
1

>  <REMARK>
 VINA RESULT:      -7.9      0.000      0.000
  Name = 
  6 active torsions:
  status: ('A' for Active; 'I' for Inactive)
    1  A    between atoms: C_3  and  N_24
    2  A    between atoms: C_8  and  C_25
    3  A    between atoms: C_12  and  C_25
    4  A    between atoms: C_13  and  C_21
    5  A    between atoms: C_25  and  N_27
    6  A    between atoms: C_26  and  N_27
                            x       y       z     vdW  Elec       q    Type
                         _______ _______ _______ _____ _____    ______ ____

>  <TORSDO>
F 6

$$$$
=
 OpenBabel10232409203D

 30 32  0  0  1  0  0  0  0  0999 V2000
  186.5170  178.5210  143.5840 C   0  0  1  0  0  3  0  0  0  0  0  0
  189.1820  178.0960  139.4950 N   0  0  0  0  0  0  0  0  0  0  0  0
  185.4910  178.5800  141.4240 O   0  0  0  0  0  0  0  0  0  0  0  0
  186.5560  178.4700  142.0890 C   0  0  0  0  0  0  0  0  0  0  0  0
  187.8150  178.1600  137.7820 C   0  0  0  0  0  0  0  0  0  0  0  0
  187.8190  178.3110  141.4350 N   0  0  0  0  0  2  0  0  0  0  0  0
  186.9400  178.2970  138.9820 C   0  0  0  0  0  2  0  0  0  0  0  0
  188.0130  178.2350  140.0190 C   0  0  0  0  0  0  0  0  0  0  0  0
  189.0600  178.0500  138.1050 N   0  0  0  0  0  0  0  0  0  0  0  0
  186.2340  177.6000  136.0720 N   0  0  0  0  0  2  0  0  0  0  0  0
  187.3580  178.1470  136.3920 C   0  0  0  0  0  3  0  0  0  0  0  0
  182.9440  178.7480  144.2470 C   0  0  0  0  0  0  0  0  0  0  0  0
  183.4090  179.1480  145.4080 O   0  0  0  0  0  0  0  0  0  0  0  0
  181.2390  178.6050  143.8800 Cl  0  0  0  0  0  0  0  0  0  0  0  0
  183.9710  178.4530  143.3620 C   0  0  0  0  0  3  0  0  0  0  0  0
  185.1190  178.7180  144.0850 C   0  0  0  0  0  0  0  0  0  0  0  0
  185.5720  179.5020  146.4120 N   0  0  0  0  0  1  0  0  0  0  0  0
  184.7140  179.1350  145.3360 C   0  0  0  0  0  0  0  0  0  0  0  0
  187.1080  177.3220  144.1620 N   0  0  0  0  0  2  0  0  0  0  0  0
  190.2970  176.9510  146.8430 C   0  0  0  0  0  0  0  0  0  0  0  0
  189.4910  176.9110  144.5260 C   0  0  1  0  0  3  0  0  0  0  0  0
  188.8590  176.7480  147.2430 C   0  0  0  0  0  2  0  0  0  0  0  0
  190.5850  177.0300  145.5440 C   0  0  0  0  0  3  0  0  0  0  0  0
  188.2650  177.7400  144.9370 C   0  0  2  0  0  3  0  0  0  0  0  0
  187.9340  177.6730  146.4430 C   0  0  0  0  0  2  0  0  0  0  0  0
  189.9530  177.3260  143.2910 F   0  0  0  0  0  0  0  0  0  0  0  0
  193.3350  176.4840  148.9570 N   0  0  0  0  0  1  0  0  0  0  0  0
  192.3680  176.2140  147.9500 C   0  0  0  0  0  0  0  0  0  0  0  0
  192.5180  175.0470  147.1450 N   0  0  0  0  0  1  0  0  0  0  0  0
  191.3710  177.0350  147.7930 N   0  0  0  0  0  0  0  0  0  0  0  0
  1  4  1  6  0  0  0
  1 16  1  0  0  0  0
  1 19  1  0  0  0  0
  2  8  2  0  0  0  0
  3  4  2  0  0  0  0
  5  9  2  0  0  0  0
  5  7  1  0  0  0  0
  6  4  1  0  0  0  0
  7  8  1  0  0  0  0
  8  6  1  0  0  0  0
  9  2  1  0  0  0  0
 10 11  2  0  0  0  0
 11  5  1  0  0  0  0
 12 13  1  0  0  0  0
 14 12  1  0  0  0  0
 15 16  1  0  0  0  0
 15 12  2  0  0  0  0
 16 18  2  0  0  0  0
 18 13  1  0  0  0  0
 18 17  1  0  0  0  0
 20 22  1  0  0  0  0
 20 30  1  0  0  0  0
 21 26  1  6  0  0  0
 21 24  1  0  0  0  0
 21 23  1  0  0  0  0
 23 20  2  0  0  0  0
 24 19  1  6  0  0  0
 24 25  1  0  0  0  0
 25 22  1  0  0  0  0
 28 27  1  0  0  0  0
 29 28  1  0  0  0  0
 30 28  2  0  0  0  0
M  END
>  <MODEL>
2

>  <REMARK>
 VINA RESULT:      -7.8      4.518      7.443
  Name = 
  6 active torsions:
  status: ('A' for Active; 'I' for Inactive)
    1  A    between atoms: C_3  and  N_24
    2  A    between atoms: C_8  and  C_25
    3  A    between atoms: C_12  and  C_25
    4  A    between atoms: C_13  and  C_21
    5  A    between atoms: C_25  and  N_27
    6  A    between atoms: C_26  and  N_27
                            x       y       z     vdW  Elec       q    Type
                         _______ _______ _______ _____ _____    ______ ____

>  <TORSDO>
F 6

$$$$
=
 OpenBabel10232409203D

 30 32  0  0  1  0  0  0  0  0999 V2000
  189.8690  177.1140  142.3950 C   0  0  1  0  0  3  0  0  0  0  0  0
  190.5620  175.6510  137.7710 N   0  0  0  0  0  0  0  0  0  0  0  0
  191.9820  177.3940  141.3100 O   0  0  0  0  0  0  0  0  0  0  0  0
  190.7920  176.9880  141.2240 C   0  0  0  0  0  0  0  0  0  0  0  0
  192.6180  176.1520  137.1990 C   0  0  0  0  0  0  0  0  0  0  0  0
  190.3040  176.3870  140.0200 N   0  0  0  0  0  2  0  0  0  0  0  0
  192.4820  176.6200  138.6100 C   0  0  0  0  0  2  0  0  0  0  0  0
  191.0630  176.2070  138.8200 C   0  0  0  0  0  0  0  0  0  0  0  0
  191.5280  175.6170  136.7640 N   0  0  0  0  0  0  0  0  0  0  0  0
  194.9330  175.7260  136.7520 N   0  0  0  0  0  2  0  0  0  0  0  0
  193.8230  176.2670  136.3770 C   0  0  0  0  0  3  0  0  0  0  0  0
  191.6720  176.4530  145.4880 C   0  0  0  0  0  0  0  0  0  0  0  0
  191.7980  177.7590  145.4350 O   0  0  0  0  0  0  0  0  0  0  0  0
  192.3460  175.4630  146.7650 Cl  0  0  0  0  0  0  0  0  0  0  0  0
  190.9460  175.9680  144.4110 C   0  0  0  0  0  3  0  0  0  0  0  0
  190.6260  177.1010  143.6880 C   0  0  0  0  0  0  0  0  0  0  0  0
  191.1090  179.5360  143.9590 N   0  0  0  0  0  1  0  0  0  0  0  0
  191.1810  178.1710  144.3590 C   0  0  0  0  0  0  0  0  0  0  0  0
  189.0520  178.3150  142.2870 N   0  0  0  0  0  2  0  0  0  0  0  0
  184.9180  178.5810  142.8580 C   0  0  0  0  0  0  0  0  0  0  0  0
  186.8510  178.8610  141.3740 C   0  0  1  0  0  3  0  0  0  0  0  0
  185.9070  178.6150  143.9930 C   0  0  0  0  0  2  0  0  0  0  0  0
  185.3800  178.6960  141.6130 C   0  0  0  0  0  3  0  0  0  0  0  0
  187.6620  177.8920  142.2460 C   0  0  2  0  0  3  0  0  0  0  0  0
  187.1230  177.7330  143.6830 C   0  0  0  0  0  2  0  0  0  0  0  0
  187.1340  178.6500  140.0380 F   0  0  0  0  0  0  0  0  0  0  0  0
  181.4050  178.5400  144.1170 N   0  0  0  0  0  1  0  0  0  0  0  0
  182.8150  178.7320  144.1290 C   0  0  0  0  0  0  0  0  0  0  0  0
  183.4360  179.2160  145.3180 N   0  0  0  0  0  1  0  0  0  0  0  0
  183.4990  178.4570  143.0570 N   0  0  0  0  0  0  0  0  0  0  0  0
  1  4  1  6  0  0  0
  1 16  1  0  0  0  0
  2  8  2  0  0  0  0
  4  3  2  0  0  0  0
  5  7  1  0  0  0  0
  6  4  1  0  0  0  0
  7  8  1  0  0  0  0
  8  6  1  0  0  0  0
  9  5  2  0  0  0  0
  9  2  1  0  0  0  0
 11 10  2  0  0  0  0
 11  5  1  0  0  0  0
 12 14  1  0  0  0  0
 13 12  1  0  0  0  0
 15 12  2  0  0  0  0
 16 18  2  0  0  0  0
 16 15  1  0  0  0  0
 17 18  1  0  0  0  0
 18 13  1  0  0  0  0
 19  1  1  0  0  0  0
 20 30  1  0  0  0  0
 20 22  1  0  0  0  0
 21 26  1  6  0  0  0
 21 23  1  0  0  0  0
 21 24  1  0  0  0  0
 23 20  2  0  0  0  0
 24 19  1  1  0  0  0
 24 25  1  0  0  0  0
 25 22  1  0  0  0  0
 27 28  1  0  0  0  0
 28 29  1  0  0  0  0
 30 28  2  0  0  0  0
M  END
>  <MODEL>
3

>  <REMARK>
 VINA RESULT:      -7.8      1.645      8.009
  Name = 
  6 active torsions:
  status: ('A' for Active; 'I' for Inactive)
    1  A    between atoms: C_3  and  N_24
    2  A    between atoms: C_8  and  C_25
    3  A    between atoms: C_12  and  C_25
    4  A    between atoms: C_13  and  C_21
    5  A    between atoms: C_25  and  N_27
    6  A    between atoms: C_26  and  N_27
                            x       y       z     vdW  Elec       q    Type
                         _______ _______ _______ _____ _____    ______ ____

>  <TORSDO>
F 6

$$$$
=
 OpenBabel10232409203D

 30 32  0  0  1  0  0  0  0  0999 V2000
  187.5480  178.0440  143.2210 C   0  0  1  0  0  3  0  0  0  0  0  0
  188.7960  179.2400  138.6360 N   0  0  0  0  0  0  0  0  0  0  0  0
  188.5230  176.4360  141.7420 O   0  0  0  0  0  0  0  0  0  0  0  0
  188.1300  177.6230  141.9080 C   0  0  0  0  0  0  0  0  0  0  0  0
  189.6840  177.4730  137.6890 C   0  0  0  0  0  0  0  0  0  0  0  0
  188.2150  178.5810  140.8490 N   0  0  0  0  0  2  0  0  0  0  0  0
  189.3280  177.0350  139.0710 C   0  0  0  0  0  2  0  0  0  0  0  0
  188.7540  178.3290  139.5470 C   0  0  0  0  0  0  0  0  0  0  0  0
  189.3730  178.7070  137.4810 N   0  0  0  0  0  0  0  0  0  0  0  0
  191.2600  175.8170  136.9720 N   0  0  0  0  0  2  0  0  0  0  0  0
  190.3090  176.6350  136.6660 C   0  0  0  0  0  3  0  0  0  0  0  0
  184.0280  178.4020  142.3640 C   0  0  0  0  0  0  0  0  0  0  0  0
  183.9840  178.7620  143.6250 O   0  0  0  0  0  0  0  0  0  0  0  0
  182.6220  178.3340  141.3230 Cl  0  0  0  0  0  0  0  0  0  0  0  0
  185.3190  178.0820  141.9690 C   0  0  0  0  0  3  0  0  0  0  0  0
  186.0740  178.2880  143.1080 C   0  0  0  0  0  0  0  0  0  0  0  0
  185.5510  179.0110  145.4400 N   0  0  0  0  0  1  0  0  0  0  0  0
  185.2020  178.6980  144.0960 C   0  0  0  0  0  0  0  0  0  0  0  0
  187.8310  177.0590  144.2550 N   0  0  0  0  0  2  0  0  0  0  0  0
  190.8350  177.0550  147.1650 C   0  0  0  0  0  0  0  0  0  0  0  0
  190.2060  176.8580  144.8030 C   0  0  1  0  0  3  0  0  0  0  0  0
  189.3930  176.7520  147.4740 C   0  0  0  0  0  2  0  0  0  0  0  0
  191.2110  177.1060  145.8870 C   0  0  0  0  0  3  0  0  0  0  0  0
  188.8920  177.6000  145.0890 C   0  0  2  0  0  3  0  0  0  0  0  0
  188.4590  177.5670  146.5700 C   0  0  0  0  0  2  0  0  0  0  0  0
  190.7230  177.2590  143.5850 F   0  0  0  0  0  0  0  0  0  0  0  0
  193.6880  176.8760  149.5630 N   0  0  0  0  0  1  0  0  0  0  0  0
  192.8070  176.4770  148.5200 C   0  0  0  0  0  0  0  0  0  0  0  0
  193.0200  175.2210  147.8810 N   0  0  0  0  0  1  0  0  0  0  0  0
  191.8280  177.2640  148.1830 N   0  0  0  0  0  0  0  0  0  0  0  0
  1  4  1  6  0  0  0
  1 19  1  0  0  0  0
  2  8  2  0  0  0  0
  3  4  2  0  0  0  0
  5  7  1  0  0  0  0
  6  4  1  0  0  0  0
  7  8  1  0  0  0  0
  8  6  1  0  0  0  0
  9  5  2  0  0  0  0
  9  2  1  0  0  0  0
 11 10  2  0  0  0  0
 11  5  1  0  0  0  0
 12 13  1  0  0  0  0
 13 18  1  0  0  0  0
 14 12  1  0  0  0  0
 15 12  2  0  0  0  0
 15 16  1  0  0  0  0
 16  1  1  0  0  0  0
 16 18  2  0  0  0  0
 18 17  1  0  0  0  0
 20 22  1  0  0  0  0
 20 30  1  0  0  0  0
 21 26  1  6  0  0  0
 21 24  1  0  0  0  0
 21 23  1  0  0  0  0
 23 20  2  0  0  0  0
 24 19  1  6  0  0  0
 24 25  1  0  0  0  0
 25 22  1  0  0  0  0
 28 27  1  0  0  0  0
 29 28  1  0  0  0  0
 30 28  2  0  0  0  0
M  END
>  <MODEL>
4

>  <REMARK>
 VINA RESULT:      -7.7      3.711      7.676
  Name = 
  6 active torsions:
  status: ('A' for Active; 'I' for Inactive)
    1  A    between atoms: C_3  and  N_24
    2  A    between atoms: C_8  and  C_25
    3  A    between atoms: C_12  and  C_25
    4  A    between atoms: C_13  and  C_21
    5  A    between atoms: C_25  and  N_27
    6  A    between atoms: C_26  and  N_27
                            x       y       z     vdW  Elec       q    Type
                         _______ _______ _______ _____ _____    ______ ____

>  <TORSDO>
F 6

$$$$
=
 OpenBabel10232409203D

 30 32  0  0  1  0  0  0  0  0999 V2000
  188.8550  177.0810  143.5440 C   0  0  1  0  0  3  0  0  0  0  0  0
  189.0900  178.3330  138.8120 N   0  0  0  0  0  0  0  0  0  0  0  0
  190.1600  175.8140  141.9890 O   0  0  0  0  0  0  0  0  0  0  0  0
  189.3980  176.8010  142.1770 C   0  0  0  0  0  0  0  0  0  0  0  0
  190.4280  176.9220  137.8000 C   0  0  0  0  0  0  0  0  0  0  0  0
  189.0260  177.6600  141.0950 N   0  0  0  0  0  2  0  0  0  0  0  0
  190.4030  176.4790  139.2250 C   0  0  0  0  0  2  0  0  0  0  0  0
  189.4700  177.5240  139.7420 C   0  0  0  0  0  0  0  0  0  0  0  0
  189.6850  177.9580  137.6060 N   0  0  0  0  0  0  0  0  0  0  0  0
  192.3740  175.8220  136.9390 N   0  0  0  0  0  2  0  0  0  0  0  0
  191.1890  176.2850  136.7240 C   0  0  0  0  0  3  0  0  0  0  0  0
  191.2290  176.8100  146.2910 C   0  0  0  0  0  0  0  0  0  0  0  0
  191.8330  177.7240  145.5680 O   0  0  0  0  0  0  0  0  0  0  0  0
  191.8650  176.1850  147.7970 Cl  0  0  0  0  0  0  0  0  0  0  0  0
  190.0360  176.4070  145.7090 C   0  0  0  0  0  3  0  0  0  0  0  0
  189.9540  177.1670  144.5580 C   0  0  0  0  0  0  0  0  0  0  0  0
  191.4220  178.8850  143.4960 N   0  0  0  0  0  1  0  0  0  0  0  0
  191.0880  177.9530  144.5180 C   0  0  0  0  0  0  0  0  0  0  0  0
  188.0530  178.2960  143.5460 N   0  0  0  0  0  2  0  0  0  0  0  0
  183.9470  178.7080  144.2210 C   0  0  0  0  0  0  0  0  0  0  0  0
  185.8250  178.7470  142.6450 C   0  0  1  0  0  3  0  0  0  0  0  0
  184.9790  178.8830  145.3040 C   0  0  0  0  0  2  0  0  0  0  0  0
  184.3630  178.6420  142.9570 C   0  0  0  0  0  3  0  0  0  0  0  0
  186.6580  177.8950  143.6140 C   0  0  2  0  0  3  0  0  0  0  0  0
  186.1710  177.9460  145.0770 C   0  0  0  0  0  2  0  0  0  0  0  0
  186.0560  178.3480  141.3410 F   0  0  0  0  0  0  0  0  0  0  0  0
  180.2180  178.6330  144.1090 N   0  0  0  0  0  1  0  0  0  0  0  0
  181.5560  178.7340  143.6370 C   0  0  0  0  0  0  0  0  0  0  0  0
  181.7820  178.9460  142.2450 N   0  0  0  0  0  1  0  0  0  0  0  0
  182.5360  178.6370  144.4870 N   0  0  0  0  0  0  0  0  0  0  0  0
  1  4  1  6  0  0  0
  1 19  1  0  0  0  0
  1 16  1  0  0  0  0
  2  8  2  0  0  0  0
  3  4  2  0  0  0  0
  5  7  1  0  0  0  0
  6  4  1  0  0  0  0
  7  8  1  0  0  0  0
  8  6  1  0  0  0  0
  9  5  2  0  0  0  0
  9  2  1  0  0  0  0
 11 10  2  0  0  0  0
 11  5  1  0  0  0  0
 12 14  1  0  0  0  0
 13 12  1  0  0  0  0
 15 12  2  0  0  0  0
 16 15  1  0  0  0  0
 17 18  1  0  0  0  0
 18 16  2  0  0  0  0
 18 13  1  0  0  0  0
 20 30  1  0  0  0  0
 20 22  1  0  0  0  0
 21 26  1  6  0  0  0
 21 23  1  0  0  0  0
 21 24  1  0  0  0  0
 23 20  2  0  0  0  0
 24 19  1  1  0  0  0
 24 25  1  0  0  0  0
 25 22  1  0  0  0  0
 28 27  1  0  0  0  0
 28 30  2  0  0  0  0
 29 28  1  0  0  0  0
M  END
>  <MODEL>
5

>  <REMARK>
 VINA RESULT:      -7.7      2.154      7.929
  Name = 
  6 active torsions:
  status: ('A' for Active; 'I' for Inactive)
    1  A    between atoms: C_3  and  N_24
    2  A    between atoms: C_8  and  C_25
    3  A    between atoms: C_12  and  C_25
    4  A    between atoms: C_13  and  C_21
    5  A    between atoms: C_25  and  N_27
    6  A    between atoms: C_26  and  N_27
                            x       y       z     vdW  Elec       q    Type
                         _______ _______ _______ _____ _____    ______ ____

>  <TORSDO>
F 6

$$$$
=
 OpenBabel10232409203D

 30 32  0  0  1  0  0  0  0  0999 V2000
  187.5560  177.8700  141.2250 C   0  0  1  0  0  3  0  0  0  0  0  0
  191.1000  178.6210  144.5240 N   0  0  0  0  0  0  0  0  0  0  0  0
  188.3890  176.0820  142.5780 O   0  0  0  0  0  0  0  0  0  0  0  0
  188.4490  177.3070  142.2850 C   0  0  0  0  0  0  0  0  0  0  0  0
  191.4950  176.7200  145.5430 C   0  0  0  0  0  0  0  0  0  0  0  0
  189.3770  178.1760  142.9420 N   0  0  0  0  0  2  0  0  0  0  0  0
  190.4160  176.4160  144.5580 C   0  0  0  0  0  2  0  0  0  0  0  0
  190.2850  177.7850  143.9770 C   0  0  0  0  0  0  0  0  0  0  0  0
  191.8520  177.9590  145.4970 N   0  0  0  0  0  0  0  0  0  0  0  0
  192.4130  176.1060  147.6690 N   0  0  0  0  0  2  0  0  0  0  0  0
  192.1020  175.7600  146.4650 C   0  0  0  0  0  3  0  0  0  0  0  0
  184.6020  178.7350  143.1690 C   0  0  0  0  0  0  0  0  0  0  0  0
  184.2490  179.2270  142.0030 O   0  0  0  0  0  0  0  0  0  0  0  0
  183.6040  178.8270  144.6040 Cl  0  0  0  0  0  0  0  0  0  0  0  0
  185.8550  178.1440  143.1140 C   0  0  0  0  0  3  0  0  0  0  0  0
  186.2430  178.3080  141.7980 C   0  0  0  0  0  0  0  0  0  0  0  0
  185.2040  179.3790  139.7950 N   0  0  0  0  0  1  0  0  0  0  0  0
  185.2220  178.9860  141.1640 C   0  0  0  0  0  0  0  0  0  0  0  0
  188.2070  178.9690  140.5260 N   0  0  0  0  0  2  0  0  0  0  0  0
  189.9920  176.0380  138.1370 C   0  0  0  0  0  0  0  0  0  0  0  0
  187.9880  177.3190  138.7350 C   0  0  1  0  0  3  0  0  0  0  0  0
  190.5330  176.4410  139.4830 C   0  0  0  0  0  2  0  0  0  0  0  0
  188.7780  176.4650  137.7900 C   0  0  0  0  0  3  0  0  0  0  0  0
  188.8700  178.4090  139.3600 C   0  0  2  0  0  3  0  0  0  0  0  0
  190.2860  177.9320  139.7450 C   0  0  0  0  0  2  0  0  0  0  0  0
  186.9230  177.8940  138.0680 F   0  0  0  0  0  0  0  0  0  0  0  0
  191.2730  173.3130  135.9320 N   0  0  0  0  0  1  0  0  0  0  0  0
  190.4220  173.9790  136.8590 C   0  0  0  0  0  0  0  0  0  0  0  0
  189.2800  173.2910  137.3640 N   0  0  0  0  0  1  0  0  0  0  0  0
  190.7120  175.1930  137.2230 N   0  0  0  0  0  0  0  0  0  0  0  0
  1 19  1  1  0  0  0
  1 16  1  0  0  0  0
  1  4  1  0  0  0  0
  2  9  1  0  0  0  0
  4  3  2  0  0  0  0
  4  6  1  0  0  0  0
  5 11  1  0  0  0  0
  6  8  1  0  0  0  0
  7  5  1  0  0  0  0
  8  2  2  0  0  0  0
  8  7  1  0  0  0  0
  9  5  2  0  0  0  0
 11 10  2  0  0  0  0
 12 14  1  0  0  0  0
 13 12  1  0  0  0  0
 15 12  2  0  0  0  0
 16 15  1  0  0  0  0
 17 18  1  0  0  0  0
 18 16  2  0  0  0  0
 18 13  1  0  0  0  0
 20 22  1  0  0  0  0
 21 26  1  6  0  0  0
 21 24  1  0  0  0  0
 22 25  1  0  0  0  0
 23 20  2  0  0  0  0
 23 21  1  0  0  0  0
 24 25  1  0  0  0  0
 24 19  1  1  0  0  0
 27 28  1  0  0  0  0
 28 30  2  0  0  0  0
 28 29  1  0  0  0  0
 30 20  1  0  0  0  0
M  END
>  <MODEL>
6

>  <REMARK>
 VINA RESULT:      -7.3      3.002      5.871
  Name = 
  6 active torsions:
  status: ('A' for Active; 'I' for Inactive)
    1  A    between atoms: C_3  and  N_24
    2  A    between atoms: C_8  and  C_25
    3  A    between atoms: C_12  and  C_25
    4  A    between atoms: C_13  and  C_21
    5  A    between atoms: C_25  and  N_27
    6  A    between atoms: C_26  and  N_27
                            x       y       z     vdW  Elec       q    Type
                         _______ _______ _______ _____ _____    ______ ____

>  <TORSDO>
F 6

$$$$
=
 OpenBabel10232409203D

 30 32  0  0  1  0  0  0  0  0999 V2000
  187.9230  177.7040  141.9510 C   0  0  1  0  0  3  0  0  0  0  0  0
  183.7240  178.4920  144.3490 N   0  0  0  0  0  0  0  0  0  0  0  0
  185.9130  178.2620  140.7800 O   0  0  0  0  0  0  0  0  0  0  0  0
  186.4690  178.0520  141.8920 C   0  0  0  0  0  0  0  0  0  0  0  0
  182.1860  179.0130  142.8750 C   0  0  0  0  0  0  0  0  0  0  0  0
  185.7240  178.1230  143.1120 N   0  0  0  0  0  2  0  0  0  0  0  0
  183.4260  178.7850  142.0780 C   0  0  0  0  0  2  0  0  0  0  0  0
  184.3350  178.4510  143.2150 C   0  0  0  0  0  0  0  0  0  0  0  0
  182.3880  178.8410  144.1380 N   0  0  0  0  0  0  0  0  0  0  0  0
  180.2090  180.3660  142.8360 N   0  0  0  0  0  2  0  0  0  0  0  0
  180.8800  179.3860  142.3300 C   0  0  0  0  0  3  0  0  0  0  0  0
  189.0670  178.4670  138.5800 C   0  0  0  0  0  0  0  0  0  0  0  0
  189.9680  177.5750  138.9210 O   0  0  0  0  0  0  0  0  0  0  0  0
  189.0410  179.2790  137.0290 Cl  0  0  0  0  0  0  0  0  0  0  0  0
  188.1500  178.6810  139.5990 C   0  0  0  0  0  3  0  0  0  0  0  0
  188.5660  177.8270  140.6040 C   0  0  0  0  0  0  0  0  0  0  0  0
  190.4570  176.2150  140.8500 N   0  0  0  0  0  1  0  0  0  0  0  0
  189.6910  177.1790  140.1360 C   0  0  0  0  0  0  0  0  0  0  0  0
  188.6150  178.5290  142.9310 N   0  0  0  0  0  2  0  0  0  0  0  0
  190.8280  177.4110  146.3000 C   0  0  0  0  0  0  0  0  0  0  0  0
  188.6400  177.8360  145.2760 C   0  0  1  0  0  3  0  0  0  0  0  0
  191.4050  178.2250  145.1710 C   0  0  0  0  0  2  0  0  0  0  0  0
  189.5080  177.2300  146.3370 C   0  0  0  0  0  3  0  0  0  0  0  0
  189.2510  177.6320  143.8820 C   0  0  2  0  0  3  0  0  0  0  0  0
  190.7820  177.8170  143.8310 C   0  0  0  0  0  2  0  0  0  0  0  0
  187.3770  177.2770  145.3280 F   0  0  0  0  0  0  0  0  0  0  0  0
  193.0690  175.3690  148.4750 N   0  0  0  0  0  1  0  0  0  0  0  0
  192.3370  175.7540  147.3170 C   0  0  0  0  0  0  0  0  0  0  0  0
  192.3960  174.9280  146.1570 N   0  0  0  0  0  1  0  0  0  0  0  0
  191.6310  176.8460  147.3490 N   0  0  0  0  0  0  0  0  0  0  0  0
  1  4  1  6  0  0  0
  1 19  1  0  0  0  0
  3  4  2  0  0  0  0
  4  6  1  0  0  0  0
  5  9  2  0  0  0  0
  6  8  1  0  0  0  0
  7  5  1  0  0  0  0
  7  8  1  0  0  0  0
  8  2  2  0  0  0  0
  9  2  1  0  0  0  0
 11 10  2  0  0  0  0
 11  5  1  0  0  0  0
 12 13  1  0  0  0  0
 12 15  2  0  0  0  0
 13 18  1  0  0  0  0
 14 12  1  0  0  0  0
 15 16  1  0  0  0  0
 16  1  1  0  0  0  0
 18 16  2  0  0  0  0
 18 17  1  0  0  0  0
 20 23  2  0  0  0  0
 20 30  1  0  0  0  0
 21 26  1  6  0  0  0
 21 23  1  0  0  0  0
 22 20  1  0  0  0  0
 24 19  1  6  0  0  0
 24 21  1  0  0  0  0
 25 24  1  0  0  0  0
 25 22  1  0  0  0  0
 28 30  2  0  0  0  0
 28 27  1  0  0  0  0
 29 28  1  0  0  0  0
M  END
>  <MODEL>
7

>  <REMARK>
 VINA RESULT:      -7.2      3.984      6.419
  Name = 
  6 active torsions:
  status: ('A' for Active; 'I' for Inactive)
    1  A    between atoms: C_3  and  N_24
    2  A    between atoms: C_8  and  C_25
    3  A    between atoms: C_12  and  C_25
    4  A    between atoms: C_13  and  C_21
    5  A    between atoms: C_25  and  N_27
    6  A    between atoms: C_26  and  N_27
                            x       y       z     vdW  Elec       q    Type
                         _______ _______ _______ _____ _____    ______ ____

>  <TORSDO>
F 6

$$$$
=
 OpenBabel10232409203D

 30 32  0  0  1  0  0  0  0  0999 V2000
  190.3250  177.2320  139.3990 C   0  0  1  0  0  3  0  0  0  0  0  0
  192.6440  175.7140  135.3590 N   0  0  0  0  0  0  0  0  0  0  0  0
  192.6940  176.9030  139.3800 O   0  0  0  0  0  0  0  0  0  0  0  0
  191.6130  176.8630  138.7330 C   0  0  0  0  0  0  0  0  0  0  0  0
  194.7870  175.6040  135.8050 C   0  0  0  0  0  0  0  0  0  0  0  0
  191.5900  176.4520  137.3620 N   0  0  0  0  0  2  0  0  0  0  0  0
  194.1500  176.0660  137.0730 C   0  0  0  0  0  2  0  0  0  0  0  0
  192.7370  176.0800  136.5910 C   0  0  0  0  0  0  0  0  0  0  0  0
  193.9180  175.4180  134.8710 N   0  0  0  0  0  0  0  0  0  0  0  0
  197.0820  176.2830  135.9250 N   0  0  0  0  0  2  0  0  0  0  0  0
  196.2190  175.3780  135.6060 C   0  0  0  0  0  3  0  0  0  0  0  0
  187.4920  176.4790  137.2410 C   0  0  0  0  0  0  0  0  0  0  0  0
  187.5950  177.7700  137.0250 O   0  0  0  0  0  0  0  0  0  0  0  0
  186.2760  175.4630  136.4960 Cl  0  0  0  0  0  0  0  0  0  0  0  0
  188.4590  176.0320  138.1300 C   0  0  0  0  0  3  0  0  0  0  0  0
  189.1780  177.1710  138.4380 C   0  0  0  0  0  0  0  0  0  0  0  0
  189.0150  179.5700  137.7670 N   0  0  0  0  0  1  0  0  0  0  0  0
  188.5990  178.2090  137.7370 C   0  0  0  0  0  0  0  0  0  0  0  0
  190.0760  176.3820  140.5550 N   0  0  0  0  0  2  0  0  0  0  0  0
  189.3140  177.4190  144.5350 C   0  0  0  0  0  0  0  0  0  0  0  0
  190.9430  177.0780  142.7330 C   0  0  1  0  0  3  0  0  0  0  0  0
  188.3730  176.5820  143.7100 C   0  0  0  0  0  2  0  0  0  0  0  0
  190.5370  177.6510  144.0570 C   0  0  0  0  0  3  0  0  0  0  0  0
  189.8300  177.2560  141.6910 C   0  0  2  0  0  3  0  0  0  0  0  0
  188.4080  177.0120  142.2380 C   0  0  0  0  0  2  0  0  0  0  0  0
  192.1060  177.6850  142.2970 F   0  0  0  0  0  0  0  0  0  0  0  0
  188.9150  178.2410  148.1530 N   0  0  0  0  0  1  0  0  0  0  0  0
  189.3860  177.5680  146.9910 C   0  0  0  0  0  0  0  0  0  0  0  0
  190.3020  176.4870  147.1440 N   0  0  0  0  0  1  0  0  0  0  0  0
  188.9650  177.9550  145.8220 N   0  0  0  0  0  0  0  0  0  0  0  0
  1  4  1  6  0  0  0
  1 19  1  0  0  0  0
  2  8  2  0  0  0  0
  4  3  2  0  0  0  0
  5  7  1  0  0  0  0
  6  4  1  0  0  0  0
  8  7  1  0  0  0  0
  8  6  1  0  0  0  0
  9  2  1  0  0  0  0
  9  5  2  0  0  0  0
 11  5  1  0  0  0  0
 11 10  2  0  0  0  0
 12 15  2  0  0  0  0
 13 12  1  0  0  0  0
 13 18  1  0  0  0  0
 14 12  1  0  0  0  0
 15 16  1  0  0  0  0
 16  1  1  0  0  0  0
 18 17  1  0  0  0  0
 18 16  2  0  0  0  0
 20 30  1  0  0  0  0
 21 26  1  6  0  0  0
 21 23  1  0  0  0  0
 22 20  1  0  0  0  0
 23 20  2  0  0  0  0
 24 19  1  6  0  0  0
 24 25  1  0  0  0  0
 24 21  1  0  0  0  0
 25 22  1  0  0  0  0
 28 29  1  0  0  0  0
 28 27  1  0  0  0  0
 30 28  2  0  0  0  0
M  END
>  <MODEL>
8

>  <REMARK>
 VINA RESULT:      -7.2      3.925      9.023
  Name = 
  6 active torsions:
  status: ('A' for Active; 'I' for Inactive)
    1  A    between atoms: C_3  and  N_24
    2  A    between atoms: C_8  and  C_25
    3  A    between atoms: C_12  and  C_25
    4  A    between atoms: C_13  and  C_21
    5  A    between atoms: C_25  and  N_27
    6  A    between atoms: C_26  and  N_27
                            x       y       z     vdW  Elec       q    Type
                         _______ _______ _______ _____ _____    ______ ____

>  <TORSDO>
F 6

$$$$
=
 OpenBabel10232409203D

 30 32  0  0  1  0  0  0  0  0999 V2000
  189.9470  177.1090  142.1560 C   0  0  1  0  0  3  0  0  0  0  0  0
  191.0010  175.0540  137.8340 N   0  0  0  0  0  0  0  0  0  0  0  0
  191.9860  177.6100  141.0090 O   0  0  0  0  0  0  0  0  0  0  0  0
  190.8990  176.9710  141.0090 C   0  0  0  0  0  0  0  0  0  0  0  0
  192.9300  175.8450  137.1570 C   0  0  0  0  0  0  0  0  0  0  0  0
  190.5620  176.0920  139.9310 N   0  0  0  0  0  2  0  0  0  0  0  0
  192.6790  176.5070  138.4700 C   0  0  0  0  0  2  0  0  0  0  0  0
  191.3640  175.8650  138.7680 C   0  0  0  0  0  0  0  0  0  0  0  0
  191.9750  175.0410  136.8330 N   0  0  0  0  0  0  0  0  0  0  0  0
  194.6380  177.2230  136.1960 N   0  0  0  0  0  2  0  0  0  0  0  0
  194.1050  176.0540  136.3090 C   0  0  0  0  0  3  0  0  0  0  0  0
  191.6860  176.4750  145.2910 C   0  0  0  0  0  0  0  0  0  0  0  0
  191.7850  177.7840  145.2450 O   0  0  0  0  0  0  0  0  0  0  0  0
  192.3500  175.4950  146.5800 Cl  0  0  0  0  0  0  0  0  0  0  0  0
  190.9990  175.9780  144.1930 C   0  0  0  0  0  3  0  0  0  0  0  0
  190.6720  177.1070  143.4670 C   0  0  0  0  0  0  0  0  0  0  0  0
  191.0920  179.5510  143.7590 N   0  0  0  0  0  1  0  0  0  0  0  0
  191.1860  178.1870  144.1550 C   0  0  0  0  0  0  0  0  0  0  0  0
  189.1350  178.3090  142.0150 N   0  0  0  0  0  2  0  0  0  0  0  0
  185.2100  178.7520  140.6400 C   0  0  0  0  0  0  0  0  0  0  0  0
  187.5980  178.5240  140.1260 C   0  0  1  0  0  3  0  0  0  0  0  0
  185.6470  179.1590  142.0230 C   0  0  0  0  0  2  0  0  0  0  0  0
  186.1500  178.4490  139.7450 C   0  0  0  0  0  3  0  0  0  0  0  0
  187.8370  177.8970  141.5070 C   0  0  2  0  0  3  0  0  0  0  0  0
  186.7430  178.2230  142.5460 C   0  0  0  0  0  2  0  0  0  0  0  0
  188.3670  177.8830  139.1730 F   0  0  0  0  0  0  0  0  0  0  0  0
  181.8190  179.2990  139.1830 N   0  0  0  0  0  1  0  0  0  0  0  0
  183.1940  179.5330  139.4650 C   0  0  0  0  0  0  0  0  0  0  0  0
  183.8290  180.6760  138.8970 N   0  0  0  0  0  1  0  0  0  0  0  0
  183.8320  178.7020  140.2350 N   0  0  0  0  0  0  0  0  0  0  0  0
  1  4  1  6  0  0  0
  1 16  1  0  0  0  0
  2  8  2  0  0  0  0
  4  3  2  0  0  0  0
  5  7  1  0  0  0  0
  6  4  1  0  0  0  0
  7  8  1  0  0  0  0
  8  6  1  0  0  0  0
  9  5  2  0  0  0  0
  9  2  1  0  0  0  0
 10 11  2  0  0  0  0
 11  5  1  0  0  0  0
 12 14  1  0  0  0  0
 13 12  1  0  0  0  0
 15 12  2  0  0  0  0
 16 18  2  0  0  0  0
 16 15  1  0  0  0  0
 17 18  1  0  0  0  0
 18 13  1  0  0  0  0
 19  1  1  0  0  0  0
 20 22  1  0  0  0  0
 21 26  1  6  0  0  0
 21 24  1  0  0  0  0
 22 25  1  0  0  0  0
 23 21  1  0  0  0  0
 23 20  2  0  0  0  0
 24 19  1  1  0  0  0
 24 25  1  0  0  0  0
 27 28  1  0  0  0  0
 28 30  2  0  0  0  0
 29 28  1  0  0  0  0
 30 20  1  0  0  0  0
M  END
>  <MODEL>
9

>  <REMARK>
 VINA RESULT:      -7.0      1.701      7.469
  Name = 
  6 active torsions:
  status: ('A' for Active; 'I' for Inactive)
    1  A    between atoms: C_3  and  N_24
    2  A    between atoms: C_8  and  C_25
    3  A    between atoms: C_12  and  C_25
    4  A    between atoms: C_13  and  C_21
    5  A    between atoms: C_25  and  N_27
    6  A    between atoms: C_26  and  N_27
                            x       y       z     vdW  Elec       q    Type
                         _______ _______ _______ _____ _____    ______ ____

>  <TORSDO>
F 6

$$$$
