=
 OpenBabel10232410083D

 65 74  0  0  1  0  0  0  0  0999 V2000
  193.6670  176.8330  139.9940 C   0  0  0  0  0  0  0  0  0  0  0  0
  187.6320  175.9360  137.1670 C   0  0  0  0  0  2  0  0  0  0  0  0
  191.7940  173.4570  135.4700 N   0  0  0  0  0  2  0  0  0  0  0  0
  191.6440  177.2590  141.3390 C   0  0  0  0  0  0  0  0  0  0  0  0
  193.0660  173.9680  136.0250 C   0  0  1  0  0  3  0  0  0  0  0  0
  195.6800  175.7590  139.3180 N   0  0  0  0  0  0  0  0  0  0  0  0
  191.7180  176.2060  138.6260 N   0  0  0  0  0  0  0  0  0  0  0  0
  196.1370  172.0380  136.2150 C   0  0  0  0  0  3  0  0  0  0  0  0
  189.1630  177.9420  136.9530 C   0  0  0  0  0  2  0  0  0  0  0  0
  198.0960  173.1760  137.0460 C   0  0  0  0  0  0  0  0  0  0  0  0
  189.5540  177.6550  138.2730 O   0  0  0  0  0  0  0  0  0  0  0  0
  195.8810  174.1170  137.4740 C   0  0  0  0  0  0  0  0  0  0  0  0
  197.5210  172.1050  136.3650 C   0  0  0  0  0  3  0  0  0  0  0  0
  188.1690  177.1310  142.1780 C   0  0  0  0  0  3  0  0  0  0  0  0
  195.3060  173.0350  136.7370 C   0  0  0  0  0  0  0  0  0  0  0  0
  190.5540  176.8040  141.5840 C   0  0  0  0  0  0  0  0  0  0  0  0
  188.1530  178.4680  140.0370 C   0  0  0  0  0  2  0  0  0  0  0  0
  193.0350  176.2550  138.9000 C   0  0  0  0  0  0  0  0  0  0  0  0
  197.2790  174.1570  137.6120 C   0  0  0  0  0  3  0  0  0  0  0  0
  192.8640  174.9780  137.0960 C   0  0  0  0  0  0  0  0  0  0  0  0
  188.6270  176.6820  136.2570 C   0  0  1  0  0  0  0  0  0  0  0  0
  191.6300  175.4300  137.5180 C   0  0  0  0  0  0  0  0  0  0  0  0
  192.9690  177.7630  140.9520 C   0  0  0  0  0  2  0  0  0  0  0  0
  193.7800  175.4440  137.9920 C   0  0  0  0  0  0  0  0  0  0  0  0
  190.3580  174.8680  136.9710 C   0  0  1  0  0  3  0  0  0  0  0  0
  187.2020  176.7890  138.3650 C   0  0  0  0  0  2  0  0  0  0  0  0
  195.0020  176.5800  140.1390 N   0  0  0  0  0  2  0  0  0  0  0  0
  189.8020  175.7680  135.8560 C   0  0  0  0  0  2  0  0  0  0  0  0
  187.6100  178.0690  141.3850 C   0  0  0  0  0  0  0  0  0  0  0  0
  190.6930  173.4460  136.4550 C   0  0  1  0  0  3  0  0  0  0  0  0
  189.2540  176.1650  141.8020 C   0  0  0  0  0  2  0  0  0  0  0  0
  193.8980  172.8830  136.5100 N   0  0  0  0  0  2  0  0  0  0  0  0
  188.4480  177.3130  139.0950 C   0  0  1  0  0  3  0  0  0  0  0  0
  195.1060  175.1320  138.2420 C   0  0  0  0  0  0  0  0  0  0  0  0
  185.1790  178.4930  141.5870 C   0  0  1  0  0  3  0  0  0  0  0  0
  185.8150  179.5580  140.9240 O   0  0  0  0  0  0  0  0  0  0  0  0
  186.5410  178.9450  141.9640 C   0  0  2  0  0  3  0  0  0  0  0  0
  184.1590  179.0530  142.5790 C   0  0  2  0  0  3  0  0  0  0  0  0
  184.2260  178.3570  143.8010 O   0  0  0  0  0  0  0  0  0  0  0  0
  182.1330  179.2920  144.4930 N   0  0  0  0  0  2  0  0  0  0  0  0
  182.6940  179.1370  142.0700 C   0  0  2  0  0  3  0  0  0  0  0  0
  183.5850  179.1850  144.7410 C   0  0  0  0  0  2  0  0  0  0  0  0
  181.7350  178.7310  143.1930 C   0  0  0  0  0  2  0  0  0  0  0  0
  182.3900  178.2780  140.8430 C   0  0  0  0  0  2  0  0  0  0  0  0
  181.9780  179.1280  139.6900 C   0  0  0  0  0  0  0  0  0  0  0  0
  180.8030  179.0560  139.2510 O   0  0  0  0  0  1  0  0  0  0  0  0
  182.8800  180.0120  139.1100 O   0  0  0  0  0  0  0  0  0  0  0  0
  200.0230  174.6190  137.0750 N   0  0  0  0  0  1  0  0  0  0  0  0
  199.5720  173.2460  137.2270 C   0  0  0  0  0  2  0  0  0  0  0  0
  188.4510  172.4060  136.7140 C   0  0  0  0  0  3  0  0  0  0  0  0
  189.5070  172.6790  135.9450 C   0  0  0  0  0  3  0  0  0  0  0  0
  187.2820  171.6490  136.1710 C   0  0  2  0  0  3  0  0  0  0  0  0
  187.7630  170.3940  135.4630 C   0  0  0  0  0  1  0  0  0  0  0  0
  186.5650  172.4830  135.2260 N   0  0  0  0  0  1  0  0  0  0  0  0
  187.9350  177.0650  134.9440 C   0  0  0  0  0  2  0  0  0  0  0  0
  186.5350  179.0010  135.1150 O   0  0  0  0  0  0  0  0  0  0  0  0
  186.5940  177.7410  135.0740 C   0  0  0  0  0  0  0  0  0  0  0  0
  185.3660  176.9260  135.2590 C   0  0  0  0  0  0  0  0  0  0  0  0
  183.3000  176.3930  136.4460 C   0  0  0  0  0  0  0  0  0  0  0  0
  184.0250  174.9960  134.6080 C   0  0  0  0  0  3  0  0  0  0  0  0
  183.1020  175.2860  135.6160 C   0  0  0  0  0  3  0  0  0  0  0  0
  184.4230  177.2140  136.2740 C   0  0  0  0  0  0  0  0  0  0  0  0
  182.4040  176.6570  137.4320 F   0  0  0  0  0  0  0  0  0  0  0  0
  184.5940  178.2720  137.1090 F   0  0  0  0  0  0  0  0  0  0  0  0
  185.1480  175.8100  134.4330 C   0  0  0  0  0  3  0  0  0  0  0  0
  1 27  1  0  0  0  0
  1 23  1  0  0  0  0
  2 26  1  0  0  0  0
  3 30  1  0  0  0  0
  4 16  3  0  0  0  0
  5  3  1  1  0  0  0
  5 32  1  0  0  0  0
  5 20  1  0  0  0  0
  6 27  1  0  0  0  0
  7 18  1  0  0  0  0
  8 13  2  0  0  0  0
  8 15  1  0  0  0  0
  9 11  1  0  0  0  0
 10 49  1  0  0  0  0
 10 19  2  0  0  0  0
 11 33  1  0  0  0  0
 12 19  1  0  0  0  0
 12 34  1  0  0  0  0
 13 10  1  0  0  0  0
 15 12  2  0  0  0  0
 16 31  1  0  0  0  0
 17 29  1  0  0  0  0
 18  1  2  0  0  0  0
 20 22  1  0  0  0  0
 20 24  2  0  0  0  0
 21 55  1  6  0  0  0
 21  9  1  0  0  0  0
 21  2  1  0  0  0  0
 22  7  2  0  0  0  0
 23  4  1  0  0  0  0
 24 34  1  0  0  0  0
 24 18  1  0  0  0  0
 25 28  1  6  0  0  0
 25 22  1  0  0  0  0
 28 21  1  0  0  0  0
 29 14  2  0  0  0  0
 30 51  1  6  0  0  0
 30 25  1  0  0  0  0
 31 14  1  0  0  0  0
 32 15  1  0  0  0  0
 33 26  1  6  0  0  0
 33 17  1  0  0  0  0
 34  6  2  0  0  0  0
 35 36  1  6  0  0  0
 35 37  1  0  0  0  0
 35 38  1  0  0  0  0
 36 37  1  0  0  0  0
 37 29  1  6  0  0  0
 38 39  1  1  0  0  0
 39 42  1  0  0  0  0
 40 42  1  0  0  0  0
 41 44  1  6  0  0  0
 41 38  1  0  0  0  0
 41 43  1  0  0  0  0
 43 40  1  0  0  0  0
 45 44  1  0  0  0  0
 46 45  1  0  0  0  0
 47 45  2  0  0  0  0
 48 49  1  0  0  0  0
 51 50  2  0  0  0  0
 52 53  1  6  0  0  0
 52 50  1  0  0  0  0
 54 52  1  0  0  0  0
 55 57  1  0  0  0  0
 57 56  2  0  0  0  0
 57 58  1  0  0  0  0
 58 62  1  0  0  0  0
 59 63  1  0  0  0  0
 60 61  2  0  0  0  0
 61 59  1  0  0  0  0
 62 59  2  0  0  0  0
 62 64  1  0  0  0  0
 65 60  1  0  0  0  0
 65 58  2  0  0  0  0
M  END
>  <MODEL>
1

>  <REMARK>
 VINA RESULT:      -6.7      0.000      0.000
  Name = 
  10 active torsions:
  status: ('A' for Active; 'I' for Inactive)
    1  A    between atoms: C_2  and  C_18
    2  A    between atoms: C_2  and  C_35
    3  A    between atoms: C_4  and  C_25
    4  A    between atoms: C_7  and  C_12
    5  A    between atoms: C_15  and  C_25
    6  A    between atoms: C_15  and  C_41
    7  A    between atoms: C_19  and  C_52
    8  A    between atoms: C_39  and  C_45
    9  A    between atoms: C_50  and  C_60
   10  A    between atoms: C_56  and  C_61
                            x       y       z     vdW  Elec       q    Type
                         _______ _______ _______ _____ _____    ______ ____

>  <TORSDO>
F 10

$$$$
=
 OpenBabel10232410083D

 65 74  0  0  1  0  0  0  0  0999 V2000
  193.3520  176.5740  138.8970 C   0  0  0  0  0  0  0  0  0  0  0  0
  186.9080  175.6470  137.2110 C   0  0  0  0  0  2  0  0  0  0  0  0
  190.6900  173.0290  134.9320 N   0  0  0  0  0  2  0  0  0  0  0  0
  191.5980  177.0920  140.5530 C   0  0  0  0  0  0  0  0  0  0  0  0
  192.0440  173.5440  135.2330 C   0  0  1  0  0  3  0  0  0  0  0  0
  195.2070  175.4390  137.9330 N   0  0  0  0  0  0  0  0  0  0  0  0
  191.1890  175.9170  137.9210 N   0  0  0  0  0  0  0  0  0  0  0  0
  195.0860  171.5750  134.9750 C   0  0  0  0  0  3  0  0  0  0  0  0
  188.3940  177.6170  136.6390 C   0  0  0  0  0  2  0  0  0  0  0  0
  197.1680  172.7180  135.3990 C   0  0  0  0  0  0  0  0  0  0  0  0
  189.0070  177.3830  137.8820 O   0  0  0  0  0  0  0  0  0  0  0  0
  195.0700  173.7120  136.1600 C   0  0  0  0  0  0  0  0  0  0  0  0
  196.4750  171.6260  134.8780 C   0  0  0  0  0  3  0  0  0  0  0  0
  188.3220  177.0570  141.9900 C   0  0  0  0  0  3  0  0  0  0  0  0
  194.3660  172.6070  135.5870 C   0  0  0  0  0  0  0  0  0  0  0  0
  190.5640  176.6660  141.0050 C   0  0  0  0  0  0  0  0  0  0  0  0
  187.9430  178.2970  139.8230 C   0  0  0  0  0  2  0  0  0  0  0  0
  192.5330  175.9570  137.9590 C   0  0  0  0  0  0  0  0  0  0  0  0
  196.4710  173.7360  136.0510 C   0  0  0  0  0  3  0  0  0  0  0  0
  192.0400  174.6040  136.2740 C   0  0  0  0  0  0  0  0  0  0  0  0
  187.7350  176.3360  136.1070 C   0  0  1  0  0  0  0  0  0  0  0  0
  190.9020  175.0940  136.8830 C   0  0  0  0  0  0  0  0  0  0  0  0
  192.8390  177.5570  139.9180 C   0  0  0  0  0  2  0  0  0  0  0  0
  193.1020  175.0940  136.9740 C   0  0  0  0  0  0  0  0  0  0  0  0
  189.5500  174.5280  136.5930 C   0  0  1  0  0  3  0  0  0  0  0  0
  186.7010  176.5600  138.4230 C   0  0  0  0  0  2  0  0  0  0  0  0
  194.6890  176.3060  138.8200 N   0  0  0  0  0  2  0  0  0  0  0  0
  188.8140  175.3850  135.5500 C   0  0  0  0  0  2  0  0  0  0  0  0
  187.6410  177.9680  141.2630 C   0  0  0  0  0  0  0  0  0  0  0  0
  189.7790  173.0800  136.0940 C   0  0  1  0  0  3  0  0  0  0  0  0
  189.3170  176.0580  141.4760 C   0  0  0  0  0  2  0  0  0  0  0  0
  192.9390  172.4680  135.6160 N   0  0  0  0  0  2  0  0  0  0  0  0
  188.0600  177.0960  138.8990 C   0  0  1  0  0  3  0  0  0  0  0  0
  194.4490  174.7730  137.0030 C   0  0  0  0  0  0  0  0  0  0  0  0
  185.2780  178.4960  141.7820 C   0  0  1  0  0  3  0  0  0  0  0  0
  185.8680  179.5360  141.0410 O   0  0  0  0  0  0  0  0  0  0  0  0
  186.6960  178.8850  141.9770 C   0  0  2  0  0  3  0  0  0  0  0  0
  184.4220  179.0930  142.9000 C   0  0  2  0  0  3  0  0  0  0  0  0
  184.7000  178.4600  144.1270 O   0  0  0  0  0  0  0  0  0  0  0  0
  182.7310  179.4050  145.1060 N   0  0  0  0  0  2  0  0  0  0  0  0
  182.8930  179.1360  142.6330 C   0  0  2  0  0  3  0  0  0  0  0  0
  184.2060  179.3270  145.1180 C   0  0  0  0  0  2  0  0  0  0  0  0
  182.1380  178.7760  143.9160 C   0  0  0  0  0  2  0  0  0  0  0  0
  182.4100  178.2130  141.5150 C   0  0  0  0  0  2  0  0  0  0  0  0
  182.1600  178.9830  140.2630 C   0  0  0  0  0  0  0  0  0  0  0  0
  182.8140  178.7130  139.2250 O   0  0  0  0  0  0  0  0  0  0  0  0
  181.1980  179.9850  140.2350 O   0  0  0  0  0  1  0  0  0  0  0  0
  199.1610  173.7860  136.2250 N   0  0  0  0  0  1  0  0  0  0  0  0
  198.6540  172.7720  135.3160 C   0  0  0  0  0  2  0  0  0  0  0  0
  188.4290  171.3830  134.8790 C   0  0  0  0  0  3  0  0  0  0  0  0
  188.5160  172.3090  135.8350 C   0  0  0  0  0  3  0  0  0  0  0  0
  187.1590  170.6260  134.6550 C   0  0  2  0  0  3  0  0  0  0  0  0
  185.9940  171.3790  135.2730 C   0  0  0  0  0  1  0  0  0  0  0  0
  187.2630  169.3190  135.2750 N   0  0  0  0  0  1  0  0  0  0  0  0
  186.8270  176.6710  134.9180 C   0  0  0  0  0  2  0  0  0  0  0  0
  185.6530  174.6630  134.3460 O   0  0  0  0  0  0  0  0  0  0  0  0
  185.5750  175.8430  134.7870 C   0  0  0  0  0  0  0  0  0  0  0  0
  184.2490  176.4500  135.0720 C   0  0  0  0  0  0  0  0  0  0  0  0
  182.1010  176.4710  136.2340 C   0  0  0  0  0  0  0  0  0  0  0  0
  182.5820  178.1550  134.5630 C   0  0  0  0  0  3  0  0  0  0  0  0
  181.7120  177.5970  135.5030 C   0  0  0  0  0  3  0  0  0  0  0  0
  183.3630  175.8960  136.0260 C   0  0  0  0  0  0  0  0  0  0  0  0
  181.2420  175.9290  137.1340 F   0  0  0  0  0  0  0  0  0  0  0  0
  183.7040  174.7920  136.7410 F   0  0  0  0  0  0  0  0  0  0  0  0
  183.8400  177.5840  134.3500 C   0  0  0  0  0  3  0  0  0  0  0  0
  1 23  1  0  0  0  0
  2 26  1  0  0  0  0
  3 30  1  0  0  0  0
  4 16  3  0  0  0  0
  5  3  1  1  0  0  0
  5 32  1  0  0  0  0
  5 20  1  0  0  0  0
  6 27  1  0  0  0  0
  7 18  1  0  0  0  0
  8 15  1  0  0  0  0
  9 11  1  0  0  0  0
 10 19  2  0  0  0  0
 11 33  1  0  0  0  0
 12 34  1  0  0  0  0
 13  8  2  0  0  0  0
 13 10  1  0  0  0  0
 15 32  1  0  0  0  0
 15 12  2  0  0  0  0
 16 31  1  0  0  0  0
 17 29  1  0  0  0  0
 18  1  2  0  0  0  0
 19 12  1  0  0  0  0
 20 22  1  0  0  0  0
 20 24  2  0  0  0  0
 21 55  1  6  0  0  0
 21  9  1  0  0  0  0
 21  2  1  0  0  0  0
 22  7  2  0  0  0  0
 23  4  1  0  0  0  0
 24 34  1  0  0  0  0
 24 18  1  0  0  0  0
 25 28  1  6  0  0  0
 25 22  1  0  0  0  0
 27  1  1  0  0  0  0
 28 21  1  0  0  0  0
 29 14  2  0  0  0  0
 30 51  1  6  0  0  0
 30 25  1  0  0  0  0
 31 14  1  0  0  0  0
 33 26  1  6  0  0  0
 33 17  1  0  0  0  0
 34  6  2  0  0  0  0
 35 36  1  6  0  0  0
 35 37  1  0  0  0  0
 35 38  1  0  0  0  0
 36 37  1  0  0  0  0
 37 29  1  6  0  0  0
 38 39  1  1  0  0  0
 39 42  1  0  0  0  0
 40 42  1  0  0  0  0
 41 44  1  6  0  0  0
 41 38  1  0  0  0  0
 41 43  1  0  0  0  0
 43 40  1  0  0  0  0
 45 44  1  0  0  0  0
 46 45  2  0  0  0  0
 47 45  1  0  0  0  0
 49 10  1  0  0  0  0
 49 48  1  0  0  0  0
 50 51  2  0  0  0  0
 52 50  1  0  0  0  0
 52 53  1  1  0  0  0
 52 54  1  0  0  0  0
 56 57  2  0  0  0  0
 57 55  1  0  0  0  0
 57 58  1  0  0  0  0
 58 62  1  0  0  0  0
 59 63  1  0  0  0  0
 60 61  2  0  0  0  0
 61 59  1  0  0  0  0
 62 59  2  0  0  0  0
 62 64  1  0  0  0  0
 65 60  1  0  0  0  0
 65 58  2  0  0  0  0
M  END
>  <MODEL>
2

>  <REMARK>
 VINA RESULT:      -5.6      1.318      1.572
  Name = 
  10 active torsions:
  status: ('A' for Active; 'I' for Inactive)
    1  A    between atoms: C_2  and  C_18
    2  A    between atoms: C_2  and  C_35
    3  A    between atoms: C_4  and  C_25
    4  A    between atoms: C_7  and  C_12
    5  A    between atoms: C_15  and  C_25
    6  A    between atoms: C_15  and  C_41
    7  A    between atoms: C_19  and  C_52
    8  A    between atoms: C_39  and  C_45
    9  A    between atoms: C_50  and  C_60
   10  A    between atoms: C_56  and  C_61
                            x       y       z     vdW  Elec       q    Type
                         _______ _______ _______ _____ _____    ______ ____

>  <TORSDO>
F 10

$$$$
=
 OpenBabel10232410083D

 65 74  0  0  1  0  0  0  0  0999 V2000
  193.8390  176.6160  139.4410 C   0  0  0  0  0  0  0  0  0  0  0  0
  187.4590  175.9860  137.4110 C   0  0  0  0  0  2  0  0  0  0  0  0
  191.2870  173.4920  135.0700 N   0  0  0  0  0  2  0  0  0  0  0  0
  192.0250  177.0260  141.0600 C   0  0  0  0  0  0  0  0  0  0  0  0
  192.6350  173.9480  135.4710 C   0  0  1  0  0  3  0  0  0  0  0  0
  195.7130  175.5280  138.4580 N   0  0  0  0  0  0  0  0  0  0  0  0
  191.7090  176.0960  138.3210 N   0  0  0  0  0  0  0  0  0  0  0  0
  195.6480  171.9410  135.1680 C   0  0  0  0  0  3  0  0  0  0  0  0
  189.0050  177.9640  137.0780 C   0  0  0  0  0  2  0  0  0  0  0  0
  197.7310  172.9960  135.7770 C   0  0  0  0  0  0  0  0  0  0  0  0
  189.5590  177.6080  138.3200 O   0  0  0  0  0  0  0  0  0  0  0  0
  195.6210  173.9660  136.5350 C   0  0  0  0  0  0  0  0  0  0  0  0
  197.0410  171.9700  135.1340 C   0  0  0  0  0  3  0  0  0  0  0  0
  188.6890  176.9400  142.3510 C   0  0  0  0  0  3  0  0  0  0  0  0
  194.9220  172.9320  135.8380 C   0  0  0  0  0  0  0  0  0  0  0  0
  190.9650  176.5850  141.4300 C   0  0  0  0  0  0  0  0  0  0  0  0
  188.4280  178.3720  140.2880 C   0  0  0  0  0  2  0  0  0  0  0  0
  193.0510  176.1020  138.4180 C   0  0  0  0  0  0  0  0  0  0  0  0
  197.0250  173.9680  136.4880 C   0  0  0  0  0  3  0  0  0  0  0  0
  192.6060  174.9130  136.6000 C   0  0  0  0  0  0  0  0  0  0  0  0
  188.3460  176.7490  136.4080 C   0  0  1  0  0  0  0  0  0  0  0  0
  191.4520  175.3730  137.2030 C   0  0  0  0  0  0  0  0  0  0  0  0
  193.3010  177.5170  140.5210 C   0  0  0  0  0  2  0  0  0  0  0  0
  193.6460  175.3160  137.3850 C   0  0  0  0  0  0  0  0  0  0  0  0
  190.1040  174.8650  136.8070 C   0  0  1  0  0  3  0  0  0  0  0  0
  187.2170  176.7930  138.6890 C   0  0  0  0  0  2  0  0  0  0  0  0
  195.1740  176.3260  139.3960 N   0  0  0  0  0  2  0  0  0  0  0  0
  189.4300  175.8270  135.8150 C   0  0  0  0  0  2  0  0  0  0  0  0
  188.0580  177.9260  141.6790 C   0  0  0  0  0  0  0  0  0  0  0  0
  190.3270  173.4620  136.1920 C   0  0  1  0  0  3  0  0  0  0  0  0
  189.6870  175.9670  141.7930 C   0  0  0  0  0  2  0  0  0  0  0  0
  193.4930  172.8230  135.7950 N   0  0  0  0  0  2  0  0  0  0  0  0
  188.5630  177.2550  139.2680 C   0  0  1  0  0  3  0  0  0  0  0  0
  194.9840  174.9630  137.4420 C   0  0  0  0  0  0  0  0  0  0  0  0
  185.7160  178.2660  142.4070 C   0  0  1  0  0  3  0  0  0  0  0  0
  186.1250  179.3040  141.5500 O   0  0  0  0  0  0  0  0  0  0  0  0
  187.1000  178.7980  142.4320 C   0  0  2  0  0  3  0  0  0  0  0  0
  184.9170  178.8570  143.5690 C   0  0  2  0  0  3  0  0  0  0  0  0
  185.0830  178.0760  144.7300 O   0  0  0  0  0  0  0  0  0  0  0  0
  183.2280  179.1670  145.7770 N   0  0  0  0  0  2  0  0  0  0  0  0
  183.4120  179.1230  143.2920 C   0  0  2  0  0  3  0  0  0  0  0  0
  184.6800  178.8980  145.7970 C   0  0  0  0  0  2  0  0  0  0  0  0
  182.5870  178.7390  144.5240 C   0  0  0  0  0  2  0  0  0  0  0  0
  182.8420  178.3830  142.0820 C   0  0  0  0  0  2  0  0  0  0  0  0
  181.5090  178.9360  141.7040 C   0  0  0  0  0  0  0  0  0  0  0  0
  180.8310  178.3700  140.8110 O   0  0  0  0  0  0  0  0  0  0  0  0
  181.0080  180.0620  142.3460 O   0  0  0  0  0  1  0  0  0  0  0  0
  199.7330  172.6180  137.0600 N   0  0  0  0  0  1  0  0  0  0  0  0
  199.2200  173.0230  135.7620 C   0  0  0  0  0  2  0  0  0  0  0  0
  188.0920  172.4980  136.6960 C   0  0  0  0  0  3  0  0  0  0  0  0
  189.0620  172.7450  135.8140 C   0  0  0  0  0  3  0  0  0  0  0  0
  186.8400  171.7920  136.2830 C   0  0  2  0  0  3  0  0  0  0  0  0
  187.1700  170.7070  135.2730 C   0  0  0  0  0  1  0  0  0  0  0  0
  185.9280  172.7430  135.6780 N   0  0  0  0  0  1  0  0  0  0  0  0
  187.4970  177.2080  135.2160 C   0  0  0  0  0  2  0  0  0  0  0  0
  185.4170  176.4000  134.3460 O   0  0  0  0  0  0  0  0  0  0  0  0
  186.0170  176.9420  135.3150 C   0  0  0  0  0  0  0  0  0  0  0  0
  185.2560  177.4110  136.5010 C   0  0  0  0  0  0  0  0  0  0  0  0
  183.5590  177.0940  138.2290 C   0  0  0  0  0  0  0  0  0  0  0  0
  184.7340  179.2030  138.0710 C   0  0  0  0  0  3  0  0  0  0  0  0
  183.7800  178.3940  138.6910 C   0  0  0  0  0  3  0  0  0  0  0  0
  184.2910  176.5970  137.1400 C   0  0  0  0  0  0  0  0  0  0  0  0
  182.6200  176.3210  138.8310 F   0  0  0  0  0  0  0  0  0  0  0  0
  184.0400  175.3350  136.7050 F   0  0  0  0  0  0  0  0  0  0  0  0
  185.4650  178.7140  136.9830 C   0  0  0  0  0  3  0  0  0  0  0  0
  1 23  1  0  0  0  0
  2 26  1  0  0  0  0
  3 30  1  0  0  0  0
  4 16  3  0  0  0  0
  5  3  1  1  0  0  0
  5 32  1  0  0  0  0
  5 20  1  0  0  0  0
  6 27  1  0  0  0  0
  7 18  1  0  0  0  0
  8 15  1  0  0  0  0
  9 11  1  0  0  0  0
 10 19  2  0  0  0  0
 11 33  1  0  0  0  0
 12 34  1  0  0  0  0
 13  8  2  0  0  0  0
 13 10  1  0  0  0  0
 15 12  2  0  0  0  0
 16 31  1  0  0  0  0
 17 29  1  0  0  0  0
 18  1  2  0  0  0  0
 19 12  1  0  0  0  0
 20 22  1  0  0  0  0
 20 24  2  0  0  0  0
 21 55  1  6  0  0  0
 21  9  1  0  0  0  0
 21  2  1  0  0  0  0
 22  7  2  0  0  0  0
 23  4  1  0  0  0  0
 24 34  1  0  0  0  0
 24 18  1  0  0  0  0
 25 28  1  6  0  0  0
 25 22  1  0  0  0  0
 27  1  1  0  0  0  0
 28 21  1  0  0  0  0
 29 14  2  0  0  0  0
 30 51  1  6  0  0  0
 30 25  1  0  0  0  0
 31 14  1  0  0  0  0
 32 15  1  0  0  0  0
 33 26  1  6  0  0  0
 33 17  1  0  0  0  0
 34  6  2  0  0  0  0
 35 36  1  6  0  0  0
 35 37  1  0  0  0  0
 35 38  1  0  0  0  0
 36 37  1  0  0  0  0
 37 29  1  6  0  0  0
 38 39  1  1  0  0  0
 39 42  1  0  0  0  0
 40 42  1  0  0  0  0
 41 44  1  6  0  0  0
 41 38  1  0  0  0  0
 41 43  1  0  0  0  0
 43 40  1  0  0  0  0
 45 44  1  0  0  0  0
 45 47  1  0  0  0  0
 46 45  2  0  0  0  0
 49 10  1  0  0  0  0
 49 48  1  0  0  0  0
 51 50  2  0  0  0  0
 52 53  1  6  0  0  0
 52 50  1  0  0  0  0
 54 52  1  0  0  0  0
 55 57  1  0  0  0  0
 56 57  2  0  0  0  0
 57 58  1  0  0  0  0
 58 65  2  0  0  0  0
 58 62  1  0  0  0  0
 59 61  1  0  0  0  0
 59 63  1  0  0  0  0
 60 61  2  0  0  0  0
 62 59  2  0  0  0  0
 64 62  1  0  0  0  0
 65 60  1  0  0  0  0
M  END
>  <MODEL>
3

>  <REMARK>
 VINA RESULT:      -4.2      1.206      1.545
  Name = 
  10 active torsions:
  status: ('A' for Active; 'I' for Inactive)
    1  A    between atoms: C_2  and  C_18
    2  A    between atoms: C_2  and  C_35
    3  A    between atoms: C_4  and  C_25
    4  A    between atoms: C_7  and  C_12
    5  A    between atoms: C_15  and  C_25
    6  A    between atoms: C_15  and  C_41
    7  A    between atoms: C_19  and  C_52
    8  A    between atoms: C_39  and  C_45
    9  A    between atoms: C_50  and  C_60
   10  A    between atoms: C_56  and  C_61
                            x       y       z     vdW  Elec       q    Type
                         _______ _______ _______ _____ _____    ______ ____

>  <TORSDO>
F 10

$$$$
