=
 OpenBabel10232407583D

 44 47  0  0  1  0  0  0  0  0999 V2000
  189.4510  177.4030  138.8650 C   0  0  1  0  0  3  0  0  0  0  0  0
  193.0690  175.5080  137.8470 C   0  0  0  0  0  3  0  0  0  0  0  0
  189.3170  176.2760  137.8410 C   0  0  2  0  0  3  0  0  0  0  0  0
  191.9390  173.9580  136.2090 C   0  0  2  0  0  3  0  0  0  0  0  0
  191.9160  172.2950  135.5750 Cl  0  0  0  0  0  0  0  0  0  0  0  0
  193.0940  174.1400  137.2060 C   0  0  1  0  0  3  0  0  0  0  0  0
  190.6260  175.6540  137.5010 C   0  0  2  0  0  0  0  0  0  0  0  0
  191.9330  176.1920  138.0180 C   0  0  0  0  0  3  0  0  0  0  0  0
  190.0160  176.5940  136.6550 O   0  0  0  0  0  0  0  0  0  0  0  0
  190.6030  174.2560  136.8870 C   0  0  0  0  0  2  0  0  0  0  0  0
  194.3740  173.9270  136.5340 N   0  0  0  0  0  2  0  0  0  0  0  0
  197.8490  174.3300  137.6440 C   0  0  1  0  0  3  0  0  0  0  0  0
  198.8900  174.6530  138.7030 C   0  0  0  0  0  1  0  0  0  0  0  0
  196.3640  175.2610  136.1300 C   0  0  0  0  0  2  0  0  0  0  0  0
  195.3620  174.7930  137.1660 C   0  0  2  0  0  3  0  0  0  0  0  0
  196.2800  173.8750  138.4400 S   0  0  0  0  0  0  0  0  0  0  0  0
  197.6330  175.4930  136.7960 N   0  0  0  0  0  2  0  0  0  0  0  0
  189.0910  179.3990  137.5620 O   0  0  0  0  0  1  0  0  0  0  0  0
  188.5150  178.5570  138.5190 C   0  0  1  0  0  3  0  0  0  0  0  0
  187.1830  178.0320  138.0150 C   0  0  0  0  0  2  0  0  0  0  0  0
  186.0910  178.4390  138.9510 C   0  0  0  0  0  0  0  0  0  0  0  0
  185.0680  179.1220  140.7300 C   0  0  0  0  0  0  0  0  0  0  0  0
  183.9960  179.1080  139.6910 C   0  0  1  0  0  3  0  0  0  0  0  0
  186.3190  178.7120  140.1960 N   0  0  0  0  0  0  0  0  0  0  0  0
  184.9140  179.4900  141.9270 O   0  0  0  0  0  0  0  0  0  0  0  0
  184.7370  178.6370  138.5250 N   0  0  0  0  0  2  0  0  0  0  0  0
  181.2700  179.6770  139.0510 O   0  0  0  0  0  1  0  0  0  0  0  0
  182.8790  178.1530  140.0110 C   0  0  0  0  0  0  0  0  0  0  0  0
  183.1340  176.9910  140.4460 O   0  0  0  0  0  0  0  0  0  0  0  0
  181.5240  178.5410  139.7460 N   0  0  0  0  0  0  0  0  0  0  0  0
  180.4080  177.6870  140.1360 C   0  0  0  0  0  2  0  0  0  0  0  0
  180.0300  176.8970  137.9200 O   0  0  0  0  0  0  0  0  0  0  0  0
  180.2550  175.2700  139.5220 O   0  0  0  0  0  1  0  0  0  0  0  0
  180.2100  176.6030  139.1320 C   0  0  0  0  0  0  0  0  0  0  0  0
  189.1690  176.9100  140.1450 O   0  0  0  0  0  0  0  0  0  0  0  0
  190.2660  177.2790  140.9300 C   0  0  0  0  0  2  0  0  0  0  0  0
  190.4310  176.3070  142.0830 C   0  0  0  0  0  2  0  0  0  0  0  0
  188.7680  177.1780  143.6570 C   0  0  0  0  0  3  0  0  0  0  0  0
  190.0510  176.9600  143.3680 C   0  0  0  0  0  3  0  0  0  0  0  0
  188.3640  177.8040  144.9540 C   0  0  0  0  0  2  0  0  0  0  0  0
  186.8510  177.8510  145.0650 C   0  0  0  0  0  2  0  0  0  0  0  0
  186.3580  178.2260  146.7690 S   0  0  0  0  0  0  0  0  0  0  0  0
  187.8130  177.4060  147.4880 C   0  0  0  0  0  2  0  0  0  0  0  0
  188.4100  178.2740  148.5790 C   0  0  0  0  0  1  0  0  0  0  0  0
  1 35  1  1  0  0  0
  2  8  2  0  0  0  0
  3  1  1  1  0  0  0
  4  5  1  1  0  0  0
  4 10  1  0  0  0  0
  4  6  1  0  0  0  0
  6 11  1  6  0  0  0
  6  2  1  0  0  0  0
  7 10  1  6  0  0  0
  7  3  1  0  0  0  0
  7  8  1  0  0  0  0
  9  7  1  0  0  0  0
  9  3  1  0  0  0  0
 12 16  1  0  0  0  0
 12 13  1  1  0  0  0
 14 17  1  0  0  0  0
 14 15  1  0  0  0  0
 15 11  1  6  0  0  0
 15 16  1  0  0  0  0
 17 12  1  0  0  0  0
 19 18  1  6  0  0  0
 19  1  1  0  0  0  0
 20 19  1  0  0  0  0
 20 21  1  0  0  0  0
 21 24  2  0  0  0  0
 22 25  2  0  0  0  0
 23 28  1  1  0  0  0
 23 22  1  0  0  0  0
 24 22  1  0  0  0  0
 26 21  1  0  0  0  0
 26 23  1  0  0  0  0
 27 30  1  0  0  0  0
 28 29  2  0  0  0  0
 30 28  1  0  0  0  0
 30 31  1  0  0  0  0
 32 34  2  0  0  0  0
 34 33  1  0  0  0  0
 34 31  1  0  0  0  0
 35 36  1  0  0  0  0
 36 37  1  0  0  0  0
 37 39  1  0  0  0  0
 38 40  1  0  0  0  0
 39 38  2  0  0  0  0
 40 41  1  0  0  0  0
 41 42  1  0  0  0  0
 42 43  1  0  0  0  0
 43 44  1  0  0  0  0
M  END
>  <MODEL>
1

>  <REMARK>
 VINA RESULT:      -6.8      0.000      0.000
  Name = 
  17 active torsions:
  status: ('A' for Active; 'I' for Inactive)
    1  A    between atoms: C_1  and  C_29
    2  A    between atoms: C_1  and  O_31
    3  A    between atoms: C_2  and  C_24
    4  A    between atoms: C_4  and  C_5
    5  A    between atoms: C_4  and  O_31
    6  A    between atoms: C_4  and  C_35
    7  A    between atoms: C_6  and  C_26
    8  A    between atoms: N_8  and  C_18
    9  A    between atoms: N_8  and  C_22
   10  A    between atoms: C_12  and  N_37
   11  A    between atoms: C_12  and  C_38
   12  A    between atoms: C_16  and  C_17
   13  A    between atoms: C_19  and  C_29
   14  A    between atoms: C_24  and  C_43
   15  A    between atoms: C_26  and  C_35
   16  A    between atoms: C_27  and  S_44
   17  A    between atoms: C_43  and  S_44
                            x       y       z     vdW  Elec       q    Type
                         _______ _______ _______ _____ _____    ______ ____

>  <TORSDO>
F 17

$$$$
=
 OpenBabel10232407583D

 44 47  0  0  1  0  0  0  0  0999 V2000
  185.0560  178.5680  141.7760 C   0  0  1  0  0  3  0  0  0  0  0  0
  182.1270  176.5830  139.4960 C   0  0  0  0  0  3  0  0  0  0  0  0
  184.5680  179.3400  140.5490 C   0  0  2  0  0  3  0  0  0  0  0  0
  181.9930  178.4540  137.8110 C   0  0  2  0  0  3  0  0  0  0  0  0
  180.8860  179.3970  136.7840 Cl  0  0  0  0  0  0  0  0  0  0  0  0
  181.2350  177.3270  138.5290 C   0  0  1  0  0  3  0  0  0  0  0  0
  183.5490  178.5860  139.7680 C   0  0  2  0  0  0  0  0  0  0  0  0
  183.1700  177.1670  140.0960 C   0  0  0  0  0  3  0  0  0  0  0  0
  184.8920  178.6450  139.3620 O   0  0  0  0  0  0  0  0  0  0  0  0
  182.6480  179.3850  138.8300 C   0  0  0  0  0  2  0  0  0  0  0  0
  180.6750  176.3990  137.5510 N   0  0  0  0  0  2  0  0  0  0  0  0
  181.6070  173.4790  135.5320 C   0  0  1  0  0  3  0  0  0  0  0  0
  182.2140  172.0940  135.3760 C   0  0  0  0  0  1  0  0  0  0  0  0
  182.1040  175.7340  135.7020 C   0  0  0  0  0  2  0  0  0  0  0  0
  181.7320  175.4780  137.1490 C   0  0  2  0  0  3  0  0  0  0  0  0
  181.1490  173.7600  137.2680 S   0  0  0  0  0  0  0  0  0  0  0  0
  182.5740  174.4880  135.1250 N   0  0  0  0  0  2  0  0  0  0  0  0
  187.2510  179.4430  141.2980 O   0  0  0  0  0  1  0  0  0  0  0  0
  186.5530  178.2920  141.6760 C   0  0  1  0  0  3  0  0  0  0  0  0
  187.0890  177.7700  142.9970 C   0  0  0  0  0  2  0  0  0  0  0  0
  188.4710  177.2330  142.8060 C   0  0  0  0  0  0  0  0  0  0  0  0
  190.4580  176.4920  143.2370 C   0  0  0  0  0  0  0  0  0  0  0  0
  190.2980  176.2420  141.7740 C   0  0  1  0  0  3  0  0  0  0  0  0
  189.2940  177.0880  143.7950 N   0  0  0  0  0  0  0  0  0  0  0  0
  191.4710  176.1820  143.9210 O   0  0  0  0  0  0  0  0  0  0  0  0
  188.9530  176.7630  141.5420 N   0  0  0  0  0  2  0  0  0  0  0  0
  190.7010  175.6730  139.0030 O   0  0  0  0  0  1  0  0  0  0  0  0
  191.2930  176.9950  140.9360 C   0  0  0  0  0  0  0  0  0  0  0  0
  191.8840  178.0140  141.4030 O   0  0  0  0  0  0  0  0  0  0  0  0
  191.5120  176.5980  139.5750 N   0  0  0  0  0  0  0  0  0  0  0  0
  192.5400  177.2350  138.7620 C   0  0  0  0  0  2  0  0  0  0  0  0
  194.1960  175.5580  138.4090 O   0  0  0  0  0  1  0  0  0  0  0  0
  192.8230  175.9790  136.6200 O   0  0  0  0  0  0  0  0  0  0  0  0
  193.2410  176.2210  137.9230 C   0  0  0  0  0  0  0  0  0  0  0  0
  184.7690  179.2990  142.9350 O   0  0  0  0  0  0  0  0  0  0  0  0
  183.4410  178.9870  143.2460 C   0  0  0  0  0  2  0  0  0  0  0  0
  183.3190  178.6460  144.7190 C   0  0  0  0  0  2  0  0  0  0  0  0
  185.0300  178.2980  146.4370 C   0  0  0  0  0  3  0  0  0  0  0  0
  184.5550  179.0530  145.4470 C   0  0  0  0  0  3  0  0  0  0  0  0
  186.2850  178.6730  147.1600 C   0  0  0  0  0  2  0  0  0  0  0  0
  187.3830  177.6700  146.8570 C   0  0  0  0  0  2  0  0  0  0  0  0
  188.8140  177.9630  147.9320 S   0  0  0  0  0  0  0  0  0  0  0  0
  189.7330  176.5340  147.2830 C   0  0  0  0  0  2  0  0  0  0  0  0
  191.2250  176.7930  147.3750 C   0  0  0  0  0  1  0  0  0  0  0  0
  1 35  1  1  0  0  0
  2  8  2  0  0  0  0
  3  1  1  1  0  0  0
  4  5  1  1  0  0  0
  4  6  1  0  0  0  0
  4 10  1  0  0  0  0
  6 11  1  6  0  0  0
  6  2  1  0  0  0  0
  7 10  1  6  0  0  0
  7  8  1  0  0  0  0
  7  3  1  0  0  0  0
  9  7  1  0  0  0  0
  9  3  1  0  0  0  0
 12 13  1  1  0  0  0
 12 16  1  0  0  0  0
 14 15  1  0  0  0  0
 15 16  1  0  0  0  0
 15 11  1  6  0  0  0
 17 12  1  0  0  0  0
 17 14  1  0  0  0  0
 19 18  1  1  0  0  0
 19  1  1  0  0  0  0
 19 20  1  0  0  0  0
 21 20  1  0  0  0  0
 21 24  2  0  0  0  0
 22 24  1  0  0  0  0
 22 25  2  0  0  0  0
 23 28  1  6  0  0  0
 23 22  1  0  0  0  0
 26 23  1  0  0  0  0
 26 21  1  0  0  0  0
 27 30  1  0  0  0  0
 28 29  2  0  0  0  0
 30 28  1  0  0  0  0
 31 30  1  0  0  0  0
 33 34  2  0  0  0  0
 34 32  1  0  0  0  0
 34 31  1  0  0  0  0
 35 36  1  0  0  0  0
 36 37  1  0  0  0  0
 37 39  1  0  0  0  0
 38 40  1  0  0  0  0
 39 38  2  0  0  0  0
 41 40  1  0  0  0  0
 41 42  1  0  0  0  0
 43 44  1  0  0  0  0
 43 42  1  0  0  0  0
M  END
>  <MODEL>
2

>  <REMARK>
 VINA RESULT:      -6.7      4.172      9.668
  Name = 
  17 active torsions:
  status: ('A' for Active; 'I' for Inactive)
    1  A    between atoms: C_1  and  C_29
    2  A    between atoms: C_1  and  O_31
    3  A    between atoms: C_2  and  C_24
    4  A    between atoms: C_4  and  C_5
    5  A    between atoms: C_4  and  O_31
    6  A    between atoms: C_4  and  C_35
    7  A    between atoms: C_6  and  C_26
    8  A    between atoms: N_8  and  C_18
    9  A    between atoms: N_8  and  C_22
   10  A    between atoms: C_12  and  N_37
   11  A    between atoms: C_12  and  C_38
   12  A    between atoms: C_16  and  C_17
   13  A    between atoms: C_19  and  C_29
   14  A    between atoms: C_24  and  C_43
   15  A    between atoms: C_26  and  C_35
   16  A    between atoms: C_27  and  S_44
   17  A    between atoms: C_43  and  S_44
                            x       y       z     vdW  Elec       q    Type
                         _______ _______ _______ _____ _____    ______ ____

>  <TORSDO>
F 17

$$$$
=
 OpenBabel10232407583D

 44 47  0  0  1  0  0  0  0  0999 V2000
  187.3960  176.3380  136.9580 C   0  0  1  0  0  3  0  0  0  0  0  0
  189.4590  177.1060  140.5470 C   0  0  0  0  0  3  0  0  0  0  0  0
  188.9020  176.5520  136.7980 C   0  0  2  0  0  3  0  0  0  0  0  0
  191.6750  177.3460  139.3660 C   0  0  2  0  0  3  0  0  0  0  0  0
  193.4150  176.9910  139.4760 Cl  0  0  0  0  0  0  0  0  0  0  0  0
  190.9540  176.9230  140.6560 C   0  0  1  0  0  3  0  0  0  0  0  0
  189.5790  176.8400  138.0920 C   0  0  2  0  0  0  0  0  0  0  0  0
  188.8170  177.0330  139.3760 C   0  0  0  0  0  3  0  0  0  0  0  0
  189.2630  177.8630  137.1840 O   0  0  0  0  0  0  0  0  0  0  0  0
  191.0860  176.6070  138.1650 C   0  0  0  0  0  2  0  0  0  0  0  0
  191.4690  177.6870  141.7900 N   0  0  0  0  0  2  0  0  0  0  0  0
  191.3520  177.2900  145.4370 C   0  0  1  0  0  3  0  0  0  0  0  0
  191.0440  176.4870  146.6900 C   0  0  0  0  0  1  0  0  0  0  0  0
  190.4160  178.6060  143.7770 C   0  0  0  0  0  2  0  0  0  0  0  0
  190.6610  177.3550  142.9580 C   0  0  2  0  0  3  0  0  0  0  0  0
  191.5450  176.1710  144.0180 S   0  0  0  0  0  0  0  0  0  0  0  0
  190.2630  178.2180  145.1670 N   0  0  0  0  0  2  0  0  0  0  0  0
  186.8770  177.8000  135.1130 O   0  0  0  0  0  1  0  0  0  0  0  0
  186.6250  177.5590  136.4670 C   0  0  1  0  0  3  0  0  0  0  0  0
  185.1350  177.3750  136.6930 C   0  0  0  0  0  2  0  0  0  0  0  0
  184.7140  178.1120  137.9230 C   0  0  0  0  0  0  0  0  0  0  0  0
  184.8040  179.1650  139.8110 C   0  0  0  0  0  0  0  0  0  0  0  0
  183.3850  179.3350  139.3800 C   0  0  1  0  0  3  0  0  0  0  0  0
  185.5520  178.4170  138.8620 N   0  0  0  0  0  0  0  0  0  0  0  0
  185.3080  179.6520  140.8600 O   0  0  0  0  0  0  0  0  0  0  0  0
  183.3830  178.6050  138.1150 N   0  0  0  0  0  2  0  0  0  0  0  0
  180.7320  180.3440  139.7080 O   0  0  0  0  0  1  0  0  0  0  0  0
  182.4020  178.7150  140.3330 C   0  0  0  0  0  0  0  0  0  0  0  0
  182.6760  177.6250  140.9190 O   0  0  0  0  0  0  0  0  0  0  0  0
  181.1170  179.3270  140.5180 N   0  0  0  0  0  0  0  0  0  0  0  0
  180.1770  178.8160  141.5080 C   0  0  0  0  0  2  0  0  0  0  0  0
  180.0430  180.7280  142.9240 O   0  0  0  0  0  0  0  0  0  0  0  0
  180.8640  178.8260  143.9100 O   0  0  0  0  0  1  0  0  0  0  0  0
  180.3660  179.5150  142.8110 C   0  0  0  0  0  0  0  0  0  0  0  0
  187.0080  175.1950  136.2500 O   0  0  0  0  0  0  0  0  0  0  0  0
  187.1900  174.1320  137.1400 C   0  0  0  0  0  2  0  0  0  0  0  0
  187.5880  172.8800  136.3820 C   0  0  0  0  0  2  0  0  0  0  0  0
  185.2370  172.2040  136.5200 C   0  0  0  0  0  3  0  0  0  0  0  0
  186.3780  172.2040  135.8320 C   0  0  0  0  0  3  0  0  0  0  0  0
  184.0050  171.5570  135.9720 C   0  0  0  0  0  2  0  0  0  0  0  0
  182.9150  171.5280  137.0290 C   0  0  0  0  0  2  0  0  0  0  0  0
  181.2870  171.7310  136.2560 S   0  0  0  0  0  0  0  0  0  0  0  0
  181.4670  173.5330  136.0920 C   0  0  0  0  0  2  0  0  0  0  0  0
  181.4100  174.1850  137.4600 C   0  0  0  0  0  1  0  0  0  0  0  0
  1 35  1  6  0  0  0
  2  6  1  0  0  0  0
  3  1  1  1  0  0  0
  3  9  1  0  0  0  0
  3  7  1  0  0  0  0
  4  5  1  1  0  0  0
  4  6  1  0  0  0  0
  6 11  1  1  0  0  0
  7 10  1  1  0  0  0
  7  8  1  0  0  0  0
  8  2  2  0  0  0  0
  9  7  1  0  0  0  0
 10  4  1  0  0  0  0
 12 13  1  1  0  0  0
 14 17  1  0  0  0  0
 15 11  1  6  0  0  0
 15 14  1  0  0  0  0
 15 16  1  0  0  0  0
 16 12  1  0  0  0  0
 17 12  1  0  0  0  0
 19 18  1  6  0  0  0
 19 20  1  0  0  0  0
 19  1  1  0  0  0  0
 20 21  1  0  0  0  0
 21 26  1  0  0  0  0
 21 24  2  0  0  0  0
 22 25  2  0  0  0  0
 23 22  1  0  0  0  0
 23 28  1  1  0  0  0
 24 22  1  0  0  0  0
 26 23  1  0  0  0  0
 27 30  1  0  0  0  0
 28 30  1  0  0  0  0
 28 29  2  0  0  0  0
 30 31  1  0  0  0  0
 31 34  1  0  0  0  0
 34 32  2  0  0  0  0
 34 33  1  0  0  0  0
 35 36  1  0  0  0  0
 37 36  1  0  0  0  0
 39 37  1  0  0  0  0
 39 38  2  0  0  0  0
 40 38  1  0  0  0  0
 40 41  1  0  0  0  0
 42 41  1  0  0  0  0
 43 42  1  0  0  0  0
 43 44  1  0  0  0  0
M  END
>  <MODEL>
3

>  <REMARK>
 VINA RESULT:      -6.3      3.863      6.799
  Name = 
  17 active torsions:
  status: ('A' for Active; 'I' for Inactive)
    1  A    between atoms: C_1  and  C_29
    2  A    between atoms: C_1  and  O_31
    3  A    between atoms: C_2  and  C_24
    4  A    between atoms: C_4  and  C_5
    5  A    between atoms: C_4  and  O_31
    6  A    between atoms: C_4  and  C_35
    7  A    between atoms: C_6  and  C_26
    8  A    between atoms: N_8  and  C_18
    9  A    between atoms: N_8  and  C_22
   10  A    between atoms: C_12  and  N_37
   11  A    between atoms: C_12  and  C_38
   12  A    between atoms: C_16  and  C_17
   13  A    between atoms: C_19  and  C_29
   14  A    between atoms: C_24  and  C_43
   15  A    between atoms: C_26  and  C_35
   16  A    between atoms: C_27  and  S_44
   17  A    between atoms: C_43  and  S_44
                            x       y       z     vdW  Elec       q    Type
                         _______ _______ _______ _____ _____    ______ ____

>  <TORSDO>
F 17

$$$$
=
 OpenBabel10232407583D

 44 47  0  0  1  0  0  0  0  0999 V2000
  189.9000  176.5500  138.8280 C   0  0  1  0  0  3  0  0  0  0  0  0
  186.0640  176.3240  137.1090 C   0  0  0  0  0  3  0  0  0  0  0  0
  188.9720  177.7140  139.1770 C   0  0  2  0  0  3  0  0  0  0  0  0
  185.3410  178.5120  138.1340 C   0  0  2  0  0  3  0  0  0  0  0  0
  183.9810  179.3710  138.8970 Cl  0  0  0  0  0  0  0  0  0  0  0  0
  184.9020  177.1200  137.6570 C   0  0  1  0  0  3  0  0  0  0  0  0
  187.6380  177.5960  138.5280 C   0  0  2  0  0  0  0  0  0  0  0  0
  187.3180  176.5140  137.5320 C   0  0  0  0  0  3  0  0  0  0  0  0
  188.6320  178.4460  138.0170 O   0  0  0  0  0  0  0  0  0  0  0  0
  186.4860  178.3910  139.1380 C   0  0  0  0  0  2  0  0  0  0  0  0
  183.8590  177.2440  136.6410 N   0  0  0  0  0  2  0  0  0  0  0  0
  180.9900  176.0930  138.6200 C   0  0  1  0  0  3  0  0  0  0  0  0
  180.2850  175.0630  139.4870 C   0  0  0  0  0  1  0  0  0  0  0  0
  181.5080  176.6660  136.4370 C   0  0  0  0  0  2  0  0  0  0  0  0
  182.8790  176.1900  136.8730 C   0  0  2  0  0  3  0  0  0  0  0  0
  182.7830  175.7990  138.6470 S   0  0  0  0  0  0  0  0  0  0  0  0
  180.5110  175.9920  137.2490 N   0  0  0  0  0  2  0  0  0  0  0  0
  192.1930  176.9290  138.1870 O   0  0  0  0  0  1  0  0  0  0  0  0
  190.8730  176.9510  137.7240 C   0  0  1  0  0  3  0  0  0  0  0  0
  190.7290  176.0310  136.5250 C   0  0  0  0  0  2  0  0  0  0  0  0
  191.9910  175.2550  136.3260 C   0  0  0  0  0  0  0  0  0  0  0  0
  193.4720  173.6840  136.4640 C   0  0  0  0  0  0  0  0  0  0  0  0
  194.0100  174.5830  135.4010 C   0  0  1  0  0  3  0  0  0  0  0  0
  192.2310  174.1580  136.9700 N   0  0  0  0  0  0  0  0  0  0  0  0
  194.0120  172.6120  136.8500 O   0  0  0  0  0  0  0  0  0  0  0  0
  192.9810  175.6180  135.3560 N   0  0  0  0  0  2  0  0  0  0  0  0
  196.4930  173.3540  134.7030 O   0  0  0  0  0  1  0  0  0  0  0  0
  195.3370  175.1920  135.7600 C   0  0  0  0  0  0  0  0  0  0  0  0
  195.3950  176.3540  136.2610 O   0  0  0  0  0  0  0  0  0  0  0  0
  196.5440  174.4770  135.4610 N   0  0  0  0  0  0  0  0  0  0  0  0
  197.8430  174.9850  135.8850 C   0  0  0  0  0  2  0  0  0  0  0  0
  198.5310  173.3360  137.4620 O   0  0  0  0  0  0  0  0  0  0  0  0
  198.0620  175.4040  138.3390 O   0  0  0  0  0  1  0  0  0  0  0  0
  198.1540  174.5230  137.2680 C   0  0  0  0  0  0  0  0  0  0  0  0
  190.5960  176.1450  139.9730 O   0  0  0  0  0  0  0  0  0  0  0  0
  189.9980  176.8390  141.0300 C   0  0  0  0  0  2  0  0  0  0  0  0
  190.2560  176.1150  142.3380 C   0  0  0  0  0  2  0  0  0  0  0  0
  189.2680  177.2950  144.2450 C   0  0  0  0  0  3  0  0  0  0  0  0
  189.1410  176.3680  143.2960 C   0  0  0  0  0  3  0  0  0  0  0  0
  188.1510  177.5840  145.1970 C   0  0  0  0  0  2  0  0  0  0  0  0
  188.6230  177.4080  146.6280 C   0  0  0  0  0  2  0  0  0  0  0  0
  187.4070  178.1030  147.7800 S   0  0  0  0  0  0  0  0  0  0  0  0
  186.3280  178.7080  146.4480 C   0  0  0  0  0  2  0  0  0  0  0  0
  184.8960  178.2750  146.7050 C   0  0  0  0  0  1  0  0  0  0  0  0
  1 35  1  1  0  0  0
  2  8  2  0  0  0  0
  2  6  1  0  0  0  0
  3  1  1  6  0  0  0
  4  5  1  1  0  0  0
  4 10  1  0  0  0  0
  6 11  1  6  0  0  0
  6  4  1  0  0  0  0
  7  8  1  6  0  0  0
  7 10  1  0  0  0  0
  7  3  1  0  0  0  0
  9  7  1  0  0  0  0
  9  3  1  0  0  0  0
 12 16  1  0  0  0  0
 12 13  1  1  0  0  0
 14 15  1  0  0  0  0
 14 17  1  0  0  0  0
 15 11  1  1  0  0  0
 15 16  1  0  0  0  0
 17 12  1  0  0  0  0
 19 18  1  1  0  0  0
 19  1  1  0  0  0  0
 20 19  1  0  0  0  0
 21 20  1  0  0  0  0
 21 24  2  0  0  0  0
 22 25  2  0  0  0  0
 22 24  1  0  0  0  0
 23 28  1  1  0  0  0
 23 22  1  0  0  0  0
 26 23  1  0  0  0  0
 26 21  1  0  0  0  0
 27 30  1  0  0  0  0
 28 29  2  0  0  0  0
 30 28  1  0  0  0  0
 30 31  1  0  0  0  0
 31 34  1  0  0  0  0
 34 32  2  0  0  0  0
 34 33  1  0  0  0  0
 35 36  1  0  0  0  0
 36 37  1  0  0  0  0
 37 39  1  0  0  0  0
 38 40  1  0  0  0  0
 39 38  2  0  0  0  0
 40 41  1  0  0  0  0
 41 42  1  0  0  0  0
 43 44  1  0  0  0  0
 43 42  1  0  0  0  0
M  END
>  <MODEL>
4

>  <REMARK>
 VINA RESULT:      -6.1      4.027     10.609
  Name = 
  17 active torsions:
  status: ('A' for Active; 'I' for Inactive)
    1  A    between atoms: C_1  and  C_29
    2  A    between atoms: C_1  and  O_31
    3  A    between atoms: C_2  and  C_24
    4  A    between atoms: C_4  and  C_5
    5  A    between atoms: C_4  and  O_31
    6  A    between atoms: C_4  and  C_35
    7  A    between atoms: C_6  and  C_26
    8  A    between atoms: N_8  and  C_18
    9  A    between atoms: N_8  and  C_22
   10  A    between atoms: C_12  and  N_37
   11  A    between atoms: C_12  and  C_38
   12  A    between atoms: C_16  and  C_17
   13  A    between atoms: C_19  and  C_29
   14  A    between atoms: C_24  and  C_43
   15  A    between atoms: C_26  and  C_35
   16  A    between atoms: C_27  and  S_44
   17  A    between atoms: C_43  and  S_44
                            x       y       z     vdW  Elec       q    Type
                         _______ _______ _______ _____ _____    ______ ____

>  <TORSDO>
F 17

$$$$
=
 OpenBabel10232407583D

 44 47  0  0  1  0  0  0  0  0999 V2000
  191.5330  176.4140  138.2650 C   0  0  1  0  0  3  0  0  0  0  0  0
  193.1150  173.0290  136.3260 C   0  0  0  0  0  3  0  0  0  0  0  0
  192.9800  176.5640  137.7940 C   0  0  2  0  0  3  0  0  0  0  0  0
  195.3630  174.1210  135.9870 C   0  0  2  0  0  3  0  0  0  0  0  0
  196.7210  174.3100  134.8510 Cl  0  0  0  0  0  0  0  0  0  0  0  0
  194.3340  173.1220  135.4370 C   0  0  1  0  0  3  0  0  0  0  0  0
  193.4970  175.3340  137.1350 C   0  0  2  0  0  0  0  0  0  0  0  0
  192.7050  174.0550  137.0800 C   0  0  0  0  0  3  0  0  0  0  0  0
  193.8200  175.6460  138.4650 O   0  0  0  0  0  0  0  0  0  0  0  0
  194.7090  175.4820  136.2180 C   0  0  0  0  0  2  0  0  0  0  0  0
  194.9450  171.8040  135.2890 N   0  0  0  0  0  2  0  0  0  0  0  0
  195.8760  168.8880  137.3160 C   0  0  1  0  0  3  0  0  0  0  0  0
  195.6310  167.9140  138.4560 C   0  0  0  0  0  1  0  0  0  0  0  0
  196.6760  170.9980  136.7930 C   0  0  0  0  0  2  0  0  0  0  0  0
  195.1950  171.2730  136.6240 C   0  0  2  0  0  3  0  0  0  0  0  0
  194.3170  169.6970  136.8490 S   0  0  0  0  0  0  0  0  0  0  0  0
  196.8320  169.9030  137.7330 N   0  0  0  0  0  2  0  0  0  0  0  0
  192.3400  177.6790  140.1510 O   0  0  0  0  0  1  0  0  0  0  0  0
  191.4210  176.7010  139.7590 C   0  0  1  0  0  3  0  0  0  0  0  0
  190.0120  177.1410  140.1140 C   0  0  0  0  0  2  0  0  0  0  0  0
  189.8520  177.1770  141.6000 C   0  0  0  0  0  0  0  0  0  0  0  0
  190.1070  176.7190  143.6990 C   0  0  0  0  0  0  0  0  0  0  0  0
  189.2630  177.9500  143.7070 C   0  0  1  0  0  3  0  0  0  0  0  0
  190.4340  176.3190  142.3750 N   0  0  0  0  0  0  0  0  0  0  0  0
  190.5260  176.1180  144.7260 O   0  0  0  0  0  0  0  0  0  0  0  0
  189.1200  178.2060  142.2770 N   0  0  0  0  0  2  0  0  0  0  0  0
  188.7720  178.3840  146.4880 O   0  0  0  0  0  1  0  0  0  0  0  0
  187.9110  177.7320  144.3280 C   0  0  0  0  0  0  0  0  0  0  0  0
  186.9030  177.4880  143.6010 O   0  0  0  0  0  0  0  0  0  0  0  0
  187.7550  177.8800  145.7470 N   0  0  0  0  0  0  0  0  0  0  0  0
  186.4870  177.5780  146.3990 C   0  0  0  0  0  2  0  0  0  0  0  0
  185.8680  179.5980  147.5010 O   0  0  0  0  0  1  0  0  0  0  0  0
  184.7030  179.1250  145.5810 O   0  0  0  0  0  0  0  0  0  0  0  0
  185.6660  178.8150  146.5340 C   0  0  0  0  0  0  0  0  0  0  0  0
  190.7100  177.2820  137.5360 O   0  0  0  0  0  0  0  0  0  0  0  0
  190.1770  176.5020  136.5040 C   0  0  0  0  0  2  0  0  0  0  0  0
  189.1770  175.5100  137.0670 C   0  0  0  0  0  2  0  0  0  0  0  0
  187.7020  177.4650  136.9980 C   0  0  0  0  0  3  0  0  0  0  0  0
  187.8570  176.1710  137.2770 C   0  0  0  0  0  3  0  0  0  0  0  0
  186.3780  178.1390  137.1730 C   0  0  0  0  0  2  0  0  0  0  0  0
  185.2510  177.1510  136.9310 C   0  0  0  0  0  2  0  0  0  0  0  0
  183.9730  177.3340  138.2050 S   0  0  0  0  0  0  0  0  0  0  0  0
  184.6420  178.9140  138.8060 C   0  0  0  0  0  2  0  0  0  0  0  0
  184.7690  178.8820  140.3170 C   0  0  0  0  0  1  0  0  0  0  0  0
  1 35  1  6  0  0  0
  1 19  1  0  0  0  0
  2  8  2  0  0  0  0
  3  1  1  1  0  0  0
  3  9  1  0  0  0  0
  4  5  1  6  0  0  0
  4 10  1  0  0  0  0
  6 11  1  1  0  0  0
  6  4  1  0  0  0  0
  6  2  1  0  0  0  0
  7 10  1  6  0  0  0
  7  3  1  0  0  0  0
  7  9  1  0  0  0  0
  8  7  1  0  0  0  0
 12 17  1  0  0  0  0
 12 13  1  1  0  0  0
 14 17  1  0  0  0  0
 15 11  1  6  0  0  0
 15 14  1  0  0  0  0
 15 16  1  0  0  0  0
 16 12  1  0  0  0  0
 19 20  1  0  0  0  0
 19 18  1  6  0  0  0
 20 21  1  0  0  0  0
 21 26  1  0  0  0  0
 21 24  2  0  0  0  0
 22 23  1  0  0  0  0
 22 25  2  0  0  0  0
 23 28  1  6  0  0  0
 24 22  1  0  0  0  0
 26 23  1  0  0  0  0
 28 30  1  0  0  0  0
 29 28  2  0  0  0  0
 30 31  1  0  0  0  0
 30 27  1  0  0  0  0
 31 34  1  0  0  0  0
 33 34  2  0  0  0  0
 34 32  1  0  0  0  0
 36 37  1  0  0  0  0
 36 35  1  0  0  0  0
 37 39  1  0  0  0  0
 38 40  1  0  0  0  0
 38 39  2  0  0  0  0
 41 40  1  0  0  0  0
 41 42  1  0  0  0  0
 42 43  1  0  0  0  0
 43 44  1  0  0  0  0
M  END
>  <MODEL>
5

>  <REMARK>
 VINA RESULT:      -6.0      3.829      6.272
  Name = 
  17 active torsions:
  status: ('A' for Active; 'I' for Inactive)
    1  A    between atoms: C_1  and  C_29
    2  A    between atoms: C_1  and  O_31
    3  A    between atoms: C_2  and  C_24
    4  A    between atoms: C_4  and  C_5
    5  A    between atoms: C_4  and  O_31
    6  A    between atoms: C_4  and  C_35
    7  A    between atoms: C_6  and  C_26
    8  A    between atoms: N_8  and  C_18
    9  A    between atoms: N_8  and  C_22
   10  A    between atoms: C_12  and  N_37
   11  A    between atoms: C_12  and  C_38
   12  A    between atoms: C_16  and  C_17
   13  A    between atoms: C_19  and  C_29
   14  A    between atoms: C_24  and  C_43
   15  A    between atoms: C_26  and  C_35
   16  A    between atoms: C_27  and  S_44
   17  A    between atoms: C_43  and  S_44
                            x       y       z     vdW  Elec       q    Type
                         _______ _______ _______ _____ _____    ______ ____

>  <TORSDO>
F 17

$$$$
=
 OpenBabel10232407583D

 44 47  0  0  1  0  0  0  0  0999 V2000
  190.0350  177.2730  139.4700 C   0  0  1  0  0  3  0  0  0  0  0  0
  193.3840  176.0680  137.2220 C   0  0  0  0  0  3  0  0  0  0  0  0
  189.7620  176.1550  138.4620 C   0  0  2  0  0  3  0  0  0  0  0  0
  192.0530  174.3670  135.9200 C   0  0  2  0  0  3  0  0  0  0  0  0
  192.0970  172.7360  135.2080 Cl  0  0  0  0  0  0  0  0  0  0  0  0
  193.4230  174.7360  136.5100 C   0  0  1  0  0  3  0  0  0  0  0  0
  190.9720  175.7820  137.6810 C   0  0  2  0  0  0  0  0  0  0  0  0
  192.2700  176.5360  137.7940 C   0  0  0  0  0  3  0  0  0  0  0  0
  189.9760  176.6120  137.1420 O   0  0  0  0  0  0  0  0  0  0  0  0
  190.9800  174.4120  137.0070 C   0  0  0  0  0  2  0  0  0  0  0  0
  194.4310  174.7650  135.4530 N   0  0  0  0  0  2  0  0  0  0  0  0
  197.2980  174.3960  137.7150 C   0  0  1  0  0  3  0  0  0  0  0  0
  198.7730  174.1410  137.9810 C   0  0  0  0  0  1  0  0  0  0  0  0
  195.2710  173.3720  137.2590 C   0  0  0  0  0  2  0  0  0  0  0  0
  195.5520  173.9360  135.8800 C   0  0  2  0  0  3  0  0  0  0  0  0
  197.0660  174.9360  135.9950 S   0  0  0  0  0  0  0  0  0  0  0  0
  196.5400  173.1740  137.9360 N   0  0  0  0  0  2  0  0  0  0  0  0
  187.6540  177.4870  139.1620 O   0  0  0  0  0  1  0  0  0  0  0  0
  188.7860  178.1210  139.6840 C   0  0  1  0  0  3  0  0  0  0  0  0
  188.5840  178.4120  141.1600 C   0  0  0  0  0  2  0  0  0  0  0  0
  187.1230  178.5130  141.4620 C   0  0  0  0  0  0  0  0  0  0  0  0
  185.2310  178.3570  142.4980 C   0  0  0  0  0  0  0  0  0  0  0  0
  184.9100  179.1940  141.3040 C   0  0  1  0  0  3  0  0  0  0  0  0
  186.6040  177.9930  142.5270 N   0  0  0  0  0  0  0  0  0  0  0  0
  184.4110  178.0390  143.4020 O   0  0  0  0  0  0  0  0  0  0  0  0
  186.2120  179.2590  140.6450 N   0  0  0  0  0  2  0  0  0  0  0  0
  184.0830  180.4090  138.8540 O   0  0  0  0  0  1  0  0  0  0  0  0
  183.9030  178.5540  140.3890 C   0  0  0  0  0  0  0  0  0  0  0  0
  183.4960  177.3750  140.6090 O   0  0  0  0  0  0  0  0  0  0  0  0
  183.4630  179.2600  139.2210 N   0  0  0  0  0  0  0  0  0  0  0  0
  182.4140  178.7190  138.3660 C   0  0  0  0  0  2  0  0  0  0  0  0
  181.1050  180.2830  137.1340 O   0  0  0  0  0  0  0  0  0  0  0  0
  180.4480  179.9440  139.3060 O   0  0  0  0  0  1  0  0  0  0  0  0
  181.2980  179.6980  138.2330 C   0  0  0  0  0  0  0  0  0  0  0  0
  190.4640  176.7170  140.6820 O   0  0  0  0  0  0  0  0  0  0  0  0
  191.6500  177.3900  140.9940 C   0  0  0  0  0  2  0  0  0  0  0  0
  192.0220  177.1400  142.4430 C   0  0  0  0  0  2  0  0  0  0  0  0
  190.5830  178.2670  144.0750 C   0  0  0  0  0  3  0  0  0  0  0  0
  190.8080  177.2010  143.3070 C   0  0  0  0  0  3  0  0  0  0  0  0
  189.3560  178.3610  144.9250 C   0  0  0  0  0  2  0  0  0  0  0  0
  188.9910  176.9920  145.4700 C   0  0  0  0  0  2  0  0  0  0  0  0
  189.6090  176.8060  147.1650 S   0  0  0  0  0  0  0  0  0  0  0  0
  188.0080  177.2310  147.9130 C   0  0  0  0  0  2  0  0  0  0  0  0
  188.2250  178.0500  149.1720 C   0  0  0  0  0  1  0  0  0  0  0  0
  1 19  1  0  0  0  0
  1 35  1  1  0  0  0
  2  8  2  0  0  0  0
  3  1  1  1  0  0  0
  4  5  1  1  0  0  0
  4  6  1  0  0  0  0
  4 10  1  0  0  0  0
  6 11  1  6  0  0  0
  6  2  1  0  0  0  0
  7 10  1  6  0  0  0
  7  8  1  0  0  0  0
  7  3  1  0  0  0  0
  9  7  1  0  0  0  0
  9  3  1  0  0  0  0
 12 17  1  0  0  0  0
 12 13  1  6  0  0  0
 14 17  1  0  0  0  0
 15 11  1  1  0  0  0
 15 16  1  0  0  0  0
 15 14  1  0  0  0  0
 16 12  1  0  0  0  0
 19 18  1  1  0  0  0
 19 20  1  0  0  0  0
 20 21  1  0  0  0  0
 21 24  2  0  0  0  0
 22 24  1  0  0  0  0
 22 25  2  0  0  0  0
 23 28  1  6  0  0  0
 23 22  1  0  0  0  0
 26 23  1  0  0  0  0
 26 21  1  0  0  0  0
 27 30  1  0  0  0  0
 28 29  2  0  0  0  0
 30 28  1  0  0  0  0
 31 30  1  0  0  0  0
 32 34  2  0  0  0  0
 34 31  1  0  0  0  0
 34 33  1  0  0  0  0
 35 36  1  0  0  0  0
 36 37  1  0  0  0  0
 37 39  1  0  0  0  0
 38 40  1  0  0  0  0
 39 38  2  0  0  0  0
 40 41  1  0  0  0  0
 41 42  1  0  0  0  0
 42 43  1  0  0  0  0
 43 44  1  0  0  0  0
M  END
>  <MODEL>
6

>  <REMARK>
 VINA RESULT:      -6.0      1.795      2.068
  Name = 
  17 active torsions:
  status: ('A' for Active; 'I' for Inactive)
    1  A    between atoms: C_1  and  C_29
    2  A    between atoms: C_1  and  O_31
    3  A    between atoms: C_2  and  C_24
    4  A    between atoms: C_4  and  C_5
    5  A    between atoms: C_4  and  O_31
    6  A    between atoms: C_4  and  C_35
    7  A    between atoms: C_6  and  C_26
    8  A    between atoms: N_8  and  C_18
    9  A    between atoms: N_8  and  C_22
   10  A    between atoms: C_12  and  N_37
   11  A    between atoms: C_12  and  C_38
   12  A    between atoms: C_16  and  C_17
   13  A    between atoms: C_19  and  C_29
   14  A    between atoms: C_24  and  C_43
   15  A    between atoms: C_26  and  C_35
   16  A    between atoms: C_27  and  S_44
   17  A    between atoms: C_43  and  S_44
                            x       y       z     vdW  Elec       q    Type
                         _______ _______ _______ _____ _____    ______ ____

>  <TORSDO>
F 17

$$$$
=
 OpenBabel10232407583D

 44 47  0  0  1  0  0  0  0  0999 V2000
  191.4430  175.9860  138.3060 C   0  0  1  0  0  3  0  0  0  0  0  0
  193.7750  173.1660  136.2250 C   0  0  0  0  0  3  0  0  0  0  0  0
  192.7540  176.5330  137.7390 C   0  0  2  0  0  3  0  0  0  0  0  0
  195.5970  174.8430  135.7450 C   0  0  2  0  0  3  0  0  0  0  0  0
  196.7650  175.3960  134.5210 Cl  0  0  0  0  0  0  0  0  0  0  0  0
  194.8540  173.5900  135.2560 C   0  0  1  0  0  3  0  0  0  0  0  0
  193.5490  175.4920  137.0320 C   0  0  2  0  0  0  0  0  0  0  0  0
  193.1460  174.0410  137.0170 C   0  0  0  0  0  3  0  0  0  0  0  0
  193.8620  175.8930  138.3400 O   0  0  0  0  0  0  0  0  0  0  0  0
  194.6040  175.9670  136.0360 C   0  0  0  0  0  2  0  0  0  0  0  0
  195.7990  172.4960  135.0520 N   0  0  0  0  0  2  0  0  0  0  0  0
  197.6820  169.9910  136.9630 C   0  0  1  0  0  3  0  0  0  0  0  0
  197.8050  168.9740  138.0860 C   0  0  0  0  0  1  0  0  0  0  0  0
  197.7620  172.2510  136.4640 C   0  0  0  0  0  2  0  0  0  0  0  0
  196.2620  172.0520  136.3620 C   0  0  2  0  0  3  0  0  0  0  0  0
  195.9300  170.2780  136.5790 S   0  0  0  0  0  0  0  0  0  0  0  0
  198.2930  171.2480  137.3690 N   0  0  0  0  0  2  0  0  0  0  0  0
  192.2180  177.3060  140.1670 O   0  0  0  0  0  1  0  0  0  0  0  0
  191.0950  176.6790  139.6190 C   0  0  1  0  0  3  0  0  0  0  0  0
  189.9850  177.6940  139.4100 C   0  0  0  0  0  2  0  0  0  0  0  0
  189.1070  177.7410  140.6200 C   0  0  0  0  0  0  0  0  0  0  0  0
  187.4480  178.2020  141.9280 C   0  0  0  0  0  0  0  0  0  0  0  0
  188.2280  177.1850  142.6930 C   0  0  1  0  0  3  0  0  0  0  0  0
  188.0440  178.4780  140.6680 N   0  0  0  0  0  0  0  0  0  0  0  0
  186.3690  178.7300  142.3130 O   0  0  0  0  0  0  0  0  0  0  0  0
  189.3290  176.9190  141.7720 N   0  0  0  0  0  2  0  0  0  0  0  0
  186.7900  176.9330  145.1490 O   0  0  0  0  0  1  0  0  0  0  0  0
  188.7630  177.7120  143.9960 C   0  0  0  0  0  0  0  0  0  0  0  0
  189.9470  178.1580  144.0690 O   0  0  0  0  0  0  0  0  0  0  0  0
  187.9500  177.6340  145.1750 N   0  0  0  0  0  0  0  0  0  0  0  0
  188.3900  178.2250  146.4320 C   0  0  0  0  0  2  0  0  0  0  0  0
  189.9340  176.5230  147.0630 O   0  0  0  0  0  0  0  0  0  0  0  0
  188.2320  176.9110  148.5510 O   0  0  0  0  0  1  0  0  0  0  0  0
  188.8910  177.1670  147.3550 C   0  0  0  0  0  0  0  0  0  0  0  0
  190.4170  176.1650  137.3700 O   0  0  0  0  0  0  0  0  0  0  0  0
  189.7490  174.9360  137.3190 C   0  0  0  0  0  2  0  0  0  0  0  0
  188.3220  175.1400  136.8460 C   0  0  0  0  0  2  0  0  0  0  0  0
  186.5050  176.7420  137.2080 C   0  0  0  0  0  3  0  0  0  0  0  0
  187.7990  176.4490  137.3310 C   0  0  0  0  0  3  0  0  0  0  0  0
  185.9560  178.0380  137.7150 C   0  0  0  0  0  2  0  0  0  0  0  0
  184.5100  177.8620  138.1420 C   0  0  0  0  0  2  0  0  0  0  0  0
  184.0110  179.2150  139.2430 S   0  0  0  0  0  0  0  0  0  0  0  0
  183.4090  178.0880  140.5360 C   0  0  0  0  0  2  0  0  0  0  0  0
  182.7590  176.8720  139.9020 C   0  0  0  0  0  1  0  0  0  0  0  0
  1 35  1  6  0  0  0
  1 19  1  0  0  0  0
  2  8  2  0  0  0  0
  3  1  1  1  0  0  0
  3  9  1  0  0  0  0
  4  5  1  6  0  0  0
  4 10  1  0  0  0  0
  6 11  1  1  0  0  0
  6  4  1  0  0  0  0
  6  2  1  0  0  0  0
  7 10  1  6  0  0  0
  7  3  1  0  0  0  0
  7  9  1  0  0  0  0
  8  7  1  0  0  0  0
 12 17  1  0  0  0  0
 12 13  1  1  0  0  0
 14 17  1  0  0  0  0
 15 11  1  6  0  0  0
 15 14  1  0  0  0  0
 15 16  1  0  0  0  0
 16 12  1  0  0  0  0
 19 18  1  6  0  0  0
 20 19  1  0  0  0  0
 20 21  1  0  0  0  0
 21 24  2  0  0  0  0
 21 26  1  0  0  0  0
 22 25  2  0  0  0  0
 22 23  1  0  0  0  0
 23 28  1  1  0  0  0
 24 22  1  0  0  0  0
 26 23  1  0  0  0  0
 27 30  1  0  0  0  0
 28 29  2  0  0  0  0
 28 30  1  0  0  0  0
 30 31  1  0  0  0  0
 31 34  1  0  0  0  0
 32 34  2  0  0  0  0
 34 33  1  0  0  0  0
 36 35  1  0  0  0  0
 37 36  1  0  0  0  0
 37 39  1  0  0  0  0
 38 39  2  0  0  0  0
 38 40  1  0  0  0  0
 40 41  1  0  0  0  0
 41 42  1  0  0  0  0
 42 43  1  0  0  0  0
 44 43  1  0  0  0  0
M  END
>  <MODEL>
7

>  <REMARK>
 VINA RESULT:      -6.0      3.286      6.257
  Name = 
  17 active torsions:
  status: ('A' for Active; 'I' for Inactive)
    1  A    between atoms: C_1  and  C_29
    2  A    between atoms: C_1  and  O_31
    3  A    between atoms: C_2  and  C_24
    4  A    between atoms: C_4  and  C_5
    5  A    between atoms: C_4  and  O_31
    6  A    between atoms: C_4  and  C_35
    7  A    between atoms: C_6  and  C_26
    8  A    between atoms: N_8  and  C_18
    9  A    between atoms: N_8  and  C_22
   10  A    between atoms: C_12  and  N_37
   11  A    between atoms: C_12  and  C_38
   12  A    between atoms: C_16  and  C_17
   13  A    between atoms: C_19  and  C_29
   14  A    between atoms: C_24  and  C_43
   15  A    between atoms: C_26  and  C_35
   16  A    between atoms: C_27  and  S_44
   17  A    between atoms: C_43  and  S_44
                            x       y       z     vdW  Elec       q    Type
                         _______ _______ _______ _____ _____    ______ ____

>  <TORSDO>
F 17

$$$$
=
 OpenBabel10232407583D

 44 47  0  0  1  0  0  0  0  0999 V2000
  189.1770  176.6150  137.6510 C   0  0  1  0  0  3  0  0  0  0  0  0
  188.3130  177.7190  141.6210 C   0  0  0  0  0  3  0  0  0  0  0  0
  190.3750  176.5770  138.6020 C   0  0  2  0  0  3  0  0  0  0  0  0
  190.7060  177.4180  142.3560 C   0  0  2  0  0  3  0  0  0  0  0  0
  191.7500  176.8430  143.6780 Cl  0  0  0  0  0  0  0  0  0  0  0  0
  189.2270  177.3460  142.7640 C   0  0  1  0  0  3  0  0  0  0  0  0
  190.0190  176.9960  139.9850 C   0  0  2  0  0  0  0  0  0  0  0  0
  188.6570  177.5270  140.3420 C   0  0  0  0  0  3  0  0  0  0  0  0
  190.6610  177.8710  139.0940 O   0  0  0  0  0  0  0  0  0  0  0  0
  190.9550  176.5660  141.1120 C   0  0  0  0  0  2  0  0  0  0  0  0
  188.9800  178.2210  143.9070 N   0  0  0  0  0  2  0  0  0  0  0  0
  187.8790  178.0650  147.4050 C   0  0  1  0  0  3  0  0  0  0  0  0
  187.8600  177.4120  148.7780 C   0  0  0  0  0  1  0  0  0  0  0  0
  186.9850  177.9670  145.2710 C   0  0  0  0  0  2  0  0  0  0  0  0
  188.3650  177.4220  144.9600 C   0  0  2  0  0  3  0  0  0  0  0  0
  189.3500  177.5240  146.4850 S   0  0  0  0  0  0  0  0  0  0  0  0
  186.6860  177.6830  146.6630 N   0  0  0  0  0  2  0  0  0  0  0  0
  189.0410  177.2270  135.3240 O   0  0  0  0  0  1  0  0  0  0  0  0
  189.3600  177.7040  136.5990 C   0  0  1  0  0  3  0  0  0  0  0  0
  188.5060  178.9150  136.9290 C   0  0  0  0  0  2  0  0  0  0  0  0
  187.1040  178.4830  137.2180 C   0  0  0  0  0  0  0  0  0  0  0  0
  185.1200  177.6600  136.9590 C   0  0  0  0  0  0  0  0  0  0  0  0
  185.2110  177.9030  138.4290 C   0  0  1  0  0  3  0  0  0  0  0  0
  186.3210  178.0290  136.2930 N   0  0  0  0  0  0  0  0  0  0  0  0
  184.1290  177.1520  136.3660 O   0  0  0  0  0  0  0  0  0  0  0  0
  186.5570  178.4590  138.5420 N   0  0  0  0  0  2  0  0  0  0  0  0
  182.8500  177.1130  139.8300 O   0  0  0  0  0  1  0  0  0  0  0  0
  184.2000  178.8990  138.9250 C   0  0  0  0  0  0  0  0  0  0  0  0
  184.4400  180.1410  138.8640 O   0  0  0  0  0  0  0  0  0  0  0  0
  182.9920  178.4300  139.5390 N   0  0  0  0  0  0  0  0  0  0  0  0
  181.9420  179.3580  139.9390 C   0  0  0  0  0  2  0  0  0  0  0  0
  180.9030  178.7460  137.8840 O   0  0  0  0  0  0  0  0  0  0  0  0
  180.2150  180.7430  138.7800 O   0  0  0  0  0  1  0  0  0  0  0  0
  181.0030  179.5990  138.8060 C   0  0  0  0  0  0  0  0  0  0  0  0
  189.0230  175.3640  137.0410 O   0  0  0  0  0  0  0  0  0  0  0  0
  187.7370  174.9400  137.3930 C   0  0  0  0  0  2  0  0  0  0  0  0
  187.6590  173.4260  137.3490 C   0  0  0  0  0  2  0  0  0  0  0  0
  185.2780  173.8890  137.0080 C   0  0  0  0  0  3  0  0  0  0  0  0
  186.2460  172.9870  137.1640 C   0  0  0  0  0  3  0  0  0  0  0  0
  183.8590  173.4680  136.7910 C   0  0  0  0  0  2  0  0  0  0  0  0
  183.4320  173.7790  135.3680 C   0  0  0  0  0  2  0  0  0  0  0  0
  181.6230  173.8380  135.2540 S   0  0  0  0  0  0  0  0  0  0  0  0
  181.4010  173.8770  137.0580 C   0  0  0  0  0  2  0  0  0  0  0  0
  181.0170  175.2760  137.5030 C   0  0  0  0  0  1  0  0  0  0  0  0
  1 35  1  6  0  0  0
  2  6  1  0  0  0  0
  3  1  1  6  0  0  0
  3  9  1  0  0  0  0
  3  7  1  0  0  0  0
  4  6  1  0  0  0  0
  4  5  1  1  0  0  0
  6 11  1  1  0  0  0
  7  8  1  1  0  0  0
  7 10  1  0  0  0  0
  8  2  2  0  0  0  0
  9  7  1  0  0  0  0
 10  4  1  0  0  0  0
 12 13  1  1  0  0  0
 14 17  1  0  0  0  0
 15 11  1  6  0  0  0
 15 14  1  0  0  0  0
 15 16  1  0  0  0  0
 16 12  1  0  0  0  0
 17 12  1  0  0  0  0
 19 18  1  6  0  0  0
 19 20  1  0  0  0  0
 19  1  1  0  0  0  0
 20 21  1  0  0  0  0
 21 26  1  0  0  0  0
 22 23  1  0  0  0  0
 23 26  1  0  0  0  0
 23 28  1  6  0  0  0
 24 22  1  0  0  0  0
 24 21  2  0  0  0  0
 25 22  2  0  0  0  0
 28 30  1  0  0  0  0
 29 28  2  0  0  0  0
 30 27  1  0  0  0  0
 30 31  1  0  0  0  0
 32 34  2  0  0  0  0
 33 34  1  0  0  0  0
 34 31  1  0  0  0  0
 35 36  1  0  0  0  0
 37 36  1  0  0  0  0
 38 39  2  0  0  0  0
 39 37  1  0  0  0  0
 40 38  1  0  0  0  0
 41 40  1  0  0  0  0
 42 41  1  0  0  0  0
 42 43  1  0  0  0  0
 43 44  1  0  0  0  0
M  END
>  <MODEL>
8

>  <REMARK>
 VINA RESULT:      -5.9      4.203      7.720
  Name = 
  17 active torsions:
  status: ('A' for Active; 'I' for Inactive)
    1  A    between atoms: C_1  and  C_29
    2  A    between atoms: C_1  and  O_31
    3  A    between atoms: C_2  and  C_24
    4  A    between atoms: C_4  and  C_5
    5  A    between atoms: C_4  and  O_31
    6  A    between atoms: C_4  and  C_35
    7  A    between atoms: C_6  and  C_26
    8  A    between atoms: N_8  and  C_18
    9  A    between atoms: N_8  and  C_22
   10  A    between atoms: C_12  and  N_37
   11  A    between atoms: C_12  and  C_38
   12  A    between atoms: C_16  and  C_17
   13  A    between atoms: C_19  and  C_29
   14  A    between atoms: C_24  and  C_43
   15  A    between atoms: C_26  and  C_35
   16  A    between atoms: C_27  and  S_44
   17  A    between atoms: C_43  and  S_44
                            x       y       z     vdW  Elec       q    Type
                         _______ _______ _______ _____ _____    ______ ____

>  <TORSDO>
F 17

$$$$
=
 OpenBabel10232407583D

 44 47  0  0  1  0  0  0  0  0999 V2000
  189.7230  176.3840  136.8590 C   0  0  1  0  0  3  0  0  0  0  0  0
  185.7120  177.6590  136.9790 C   0  0  0  0  0  3  0  0  0  0  0  0
  188.7190  175.3970  136.2610 C   0  0  2  0  0  3  0  0  0  0  0  0
  184.8760  175.5360  135.9030 C   0  0  2  0  0  3  0  0  0  0  0  0
  183.7050  174.8710  134.7400 Cl  0  0  0  0  0  0  0  0  0  0  0  0
  184.6590  177.0460  136.0860 C   0  0  1  0  0  3  0  0  0  0  0  0
  187.3160  175.8860  136.3480 C   0  0  2  0  0  0  0  0  0  0  0  0
  186.9460  177.1510  137.0750 C   0  0  0  0  0  3  0  0  0  0  0  0
  187.8210  174.9380  137.2520 O   0  0  0  0  0  0  0  0  0  0  0  0
  186.2930  175.2620  135.4010 C   0  0  0  0  0  2  0  0  0  0  0  0
  183.3300  177.2970  136.6370 N   0  0  0  0  0  2  0  0  0  0  0  0
  181.6370  177.8850  139.8410 C   0  0  1  0  0  3  0  0  0  0  0  0
  181.5010  178.6020  141.1740 C   0  0  0  0  0  1  0  0  0  0  0  0
  182.7650  176.1950  138.7290 C   0  0  0  0  0  2  0  0  0  0  0  0
  183.4550  177.3830  138.0880 C   0  0  2  0  0  3  0  0  0  0  0  0
  182.6370  178.8870  138.7010 S   0  0  0  0  0  0  0  0  0  0  0  0
  182.2880  176.5980  140.0390 N   0  0  0  0  0  2  0  0  0  0  0  0
  191.1540  174.9700  138.1860 O   0  0  0  0  0  1  0  0  0  0  0  0
  190.1480  175.9390  138.2540 C   0  0  1  0  0  3  0  0  0  0  0  0
  190.6270  177.1270  139.0700 C   0  0  0  0  0  2  0  0  0  0  0  0
  189.7080  177.3500  140.2280 C   0  0  0  0  0  0  0  0  0  0  0  0
  188.0510  178.0700  141.4180 C   0  0  0  0  0  0  0  0  0  0  0  0
  188.6850  177.0350  142.2870 C   0  0  1  0  0  3  0  0  0  0  0  0
  188.7270  178.1930  140.1740 N   0  0  0  0  0  0  0  0  0  0  0  0
  187.0180  178.7320  141.7120 O   0  0  0  0  0  0  0  0  0  0  0  0
  189.7910  176.5930  141.4410 N   0  0  0  0  0  2  0  0  0  0  0  0
  187.2250  176.8720  144.7370 O   0  0  0  0  0  1  0  0  0  0  0  0
  189.2160  177.5940  143.5770 C   0  0  0  0  0  0  0  0  0  0  0  0
  190.4040  178.0300  143.6470 O   0  0  0  0  0  0  0  0  0  0  0  0
  188.3930  177.5620  144.7510 N   0  0  0  0  0  0  0  0  0  0  0  0
  188.8300  178.1860  145.9940 C   0  0  0  0  0  2  0  0  0  0  0  0
  188.1770  176.8940  147.8870 O   0  0  0  0  0  1  0  0  0  0  0  0
  190.2670  176.4390  147.0560 O   0  0  0  0  0  0  0  0  0  0  0  0
  189.0720  177.1490  147.0370 C   0  0  0  0  0  0  0  0  0  0  0  0
  190.8360  176.4890  136.0160 O   0  0  0  0  0  0  0  0  0  0  0  0
  190.5480  175.6630  134.9240 C   0  0  0  0  0  2  0  0  0  0  0  0
  191.8320  175.0990  134.3460 C   0  0  0  0  0  2  0  0  0  0  0  0
  193.8370  174.6630  135.6850 C   0  0  0  0  0  3  0  0  0  0  0  0
  193.0030  175.5540  135.1490 C   0  0  0  0  0  3  0  0  0  0  0  0
  195.0340  175.0990  136.4680 C   0  0  0  0  0  2  0  0  0  0  0  0
  196.1550  174.0870  136.3180 C   0  0  0  0  0  2  0  0  0  0  0  0
  195.6300  172.7250  135.2410 S   0  0  0  0  0  0  0  0  0  0  0  0
  196.1730  171.4440  136.4120 C   0  0  0  0  0  2  0  0  0  0  0  0
  195.4040  171.5720  137.7130 C   0  0  0  0  0  1  0  0  0  0  0  0
  1 35  1  6  0  0  0
  1 19  1  0  0  0  0
  2  8  2  0  0  0  0
  3  7  1  0  0  0  0
  3  1  1  1  0  0  0
  3  9  1  0  0  0  0
  4  5  1  6  0  0  0
  4  6  1  0  0  0  0
  6 11  1  1  0  0  0
  6  2  1  0  0  0  0
  7 10  1  6  0  0  0
  7  8  1  0  0  0  0
  7  9  1  0  0  0  0
 10  4  1  0  0  0  0
 12 17  1  0  0  0  0
 12 13  1  1  0  0  0
 14 17  1  0  0  0  0
 15 11  1  6  0  0  0
 15 16  1  0  0  0  0
 15 14  1  0  0  0  0
 16 12  1  0  0  0  0
 19 18  1  6  0  0  0
 19 20  1  0  0  0  0
 20 21  1  0  0  0  0
 21 26  1  0  0  0  0
 22 25  2  0  0  0  0
 22 23  1  0  0  0  0
 23 28  1  1  0  0  0
 24 21  2  0  0  0  0
 24 22  1  0  0  0  0
 26 23  1  0  0  0  0
 27 30  1  0  0  0  0
 28 29  2  0  0  0  0
 28 30  1  0  0  0  0
 30 31  1  0  0  0  0
 31 34  1  0  0  0  0
 34 33  2  0  0  0  0
 34 32  1  0  0  0  0
 36 35  1  0  0  0  0
 37 36  1  0  0  0  0
 37 39  1  0  0  0  0
 38 40  1  0  0  0  0
 39 38  2  0  0  0  0
 41 40  1  0  0  0  0
 42 41  1  0  0  0  0
 42 43  1  0  0  0  0
 43 44  1  0  0  0  0
M  END
>  <MODEL>
9

>  <REMARK>
 VINA RESULT:      -5.9      3.810      9.727
  Name = 
  17 active torsions:
  status: ('A' for Active; 'I' for Inactive)
    1  A    between atoms: C_1  and  C_29
    2  A    between atoms: C_1  and  O_31
    3  A    between atoms: C_2  and  C_24
    4  A    between atoms: C_4  and  C_5
    5  A    between atoms: C_4  and  O_31
    6  A    between atoms: C_4  and  C_35
    7  A    between atoms: C_6  and  C_26
    8  A    between atoms: N_8  and  C_18
    9  A    between atoms: N_8  and  C_22
   10  A    between atoms: C_12  and  N_37
   11  A    between atoms: C_12  and  C_38
   12  A    between atoms: C_16  and  C_17
   13  A    between atoms: C_19  and  C_29
   14  A    between atoms: C_24  and  C_43
   15  A    between atoms: C_26  and  C_35
   16  A    between atoms: C_27  and  S_44
   17  A    between atoms: C_43  and  S_44
                            x       y       z     vdW  Elec       q    Type
                         _______ _______ _______ _____ _____    ______ ____

>  <TORSDO>
F 17

$$$$
