=
 OpenBabel10232408423D

 40 42  0  0  1  0  0  0  0  0999 V2000
  186.6340  177.5280  138.4280 C   0  0  0  0  0  2  0  0  0  0  0  0
  186.8820  175.1410  136.9850 N   0  0  0  0  0  2  0  0  0  0  0  0
  188.3440  177.1360  136.6160 N   0  0  0  0  0  0  0  0  0  0  0  0
  188.2160  174.2020  134.3500 C   0  0  0  0  0  3  0  0  0  0  0  0
  186.2290  173.2240  135.4630 C   0  0  2  0  0  3  0  0  0  0  0  0
  184.5960  174.3590  137.0700 C   0  0  0  0  0  0  0  0  0  0  0  0
  185.2960  172.0440  135.4760 C   0  0  0  0  0  2  0  0  0  0  0  0
  184.0990  173.0240  137.4280 C   0  0  0  0  0  3  0  0  0  0  0  0
  185.5780  177.9740  137.4270 C   0  0  0  0  0  2  0  0  0  0  0  0
  184.2470  177.8080  138.0070 N   0  0  0  0  0  0  0  0  0  0  0  0
  185.8060  174.5090  136.2040 C   0  0  1  0  0  3  0  0  0  0  0  0
  188.3030  175.1450  135.2280 C   0  0  0  0  0  3  0  0  0  0  0  0
  187.2200  173.1850  134.5940 N   0  0  0  0  0  0  0  0  0  0  0  0
  187.9670  175.7680  136.3090 C   0  0  0  0  0  0  0  0  0  0  0  0
  184.0930  175.4280  137.6340 C   0  0  0  0  0  0  0  0  0  0  0  0
  184.4640  171.9500  136.7280 C   0  0  0  0  0  3  0  0  0  0  0  0
  189.0990  177.9680  135.7240 C   0  0  0  0  0  3  0  0  0  0  0  0
  188.0780  177.7210  137.9370 C   0  0  2  0  0  3  0  0  0  0  0  0
  183.6190  176.5220  138.1740 C   0  0  0  0  0  3  0  0  0  0  0  0
  189.4220  177.5920  134.5650 O   0  0  0  0  0  0  0  0  0  0  0  0
  183.5290  179.0120  138.4130 C   0  0  2  0  0  3  0  0  0  0  0  0
  184.8660  179.7510  140.2460 O   0  0  0  0  0  1  0  0  0  0  0  0
  183.6230  179.2000  139.9200 C   0  0  0  0  0  2  0  0  0  0  0  0
  182.1890  178.9300  138.0270 O   0  0  0  0  0  0  0  0  0  0  0  0
  180.6380  180.5410  137.1960 C   0  0  0  0  0  1  0  0  0  0  0  0
  181.6660  180.2030  138.2670 C   0  0  0  0  0  2  0  0  0  0  0  0
  189.0550  177.1560  138.9570 C   0  0  0  0  0  2  0  0  0  0  0  0
  188.9390  177.8730  140.2930 C   0  0  0  0  0  2  0  0  0  0  0  0
  189.1190  176.8830  141.4220 C   0  0  0  0  0  2  0  0  0  0  0  0
  189.7820  177.5650  142.6020 C   0  0  0  0  0  2  0  0  0  0  0  0
  188.8870  177.4880  143.7970 C   0  0  0  0  0  0  0  0  0  0  0  0
  187.6420  177.8110  143.6590 N   0  0  0  0  0  0  0  0  0  0  0  0
  189.3770  177.0370  145.0650 N   0  0  0  0  0  0  0  0  0  0  0  0
  190.6020  177.2120  145.4340 C   0  0  0  0  0  3  0  0  0  0  0  0
  191.0520  176.7250  146.7610 C   0  0  0  0  0  1  0  0  0  0  0  0
  186.7330  177.7250  144.7240 N   0  0  0  0  0  2  0  0  0  0  0  0
  184.6900  178.7390  145.7670 C   0  0  0  0  0  0  0  0  0  0  0  0
  183.5150  179.1500  145.5920 O   0  0  0  0  0  0  0  0  0  0  0  0
  185.4330  178.2500  144.6440 N   0  0  0  0  0  2  0  0  0  0  0  0
  185.2320  178.7460  147.0480 O   0  0  0  0  0  1  0  0  0  0  0  0
  3 18  1  0  0  0  0
  4 13  2  0  0  0  0
  4 12  1  0  0  0  0
  5  7  1  6  0  0  0
  5 11  1  0  0  0  0
  6  8  1  0  0  0  0
  6 15  2  0  0  0  0
  7 16  1  0  0  0  0
  9 10  1  0  0  0  0
  9  1  1  0  0  0  0
 10 19  1  0  0  0  0
 10 21  1  0  0  0  0
 11  2  1  1  0  0  0
 11  6  1  0  0  0  0
 12 14  2  0  0  0  0
 13  5  1  0  0  0  0
 14  3  1  0  0  0  0
 14  2  1  0  0  0  0
 15 19  2  0  0  0  0
 16  8  2  0  0  0  0
 17  3  1  0  0  0  0
 18  1  1  0  0  0  0
 18 27  1  1  0  0  0
 20 17  2  0  0  0  0
 21 23  1  1  0  0  0
 23 22  1  0  0  0  0
 24 26  1  0  0  0  0
 24 21  1  0  0  0  0
 25 26  1  0  0  0  0
 27 28  1  0  0  0  0
 28 29  1  0  0  0  0
 29 30  1  0  0  0  0
 30 31  1  0  0  0  0
 31 33  1  0  0  0  0
 32 31  2  0  0  0  0
 32 36  1  0  0  0  0
 33 34  2  0  0  0  0
 34 35  1  0  0  0  0
 37 40  1  0  0  0  0
 38 37  2  0  0  0  0
 39 36  1  0  0  0  0
 39 37  1  0  0  0  0
M  END
>  <MODEL>
1

>  <REMARK>
 VINA RESULT:      -6.7      0.000      0.000
  Name = 
  12 active torsions:
  status: ('A' for Active; 'I' for Inactive)
    1  A    between atoms: C_4  and  N_20
    2  A    between atoms: C_4  and  C_36
    3  A    between atoms: C_4  and  O_37
    4  A    between atoms: C_6  and  N_11
    5  A    between atoms: C_6  and  C_26
    6  A    between atoms: N_8  and  N_18
    7  A    between atoms: N_8  and  N_22
    8  A    between atoms: C_13  and  C_25
    9  A    between atoms: C_13  and  C_33
   10  A    between atoms: C_25  and  C_26
   11  A    between atoms: C_33  and  C_34
   12  A    between atoms: O_37  and  C_40
                            x       y       z     vdW  Elec       q    Type
                         _______ _______ _______ _____ _____    ______ ____

>  <TORSDO>
F 12

$$$$
=
 OpenBabel10232408423D

 40 42  0  0  1  0  0  0  0  0999 V2000
  186.3650  177.4260  138.4700 C   0  0  0  0  0  2  0  0  0  0  0  0
  186.7510  175.0820  136.9870 N   0  0  0  0  0  2  0  0  0  0  0  0
  188.1050  177.1600  136.6650 N   0  0  0  0  0  0  0  0  0  0  0  0
  188.1520  174.2640  134.3460 C   0  0  0  0  0  3  0  0  0  0  0  0
  186.2140  173.1600  135.4260 C   0  0  2  0  0  3  0  0  0  0  0  0
  184.5110  174.1760  137.0410 C   0  0  0  0  0  0  0  0  0  0  0  0
  185.3470  171.9320  135.4110 C   0  0  0  0  0  2  0  0  0  0  0  0
  184.0850  172.8100  137.3720 C   0  0  0  0  0  3  0  0  0  0  0  0
  185.2930  177.8310  137.4690 C   0  0  0  0  0  2  0  0  0  0  0  0
  183.9680  177.5830  138.0360 N   0  0  0  0  0  0  0  0  0  0  0  0
  185.7170  174.4070  136.1860 C   0  0  1  0  0  3  0  0  0  0  0  0
  188.1820  175.1950  135.2410 C   0  0  0  0  0  3  0  0  0  0  0  0
  187.2120  173.1910  134.5640 N   0  0  0  0  0  0  0  0  0  0  0  0
  187.8060  175.7800  136.3300 C   0  0  0  0  0  0  0  0  0  0  0  0
  183.9470  175.2050  137.6200 C   0  0  0  0  0  0  0  0  0  0  0  0
  184.5130  171.7700  136.6550 C   0  0  0  0  0  3  0  0  0  0  0  0
  188.8190  178.0480  135.7930 C   0  0  0  0  0  3  0  0  0  0  0  0
  187.7990  177.7050  137.9940 C   0  0  2  0  0  3  0  0  0  0  0  0
  183.4100  176.2620  138.1750 C   0  0  0  0  0  3  0  0  0  0  0  0
  189.1700  177.7100  134.6300 O   0  0  0  0  0  0  0  0  0  0  0  0
  183.1830  178.7390  138.4580 C   0  0  2  0  0  3  0  0  0  0  0  0
  184.6090  179.9070  139.9740 O   0  0  0  0  0  1  0  0  0  0  0  0
  183.4840  179.0790  139.9100 C   0  0  0  0  0  2  0  0  0  0  0  0
  181.8190  178.4800  138.3030 O   0  0  0  0  0  0  0  0  0  0  0  0
  181.3910  180.7540  137.7240 C   0  0  0  0  0  1  0  0  0  0  0  0
  181.4130  179.3080  137.2520 C   0  0  0  0  0  2  0  0  0  0  0  0
  188.7990  177.1760  139.0110 C   0  0  0  0  0  2  0  0  0  0  0  0
  188.6650  177.8920  140.3450 C   0  0  0  0  0  2  0  0  0  0  0  0
  189.2070  177.0160  141.4530 C   0  0  0  0  0  2  0  0  0  0  0  0
  188.1950  176.9230  142.5760 C   0  0  0  0  0  2  0  0  0  0  0  0
  188.8280  177.3460  143.8630 C   0  0  0  0  0  0  0  0  0  0  0  0
  190.0850  177.6530  143.8610 N   0  0  0  0  0  0  0  0  0  0  0  0
  188.0650  177.4450  145.0710 N   0  0  0  0  0  0  0  0  0  0  0  0
  186.9030  178.0070  145.1090 C   0  0  0  0  0  3  0  0  0  0  0  0
  186.1580  178.0790  146.3900 C   0  0  0  0  0  1  0  0  0  0  0  0
  190.7400  178.0970  145.0200 N   0  0  0  0  0  2  0  0  0  0  0  0
  191.4890  176.5590  146.8540 C   0  0  0  0  0  0  0  0  0  0  0  0
  192.4480  175.9400  147.3790 O   0  0  0  0  0  0  0  0  0  0  0  0
  191.7210  177.3290  145.6680 N   0  0  0  0  0  2  0  0  0  0  0  0
  190.2330  176.5050  147.4490 O   0  0  0  0  0  1  0  0  0  0  0  0
  3 18  1  0  0  0  0
  4 13  2  0  0  0  0
  4 12  1  0  0  0  0
  5  7  1  6  0  0  0
  5 11  1  0  0  0  0
  6  8  1  0  0  0  0
  6 15  2  0  0  0  0
  7 16  1  0  0  0  0
  9 10  1  0  0  0  0
  9  1  1  0  0  0  0
 10 19  1  0  0  0  0
 10 21  1  0  0  0  0
 11  2  1  1  0  0  0
 11  6  1  0  0  0  0
 12 14  2  0  0  0  0
 13  5  1  0  0  0  0
 14  3  1  0  0  0  0
 14  2  1  0  0  0  0
 15 19  2  0  0  0  0
 16  8  2  0  0  0  0
 17  3  1  0  0  0  0
 18  1  1  0  0  0  0
 18 27  1  1  0  0  0
 20 17  2  0  0  0  0
 21 23  1  1  0  0  0
 23 22  1  0  0  0  0
 24 21  1  0  0  0  0
 26 25  1  0  0  0  0
 26 24  1  0  0  0  0
 27 28  1  0  0  0  0
 28 29  1  0  0  0  0
 29 30  1  0  0  0  0
 30 31  1  0  0  0  0
 31 33  1  0  0  0  0
 32 31  2  0  0  0  0
 32 36  1  0  0  0  0
 33 34  2  0  0  0  0
 34 35  1  0  0  0  0
 36 39  1  0  0  0  0
 37 38  2  0  0  0  0
 37 40  1  0  0  0  0
 39 37  1  0  0  0  0
M  END
>  <MODEL>
2

>  <REMARK>
 VINA RESULT:      -6.7      1.727      2.690
  Name = 
  12 active torsions:
  status: ('A' for Active; 'I' for Inactive)
    1  A    between atoms: C_4  and  N_20
    2  A    between atoms: C_4  and  C_36
    3  A    between atoms: C_4  and  O_37
    4  A    between atoms: C_6  and  N_11
    5  A    between atoms: C_6  and  C_26
    6  A    between atoms: N_8  and  N_18
    7  A    between atoms: N_8  and  N_22
    8  A    between atoms: C_13  and  C_25
    9  A    between atoms: C_13  and  C_33
   10  A    between atoms: C_25  and  C_26
   11  A    between atoms: C_33  and  C_34
   12  A    between atoms: O_37  and  C_40
                            x       y       z     vdW  Elec       q    Type
                         _______ _______ _______ _____ _____    ______ ____

>  <TORSDO>
F 12

$$$$
=
 OpenBabel10232408423D

 40 42  0  0  1  0  0  0  0  0999 V2000
  189.8640  176.8370  137.3220 C   0  0  0  0  0  2  0  0  0  0  0  0
  191.3380  174.9470  135.8730 N   0  0  0  0  0  2  0  0  0  0  0  0
  188.8620  174.8120  136.2010 N   0  0  0  0  0  0  0  0  0  0  0  0
  190.9340  172.0550  134.8360 C   0  0  0  0  0  3  0  0  0  0  0  0
  193.0760  173.1660  135.4010 C   0  0  2  0  0  3  0  0  0  0  0  0
  193.4710  175.1250  136.9970 C   0  0  0  0  0  0  0  0  0  0  0  0
  194.5720  173.0530  135.3000 C   0  0  0  0  0  2  0  0  0  0  0  0
  194.8060  175.2720  136.4050 C   0  0  0  0  0  3  0  0  0  0  0  0
  190.1900  176.0580  138.5880 C   0  0  0  0  0  2  0  0  0  0  0  0
  191.2580  176.7340  139.3230 N   0  0  0  0  0  0  0  0  0  0  0  0
  192.4780  174.1790  136.4000 C   0  0  1  0  0  3  0  0  0  0  0  0
  190.2470  173.0820  135.2110 C   0  0  0  0  0  3  0  0  0  0  0  0
  192.3700  172.2050  134.8390 N   0  0  0  0  0  0  0  0  0  0  0  0
  190.0950  174.2920  135.6390 C   0  0  0  0  0  0  0  0  0  0  0  0
  193.0720  175.9320  137.9470 C   0  0  0  0  0  0  0  0  0  0  0  0
  195.2930  174.3450  135.5800 C   0  0  0  0  0  3  0  0  0  0  0  0
  187.6810  174.0200  136.3870 C   0  0  0  0  0  3  0  0  0  0  0  0
  188.7080  176.2410  136.5050 C   0  0  2  0  0  3  0  0  0  0  0  0
  192.6340  176.7190  138.8980 C   0  0  0  0  0  3  0  0  0  0  0  0
  187.6560  172.7830  136.1460 O   0  0  0  0  0  0  0  0  0  0  0  0
  190.8960  177.4370  140.5500 C   0  0  2  0  0  3  0  0  0  0  0  0
  191.8990  176.8440  142.6340 O   0  0  0  0  0  1  0  0  0  0  0  0
  192.1100  177.5710  141.4580 C   0  0  0  0  0  2  0  0  0  0  0  0
  189.8780  176.7520  141.2170 O   0  0  0  0  0  0  0  0  0  0  0  0
  188.5590  177.7660  142.9280 C   0  0  0  0  0  1  0  0  0  0  0  0
  188.8870  177.7110  141.4420 C   0  0  0  0  0  2  0  0  0  0  0  0
  188.5230  177.0250  135.2140 C   0  0  0  0  0  2  0  0  0  0  0  0
  187.1190  177.5980  135.1090 C   0  0  0  0  0  2  0  0  0  0  0  0
  186.6470  178.0500  136.4730 C   0  0  0  0  0  2  0  0  0  0  0  0
  185.3840  177.3020  136.8530 C   0  0  0  0  0  2  0  0  0  0  0  0
  184.7710  177.9300  138.0630 C   0  0  0  0  0  0  0  0  0  0  0  0
  185.3630  178.9500  138.5970 N   0  0  0  0  0  0  0  0  0  0  0  0
  183.5390  177.4460  138.6100 N   0  0  0  0  0  0  0  0  0  0  0  0
  183.1960  176.2020  138.5430 C   0  0  0  0  0  3  0  0  0  0  0  0
  181.9080  175.7580  139.1280 C   0  0  0  0  0  1  0  0  0  0  0  0
  184.8270  179.6170  139.7090 N   0  0  0  0  0  2  0  0  0  0  0  0
  184.7780  178.7970  142.0780 C   0  0  0  0  0  0  0  0  0  0  0  0
  185.3430  178.7950  143.2010 O   0  0  0  0  0  1  0  0  0  0  0  0
  185.3860  179.5050  140.9920 N   0  0  0  0  0  2  0  0  0  0  0  0
  183.5630  178.1360  141.9240 O   0  0  0  0  0  0  0  0  0  0  0  0
  1  9  1  0  0  0  0
  3 17  1  0  0  0  0
  3 18  1  0  0  0  0
  4 13  2  0  0  0  0
  4 12  1  0  0  0  0
  5  7  1  1  0  0  0
  5 11  1  0  0  0  0
  6 15  2  0  0  0  0
  7 16  1  0  0  0  0
  8  6  1  0  0  0  0
  9 10  1  0  0  0  0
 10 21  1  0  0  0  0
 11  2  1  6  0  0  0
 11  6  1  0  0  0  0
 12 14  2  0  0  0  0
 13  5  1  0  0  0  0
 14  2  1  0  0  0  0
 14  3  1  0  0  0  0
 15 19  2  0  0  0  0
 16  8  2  0  0  0  0
 18 27  1  6  0  0  0
 18  1  1  0  0  0  0
 19 10  1  0  0  0  0
 20 17  2  0  0  0  0
 21 24  1  0  0  0  0
 21 23  1  1  0  0  0
 23 22  1  0  0  0  0
 24 26  1  0  0  0  0
 26 25  1  0  0  0  0
 28 27  1  0  0  0  0
 28 29  1  0  0  0  0
 29 30  1  0  0  0  0
 30 31  1  0  0  0  0
 31 32  2  0  0  0  0
 31 33  1  0  0  0  0
 32 36  1  0  0  0  0
 34 33  2  0  0  0  0
 34 35  1  0  0  0  0
 36 39  1  0  0  0  0
 37 38  1  0  0  0  0
 39 37  1  0  0  0  0
 40 37  2  0  0  0  0
M  END
>  <MODEL>
3

>  <REMARK>
 VINA RESULT:      -6.4      3.649      7.018
  Name = 
  12 active torsions:
  status: ('A' for Active; 'I' for Inactive)
    1  A    between atoms: C_4  and  N_20
    2  A    between atoms: C_4  and  C_36
    3  A    between atoms: C_4  and  O_37
    4  A    between atoms: C_6  and  N_11
    5  A    between atoms: C_6  and  C_26
    6  A    between atoms: N_8  and  N_18
    7  A    between atoms: N_8  and  N_22
    8  A    between atoms: C_13  and  C_25
    9  A    between atoms: C_13  and  C_33
   10  A    between atoms: C_25  and  C_26
   11  A    between atoms: C_33  and  C_34
   12  A    between atoms: O_37  and  C_40
                            x       y       z     vdW  Elec       q    Type
                         _______ _______ _______ _____ _____    ______ ____

>  <TORSDO>
F 12

$$$$
=
 OpenBabel10232408423D

 40 42  0  0  1  0  0  0  0  0999 V2000
  188.9280  177.5920  138.8260 C   0  0  0  0  0  2  0  0  0  0  0  0
  190.2740  176.2930  136.7410 N   0  0  0  0  0  2  0  0  0  0  0  0
  187.8650  175.9010  137.2860 N   0  0  0  0  0  0  0  0  0  0  0  0
  189.8460  173.7900  134.9650 C   0  0  0  0  0  3  0  0  0  0  0  0
  192.0010  174.8420  135.5890 C   0  0  2  0  0  3  0  0  0  0  0  0
  192.5230  176.2940  137.6280 C   0  0  0  0  0  0  0  0  0  0  0  0
  193.4760  174.8660  135.2950 C   0  0  0  0  0  2  0  0  0  0  0  0
  193.7690  176.6940  136.9610 C   0  0  0  0  0  3  0  0  0  0  0  0
  189.4370  176.5120  139.7700 C   0  0  0  0  0  2  0  0  0  0  0  0
  190.5630  177.0250  140.5470 N   0  0  0  0  0  0  0  0  0  0  0  0
  191.4970  175.4880  136.8960 C   0  0  1  0  0  3  0  0  0  0  0  0
  189.1750  174.6200  135.6930 C   0  0  0  0  0  3  0  0  0  0  0  0
  191.2650  174.0320  134.8540 N   0  0  0  0  0  0  0  0  0  0  0  0
  189.0360  175.6460  136.4660 C   0  0  0  0  0  0  0  0  0  0  0  0
  192.2190  176.7710  138.8080 C   0  0  0  0  0  0  0  0  0  0  0  0
  194.1810  176.0730  135.8560 C   0  0  0  0  0  3  0  0  0  0  0  0
  186.7440  175.0090  137.3640 C   0  0  0  0  0  3  0  0  0  0  0  0
  187.7000  177.1720  138.0030 C   0  0  2  0  0  3  0  0  0  0  0  0
  191.8760  177.2250  139.9870 C   0  0  0  0  0  3  0  0  0  0  0  0
  186.7330  173.8910  136.7800 O   0  0  0  0  0  0  0  0  0  0  0  0
  190.3330  177.3260  141.9570 C   0  0  2  0  0  3  0  0  0  0  0  0
  191.8700  178.2870  143.5100 O   0  0  0  0  0  1  0  0  0  0  0  0
  191.6170  177.1390  142.7520 C   0  0  0  0  0  2  0  0  0  0  0  0
  189.3310  176.5000  142.4700 O   0  0  0  0  0  0  0  0  0  0  0  0
  188.5360  177.0770  144.6440 C   0  0  0  0  0  1  0  0  0  0  0  0
  188.4670  177.3620  143.1510 C   0  0  0  0  0  2  0  0  0  0  0  0
  187.3280  178.2730  137.0210 C   0  0  0  0  0  2  0  0  0  0  0  0
  185.9640  178.8620  137.3390 C   0  0  0  0  0  2  0  0  0  0  0  0
  185.4840  178.3510  138.6790 C   0  0  0  0  0  2  0  0  0  0  0  0
  184.1470  178.9770  139.0190 C   0  0  0  0  0  2  0  0  0  0  0  0
  183.7500  178.5960  140.4090 C   0  0  0  0  0  0  0  0  0  0  0  0
  184.6330  178.6840  141.3500 N   0  0  0  0  0  0  0  0  0  0  0  0
  182.4160  178.1720  140.7120 N   0  0  0  0  0  0  0  0  0  0  0  0
  181.6620  177.5890  139.8410 C   0  0  0  0  0  3  0  0  0  0  0  0
  180.2880  177.1720  140.2130 C   0  0  0  0  0  1  0  0  0  0  0  0
  184.3240  178.3830  142.6850 N   0  0  0  0  0  2  0  0  0  0  0  0
  184.8280  179.0070  145.0610 C   0  0  0  0  0  0  0  0  0  0  0  0
  185.7150  179.2480  145.9190 O   0  0  0  0  0  1  0  0  0  0  0  0
  185.2220  178.6310  143.7370 N   0  0  0  0  0  2  0  0  0  0  0  0
  183.4880  179.1370  145.4100 O   0  0  0  0  0  0  0  0  0  0  0  0
  1  9  1  0  0  0  0
  3 17  1  0  0  0  0
  3 18  1  0  0  0  0
  4 12  1  0  0  0  0
  5  7  1  1  0  0  0
  5 11  1  0  0  0  0
  6 15  2  0  0  0  0
  7 16  1  0  0  0  0
  8  6  1  0  0  0  0
  9 10  1  0  0  0  0
 10 21  1  0  0  0  0
 11  2  1  6  0  0  0
 11  6  1  0  0  0  0
 12 14  2  0  0  0  0
 13  4  2  0  0  0  0
 13  5  1  0  0  0  0
 14  2  1  0  0  0  0
 14  3  1  0  0  0  0
 15 19  2  0  0  0  0
 16  8  2  0  0  0  0
 18 27  1  6  0  0  0
 18  1  1  0  0  0  0
 19 10  1  0  0  0  0
 20 17  2  0  0  0  0
 21 24  1  0  0  0  0
 21 23  1  1  0  0  0
 23 22  1  0  0  0  0
 24 26  1  0  0  0  0
 26 25  1  0  0  0  0
 27 28  1  0  0  0  0
 28 29  1  0  0  0  0
 29 30  1  0  0  0  0
 30 31  1  0  0  0  0
 31 33  1  0  0  0  0
 31 32  2  0  0  0  0
 32 36  1  0  0  0  0
 34 35  1  0  0  0  0
 34 33  2  0  0  0  0
 36 39  1  0  0  0  0
 37 40  2  0  0  0  0
 37 38  1  0  0  0  0
 39 37  1  0  0  0  0
M  END
>  <MODEL>
4

>  <REMARK>
 VINA RESULT:      -6.3      3.065      6.566
  Name = 
  12 active torsions:
  status: ('A' for Active; 'I' for Inactive)
    1  A    between atoms: C_4  and  N_20
    2  A    between atoms: C_4  and  C_36
    3  A    between atoms: C_4  and  O_37
    4  A    between atoms: C_6  and  N_11
    5  A    between atoms: C_6  and  C_26
    6  A    between atoms: N_8  and  N_18
    7  A    between atoms: N_8  and  N_22
    8  A    between atoms: C_13  and  C_25
    9  A    between atoms: C_13  and  C_33
   10  A    between atoms: C_25  and  C_26
   11  A    between atoms: C_33  and  C_34
   12  A    between atoms: O_37  and  C_40
                            x       y       z     vdW  Elec       q    Type
                         _______ _______ _______ _____ _____    ______ ____

>  <TORSDO>
F 12

$$$$
=
 OpenBabel10232408423D

 40 42  0  0  1  0  0  0  0  0999 V2000
  184.0390  177.0590  138.6560 C   0  0  0  0  0  2  0  0  0  0  0  0
  183.4520  177.7420  141.3070 N   0  0  0  0  0  2  0  0  0  0  0  0
  181.8010  177.9200  139.4370 N   0  0  0  0  0  0  0  0  0  0  0  0
  181.2870  179.3700  142.8130 C   0  0  0  0  0  3  0  0  0  0  0  0
  183.6220  178.9500  143.5270 C   0  0  0  0  0  0  0  0  0  0  0  0
  185.6500  178.4000  142.0690 C   0  0  0  0  0  0  0  0  0  0  0  0
  184.5820  179.0540  144.6810 C   0  0  0  0  0  2  0  0  0  0  0  0
  186.3540  177.9910  143.2910 C   0  0  0  0  0  3  0  0  0  0  0  0
  184.5870  178.4650  138.4600 C   0  0  0  0  0  2  0  0  0  0  0  0
  186.0480  178.4370  138.5010 N   0  0  0  0  0  0  0  0  0  0  0  0
  184.1910  178.7290  142.1100 C   0  0  1  0  0  3  0  0  0  0  0  0
  181.4670  178.7520  141.6930 C   0  0  0  0  0  3  0  0  0  0  0  0
  182.3790  179.3270  143.7550 N   0  0  0  0  0  0  0  0  0  0  0  0
  182.1410  178.0510  140.8420 C   0  0  2  0  0  3  0  0  0  0  0  0
  186.2410  178.3230  140.9040 C   0  0  0  0  0  0  0  0  0  0  0  0
  185.8370  178.2430  144.4930 C   0  0  0  0  0  3  0  0  0  0  0  0
  180.6950  178.5970  138.8240 C   0  0  0  0  0  3  0  0  0  0  0  0
  182.5080  176.9690  138.5680 C   0  0  2  0  0  3  0  0  0  0  0  0
  186.7950  178.2610  139.7200 C   0  0  0  0  0  3  0  0  0  0  0  0
  179.9820  179.4260  139.4530 O   0  0  0  0  0  0  0  0  0  0  0  0
  186.7650  178.6140  137.2410 C   0  0  2  0  0  3  0  0  0  0  0  0
  185.8320  177.5670  135.3100 O   0  0  0  0  0  1  0  0  0  0  0  0
  186.6780  177.3490  136.4020 C   0  0  0  0  0  2  0  0  0  0  0  0
  188.1030  178.9310  137.4870 O   0  0  0  0  0  0  0  0  0  0  0  0
  190.0010  177.5080  137.7350 C   0  0  0  0  0  1  0  0  0  0  0  0
  188.8340  177.9250  136.8510 C   0  0  0  0  0  2  0  0  0  0  0  0
  182.0490  175.5520  138.8750 C   0  0  0  0  0  2  0  0  0  0  0  0
  181.2320  174.9730  137.7320 C   0  0  0  0  0  2  0  0  0  0  0  0
  182.1570  174.3950  136.6830 C   0  0  0  0  0  2  0  0  0  0  0  0
  182.2590  172.8930  136.8590 C   0  0  0  0  0  2  0  0  0  0  0  0
  183.6950  172.4970  136.9840 C   0  0  0  0  0  0  0  0  0  0  0  0
  184.5070  173.2980  137.5940 N   0  0  0  0  0  0  0  0  0  0  0  0
  184.1680  171.2450  136.4720 N   0  0  0  0  0  0  0  0  0  0  0  0
  183.3730  170.2620  136.2100 C   0  0  0  0  0  3  0  0  0  0  0  0
  183.9200  168.9890  135.6800 C   0  0  0  0  0  1  0  0  0  0  0  0
  185.8590  172.9770  137.7860 N   0  0  0  0  0  2  0  0  0  0  0  0
  187.3650  173.6520  135.8980 C   0  0  0  0  0  0  0  0  0  0  0  0
  188.3320  174.3660  135.5290 O   0  0  0  0  0  1  0  0  0  0  0  0
  186.8980  173.7540  137.2480 N   0  0  0  0  0  2  0  0  0  0  0  0
  186.7900  172.7630  134.9960 O   0  0  0  0  0  0  0  0  0  0  0  0
  3 14  1  0  0  0  0
  4 13  1  0  0  0  0
  5 13  2  0  0  0  0
  5  7  1  0  0  0  0
  6 11  1  0  0  0  0
  6  8  1  0  0  0  0
  8 16  2  0  0  0  0
  9 10  1  0  0  0  0
  9  1  1  0  0  0  0
 10 19  1  0  0  0  0
 11  2  1  1  0  0  0
 11  5  1  0  0  0  0
 12  4  2  0  0  0  0
 14  2  1  0  0  0  0
 14 12  1  6  0  0  0
 15  6  2  0  0  0  0
 16  7  1  0  0  0  0
 17  3  1  0  0  0  0
 17 20  2  0  0  0  0
 18  1  1  0  0  0  0
 18 27  1  1  0  0  0
 18  3  1  0  0  0  0
 19 15  2  0  0  0  0
 21 23  1  6  0  0  0
 21 24  1  0  0  0  0
 21 10  1  0  0  0  0
 22 23  1  0  0  0  0
 26 24  1  0  0  0  0
 26 25  1  0  0  0  0
 28 27  1  0  0  0  0
 29 30  1  0  0  0  0
 29 28  1  0  0  0  0
 30 31  1  0  0  0  0
 31 32  2  0  0  0  0
 32 36  1  0  0  0  0
 33 31  1  0  0  0  0
 34 33  2  0  0  0  0
 35 34  1  0  0  0  0
 37 39  1  0  0  0  0
 38 37  1  0  0  0  0
 39 36  1  0  0  0  0
 40 37  2  0  0  0  0
M  END
>  <MODEL>
5

>  <REMARK>
 VINA RESULT:      -6.2      3.371      8.981
  Name = 
  12 active torsions:
  status: ('A' for Active; 'I' for Inactive)
    1  A    between atoms: C_4  and  N_20
    2  A    between atoms: C_4  and  C_36
    3  A    between atoms: C_4  and  O_37
    4  A    between atoms: C_6  and  N_11
    5  A    between atoms: C_6  and  C_26
    6  A    between atoms: N_8  and  N_18
    7  A    between atoms: N_8  and  N_22
    8  A    between atoms: C_13  and  C_25
    9  A    between atoms: C_13  and  C_33
   10  A    between atoms: C_25  and  C_26
   11  A    between atoms: C_33  and  C_34
   12  A    between atoms: O_37  and  C_40
                            x       y       z     vdW  Elec       q    Type
                         _______ _______ _______ _____ _____    ______ ____

>  <TORSDO>
F 12

$$$$
=
 OpenBabel10232408423D

 40 42  0  0  1  0  0  0  0  0999 V2000
  183.7780  177.7940  138.0620 C   0  0  0  0  0  2  0  0  0  0  0  0
  184.9800  175.3720  137.3320 N   0  0  0  0  0  2  0  0  0  0  0  0
  186.1000  177.5960  137.0980 N   0  0  0  0  0  0  0  0  0  0  0  0
  187.3780  174.4530  135.5980 C   0  0  0  0  0  3  0  0  0  0  0  0
  185.3170  173.1770  136.1130 C   0  0  2  0  0  3  0  0  0  0  0  0
  183.0160  174.0820  136.7630 C   0  0  0  0  0  0  0  0  0  0  0  0
  184.6730  171.8200  136.0400 C   0  0  0  0  0  2  0  0  0  0  0  0
  182.6590  172.7240  137.1920 C   0  0  0  0  0  3  0  0  0  0  0  0
  183.1370  177.8430  136.6830 C   0  0  0  0  0  2  0  0  0  0  0  0
  181.7360  177.4370  136.7750 N   0  0  0  0  0  0  0  0  0  0  0  0
  184.4220  174.4070  136.3700 C   0  0  1  0  0  3  0  0  0  0  0  0
  186.9510  175.4930  136.2330 C   0  0  0  0  0  3  0  0  0  0  0  0
  186.5600  173.2670  135.6790 N   0  0  0  0  0  0  0  0  0  0  0  0
  186.1170  176.1500  136.9690 C   0  0  0  0  0  0  0  0  0  0  0  0
  182.1560  175.0620  136.8760 C   0  0  0  0  0  0  0  0  0  0  0  0
  183.4490  171.6890  136.9070 C   0  0  0  0  0  3  0  0  0  0  0  0
  186.9860  178.4650  136.3780 C   0  0  0  0  0  3  0  0  0  0  0  0
  185.2410  178.2630  138.0860 C   0  0  2  0  0  3  0  0  0  0  0  0
  181.3260  176.0700  136.9720 C   0  0  0  0  0  3  0  0  0  0  0  0
  187.7970  178.0320  135.5140 O   0  0  0  0  0  0  0  0  0  0  0  0
  180.7190  178.4760  136.6390 C   0  0  2  0  0  3  0  0  0  0  0  0
  180.1270  178.8040  134.3510 O   0  0  0  0  0  1  0  0  0  0  0  0
  180.9550  179.2820  135.3710 C   0  0  0  0  0  2  0  0  0  0  0  0
  180.7410  179.3210  137.7510 O   0  0  0  0  0  0  0  0  0  0  0  0
  181.4520  181.5480  138.2280 C   0  0  0  0  0  1  0  0  0  0  0  0
  180.7980  180.6130  137.2200 C   0  0  0  0  0  2  0  0  0  0  0  0
  185.8250  178.0830  139.4790 C   0  0  0  0  0  2  0  0  0  0  0  0
  184.9980  178.8130  140.5250 C   0  0  0  0  0  2  0  0  0  0  0  0
  185.8590  179.1330  141.7270 C   0  0  0  0  0  2  0  0  0  0  0  0
  185.3230  178.4140  142.9480 C   0  0  0  0  0  2  0  0  0  0  0  0
  186.4330  177.6750  143.6250 C   0  0  0  0  0  0  0  0  0  0  0  0
  187.3960  177.2060  142.9000 N   0  0  0  0  0  0  0  0  0  0  0  0
  186.4580  177.5120  145.0480 N   0  0  0  0  0  0  0  0  0  0  0  0
  186.3670  178.5120  145.8590 C   0  0  0  0  0  3  0  0  0  0  0  0
  186.3980  178.2820  147.3240 C   0  0  0  0  0  1  0  0  0  0  0  0
  188.4910  176.5380  143.4670 N   0  0  0  0  0  2  0  0  0  0  0  0
  190.4690  177.9030  144.1830 C   0  0  0  0  0  0  0  0  0  0  0  0
  191.6410  178.2740  143.9180 O   0  0  0  0  0  0  0  0  0  0  0  0
  189.8120  176.9860  143.3000 N   0  0  0  0  0  2  0  0  0  0  0  0
  189.8310  178.4090  145.3100 O   0  0  0  0  0  1  0  0  0  0  0  0
  1 18  1  0  0  0  0
  3 18  1  0  0  0  0
  4 13  2  0  0  0  0
  4 12  1  0  0  0  0
  5  7  1  6  0  0  0
  5 11  1  0  0  0  0
  6 15  2  0  0  0  0
  6  8  1  0  0  0  0
  7 16  1  0  0  0  0
  9 10  1  0  0  0  0
  9  1  1  0  0  0  0
 10 19  1  0  0  0  0
 11  6  1  1  0  0  0
 11  2  1  0  0  0  0
 12 14  2  0  0  0  0
 13  5  1  0  0  0  0
 14  3  1  0  0  0  0
 14  2  1  0  0  0  0
 15 19  2  0  0  0  0
 16  8  2  0  0  0  0
 17  3  1  0  0  0  0
 18 27  1  1  0  0  0
 20 17  2  0  0  0  0
 21 23  1  6  0  0  0
 21 10  1  0  0  0  0
 21 24  1  0  0  0  0
 22 23  1  0  0  0  0
 26 24  1  0  0  0  0
 26 25  1  0  0  0  0
 27 28  1  0  0  0  0
 28 29  1  0  0  0  0
 29 30  1  0  0  0  0
 30 31  1  0  0  0  0
 31 33  1  0  0  0  0
 32 36  1  0  0  0  0
 32 31  2  0  0  0  0
 33 34  2  0  0  0  0
 34 35  1  0  0  0  0
 37 40  1  0  0  0  0
 38 37  2  0  0  0  0
 39 36  1  0  0  0  0
 39 37  1  0  0  0  0
M  END
>  <MODEL>
6

>  <REMARK>
 VINA RESULT:      -5.8      2.283      3.427
  Name = 
  12 active torsions:
  status: ('A' for Active; 'I' for Inactive)
    1  A    between atoms: C_4  and  N_20
    2  A    between atoms: C_4  and  C_36
    3  A    between atoms: C_4  and  O_37
    4  A    between atoms: C_6  and  N_11
    5  A    between atoms: C_6  and  C_26
    6  A    between atoms: N_8  and  N_18
    7  A    between atoms: N_8  and  N_22
    8  A    between atoms: C_13  and  C_25
    9  A    between atoms: C_13  and  C_33
   10  A    between atoms: C_25  and  C_26
   11  A    between atoms: C_33  and  C_34
   12  A    between atoms: O_37  and  C_40
                            x       y       z     vdW  Elec       q    Type
                         _______ _______ _______ _____ _____    ______ ____

>  <TORSDO>
F 12

$$$$
=
 OpenBabel10232408423D

 40 42  0  0  1  0  0  0  0  0999 V2000
  183.6070  173.6840  137.0310 C   0  0  0  0  0  2  0  0  0  0  0  0
  185.9390  175.2150  136.7900 N   0  0  0  0  0  2  0  0  0  0  0  0
  183.6510  176.0970  136.2990 N   0  0  0  0  0  0  0  0  0  0  0  0
  186.7940  177.8600  135.4210 C   0  0  0  0  0  3  0  0  0  0  0  0
  188.2290  175.9140  135.9630 C   0  0  2  0  0  3  0  0  0  0  0  0
  187.5350  173.4730  136.2750 C   0  0  0  0  0  0  0  0  0  0  0  0
  189.6530  175.4360  136.0530 C   0  0  0  0  0  2  0  0  0  0  0  0
  188.8490  173.2290  136.8820 C   0  0  0  0  0  3  0  0  0  0  0  0
  183.8420  173.1800  135.6140 C   0  0  0  0  0  2  0  0  0  0  0  0
  184.4020  171.8310  135.6560 N   0  0  0  0  0  0  0  0  0  0  0  0
  187.0970  174.8660  135.9500 C   0  0  1  0  0  3  0  0  0  0  0  0
  185.7340  177.2580  135.8470 C   0  0  0  0  0  3  0  0  0  0  0  0
  188.0490  177.1750  135.6220 N   0  0  0  0  0  0  0  0  0  0  0  0
  185.0860  176.2880  136.4020 C   0  0  0  0  0  0  0  0  0  0  0  0
  186.6650  172.5020  136.1630 C   0  0  0  0  0  0  0  0  0  0  0  0
  189.8080  174.1540  136.8280 C   0  0  0  0  0  3  0  0  0  0  0  0
  182.7930  176.9470  135.5250 C   0  0  0  0  0  3  0  0  0  0  0  0
  182.9600  175.0760  137.0980 C   0  0  2  0  0  3  0  0  0  0  0  0
  185.7660  171.5590  136.0320 C   0  0  0  0  0  3  0  0  0  0  0  0
  183.2420  177.8820  134.8080 O   0  0  0  0  0  0  0  0  0  0  0  0
  183.5300  170.7230  135.2770 C   0  0  2  0  0  3  0  0  0  0  0  0
  181.3610  171.0030  136.2320 O   0  0  0  0  0  1  0  0  0  0  0  0
  182.1080  171.2190  135.0690 C   0  0  0  0  0  2  0  0  0  0  0  0
  183.5500  169.7330  136.2630 O   0  0  0  0  0  0  0  0  0  0  0  0
  184.9230  167.9250  135.5320 C   0  0  0  0  0  1  0  0  0  0  0  0
  183.5250  168.5250  135.5610 C   0  0  0  0  0  2  0  0  0  0  0  0
  182.8580  175.5350  138.5440 C   0  0  0  0  0  2  0  0  0  0  0  0
  182.0100  176.7900  138.6690 C   0  0  0  0  0  2  0  0  0  0  0  0
  182.8370  177.9100  139.2620 C   0  0  0  0  0  2  0  0  0  0  0  0
  182.6630  177.9350  140.7670 C   0  0  0  0  0  2  0  0  0  0  0  0
  183.9240  178.4130  141.4130 C   0  0  0  0  0  0  0  0  0  0  0  0
  184.8200  178.9830  140.6730 N   0  0  0  0  0  0  0  0  0  0  0  0
  184.1360  178.2790  142.8230 N   0  0  0  0  0  0  0  0  0  0  0  0
  183.6550  179.1210  143.6760 C   0  0  0  0  0  3  0  0  0  0  0  0
  183.9060  178.9300  145.1250 C   0  0  0  0  0  1  0  0  0  0  0  0
  186.0100  179.4930  141.2120 N   0  0  0  0  0  2  0  0  0  0  0  0
  188.0540  178.2470  140.4680 C   0  0  0  0  0  0  0  0  0  0  0  0
  188.9980  177.4840  140.7970 O   0  0  0  0  0  1  0  0  0  0  0  0
  187.1260  178.6800  141.4690 N   0  0  0  0  0  2  0  0  0  0  0  0
  187.9190  178.6300  139.1380 O   0  0  0  0  0  0  0  0  0  0  0  0
  1 18  1  0  0  0  0
  3 14  1  0  0  0  0
  3 18  1  0  0  0  0
  4 13  2  0  0  0  0
  4 12  1  0  0  0  0
  5  7  1  6  0  0  0
  6  8  1  0  0  0  0
  7 16  1  0  0  0  0
  9 10  1  0  0  0  0
  9  1  1  0  0  0  0
 10 19  1  0  0  0  0
 11  5  1  0  0  0  0
 11  6  1  1  0  0  0
 11  2  1  0  0  0  0
 12 14  2  0  0  0  0
 13  5  1  0  0  0  0
 14  2  1  0  0  0  0
 15  6  2  0  0  0  0
 16  8  2  0  0  0  0
 17  3  1  0  0  0  0
 18 27  1  1  0  0  0
 19 15  2  0  0  0  0
 20 17  2  0  0  0  0
 21 23  1  1  0  0  0
 21 10  1  0  0  0  0
 21 24  1  0  0  0  0
 23 22  1  0  0  0  0
 25 26  1  0  0  0  0
 26 24  1  0  0  0  0
 27 28  1  0  0  0  0
 28 29  1  0  0  0  0
 29 30  1  0  0  0  0
 30 31  1  0  0  0  0
 31 33  1  0  0  0  0
 32 36  1  0  0  0  0
 32 31  2  0  0  0  0
 33 34  2  0  0  0  0
 34 35  1  0  0  0  0
 36 39  1  0  0  0  0
 37 38  1  0  0  0  0
 37 39  1  0  0  0  0
 40 37  2  0  0  0  0
M  END
>  <MODEL>
7

>  <REMARK>
 VINA RESULT:      -5.7      3.169      6.564
  Name = 
  12 active torsions:
  status: ('A' for Active; 'I' for Inactive)
    1  A    between atoms: C_4  and  N_20
    2  A    between atoms: C_4  and  C_36
    3  A    between atoms: C_4  and  O_37
    4  A    between atoms: C_6  and  N_11
    5  A    between atoms: C_6  and  C_26
    6  A    between atoms: N_8  and  N_18
    7  A    between atoms: N_8  and  N_22
    8  A    between atoms: C_13  and  C_25
    9  A    between atoms: C_13  and  C_33
   10  A    between atoms: C_25  and  C_26
   11  A    between atoms: C_33  and  C_34
   12  A    between atoms: O_37  and  C_40
                            x       y       z     vdW  Elec       q    Type
                         _______ _______ _______ _____ _____    ______ ____

>  <TORSDO>
F 12

$$$$
=
 OpenBabel10232408423D

 40 42  0  0  1  0  0  0  0  0999 V2000
  188.6550  178.0040  139.8170 C   0  0  0  0  0  2  0  0  0  0  0  0
  186.2000  178.7910  140.9110 N   0  0  0  0  0  2  0  0  0  0  0  0
  187.9190  177.4840  142.1720 N   0  0  0  0  0  0  0  0  0  0  0  0
  184.4400  178.0210  143.3420 C   0  0  0  0  0  3  0  0  0  0  0  0
  183.6890  178.9790  141.1840 C   0  0  2  0  0  3  0  0  0  0  0  0
  184.8480  178.8560  138.9080 C   0  0  0  0  0  0  0  0  0  0  0  0
  182.5220  179.5990  140.4650 C   0  0  0  0  0  2  0  0  0  0  0  0
  183.9470  179.9200  138.4480 C   0  0  0  0  0  3  0  0  0  0  0  0
  187.9620  176.7710  139.2570 C   0  0  0  0  0  2  0  0  0  0  0  0
  187.6990  176.9570  137.8310 N   0  0  0  0  0  0  0  0  0  0  0  0
  184.8800  178.4610  140.3510 C   0  0  1  0  0  3  0  0  0  0  0  0
  185.6670  177.9590  142.9430 C   0  0  0  0  0  3  0  0  0  0  0  0
  183.5040  178.6650  142.4510 N   0  0  0  0  0  0  0  0  0  0  0  0
  186.6350  178.1570  142.1100 C   0  0  0  0  0  0  0  0  0  0  0  0
  185.7500  178.3550  138.1030 C   0  0  0  0  0  0  0  0  0  0  0  0
  182.9070  180.3000  139.1890 C   0  0  0  0  0  3  0  0  0  0  0  0
  188.2410  176.4820  143.1470 C   0  0  0  0  0  3  0  0  0  0  0  0
  189.0320  177.8860  141.3020 C   0  0  2  0  0  3  0  0  0  0  0  0
  186.6660  177.8270  137.3300 C   0  0  0  0  0  3  0  0  0  0  0  0
  187.3940  176.0540  143.9770 O   0  0  0  0  0  0  0  0  0  0  0  0
  188.5190  176.2030  136.8870 C   0  0  2  0  0  3  0  0  0  0  0  0
  188.2030  173.8380  136.8800 O   0  0  0  0  0  1  0  0  0  0  0  0
  187.7310  175.0310  136.3230 C   0  0  0  0  0  2  0  0  0  0  0  0
  189.6780  175.7400  137.5150 O   0  0  0  0  0  0  0  0  0  0  0  0
  192.0510  175.9760  137.4490 C   0  0  0  0  0  1  0  0  0  0  0  0
  190.7070  176.5350  137.0040 C   0  0  0  0  0  2  0  0  0  0  0  0
  189.6250  179.1970  141.7960 C   0  0  0  0  0  2  0  0  0  0  0  0
  190.8970  178.9650  142.5940 C   0  0  0  0  0  2  0  0  0  0  0  0
  190.6130  179.1250  144.0710 C   0  0  0  0  0  2  0  0  0  0  0  0
  191.1870  177.9490  144.8350 C   0  0  0  0  0  2  0  0  0  0  0  0
  190.3020  177.6200  145.9940 C   0  0  0  0  0  0  0  0  0  0  0  0
  189.0910  178.0750  145.9960 N   0  0  0  0  0  0  0  0  0  0  0  0
  190.7610  176.7940  147.0700 N   0  0  0  0  0  0  0  0  0  0  0  0
  191.9330  176.2500  147.0710 C   0  0  0  0  0  3  0  0  0  0  0  0
  192.3550  175.4050  148.2150 C   0  0  0  0  0  1  0  0  0  0  0  0
  188.1890  177.7750  147.0280 N   0  0  0  0  0  2  0  0  0  0  0  0
  185.8430  178.6600  147.0220 C   0  0  0  0  0  0  0  0  0  0  0  0
  184.6260  178.4100  146.8270 O   0  0  0  0  0  0  0  0  0  0  0  0
  186.8110  177.6280  146.8010 N   0  0  0  0  0  2  0  0  0  0  0  0
  186.2170  179.9220  147.4730 O   0  0  0  0  0  1  0  0  0  0  0  0
  1 18  1  0  0  0  0
  2 14  1  0  0  0  0
  3 17  1  0  0  0  0
  5  7  1  6  0  0  0
  5 13  1  0  0  0  0
  8  6  1  0  0  0  0
  8 16  2  0  0  0  0
  9  1  1  0  0  0  0
 10  9  1  0  0  0  0
 11  6  1  6  0  0  0
 11  2  1  0  0  0  0
 11  5  1  0  0  0  0
 12  4  1  0  0  0  0
 13  4  2  0  0  0  0
 14  3  1  0  0  0  0
 14 12  2  0  0  0  0
 15  6  2  0  0  0  0
 16  7  1  0  0  0  0
 17 20  2  0  0  0  0
 18 27  1  1  0  0  0
 18  3  1  0  0  0  0
 19 10  1  0  0  0  0
 19 15  2  0  0  0  0
 21 23  1  1  0  0  0
 21 24  1  0  0  0  0
 21 10  1  0  0  0  0
 23 22  1  0  0  0  0
 26 25  1  0  0  0  0
 26 24  1  0  0  0  0
 27 28  1  0  0  0  0
 28 29  1  0  0  0  0
 29 30  1  0  0  0  0
 30 31  1  0  0  0  0
 31 32  2  0  0  0  0
 31 33  1  0  0  0  0
 32 36  1  0  0  0  0
 33 34  2  0  0  0  0
 34 35  1  0  0  0  0
 37 40  1  0  0  0  0
 38 37  2  0  0  0  0
 39 37  1  0  0  0  0
 39 36  1  0  0  0  0
M  END
>  <MODEL>
8

>  <REMARK>
 VINA RESULT:      -5.6      2.782      6.141
  Name = 
  12 active torsions:
  status: ('A' for Active; 'I' for Inactive)
    1  A    between atoms: C_4  and  N_20
    2  A    between atoms: C_4  and  C_36
    3  A    between atoms: C_4  and  O_37
    4  A    between atoms: C_6  and  N_11
    5  A    between atoms: C_6  and  C_26
    6  A    between atoms: N_8  and  N_18
    7  A    between atoms: N_8  and  N_22
    8  A    between atoms: C_13  and  C_25
    9  A    between atoms: C_13  and  C_33
   10  A    between atoms: C_25  and  C_26
   11  A    between atoms: C_33  and  C_34
   12  A    between atoms: O_37  and  C_40
                            x       y       z     vdW  Elec       q    Type
                         _______ _______ _______ _____ _____    ______ ____

>  <TORSDO>
F 12

$$$$
=
 OpenBabel10232408423D

 40 42  0  0  1  0  0  0  0  0999 V2000
  189.0240  175.9170  137.3290 C   0  0  0  0  0  2  0  0  0  0  0  0
  189.8600  173.4390  136.3270 N   0  0  0  0  0  2  0  0  0  0  0  0
  191.3170  175.4710  136.3790 N   0  0  0  0  0  0  0  0  0  0  0  0
  192.1420  172.3640  134.5270 C   0  0  0  0  0  3  0  0  0  0  0  0
  189.8930  171.3770  134.8560 C   0  0  2  0  0  3  0  0  0  0  0  0
  187.7390  172.5510  135.5800 C   0  0  0  0  0  0  0  0  0  0  0  0
  189.0490  170.1560  134.6110 C   0  0  0  0  0  2  0  0  0  0  0  0
  187.1620  171.2250  135.8360 C   0  0  0  0  0  3  0  0  0  0  0  0
  188.4430  176.2280  135.9570 C   0  0  0  0  0  2  0  0  0  0  0  0
  186.9940  176.0400  135.9800 N   0  0  0  0  0  0  0  0  0  0  0  0
  189.1910  172.6940  135.2480 C   0  0  1  0  0  3  0  0  0  0  0  0
  191.8600  173.3770  135.2770 C   0  0  0  0  0  3  0  0  0  0  0  0
  191.1470  171.3210  134.4530 N   0  0  0  0  0  0  0  0  0  0  0  0
  191.1140  174.0660  136.0760 C   0  0  0  0  0  0  0  0  0  0  0  0
  187.0380  173.6340  135.7990 C   0  0  0  0  0  0  0  0  0  0  0  0
  187.7920  170.1190  135.4390 C   0  0  0  0  0  3  0  0  0  0  0  0
  192.3500  176.2680  135.7820 C   0  0  0  0  0  3  0  0  0  0  0  0
  190.5410  176.1440  137.4290 C   0  0  2  0  0  3  0  0  0  0  0  0
  186.3710  174.7410  136.0060 C   0  0  0  0  0  3  0  0  0  0  0  0
  193.1110  175.8180  134.8830 O   0  0  0  0  0  0  0  0  0  0  0  0
  186.1550  177.2350  135.9580 C   0  0  2  0  0  3  0  0  0  0  0  0
  186.9850  179.0110  137.3200 O   0  0  0  0  0  1  0  0  0  0  0  0
  187.0170  178.4860  136.0240 C   0  0  0  0  0  2  0  0  0  0  0  0
  185.2600  177.2180  137.0310 O   0  0  0  0  0  0  0  0  0  0  0  0
  182.9720  177.7130  137.4890 C   0  0  0  0  0  1  0  0  0  0  0  0
  183.9930  177.2860  136.4440 C   0  0  0  0  0  2  0  0  0  0  0  0
  191.0440  175.7120  138.7980 C   0  0  0  0  0  2  0  0  0  0  0  0
  191.6590  176.8780  139.5550 C   0  0  0  0  0  2  0  0  0  0  0  0
  190.5730  177.6670  140.2520 C   0  0  0  0  0  2  0  0  0  0  0  0
  189.9300  176.8160  141.3290 C   0  0  0  0  0  2  0  0  0  0  0  0
  188.8020  177.5670  141.9600 C   0  0  0  0  0  0  0  0  0  0  0  0
  188.0490  178.3000  141.2050 N   0  0  0  0  0  0  0  0  0  0  0  0
  188.5300  177.4620  143.3620 N   0  0  0  0  0  0  0  0  0  0  0  0
  189.3880  177.8120  144.2600 C   0  0  0  0  0  3  0  0  0  0  0  0
  189.0500  177.6820  145.6980 C   0  0  0  0  0  1  0  0  0  0  0  0
  186.9470  179.0010  141.7170 N   0  0  0  0  0  2  0  0  0  0  0  0
  184.6130  178.7950  140.8230 C   0  0  0  0  0  0  0  0  0  0  0  0
  183.4770  178.2750  140.9620 O   0  0  0  0  0  1  0  0  0  0  0  0
  185.6550  178.4510  141.7440 N   0  0  0  0  0  2  0  0  0  0  0  0
  184.8240  179.7110  139.7970 O   0  0  0  0  0  0  0  0  0  0  0  0
  1 18  1  0  0  0  0
  3 18  1  0  0  0  0
  4 12  1  0  0  0  0
  5  7  1  6  0  0  0
  5 11  1  0  0  0  0
  6 15  2  0  0  0  0
  6  8  1  0  0  0  0
  7 16  1  0  0  0  0
  9 10  1  0  0  0  0
  9  1  1  0  0  0  0
 10 19  1  0  0  0  0
 11  6  1  1  0  0  0
 11  2  1  0  0  0  0
 12 14  2  0  0  0  0
 13  4  2  0  0  0  0
 13  5  1  0  0  0  0
 14  2  1  0  0  0  0
 14  3  1  0  0  0  0
 15 19  2  0  0  0  0
 16  8  2  0  0  0  0
 17  3  1  0  0  0  0
 18 27  1  1  0  0  0
 20 17  2  0  0  0  0
 21 10  1  0  0  0  0
 21 23  1  1  0  0  0
 21 24  1  0  0  0  0
 23 22  1  0  0  0  0
 26 24  1  0  0  0  0
 26 25  1  0  0  0  0
 27 28  1  0  0  0  0
 28 29  1  0  0  0  0
 29 30  1  0  0  0  0
 30 31  1  0  0  0  0
 31 33  1  0  0  0  0
 32 36  1  0  0  0  0
 32 31  2  0  0  0  0
 33 34  2  0  0  0  0
 34 35  1  0  0  0  0
 36 39  1  0  0  0  0
 37 38  1  0  0  0  0
 37 39  1  0  0  0  0
 40 37  2  0  0  0  0
M  END
>  <MODEL>
9

>  <REMARK>
 VINA RESULT:      -5.6      2.569      3.743
  Name = 
  12 active torsions:
  status: ('A' for Active; 'I' for Inactive)
    1  A    between atoms: C_4  and  N_20
    2  A    between atoms: C_4  and  C_36
    3  A    between atoms: C_4  and  O_37
    4  A    between atoms: C_6  and  N_11
    5  A    between atoms: C_6  and  C_26
    6  A    between atoms: N_8  and  N_18
    7  A    between atoms: N_8  and  N_22
    8  A    between atoms: C_13  and  C_25
    9  A    between atoms: C_13  and  C_33
   10  A    between atoms: C_25  and  C_26
   11  A    between atoms: C_33  and  C_34
   12  A    between atoms: O_37  and  C_40
                            x       y       z     vdW  Elec       q    Type
                         _______ _______ _______ _____ _____    ______ ____

>  <TORSDO>
F 12

$$$$
