=
 OpenBabel10232411323D

 27 29  0  0  1  0  0  0  0  0999 V2000
  190.7780  176.0590  143.3400 S   0  0  0  0  0  0  0  0  0  0  0  0
  188.6290  177.6810  143.2360 C   0  0  1  0  0  3  0  0  0  0  0  0
  190.5110  177.2830  144.6120 C   0  0  2  0  0  3  0  0  0  0  0  0
  189.4150  178.0260  144.4550 C   0  0  0  0  0  2  0  0  0  0  0  0
  189.5320  176.8940  142.4070 N   0  0  0  0  0  0  0  0  0  0  0  0
  189.6990  177.1590  141.0090 C   0  0  0  0  0  0  0  0  0  0  0  0
  190.7370  176.6870  140.2240 C   0  0  0  0  0  3  0  0  0  0  0  0
  188.8440  177.9050  140.2280 C   0  0  0  0  0  3  0  0  0  0  0  0
  190.4720  177.1730  138.9540 C   0  0  0  0  0  3  0  0  0  0  0  0
  189.3320  177.8900  138.9780 N   0  0  0  0  0  0  0  0  0  0  0  0
  188.7490  178.5880  137.8460 C   0  0  0  0  0  2  0  0  0  0  0  0
  187.8240  177.6590  137.0840 C   0  0  0  0  0  2  0  0  0  0  0  0
  186.5560  177.5660  137.7800 N   0  0  0  0  0  2  0  0  0  0  0  0
  186.1190  178.8780  138.0040 N   0  0  0  0  0  2  0  0  0  0  0  0
  184.5250  179.9040  139.2120 N   0  0  0  0  0  1  0  0  0  0  0  0
  185.4840  178.8840  139.2520 N   0  0  0  0  0  2  0  0  0  0  0  0
  187.4800  176.8690  143.6150 N   0  0  0  0  0  2  0  0  0  0  0  0
  186.8280  177.5090  144.7490 C   0  0  0  0  0  2  0  0  0  0  0  0
  185.5070  178.0880  144.3550 C   0  0  0  0  0  0  0  0  0  0  0  0
  183.3930  179.0860  145.0020 C   0  0  0  0  0  3  0  0  0  0  0  0
  184.6380  178.5530  145.3480 C   0  0  0  0  0  3  0  0  0  0  0  0
  183.8630  178.6620  142.6640 C   0  0  0  0  0  3  0  0  0  0  0  0
  185.1060  178.1270  143.0120 C   0  0  0  0  0  3  0  0  0  0  0  0
  183.0070  179.1440  143.6600 C   0  0  0  0  0  3  0  0  0  0  0  0
  191.5010  177.5260  145.7030 C   0  0  0  0  0  2  0  0  0  0  0  0
  192.1820  175.2650  146.8470 N   0  0  0  0  0  0  0  0  0  0  0  0
  191.8830  176.2640  146.3450 C   0  0  0  0  0  0  0  0  0  0  0  0
  1  3  1  0  0  0  0
  2 17  1  1  0  0  0
  2  4  1  0  0  0  0
  3 25  1  6  0  0  0
  4  3  1  0  0  0  0
  5  2  1  0  0  0  0
  5  1  1  0  0  0  0
  6  5  1  0  0  0  0
  7  6  1  0  0  0  0
  8  6  2  0  0  0  0
  9 10  1  0  0  0  0
  9  7  2  0  0  0  0
 10  8  1  0  0  0  0
 11 10  1  0  0  0  0
 12 13  1  0  0  0  0
 12 11  1  0  0  0  0
 13 14  1  0  0  0  0
 14 16  1  0  0  0  0
 15 16  1  0  0  0  0
 17 18  1  0  0  0  0
 19 18  1  0  0  0  0
 19 21  1  0  0  0  0
 20 21  2  0  0  0  0
 22 23  1  0  0  0  0
 22 24  2  0  0  0  0
 23 19  2  0  0  0  0
 24 20  1  0  0  0  0
 25 27  1  0  0  0  0
 27 26  3  0  0  0  0
M  END
>  <MODEL>
1

>  <REMARK>
 VINA RESULT:      -7.5      0.000      0.000
  Name = 
  11 active torsions:
  status: ('A' for Active; 'I' for Inactive)
    1  A    between atoms: C_1  and  C_5
    2  A    between atoms: C_1  and  N_18
    3  A    between atoms: C_2  and  N_23
    4  A    between atoms: C_3  and  N_7
    5  A    between atoms: C_3  and  C_17
    6  A    between atoms: N_7  and  N_11
    7  A    between atoms: C_10  and  N_18
    8  A    between atoms: N_11  and  N_21
    9  A    between atoms: N_13  and  C_17
   10  A    between atoms: C_14  and  C_19
   11  A    between atoms: C_19  and  C_26
                            x       y       z     vdW  Elec       q    Type
                         _______ _______ _______ _____ _____    ______ ____

>  <TORSDO>
F 11

$$$$
=
 OpenBabel10232411323D

 27 29  0  0  1  0  0  0  0  0999 V2000
  190.8050  175.9740  143.2500 S   0  0  0  0  0  0  0  0  0  0  0  0
  188.6870  177.6390  143.2790 C   0  0  1  0  0  3  0  0  0  0  0  0
  190.6480  177.2070  144.5310 C   0  0  2  0  0  3  0  0  0  0  0  0
  189.5590  177.9720  144.4420 C   0  0  0  0  0  2  0  0  0  0  0  0
  189.5170  176.8310  142.3970 N   0  0  0  0  0  0  0  0  0  0  0  0
  189.5960  177.0880  140.9900 C   0  0  0  0  0  0  0  0  0  0  0  0
  188.6930  177.8460  140.2630 C   0  0  0  0  0  3  0  0  0  0  0  0
  190.5890  176.6380  140.1470 C   0  0  0  0  0  3  0  0  0  0  0  0
  189.1810  177.8350  138.9670 C   0  0  0  0  0  3  0  0  0  0  0  0
  190.3180  177.1150  138.9230 N   0  0  0  0  0  0  0  0  0  0  0  0
  191.1020  176.8450  137.7300 C   0  0  0  0  0  2  0  0  0  0  0  0
  192.3260  176.0250  138.0880 C   0  0  0  0  0  2  0  0  0  0  0  0
  193.5190  176.7390  137.6790 N   0  0  0  0  0  2  0  0  0  0  0  0
  194.4040  175.7860  137.1580 N   0  0  0  0  0  2  0  0  0  0  0  0
  195.7170  174.8540  138.7240 N   0  0  0  0  0  1  0  0  0  0  0  0
  194.4730  174.7470  138.0920 N   0  0  0  0  0  2  0  0  0  0  0  0
  187.5490  176.8520  143.7370 N   0  0  0  0  0  2  0  0  0  0  0  0
  186.9090  177.5740  144.8280 C   0  0  0  0  0  2  0  0  0  0  0  0
  185.5800  178.1160  144.4110 C   0  0  0  0  0  0  0  0  0  0  0  0
  183.4350  179.0720  145.0180 C   0  0  0  0  0  3  0  0  0  0  0  0
  184.6890  178.5750  145.3870 C   0  0  0  0  0  3  0  0  0  0  0  0
  183.9420  178.6230  142.6930 C   0  0  0  0  0  3  0  0  0  0  0  0
  185.1940  178.1240  143.0620 C   0  0  0  0  0  3  0  0  0  0  0  0
  183.0640  179.1000  143.6710 C   0  0  0  0  0  3  0  0  0  0  0  0
  191.7110  177.4340  145.5520 C   0  0  0  0  0  2  0  0  0  0  0  0
  191.7140  175.5080  147.3340 N   0  0  0  0  0  0  0  0  0  0  0  0
  191.7110  176.3550  146.5470 C   0  0  0  0  0  0  0  0  0  0  0  0
  1  3  1  0  0  0  0
  2 17  1  1  0  0  0
  2  4  1  0  0  0  0
  3 25  1  6  0  0  0
  4  3  1  0  0  0  0
  5  1  1  0  0  0  0
  5  2  1  0  0  0  0
  6  5  1  0  0  0  0
  7  6  1  0  0  0  0
  8  6  2  0  0  0  0
  9  7  2  0  0  0  0
 10  9  1  0  0  0  0
 10  8  1  0  0  0  0
 11 12  1  0  0  0  0
 11 10  1  0  0  0  0
 13 12  1  0  0  0  0
 14 13  1  0  0  0  0
 14 16  1  0  0  0  0
 16 15  1  0  0  0  0
 17 18  1  0  0  0  0
 19 18  1  0  0  0  0
 19 21  1  0  0  0  0
 20 21  2  0  0  0  0
 22 23  1  0  0  0  0
 22 24  2  0  0  0  0
 23 19  2  0  0  0  0
 24 20  1  0  0  0  0
 25 27  1  0  0  0  0
 27 26  3  0  0  0  0
M  END
>  <MODEL>
2

>  <REMARK>
 VINA RESULT:      -7.1      2.379      3.970
  Name = 
  11 active torsions:
  status: ('A' for Active; 'I' for Inactive)
    1  A    between atoms: C_1  and  C_5
    2  A    between atoms: C_1  and  N_18
    3  A    between atoms: C_2  and  N_23
    4  A    between atoms: C_3  and  N_7
    5  A    between atoms: C_3  and  C_17
    6  A    between atoms: N_7  and  N_11
    7  A    between atoms: C_10  and  N_18
    8  A    between atoms: N_11  and  N_21
    9  A    between atoms: N_13  and  C_17
   10  A    between atoms: C_14  and  C_19
   11  A    between atoms: C_19  and  C_26
                            x       y       z     vdW  Elec       q    Type
                         _______ _______ _______ _____ _____    ______ ____

>  <TORSDO>
F 11

$$$$
=
 OpenBabel10232411323D

 27 29  0  0  1  0  0  0  0  0999 V2000
  190.6940  176.0420  142.8300 S   0  0  0  0  0  0  0  0  0  0  0  0
  188.8370  177.9750  142.5600 C   0  0  1  0  0  3  0  0  0  0  0  0
  190.6090  177.3790  144.0090 C   0  0  2  0  0  3  0  0  0  0  0  0
  189.6510  178.2750  143.7730 C   0  0  0  0  0  2  0  0  0  0  0  0
  189.6140  176.9970  141.8100 N   0  0  0  0  0  0  0  0  0  0  0  0
  189.8420  177.1320  140.4020 C   0  0  0  0  0  0  0  0  0  0  0  0
  189.1070  177.9350  139.5460 C   0  0  0  0  0  3  0  0  0  0  0  0
  190.8360  176.5010  139.6880 C   0  0  0  0  0  3  0  0  0  0  0  0
  189.6960  177.7650  138.3050 C   0  0  0  0  0  3  0  0  0  0  0  0
  190.7320  176.9110  138.4140 N   0  0  0  0  0  0  0  0  0  0  0  0
  191.5710  176.4560  137.3200 C   0  0  0  0  0  2  0  0  0  0  0  0
  192.5130  175.3710  137.8050 C   0  0  0  0  0  2  0  0  0  0  0  0
  193.8590  175.9050  137.8890 N   0  0  0  0  0  2  0  0  0  0  0  0
  193.9400  176.9480  136.9570 N   0  0  0  0  0  2  0  0  0  0  0  0
  195.3420  177.7830  135.4120 N   0  0  0  0  0  1  0  0  0  0  0  0
  194.9460  176.6000  136.0490 N   0  0  0  0  0  2  0  0  0  0  0  0
  187.5670  177.3870  142.9620 N   0  0  0  0  0  2  0  0  0  0  0  0
  186.4970  178.1330  142.3130 C   0  0  0  0  0  2  0  0  0  0  0  0
  185.3960  178.4450  143.2760 C   0  0  0  0  0  0  0  0  0  0  0  0
  184.6420  178.7100  145.5650 C   0  0  0  0  0  3  0  0  0  0  0  0
  185.6610  178.4340  144.6490 C   0  0  0  0  0  3  0  0  0  0  0  0
  183.0740  178.9780  143.7390 C   0  0  0  0  0  3  0  0  0  0  0  0
  184.0930  178.7000  142.8240 C   0  0  0  0  0  3  0  0  0  0  0  0
  183.3500  178.9860  145.1100 C   0  0  0  0  0  3  0  0  0  0  0  0
  191.6080  177.5370  145.1070 C   0  0  0  0  0  2  0  0  0  0  0  0
  190.7770  176.3360  147.2860 N   0  0  0  0  0  0  0  0  0  0  0  0
  191.1450  176.8680  146.3270 C   0  0  0  0  0  0  0  0  0  0  0  0
  1  3  1  0  0  0  0
  2 17  1  1  0  0  0
  2  4  1  0  0  0  0
  3 25  1  6  0  0  0
  4  3  1  0  0  0  0
  5  2  1  0  0  0  0
  5  1  1  0  0  0  0
  6  5  1  0  0  0  0
  7  6  1  0  0  0  0
  8  6  2  0  0  0  0
  9 10  1  0  0  0  0
  9  7  2  0  0  0  0
 10  8  1  0  0  0  0
 11 12  1  0  0  0  0
 11 10  1  0  0  0  0
 12 13  1  0  0  0  0
 14 13  1  0  0  0  0
 15 16  1  0  0  0  0
 16 14  1  0  0  0  0
 18 17  1  0  0  0  0
 18 19  1  0  0  0  0
 19 21  1  0  0  0  0
 21 20  2  0  0  0  0
 22 24  2  0  0  0  0
 23 19  2  0  0  0  0
 23 22  1  0  0  0  0
 24 20  1  0  0  0  0
 25 27  1  0  0  0  0
 27 26  3  0  0  0  0
M  END
>  <MODEL>
3

>  <REMARK>
 VINA RESULT:      -7.1      2.524      4.054
  Name = 
  11 active torsions:
  status: ('A' for Active; 'I' for Inactive)
    1  A    between atoms: C_1  and  C_5
    2  A    between atoms: C_1  and  N_18
    3  A    between atoms: C_2  and  N_23
    4  A    between atoms: C_3  and  N_7
    5  A    between atoms: C_3  and  C_17
    6  A    between atoms: N_7  and  N_11
    7  A    between atoms: C_10  and  N_18
    8  A    between atoms: N_11  and  N_21
    9  A    between atoms: N_13  and  C_17
   10  A    between atoms: C_14  and  C_19
   11  A    between atoms: C_19  and  C_26
                            x       y       z     vdW  Elec       q    Type
                         _______ _______ _______ _____ _____    ______ ____

>  <TORSDO>
F 11

$$$$
=
 OpenBabel10232411323D

 27 29  0  0  1  0  0  0  0  0999 V2000
  186.8270  179.1900  141.5530 S   0  0  0  0  0  0  0  0  0  0  0  0
  188.1890  177.2070  142.7670 C   0  0  1  0  0  3  0  0  0  0  0  0
  186.0090  178.1240  142.7280 C   0  0  2  0  0  3  0  0  0  0  0  0
  186.7840  177.1810  143.2640 C   0  0  0  0  0  2  0  0  0  0  0  0
  188.1540  178.0240  141.5610 N   0  0  0  0  0  0  0  0  0  0  0  0
  188.7870  177.6050  140.3460 C   0  0  0  0  0  0  0  0  0  0  0  0
  188.3080  177.8480  139.0690 C   0  0  0  0  0  3  0  0  0  0  0  0
  189.9760  176.9150  140.2590 C   0  0  0  0  0  3  0  0  0  0  0  0
  189.2490  177.2850  138.2240 C   0  0  0  0  0  3  0  0  0  0  0  0
  190.2400  176.7410  138.9550 N   0  0  0  0  0  0  0  0  0  0  0  0
  191.3880  176.0270  138.4250 C   0  0  0  0  0  2  0  0  0  0  0  0
  192.6630  176.7810  138.7460 C   0  0  0  0  0  2  0  0  0  0  0  0
  193.7930  176.0870  138.1600 N   0  0  0  0  0  2  0  0  0  0  0  0
  193.9800  176.6250  136.8800 N   0  0  0  0  0  2  0  0  0  0  0  0
  195.7760  176.9110  135.5600 N   0  0  0  0  0  1  0  0  0  0  0  0
  195.0810  175.9640  136.3230 N   0  0  0  0  0  2  0  0  0  0  0  0
  189.0430  177.8430  143.7630 N   0  0  0  0  0  2  0  0  0  0  0  0
  189.3040  176.8740  144.8180 C   0  0  0  0  0  2  0  0  0  0  0  0
  188.8560  177.3890  146.1480 C   0  0  0  0  0  0  0  0  0  0  0  0
  189.3680  177.9230  148.4580 C   0  0  0  0  0  3  0  0  0  0  0  0
  189.7720  177.4570  147.2030 C   0  0  0  0  0  3  0  0  0  0  0  0
  187.1170  178.2270  147.6200 C   0  0  0  0  0  3  0  0  0  0  0  0
  187.5200  177.7590  146.3670 C   0  0  0  0  0  3  0  0  0  0  0  0
  188.0430  178.3120  148.6650 C   0  0  0  0  0  3  0  0  0  0  0  0
  184.5440  178.2150  142.9990 C   0  0  0  0  0  2  0  0  0  0  0  0
  184.1080  179.0930  145.4330 N   0  0  0  0  0  0  0  0  0  0  0  0
  184.3010  178.7090  144.3590 C   0  0  0  0  0  0  0  0  0  0  0  0
  1  5  1  0  0  0  0
  1  3  1  0  0  0  0
  2  4  1  0  0  0  0
  2 17  1  1  0  0  0
  3 25  1  6  0  0  0
  3  4  1  0  0  0  0
  5  2  1  0  0  0  0
  6  5  1  0  0  0  0
  7  6  1  0  0  0  0
  8  6  2  0  0  0  0
  9 10  1  0  0  0  0
  9  7  2  0  0  0  0
 10  8  1  0  0  0  0
 11 12  1  0  0  0  0
 11 10  1  0  0  0  0
 13 12  1  0  0  0  0
 14 13  1  0  0  0  0
 15 16  1  0  0  0  0
 16 14  1  0  0  0  0
 17 18  1  0  0  0  0
 18 19  1  0  0  0  0
 19 23  2  0  0  0  0
 19 21  1  0  0  0  0
 20 24  1  0  0  0  0
 21 20  2  0  0  0  0
 22 24  2  0  0  0  0
 23 22  1  0  0  0  0
 25 27  1  0  0  0  0
 27 26  3  0  0  0  0
M  END
>  <MODEL>
4

>  <REMARK>
 VINA RESULT:      -6.9      3.196      5.834
  Name = 
  11 active torsions:
  status: ('A' for Active; 'I' for Inactive)
    1  A    between atoms: C_1  and  C_5
    2  A    between atoms: C_1  and  N_18
    3  A    between atoms: C_2  and  N_23
    4  A    between atoms: C_3  and  N_7
    5  A    between atoms: C_3  and  C_17
    6  A    between atoms: N_7  and  N_11
    7  A    between atoms: C_10  and  N_18
    8  A    between atoms: N_11  and  N_21
    9  A    between atoms: N_13  and  C_17
   10  A    between atoms: C_14  and  C_19
   11  A    between atoms: C_19  and  C_26
                            x       y       z     vdW  Elec       q    Type
                         _______ _______ _______ _____ _____    ______ ____

>  <TORSDO>
F 11

$$$$
=
 OpenBabel10232411323D

 27 29  0  0  1  0  0  0  0  0999 V2000
  190.1910  178.4330  143.7110 S   0  0  0  0  0  0  0  0  0  0  0  0
  189.8260  176.7400  141.6470 C   0  0  1  0  0  3  0  0  0  0  0  0
  190.9230  176.8050  143.7420 C   0  0  2  0  0  3  0  0  0  0  0  0
  190.6750  176.0580  142.6660 C   0  0  0  0  0  2  0  0  0  0  0  0
  189.2260  177.8700  142.3430 N   0  0  0  0  0  0  0  0  0  0  0  0
  187.8260  178.1600  142.2480 C   0  0  0  0  0  0  0  0  0  0  0  0
  187.1820  178.6330  141.1170 C   0  0  0  0  0  3  0  0  0  0  0  0
  186.9030  177.9950  143.2570 C   0  0  0  0  0  3  0  0  0  0  0  0
  185.8520  178.7410  141.4840 C   0  0  0  0  0  3  0  0  0  0  0  0
  185.7070  178.3460  142.7630 N   0  0  0  0  0  0  0  0  0  0  0  0
  184.4640  178.3530  143.5140 C   0  0  0  0  0  2  0  0  0  0  0  0
  184.5210  179.4050  144.6040 C   0  0  0  0  0  2  0  0  0  0  0  0
  184.2490  178.7830  145.8860 N   0  0  0  0  0  2  0  0  0  0  0  0
  185.2990  179.1420  146.7410 N   0  0  0  0  0  2  0  0  0  0  0  0
  187.0840  178.2290  147.7550 N   0  0  0  0  0  1  0  0  0  0  0  0
  186.2800  178.1520  146.6120 N   0  0  0  0  0  2  0  0  0  0  0  0
  190.6680  177.2240  140.5620 N   0  0  0  0  0  2  0  0  0  0  0  0
  190.3890  176.4210  139.3800 C   0  0  0  0  0  2  0  0  0  0  0  0
  189.4080  177.1050  138.4810 C   0  0  0  0  0  0  0  0  0  0  0  0
  188.7190  179.0950  137.2780 C   0  0  0  0  0  3  0  0  0  0  0  0
  189.6310  178.4340  138.1060 C   0  0  0  0  0  3  0  0  0  0  0  0
  187.3330  177.1100  137.2220 C   0  0  0  0  0  3  0  0  0  0  0  0
  188.2440  176.4500  138.0510 C   0  0  0  0  0  3  0  0  0  0  0  0
  187.5730  178.4320  136.8330 C   0  0  0  0  0  3  0  0  0  0  0  0
  191.6610  176.2860  144.9310 C   0  0  0  0  0  2  0  0  0  0  0  0
  190.5190  177.0980  147.1500 N   0  0  0  0  0  0  0  0  0  0  0  0
  191.0220  176.7370  146.1720 C   0  0  0  0  0  0  0  0  0  0  0  0
  1  3  1  0  0  0  0
  2 17  1  6  0  0  0
  2  5  1  0  0  0  0
  2  4  1  0  0  0  0
  3 25  1  1  0  0  0
  4  3  1  0  0  0  0
  5  1  1  0  0  0  0
  6  5  1  0  0  0  0
  6  8  2  0  0  0  0
  7  9  2  0  0  0  0
  7  6  1  0  0  0  0
  9 10  1  0  0  0  0
 10  8  1  0  0  0  0
 10 11  1  0  0  0  0
 11 12  1  0  0  0  0
 12 13  1  0  0  0  0
 13 14  1  0  0  0  0
 16 14  1  0  0  0  0
 16 15  1  0  0  0  0
 18 17  1  0  0  0  0
 19 18  1  0  0  0  0
 20 21  2  0  0  0  0
 21 19  1  0  0  0  0
 22 23  1  0  0  0  0
 23 19  2  0  0  0  0
 24 22  2  0  0  0  0
 24 20  1  0  0  0  0
 25 27  1  0  0  0  0
 27 26  3  0  0  0  0
M  END
>  <MODEL>
5

>  <REMARK>
 VINA RESULT:      -6.8      2.188      5.967
  Name = 
  11 active torsions:
  status: ('A' for Active; 'I' for Inactive)
    1  A    between atoms: C_1  and  C_5
    2  A    between atoms: C_1  and  N_18
    3  A    between atoms: C_2  and  N_23
    4  A    between atoms: C_3  and  N_7
    5  A    between atoms: C_3  and  C_17
    6  A    between atoms: N_7  and  N_11
    7  A    between atoms: C_10  and  N_18
    8  A    between atoms: N_11  and  N_21
    9  A    between atoms: N_13  and  C_17
   10  A    between atoms: C_14  and  C_19
   11  A    between atoms: C_19  and  C_26
                            x       y       z     vdW  Elec       q    Type
                         _______ _______ _______ _____ _____    ______ ____

>  <TORSDO>
F 11

$$$$
=
 OpenBabel10232411323D

 27 29  0  0  1  0  0  0  0  0999 V2000
  186.8440  179.0440  141.3040 S   0  0  0  0  0  0  0  0  0  0  0  0
  188.6090  177.3970  142.5020 C   0  0  1  0  0  3  0  0  0  0  0  0
  186.3350  178.0280  142.6810 C   0  0  2  0  0  3  0  0  0  0  0  0
  187.2940  177.2560  143.1920 C   0  0  0  0  0  2  0  0  0  0  0  0
  188.3080  178.0590  141.2390 N   0  0  0  0  0  0  0  0  0  0  0  0
  188.8330  177.5830  139.9940 C   0  0  0  0  0  0  0  0  0  0  0  0
  188.1810  177.6460  138.7740 C   0  0  0  0  0  3  0  0  0  0  0  0
  190.0720  177.0090  139.8140 C   0  0  0  0  0  3  0  0  0  0  0  0
  189.0690  177.0960  137.8660 C   0  0  0  0  0  3  0  0  0  0  0  0
  190.1950  176.7300  138.5070 N   0  0  0  0  0  0  0  0  0  0  0  0
  191.3430  176.0820  137.8970 C   0  0  0  0  0  2  0  0  0  0  0  0
  192.6210  176.5560  138.5620 C   0  0  0  0  0  2  0  0  0  0  0  0
  193.6660  176.6770  137.5640 N   0  0  0  0  0  2  0  0  0  0  0  0
  194.2150  175.3990  137.3960 N   0  0  0  0  0  2  0  0  0  0  0  0
  196.2830  174.9710  138.1660 N   0  0  0  0  0  1  0  0  0  0  0  0
  194.9460  175.1190  138.5570 N   0  0  0  0  0  2  0  0  0  0  0  0
  189.4860  178.2440  143.3000 N   0  0  0  0  0  2  0  0  0  0  0  0
  190.7250  177.5150  143.5360 C   0  0  0  0  0  2  0  0  0  0  0  0
  190.8390  177.0920  144.9650 C   0  0  0  0  0  0  0  0  0  0  0  0
  190.0080  177.1920  147.2420 C   0  0  0  0  0  3  0  0  0  0  0  0
  189.9100  177.5660  145.8980 C   0  0  0  0  0  3  0  0  0  0  0  0
  191.9880  175.8930  146.7350 C   0  0  0  0  0  3  0  0  0  0  0  0
  191.8910  176.2680  145.3930 C   0  0  0  0  0  3  0  0  0  0  0  0
  191.0440  176.3530  147.6590 C   0  0  0  0  0  3  0  0  0  0  0  0
  184.9190  177.9690  143.1470 C   0  0  0  0  0  2  0  0  0  0  0  0
  184.6730  179.0850  145.5090 N   0  0  0  0  0  0  0  0  0  0  0  0
  184.7830  178.5900  144.4690 C   0  0  0  0  0  0  0  0  0  0  0  0
  1  3  1  0  0  0  0
  2  4  1  0  0  0  0
  2 17  1  1  0  0  0
  3 25  1  6  0  0  0
  3  4  1  0  0  0  0
  5  1  1  0  0  0  0
  5  2  1  0  0  0  0
  6  5  1  0  0  0  0
  7  6  1  0  0  0  0
  8  6  2  0  0  0  0
  9 10  1  0  0  0  0
  9  7  2  0  0  0  0
 10  8  1  0  0  0  0
 11 10  1  0  0  0  0
 11 12  1  0  0  0  0
 13 12  1  0  0  0  0
 14 13  1  0  0  0  0
 14 16  1  0  0  0  0
 15 16  1  0  0  0  0
 17 18  1  0  0  0  0
 18 19  1  0  0  0  0
 19 23  2  0  0  0  0
 19 21  1  0  0  0  0
 20 24  1  0  0  0  0
 21 20  2  0  0  0  0
 22 24  2  0  0  0  0
 23 22  1  0  0  0  0
 25 27  1  0  0  0  0
 27 26  3  0  0  0  0
M  END
>  <MODEL>
6

>  <REMARK>
 VINA RESULT:      -6.7      2.958      6.289
  Name = 
  11 active torsions:
  status: ('A' for Active; 'I' for Inactive)
    1  A    between atoms: C_1  and  C_5
    2  A    between atoms: C_1  and  N_18
    3  A    between atoms: C_2  and  N_23
    4  A    between atoms: C_3  and  N_7
    5  A    between atoms: C_3  and  C_17
    6  A    between atoms: N_7  and  N_11
    7  A    between atoms: C_10  and  N_18
    8  A    between atoms: N_11  and  N_21
    9  A    between atoms: N_13  and  C_17
   10  A    between atoms: C_14  and  C_19
   11  A    between atoms: C_19  and  C_26
                            x       y       z     vdW  Elec       q    Type
                         _______ _______ _______ _____ _____    ______ ____

>  <TORSDO>
F 11

$$$$
=
 OpenBabel10232411323D

 27 29  0  0  1  0  0  0  0  0999 V2000
  187.0570  179.1870  141.4450 S   0  0  0  0  0  0  0  0  0  0  0  0
  188.4090  177.2240  142.7010 C   0  0  1  0  0  3  0  0  0  0  0  0
  186.2200  178.1180  142.6030 C   0  0  2  0  0  3  0  0  0  0  0  0
  186.9910  177.1850  143.1620 C   0  0  0  0  0  2  0  0  0  0  0  0
  188.3950  178.0350  141.4910 N   0  0  0  0  0  0  0  0  0  0  0  0
  189.0630  177.6180  140.2950 C   0  0  0  0  0  0  0  0  0  0  0  0
  188.7700  178.0660  139.0170 C   0  0  0  0  0  3  0  0  0  0  0  0
  190.1100  176.7250  140.2310 C   0  0  0  0  0  3  0  0  0  0  0  0
  189.6750  177.4150  138.1960 C   0  0  0  0  0  3  0  0  0  0  0  0
  190.4700  176.6260  138.9430 N   0  0  0  0  0  0  0  0  0  0  0  0
  191.5180  175.7580  138.4340 C   0  0  0  0  0  2  0  0  0  0  0  0
  192.6940  176.5870  137.9570 C   0  0  0  0  0  2  0  0  0  0  0  0
  193.8610  176.2700  138.7560 N   0  0  0  0  0  2  0  0  0  0  0  0
  194.5380  175.2380  138.0930 N   0  0  0  0  0  2  0  0  0  0  0  0
  195.7440  173.7120  139.2190 N   0  0  0  0  0  1  0  0  0  0  0  0
  195.7430  175.0410  138.7780 N   0  0  0  0  0  2  0  0  0  0  0  0
  189.2300  177.8720  143.7150 N   0  0  0  0  0  2  0  0  0  0  0  0
  189.5160  176.8960  144.7570 C   0  0  0  0  0  2  0  0  0  0  0  0
  189.0040  177.3560  146.0850 C   0  0  0  0  0  0  0  0  0  0  0  0
  189.4220  177.8480  148.4220 C   0  0  0  0  0  3  0  0  0  0  0  0
  189.8840  177.4330  147.1700 C   0  0  0  0  0  3  0  0  0  0  0  0
  187.1860  178.0810  147.5200 C   0  0  0  0  0  3  0  0  0  0  0  0
  187.6480  177.6640  146.2690 C   0  0  0  0  0  3  0  0  0  0  0  0
  188.0740  178.1760  148.5960 C   0  0  0  0  0  3  0  0  0  0  0  0
  184.7480  178.1940  142.8370 C   0  0  0  0  0  2  0  0  0  0  0  0
  183.4480  178.1760  140.5580 N   0  0  0  0  0  0  0  0  0  0  0  0
  184.0210  178.1810  141.5630 C   0  0  0  0  0  0  0  0  0  0  0  0
  1  5  1  0  0  0  0
  1  3  1  0  0  0  0
  2  4  1  0  0  0  0
  2 17  1  1  0  0  0
  3 25  1  6  0  0  0
  3  4  1  0  0  0  0
  5  2  1  0  0  0  0
  6  5  1  0  0  0  0
  7  6  1  0  0  0  0
  8  6  2  0  0  0  0
  9 10  1  0  0  0  0
  9  7  2  0  0  0  0
 10  8  1  0  0  0  0
 11 10  1  0  0  0  0
 12 11  1  0  0  0  0
 12 13  1  0  0  0  0
 14 13  1  0  0  0  0
 14 16  1  0  0  0  0
 16 15  1  0  0  0  0
 17 18  1  0  0  0  0
 18 19  1  0  0  0  0
 19 23  2  0  0  0  0
 19 21  1  0  0  0  0
 20 24  1  0  0  0  0
 21 20  2  0  0  0  0
 22 24  2  0  0  0  0
 23 22  1  0  0  0  0
 26 27  3  0  0  0  0
 27 25  1  0  0  0  0
M  END
>  <MODEL>
7

>  <REMARK>
 VINA RESULT:      -6.6      3.199      6.157
  Name = 
  11 active torsions:
  status: ('A' for Active; 'I' for Inactive)
    1  A    between atoms: C_1  and  C_5
    2  A    between atoms: C_1  and  N_18
    3  A    between atoms: C_2  and  N_23
    4  A    between atoms: C_3  and  N_7
    5  A    between atoms: C_3  and  C_17
    6  A    between atoms: N_7  and  N_11
    7  A    between atoms: C_10  and  N_18
    8  A    between atoms: N_11  and  N_21
    9  A    between atoms: N_13  and  C_17
   10  A    between atoms: C_14  and  C_19
   11  A    between atoms: C_19  and  C_26
                            x       y       z     vdW  Elec       q    Type
                         _______ _______ _______ _____ _____    ______ ____

>  <TORSDO>
F 11

$$$$
=
 OpenBabel10232411323D

 27 29  0  0  1  0  0  0  0  0999 V2000
  190.2730  178.3980  143.9330 S   0  0  0  0  0  0  0  0  0  0  0  0
  189.9500  176.6090  141.9440 C   0  0  1  0  0  3  0  0  0  0  0  0
  190.9350  176.7480  144.0910 C   0  0  2  0  0  3  0  0  0  0  0  0
  190.7140  175.9520  143.0440 C   0  0  0  0  0  2  0  0  0  0  0  0
  189.3610  177.7980  142.5440 N   0  0  0  0  0  0  0  0  0  0  0  0
  187.9810  178.1340  142.3550 C   0  0  0  0  0  0  0  0  0  0  0  0
  187.4360  178.6500  141.1910 C   0  0  0  0  0  3  0  0  0  0  0  0
  186.9830  177.9810  143.2920 C   0  0  0  0  0  3  0  0  0  0  0  0
  186.0860  178.7940  141.4640 C   0  0  0  0  0  3  0  0  0  0  0  0
  185.8370  178.3800  142.7210 N   0  0  0  0  0  0  0  0  0  0  0  0
  184.5440  178.4130  143.3810 C   0  0  0  0  0  2  0  0  0  0  0  0
  184.5770  179.3900  144.5400 C   0  0  0  0  0  2  0  0  0  0  0  0
  183.6710  178.9360  145.5770 N   0  0  0  0  0  2  0  0  0  0  0  0
  184.4630  178.4250  146.6130 N   0  0  0  0  0  2  0  0  0  0  0  0
  186.5250  178.5610  147.4950 N   0  0  0  0  0  1  0  0  0  0  0  0
  185.6020  179.2360  146.6870 N   0  0  0  0  0  2  0  0  0  0  0  0
  190.8690  177.0000  140.8840 N   0  0  0  0  0  2  0  0  0  0  0  0
  190.1490  176.9480  139.6190 C   0  0  0  0  0  2  0  0  0  0  0  0
  191.0480  176.5190  138.5030 C   0  0  0  0  0  0  0  0  0  0  0  0
  193.2910  176.1640  137.6520 C   0  0  0  0  0  3  0  0  0  0  0  0
  192.4340  176.5480  138.6880 C   0  0  0  0  0  3  0  0  0  0  0  0
  191.3790  175.7510  136.2250 C   0  0  0  0  0  3  0  0  0  0  0  0
  190.5230  176.1370  137.2590 C   0  0  0  0  0  3  0  0  0  0  0  0
  192.7630  175.7620  136.4230 C   0  0  0  0  0  3  0  0  0  0  0  0
  191.5850  176.2670  145.3450 C   0  0  0  0  0  2  0  0  0  0  0  0
  190.3220  177.1830  147.4550 N   0  0  0  0  0  0  0  0  0  0  0  0
  190.8790  176.7820  146.5230 C   0  0  0  0  0  0  0  0  0  0  0  0
  1  3  1  0  0  0  0
  2 17  1  6  0  0  0
  2  5  1  0  0  0  0
  2  4  1  0  0  0  0
  3 25  1  1  0  0  0
  4  3  1  0  0  0  0
  5  1  1  0  0  0  0
  6  5  1  0  0  0  0
  6  8  2  0  0  0  0
  7  9  2  0  0  0  0
  7  6  1  0  0  0  0
  9 10  1  0  0  0  0
 10  8  1  0  0  0  0
 10 11  1  0  0  0  0
 11 12  1  0  0  0  0
 12 13  1  0  0  0  0
 13 14  1  0  0  0  0
 14 16  1  0  0  0  0
 16 15  1  0  0  0  0
 18 17  1  0  0  0  0
 19 21  1  0  0  0  0
 19 18  1  0  0  0  0
 20 21  2  0  0  0  0
 22 24  2  0  0  0  0
 22 23  1  0  0  0  0
 23 19  2  0  0  0  0
 24 20  1  0  0  0  0
 25 27  1  0  0  0  0
 27 26  3  0  0  0  0
M  END
>  <MODEL>
8

>  <REMARK>
 VINA RESULT:      -6.6      2.516      6.778
  Name = 
  11 active torsions:
  status: ('A' for Active; 'I' for Inactive)
    1  A    between atoms: C_1  and  C_5
    2  A    between atoms: C_1  and  N_18
    3  A    between atoms: C_2  and  N_23
    4  A    between atoms: C_3  and  N_7
    5  A    between atoms: C_3  and  C_17
    6  A    between atoms: N_7  and  N_11
    7  A    between atoms: C_10  and  N_18
    8  A    between atoms: N_11  and  N_21
    9  A    between atoms: N_13  and  C_17
   10  A    between atoms: C_14  and  C_19
   11  A    between atoms: C_19  and  C_26
                            x       y       z     vdW  Elec       q    Type
                         _______ _______ _______ _____ _____    ______ ____

>  <TORSDO>
F 11

$$$$
=
 OpenBabel10232411323D

 27 29  0  0  1  0  0  0  0  0999 V2000
  185.2220  179.1650  140.3180 S   0  0  0  0  0  0  0  0  0  0  0  0
  185.6870  178.1950  142.7880 C   0  0  1  0  0  3  0  0  0  0  0  0
  183.9850  178.1790  141.1450 C   0  0  2  0  0  3  0  0  0  0  0  0
  184.3270  177.7560  142.3620 C   0  0  0  0  0  2  0  0  0  0  0  0
  186.3500  178.6270  141.5650 N   0  0  0  0  0  0  0  0  0  0  0  0
  187.6790  178.2050  141.2370 C   0  0  0  0  0  0  0  0  0  0  0  0
  188.1490  177.9610  139.9570 C   0  0  0  0  0  3  0  0  0  0  0  0
  188.6990  177.9960  142.1390 C   0  0  0  0  0  3  0  0  0  0  0  0
  189.4760  177.6040  140.1260 C   0  0  0  0  0  3  0  0  0  0  0  0
  189.7850  177.6400  141.4370 N   0  0  0  0  0  0  0  0  0  0  0  0
  191.0740  177.2940  142.0100 C   0  0  0  0  0  2  0  0  0  0  0  0
  190.8770  176.4710  143.2690 C   0  0  0  0  0  2  0  0  0  0  0  0
  191.5000  177.1490  144.3890 N   0  0  0  0  0  2  0  0  0  0  0  0
  191.6570  176.1970  145.4040 N   0  0  0  0  0  2  0  0  0  0  0  0
  192.3480  175.9470  147.5270 N   0  0  0  0  0  1  0  0  0  0  0  0
  191.9810  176.9010  146.5700 N   0  0  0  0  0  2  0  0  0  0  0  0
  185.5670  179.3220  143.7030 N   0  0  0  0  0  2  0  0  0  0  0  0
  185.0640  178.8200  144.9750 C   0  0  0  0  0  2  0  0  0  0  0  0
  186.1850  178.3940  145.8680 C   0  0  0  0  0  0  0  0  0  0  0  0
  187.2400  178.4320  148.0520 C   0  0  0  0  0  3  0  0  0  0  0  0
  186.1930  178.8090  147.2040 C   0  0  0  0  0  3  0  0  0  0  0  0
  188.2960  177.2490  146.2220 C   0  0  0  0  0  3  0  0  0  0  0  0
  187.2510  177.6280  145.3740 C   0  0  0  0  0  3  0  0  0  0  0  0
  188.2880  177.6490  147.5620 C   0  0  0  0  0  3  0  0  0  0  0  0
  182.7150  177.7690  140.4760 C   0  0  0  0  0  2  0  0  0  0  0  0
  180.6700  179.0570  141.4980 N   0  0  0  0  0  0  0  0  0  0  0  0
  181.5740  178.4920  141.0480 C   0  0  0  0  0  0  0  0  0  0  0  0
  1  3  1  0  0  0  0
  1  5  1  0  0  0  0
  2 17  1  1  0  0  0
  3 25  1  6  0  0  0
  3  4  1  0  0  0  0
  4  2  1  0  0  0  0
  5  2  1  0  0  0  0
  6  5  1  0  0  0  0
  6  8  2  0  0  0  0
  7  9  2  0  0  0  0
  7  6  1  0  0  0  0
  9 10  1  0  0  0  0
 10 11  1  0  0  0  0
 10  8  1  0  0  0  0
 11 12  1  0  0  0  0
 12 13  1  0  0  0  0
 13 14  1  0  0  0  0
 14 16  1  0  0  0  0
 16 15  1  0  0  0  0
 17 18  1  0  0  0  0
 18 19  1  0  0  0  0
 19 21  1  0  0  0  0
 21 20  2  0  0  0  0
 22 24  2  0  0  0  0
 23 19  2  0  0  0  0
 23 22  1  0  0  0  0
 24 20  1  0  0  0  0
 25 27  1  0  0  0  0
 27 26  3  0  0  0  0
M  END
>  <MODEL>
9

>  <REMARK>
 VINA RESULT:      -6.5      2.515      6.727
  Name = 
  11 active torsions:
  status: ('A' for Active; 'I' for Inactive)
    1  A    between atoms: C_1  and  C_5
    2  A    between atoms: C_1  and  N_18
    3  A    between atoms: C_2  and  N_23
    4  A    between atoms: C_3  and  N_7
    5  A    between atoms: C_3  and  C_17
    6  A    between atoms: N_7  and  N_11
    7  A    between atoms: C_10  and  N_18
    8  A    between atoms: N_11  and  N_21
    9  A    between atoms: N_13  and  C_17
   10  A    between atoms: C_14  and  C_19
   11  A    between atoms: C_19  and  C_26
                            x       y       z     vdW  Elec       q    Type
                         _______ _______ _______ _____ _____    ______ ____

>  <TORSDO>
F 11

$$$$
