=
 OpenBabel10232412183D

 56 63  0  0  1  0  0  0  0  0999 V2000
  187.3650  174.7950  136.0080 C   0  0  0  0  0  2  0  0  0  0  0  0
  189.6600  177.3860  136.5750 C   0  0  0  0  0  2  0  0  0  0  0  0
  191.1350  177.4310  140.6930 C   0  0  0  0  0  3  0  0  0  0  0  0
  188.8050  177.5640  137.7950 C   0  0  0  0  0  0  0  0  0  0  0  0
  190.6850  177.4500  139.4430 C   0  0  0  0  0  0  0  0  0  0  0  0
  186.9500  178.5190  141.8580 N   0  0  0  0  0  0  0  0  0  0  0  0
  189.6850  175.9640  136.0350 C   0  0  2  0  0  3  0  0  0  0  0  0
  188.4120  175.6190  135.2540 C   0  0  0  0  0  2  0  0  0  0  0  0
  187.3430  177.9600  137.7230 C   0  0  1  0  0  3  0  0  0  0  0  0
  190.4600  177.5020  142.0060 C   0  0  0  0  0  0  0  0  0  0  0  0
  186.9300  175.4000  137.3400 C   0  0  0  0  0  2  0  0  0  0  0  0
  189.2070  177.7760  142.1980 N   0  0  0  0  0  0  0  0  0  0  0  0
  186.3990  176.8380  137.2600 C   0  0  2  0  0  3  0  0  0  0  0  0
  191.6340  177.3580  138.4760 F   0  0  0  0  0  0  0  0  0  0  0  0
  185.8870  178.6800  139.7210 C   0  0  0  0  0  3  0  0  0  0  0  0
  187.0790  178.2410  139.1570 C   0  0  0  0  0  0  0  0  0  0  0  0
  188.1910  177.9760  139.9270 C   0  0  0  0  0  0  0  0  0  0  0  0
  188.1290  178.1020  141.3120 C   0  0  0  0  0  0  0  0  0  0  0  0
  189.2750  177.5890  139.0560 C   0  0  0  0  0  0  0  0  0  0  0  0
  185.8500  178.8180  141.1100 C   0  0  0  0  0  3  0  0  0  0  0  0
  190.7260  176.8580  144.2980 C   0  0  0  0  0  3  0  0  0  0  0  0
  191.2520  177.2330  143.1690 N   0  0  0  0  0  0  0  0  0  0  0  0
  191.5950  176.6640  145.4980 C   0  0  0  0  0  2  0  0  0  0  0  0
  190.7570  176.4550  146.6670 N   0  0  0  0  0  0  0  0  0  0  0  0
  191.5930  176.1020  147.6860 O   0  0  0  0  0  1  0  0  0  0  0  0
  188.9610  177.5210  147.9160 C   0  0  0  0  0  2  0  0  0  0  0  0
  188.7560  177.8070  146.4430 C   0  0  0  0  0  2  0  0  0  0  0  0
  190.1650  177.7370  147.0100 C   0  0  0  0  0  3  0  0  0  0  0  0
  185.5800  177.1810  136.0550 C   0  0  0  0  0  3  0  0  0  0  0  0
  184.2840  176.9260  136.0380 C   0  0  0  0  0  3  0  0  0  0  0  0
  183.4620  177.2770  134.8480 C   0  0  0  0  0  2  0  0  0  0  0  0
  182.2090  176.4240  134.8210 C   0  0  0  0  0  2  0  0  0  0  0  0
  181.0930  177.0760  135.6210 C   0  0  0  0  0  2  0  0  0  0  0  0
  181.4960  176.6130  138.1580 C   0  0  1  0  0  3  0  0  0  0  0  0
  181.6260  177.6210  136.9520 C   0  0  2  0  0  3  0  0  0  0  0  0
  181.3820  179.9430  136.3340 O   0  0  0  0  0  1  0  0  0  0  0  0
  181.6190  179.4420  138.6620 C   0  0  2  0  0  0  0  0  0  0  0  0
  181.7150  177.2390  139.4190 O   0  0  0  0  0  0  0  0  0  0  0  0
  183.0110  179.2880  138.6810 O   0  0  0  0  0  1  0  0  0  0  0  0
  181.1600  179.6010  140.1170 C   0  0  2  0  0  3  0  0  0  0  0  0
  180.8440  178.3390  139.4260 C   0  0  1  0  0  3  0  0  0  0  0  0
  181.0340  179.0150  137.3140 C   0  0  2  0  0  3  0  0  0  0  0  0
  179.9850  180.4550  140.1500 N   0  0  0  0  0  2  0  0  0  0  0  0
  180.3570  181.6580  139.6440 O   0  0  0  0  0  1  0  0  0  0  0  0
  180.2080  175.7770  138.1640 C   0  0  0  0  0  2  0  0  0  0  0  0
  180.5260  174.4560  138.4860 O   0  0  0  0  0  1  0  0  0  0  0  0
  190.1000  174.9090  137.0590 C   0  0  0  0  0  2  0  0  0  0  0  0
  190.9210  173.8130  136.3960 C   0  0  0  0  0  2  0  0  0  0  0  0
  193.1970  175.3910  134.8790 S   0  0  0  0  0  0  0  0  0  0  0  0
  194.6440  174.3960  136.9220 N   0  0  0  0  0  0  0  0  0  0  0  0
  193.3360  174.4240  136.3700 C   0  0  0  0  0  0  0  0  0  0  0  0
  195.5650  175.2960  136.2430 C   0  0  0  0  0  2  0  0  0  0  0  0
  192.2990  173.8280  136.9650 C   0  0  0  0  0  3  0  0  0  0  0  0
  194.7400  176.2480  135.3730 C   0  0  0  0  0  2  0  0  0  0  0  0
  196.1690  172.9030  138.1070 C   0  0  0  0  0  1  0  0  0  0  0  0
  194.9490  173.8000  138.2130 C   0  0  0  0  0  2  0  0  0  0  0  0
  1 11  1  0  0  0  0
  2  4  1  0  0  0  0
  3 10  1  0  0  0  0
  4 19  2  0  0  0  0
  5  3  2  0  0  0  0
  7  2  1  0  0  0  0
  7 47  1  1  0  0  0
  8  1  1  0  0  0  0
  8  7  1  0  0  0  0
  9  4  1  1  0  0  0
  9 16  1  0  0  0  0
 10 12  2  0  0  0  0
 10 22  1  0  0  0  0
 13 29  1  6  0  0  0
 13 11  1  0  0  0  0
 13  9  1  0  0  0  0
 14  5  1  0  0  0  0
 15 20  2  0  0  0  0
 16 15  1  0  0  0  0
 16 17  2  0  0  0  0
 17 18  1  0  0  0  0
 18  6  2  0  0  0  0
 18 12  1  0  0  0  0
 19  5  1  0  0  0  0
 19 17  1  0  0  0  0
 20  6  1  0  0  0  0
 21 23  1  0  0  0  0
 22 21  2  0  0  0  0
 23 24  1  0  0  0  0
 24 28  1  0  0  0  0
 24 25  1  0  0  0  0
 27 28  1  0  0  0  0
 27 26  1  0  0  0  0
 28 26  1  0  0  0  0
 30 29  2  0  0  0  0
 31 30  1  0  0  0  0
 32 31  1  0  0  0  0
 32 33  1  0  0  0  0
 34 45  1  1  0  0  0
 34 38  1  0  0  0  0
 35 33  1  6  0  0  0
 35 42  1  0  0  0  0
 35 34  1  0  0  0  0
 37 39  1  1  0  0  0
 37 41  1  0  0  0  0
 37 40  1  0  0  0  0
 40 43  1  6  0  0  0
 41 38  1  1  0  0  0
 41 40  1  0  0  0  0
 42 36  1  6  0  0  0
 42 37  1  0  0  0  0
 44 43  1  0  0  0  0
 45 46  1  0  0  0  0
 48 53  1  0  0  0  0
 48 47  1  0  0  0  0
 49 54  1  0  0  0  0
 49 51  1  0  0  0  0
 50 56  1  0  0  0  0
 51 50  1  0  0  0  0
 51 53  2  0  0  0  0
 52 50  1  0  0  0  0
 54 52  1  0  0  0  0
 55 56  1  0  0  0  0
M  END
>  <MODEL>
1

>  <REMARK>
 VINA RESULT:      -7.3      0.000      0.000
  Name = 
  15 active torsions:
  status: ('A' for Active; 'I' for Inactive)
    1  A    between atoms: C_2  and  C_35
    2  A    between atoms: C_4  and  C_14
    3  A    between atoms: C_6  and  C_9
    4  A    between atoms: C_9  and  C_33
    5  A    between atoms: C_10  and  C_16
    6  A    between atoms: C_10  and  C_25
    7  A    between atoms: N_11  and  C_49
    8  A    between atoms: C_12  and  C_40
    9  A    between atoms: C_16  and  C_47
   10  A    between atoms: N_19  and  C_42
   11  A    between atoms: N_23  and  C_29
   12  A    between atoms: N_24  and  C_35
   13  A    between atoms: N_24  and  C_53
   14  A    between atoms: C_32  and  C_33
   15  A    between atoms: C_32  and  C_56
                            x       y       z     vdW  Elec       q    Type
                         _______ _______ _______ _____ _____    ______ ____

>  <TORSDO>
F 15

$$$$
=
 OpenBabel10232412183D

 56 63  0  0  1  0  0  0  0  0999 V2000
  190.8010  174.8860  137.6580 C   0  0  0  0  0  2  0  0  0  0  0  0
  188.8500  177.2930  136.0150 C   0  0  0  0  0  2  0  0  0  0  0  0
  184.7280  177.3730  137.4760 C   0  0  0  0  0  3  0  0  0  0  0  0
  187.8920  176.1400  135.9560 C   0  0  0  0  0  0  0  0  0  0  0  0
  185.9680  177.3520  137.0020 C   0  0  0  0  0  0  0  0  0  0  0  0
  184.3350  173.2880  135.6840 N   0  0  0  0  0  0  0  0  0  0  0  0
  189.8120  177.2430  137.1930 C   0  0  2  0  0  3  0  0  0  0  0  0
  190.9520  176.2430  136.9660 C   0  0  0  0  0  2  0  0  0  0  0  0
  188.1850  174.8670  135.1850 C   0  0  1  0  0  3  0  0  0  0  0  0
  183.6760  176.3400  137.5890 C   0  0  0  0  0  0  0  0  0  0  0  0
  189.4940  174.1620  137.3430 C   0  0  0  0  0  2  0  0  0  0  0  0
  183.7180  175.1570  137.0580 N   0  0  0  0  0  0  0  0  0  0  0  0
  189.2150  173.9400  135.8500 C   0  0  2  0  0  3  0  0  0  0  0  0
  186.6440  178.5270  137.0750 F   0  0  0  0  0  0  0  0  0  0  0  0
  186.4850  173.0000  134.6760 C   0  0  0  0  0  3  0  0  0  0  0  0
  186.8520  174.2160  135.2450 C   0  0  0  0  0  0  0  0  0  0  0  0
  185.9660  174.9630  135.9900 C   0  0  0  0  0  0  0  0  0  0  0  0
  184.6810  174.4890  136.2330 C   0  0  0  0  0  0  0  0  0  0  0  0
  186.6220  176.1830  136.3970 C   0  0  0  0  0  0  0  0  0  0  0  0
  185.1860  172.5500  134.9150 C   0  0  0  0  0  3  0  0  0  0  0  0
  182.5920  177.1620  139.5600 C   0  0  0  0  0  3  0  0  0  0  0  0
  182.5150  176.6640  138.3610 N   0  0  0  0  0  0  0  0  0  0  0  0
  181.3450  177.4100  140.3470 C   0  0  0  0  0  2  0  0  0  0  0  0
  181.5560  178.5430  141.2330 N   0  0  0  0  0  0  0  0  0  0  0  0
  181.9310  179.5890  140.4430 O   0  0  0  0  0  1  0  0  0  0  0  0
  180.4700  179.8390  142.9840 C   0  0  0  0  0  2  0  0  0  0  0  0
  180.2250  178.3690  143.2540 C   0  0  0  0  0  2  0  0  0  0  0  0
  180.2700  178.8760  141.8220 C   0  0  0  0  0  3  0  0  0  0  0  0
  190.3970  173.6160  134.9920 C   0  0  0  0  0  3  0  0  0  0  0  0
  191.0930  172.5140  135.2060 C   0  0  0  0  0  3  0  0  0  0  0  0
  192.2600  172.1810  134.3460 C   0  0  0  0  0  2  0  0  0  0  0  0
  193.3280  173.2470  134.4970 C   0  0  0  0  0  2  0  0  0  0  0  0
  193.9590  173.1900  135.8780 C   0  0  0  0  0  2  0  0  0  0  0  0
  196.4960  172.6230  135.6380 C   0  0  1  0  0  3  0  0  0  0  0  0
  195.3930  173.7320  135.8440 C   0  0  2  0  0  3  0  0  0  0  0  0
  194.8800  175.7480  137.0700 O   0  0  0  0  0  1  0  0  0  0  0  0
  197.1790  175.1010  136.9300 C   0  0  2  0  0  0  0  0  0  0  0  0
  197.8100  173.1030  135.9060 O   0  0  0  0  0  0  0  0  0  0  0  0
  197.4360  175.5960  135.6450 O   0  0  0  0  0  1  0  0  0  0  0  0
  198.5360  174.8340  137.5940 C   0  0  2  0  0  3  0  0  0  0  0  0
  197.7270  173.6730  137.1850 C   0  0  1  0  0  3  0  0  0  0  0  0
  195.7260  174.6410  137.0650 C   0  0  2  0  0  3  0  0  0  0  0  0
  198.4090  175.0470  139.0260 N   0  0  0  0  0  2  0  0  0  0  0  0
  199.6440  175.3690  139.4890 O   0  0  0  0  0  1  0  0  0  0  0  0
  196.2230  171.3000  136.3690 C   0  0  0  0  0  2  0  0  0  0  0  0
  196.7340  170.2470  135.6070 O   0  0  0  0  0  1  0  0  0  0  0  0
  189.1330  177.1240  138.5560 C   0  0  0  0  0  2  0  0  0  0  0  0
  190.0870  177.5390  139.6660 C   0  0  0  0  0  2  0  0  0  0  0  0
  191.6910  177.4150  142.3830 S   0  0  0  0  0  0  0  0  0  0  0  0
  189.1830  177.4970  143.3620 N   0  0  0  0  0  0  0  0  0  0  0  0
  189.9250  177.4840  142.1510 C   0  0  0  0  0  0  0  0  0  0  0  0
  190.0260  177.6150  144.5430 C   0  0  0  0  0  2  0  0  0  0  0  0
  189.3380  177.5810  140.9560 C   0  0  0  0  0  3  0  0  0  0  0  0
  191.4230  178.0410  144.0840 C   0  0  0  0  0  2  0  0  0  0  0  0
  187.2130  177.4120  144.8010 C   0  0  0  0  0  1  0  0  0  0  0  0
  187.7440  177.7060  143.4100 C   0  0  0  0  0  2  0  0  0  0  0  0
  2  7  1  0  0  0  0
  3 10  1  0  0  0  0
  4  2  1  0  0  0  0
  4 19  2  0  0  0  0
  5 14  1  0  0  0  0
  5  3  2  0  0  0  0
  6 18  2  0  0  0  0
  7 47  1  1  0  0  0
  8  7  1  0  0  0  0
  8  1  1  0  0  0  0
  9 16  1  1  0  0  0
  9 13  1  0  0  0  0
  9  4  1  0  0  0  0
 10 22  1  0  0  0  0
 11  1  1  0  0  0  0
 12 10  2  0  0  0  0
 13 29  1  6  0  0  0
 13 11  1  0  0  0  0
 15 20  2  0  0  0  0
 15 16  1  0  0  0  0
 16 17  2  0  0  0  0
 17 18  1  0  0  0  0
 17 19  1  0  0  0  0
 18 12  1  0  0  0  0
 19  5  1  0  0  0  0
 20  6  1  0  0  0  0
 21 23  1  0  0  0  0
 22 21  2  0  0  0  0
 23 24  1  0  0  0  0
 24 28  1  0  0  0  0
 25 24  1  0  0  0  0
 26 27  1  0  0  0  0
 28 26  1  0  0  0  0
 28 27  1  0  0  0  0
 29 30  2  0  0  0  0
 31 32  1  0  0  0  0
 31 30  1  0  0  0  0
 32 33  1  0  0  0  0
 34 35  1  0  0  0  0
 34 38  1  0  0  0  0
 34 45  1  1  0  0  0
 35 33  1  1  0  0  0
 35 42  1  0  0  0  0
 37 39  1  6  0  0  0
 37 42  1  0  0  0  0
 37 41  1  0  0  0  0
 37 40  1  0  0  0  0
 40 43  1  1  0  0  0
 41 38  1  6  0  0  0
 41 40  1  0  0  0  0
 42 36  1  6  0  0  0
 43 44  1  0  0  0  0
 46 45  1  0  0  0  0
 47 48  1  0  0  0  0
 48 53  1  0  0  0  0
 49 54  1  0  0  0  0
 50 56  1  0  0  0  0
 50 52  1  0  0  0  0
 51 49  1  0  0  0  0
 51 50  1  0  0  0  0
 53 51  2  0  0  0  0
 54 52  1  0  0  0  0
 56 55  1  0  0  0  0
M  END
>  <MODEL>
2

>  <REMARK>
 VINA RESULT:      -6.9      4.699     10.733
  Name = 
  15 active torsions:
  status: ('A' for Active; 'I' for Inactive)
    1  A    between atoms: C_2  and  C_35
    2  A    between atoms: C_4  and  C_14
    3  A    between atoms: C_6  and  C_9
    4  A    between atoms: C_9  and  C_33
    5  A    between atoms: C_10  and  C_16
    6  A    between atoms: C_10  and  C_25
    7  A    between atoms: N_11  and  C_49
    8  A    between atoms: C_12  and  C_40
    9  A    between atoms: C_16  and  C_47
   10  A    between atoms: N_19  and  C_42
   11  A    between atoms: N_23  and  C_29
   12  A    between atoms: N_24  and  C_35
   13  A    between atoms: N_24  and  C_53
   14  A    between atoms: C_32  and  C_33
   15  A    between atoms: C_32  and  C_56
                            x       y       z     vdW  Elec       q    Type
                         _______ _______ _______ _____ _____    ______ ____

>  <TORSDO>
F 15

$$$$
=
 OpenBabel10232412183D

 56 63  0  0  1  0  0  0  0  0999 V2000
  191.1870  175.1960  137.8870 C   0  0  0  0  0  2  0  0  0  0  0  0
  189.2780  177.5530  136.1270 C   0  0  0  0  0  2  0  0  0  0  0  0
  185.0200  177.3080  137.1000 C   0  0  0  0  0  3  0  0  0  0  0  0
  188.4120  176.3470  135.9100 C   0  0  0  0  0  0  0  0  0  0  0  0
  186.3050  177.3870  136.7730 C   0  0  0  0  0  0  0  0  0  0  0  0
  185.1090  173.2970  135.1110 N   0  0  0  0  0  0  0  0  0  0  0  0
  190.1020  177.5070  137.4050 C   0  0  2  0  0  3  0  0  0  0  0  0
  191.3240  176.5920  137.2730 C   0  0  0  0  0  2  0  0  0  0  0  0
  188.8760  175.1340  135.1280 C   0  0  1  0  0  3  0  0  0  0  0  0
  184.0350  176.2080  137.0480 C   0  0  0  0  0  0  0  0  0  0  0  0
  189.9750  174.4090  137.3930 C   0  0  0  0  0  2  0  0  0  0  0  0
  184.2160  175.0570  136.4780 N   0  0  0  0  0  0  0  0  0  0  0  0
  189.8840  174.2410  135.8700 C   0  0  2  0  0  3  0  0  0  0  0  0
  186.8880  178.5970  136.9720 F   0  0  0  0  0  0  0  0  0  0  0  0
  187.3740  173.1920  134.3500 C   0  0  0  0  0  3  0  0  0  0  0  0
  187.5910  174.3990  135.0050 C   0  0  0  0  0  0  0  0  0  0  0  0
  186.5780  175.0540  135.6720 C   0  0  0  0  0  0  0  0  0  0  0  0
  185.3090  174.4890  135.7440 C   0  0  0  0  0  0  0  0  0  0  0  0
  187.1000  176.2910  136.2020 C   0  0  0  0  0  0  0  0  0  0  0  0
  186.0890  172.6510  134.4170 C   0  0  0  0  0  3  0  0  0  0  0  0
  182.1200  177.5420  137.5880 C   0  0  0  0  0  3  0  0  0  0  0  0
  182.7740  176.4220  137.6920 N   0  0  0  0  0  0  0  0  0  0  0  0
  180.8450  177.7330  138.3440 C   0  0  0  0  0  2  0  0  0  0  0  0
  180.9630  178.9090  139.1910 N   0  0  0  0  0  0  0  0  0  0  0  0
  181.8370  178.5830  140.1870 O   0  0  0  0  0  1  0  0  0  0  0  0
  180.9750  181.3050  138.7620 C   0  0  0  0  0  2  0  0  0  0  0  0
  180.5240  180.5950  137.5030 C   0  0  0  0  0  2  0  0  0  0  0  0
  181.5780  179.9560  138.3940 C   0  0  0  0  0  3  0  0  0  0  0  0
  191.1750  174.0330  135.1430 C   0  0  0  0  0  3  0  0  0  0  0  0
  191.8450  172.9040  135.2880 C   0  0  0  0  0  3  0  0  0  0  0  0
  193.1220  172.6870  134.5560 C   0  0  0  0  0  2  0  0  0  0  0  0
  194.0040  173.9140  134.6900 C   0  0  0  0  0  2  0  0  0  0  0  0
  195.4570  173.5680  134.4090 C   0  0  0  0  0  2  0  0  0  0  0  0
  196.9380  173.9330  136.5280 C   0  0  1  0  0  3  0  0  0  0  0  0
  196.1100  172.9270  135.6390 C   0  0  2  0  0  3  0  0  0  0  0  0
  196.1230  170.6920  134.7230 O   0  0  0  0  0  1  0  0  0  0  0  0
  197.5630  171.1270  136.5830 C   0  0  2  0  0  0  0  0  0  0  0  0
  197.7660  173.2700  137.4780 O   0  0  0  0  0  0  0  0  0  0  0  0
  196.6000  171.0230  137.5950 O   0  0  0  0  0  1  0  0  0  0  0  0
  198.9390  171.0460  137.2560 C   0  0  2  0  0  3  0  0  0  0  0  0
  198.5070  172.3480  136.7220 C   0  0  1  0  0  3  0  0  0  0  0  0
  196.9490  171.6620  135.2880 C   0  0  2  0  0  3  0  0  0  0  0  0
  199.8770  170.4210  136.3380 N   0  0  0  0  0  2  0  0  0  0  0  0
  199.9270  169.1030  136.6610 O   0  0  0  0  0  1  0  0  0  0  0  0
  197.7250  174.9910  135.7410 C   0  0  0  0  0  2  0  0  0  0  0  0
  197.3570  176.2600  136.1930 O   0  0  0  0  0  1  0  0  0  0  0  0
  189.2810  177.2810  138.6740 C   0  0  0  0  0  2  0  0  0  0  0  0
  189.1520  178.5750  139.4640 C   0  0  0  0  0  2  0  0  0  0  0  0
  190.0210  177.1550  142.1470 S   0  0  0  0  0  0  0  0  0  0  0  0
  187.4130  177.5550  142.6910 N   0  0  0  0  0  0  0  0  0  0  0  0
  188.4040  177.7490  141.6920 C   0  0  0  0  0  0  0  0  0  0  0  0
  187.9620  177.0560  143.9440 C   0  0  0  0  0  2  0  0  0  0  0  0
  188.1430  178.3830  140.5460 C   0  0  0  0  0  3  0  0  0  0  0  0
  189.4830  177.2330  143.8970 C   0  0  0  0  0  2  0  0  0  0  0  0
  185.4510  178.2320  143.9750 C   0  0  0  0  0  1  0  0  0  0  0  0
  186.0690  178.1010  142.5950 C   0  0  0  0  0  2  0  0  0  0  0  0
  2  7  1  0  0  0  0
  4  2  1  0  0  0  0
  4 19  2  0  0  0  0
  5 14  1  0  0  0  0
  5  3  2  0  0  0  0
  6 18  2  0  0  0  0
  7 47  1  1  0  0  0
  8  7  1  0  0  0  0
  8  1  1  0  0  0  0
  9 16  1  1  0  0  0
  9 13  1  0  0  0  0
  9  4  1  0  0  0  0
 10  3  1  0  0  0  0
 10 22  1  0  0  0  0
 11  1  1  0  0  0  0
 12 10  2  0  0  0  0
 13 29  1  6  0  0  0
 13 11  1  0  0  0  0
 15 20  2  0  0  0  0
 15 16  1  0  0  0  0
 16 17  2  0  0  0  0
 17 18  1  0  0  0  0
 17 19  1  0  0  0  0
 18 12  1  0  0  0  0
 19  5  1  0  0  0  0
 20  6  1  0  0  0  0
 21 22  2  0  0  0  0
 21 23  1  0  0  0  0
 23 24  1  0  0  0  0
 24 25  1  0  0  0  0
 27 28  1  0  0  0  0
 27 26  1  0  0  0  0
 28 26  1  0  0  0  0
 28 24  1  0  0  0  0
 29 30  2  0  0  0  0
 31 32  1  0  0  0  0
 31 30  1  0  0  0  0
 33 32  1  0  0  0  0
 34 45  1  6  0  0  0
 34 38  1  0  0  0  0
 35 33  1  6  0  0  0
 35 34  1  0  0  0  0
 37 41  1  0  0  0  0
 37 40  1  0  0  0  0
 37 39  1  1  0  0  0
 40 43  1  6  0  0  0
 41 40  1  0  0  0  0
 41 38  1  1  0  0  0
 42 36  1  1  0  0  0
 42 35  1  0  0  0  0
 42 37  1  0  0  0  0
 43 44  1  0  0  0  0
 45 46  1  0  0  0  0
 47 48  1  0  0  0  0
 48 53  1  0  0  0  0
 49 54  1  0  0  0  0
 50 52  1  0  0  0  0
 51 49  1  0  0  0  0
 51 50  1  0  0  0  0
 53 51  2  0  0  0  0
 54 52  1  0  0  0  0
 56 50  1  0  0  0  0
 56 55  1  0  0  0  0
M  END
>  <MODEL>
3

>  <REMARK>
 VINA RESULT:      -6.8      4.940     11.693
  Name = 
  15 active torsions:
  status: ('A' for Active; 'I' for Inactive)
    1  A    between atoms: C_2  and  C_35
    2  A    between atoms: C_4  and  C_14
    3  A    between atoms: C_6  and  C_9
    4  A    between atoms: C_9  and  C_33
    5  A    between atoms: C_10  and  C_16
    6  A    between atoms: C_10  and  C_25
    7  A    between atoms: N_11  and  C_49
    8  A    between atoms: C_12  and  C_40
    9  A    between atoms: C_16  and  C_47
   10  A    between atoms: N_19  and  C_42
   11  A    between atoms: N_23  and  C_29
   12  A    between atoms: N_24  and  C_35
   13  A    between atoms: N_24  and  C_53
   14  A    between atoms: C_32  and  C_33
   15  A    between atoms: C_32  and  C_56
                            x       y       z     vdW  Elec       q    Type
                         _______ _______ _______ _____ _____    ______ ____

>  <TORSDO>
F 15

$$$$
=
 OpenBabel10232412183D

 56 63  0  0  1  0  0  0  0  0999 V2000
  190.6480  176.5910  138.9660 C   0  0  0  0  0  2  0  0  0  0  0  0
  188.3360  178.5080  137.1550 C   0  0  0  0  0  2  0  0  0  0  0  0
  184.2940  176.8460  137.3340 C   0  0  0  0  0  3  0  0  0  0  0  0
  187.9410  177.1460  136.6640 C   0  0  0  0  0  0  0  0  0  0  0  0
  185.5170  177.3570  137.2480 C   0  0  0  0  0  0  0  0  0  0  0  0
  185.9320  173.4060  134.9820 N   0  0  0  0  0  0  0  0  0  0  0  0
  188.9520  178.5140  138.5460 C   0  0  2  0  0  3  0  0  0  0  0  0
  190.4100  178.0400  138.5350 C   0  0  0  0  0  2  0  0  0  0  0  0
  188.8710  176.2650  135.8530 C   0  0  1  0  0  3  0  0  0  0  0  0
  183.7300  175.5230  136.9950 C   0  0  0  0  0  0  0  0  0  0  0  0
  189.8310  175.5620  138.1870 C   0  0  0  0  0  2  0  0  0  0  0  0
  184.3470  174.5820  136.3480 N   0  0  0  0  0  0  0  0  0  0  0  0
  190.0030  175.6130  136.6630 C   0  0  2  0  0  3  0  0  0  0  0  0
  185.6480  178.6400  137.6720 F   0  0  0  0  0  0  0  0  0  0  0  0
  188.1910  174.1060  134.6230 C   0  0  0  0  0  3  0  0  0  0  0  0
  187.9190  175.2060  135.4300 C   0  0  0  0  0  0  0  0  0  0  0  0
  186.6700  175.4140  135.9740 C   0  0  0  0  0  0  0  0  0  0  0  0
  185.6510  174.4900  135.7620 C   0  0  0  0  0  0  0  0  0  0  0  0
  186.6900  176.6540  136.7140 C   0  0  0  0  0  0  0  0  0  0  0  0
  187.1510  173.2000  134.4070 C   0  0  0  0  0  3  0  0  0  0  0  0
  181.5400  176.1880  137.7000 C   0  0  0  0  0  3  0  0  0  0  0  0
  182.3940  175.2450  137.4260 N   0  0  0  0  0  0  0  0  0  0  0  0
  180.1830  175.8370  138.2180 C   0  0  0  0  0  2  0  0  0  0  0  0
  179.9820  176.4800  139.5070 N   0  0  0  0  0  0  0  0  0  0  0  0
  180.6690  175.7360  140.4220 O   0  0  0  0  0  1  0  0  0  0  0  0
  181.3780  178.0550  140.7300 C   0  0  0  0  0  2  0  0  0  0  0  0
  180.0190  178.6870  140.5130 C   0  0  0  0  0  2  0  0  0  0  0  0
  180.6130  177.7870  139.4410 C   0  0  0  0  0  3  0  0  0  0  0  0
  191.3780  175.9170  136.1550 C   0  0  0  0  0  3  0  0  0  0  0  0
  191.6360  175.8610  134.8610 C   0  0  0  0  0  3  0  0  0  0  0  0
  192.9980  176.1770  134.3510 C   0  0  0  0  0  2  0  0  0  0  0  0
  193.9860  175.1440  134.8560 C   0  0  0  0  0  2  0  0  0  0  0  0
  194.9290  175.7530  135.8810 C   0  0  0  0  0  2  0  0  0  0  0  0
  197.0170  174.6660  137.0080 C   0  0  1  0  0  3  0  0  0  0  0  0
  195.4490  174.6800  136.8460 C   0  0  2  0  0  3  0  0  0  0  0  0
  193.5110  173.2550  136.6310 O   0  0  0  0  0  1  0  0  0  0  0  0
  195.5000  172.2790  137.5320 C   0  0  2  0  0  0  0  0  0  0  0  0
  197.4880  173.4910  137.6620 O   0  0  0  0  0  0  0  0  0  0  0  0
  195.3680  172.7570  138.8420 O   0  0  0  0  0  1  0  0  0  0  0  0
  196.5420  171.1520  137.5630 C   0  0  2  0  0  3  0  0  0  0  0  0
  196.9240  172.4300  136.9380 C   0  0  1  0  0  3  0  0  0  0  0  0
  194.9000  173.2580  136.5220 C   0  0  2  0  0  3  0  0  0  0  0  0
  196.2120  170.1780  136.5370 N   0  0  0  0  0  2  0  0  0  0  0  0
  197.3870  169.7400  136.0160 O   0  0  0  0  0  1  0  0  0  0  0  0
  197.8010  174.9400  135.7170 C   0  0  0  0  0  2  0  0  0  0  0  0
  199.1660  174.7970  135.9750 O   0  0  0  0  0  1  0  0  0  0  0  0
  188.0860  177.8580  139.6200 C   0  0  0  0  0  2  0  0  0  0  0  0
  188.6000  178.2100  141.0090 C   0  0  0  0  0  2  0  0  0  0  0  0
  189.0030  177.4220  144.0400 S   0  0  0  0  0  0  0  0  0  0  0  0
  186.3740  178.0090  144.0890 N   0  0  0  0  0  0  0  0  0  0  0  0
  187.5020  177.9400  143.2290 C   0  0  0  0  0  0  0  0  0  0  0  0
  186.7140  177.7970  145.4880 C   0  0  0  0  0  2  0  0  0  0  0  0
  187.4410  178.3000  141.9450 C   0  0  0  0  0  3  0  0  0  0  0  0
  188.2340  177.9160  145.6280 C   0  0  0  0  0  2  0  0  0  0  0  0
  184.5050  179.4210  144.7740 C   0  0  0  0  0  1  0  0  0  0  0  0
  185.0920  178.5550  143.6750 C   0  0  0  0  0  2  0  0  0  0  0  0
  2  7  1  0  0  0  0
  4 19  2  0  0  0  0
  4  2  1  0  0  0  0
  5  3  2  0  0  0  0
  5 14  1  0  0  0  0
  6 18  2  0  0  0  0
  7 47  1  1  0  0  0
  8  7  1  0  0  0  0
  8  1  1  0  0  0  0
  9 16  1  1  0  0  0
  9 13  1  0  0  0  0
  9  4  1  0  0  0  0
 10  3  1  0  0  0  0
 10 22  1  0  0  0  0
 11  1  1  0  0  0  0
 12 10  2  0  0  0  0
 13 29  1  1  0  0  0
 13 11  1  0  0  0  0
 15 16  1  0  0  0  0
 16 17  2  0  0  0  0
 17 19  1  0  0  0  0
 18 17  1  0  0  0  0
 18 12  1  0  0  0  0
 19  5  1  0  0  0  0
 20 15  2  0  0  0  0
 20  6  1  0  0  0  0
 21 23  1  0  0  0  0
 22 21  2  0  0  0  0
 23 24  1  0  0  0  0
 24 25  1  0  0  0  0
 27 26  1  0  0  0  0
 28 24  1  0  0  0  0
 28 27  1  0  0  0  0
 28 26  1  0  0  0  0
 30 29  2  0  0  0  0
 31 32  1  0  0  0  0
 31 30  1  0  0  0  0
 32 33  1  0  0  0  0
 34 45  1  6  0  0  0
 34 38  1  0  0  0  0
 35 33  1  6  0  0  0
 35 34  1  0  0  0  0
 37 40  1  0  0  0  0
 37 39  1  1  0  0  0
 40 43  1  6  0  0  0
 41 37  1  0  0  0  0
 41 40  1  0  0  0  0
 41 38  1  1  0  0  0
 42 36  1  1  0  0  0
 42 35  1  0  0  0  0
 42 37  1  0  0  0  0
 44 43  1  0  0  0  0
 45 46  1  0  0  0  0
 47 48  1  0  0  0  0
 48 53  1  0  0  0  0
 49 54  1  0  0  0  0
 50 52  1  0  0  0  0
 51 49  1  0  0  0  0
 51 50  1  0  0  0  0
 52 54  1  0  0  0  0
 53 51  2  0  0  0  0
 56 50  1  0  0  0  0
 56 55  1  0  0  0  0
M  END
>  <MODEL>
4

>  <REMARK>
 VINA RESULT:      -6.1      4.717     11.321
  Name = 
  15 active torsions:
  status: ('A' for Active; 'I' for Inactive)
    1  A    between atoms: C_2  and  C_35
    2  A    between atoms: C_4  and  C_14
    3  A    between atoms: C_6  and  C_9
    4  A    between atoms: C_9  and  C_33
    5  A    between atoms: C_10  and  C_16
    6  A    between atoms: C_10  and  C_25
    7  A    between atoms: N_11  and  C_49
    8  A    between atoms: C_12  and  C_40
    9  A    between atoms: C_16  and  C_47
   10  A    between atoms: N_19  and  C_42
   11  A    between atoms: N_23  and  C_29
   12  A    between atoms: N_24  and  C_35
   13  A    between atoms: N_24  and  C_53
   14  A    between atoms: C_32  and  C_33
   15  A    between atoms: C_32  and  C_56
                            x       y       z     vdW  Elec       q    Type
                         _______ _______ _______ _____ _____    ______ ____

>  <TORSDO>
F 15

$$$$
=
 OpenBabel10232412183D

 56 63  0  0  1  0  0  0  0  0999 V2000
  189.6020  177.3110  138.8660 C   0  0  0  0  0  2  0  0  0  0  0  0
  188.0430  178.1790  135.8460 C   0  0  0  0  0  2  0  0  0  0  0  0
  184.6520  175.5770  134.9160 C   0  0  0  0  0  3  0  0  0  0  0  0
  188.1250  176.6940  135.6450 C   0  0  0  0  0  0  0  0  0  0  0  0
  185.6910  176.3670  135.1670 C   0  0  0  0  0  0  0  0  0  0  0  0
  187.6790  172.3110  134.4430 N   0  0  0  0  0  0  0  0  0  0  0  0
  187.9790  178.6070  137.3050 C   0  0  2  0  0  3  0  0  0  0  0  0
  189.3490  178.5400  137.9890 C   0  0  0  0  0  2  0  0  0  0  0  0
  189.4430  175.9530  135.5360 C   0  0  1  0  0  3  0  0  0  0  0  0
  184.5130  174.1130  134.7720 C   0  0  0  0  0  0  0  0  0  0  0  0
  189.3830  175.9770  138.1560 C   0  0  0  0  0  2  0  0  0  0  0  0
  185.4910  173.2640  134.7050 N   0  0  0  0  0  0  0  0  0  0  0  0
  190.1950  175.7850  136.8670 C   0  0  2  0  0  3  0  0  0  0  0  0
  185.4170  177.6950  135.2300 F   0  0  0  0  0  0  0  0  0  0  0  0
  189.7240  173.5010  134.7990 C   0  0  0  0  0  3  0  0  0  0  0  0
  188.9550  174.6210  135.0950 C   0  0  0  0  0  0  0  0  0  0  0  0
  187.5790  174.5920  135.0350 C   0  0  0  0  0  0  0  0  0  0  0  0
  186.9170  173.4100  134.7160 C   0  0  0  0  0  0  0  0  0  0  0  0
  187.0750  175.9090  135.3460 C   0  0  0  0  0  0  0  0  0  0  0  0
  189.0420  172.3290  134.4640 C   0  0  0  0  0  3  0  0  0  0  0  0
  182.5280  173.2330  135.7830 C   0  0  0  0  0  3  0  0  0  0  0  0
  183.1850  173.5800  134.7150 N   0  0  0  0  0  0  0  0  0  0  0  0
  181.1740  172.6120  135.6560 C   0  0  0  0  0  2  0  0  0  0  0  0
  180.5030  172.6610  136.9450 N   0  0  0  0  0  0  0  0  0  0  0  0
  180.7420  171.4630  137.5520 O   0  0  0  0  0  1  0  0  0  0  0  0
  180.1910  174.2290  138.7810 C   0  0  0  0  0  2  0  0  0  0  0  0
  180.4490  175.0190  137.5150 C   0  0  0  0  0  2  0  0  0  0  0  0
  181.1570  173.6910  137.7350 C   0  0  0  0  0  3  0  0  0  0  0  0
  191.5840  176.3400  136.8640 C   0  0  0  0  0  3  0  0  0  0  0  0
  192.5740  175.6580  137.4120 C   0  0  0  0  0  3  0  0  0  0  0  0
  193.9600  176.1990  137.3990 C   0  0  0  0  0  2  0  0  0  0  0  0
  194.6070  175.9160  136.0570 C   0  0  0  0  0  2  0  0  0  0  0  0
  194.6100  174.4250  135.7610 C   0  0  0  0  0  2  0  0  0  0  0  0
  196.1470  172.6040  136.8270 C   0  0  1  0  0  3  0  0  0  0  0  0
  196.0280  173.8510  135.8700 C   0  0  2  0  0  3  0  0  0  0  0  0
  197.1270  175.8990  135.2130 O   0  0  0  0  0  1  0  0  0  0  0  0
  198.4540  174.2440  136.3180 C   0  0  2  0  0  0  0  0  0  0  0  0
  197.4990  172.2820  137.1410 O   0  0  0  0  0  0  0  0  0  0  0  0
  198.6870  173.4180  135.2110 O   0  0  0  0  0  1  0  0  0  0  0  0
  199.4650  173.8440  137.4020 C   0  0  2  0  0  3  0  0  0  0  0  0
  198.0510  173.4840  137.6080 C   0  0  1  0  0  3  0  0  0  0  0  0
  197.0930  174.9340  136.2180 C   0  0  2  0  0  3  0  0  0  0  0  0
  199.7960  175.0170  138.1920 N   0  0  0  0  0  2  0  0  0  0  0  0
  199.0630  174.9470  139.3320 O   0  0  0  0  0  1  0  0  0  0  0  0
  195.2810  172.6780  138.0930 C   0  0  0  0  0  2  0  0  0  0  0  0
  194.9830  171.3810  138.5160 O   0  0  0  0  0  1  0  0  0  0  0  0
  186.8460  177.9600  138.1010 C   0  0  0  0  0  2  0  0  0  0  0  0
  185.7610  178.9800  138.4130 C   0  0  0  0  0  2  0  0  0  0  0  0
  182.6800  179.2090  139.0630 S   0  0  0  0  0  0  0  0  0  0  0  0
  183.6160  178.7390  141.5460 N   0  0  0  0  0  0  0  0  0  0  0  0
  184.0230  178.9060  140.1960 C   0  0  0  0  0  0  0  0  0  0  0  0
  182.1690  178.6880  141.6990 C   0  0  0  0  0  2  0  0  0  0  0  0
  185.2970  178.7790  139.8160 C   0  0  0  0  0  3  0  0  0  0  0  0
  181.5540  178.4800  140.3120 C   0  0  0  0  0  2  0  0  0  0  0  0
  184.8010  179.4920  143.5420 C   0  0  0  0  0  1  0  0  0  0  0  0
  184.5240  178.3300  142.6050 C   0  0  0  0  0  2  0  0  0  0  0  0
  2  7  1  0  0  0  0
  3  5  2  0  0  0  0
  4  2  1  0  0  0  0
  5 14  1  0  0  0  0
  5 19  1  0  0  0  0
  6 20  1  0  0  0  0
  6 18  2  0  0  0  0
  7  8  1  0  0  0  0
  7 47  1  1  0  0  0
  8  1  1  0  0  0  0
  9 16  1  1  0  0  0
  9  4  1  0  0  0  0
  9 13  1  0  0  0  0
 10  3  1  0  0  0  0
 11  1  1  0  0  0  0
 12 18  1  0  0  0  0
 12 10  2  0  0  0  0
 13 29  1  6  0  0  0
 13 11  1  0  0  0  0
 15 16  1  0  0  0  0
 17 16  2  0  0  0  0
 17 19  1  0  0  0  0
 18 17  1  0  0  0  0
 19  4  2  0  0  0  0
 20 15  2  0  0  0  0
 22 10  1  0  0  0  0
 22 21  2  0  0  0  0
 23 21  1  0  0  0  0
 23 24  1  0  0  0  0
 24 25  1  0  0  0  0
 24 28  1  0  0  0  0
 27 28  1  0  0  0  0
 27 26  1  0  0  0  0
 28 26  1  0  0  0  0
 29 30  2  0  0  0  0
 31 30  1  0  0  0  0
 32 31  1  0  0  0  0
 33 32  1  0  0  0  0
 34 38  1  0  0  0  0
 34 45  1  1  0  0  0
 35 33  1  1  0  0  0
 35 42  1  0  0  0  0
 35 34  1  0  0  0  0
 37 39  1  6  0  0  0
 37 40  1  0  0  0  0
 37 41  1  0  0  0  0
 40 41  1  0  0  0  0
 40 43  1  1  0  0  0
 41 38  1  6  0  0  0
 42 36  1  6  0  0  0
 42 37  1  0  0  0  0
 43 44  1  0  0  0  0
 45 46  1  0  0  0  0
 47 48  1  0  0  0  0
 48 53  1  0  0  0  0
 49 51  1  0  0  0  0
 49 54  1  0  0  0  0
 50 52  1  0  0  0  0
 50 56  1  0  0  0  0
 51 50  1  0  0  0  0
 53 51  2  0  0  0  0
 54 52  1  0  0  0  0
 56 55  1  0  0  0  0
M  END
>  <MODEL>
5

>  <REMARK>
 VINA RESULT:      -5.7      5.176     12.066
  Name = 
  15 active torsions:
  status: ('A' for Active; 'I' for Inactive)
    1  A    between atoms: C_2  and  C_35
    2  A    between atoms: C_4  and  C_14
    3  A    between atoms: C_6  and  C_9
    4  A    between atoms: C_9  and  C_33
    5  A    between atoms: C_10  and  C_16
    6  A    between atoms: C_10  and  C_25
    7  A    between atoms: N_11  and  C_49
    8  A    between atoms: C_12  and  C_40
    9  A    between atoms: C_16  and  C_47
   10  A    between atoms: N_19  and  C_42
   11  A    between atoms: N_23  and  C_29
   12  A    between atoms: N_24  and  C_35
   13  A    between atoms: N_24  and  C_53
   14  A    between atoms: C_32  and  C_33
   15  A    between atoms: C_32  and  C_56
                            x       y       z     vdW  Elec       q    Type
                         _______ _______ _______ _____ _____    ______ ____

>  <TORSDO>
F 15

$$$$
=
 OpenBabel10232412183D

 56 63  0  0  1  0  0  0  0  0999 V2000
  189.5490  177.3560  139.1990 C   0  0  0  0  0  2  0  0  0  0  0  0
  188.3660  178.0150  135.9640 C   0  0  0  0  0  2  0  0  0  0  0  0
  185.0220  175.4220  134.8550 C   0  0  0  0  0  3  0  0  0  0  0  0
  188.4240  176.5170  135.8880 C   0  0  0  0  0  0  0  0  0  0  0  0
  186.0500  176.2060  135.1620 C   0  0  0  0  0  0  0  0  0  0  0  0
  187.9810  172.0630  134.9820 N   0  0  0  0  0  0  0  0  0  0  0  0
  188.1520  178.5590  137.3690 C   0  0  2  0  0  3  0  0  0  0  0  0
  189.4340  178.5160  138.2070 C   0  0  0  0  0  2  0  0  0  0  0  0
  189.7230  175.7410  135.9870 C   0  0  1  0  0  3  0  0  0  0  0  0
  184.8550  173.9540  134.8090 C   0  0  0  0  0  0  0  0  0  0  0  0
  189.3710  175.9750  138.5730 C   0  0  0  0  0  2  0  0  0  0  0  0
  185.8080  173.0810  134.9180 N   0  0  0  0  0  0  0  0  0  0  0  0
  190.3150  175.6630  137.4040 C   0  0  2  0  0  3  0  0  0  0  0  0
  185.8120  177.5400  135.0910 F   0  0  0  0  0  0  0  0  0  0  0  0
  190.0090  173.2320  135.4770 C   0  0  0  0  0  3  0  0  0  0  0  0
  189.2460  174.3890  135.5970 C   0  0  0  0  0  0  0  0  0  0  0  0
  187.8850  174.3850  135.3820 C   0  0  0  0  0  0  0  0  0  0  0  0
  187.2270  173.1970  135.0810 C   0  0  0  0  0  0  0  0  0  0  0  0
  187.3910  175.7340  135.5320 C   0  0  0  0  0  0  0  0  0  0  0  0
  189.3340  172.0530  135.1570 C   0  0  0  0  0  3  0  0  0  0  0  0
  182.7290  173.2370  135.6480 C   0  0  0  0  0  3  0  0  0  0  0  0
  183.5270  173.4470  134.6420 N   0  0  0  0  0  0  0  0  0  0  0  0
  181.3800  172.6360  135.4190 C   0  0  0  0  0  2  0  0  0  0  0  0
  181.3990  171.2450  135.8420 N   0  0  0  0  0  0  0  0  0  0  0  0
  180.0990  170.8320  135.8710 O   0  0  0  0  0  1  0  0  0  0  0  0
  182.1450  169.0180  135.2030 C   0  0  0  0  0  2  0  0  0  0  0  0
  183.3630  169.9020  135.3710 C   0  0  0  0  0  2  0  0  0  0  0  0
  182.0780  170.4860  134.8060 C   0  0  0  0  0  3  0  0  0  0  0  0
  191.7130  176.1850  137.5170 C   0  0  0  0  0  3  0  0  0  0  0  0
  192.5970  175.9270  136.5700 C   0  0  0  0  0  3  0  0  0  0  0  0
  193.9840  176.4560  136.6710 C   0  0  0  0  0  2  0  0  0  0  0  0
  194.7160  176.2270  135.3620 C   0  0  0  0  0  2  0  0  0  0  0  0
  195.9520  175.3690  135.5770 C   0  0  0  0  0  2  0  0  0  0  0  0
  196.3830  173.9210  137.7050 C   0  0  1  0  0  3  0  0  0  0  0  0
  195.6000  174.0910  136.3470 C   0  0  2  0  0  3  0  0  0  0  0  0
  194.8100  172.8930  134.4050 O   0  0  0  0  0  1  0  0  0  0  0  0
  195.3520  171.6050  136.3460 C   0  0  2  0  0  0  0  0  0  0  0  0
  196.2650  172.6070  138.2440 O   0  0  0  0  0  0  0  0  0  0  0  0
  194.1660  171.8260  137.0570 O   0  0  0  0  0  1  0  0  0  0  0  0
  196.0620  170.4150  137.0070 C   0  0  2  0  0  3  0  0  0  0  0  0
  196.6410  171.7570  137.1940 C   0  0  1  0  0  3  0  0  0  0  0  0
  195.7050  172.8080  135.4700 C   0  0  2  0  0  3  0  0  0  0  0  0
  196.8080  169.6900  135.9930 N   0  0  0  0  0  2  0  0  0  0  0  0
  195.9190  168.9040  135.3340 O   0  0  0  0  0  1  0  0  0  0  0  0
  197.8480  174.3790  137.6660 C   0  0  0  0  0  2  0  0  0  0  0  0
  198.0130  175.4460  138.5530 O   0  0  0  0  0  1  0  0  0  0  0  0
  186.9180  178.0020  138.0770 C   0  0  0  0  0  2  0  0  0  0  0  0
  185.8300  179.0610  138.1680 C   0  0  0  0  0  2  0  0  0  0  0  0
  186.0440  179.1680  141.3160 S   0  0  0  0  0  0  0  0  0  0  0  0
  183.6530  177.9480  141.0840 N   0  0  0  0  0  0  0  0  0  0  0  0
  184.7270  178.4870  140.3270 C   0  0  0  0  0  0  0  0  0  0  0  0
  183.7780  178.2100  142.5100 C   0  0  0  0  0  2  0  0  0  0  0  0
  184.7050  178.5310  138.9920 C   0  0  0  0  0  3  0  0  0  0  0  0
  184.8490  179.2870  142.7010 C   0  0  0  0  0  2  0  0  0  0  0  0
  182.6700  176.2830  139.5940 C   0  0  0  0  0  1  0  0  0  0  0  0
  182.4120  177.4850  140.4840 C   0  0  0  0  0  2  0  0  0  0  0  0
  2  7  1  0  0  0  0
  3  5  2  0  0  0  0
  4  2  1  0  0  0  0
  4  9  1  0  0  0  0
  5 19  1  0  0  0  0
  6 18  2  0  0  0  0
  6 20  1  0  0  0  0
  7 47  1  1  0  0  0
  7  8  1  0  0  0  0
  8  1  1  0  0  0  0
  9 16  1  1  0  0  0
  9 13  1  0  0  0  0
 10  3  1  0  0  0  0
 10 12  2  0  0  0  0
 11  1  1  0  0  0  0
 12 18  1  0  0  0  0
 13 29  1  6  0  0  0
 13 11  1  0  0  0  0
 14  5  1  0  0  0  0
 15 16  1  0  0  0  0
 17 19  1  0  0  0  0
 17 16  2  0  0  0  0
 18 17  1  0  0  0  0
 19  4  2  0  0  0  0
 20 15  2  0  0  0  0
 22 10  1  0  0  0  0
 22 21  2  0  0  0  0
 23 21  1  0  0  0  0
 23 24  1  0  0  0  0
 24 25  1  0  0  0  0
 26 27  1  0  0  0  0
 28 26  1  0  0  0  0
 28 27  1  0  0  0  0
 28 24  1  0  0  0  0
 30 31  1  0  0  0  0
 30 29  2  0  0  0  0
 32 33  1  0  0  0  0
 32 31  1  0  0  0  0
 34 45  1  6  0  0  0
 34 38  1  0  0  0  0
 35 33  1  6  0  0  0
 35 34  1  0  0  0  0
 37 40  1  0  0  0  0
 37 39  1  1  0  0  0
 37 41  1  0  0  0  0
 40 43  1  6  0  0  0
 40 41  1  0  0  0  0
 41 38  1  1  0  0  0
 42 36  1  6  0  0  0
 42 37  1  0  0  0  0
 42 35  1  0  0  0  0
 44 43  1  0  0  0  0
 45 46  1  0  0  0  0
 47 48  1  0  0  0  0
 48 53  1  0  0  0  0
 49 54  1  0  0  0  0
 50 52  1  0  0  0  0
 51 50  1  0  0  0  0
 51 49  1  0  0  0  0
 52 54  1  0  0  0  0
 53 51  2  0  0  0  0
 55 56  1  0  0  0  0
 56 50  1  0  0  0  0
M  END
>  <MODEL>
6

>  <REMARK>
 VINA RESULT:      -5.5      5.361     12.083
  Name = 
  15 active torsions:
  status: ('A' for Active; 'I' for Inactive)
    1  A    between atoms: C_2  and  C_35
    2  A    between atoms: C_4  and  C_14
    3  A    between atoms: C_6  and  C_9
    4  A    between atoms: C_9  and  C_33
    5  A    between atoms: C_10  and  C_16
    6  A    between atoms: C_10  and  C_25
    7  A    between atoms: N_11  and  C_49
    8  A    between atoms: C_12  and  C_40
    9  A    between atoms: C_16  and  C_47
   10  A    between atoms: N_19  and  C_42
   11  A    between atoms: N_23  and  C_29
   12  A    between atoms: N_24  and  C_35
   13  A    between atoms: N_24  and  C_53
   14  A    between atoms: C_32  and  C_33
   15  A    between atoms: C_32  and  C_56
                            x       y       z     vdW  Elec       q    Type
                         _______ _______ _______ _____ _____    ______ ____

>  <TORSDO>
F 15

$$$$
=
 OpenBabel10232412183D

 56 63  0  0  1  0  0  0  0  0999 V2000
  183.1010  177.5060  141.6980 C   0  0  0  0  0  2  0  0  0  0  0  0
  184.3820  179.6990  139.2780 C   0  0  0  0  0  2  0  0  0  0  0  0
  187.0460  177.6860  136.4520 C   0  0  0  0  0  3  0  0  0  0  0  0
  185.6530  178.9930  139.6450 C   0  0  0  0  0  0  0  0  0  0  0  0
  186.2570  178.3230  137.3110 C   0  0  0  0  0  0  0  0  0  0  0  0
  189.8080  177.1190  139.9300 N   0  0  0  0  0  0  0  0  0  0  0  0
  183.1250  178.8650  139.4840 C   0  0  2  0  0  3  0  0  0  0  0  0
  182.7160  178.7900  140.9590 C   0  0  0  0  0  2  0  0  0  0  0  0
  186.2700  179.0780  141.0280 C   0  0  1  0  0  3  0  0  0  0  0  0
  188.2700  176.8750  136.6210 C   0  0  0  0  0  0  0  0  0  0  0  0
  184.5860  177.1590  141.6210 C   0  0  0  0  0  2  0  0  0  0  0  0
  188.9490  176.7520  137.7190 N   0  0  0  0  0  0  0  0  0  0  0  0
  185.5390  178.2610  142.1060 C   0  0  2  0  0  3  0  0  0  0  0  0
  185.1970  178.9720  136.7640 F   0  0  0  0  0  0  0  0  0  0  0  0
  188.6250  178.2560  141.6700 C   0  0  0  0  0  3  0  0  0  0  0  0
  187.5870  178.4440  140.7640 C   0  0  0  0  0  0  0  0  0  0  0  0
  187.6740  178.0050  139.4610 C   0  0  0  0  0  0  0  0  0  0  0  0
  188.8010  177.3130  139.0290 C   0  0  0  0  0  0  0  0  0  0  0  0
  186.4700  178.3890  138.7630 C   0  0  0  0  0  0  0  0  0  0  0  0
  189.7550  177.5750  141.2140 C   0  0  0  0  0  3  0  0  0  0  0  0
  189.4470  175.0630  135.5890 C   0  0  0  0  0  3  0  0  0  0  0  0
  188.7430  176.1510  135.4800 N   0  0  0  0  0  0  0  0  0  0  0  0
  189.9770  174.3910  134.3630 C   0  0  0  0  0  2  0  0  0  0  0  0
  191.4180  174.2450  134.4830 N   0  0  0  0  0  0  0  0  0  0  0  0
  191.8640  175.3400  135.1630 O   0  0  0  0  0  1  0  0  0  0  0  0
  192.9930  172.4420  134.9260 C   0  0  0  0  0  2  0  0  0  0  0  0
  191.6910  171.8340  134.4450 C   0  0  0  0  0  2  0  0  0  0  0  0
  191.6670  173.0800  135.3160 C   0  0  0  0  0  3  0  0  0  0  0  0
  185.0860  179.0630  143.2850 C   0  0  0  0  0  3  0  0  0  0  0  0
  185.1520  178.5520  144.5020 C   0  0  0  0  0  3  0  0  0  0  0  0
  184.7160  179.3510  145.6790 C   0  0  0  0  0  2  0  0  0  0  0  0
  185.3950  178.8290  146.9310 C   0  0  0  0  0  2  0  0  0  0  0  0
  186.2530  177.6150  146.6150 C   0  0  0  0  0  2  0  0  0  0  0  0
  188.5110  178.0360  145.3750 C   0  0  1  0  0  3  0  0  0  0  0  0
  187.7430  177.9520  146.7500 C   0  0  2  0  0  3  0  0  0  0  0  0
  187.9260  177.1630  149.0250 O   0  0  0  0  0  1  0  0  0  0  0  0
  189.9560  177.4400  147.7900 C   0  0  2  0  0  0  0  0  0  0  0  0
  189.9260  178.0520  145.5400 O   0  0  0  0  0  0  0  0  0  0  0  0
  190.0860  178.8250  147.9490 O   0  0  0  0  0  1  0  0  0  0  0  0
  191.3140  176.9080  147.3120 C   0  0  2  0  0  3  0  0  0  0  0  0
  190.2030  176.9370  146.3440 C   0  0  1  0  0  3  0  0  0  0  0  0
  188.4850  177.0220  147.7560 C   0  0  2  0  0  3  0  0  0  0  0  0
  191.4950  175.5580  147.8170 N   0  0  0  0  0  2  0  0  0  0  0  0
  192.8280  175.3820  148.0050 O   0  0  0  0  0  1  0  0  0  0  0  0
  188.0810  176.9950  144.3320 C   0  0  0  0  0  2  0  0  0  0  0  0
  189.0480  175.9900  144.2680 O   0  0  0  0  0  1  0  0  0  0  0  0
  183.1400  177.5170  138.7660 C   0  0  0  0  0  2  0  0  0  0  0  0
  182.2020  177.5390  137.5680 C   0  0  0  0  0  2  0  0  0  0  0  0
  183.6760  175.3560  135.8250 S   0  0  0  0  0  0  0  0  0  0  0  0
  181.4760  173.9580  136.5060 N   0  0  0  0  0  0  0  0  0  0  0  0
  182.1050  175.2220  136.6570 C   0  0  0  0  0  0  0  0  0  0  0  0
  182.3220  172.9800  135.8370 C   0  0  0  0  0  2  0  0  0  0  0  0
  181.5820  176.1910  137.4140 C   0  0  0  0  0  3  0  0  0  0  0  0
  183.7530  173.5250  135.8220 C   0  0  0  0  0  2  0  0  0  0  0  0
  180.0770  172.0740  137.1790 C   0  0  0  0  0  1  0  0  0  0  0  0
  180.2690  173.5790  137.2240 C   0  0  0  0  0  2  0  0  0  0  0  0
  2  7  1  0  0  0  0
  2  4  1  0  0  0  0
  3 10  1  0  0  0  0
  3  5  2  0  0  0  0
  5 19  1  0  0  0  0
  6 20  1  0  0  0  0
  7 47  1  1  0  0  0
  7  8  1  0  0  0  0
  8  1  1  0  0  0  0
  9  4  1  6  0  0  0
  9 13  1  0  0  0  0
 10 12  2  0  0  0  0
 11  1  1  0  0  0  0
 11 13  1  0  0  0  0
 12 18  1  0  0  0  0
 13 29  1  6  0  0  0
 14  5  1  0  0  0  0
 16  9  1  0  0  0  0
 16 15  1  0  0  0  0
 17 16  2  0  0  0  0
 18 17  1  0  0  0  0
 18  6  2  0  0  0  0
 19 17  1  0  0  0  0
 19  4  2  0  0  0  0
 20 15  2  0  0  0  0
 22 21  2  0  0  0  0
 22 10  1  0  0  0  0
 23 24  1  0  0  0  0
 23 21  1  0  0  0  0
 24 25  1  0  0  0  0
 24 28  1  0  0  0  0
 26 28  1  0  0  0  0
 27 26  1  0  0  0  0
 27 28  1  0  0  0  0
 29 30  2  0  0  0  0
 30 31  1  0  0  0  0
 31 32  1  0  0  0  0
 33 32  1  0  0  0  0
 34 45  1  6  0  0  0
 34 38  1  0  0  0  0
 34 35  1  0  0  0  0
 35 33  1  6  0  0  0
 35 42  1  0  0  0  0
 37 39  1  6  0  0  0
 40 37  1  0  0  0  0
 40 43  1  1  0  0  0
 41 38  1  6  0  0  0
 41 40  1  0  0  0  0
 41 37  1  0  0  0  0
 42 37  1  0  0  0  0
 42 36  1  1  0  0  0
 43 44  1  0  0  0  0
 46 45  1  0  0  0  0
 48 47  1  0  0  0  0
 49 51  1  0  0  0  0
 50 51  1  0  0  0  0
 50 56  1  0  0  0  0
 51 53  2  0  0  0  0
 52 50  1  0  0  0  0
 53 48  1  0  0  0  0
 54 49  1  0  0  0  0
 54 52  1  0  0  0  0
 55 56  1  0  0  0  0
M  END
>  <MODEL>
7

>  <REMARK>
 VINA RESULT:      -5.2      4.114     10.097
  Name = 
  15 active torsions:
  status: ('A' for Active; 'I' for Inactive)
    1  A    between atoms: C_2  and  C_35
    2  A    between atoms: C_4  and  C_14
    3  A    between atoms: C_6  and  C_9
    4  A    between atoms: C_9  and  C_33
    5  A    between atoms: C_10  and  C_16
    6  A    between atoms: C_10  and  C_25
    7  A    between atoms: N_11  and  C_49
    8  A    between atoms: C_12  and  C_40
    9  A    between atoms: C_16  and  C_47
   10  A    between atoms: N_19  and  C_42
   11  A    between atoms: N_23  and  C_29
   12  A    between atoms: N_24  and  C_35
   13  A    between atoms: N_24  and  C_53
   14  A    between atoms: C_32  and  C_33
   15  A    between atoms: C_32  and  C_56
                            x       y       z     vdW  Elec       q    Type
                         _______ _______ _______ _____ _____    ______ ____

>  <TORSDO>
F 15

$$$$
=
 OpenBabel10232412183D

 56 63  0  0  1  0  0  0  0  0999 V2000
  189.4420  176.9500  142.5420 C   0  0  0  0  0  2  0  0  0  0  0  0
  188.1420  179.2720  140.2570 C   0  0  0  0  0  2  0  0  0  0  0  0
  184.8280  177.6320  137.9210 C   0  0  0  0  0  3  0  0  0  0  0  0
  188.2340  178.0820  139.3480 C   0  0  0  0  0  0  0  0  0  0  0  0
  185.8460  178.1450  138.6030 C   0  0  0  0  0  0  0  0  0  0  0  0
  187.8680  174.8990  136.0940 N   0  0  0  0  0  0  0  0  0  0  0  0
  187.9600  178.9220  141.7260 C   0  0  2  0  0  3  0  0  0  0  0  0
  189.2680  178.4620  142.3780 C   0  0  0  0  0  2  0  0  0  0  0  0
  189.5530  177.4330  138.9760 C   0  0  1  0  0  3  0  0  0  0  0  0
  184.6940  176.4400  137.0570 C   0  0  0  0  0  0  0  0  0  0  0  0
  189.2770  176.1560  141.2480 C   0  0  0  0  0  2  0  0  0  0  0  0
  185.6700  175.6930  136.6430 N   0  0  0  0  0  0  0  0  0  0  0  0
  190.1910  176.5930  140.0940 C   0  0  2  0  0  3  0  0  0  0  0  0
  185.5740  179.2770  139.3010 F   0  0  0  0  0  0  0  0  0  0  0  0
  189.8820  175.6600  137.1360 C   0  0  0  0  0  3  0  0  0  0  0  0
  189.0960  176.5190  137.8970 C   0  0  0  0  0  0  0  0  0  0  0  0
  187.7300  176.5860  137.7350 C   0  0  0  0  0  0  0  0  0  0  0  0
  187.0910  175.7500  136.8250 C   0  0  0  0  0  0  0  0  0  0  0  0
  187.2080  177.5970  138.6250 C   0  0  0  0  0  0  0  0  0  0  0  0
  189.2250  174.8420  136.2150 C   0  0  0  0  0  3  0  0  0  0  0  0
  183.0890  174.8720  136.2180 C   0  0  0  0  0  3  0  0  0  0  0  0
  183.3730  176.0660  136.6500 N   0  0  0  0  0  0  0  0  0  0  0  0
  181.7090  174.5620  135.7360 C   0  0  0  0  0  2  0  0  0  0  0  0
  181.5140  173.1220  135.7380 N   0  0  0  0  0  0  0  0  0  0  0  0
  182.6270  172.5790  135.1660 O   0  0  0  0  0  1  0  0  0  0  0  0
  180.3560  171.6850  137.3250 C   0  0  0  0  0  2  0  0  0  0  0  0
  180.1650  173.1240  137.7550 C   0  0  0  0  0  2  0  0  0  0  0  0
  181.4800  172.6910  137.1260 C   0  0  0  0  0  3  0  0  0  0  0  0
  191.5790  177.0120  140.4640 C   0  0  0  0  0  3  0  0  0  0  0  0
  192.5740  176.8430  139.6130 C   0  0  0  0  0  3  0  0  0  0  0  0
  193.9530  177.2720  139.9710 C   0  0  0  0  0  2  0  0  0  0  0  0
  194.9360  176.1670  139.6330 C   0  0  0  0  0  2  0  0  0  0  0  0
  194.3440  175.2090  138.6120 C   0  0  0  0  0  2  0  0  0  0  0  0
  195.6540  175.2830  136.3550 C   0  0  1  0  0  3  0  0  0  0  0  0
  195.4480  174.5810  137.7520 C   0  0  2  0  0  3  0  0  0  0  0  0
  195.3560  172.4280  138.8420 O   0  0  0  0  0  1  0  0  0  0  0  0
  196.4260  172.5350  136.7050 C   0  0  2  0  0  0  0  0  0  0  0  0
  196.4610  174.5120  135.4690 O   0  0  0  0  0  0  0  0  0  0  0  0
  197.6620  173.0290  137.1380 O   0  0  0  0  0  1  0  0  0  0  0  0
  196.6240  172.0000  135.2800 C   0  0  2  0  0  3  0  0  0  0  0  0
  195.8570  173.2460  135.4500 C   0  0  1  0  0  3  0  0  0  0  0  0
  195.2860  173.0400  137.5920 C   0  0  2  0  0  3  0  0  0  0  0  0
  195.7170  170.8860  135.0650 N   0  0  0  0  0  2  0  0  0  0  0  0
  196.2630  169.8060  135.6810 O   0  0  0  0  0  1  0  0  0  0  0  0
  194.3610  175.7500  135.6710 C   0  0  0  0  0  2  0  0  0  0  0  0
  194.6890  176.4280  134.4950 O   0  0  0  0  0  1  0  0  0  0  0  0
  186.7620  178.0170  142.0120 C   0  0  0  0  0  2  0  0  0  0  0  0
  185.6530  178.8000  142.7000 C   0  0  0  0  0  2  0  0  0  0  0  0
  182.8450  178.7920  144.1440 S   0  0  0  0  0  0  0  0  0  0  0  0
  182.0240  178.5250  141.5920 N   0  0  0  0  0  0  0  0  0  0  0  0
  183.1850  178.6450  142.4000 C   0  0  0  0  0  0  0  0  0  0  0  0
  180.7900  178.7110  142.3410 C   0  0  0  0  0  2  0  0  0  0  0  0
  184.4130  178.7060  141.8780 C   0  0  0  0  0  3  0  0  0  0  0  0
  181.1490  179.3240  143.6970 C   0  0  0  0  0  2  0  0  0  0  0  0
  181.0570  177.5660  139.5660 C   0  0  0  0  0  1  0  0  0  0  0  0
  182.0610  178.5500  140.1380 C   0  0  0  0  0  2  0  0  0  0  0  0
  2  7  1  0  0  0  0
  3  5  2  0  0  0  0
  4  2  1  0  0  0  0
  5 19  1  0  0  0  0
  5 14  1  0  0  0  0
  6 20  1  0  0  0  0
  6 18  2  0  0  0  0
  7 47  1  6  0  0  0
  7  8  1  0  0  0  0
  8  1  1  0  0  0  0
  9 16  1  6  0  0  0
  9  4  1  0  0  0  0
  9 13  1  0  0  0  0
 10  3  1  0  0  0  0
 11  1  1  0  0  0  0
 12 18  1  0  0  0  0
 12 10  2  0  0  0  0
 13 29  1  1  0  0  0
 13 11  1  0  0  0  0
 15 16  1  0  0  0  0
 17 16  2  0  0  0  0
 17 19  1  0  0  0  0
 18 17  1  0  0  0  0
 19  4  2  0  0  0  0
 20 15  2  0  0  0  0
 21 22  2  0  0  0  0
 22 10  1  0  0  0  0
 23 24  1  0  0  0  0
 23 21  1  0  0  0  0
 24 28  1  0  0  0  0
 25 24  1  0  0  0  0
 26 27  1  0  0  0  0
 28 26  1  0  0  0  0
 28 27  1  0  0  0  0
 30 31  1  0  0  0  0
 30 29  2  0  0  0  0
 32 31  1  0  0  0  0
 33 32  1  0  0  0  0
 34 45  1  6  0  0  0
 34 35  1  0  0  0  0
 35 33  1  6  0  0  0
 37 39  1  1  0  0  0
 37 42  1  0  0  0  0
 38 34  1  0  0  0  0
 40 43  1  1  0  0  0
 40 41  1  0  0  0  0
 40 37  1  0  0  0  0
 41 38  1  6  0  0  0
 41 37  1  0  0  0  0
 42 35  1  0  0  0  0
 42 36  1  1  0  0  0
 43 44  1  0  0  0  0
 46 45  1  0  0  0  0
 47 48  1  0  0  0  0
 50 52  1  0  0  0  0
 50 51  1  0  0  0  0
 51 49  1  0  0  0  0
 52 54  1  0  0  0  0
 53 51  2  0  0  0  0
 53 48  1  0  0  0  0
 54 49  1  0  0  0  0
 55 56  1  0  0  0  0
 56 50  1  0  0  0  0
M  END
>  <MODEL>
8

>  <REMARK>
 VINA RESULT:      -5.0      5.091     11.952
  Name = 
  15 active torsions:
  status: ('A' for Active; 'I' for Inactive)
    1  A    between atoms: C_2  and  C_35
    2  A    between atoms: C_4  and  C_14
    3  A    between atoms: C_6  and  C_9
    4  A    between atoms: C_9  and  C_33
    5  A    between atoms: C_10  and  C_16
    6  A    between atoms: C_10  and  C_25
    7  A    between atoms: N_11  and  C_49
    8  A    between atoms: C_12  and  C_40
    9  A    between atoms: C_16  and  C_47
   10  A    between atoms: N_19  and  C_42
   11  A    between atoms: N_23  and  C_29
   12  A    between atoms: N_24  and  C_35
   13  A    between atoms: N_24  and  C_53
   14  A    between atoms: C_32  and  C_33
   15  A    between atoms: C_32  and  C_56
                            x       y       z     vdW  Elec       q    Type
                         _______ _______ _______ _____ _____    ______ ____

>  <TORSDO>
F 15

$$$$
=
 OpenBabel10232412183D

 56 63  0  0  1  0  0  0  0  0999 V2000
  187.9690  177.7290  139.4920 C   0  0  0  0  0  2  0  0  0  0  0  0
  187.1200  178.2000  136.1220 C   0  0  0  0  0  2  0  0  0  0  0  0
  184.2600  175.2160  134.6920 C   0  0  0  0  0  3  0  0  0  0  0  0
  187.3610  176.7200  136.0940 C   0  0  0  0  0  0  0  0  0  0  0  0
  185.1450  176.1200  135.0980 C   0  0  0  0  0  0  0  0  0  0  0  0
  187.5510  172.2330  135.2630 N   0  0  0  0  0  0  0  0  0  0  0  0
  186.6750  178.7330  137.4760 C   0  0  2  0  0  3  0  0  0  0  0  0
  187.8410  178.8540  138.4620 C   0  0  0  0  0  2  0  0  0  0  0  0
  188.7190  176.1030  136.3690 C   0  0  1  0  0  3  0  0  0  0  0  0
  184.2710  173.7380  134.6660 C   0  0  0  0  0  0  0  0  0  0  0  0
  188.0290  176.3280  138.8870 C   0  0  0  0  0  2  0  0  0  0  0  0
  185.2980  172.9850  134.9130 N   0  0  0  0  0  0  0  0  0  0  0  0
  189.1390  176.1140  137.8480 C   0  0  2  0  0  3  0  0  0  0  0  0
  184.7640  177.4160  134.9630 F   0  0  0  0  0  0  0  0  0  0  0  0
  189.3530  173.6400  135.9650 C   0  0  0  0  0  3  0  0  0  0  0  0
  188.4530  174.7000  135.9610 C   0  0  0  0  0  0  0  0  0  0  0  0
  187.1380  174.5320  135.5860 C   0  0  0  0  0  0  0  0  0  0  0  0
  186.6640  173.2700  135.2410 C   0  0  0  0  0  0  0  0  0  0  0  0
  186.4760  175.8140  135.6380 C   0  0  0  0  0  0  0  0  0  0  0  0
  188.8640  172.3850  135.5990 C   0  0  0  0  0  3  0  0  0  0  0  0
  182.5510  172.1290  135.1020 C   0  0  0  0  0  3  0  0  0  0  0  0
  183.0410  173.0750  134.3560 N   0  0  0  0  0  0  0  0  0  0  0  0
  181.3010  171.4220  134.6870 C   0  0  0  0  0  2  0  0  0  0  0  0
  180.4070  171.3230  135.8290 N   0  0  0  0  0  0  0  0  0  0  0  0
  180.3400  170.0000  136.1560 O   0  0  0  0  0  1  0  0  0  0  0  0
  179.9860  172.4360  137.9520 C   0  0  0  0  0  2  0  0  0  0  0  0
  180.5440  173.4540  136.9800 C   0  0  0  0  0  2  0  0  0  0  0  0
  181.0400  172.0180  136.9370 C   0  0  0  0  0  3  0  0  0  0  0  0
  190.4420  176.8000  138.1130 C   0  0  0  0  0  3  0  0  0  0  0  0
  190.9900  176.7460  139.3140 C   0  0  0  0  0  3  0  0  0  0  0  0
  192.2930  177.4150  139.5780 C   0  0  0  0  0  2  0  0  0  0  0  0
  192.6220  177.3270  141.0560 C   0  0  0  0  0  2  0  0  0  0  0  0
  191.5250  176.5960  141.8120 C   0  0  0  0  0  2  0  0  0  0  0  0
  191.9510  176.5520  144.3880 C   0  0  1  0  0  3  0  0  0  0  0  0
  191.2570  177.2670  143.1650 C   0  0  2  0  0  3  0  0  0  0  0  0
  189.2150  178.3460  142.4580 O   0  0  0  0  0  1  0  0  0  0  0  0
  189.5990  178.1530  144.8110 C   0  0  2  0  0  0  0  0  0  0  0  0
  191.4520  177.0060  145.6420 O   0  0  0  0  0  0  0  0  0  0  0  0
  190.4720  179.2390  144.9500 O   0  0  0  0  0  1  0  0  0  0  0  0
  189.1170  177.7750  146.2190 C   0  0  2  0  0  3  0  0  0  0  0  0
  190.0600  176.8660  145.5430 C   0  0  1  0  0  3  0  0  0  0  0  0
  189.7400  177.5020  143.4340 C   0  0  2  0  0  3  0  0  0  0  0  0
  187.7680  177.2460  146.1280 N   0  0  0  0  0  2  0  0  0  0  0  0
  186.9240  178.3090  146.1470 O   0  0  0  0  0  1  0  0  0  0  0  0
  191.9650  175.0180  144.3130 C   0  0  0  0  0  2  0  0  0  0  0  0
  192.5090  174.5120  145.4950 O   0  0  0  0  0  1  0  0  0  0  0  0
  185.4370  178.0440  138.0470 C   0  0  0  0  0  2  0  0  0  0  0  0
  184.8370  178.8700  139.1750 C   0  0  0  0  0  2  0  0  0  0  0  0
  182.2450  180.6420  138.8510 S   0  0  0  0  0  0  0  0  0  0  0  0
  181.1250  178.4170  139.8770 N   0  0  0  0  0  0  0  0  0  0  0  0
  182.3690  178.9830  139.4900 C   0  0  0  0  0  0  0  0  0  0  0  0
  179.9870  179.2510  139.5200 C   0  0  0  0  0  2  0  0  0  0  0  0
  183.5110  178.2940  139.5440 C   0  0  0  0  0  3  0  0  0  0  0  0
  180.4710  180.3110  138.5260 C   0  0  0  0  0  2  0  0  0  0  0  0
  179.9830  176.3200  139.3700 C   0  0  0  0  0  1  0  0  0  0  0  0
  180.9750  177.0270  140.2760 C   0  0  0  0  0  2  0  0  0  0  0  0
  2  7  1  0  0  0  0
  3  5  2  0  0  0  0
  4  2  1  0  0  0  0
  4  9  1  0  0  0  0
  5 19  1  0  0  0  0
  6 20  1  0  0  0  0
  7 47  1  1  0  0  0
  7  8  1  0  0  0  0
  8  1  1  0  0  0  0
  9 16  1  1  0  0  0
  9 13  1  0  0  0  0
 10  3  1  0  0  0  0
 10 12  2  0  0  0  0
 11  1  1  0  0  0  0
 12 18  1  0  0  0  0
 13 29  1  6  0  0  0
 13 11  1  0  0  0  0
 14  5  1  0  0  0  0
 16 15  1  0  0  0  0
 17 19  1  0  0  0  0
 17 16  2  0  0  0  0
 18  6  2  0  0  0  0
 18 17  1  0  0  0  0
 19  4  2  0  0  0  0
 20 15  2  0  0  0  0
 22 10  1  0  0  0  0
 22 21  2  0  0  0  0
 23 21  1  0  0  0  0
 23 24  1  0  0  0  0
 24 25  1  0  0  0  0
 24 28  1  0  0  0  0
 27 26  1  0  0  0  0
 28 27  1  0  0  0  0
 28 26  1  0  0  0  0
 29 30  2  0  0  0  0
 30 31  1  0  0  0  0
 31 32  1  0  0  0  0
 32 33  1  0  0  0  0
 34 45  1  6  0  0  0
 34 38  1  0  0  0  0
 35 33  1  6  0  0  0
 35 42  1  0  0  0  0
 35 34  1  0  0  0  0
 37 39  1  1  0  0  0
 37 41  1  0  0  0  0
 37 40  1  0  0  0  0
 40 43  1  6  0  0  0
 41 38  1  1  0  0  0
 41 40  1  0  0  0  0
 42 36  1  6  0  0  0
 42 37  1  0  0  0  0
 43 44  1  0  0  0  0
 45 46  1  0  0  0  0
 47 48  1  0  0  0  0
 48 53  1  0  0  0  0
 49 51  1  0  0  0  0
 50 56  1  0  0  0  0
 51 53  2  0  0  0  0
 51 50  1  0  0  0  0
 52 50  1  0  0  0  0
 54 49  1  0  0  0  0
 54 52  1  0  0  0  0
 55 56  1  0  0  0  0
M  END
>  <MODEL>
9

>  <REMARK>
 VINA RESULT:      -5.0      4.086     10.693
  Name = 
  15 active torsions:
  status: ('A' for Active; 'I' for Inactive)
    1  A    between atoms: C_2  and  C_35
    2  A    between atoms: C_4  and  C_14
    3  A    between atoms: C_6  and  C_9
    4  A    between atoms: C_9  and  C_33
    5  A    between atoms: C_10  and  C_16
    6  A    between atoms: C_10  and  C_25
    7  A    between atoms: N_11  and  C_49
    8  A    between atoms: C_12  and  C_40
    9  A    between atoms: C_16  and  C_47
   10  A    between atoms: N_19  and  C_42
   11  A    between atoms: N_23  and  C_29
   12  A    between atoms: N_24  and  C_35
   13  A    between atoms: N_24  and  C_53
   14  A    between atoms: C_32  and  C_33
   15  A    between atoms: C_32  and  C_56
                            x       y       z     vdW  Elec       q    Type
                         _______ _______ _______ _____ _____    ______ ____

>  <TORSDO>
F 15

$$$$
