=
 OpenBabel10232410553D

 49 55  0  0  1  0  0  0  0  0999 V2000
  187.1610  178.5050  142.1350 N   0  0  0  0  0  2  0  0  0  0  0  0
  188.8940  177.9170  138.9060 C   0  0  0  0  0  0  0  0  0  0  0  0
  190.7530  176.7420  138.2150 N   0  0  0  0  0  2  0  0  0  0  0  0
  190.0690  176.6910  140.6150 C   0  0  0  0  0  3  0  0  0  0  0  0
  187.9640  178.4010  139.8250 C   0  0  0  0  0  3  0  0  0  0  0  0
  189.9120  177.0950  139.2920 C   0  0  0  0  0  0  0  0  0  0  0  0
  190.2360  177.4010  137.0130 C   0  0  2  0  0  3  0  0  0  0  0  0
  188.9760  178.1840  137.4480 C   0  0  0  0  0  2  0  0  0  0  0  0
  189.1460  177.1610  141.5620 C   0  0  0  0  0  3  0  0  0  0  0  0
  188.0950  178.0190  141.1730 C   0  0  0  0  0  0  0  0  0  0  0  0
  189.7700  176.1530  135.7790 S   0  0  0  0  0  0  0  0  0  0  0  0
  189.4060  173.5540  136.5610 C   0  0  0  0  0  2  0  0  0  0  0  0
  189.0710  174.9940  136.9920 C   0  0  2  0  0  3  0  0  0  0  0  0
  188.1380  172.8760  136.7170 N   0  0  1  0  0  0  0  0  0  0  0  0
  185.8730  173.0770  136.4380 C   0  0  2  0  0  3  0  0  0  0  0  0
  187.1750  173.8210  136.2230 C   0  0  1  0  0  0  0  0  0  0  0  0
  187.5280  175.0700  136.9830 C   0  0  0  0  0  2  0  0  0  0  0  0
  187.8210  171.6540  136.0080 C   0  0  0  0  0  2  0  0  0  0  0  0
  187.3580  174.0720  134.8460 O   0  0  0  0  0  1  0  0  0  0  0  0
  186.2760  171.6470  136.0130 C   0  0  0  0  0  2  0  0  0  0  0  0
  184.7240  173.5960  135.5780 C   0  0  0  0  0  2  0  0  0  0  0  0
  183.7200  175.8490  136.2040 N   0  0  0  0  0  2  0  0  0  0  0  0
  183.0400  173.8870  137.2360 O   0  0  0  0  0  0  0  0  0  0  0  0
  184.5680  176.5560  135.2610 C   0  0  0  0  0  1  0  0  0  0  0  0
  183.7960  174.4370  136.3940 C   0  0  0  0  0  0  0  0  0  0  0  0
  185.9990  179.1840  141.7430 N   0  0  0  0  0  2  0  0  0  0  0  0
  184.8630  178.3700  142.1400 C   0  0  0  0  0  2  0  0  0  0  0  0
  184.1440  179.0110  143.3240 C   0  0  1  0  0  3  0  0  0  0  0  0
  182.6680  179.2310  142.9820 C   0  0  1  0  0  3  0  0  0  0  0  0
  180.0850  178.1780  142.2670 C   0  0  0  0  0  2  0  0  0  0  0  0
  182.3230  178.6270  141.6200 C   0  0  0  0  0  2  0  0  0  0  0  0
  180.6640  178.2910  140.0050 C   0  0  0  0  0  1  0  0  0  0  0  0
  180.9180  178.8890  141.3020 N   0  0  0  0  0  0  0  0  0  0  0  0
  180.3020  178.7450  143.6660 C   0  0  0  0  0  2  0  0  0  0  0  0
  181.7720  178.5930  144.0490 C   0  0  0  0  0  2  0  0  0  0  0  0
  184.2600  178.1710  144.4410 O   0  0  0  0  0  0  0  0  0  0  0  0
  185.7270  177.9260  146.2500 C   0  0  1  0  0  3  0  0  0  0  0  0
  184.5770  178.6240  146.6560 O   0  0  0  0  0  0  0  0  0  0  0  0
  185.0400  178.8810  145.3540 C   0  0  2  0  0  3  0  0  0  0  0  0
  186.8980  178.5530  146.8380 N   0  0  0  0  0  2  0  0  0  0  0  0
  189.2290  177.6180  147.9540 S   0  0  0  0  0  0  0  0  0  0  0  0
  190.0480  177.0710  145.6480 C   0  0  0  0  0  0  0  0  0  0  0  0
  190.4420  176.9820  146.9860 C   0  0  0  0  0  0  0  0  0  0  0  0
  188.2030  178.0010  146.6800 C   0  0  0  0  0  0  0  0  0  0  0  0
  188.7810  177.6380  145.4700 C   0  0  0  0  0  3  0  0  0  0  0  0
  192.6120  175.8930  147.9070 N   0  0  0  0  0  0  0  0  0  0  0  0
  191.6440  176.3780  147.4960 C   0  0  0  0  0  0  0  0  0  0  0  0
  190.8300  176.6400  144.5360 N   0  0  0  0  0  2  0  0  0  0  0  0
  191.7780  177.4210  143.9600 O   0  0  0  0  0  1  0  0  0  0  0  0
  2  6  2  0  0  0  0
  2  5  1  0  0  0  0
  3  6  1  0  0  0  0
  4  9  2  0  0  0  0
  5 10  2  0  0  0  0
  6  4  1  0  0  0  0
  7 11  1  6  0  0  0
  7  8  1  0  0  0  0
  7  3  1  0  0  0  0
  8  2  1  0  0  0  0
 10  9  1  0  0  0  0
 10  1  1  0  0  0  0
 12 14  1  0  0  0  0
 12 13  1  0  0  0  0
 13 11  1  6  0  0  0
 14 18  1  6  0  0  0
 15 21  1  6  0  0  0
 16 19  1  6  0  0  0
 16 15  1  0  0  0  0
 16 14  1  0  0  0  0
 16 17  1  0  0  0  0
 17 13  1  0  0  0  0
 18 20  1  0  0  0  0
 20 15  1  0  0  0  0
 21 25  1  0  0  0  0
 22 25  1  0  0  0  0
 24 22  1  0  0  0  0
 25 23  2  0  0  0  0
 26  1  1  0  0  0  0
 26 27  1  0  0  0  0
 28 27  1  6  0  0  0
 28 36  1  0  0  0  0
 29 28  1  1  0  0  0
 29 35  1  0  0  0  0
 30 34  1  0  0  0  0
 31 29  1  0  0  0  0
 32 33  1  0  0  0  0
 33 31  1  0  0  0  0
 33 30  1  0  0  0  0
 34 35  1  0  0  0  0
 37 38  1  0  0  0  0
 37 40  1  1  0  0  0
 39 36  1  6  0  0  0
 39 37  1  0  0  0  0
 39 38  1  0  0  0  0
 42 43  2  0  0  0  0
 43 47  1  0  0  0  0
 43 41  1  0  0  0  0
 44 40  1  0  0  0  0
 44 41  1  0  0  0  0
 45 42  1  0  0  0  0
 45 44  2  0  0  0  0
 47 46  3  0  0  0  0
 48 42  1  0  0  0  0
 49 48  1  0  0  0  0
M  END
>  <MODEL>
1

>  <REMARK>
 VINA RESULT:      -8.2      0.000      0.000
  Name = 
  15 active torsions:
  status: ('A' for Active; 'I' for Inactive)
    1  A    between atoms: C_1  and  C_10
    2  A    between atoms: N_4  and  C_39
    3  A    between atoms: N_4  and  N_48
    4  A    between atoms: C_8  and  C_29
    5  A    between atoms: C_8  and  C_37
    6  A    between atoms: C_10  and  O_17
    7  A    between atoms: C_10  and  C_39
    8  A    between atoms: N_12  and  C_31
    9  A    between atoms: C_14  and  C_34
   10  A    between atoms: O_17  and  C_40
   11  A    between atoms: C_18  and  S_24
   12  A    between atoms: C_19  and  N_32
   13  A    between atoms: S_24  and  C_35
   14  A    between atoms: N_32  and  C_38
   15  A    between atoms: C_46  and  N_48
                            x       y       z     vdW  Elec       q    Type
                         _______ _______ _______ _____ _____    ______ ____

>  <TORSDO>
F 15

$$$$
=
 OpenBabel10232410553D

 49 55  0  0  1  0  0  0  0  0999 V2000
  186.4810  178.9210  140.7870 N   0  0  0  0  0  2  0  0  0  0  0  0
  189.4750  177.1160  139.5390 C   0  0  0  0  0  0  0  0  0  0  0  0
  190.1440  176.2140  137.5270 N   0  0  0  0  0  2  0  0  0  0  0  0
  187.9450  177.3810  137.6980 C   0  0  0  0  0  3  0  0  0  0  0  0
  188.6120  177.7770  140.4130 C   0  0  0  0  0  3  0  0  0  0  0  0
  189.1470  176.9240  138.2290 C   0  0  0  0  0  0  0  0  0  0  0  0
  191.2230  175.9120  138.4700 C   0  0  2  0  0  3  0  0  0  0  0  0
  190.8050  176.5220  139.8270 C   0  0  0  0  0  2  0  0  0  0  0  0
  187.0580  178.0510  138.5540 C   0  0  0  0  0  3  0  0  0  0  0  0
  187.3850  178.2480  139.9130 C   0  0  0  0  0  0  0  0  0  0  0  0
  192.7660  176.6900  137.9110 S   0  0  0  0  0  0  0  0  0  0  0  0
  193.2880  174.0140  137.6650 C   0  0  0  0  0  2  0  0  0  0  0  0
  193.2490  175.3090  136.8330 C   0  0  2  0  0  3  0  0  0  0  0  0
  194.5430  173.4190  137.2640 N   0  0  1  0  0  0  0  0  0  0  0  0
  196.7280  173.8610  136.7390 C   0  0  2  0  0  3  0  0  0  0  0  0
  195.4470  174.5330  137.1900 C   0  0  1  0  0  0  0  0  0  0  0  0
  194.6950  175.5040  136.3230 C   0  0  0  0  0  2  0  0  0  0  0  0
  195.2430  172.4570  138.0890 C   0  0  0  0  0  2  0  0  0  0  0  0
  195.6410  175.1250  138.4570 O   0  0  0  0  0  1  0  0  0  0  0  0
  196.6990  172.5690  137.5850 C   0  0  0  0  0  2  0  0  0  0  0  0
  197.9830  174.6780  137.0370 C   0  0  0  0  0  2  0  0  0  0  0  0
  200.2090  173.8010  137.9050 N   0  0  0  0  0  2  0  0  0  0  0  0
  199.3390  173.1040  135.8720 O   0  0  0  0  0  0  0  0  0  0  0  0
  200.1330  174.6200  139.1020 C   0  0  0  0  0  1  0  0  0  0  0  0
  199.2070  173.8310  136.8900 C   0  0  0  0  0  0  0  0  0  0  0  0
  186.3930  178.5810  142.1450 N   0  0  0  0  0  2  0  0  0  0  0  0
  185.0660  178.0370  142.3730 C   0  0  0  0  0  2  0  0  0  0  0  0
  184.3090  178.9020  143.3780 C   0  0  1  0  0  3  0  0  0  0  0  0
  182.9100  179.2210  142.8440 C   0  0  1  0  0  3  0  0  0  0  0  0
  180.3440  178.3420  141.8770 C   0  0  0  0  0  2  0  0  0  0  0  0
  182.6750  178.5550  141.4870 C   0  0  0  0  0  2  0  0  0  0  0  0
  181.1940  178.2490  139.7010 C   0  0  0  0  0  1  0  0  0  0  0  0
  181.3480  178.9120  140.9820 N   0  0  0  0  0  0  0  0  0  0  0  0
  180.4460  178.9850  143.2560 C   0  0  0  0  0  2  0  0  0  0  0  0
  181.8400  178.7370  143.8260 C   0  0  0  0  0  2  0  0  0  0  0  0
  184.2130  178.2120  144.5960 O   0  0  0  0  0  0  0  0  0  0  0  0
  185.7630  177.9400  146.3310 C   0  0  1  0  0  3  0  0  0  0  0  0
  184.6390  178.6440  146.7970 O   0  0  0  0  0  0  0  0  0  0  0  0
  185.0420  178.9090  145.4770 C   0  0  2  0  0  3  0  0  0  0  0  0
  186.9660  178.5530  146.8670 N   0  0  0  0  0  2  0  0  0  0  0  0
  189.3250  177.5590  147.8680 S   0  0  0  0  0  0  0  0  0  0  0  0
  190.0500  177.0700  145.5180 C   0  0  0  0  0  0  0  0  0  0  0  0
  190.4930  176.9370  146.8370 C   0  0  0  0  0  0  0  0  0  0  0  0
  188.2570  177.9910  146.6440 C   0  0  0  0  0  0  0  0  0  0  0  0
  188.7860  177.6570  145.4040 C   0  0  0  0  0  3  0  0  0  0  0  0
  192.6810  175.7960  147.6440 N   0  0  0  0  0  0  0  0  0  0  0  0
  191.7050  176.3040  147.2850 C   0  0  0  0  0  0  0  0  0  0  0  0
  190.7850  176.6620  144.3660 N   0  0  0  0  0  2  0  0  0  0  0  0
  191.5420  177.5210  143.6380 O   0  0  0  0  0  1  0  0  0  0  0  0
  1 26  1  0  0  0  0
  2  8  1  0  0  0  0
  2  5  1  0  0  0  0
  3  6  1  0  0  0  0
  3  7  1  0  0  0  0
  4  6  1  0  0  0  0
  4  9  2  0  0  0  0
  6  2  2  0  0  0  0
  7 11  1  6  0  0  0
  7  8  1  0  0  0  0
  9 10  1  0  0  0  0
 10  5  2  0  0  0  0
 10  1  1  0  0  0  0
 13 12  1  0  0  0  0
 13 11  1  1  0  0  0
 14 12  1  1  0  0  0
 14 18  1  0  0  0  0
 15 21  1  1  0  0  0
 15 16  1  0  0  0  0
 15 20  1  0  0  0  0
 16 14  1  0  0  0  0
 16 19  1  1  0  0  0
 17 13  1  0  0  0  0
 17 16  1  0  0  0  0
 20 18  1  0  0  0  0
 22 24  1  0  0  0  0
 23 25  2  0  0  0  0
 25 21  1  0  0  0  0
 25 22  1  0  0  0  0
 26 27  1  0  0  0  0
 28 27  1  6  0  0  0
 28 36  1  0  0  0  0
 29 28  1  1  0  0  0
 29 35  1  0  0  0  0
 30 34  1  0  0  0  0
 31 29  1  0  0  0  0
 32 33  1  0  0  0  0
 33 31  1  0  0  0  0
 33 30  1  0  0  0  0
 34 35  1  0  0  0  0
 37 38  1  0  0  0  0
 37 40  1  1  0  0  0
 39 36  1  6  0  0  0
 39 37  1  0  0  0  0
 39 38  1  0  0  0  0
 42 43  2  0  0  0  0
 43 47  1  0  0  0  0
 43 41  1  0  0  0  0
 44 40  1  0  0  0  0
 44 41  1  0  0  0  0
 45 42  1  0  0  0  0
 45 44  2  0  0  0  0
 47 46  3  0  0  0  0
 48 42  1  0  0  0  0
 49 48  1  0  0  0  0
M  END
>  <MODEL>
2

>  <REMARK>
 VINA RESULT:      -8.1      4.170      6.173
  Name = 
  15 active torsions:
  status: ('A' for Active; 'I' for Inactive)
    1  A    between atoms: C_1  and  C_10
    2  A    between atoms: N_4  and  C_39
    3  A    between atoms: N_4  and  N_48
    4  A    between atoms: C_8  and  C_29
    5  A    between atoms: C_8  and  C_37
    6  A    between atoms: C_10  and  O_17
    7  A    between atoms: C_10  and  C_39
    8  A    between atoms: N_12  and  C_31
    9  A    between atoms: C_14  and  C_34
   10  A    between atoms: O_17  and  C_40
   11  A    between atoms: C_18  and  S_24
   12  A    between atoms: C_19  and  N_32
   13  A    between atoms: S_24  and  C_35
   14  A    between atoms: N_32  and  C_38
   15  A    between atoms: C_46  and  N_48
                            x       y       z     vdW  Elec       q    Type
                         _______ _______ _______ _____ _____    ______ ____

>  <TORSDO>
F 15

$$$$
=
 OpenBabel10232410553D

 49 55  0  0  1  0  0  0  0  0999 V2000
  186.3730  178.9270  140.3540 N   0  0  0  0  0  2  0  0  0  0  0  0
  189.3510  177.5730  138.5990 C   0  0  0  0  0  0  0  0  0  0  0  0
  191.4630  176.8860  139.2120 N   0  0  0  0  0  2  0  0  0  0  0  0
  189.8580  177.6800  140.9520 C   0  0  0  0  0  3  0  0  0  0  0  0
  188.0680  178.0820  138.8040 C   0  0  0  0  0  3  0  0  0  0  0  0
  190.2130  177.3840  139.6380 C   0  0  0  0  0  0  0  0  0  0  0  0
  191.4100  176.7420  137.7560 C   0  0  2  0  0  3  0  0  0  0  0  0
  189.9950  177.1810  137.3200 C   0  0  0  0  0  2  0  0  0  0  0  0
  188.5720  178.1910  141.1870 C   0  0  0  0  0  3  0  0  0  0  0  0
  187.6760  178.3980  140.1170 C   0  0  0  0  0  0  0  0  0  0  0  0
  191.6650  175.0010  137.3010 S   0  0  0  0  0  0  0  0  0  0  0  0
  194.2100  175.5750  136.4720 C   0  0  0  0  0  2  0  0  0  0  0  0
  193.4430  175.0060  137.6790 C   0  0  2  0  0  3  0  0  0  0  0  0
  195.2940  174.6300  136.3130 N   0  0  1  0  0  0  0  0  0  0  0  0
  195.8520  172.4100  136.3880 C   0  0  2  0  0  3  0  0  0  0  0  0
  194.6750  173.3530  136.5340 C   0  0  1  0  0  0  0  0  0  0  0  0
  193.9630  173.5600  137.8420 C   0  0  0  0  0  2  0  0  0  0  0  0
  195.9980  174.4630  135.0590 C   0  0  0  0  0  2  0  0  0  0  0  0
  193.7110  173.0680  135.5430 O   0  0  0  0  0  1  0  0  0  0  0  0
  196.5890  173.0420  135.1860 C   0  0  0  0  0  2  0  0  0  0  0  0
  195.4470  170.9710  136.0810 C   0  0  0  0  0  2  0  0  0  0  0  0
  195.4320  168.8090  137.4230 N   0  0  0  0  0  2  0  0  0  0  0  0
  197.2050  170.2980  137.5400 O   0  0  0  0  0  0  0  0  0  0  0  0
  194.1210  168.4350  136.9190 C   0  0  0  0  0  1  0  0  0  0  0  0
  196.0740  170.0290  137.0590 C   0  0  0  0  0  0  0  0  0  0  0  0
  186.0010  179.4090  141.6170 N   0  0  0  0  0  2  0  0  0  0  0  0
  185.1490  178.4070  142.2320 C   0  0  0  0  0  2  0  0  0  0  0  0
  184.3480  179.0270  143.3740 C   0  0  1  0  0  3  0  0  0  0  0  0
  182.8920  179.2250  142.9440 C   0  0  1  0  0  3  0  0  0  0  0  0
  180.3430  178.1290  142.1720 C   0  0  0  0  0  2  0  0  0  0  0  0
  182.6130  178.5310  141.6110 C   0  0  0  0  0  2  0  0  0  0  0  0
  181.0360  178.0880  139.9400 C   0  0  0  0  0  1  0  0  0  0  0  0
  181.2280  178.7720  141.2040 N   0  0  0  0  0  0  0  0  0  0  0  0
  180.4920  178.7900  143.5390 C   0  0  0  0  0  2  0  0  0  0  0  0
  181.9400  178.6630  144.0040 C   0  0  0  0  0  2  0  0  0  0  0  0
  184.4090  178.1800  144.4900 O   0  0  0  0  0  0  0  0  0  0  0  0
  185.7510  177.8940  146.3890 C   0  0  1  0  0  3  0  0  0  0  0  0
  184.6320  178.6830  146.7060 O   0  0  0  0  0  0  0  0  0  0  0  0
  185.1850  178.8650  145.4270 C   0  0  2  0  0  3  0  0  0  0  0  0
  186.9290  178.4570  147.0260 N   0  0  0  0  0  2  0  0  0  0  0  0
  189.3120  177.5330  148.0340 S   0  0  0  0  0  0  0  0  0  0  0  0
  190.0360  177.0110  145.6900 C   0  0  0  0  0  0  0  0  0  0  0  0
  190.4880  176.9150  147.0090 C   0  0  0  0  0  0  0  0  0  0  0  0
  188.2300  177.9180  146.8070 C   0  0  0  0  0  0  0  0  0  0  0  0
  188.7590  177.5690  145.5710 C   0  0  0  0  0  3  0  0  0  0  0  0
  192.7020  175.8340  147.8280 N   0  0  0  0  0  0  0  0  0  0  0  0
  191.7150  176.3170  147.4620 C   0  0  0  0  0  0  0  0  0  0  0  0
  190.7730  176.5960  144.5420 N   0  0  0  0  0  2  0  0  0  0  0  0
  191.6100  177.4260  143.8700 O   0  0  0  0  0  1  0  0  0  0  0  0
  1 26  1  0  0  0  0
  2  5  2  0  0  0  0
  2  6  1  0  0  0  0
  3  6  1  0  0  0  0
  4  9  1  0  0  0  0
  5 10  1  0  0  0  0
  6  4  2  0  0  0  0
  7 11  1  1  0  0  0
  7  3  1  0  0  0  0
  8  7  1  0  0  0  0
  8  2  1  0  0  0  0
 10  1  1  0  0  0  0
 10  9  2  0  0  0  0
 12 13  1  0  0  0  0
 13 11  1  6  0  0  0
 13 17  1  0  0  0  0
 14 18  1  6  0  0  0
 14 12  1  0  0  0  0
 14 16  1  0  0  0  0
 15 21  1  6  0  0  0
 15 16  1  0  0  0  0
 16 19  1  6  0  0  0
 16 17  1  0  0  0  0
 18 20  1  0  0  0  0
 20 15  1  0  0  0  0
 21 25  1  0  0  0  0
 24 22  1  0  0  0  0
 25 22  1  0  0  0  0
 25 23  2  0  0  0  0
 26 27  1  0  0  0  0
 28 27  1  6  0  0  0
 28 36  1  0  0  0  0
 29 28  1  1  0  0  0
 29 35  1  0  0  0  0
 30 34  1  0  0  0  0
 31 29  1  0  0  0  0
 32 33  1  0  0  0  0
 33 31  1  0  0  0  0
 33 30  1  0  0  0  0
 34 35  1  0  0  0  0
 37 38  1  0  0  0  0
 37 40  1  1  0  0  0
 39 36  1  6  0  0  0
 39 37  1  0  0  0  0
 39 38  1  0  0  0  0
 42 43  2  0  0  0  0
 43 47  1  0  0  0  0
 43 41  1  0  0  0  0
 44 40  1  0  0  0  0
 44 41  1  0  0  0  0
 45 42  1  0  0  0  0
 45 44  2  0  0  0  0
 47 46  3  0  0  0  0
 48 42  1  0  0  0  0
 49 48  1  0  0  0  0
M  END
>  <MODEL>
3

>  <REMARK>
 VINA RESULT:      -7.9      3.654      5.359
  Name = 
  15 active torsions:
  status: ('A' for Active; 'I' for Inactive)
    1  A    between atoms: C_1  and  C_10
    2  A    between atoms: N_4  and  C_39
    3  A    between atoms: N_4  and  N_48
    4  A    between atoms: C_8  and  C_29
    5  A    between atoms: C_8  and  C_37
    6  A    between atoms: C_10  and  O_17
    7  A    between atoms: C_10  and  C_39
    8  A    between atoms: N_12  and  C_31
    9  A    between atoms: C_14  and  C_34
   10  A    between atoms: O_17  and  C_40
   11  A    between atoms: C_18  and  S_24
   12  A    between atoms: C_19  and  N_32
   13  A    between atoms: S_24  and  C_35
   14  A    between atoms: N_32  and  C_38
   15  A    between atoms: C_46  and  N_48
                            x       y       z     vdW  Elec       q    Type
                         _______ _______ _______ _____ _____    ______ ____

>  <TORSDO>
F 15

$$$$
=
 OpenBabel10232410553D

 49 55  0  0  1  0  0  0  0  0999 V2000
  188.7360  178.3390  140.6600 N   0  0  0  0  0  2  0  0  0  0  0  0
  188.7050  176.4160  137.4850 C   0  0  0  0  0  0  0  0  0  0  0  0
  188.9470  176.9120  135.2470 N   0  0  0  0  0  2  0  0  0  0  0  0
  189.1250  178.7280  136.9510 C   0  0  0  0  0  3  0  0  0  0  0  0
  188.6340  176.6950  138.8500 C   0  0  0  0  0  3  0  0  0  0  0  0
  188.9380  177.4020  136.5710 C   0  0  0  0  0  0  0  0  0  0  0  0
  188.6900  175.4710  135.3050 C   0  0  2  0  0  3  0  0  0  0  0  0
  188.5410  175.1090  136.8000 C   0  0  0  0  0  2  0  0  0  0  0  0
  189.0600  179.0370  138.3190 C   0  0  0  0  0  3  0  0  0  0  0  0
  188.8110  178.0260  139.2710 C   0  0  0  0  0  0  0  0  0  0  0  0
  190.1020  174.5660  134.6070 S   0  0  0  0  0  0  0  0  0  0  0  0
  192.4280  176.0010  134.7730 C   0  0  0  0  0  2  0  0  0  0  0  0
  191.3380  175.3770  135.6640 C   0  0  2  0  0  3  0  0  0  0  0  0
  193.6480  175.5830  135.4280 N   0  0  1  0  0  0  0  0  0  0  0  0
  194.6770  173.8470  136.5120 C   0  0  2  0  0  3  0  0  0  0  0  0
  193.3890  174.2220  135.8090 C   0  0  1  0  0  0  0  0  0  0  0  0
  192.0750  174.3310  136.5310 C   0  0  0  0  0  2  0  0  0  0  0  0
  194.9160  175.5140  134.7330 C   0  0  0  0  0  2  0  0  0  0  0  0
  193.2070  173.3960  134.6780 O   0  0  0  0  0  1  0  0  0  0  0  0
  195.7230  174.5140  135.5910 C   0  0  0  0  0  2  0  0  0  0  0  0
  194.9110  172.3410  136.5980 C   0  0  0  0  0  2  0  0  0  0  0  0
  195.5120  170.5800  138.3330 N   0  0  0  0  0  2  0  0  0  0  0  0
  195.3450  172.8240  138.8890 O   0  0  0  0  0  0  0  0  0  0  0  0
  195.4120  169.5030  137.3630 C   0  0  0  0  0  1  0  0  0  0  0  0
  195.2500  171.9410  137.9980 C   0  0  0  0  0  0  0  0  0  0  0  0
  187.6020  178.0150  141.4190 N   0  0  0  0  0  2  0  0  0  0  0  0
  186.5010  178.8210  140.9230 C   0  0  0  0  0  2  0  0  0  0  0  0
  185.3250  178.7590  141.8940 C   0  0  1  0  0  3  0  0  0  0  0  0
  184.0320  178.4530  141.1310 C   0  0  1  0  0  3  0  0  0  0  0  0
  181.4930  179.3060  140.0740 C   0  0  0  0  0  2  0  0  0  0  0  0
  182.8030  178.7780  141.9810 C   0  0  0  0  0  2  0  0  0  0  0  0
  180.4660  178.7690  142.1040 C   0  0  0  0  0  1  0  0  0  0  0  0
  181.5850  178.4370  141.2430 N   0  0  0  0  0  0  0  0  0  0  0  0
  182.6470  179.0220  139.1170 C   0  0  0  0  0  2  0  0  0  0  0  0
  183.9700  179.2690  139.8370 C   0  0  0  0  0  2  0  0  0  0  0  0
  185.5690  177.7600  142.8470 O   0  0  0  0  0  0  0  0  0  0  0  0
  186.2340  177.4630  145.0740 C   0  0  1  0  0  3  0  0  0  0  0  0
  185.0590  178.2320  145.0220 O   0  0  0  0  0  0  0  0  0  0  0  0
  185.9910  178.4410  143.9910 C   0  0  2  0  0  3  0  0  0  0  0  0
  187.1350  178.0330  146.0610 N   0  0  0  0  0  2  0  0  0  0  0  0
  189.2880  177.2390  147.5740 S   0  0  0  0  0  0  0  0  0  0  0  0
  190.6190  177.0190  145.4610 C   0  0  0  0  0  0  0  0  0  0  0  0
  190.7420  176.8360  146.8400 C   0  0  0  0  0  0  0  0  0  0  0  0
  188.5030  177.6400  146.1430 C   0  0  0  0  0  0  0  0  0  0  0  0
  189.3560  177.4650  145.0600 C   0  0  0  0  0  3  0  0  0  0  0  0
  192.7970  175.8930  148.1160 N   0  0  0  0  0  0  0  0  0  0  0  0
  191.8800  176.3120  147.5470 C   0  0  0  0  0  0  0  0  0  0  0  0
  191.6590  176.7880  144.5110 N   0  0  0  0  0  2  0  0  0  0  0  0
  191.6830  177.3830  143.2920 O   0  0  0  0  0  1  0  0  0  0  0  0
  1 26  1  0  0  0  0
  2  5  1  0  0  0  0
  3  7  1  0  0  0  0
  3  6  1  0  0  0  0
  4  9  2  0  0  0  0
  5 10  2  0  0  0  0
  6  4  1  0  0  0  0
  6  2  2  0  0  0  0
  7 11  1  1  0  0  0
  7  8  1  0  0  0  0
  8  2  1  0  0  0  0
  9 10  1  0  0  0  0
 10  1  1  0  0  0  0
 12 14  1  0  0  0  0
 12 13  1  0  0  0  0
 13 11  1  6  0  0  0
 13 17  1  0  0  0  0
 14 18  1  6  0  0  0
 14 16  1  0  0  0  0
 15 21  1  6  0  0  0
 16 19  1  6  0  0  0
 16 15  1  0  0  0  0
 16 17  1  0  0  0  0
 18 20  1  0  0  0  0
 20 15  1  0  0  0  0
 21 25  1  0  0  0  0
 24 22  1  0  0  0  0
 25 22  1  0  0  0  0
 25 23  2  0  0  0  0
 27 26  1  0  0  0  0
 28 27  1  6  0  0  0
 28 36  1  0  0  0  0
 29 28  1  1  0  0  0
 29 31  1  0  0  0  0
 30 33  1  0  0  0  0
 33 31  1  0  0  0  0
 33 32  1  0  0  0  0
 34 35  1  0  0  0  0
 34 30  1  0  0  0  0
 35 29  1  0  0  0  0
 37 40  1  1  0  0  0
 38 37  1  0  0  0  0
 39 36  1  6  0  0  0
 39 38  1  0  0  0  0
 39 37  1  0  0  0  0
 40 44  1  0  0  0  0
 42 43  2  0  0  0  0
 43 47  1  0  0  0  0
 43 41  1  0  0  0  0
 44 41  1  0  0  0  0
 45 42  1  0  0  0  0
 45 44  2  0  0  0  0
 47 46  3  0  0  0  0
 48 42  1  0  0  0  0
 49 48  1  0  0  0  0
M  END
>  <MODEL>
4

>  <REMARK>
 VINA RESULT:      -7.1      3.213      5.225
  Name = 
  15 active torsions:
  status: ('A' for Active; 'I' for Inactive)
    1  A    between atoms: C_1  and  C_10
    2  A    between atoms: N_4  and  C_39
    3  A    between atoms: N_4  and  N_48
    4  A    between atoms: C_8  and  C_29
    5  A    between atoms: C_8  and  C_37
    6  A    between atoms: C_10  and  O_17
    7  A    between atoms: C_10  and  C_39
    8  A    between atoms: N_12  and  C_31
    9  A    between atoms: C_14  and  C_34
   10  A    between atoms: O_17  and  C_40
   11  A    between atoms: C_18  and  S_24
   12  A    between atoms: C_19  and  N_32
   13  A    between atoms: S_24  and  C_35
   14  A    between atoms: N_32  and  C_38
   15  A    between atoms: C_46  and  N_48
                            x       y       z     vdW  Elec       q    Type
                         _______ _______ _______ _____ _____    ______ ____

>  <TORSDO>
F 15

$$$$
=
 OpenBabel10232410553D

 49 55  0  0  1  0  0  0  0  0999 V2000
  182.3990  176.5690  139.0980 N   0  0  0  0  0  2  0  0  0  0  0  0
  184.5650  174.7910  136.6640 C   0  0  0  0  0  0  0  0  0  0  0  0
  185.1310  175.0610  134.4460 N   0  0  0  0  0  2  0  0  0  0  0  0
  183.5980  176.6940  135.5480 C   0  0  0  0  0  3  0  0  0  0  0  0
  183.9130  175.1000  137.8570 C   0  0  0  0  0  3  0  0  0  0  0  0
  184.4070  175.5610  135.5490 C   0  0  0  0  0  0  0  0  0  0  0  0
  185.8240  173.8460  134.8830 C   0  0  2  0  0  3  0  0  0  0  0  0
  185.4730  173.6520  136.3750 C   0  0  0  0  0  2  0  0  0  0  0  0
  182.9320  177.0300  136.7360 C   0  0  0  0  0  3  0  0  0  0  0  0
  183.0820  176.2340  137.8920 C   0  0  0  0  0  0  0  0  0  0  0  0
  187.6190  174.0660  134.7130 S   0  0  0  0  0  0  0  0  0  0  0  0
  188.0220  175.9830  136.6250 C   0  0  0  0  0  2  0  0  0  0  0  0
  187.8900  174.4570  136.4660 C   0  0  2  0  0  3  0  0  0  0  0  0
  189.1830  176.1120  137.4780 N   0  0  1  0  0  0  0  0  0  0  0  0
  191.2710  175.2780  137.9180 C   0  0  2  0  0  3  0  0  0  0  0  0
  190.0950  175.1220  136.9760 C   0  0  1  0  0  0  0  0  0  0  0  0
  189.2430  173.8830  136.9430 C   0  0  0  0  0  2  0  0  0  0  0  0
  189.9770  177.3220  137.5290 C   0  0  0  0  0  2  0  0  0  0  0  0
  190.5000  175.4170  135.6560 O   0  0  0  0  0  1  0  0  0  0  0  0
  191.3390  176.8150  138.0540 C   0  0  0  0  0  2  0  0  0  0  0  0
  192.5790  174.7240  137.3590 C   0  0  0  0  0  2  0  0  0  0  0  0
  194.2720  176.4090  136.4800 N   0  0  0  0  0  2  0  0  0  0  0  0
  194.1060  175.9200  138.7400 O   0  0  0  0  0  0  0  0  0  0  0  0
  193.8580  176.1970  135.1040 C   0  0  0  0  0  1  0  0  0  0  0  0
  193.6950  175.6960  137.5730 C   0  0  0  0  0  0  0  0  0  0  0  0
  183.0910  177.0530  140.2170 N   0  0  0  0  0  2  0  0  0  0  0  0
  184.0580  178.0280  139.7420 C   0  0  0  0  0  2  0  0  0  0  0  0
  184.2540  179.1240  140.7860 C   0  0  1  0  0  3  0  0  0  0  0  0
  183.8910  178.5940  142.1760 C   0  0  1  0  0  3  0  0  0  0  0  0
  183.0910  179.0700  144.9010 C   0  0  0  0  0  2  0  0  0  0  0  0
  184.7900  179.2090  143.2500 C   0  0  0  0  0  2  0  0  0  0  0  0
  185.3350  179.2780  145.5250 C   0  0  0  0  0  1  0  0  0  0  0  0
  184.4490  178.6530  144.5610 N   0  0  0  0  0  0  0  0  0  0  0  0
  182.0940  178.4580  143.9230 C   0  0  0  0  0  2  0  0  0  0  0  0
  182.4310  178.9170  142.5060 C   0  0  0  0  0  2  0  0  0  0  0  0
  185.5920  179.5440  140.7650 O   0  0  0  0  0  0  0  0  0  0  0  0
  187.6980  178.6380  141.2510 C   0  0  1  0  0  3  0  0  0  0  0  0
  187.4460  178.5550  139.8710 O   0  0  0  0  0  0  0  0  0  0  0  0
  186.3440  178.3680  140.7210 C   0  0  2  0  0  3  0  0  0  0  0  0
  188.3100  177.4000  141.7010 N   0  0  0  0  0  2  0  0  0  0  0  0
  190.3690  176.7230  143.3890 S   0  0  0  0  0  0  0  0  0  0  0  0
  188.9210  177.3800  145.3280 C   0  0  0  0  0  0  0  0  0  0  0  0
  190.2050  176.9040  145.0490 C   0  0  0  0  0  0  0  0  0  0  0  0
  188.8160  177.2510  143.0250 C   0  0  0  0  0  0  0  0  0  0  0  0
  188.1350  177.5850  144.1890 C   0  0  0  0  0  3  0  0  0  0  0  0
  192.1220  176.4860  146.7490 N   0  0  0  0  0  0  0  0  0  0  0  0
  191.2670  176.6740  145.9910 C   0  0  0  0  0  0  0  0  0  0  0  0
  188.4140  177.6430  146.6350 N   0  0  0  0  0  2  0  0  0  0  0  0
  188.4860  176.7380  147.6440 O   0  0  0  0  0  1  0  0  0  0  0  0
  1 26  1  0  0  0  0
  2  5  1  0  0  0  0
  3  7  1  0  0  0  0
  3  6  1  0  0  0  0
  4  6  1  0  0  0  0
  4  9  2  0  0  0  0
  5 10  2  0  0  0  0
  6  2  2  0  0  0  0
  7 11  1  1  0  0  0
  7  8  1  0  0  0  0
  8  2  1  0  0  0  0
  9 10  1  0  0  0  0
 10  1  1  0  0  0  0
 13 11  1  6  0  0  0
 13 12  1  0  0  0  0
 13 17  1  0  0  0  0
 14 12  1  6  0  0  0
 14 18  1  0  0  0  0
 15 21  1  6  0  0  0
 15 20  1  0  0  0  0
 16 19  1  6  0  0  0
 16 14  1  0  0  0  0
 16 15  1  0  0  0  0
 17 16  1  0  0  0  0
 18 20  1  0  0  0  0
 21 25  1  0  0  0  0
 22 25  1  0  0  0  0
 24 22  1  0  0  0  0
 25 23  2  0  0  0  0
 27 26  1  0  0  0  0
 28 27  1  6  0  0  0
 29 28  1  6  0  0  0
 29 35  1  0  0  0  0
 29 31  1  0  0  0  0
 31 33  1  0  0  0  0
 33 30  1  0  0  0  0
 33 32  1  0  0  0  0
 34 30  1  0  0  0  0
 35 34  1  0  0  0  0
 36 28  1  0  0  0  0
 37 40  1  1  0  0  0
 38 39  1  0  0  0  0
 38 37  1  0  0  0  0
 39 36  1  6  0  0  0
 39 37  1  0  0  0  0
 40 44  1  0  0  0  0
 41 43  1  0  0  0  0
 42 48  1  0  0  0  0
 43 42  2  0  0  0  0
 43 47  1  0  0  0  0
 44 41  1  0  0  0  0
 44 45  2  0  0  0  0
 45 42  1  0  0  0  0
 47 46  3  0  0  0  0
 48 49  1  0  0  0  0
M  END
>  <MODEL>
5

>  <REMARK>
 VINA RESULT:      -7.0      2.526      5.530
  Name = 
  15 active torsions:
  status: ('A' for Active; 'I' for Inactive)
    1  A    between atoms: C_1  and  C_10
    2  A    between atoms: N_4  and  C_39
    3  A    between atoms: N_4  and  N_48
    4  A    between atoms: C_8  and  C_29
    5  A    between atoms: C_8  and  C_37
    6  A    between atoms: C_10  and  O_17
    7  A    between atoms: C_10  and  C_39
    8  A    between atoms: N_12  and  C_31
    9  A    between atoms: C_14  and  C_34
   10  A    between atoms: O_17  and  C_40
   11  A    between atoms: C_18  and  S_24
   12  A    between atoms: C_19  and  N_32
   13  A    between atoms: S_24  and  C_35
   14  A    between atoms: N_32  and  C_38
   15  A    between atoms: C_46  and  N_48
                            x       y       z     vdW  Elec       q    Type
                         _______ _______ _______ _____ _____    ______ ____

>  <TORSDO>
F 15

$$$$
=
 OpenBabel10232410553D

 49 55  0  0  1  0  0  0  0  0999 V2000
  187.6380  178.4620  138.6060 N   0  0  0  0  0  2  0  0  0  0  0  0
  190.5750  176.2360  138.1580 C   0  0  0  0  0  0  0  0  0  0  0  0
  190.9600  174.1750  137.2010 N   0  0  0  0  0  2  0  0  0  0  0  0
  188.6750  175.1780  137.1220 C   0  0  0  0  0  3  0  0  0  0  0  0
  189.8110  177.3360  138.5470 C   0  0  0  0  0  3  0  0  0  0  0  0
  190.0220  175.1940  137.4730 C   0  0  0  0  0  0  0  0  0  0  0  0
  192.2450  174.5920  137.7650 C   0  0  2  0  0  3  0  0  0  0  0  0
  192.0180  175.9820  138.4000 C   0  0  0  0  0  2  0  0  0  0  0  0
  187.8820  176.2730  137.4980 C   0  0  0  0  0  3  0  0  0  0  0  0
  188.4440  177.3520  138.2140 C   0  0  0  0  0  0  0  0  0  0  0  0
  193.4820  174.7320  136.4420 S   0  0  0  0  0  0  0  0  0  0  0  0
  196.1990  174.6960  136.7740 C   0  0  0  0  0  2  0  0  0  0  0  0
  194.8960  174.3450  137.5160 C   0  0  2  0  0  3  0  0  0  0  0  0
  197.0190  173.5270  137.0080 N   0  0  1  0  0  0  0  0  0  0  0  0
  197.0020  171.2410  137.1460 C   0  0  2  0  0  3  0  0  0  0  0  0
  196.1050  172.4280  136.8640 C   0  0  1  0  0  0  0  0  0  0  0  0
  194.9760  172.8230  137.7740 C   0  0  0  0  0  2  0  0  0  0  0  0
  198.1260  173.1740  136.1450 C   0  0  0  0  0  2  0  0  0  0  0  0
  195.6040  172.3430  135.5460 O   0  0  0  0  0  1  0  0  0  0  0  0
  198.2900  171.6590  136.4020 C   0  0  0  0  0  2  0  0  0  0  0  0
  196.4620  169.9220  136.5990 C   0  0  0  0  0  2  0  0  0  0  0  0
  194.2130  169.0810  137.4430 N   0  0  0  0  0  2  0  0  0  0  0  0
  196.1660  168.7450  138.6470 O   0  0  0  0  0  0  0  0  0  0  0  0
  193.5100  169.6270  136.2950 C   0  0  0  0  0  1  0  0  0  0  0  0
  195.6200  169.2330  137.6250 C   0  0  0  0  0  0  0  0  0  0  0  0
  186.9760  178.4800  139.8410 N   0  0  0  0  0  2  0  0  0  0  0  0
  185.5670  178.7160  139.5770 C   0  0  0  0  0  2  0  0  0  0  0  0
  184.8190  178.9500  140.8870 C   0  0  1  0  0  3  0  0  0  0  0  0
  183.3080  178.9260  140.6370 C   0  0  1  0  0  3  0  0  0  0  0  0
  181.0610  178.2300  138.9760 C   0  0  0  0  0  2  0  0  0  0  0  0
  182.9590  179.6130  139.3160 C   0  0  0  0  0  2  0  0  0  0  0  0
  181.2510  180.2740  137.8590 C   0  0  0  0  0  1  0  0  0  0  0  0
  181.5080  179.6120  139.1240 N   0  0  0  0  0  0  0  0  0  0  0  0
  181.3060  177.4580  140.2690 C   0  0  0  0  0  2  0  0  0  0  0  0
  182.7960  177.4830  140.5970 C   0  0  0  0  0  2  0  0  0  0  0  0
  185.1710  177.9480  141.8020 O   0  0  0  0  0  0  0  0  0  0  0  0
  185.8560  177.6410  144.0210 C   0  0  1  0  0  3  0  0  0  0  0  0
  184.6070  178.2850  143.9890 O   0  0  0  0  0  0  0  0  0  0  0  0
  185.5150  178.6270  142.9730 C   0  0  2  0  0  3  0  0  0  0  0  0
  186.6890  178.2650  145.0350 N   0  0  0  0  0  2  0  0  0  0  0  0
  188.7310  177.6960  146.7840 S   0  0  0  0  0  0  0  0  0  0  0  0
  190.1480  177.0320  144.8260 C   0  0  0  0  0  0  0  0  0  0  0  0
  190.1980  177.1100  146.2200 C   0  0  0  0  0  0  0  0  0  0  0  0
  188.0330  177.8470  145.2630 C   0  0  0  0  0  0  0  0  0  0  0  0
  188.9260  177.4390  144.2810 C   0  0  0  0  0  3  0  0  0  0  0  0
  192.1460  176.3510  147.7590 N   0  0  0  0  0  0  0  0  0  0  0  0
  191.2770  176.6900  147.0730 C   0  0  0  0  0  0  0  0  0  0  0  0
  191.2190  176.5880  143.9940 N   0  0  0  0  0  2  0  0  0  0  0  0
  191.9150  177.4270  143.1860 O   0  0  0  0  0  1  0  0  0  0  0  0
  1 26  1  0  0  0  0
  2  8  1  0  0  0  0
  2  5  1  0  0  0  0
  3  6  1  0  0  0  0
  3  7  1  0  0  0  0
  4  6  1  0  0  0  0
  4  9  2  0  0  0  0
  6  2  2  0  0  0  0
  7 11  1  6  0  0  0
  7  8  1  0  0  0  0
  9 10  1  0  0  0  0
 10  5  2  0  0  0  0
 10  1  1  0  0  0  0
 12 14  1  0  0  0  0
 12 13  1  0  0  0  0
 13 11  1  6  0  0  0
 13 17  1  0  0  0  0
 14 18  1  6  0  0  0
 15 21  1  6  0  0  0
 16 19  1  6  0  0  0
 16 14  1  0  0  0  0
 16 15  1  0  0  0  0
 16 17  1  0  0  0  0
 18 20  1  0  0  0  0
 20 15  1  0  0  0  0
 21 25  1  0  0  0  0
 22 25  1  0  0  0  0
 24 22  1  0  0  0  0
 25 23  2  0  0  0  0
 27 26  1  0  0  0  0
 28 27  1  6  0  0  0
 28 36  1  0  0  0  0
 29 28  1  6  0  0  0
 30 33  1  0  0  0  0
 30 34  1  0  0  0  0
 31 29  1  0  0  0  0
 32 33  1  0  0  0  0
 33 31  1  0  0  0  0
 34 35  1  0  0  0  0
 35 29  1  0  0  0  0
 37 40  1  1  0  0  0
 38 37  1  0  0  0  0
 39 36  1  6  0  0  0
 39 38  1  0  0  0  0
 39 37  1  0  0  0  0
 40 44  1  0  0  0  0
 42 43  2  0  0  0  0
 43 41  1  0  0  0  0
 43 47  1  0  0  0  0
 44 41  1  0  0  0  0
 45 42  1  0  0  0  0
 45 44  2  0  0  0  0
 47 46  3  0  0  0  0
 48 42  1  0  0  0  0
 49 48  1  0  0  0  0
M  END
>  <MODEL>
6

>  <REMARK>
 VINA RESULT:      -7.0      4.403      6.089
  Name = 
  15 active torsions:
  status: ('A' for Active; 'I' for Inactive)
    1  A    between atoms: C_1  and  C_10
    2  A    between atoms: N_4  and  C_39
    3  A    between atoms: N_4  and  N_48
    4  A    between atoms: C_8  and  C_29
    5  A    between atoms: C_8  and  C_37
    6  A    between atoms: C_10  and  O_17
    7  A    between atoms: C_10  and  C_39
    8  A    between atoms: N_12  and  C_31
    9  A    between atoms: C_14  and  C_34
   10  A    between atoms: O_17  and  C_40
   11  A    between atoms: C_18  and  S_24
   12  A    between atoms: C_19  and  N_32
   13  A    between atoms: S_24  and  C_35
   14  A    between atoms: N_32  and  C_38
   15  A    between atoms: C_46  and  N_48
                            x       y       z     vdW  Elec       q    Type
                         _______ _______ _______ _____ _____    ______ ____

>  <TORSDO>
F 15

$$$$
=
 OpenBabel10232410553D

 49 55  0  0  1  0  0  0  0  0999 V2000
  187.3910  178.5270  137.9900 N   0  0  0  0  0  2  0  0  0  0  0  0
  190.1580  176.0710  137.6810 C   0  0  0  0  0  0  0  0  0  0  0  0
  190.3500  173.8660  137.0390 N   0  0  0  0  0  2  0  0  0  0  0  0
  188.1230  174.9920  136.9750 C   0  0  0  0  0  3  0  0  0  0  0  0
  189.4880  177.2660  137.9460 C   0  0  0  0  0  3  0  0  0  0  0  0
  189.4940  174.9740  137.2160 C   0  0  0  0  0  0  0  0  0  0  0  0
  191.6990  174.2810  137.4300 C   0  0  2  0  0  3  0  0  0  0  0  0
  191.6010  175.7640  137.8500 C   0  0  0  0  0  2  0  0  0  0  0  0
  187.4240  176.1820  137.2310 C   0  0  0  0  0  3  0  0  0  0  0  0
  188.1010  177.3190  137.7200 C   0  0  0  0  0  0  0  0  0  0  0  0
  192.8240  174.1330  136.0110 S   0  0  0  0  0  0  0  0  0  0  0  0
  194.7360  176.0830  135.8250 C   0  0  0  0  0  2  0  0  0  0  0  0
  194.1890  175.0300  136.8060 C   0  0  2  0  0  3  0  0  0  0  0  0
  196.1670  175.8930  135.9240 N   0  0  1  0  0  0  0  0  0  0  0  0
  197.8270  174.3260  136.1110 C   0  0  2  0  0  3  0  0  0  0  0  0
  196.3250  174.4660  135.9780 C   0  0  1  0  0  0  0  0  0  0  0  0
  195.3750  174.0760  137.0770 C   0  0  0  0  0  2  0  0  0  0  0  0
  197.0760  176.3040  134.8760 C   0  0  0  0  0  2  0  0  0  0  0  0
  195.8940  173.8540  134.7810 O   0  0  0  0  0  1  0  0  0  0  0  0
  198.3140  175.4140  135.1280 C   0  0  0  0  0  2  0  0  0  0  0  0
  198.3510  172.9520  135.7030 C   0  0  0  0  0  2  0  0  0  0  0  0
  198.0480  171.0440  137.3600 N   0  0  0  0  0  2  0  0  0  0  0  0
  199.8420  172.5060  137.5060 O   0  0  0  0  0  0  0  0  0  0  0  0
  196.8140  170.6110  136.7270 C   0  0  0  0  0  1  0  0  0  0  0  0
  198.7860  172.1770  136.9060 C   0  0  0  0  0  0  0  0  0  0  0  0
  186.0170  178.6370  137.7290 N   0  0  0  0  0  2  0  0  0  0  0  0
  185.3120  178.2020  138.9220 C   0  0  0  0  0  2  0  0  0  0  0  0
  184.2120  179.1990  139.2750 C   0  0  1  0  0  3  0  0  0  0  0  0
  182.8610  178.4830  139.3510 C   0  0  1  0  0  3  0  0  0  0  0  0
  180.9620  176.6090  138.2660 C   0  0  0  0  0  2  0  0  0  0  0  0
  182.0460  178.7120  138.0770 C   0  0  0  0  0  2  0  0  0  0  0  0
  180.0310  178.3080  136.9580 C   0  0  0  0  0  1  0  0  0  0  0  0
  180.7450  178.0510  138.1940 N   0  0  0  0  0  0  0  0  0  0  0  0
  181.7190  176.2560  139.5420 C   0  0  0  0  0  2  0  0  0  0  0  0
  183.0640  176.9780  139.5460 C   0  0  0  0  0  2  0  0  0  0  0  0
  184.5110  179.7930  140.5100 O   0  0  0  0  0  0  0  0  0  0  0  0
  185.2400  178.8230  142.5140 C   0  0  1  0  0  3  0  0  0  0  0  0
  186.2030  179.7320  142.0420 O   0  0  0  0  0  0  0  0  0  0  0  0
  185.5090  178.9920  141.0700 C   0  0  2  0  0  3  0  0  0  0  0  0
  185.9090  177.6310  143.0050 N   0  0  0  0  0  2  0  0  0  0  0  0
  186.2860  178.1070  145.6850 S   0  0  0  0  0  0  0  0  0  0  0  0
  188.6710  177.3800  145.4210 C   0  0  0  0  0  0  0  0  0  0  0  0
  187.7770  177.8200  146.4000 C   0  0  0  0  0  0  0  0  0  0  0  0
  186.7730  177.6680  144.1380 C   0  0  0  0  0  0  0  0  0  0  0  0
  188.1080  177.2840  144.1440 C   0  0  0  0  0  3  0  0  0  0  0  0
  188.2310  178.0440  148.9460 N   0  0  0  0  0  0  0  0  0  0  0  0
  188.0280  177.9440  147.8110 C   0  0  0  0  0  0  0  0  0  0  0  0
  190.0390  177.0490  145.6550 N   0  0  0  0  0  2  0  0  0  0  0  0
  191.0600  177.6380  144.9830 O   0  0  0  0  0  1  0  0  0  0  0  0
  2  8  1  0  0  0  0
  2  5  1  0  0  0  0
  3  6  1  0  0  0  0
  3  7  1  0  0  0  0
  4  6  1  0  0  0  0
  4  9  2  0  0  0  0
  6  2  2  0  0  0  0
  7 11  1  6  0  0  0
  7  8  1  0  0  0  0
  9 10  1  0  0  0  0
 10  5  2  0  0  0  0
 10  1  1  0  0  0  0
 12 14  1  0  0  0  0
 12 13  1  0  0  0  0
 13 11  1  6  0  0  0
 13 17  1  0  0  0  0
 14 18  1  6  0  0  0
 14 16  1  0  0  0  0
 15 21  1  6  0  0  0
 16 19  1  6  0  0  0
 16 15  1  0  0  0  0
 16 17  1  0  0  0  0
 18 20  1  0  0  0  0
 20 15  1  0  0  0  0
 21 25  1  0  0  0  0
 24 22  1  0  0  0  0
 25 22  1  0  0  0  0
 25 23  2  0  0  0  0
 26  1  1  0  0  0  0
 26 27  1  0  0  0  0
 28 27  1  1  0  0  0
 28 36  1  0  0  0  0
 29 28  1  6  0  0  0
 29 35  1  0  0  0  0
 30 34  1  0  0  0  0
 31 33  1  0  0  0  0
 31 29  1  0  0  0  0
 32 33  1  0  0  0  0
 33 30  1  0  0  0  0
 34 35  1  0  0  0  0
 37 40  1  1  0  0  0
 38 37  1  0  0  0  0
 39 36  1  6  0  0  0
 39 38  1  0  0  0  0
 39 37  1  0  0  0  0
 40 44  1  0  0  0  0
 41 43  1  0  0  0  0
 42 48  1  0  0  0  0
 42 43  2  0  0  0  0
 43 47  1  0  0  0  0
 44 45  2  0  0  0  0
 44 41  1  0  0  0  0
 45 42  1  0  0  0  0
 47 46  3  0  0  0  0
 49 48  1  0  0  0  0
M  END
>  <MODEL>
7

>  <REMARK>
 VINA RESULT:      -6.8      4.708      6.941
  Name = 
  15 active torsions:
  status: ('A' for Active; 'I' for Inactive)
    1  A    between atoms: C_1  and  C_10
    2  A    between atoms: N_4  and  C_39
    3  A    between atoms: N_4  and  N_48
    4  A    between atoms: C_8  and  C_29
    5  A    between atoms: C_8  and  C_37
    6  A    between atoms: C_10  and  O_17
    7  A    between atoms: C_10  and  C_39
    8  A    between atoms: N_12  and  C_31
    9  A    between atoms: C_14  and  C_34
   10  A    between atoms: O_17  and  C_40
   11  A    between atoms: C_18  and  S_24
   12  A    between atoms: C_19  and  N_32
   13  A    between atoms: S_24  and  C_35
   14  A    between atoms: N_32  and  C_38
   15  A    between atoms: C_46  and  N_48
                            x       y       z     vdW  Elec       q    Type
                         _______ _______ _______ _____ _____    ______ ____

>  <TORSDO>
F 15

$$$$
=
 OpenBabel10232410553D

 49 55  0  0  1  0  0  0  0  0999 V2000
  182.2960  179.1550  141.9190 N   0  0  0  0  0  2  0  0  0  0  0  0
  183.1230  176.8010  139.1700 C   0  0  0  0  0  0  0  0  0  0  0  0
  184.3510  176.8970  137.2220 N   0  0  0  0  0  2  0  0  0  0  0  0
  184.2250  178.8940  138.7140 C   0  0  0  0  0  3  0  0  0  0  0  0
  182.5710  177.2950  140.3510 C   0  0  0  0  0  3  0  0  0  0  0  0
  183.9190  177.5780  138.3800 C   0  0  0  0  0  0  0  0  0  0  0  0
  183.7800  175.5490  137.2600 C   0  0  2  0  0  3  0  0  0  0  0  0
  182.9630  175.4530  138.5680 C   0  0  0  0  0  2  0  0  0  0  0  0
  183.6850  179.4170  139.8990 C   0  0  0  0  0  3  0  0  0  0  0  0
  182.8540  178.6230  140.7180 C   0  0  0  0  0  0  0  0  0  0  0  0
  185.1130  174.3160  137.2940 S   0  0  0  0  0  0  0  0  0  0  0  0
  186.6060  174.1310  135.0060 C   0  0  0  0  0  2  0  0  0  0  0  0
  186.1310  175.1610  136.0480 C   0  0  2  0  0  3  0  0  0  0  0  0
  188.0110  174.4430  134.8720 N   0  0  1  0  0  0  0  0  0  0  0  0
  189.8990  175.0530  136.0170 C   0  0  2  0  0  3  0  0  0  0  0  0
  188.4390  174.7050  136.2190 C   0  0  1  0  0  0  0  0  0  0  0  0
  187.4250  175.7090  136.6910 C   0  0  0  0  0  2  0  0  0  0  0  0
  188.9750  173.4800  134.3820 C   0  0  0  0  0  2  0  0  0  0  0  0
  188.3320  173.5520  137.0260 O   0  0  0  0  0  1  0  0  0  0  0  0
  190.3090  174.0090  134.9550 C   0  0  0  0  0  2  0  0  0  0  0  0
  190.7430  174.9020  137.2800 C   0  0  0  0  0  2  0  0  0  0  0  0
  192.5920  176.5670  137.8130 N   0  0  0  0  0  2  0  0  0  0  0  0
  190.3550  177.1030  138.1030 O   0  0  0  0  0  0  0  0  0  0  0  0
  193.6320  175.6190  137.4520 C   0  0  0  0  0  1  0  0  0  0  0  0
  191.2050  176.2390  137.7660 C   0  0  0  0  0  0  0  0  0  0  0  0
  182.9510  179.0150  143.1500 N   0  0  0  0  0  2  0  0  0  0  0  0
  184.3690  179.2170  142.9150 C   0  0  0  0  0  2  0  0  0  0  0  0
  185.1440  177.9440  143.2450 C   0  0  1  0  0  3  0  0  0  0  0  0
  186.6280  178.1360  142.9200 C   0  0  1  0  0  3  0  0  0  0  0  0
  188.9640  177.4230  141.3930 C   0  0  0  0  0  2  0  0  0  0  0  0
  187.3980  176.8230  143.0720 C   0  0  0  0  0  2  0  0  0  0  0  0
  189.4830  175.7660  142.9590 C   0  0  0  0  0  1  0  0  0  0  0  0
  188.8180  177.0460  142.7960 N   0  0  0  0  0  0  0  0  0  0  0  0
  188.2800  178.7620  141.1370 C   0  0  0  0  0  2  0  0  0  0  0  0
  186.7990  178.6470  141.4860 C   0  0  0  0  0  2  0  0  0  0  0  0
  184.9840  177.6510  144.6070 O   0  0  0  0  0  0  0  0  0  0  0  0
  186.1200  178.0500  146.6170 C   0  0  1  0  0  3  0  0  0  0  0  0
  185.1120  179.0130  146.4360 O   0  0  0  0  0  0  0  0  0  0  0  0
  185.7820  178.5800  145.2780 C   0  0  2  0  0  3  0  0  0  0  0  0
  187.3180  178.7020  147.1180 N   0  0  0  0  0  2  0  0  0  0  0  0
  189.4180  177.1090  147.8950 S   0  0  0  0  0  0  0  0  0  0  0  0
  190.5830  177.6980  145.7540 C   0  0  0  0  0  0  0  0  0  0  0  0
  190.7560  176.9180  146.9010 C   0  0  0  0  0  0  0  0  0  0  0  0
  188.6190  178.1740  146.8700 C   0  0  0  0  0  0  0  0  0  0  0  0
  189.3750  178.4020  145.7270 C   0  0  0  0  0  3  0  0  0  0  0  0
  192.7230  175.3030  147.4130 N   0  0  0  0  0  0  0  0  0  0  0  0
  191.8460  176.0240  147.1840 C   0  0  0  0  0  0  0  0  0  0  0  0
  191.5230  177.7990  144.6860 N   0  0  0  0  0  2  0  0  0  0  0  0
  191.4920  178.8040  143.7750 O   0  0  0  0  0  1  0  0  0  0  0  0
  1 26  1  0  0  0  0
  2  5  1  0  0  0  0
  3  7  1  0  0  0  0
  3  6  1  0  0  0  0
  4  9  2  0  0  0  0
  5 10  2  0  0  0  0
  6  4  1  0  0  0  0
  6  2  2  0  0  0  0
  7 11  1  1  0  0  0
  7  8  1  0  0  0  0
  8  2  1  0  0  0  0
  9 10  1  0  0  0  0
 10  1  1  0  0  0  0
 12 13  1  0  0  0  0
 13 17  1  0  0  0  0
 13 11  1  1  0  0  0
 14 18  1  1  0  0  0
 14 12  1  0  0  0  0
 14 16  1  0  0  0  0
 15 16  1  0  0  0  0
 15 21  1  1  0  0  0
 16 17  1  0  0  0  0
 16 19  1  1  0  0  0
 18 20  1  0  0  0  0
 20 15  1  0  0  0  0
 21 25  1  0  0  0  0
 24 22  1  0  0  0  0
 25 22  1  0  0  0  0
 25 23  2  0  0  0  0
 27 26  1  0  0  0  0
 28 27  1  1  0  0  0
 28 36  1  0  0  0  0
 29 31  1  0  0  0  0
 29 28  1  6  0  0  0
 30 33  1  0  0  0  0
 33 32  1  0  0  0  0
 33 31  1  0  0  0  0
 34 30  1  0  0  0  0
 34 35  1  0  0  0  0
 35 29  1  0  0  0  0
 37 40  1  1  0  0  0
 38 37  1  0  0  0  0
 39 36  1  6  0  0  0
 39 38  1  0  0  0  0
 39 37  1  0  0  0  0
 42 43  2  0  0  0  0
 43 47  1  0  0  0  0
 43 41  1  0  0  0  0
 44 40  1  0  0  0  0
 44 41  1  0  0  0  0
 45 42  1  0  0  0  0
 45 44  2  0  0  0  0
 47 46  3  0  0  0  0
 48 42  1  0  0  0  0
 49 48  1  0  0  0  0
M  END
>  <MODEL>
8

>  <REMARK>
 VINA RESULT:      -6.8      2.067      5.011
  Name = 
  15 active torsions:
  status: ('A' for Active; 'I' for Inactive)
    1  A    between atoms: C_1  and  C_10
    2  A    between atoms: N_4  and  C_39
    3  A    between atoms: N_4  and  N_48
    4  A    between atoms: C_8  and  C_29
    5  A    between atoms: C_8  and  C_37
    6  A    between atoms: C_10  and  O_17
    7  A    between atoms: C_10  and  C_39
    8  A    between atoms: N_12  and  C_31
    9  A    between atoms: C_14  and  C_34
   10  A    between atoms: O_17  and  C_40
   11  A    between atoms: C_18  and  S_24
   12  A    between atoms: C_19  and  N_32
   13  A    between atoms: S_24  and  C_35
   14  A    between atoms: N_32  and  C_38
   15  A    between atoms: C_46  and  N_48
                            x       y       z     vdW  Elec       q    Type
                         _______ _______ _______ _____ _____    ______ ____

>  <TORSDO>
F 15

$$$$
=
 OpenBabel10232410553D

 49 55  0  0  1  0  0  0  0  0999 V2000
  186.1900  178.1670  144.8990 N   0  0  0  0  0  2  0  0  0  0  0  0
  183.1560  178.6660  142.8200 C   0  0  0  0  0  0  0  0  0  0  0  0
  182.7260  179.1320  140.6040 N   0  0  0  0  0  2  0  0  0  0  0  0
  185.0810  178.8650  141.3860 C   0  0  0  0  0  3  0  0  0  0  0  0
  183.9540  178.4250  143.9380 C   0  0  0  0  0  3  0  0  0  0  0  0
  183.7040  178.8830  141.5900 C   0  0  0  0  0  0  0  0  0  0  0  0
  181.4150  179.0770  141.2560 C   0  0  2  0  0  3  0  0  0  0  0  0
  181.6750  178.7490  142.7430 C   0  0  0  0  0  2  0  0  0  0  0  0
  185.9090  178.6220  142.4930 C   0  0  0  0  0  3  0  0  0  0  0  0
  185.3510  178.4050  143.7710 C   0  0  0  0  0  0  0  0  0  0  0  0
  180.4150  177.7530  140.5150 S   0  0  0  0  0  0  0  0  0  0  0  0
  180.1120  177.6760  137.7960 C   0  0  0  0  0  2  0  0  0  0  0  0
  181.1900  177.8780  138.8760 C   0  0  2  0  0  3  0  0  0  0  0  0
  180.7460  176.7450  136.8890 N   0  0  1  0  0  0  0  0  0  0  0  0
  182.0810  174.8870  136.7610 C   0  0  2  0  0  3  0  0  0  0  0  0
  181.4130  175.8140  137.7570 C   0  0  1  0  0  0  0  0  0  0  0  0
  182.1940  176.7220  138.6660 C   0  0  0  0  0  2  0  0  0  0  0  0
  179.9860  175.8990  135.9910 C   0  0  0  0  0  2  0  0  0  0  0  0
  180.4910  175.0870  138.5400 O   0  0  0  0  0  1  0  0  0  0  0  0
  180.9670  174.7410  135.7000 C   0  0  0  0  0  2  0  0  0  0  0  0
  182.4530  173.5280  137.3480 C   0  0  0  0  0  2  0  0  0  0  0  0
  184.3200  172.2120  136.2260 N   0  0  0  0  0  2  0  0  0  0  0  0
  184.7710  173.9380  137.7060 O   0  0  0  0  0  0  0  0  0  0  0  0
  183.3770  171.3570  135.5260 C   0  0  0  0  0  1  0  0  0  0  0  0
  183.9030  173.2390  137.1240 C   0  0  0  0  0  0  0  0  0  0  0  0
  187.2770  177.2850  144.8240 N   0  0  0  0  0  2  0  0  0  0  0  0
  188.4750  178.0400  145.1500 C   0  0  0  0  0  2  0  0  0  0  0  0
  189.4660  177.9780  143.9910 C   0  0  1  0  0  3  0  0  0  0  0  0
  190.7320  177.2340  144.4260 C   0  0  1  0  0  3  0  0  0  0  0  0
  191.9910  175.0040  145.7440 C   0  0  0  0  0  2  0  0  0  0  0  0
  190.7500  177.0170  145.9390 C   0  0  0  0  0  2  0  0  0  0  0  0
  191.9370  176.1700  147.7690 C   0  0  0  0  0  1  0  0  0  0  0  0
  191.9880  176.3420  146.3300 N   0  0  0  0  0  0  0  0  0  0  0  0
  192.0360  175.0990  144.2220 C   0  0  0  0  0  2  0  0  0  0  0  0
  190.8160  175.8720  143.7290 C   0  0  0  0  0  2  0  0  0  0  0  0
  188.8670  177.3180  142.9090 O   0  0  0  0  0  0  0  0  0  0  0  0
  188.7620  177.4230  140.5710 C   0  0  1  0  0  3  0  0  0  0  0  0
  190.0760  177.6720  141.0050 O   0  0  0  0  0  0  0  0  0  0  0  0
  189.0430  178.1690  141.8170 C   0  0  2  0  0  3  0  0  0  0  0  0
  188.4290  178.3510  139.5040 N   0  0  0  0  0  2  0  0  0  0  0  0
  186.1300  177.8750  138.0750 S   0  0  0  0  0  0  0  0  0  0  0  0
  187.5500  177.2190  136.1160 C   0  0  0  0  0  0  0  0  0  0  0  0
  186.2090  177.3640  136.4790 C   0  0  0  0  0  0  0  0  0  0  0  0
  187.7940  177.9160  138.3040 C   0  0  0  0  0  0  0  0  0  0  0  0
  188.4500  177.5370  137.1390 C   0  0  0  0  0  3  0  0  0  0  0  0
  184.1340  177.0570  134.9500 N   0  0  0  0  0  0  0  0  0  0  0  0
  185.0580  177.1940  135.6320 C   0  0  0  0  0  0  0  0  0  0  0  0
  188.0070  176.7880  134.8350 N   0  0  0  0  0  2  0  0  0  0  0  0
  188.7050  175.6390  134.6550 O   0  0  0  0  0  1  0  0  0  0  0  0
  2  5  1  0  0  0  0
  3  7  1  0  0  0  0
  3  6  1  0  0  0  0
  4  6  1  0  0  0  0
  4  9  2  0  0  0  0
  6  2  2  0  0  0  0
  7 11  1  6  0  0  0
  7  8  1  0  0  0  0
  8  2  1  0  0  0  0
  9 10  1  0  0  0  0
 10  5  2  0  0  0  0
 10  1  1  0  0  0  0
 12 13  1  0  0  0  0
 13 11  1  1  0  0  0
 14 18  1  1  0  0  0
 14 16  1  0  0  0  0
 14 12  1  0  0  0  0
 15 21  1  1  0  0  0
 15 16  1  0  0  0  0
 16 19  1  1  0  0  0
 16 17  1  0  0  0  0
 17 13  1  0  0  0  0
 20 18  1  0  0  0  0
 20 15  1  0  0  0  0
 22 25  1  0  0  0  0
 24 22  1  0  0  0  0
 25 21  1  0  0  0  0
 25 23  2  0  0  0  0
 26  1  1  0  0  0  0
 26 27  1  0  0  0  0
 28 27  1  1  0  0  0
 29 28  1  1  0  0  0
 29 31  1  0  0  0  0
 30 33  1  0  0  0  0
 31 33  1  0  0  0  0
 33 32  1  0  0  0  0
 34 30  1  0  0  0  0
 35 34  1  0  0  0  0
 35 29  1  0  0  0  0
 36 28  1  0  0  0  0
 37 40  1  6  0  0  0
 37 38  1  0  0  0  0
 37 39  1  0  0  0  0
 38 39  1  0  0  0  0
 39 36  1  1  0  0  0
 41 44  1  0  0  0  0
 42 43  2  0  0  0  0
 42 45  1  0  0  0  0
 43 41  1  0  0  0  0
 44 40  1  0  0  0  0
 45 44  2  0  0  0  0
 46 47  3  0  0  0  0
 47 43  1  0  0  0  0
 48 42  1  0  0  0  0
 49 48  1  0  0  0  0
M  END
>  <MODEL>
9

>  <REMARK>
 VINA RESULT:      -6.8      2.818      8.371
  Name = 
  15 active torsions:
  status: ('A' for Active; 'I' for Inactive)
    1  A    between atoms: C_1  and  C_10
    2  A    between atoms: N_4  and  C_39
    3  A    between atoms: N_4  and  N_48
    4  A    between atoms: C_8  and  C_29
    5  A    between atoms: C_8  and  C_37
    6  A    between atoms: C_10  and  O_17
    7  A    between atoms: C_10  and  C_39
    8  A    between atoms: N_12  and  C_31
    9  A    between atoms: C_14  and  C_34
   10  A    between atoms: O_17  and  C_40
   11  A    between atoms: C_18  and  S_24
   12  A    between atoms: C_19  and  N_32
   13  A    between atoms: S_24  and  C_35
   14  A    between atoms: N_32  and  C_38
   15  A    between atoms: C_46  and  N_48
                            x       y       z     vdW  Elec       q    Type
                         _______ _______ _______ _____ _____    ______ ____

>  <TORSDO>
F 15

$$$$
