=
 OpenBabel10222421483D

 31 35  0  0  1  0  0  0  0  0999 V2000
  187.0220  177.8160  142.8560 C   0  0  0  0  0  3  0  0  0  0  0  0
  185.7310  178.2820  145.3340 C   0  0  0  0  0  0  0  0  0  0  0  0
  191.3410  176.3630  144.0380 C   0  0  0  0  0  2  0  0  0  0  0  0
  187.7360  177.8420  144.0500 C   0  0  0  0  0  0  0  0  0  0  0  0
  189.1610  177.6370  144.2820 C   0  0  2  0  0  3  0  0  0  0  0  0
  184.9820  178.2550  144.1320 C   0  0  0  0  0  0  0  0  0  0  0  0
  185.0800  178.5650  146.6500 C   0  0  0  0  0  1  0  0  0  0  0  0
  187.9400  177.1370  147.4930 C   0  0  0  0  0  3  0  0  0  0  0  0
  190.2500  177.1970  143.3230 C   0  0  2  0  0  3  0  0  0  0  0  0
  188.1320  178.1130  146.3580 C   0  0  2  0  0  3  0  0  0  0  0  0
  187.1080  178.0470  145.2650 C   0  0  0  0  0  0  0  0  0  0  0  0
  189.3680  177.7650  145.5860 C   0  0  1  0  0  3  0  0  0  0  0  0
  190.5220  177.1450  146.2260 C   0  0  0  0  0  0  0  0  0  0  0  0
  185.6290  178.0230  142.8930 C   0  0  0  0  0  0  0  0  0  0  0  0
  188.9780  176.4430  147.9970 C   0  0  0  0  0  3  0  0  0  0  0  0
  191.7510  176.9520  145.3990 C   0  0  0  0  0  2  0  0  0  0  0  0
  190.3300  176.4940  147.3780 C   0  0  0  0  0  3  0  0  0  0  0  0
  183.5040  178.5050  144.1540 C   0  0  0  0  0  2  0  0  0  0  0  0
  183.2190  179.9820  143.9600 C   0  0  0  0  0  1  0  0  0  0  0  0
  189.6850  176.3910  142.1590 C   0  0  0  0  0  2  0  0  0  0  0  0
  190.4170  176.7140  140.8680 C   0  0  0  0  0  2  0  0  0  0  0  0
  189.7910  177.8540  140.2150 N   0  0  0  0  0  2  0  0  0  0  0  0
  188.7290  179.1080  136.9390 C   0  0  0  0  0  3  0  0  0  0  0  0
  189.5590  177.9130  138.8060 C   0  0  0  0  0  0  0  0  0  0  0  0
  188.9650  179.0140  138.2740 N   0  0  0  0  0  0  0  0  0  0  0  0
  189.9330  176.8580  137.9660 C   0  0  0  0  0  3  0  0  0  0  0  0
  189.6820  176.9730  136.6010 C   0  0  0  0  0  3  0  0  0  0  0  0
  189.0860  178.0920  136.1120 N   0  0  0  0  0  0  0  0  0  0  0  0
  184.8730  178.0040  141.7140 O   0  0  0  0  0  0  0  0  0  0  0  0
  184.8720  179.0780  140.7840 C   0  0  0  0  0  2  0  0  0  0  0  0
  185.7620  178.7630  139.6810 N   0  0  0  0  0  1  0  0  0  0  0  0
  1 14  2  0  0  0  0
  1  4  1  0  0  0  0
  2  7  1  0  0  0  0
  3 16  1  0  0  0  0
  4 11  2  0  0  0  0
  5  4  1  1  0  0  0
  5 12  1  0  0  0  0
  6 18  1  0  0  0  0
  6  2  2  0  0  0  0
  8 15  2  0  0  0  0
  9 20  1  6  0  0  0
  9  3  1  0  0  0  0
  9  5  1  0  0  0  0
 10  8  1  1  0  0  0
 11  2  1  0  0  0  0
 11 10  1  0  0  0  0
 12 13  1  1  0  0  0
 12 10  1  0  0  0  0
 13 17  2  0  0  0  0
 14  6  1  0  0  0  0
 16 13  1  0  0  0  0
 17 15  1  0  0  0  0
 19 18  1  0  0  0  0
 21 20  1  0  0  0  0
 22 21  1  0  0  0  0
 23 25  1  0  0  0  0
 24 22  1  0  0  0  0
 25 24  2  0  0  0  0
 26 24  1  0  0  0  0
 27 26  2  0  0  0  0
 28 27  1  0  0  0  0
 28 23  2  0  0  0  0
 29 14  1  0  0  0  0
 30 29  1  0  0  0  0
 31 30  1  0  0  0  0
M  END
>  <MODEL>
1

>  <REMARK>
 VINA RESULT:     -10.2      0.000      0.000
  Name = 
  6 active torsions:
  status: ('A' for Active; 'I' for Inactive)
    1  A    between atoms: N_2  and  C_27
    2  A    between atoms: C_3  and  C_13
    3  A    between atoms: C_6  and  O_30
    4  A    between atoms: C_16  and  C_25
    5  A    between atoms: C_24  and  O_30
    6  A    between atoms: C_25  and  C_27
                            x       y       z     vdW  Elec       q    Type
                         _______ _______ _______ _____ _____    ______ ____

>  <TORSDO>
F 6

$$$$
=
 OpenBabel10222421483D

 31 35  0  0  1  0  0  0  0  0999 V2000
  189.4420  177.4980  143.4040 C   0  0  0  0  0  3  0  0  0  0  0  0
  189.1120  177.2000  146.2010 C   0  0  0  0  0  0  0  0  0  0  0  0
  185.2390  178.9690  141.8760 C   0  0  0  0  0  2  0  0  0  0  0  0
  188.1810  177.5370  143.9920 C   0  0  0  0  0  0  0  0  0  0  0  0
  186.8760  177.7390  143.3730 C   0  0  2  0  0  3  0  0  0  0  0  0
  190.4060  177.1620  145.6270 C   0  0  0  0  0  0  0  0  0  0  0  0
  188.9060  177.0050  147.6690 C   0  0  0  0  0  1  0  0  0  0  0  0
  186.1000  178.4480  146.6810 C   0  0  0  0  0  3  0  0  0  0  0  0
  186.5230  178.1070  141.9440 C   0  0  2  0  0  3  0  0  0  0  0  0
  186.5540  177.4020  145.6910 C   0  0  2  0  0  3  0  0  0  0  0  0
  188.0150  177.4140  145.3580 C   0  0  0  0  0  0  0  0  0  0  0  0
  185.9710  177.6880  144.3410 C   0  0  1  0  0  3  0  0  0  0  0  0
  184.6720  178.3320  144.1870 C   0  0  0  0  0  0  0  0  0  0  0  0
  190.5690  177.3110  144.2270 C   0  0  0  0  0  0  0  0  0  0  0  0
  184.9760  179.1590  146.4760 C   0  0  0  0  0  3  0  0  0  0  0  0
  184.1230  178.4600  142.8040 C   0  0  0  0  0  2  0  0  0  0  0  0
  184.2020  179.0550  145.2090 C   0  0  0  0  0  3  0  0  0  0  0  0
  191.6110  176.9320  146.4880 C   0  0  0  0  0  2  0  0  0  0  0  0
  192.0040  175.4670  146.4570 C   0  0  0  0  0  1  0  0  0  0  0  0
  187.6620  178.8460  141.2540 C   0  0  0  0  0  2  0  0  0  0  0  0
  187.9190  178.2780  139.8680 C   0  0  0  0  0  2  0  0  0  0  0  0
  188.9610  177.2640  139.9350 N   0  0  0  0  0  2  0  0  0  0  0  0
  191.3200  175.3780  137.8580 C   0  0  0  0  0  2  0  0  0  0  0  0
  189.6660  176.7970  138.7830 C   0  0  0  0  0  0  0  0  0  0  0  0
  190.6290  175.8480  138.9300 N   0  0  0  0  0  0  0  0  0  0  0  0
  189.3830  177.2990  137.5070 C   0  0  0  0  0  2  0  0  0  0  0  0
  190.1030  176.8050  136.4220 C   0  0  0  0  0  3  0  0  0  0  0  0
  191.0560  175.8570  136.6150 N   0  0  0  0  0  0  0  0  0  0  0  0
  191.8560  177.2660  143.6760 O   0  0  0  0  0  0  0  0  0  0  0  0
  192.1310  176.6840  142.4090 C   0  0  0  0  0  2  0  0  0  0  0  0
  192.1700  177.7240  141.3970 N   0  0  0  0  0  1  0  0  0  0  0  0
  1  4  2  0  0  0  0
  1 14  1  0  0  0  0
  2  7  1  0  0  0  0
  3  9  1  0  0  0  0
  3 16  1  0  0  0  0
  4 11  1  0  0  0  0
  5  4  1  1  0  0  0
  5 12  1  0  0  0  0
  6  2  1  0  0  0  0
  6 18  1  0  0  0  0
  9 20  1  1  0  0  0
  9  5  1  0  0  0  0
 10  8  1  1  0  0  0
 11 10  1  0  0  0  0
 11  2  2  0  0  0  0
 12 13  1  1  0  0  0
 12 10  1  0  0  0  0
 13 17  2  0  0  0  0
 14  6  2  0  0  0  0
 15  8  2  0  0  0  0
 16 13  1  0  0  0  0
 17 15  1  0  0  0  0
 19 18  1  0  0  0  0
 21 22  1  0  0  0  0
 21 20  1  0  0  0  0
 23 25  1  0  0  0  0
 24 25  2  0  0  0  0
 24 22  1  0  0  0  0
 26 24  1  0  0  0  0
 27 28  2  0  0  0  0
 27 26  1  0  0  0  0
 28 23  1  0  0  0  0
 29 14  1  0  0  0  0
 30 29  1  0  0  0  0
 31 30  1  0  0  0  0
M  END
>  <MODEL>
2

>  <REMARK>
 VINA RESULT:     -10.0      1.949      5.011
  Name = 
  6 active torsions:
  status: ('A' for Active; 'I' for Inactive)
    1  A    between atoms: N_2  and  C_27
    2  A    between atoms: C_3  and  C_13
    3  A    between atoms: C_6  and  O_30
    4  A    between atoms: C_16  and  C_25
    5  A    between atoms: C_24  and  O_30
    6  A    between atoms: C_25  and  C_27
                            x       y       z     vdW  Elec       q    Type
                         _______ _______ _______ _____ _____    ______ ____

>  <TORSDO>
F 6

$$$$
=
 OpenBabel10222421483D

 31 35  0  0  1  0  0  0  0  0999 V2000
  188.3270  177.6450  142.2460 C   0  0  0  0  0  3  0  0  0  0  0  0
  189.2870  177.1880  144.8710 C   0  0  0  0  0  0  0  0  0  0  0  0
  183.9180  179.1760  142.8580 C   0  0  0  0  0  2  0  0  0  0  0  0
  187.4680  177.6440  143.3400 C   0  0  0  0  0  0  0  0  0  0  0  0
  186.0280  177.8720  143.3880 C   0  0  2  0  0  3  0  0  0  0  0  0
  190.1820  177.1900  143.7730 C   0  0  0  0  0  0  0  0  0  0  0  0
  189.7610  176.9100  146.2610 C   0  0  0  0  0  1  0  0  0  0  0  0
  186.8410  178.3900  146.7220 C   0  0  0  0  0  3  0  0  0  0  0  0
  185.0760  178.3180  142.2940 C   0  0  2  0  0  3  0  0  0  0  0  0
  186.7790  177.4040  145.5810 C   0  0  2  0  0  3  0  0  0  0  0  0
  187.9330  177.4430  144.6260 C   0  0  0  0  0  0  0  0  0  0  0  0
  185.6560  177.7620  144.6560 C   0  0  1  0  0  3  0  0  0  0  0  0
  184.4400  178.4060  145.1390 C   0  0  0  0  0  0  0  0  0  0  0  0
  189.7000  177.4180  142.4600 C   0  0  0  0  0  0  0  0  0  0  0  0
  185.7600  179.1050  147.0850 C   0  0  0  0  0  3  0  0  0  0  0  0
  183.3290  178.6080  144.1610 C   0  0  0  0  0  2  0  0  0  0  0  0
  184.4960  179.0680  146.3000 C   0  0  0  0  0  3  0  0  0  0  0  0
  191.6410  176.9190  143.9840 C   0  0  0  0  0  2  0  0  0  0  0  0
  191.8990  175.4240  144.0040 C   0  0  0  0  0  1  0  0  0  0  0  0
  185.7970  179.1020  141.2040 C   0  0  0  0  0  2  0  0  0  0  0  0
  185.2660  178.7350  139.8290 C   0  0  0  0  0  2  0  0  0  0  0  0
  184.4960  179.8430  139.2830 N   0  0  0  0  0  2  0  0  0  0  0  0
  181.0810  180.8760  138.4440 C   0  0  0  0  0  2  0  0  0  0  0  0
  183.0760  179.8000  139.1260 C   0  0  0  0  0  0  0  0  0  0  0  0
  182.4300  180.8790  138.6100 N   0  0  0  0  0  0  0  0  0  0  0  0
  182.3410  178.6670  139.4930 C   0  0  0  0  0  2  0  0  0  0  0  0
  180.9590  178.6830  139.3150 C   0  0  0  0  0  3  0  0  0  0  0  0
  180.3540  179.7830  138.7960 N   0  0  0  0  0  0  0  0  0  0  0  0
  190.6000  177.4120  141.3860 O   0  0  0  0  0  0  0  0  0  0  0  0
  190.1780  177.3990  140.0300 C   0  0  0  0  0  2  0  0  0  0  0  0
  190.5540  176.1360  139.4190 N   0  0  0  0  0  1  0  0  0  0  0  0
  1 14  2  0  0  0  0
  1  4  1  0  0  0  0
  2  7  1  0  0  0  0
  3 16  1  0  0  0  0
  4 11  2  0  0  0  0
  5  4  1  1  0  0  0
  5 12  1  0  0  0  0
  6 18  1  0  0  0  0
  6  2  2  0  0  0  0
  8 15  2  0  0  0  0
  9 20  1  6  0  0  0
  9  3  1  0  0  0  0
  9  5  1  0  0  0  0
 10  8  1  1  0  0  0
 11  2  1  0  0  0  0
 11 10  1  0  0  0  0
 12 13  1  1  0  0  0
 12 10  1  0  0  0  0
 13 17  2  0  0  0  0
 14  6  1  0  0  0  0
 16 13  1  0  0  0  0
 17 15  1  0  0  0  0
 18 19  1  0  0  0  0
 21 20  1  0  0  0  0
 22 21  1  0  0  0  0
 23 25  1  0  0  0  0
 23 28  1  0  0  0  0
 24 22  1  0  0  0  0
 24 26  1  0  0  0  0
 25 24  2  0  0  0  0
 27 26  1  0  0  0  0
 28 27  2  0  0  0  0
 29 14  1  0  0  0  0
 30 29  1  0  0  0  0
 31 30  1  0  0  0  0
M  END
>  <MODEL>
3

>  <REMARK>
 VINA RESULT:     -10.0      2.300      6.032
  Name = 
  6 active torsions:
  status: ('A' for Active; 'I' for Inactive)
    1  A    between atoms: N_2  and  C_27
    2  A    between atoms: C_3  and  C_13
    3  A    between atoms: C_6  and  O_30
    4  A    between atoms: C_16  and  C_25
    5  A    between atoms: C_24  and  O_30
    6  A    between atoms: C_25  and  C_27
                            x       y       z     vdW  Elec       q    Type
                         _______ _______ _______ _____ _____    ______ ____

>  <TORSDO>
F 6

$$$$
=
 OpenBabel10222421483D

 31 35  0  0  1  0  0  0  0  0999 V2000
  187.4670  178.1790  141.4650 C   0  0  0  0  0  3  0  0  0  0  0  0
  189.9480  177.2060  142.4220 C   0  0  0  0  0  0  0  0  0  0  0  0
  184.8790  178.8180  145.3460 C   0  0  0  0  0  2  0  0  0  0  0  0
  187.6200  177.7650  142.7840 C   0  0  0  0  0  0  0  0  0  0  0  0
  186.6480  177.7540  143.8710 C   0  0  2  0  0  3  0  0  0  0  0  0
  189.8170  177.6270  141.0760 C   0  0  0  0  0  0  0  0  0  0  0  0
  191.2350  176.6510  142.9430 C   0  0  0  0  0  1  0  0  0  0  0  0
  189.5970  177.5040  145.6850 C   0  0  0  0  0  3  0  0  0  0  0  0
  185.2420  178.3200  143.9250 C   0  0  2  0  0  3  0  0  0  0  0  0
  188.6780  176.8500  144.6820 C   0  0  2  0  0  3  0  0  0  0  0  0
  188.8340  177.3090  143.2630 C   0  0  0  0  0  0  0  0  0  0  0  0
  187.2610  177.2640  144.9400 C   0  0  1  0  0  3  0  0  0  0  0  0
  186.7850  177.5710  146.2840 C   0  0  0  0  0  0  0  0  0  0  0  0
  188.5740  178.1130  140.5990 C   0  0  0  0  0  0  0  0  0  0  0  0
  189.1380  177.9300  146.8760 C   0  0  0  0  0  3  0  0  0  0  0  0
  185.3280  177.8500  146.4540 C   0  0  0  0  0  2  0  0  0  0  0  0
  187.6880  177.9080  147.2110 C   0  0  0  0  0  3  0  0  0  0  0  0
  190.9810  177.5320  140.1360 C   0  0  0  0  0  2  0  0  0  0  0  0
  190.8300  176.3190  139.2370 C   0  0  0  0  0  1  0  0  0  0  0  0
  185.0540  179.4590  142.9310 C   0  0  0  0  0  2  0  0  0  0  0  0
  183.8070  179.2460  142.0890 C   0  0  0  0  0  2  0  0  0  0  0  0
  184.1490  179.3000  140.6750 N   0  0  0  0  0  2  0  0  0  0  0  0
  183.7940  177.4610  137.5250 C   0  0  0  0  0  3  0  0  0  0  0  0
  183.7740  178.2820  139.7450 C   0  0  0  0  0  0  0  0  0  0  0  0
  184.1300  178.4080  138.4390 N   0  0  0  0  0  0  0  0  0  0  0  0
  183.0480  177.1580  140.1560 C   0  0  0  0  0  3  0  0  0  0  0  0
  182.7120  176.1980  139.2040 C   0  0  0  0  0  3  0  0  0  0  0  0
  183.0890  176.3650  137.9090 N   0  0  0  0  0  0  0  0  0  0  0  0
  188.4630  178.5210  139.2630 O   0  0  0  0  0  0  0  0  0  0  0  0
  187.5720  177.9060  138.3430 C   0  0  0  0  0  2  0  0  0  0  0  0
  187.3610  178.7900  137.2110 N   0  0  0  0  0  1  0  0  0  0  0  0
  1  4  1  0  0  0  0
  2  7  1  0  0  0  0
  2 11  1  0  0  0  0
  3 16  1  0  0  0  0
  4 11  2  0  0  0  0
  5  4  1  1  0  0  0
  5  9  1  0  0  0  0
  5 12  1  0  0  0  0
  6  2  2  0  0  0  0
  8 15  2  0  0  0  0
  9 20  1  6  0  0  0
  9  3  1  0  0  0  0
 10 12  1  0  0  0  0
 10  8  1  1  0  0  0
 11 10  1  0  0  0  0
 12 13  1  1  0  0  0
 13 16  1  0  0  0  0
 13 17  2  0  0  0  0
 14  6  1  0  0  0  0
 14  1  2  0  0  0  0
 15 17  1  0  0  0  0
 18  6  1  0  0  0  0
 19 18  1  0  0  0  0
 21 20  1  0  0  0  0
 22 21  1  0  0  0  0
 23 28  2  0  0  0  0
 23 25  1  0  0  0  0
 24 26  1  0  0  0  0
 24 22  1  0  0  0  0
 25 24  2  0  0  0  0
 27 26  2  0  0  0  0
 28 27  1  0  0  0  0
 29 14  1  0  0  0  0
 30 29  1  0  0  0  0
 31 30  1  0  0  0  0
M  END
>  <MODEL>
4

>  <REMARK>
 VINA RESULT:      -9.8      1.973      5.304
  Name = 
  6 active torsions:
  status: ('A' for Active; 'I' for Inactive)
    1  A    between atoms: N_2  and  C_27
    2  A    between atoms: C_3  and  C_13
    3  A    between atoms: C_6  and  O_30
    4  A    between atoms: C_16  and  C_25
    5  A    between atoms: C_24  and  O_30
    6  A    between atoms: C_25  and  C_27
                            x       y       z     vdW  Elec       q    Type
                         _______ _______ _______ _____ _____    ______ ____

>  <TORSDO>
F 6

$$$$
=
 OpenBabel10222421483D

 31 35  0  0  1  0  0  0  0  0999 V2000
  188.2940  177.6760  142.3560 C   0  0  0  0  0  3  0  0  0  0  0  0
  189.4610  177.1890  144.8900 C   0  0  0  0  0  0  0  0  0  0  0  0
  183.9630  179.2390  143.3400 C   0  0  0  0  0  2  0  0  0  0  0  0
  187.5270  177.6730  143.5170 C   0  0  0  0  0  0  0  0  0  0  0  0
  186.0980  177.9140  143.6850 C   0  0  2  0  0  3  0  0  0  0  0  0
  190.2640  177.1930  143.7230 C   0  0  0  0  0  0  0  0  0  0  0  0
  190.0460  176.8960  146.2340 C   0  0  0  0  0  1  0  0  0  0  0  0
  187.1870  178.3970  146.9450 C   0  0  0  0  0  3  0  0  0  0  0  0
  185.0640  178.3760  142.6760 C   0  0  2  0  0  3  0  0  0  0  0  0
  187.0220  177.4210  145.8050 C   0  0  2  0  0  3  0  0  0  0  0  0
  188.0940  177.4580  144.7590 C   0  0  0  0  0  0  0  0  0  0  0  0
  185.8300  177.7960  144.9780 C   0  0  1  0  0  3  0  0  0  0  0  0
  184.6640  178.4470  145.5640 C   0  0  0  0  0  0  0  0  0  0  0  0
  189.6770  177.4360  142.4550 C   0  0  0  0  0  0  0  0  0  0  0  0
  186.1450  179.1180  147.4010 C   0  0  0  0  0  3  0  0  0  0  0  0
  183.4790  178.6660  144.6830 C   0  0  0  0  0  2  0  0  0  0  0  0
  184.8210  179.0980  146.7220 C   0  0  0  0  0  3  0  0  0  0  0  0
  191.7320  176.9070  143.8110 C   0  0  0  0  0  2  0  0  0  0  0  0
  191.9700  175.4120  143.9170 C   0  0  0  0  0  1  0  0  0  0  0  0
  185.7000  179.1630  141.5370 C   0  0  0  0  0  2  0  0  0  0  0  0
  185.2170  178.6540  140.1890 C   0  0  0  0  0  2  0  0  0  0  0  0
  186.3250  178.6270  139.2440 N   0  0  0  0  0  2  0  0  0  0  0  0
  187.2300  177.5740  135.8530 C   0  0  0  0  0  3  0  0  0  0  0  0
  186.2140  178.0750  137.9310 C   0  0  0  0  0  0  0  0  0  0  0  0
  187.2960  178.0900  137.1080 N   0  0  0  0  0  0  0  0  0  0  0  0
  185.0120  177.5190  137.4790 C   0  0  0  0  0  3  0  0  0  0  0  0
  184.9640  176.9960  136.1890 C   0  0  0  0  0  3  0  0  0  0  0  0
  186.0700  177.0320  135.4000 N   0  0  0  0  0  0  0  0  0  0  0  0
  190.4860  177.4310  141.3110 O   0  0  0  0  0  0  0  0  0  0  0  0
  189.9590  177.3020  139.9980 C   0  0  0  0  0  2  0  0  0  0  0  0
  190.5730  176.1630  139.3400 N   0  0  0  0  0  1  0  0  0  0  0  0
  1 14  2  0  0  0  0
  1  4  1  0  0  0  0
  2  7  1  0  0  0  0
  3 16  1  0  0  0  0
  4 11  2  0  0  0  0
  5  4  1  1  0  0  0
  5 12  1  0  0  0  0
  6 18  1  0  0  0  0
  6  2  2  0  0  0  0
  8 15  2  0  0  0  0
  9 20  1  6  0  0  0
  9  3  1  0  0  0  0
  9  5  1  0  0  0  0
 10  8  1  1  0  0  0
 11  2  1  0  0  0  0
 11 10  1  0  0  0  0
 12 13  1  1  0  0  0
 12 10  1  0  0  0  0
 13 17  2  0  0  0  0
 14  6  1  0  0  0  0
 16 13  1  0  0  0  0
 17 15  1  0  0  0  0
 18 19  1  0  0  0  0
 21 20  1  0  0  0  0
 22 21  1  0  0  0  0
 23 25  1  0  0  0  0
 24 22  1  0  0  0  0
 25 24  2  0  0  0  0
 26 24  1  0  0  0  0
 27 26  2  0  0  0  0
 28 23  2  0  0  0  0
 28 27  1  0  0  0  0
 29 14  1  0  0  0  0
 30 29  1  0  0  0  0
 31 30  1  0  0  0  0
M  END
>  <MODEL>
5

>  <REMARK>
 VINA RESULT:      -9.7      1.949      5.024
  Name = 
  6 active torsions:
  status: ('A' for Active; 'I' for Inactive)
    1  A    between atoms: N_2  and  C_27
    2  A    between atoms: C_3  and  C_13
    3  A    between atoms: C_6  and  O_30
    4  A    between atoms: C_16  and  C_25
    5  A    between atoms: C_24  and  O_30
    6  A    between atoms: C_25  and  C_27
                            x       y       z     vdW  Elec       q    Type
                         _______ _______ _______ _____ _____    ______ ____

>  <TORSDO>
F 6

$$$$
=
 OpenBabel10222421483D

 31 35  0  0  1  0  0  0  0  0999 V2000
  186.5340  178.3460  141.6780 C   0  0  0  0  0  3  0  0  0  0  0  0
  189.1850  177.3590  141.5340 C   0  0  0  0  0  0  0  0  0  0  0  0
  185.6720  178.7230  146.2900 C   0  0  0  0  0  2  0  0  0  0  0  0
  187.1870  177.8600  142.8060 C   0  0  0  0  0  0  0  0  0  0  0  0
  186.7170  177.7730  144.1840 C   0  0  2  0  0  3  0  0  0  0  0  0
  188.5430  177.8540  140.3720 C   0  0  0  0  0  0  0  0  0  0  0  0
  190.5690  176.7960  141.4770 C   0  0  0  0  0  1  0  0  0  0  0  0
  190.1370  177.4670  144.6860 C   0  0  0  0  0  3  0  0  0  0  0  0
  185.4470  178.3120  144.8150 C   0  0  2  0  0  3  0  0  0  0  0  0
  188.8950  176.8570  144.0840 C   0  0  2  0  0  3  0  0  0  0  0  0
  188.4880  177.3970  142.7460 C   0  0  0  0  0  0  0  0  0  0  0  0
  187.6940  177.2330  144.8980 C   0  0  1  0  0  3  0  0  0  0  0  0
  187.7820  177.4550  146.3370 C   0  0  0  0  0  0  0  0  0  0  0  0
  187.2160  178.3460  140.4460 C   0  0  0  0  0  0  0  0  0  0  0  0
  190.1830  177.8180  145.9850 C   0  0  0  0  0  3  0  0  0  0  0  0
  186.5100  177.7020  147.0780 C   0  0  0  0  0  2  0  0  0  0  0  0
  188.9780  177.7540  146.8560 C   0  0  0  0  0  3  0  0  0  0  0  0
  189.2460  177.8310  139.0490 C   0  0  0  0  0  2  0  0  0  0  0  0
  188.9020  176.5600  138.2940 C   0  0  0  0  0  1  0  0  0  0  0  0
  184.8940  179.5030  144.0410 C   0  0  0  0  0  2  0  0  0  0  0  0
  183.4310  179.2910  143.6890 C   0  0  0  0  0  2  0  0  0  0  0  0
  183.3240  178.5110  142.4640 N   0  0  0  0  0  2  0  0  0  0  0  0
  181.0810  177.8060  139.6530 C   0  0  0  0  0  3  0  0  0  0  0  0
  182.1760  178.5530  141.6150 C   0  0  0  0  0  0  0  0  0  0  0  0
  182.1550  177.7950  140.4850 N   0  0  0  0  0  0  0  0  0  0  0  0
  181.0740  179.3580  141.9250 C   0  0  0  0  0  3  0  0  0  0  0  0
  179.9830  179.3560  141.0580 C   0  0  0  0  0  3  0  0  0  0  0  0
  180.0050  178.5830  139.9410 N   0  0  0  0  0  0  0  0  0  0  0  0
  186.5950  178.8270  139.2860 O   0  0  0  0  0  0  0  0  0  0  0  0
  185.2000  178.6970  139.0500 C   0  0  0  0  0  2  0  0  0  0  0  0
  184.5600  179.9910  139.2070 N   0  0  0  0  0  1  0  0  0  0  0  0
  1  4  1  0  0  0  0
  2 11  1  0  0  0  0
  3 16  1  0  0  0  0
  5  4  1  1  0  0  0
  5  9  1  0  0  0  0
  5 12  1  0  0  0  0
  6 14  1  0  0  0  0
  6  2  2  0  0  0  0
  7  2  1  0  0  0  0
  8 15  2  0  0  0  0
  9 20  1  6  0  0  0
  9  3  1  0  0  0  0
 10  8  1  1  0  0  0
 10 12  1  0  0  0  0
 11  4  2  0  0  0  0
 11 10  1  0  0  0  0
 12 13  1  1  0  0  0
 13 17  2  0  0  0  0
 13 16  1  0  0  0  0
 14  1  2  0  0  0  0
 15 17  1  0  0  0  0
 18  6  1  0  0  0  0
 19 18  1  0  0  0  0
 21 20  1  0  0  0  0
 22 21  1  0  0  0  0
 23 28  2  0  0  0  0
 23 25  1  0  0  0  0
 24 26  1  0  0  0  0
 24 22  1  0  0  0  0
 25 24  2  0  0  0  0
 27 26  2  0  0  0  0
 28 27  1  0  0  0  0
 29 14  1  0  0  0  0
 30 31  1  0  0  0  0
 30 29  1  0  0  0  0
M  END
>  <MODEL>
6

>  <REMARK>
 VINA RESULT:      -9.7      2.276      5.910
  Name = 
  6 active torsions:
  status: ('A' for Active; 'I' for Inactive)
    1  A    between atoms: N_2  and  C_27
    2  A    between atoms: C_3  and  C_13
    3  A    between atoms: C_6  and  O_30
    4  A    between atoms: C_16  and  C_25
    5  A    between atoms: C_24  and  O_30
    6  A    between atoms: C_25  and  C_27
                            x       y       z     vdW  Elec       q    Type
                         _______ _______ _______ _____ _____    ______ ____

>  <TORSDO>
F 6

$$$$
=
 OpenBabel10222421483D

 31 35  0  0  1  0  0  0  0  0999 V2000
  187.1060  177.9030  142.7550 C   0  0  0  0  0  3  0  0  0  0  0  0
  185.7910  178.2770  145.2350 C   0  0  0  0  0  0  0  0  0  0  0  0
  191.4270  176.4480  143.9260 C   0  0  0  0  0  2  0  0  0  0  0  0
  187.8100  177.8960  143.9550 C   0  0  0  0  0  0  0  0  0  0  0  0
  189.2350  177.6950  144.1920 C   0  0  2  0  0  3  0  0  0  0  0  0
  185.0520  178.2840  144.0270 C   0  0  0  0  0  0  0  0  0  0  0  0
  185.1270  178.5120  146.5540 C   0  0  0  0  0  1  0  0  0  0  0  0
  187.9930  177.0820  147.3750 C   0  0  0  0  0  3  0  0  0  0  0  0
  190.3350  177.2950  143.2280 C   0  0  2  0  0  3  0  0  0  0  0  0
  188.1850  178.0960  146.2730 C   0  0  2  0  0  3  0  0  0  0  0  0
  187.1710  178.0560  145.1700 C   0  0  0  0  0  0  0  0  0  0  0  0
  189.4300  177.7820  145.5010 C   0  0  1  0  0  3  0  0  0  0  0  0
  190.5850  177.1520  146.1300 C   0  0  0  0  0  0  0  0  0  0  0  0
  185.7110  178.0970  142.7870 C   0  0  0  0  0  0  0  0  0  0  0  0
  189.0320  176.3800  147.8650 C   0  0  0  0  0  3  0  0  0  0  0  0
  191.8210  176.9960  145.3080 C   0  0  0  0  0  2  0  0  0  0  0  0
  190.3880  176.4620  147.2590 C   0  0  0  0  0  3  0  0  0  0  0  0
  183.5720  178.5210  144.0450 C   0  0  0  0  0  2  0  0  0  0  0  0
  183.2770  180.0050  143.9390 C   0  0  0  0  0  1  0  0  0  0  0  0
  189.7860  176.5230  142.0350 C   0  0  0  0  0  2  0  0  0  0  0  0
  189.9550  177.3160  140.7500 C   0  0  0  0  0  2  0  0  0  0  0  0
  191.3180  177.1730  140.2560 N   0  0  0  0  0  2  0  0  0  0  0  0
  193.2500  176.2610  137.2780 C   0  0  0  0  0  2  0  0  0  0  0  0
  191.6210  176.7590  138.9220 C   0  0  0  0  0  0  0  0  0  0  0  0
  192.9210  176.6530  138.5370 N   0  0  0  0  0  0  0  0  0  0  0  0
  190.6050  176.4620  138.0070 C   0  0  0  0  0  2  0  0  0  0  0  0
  190.9630  176.0630  136.7210 C   0  0  0  0  0  3  0  0  0  0  0  0
  192.2740  175.9700  136.3790 N   0  0  0  0  0  0  0  0  0  0  0  0
  184.9650  178.1100  141.6020 O   0  0  0  0  0  0  0  0  0  0  0  0
  185.4580  178.6600  140.3880 C   0  0  0  0  0  2  0  0  0  0  0  0
  184.5440  179.6830  139.9140 N   0  0  0  0  0  1  0  0  0  0  0  0
  1 14  2  0  0  0  0
  1  4  1  0  0  0  0
  2  7  1  0  0  0  0
  3 16  1  0  0  0  0
  4 11  2  0  0  0  0
  5  4  1  1  0  0  0
  5 12  1  0  0  0  0
  6 18  1  0  0  0  0
  6  2  2  0  0  0  0
  8 15  2  0  0  0  0
  9 20  1  6  0  0  0
  9  3  1  0  0  0  0
  9  5  1  0  0  0  0
 10  8  1  1  0  0  0
 11  2  1  0  0  0  0
 11 10  1  0  0  0  0
 12 13  1  1  0  0  0
 12 10  1  0  0  0  0
 13 17  2  0  0  0  0
 14  6  1  0  0  0  0
 16 13  1  0  0  0  0
 17 15  1  0  0  0  0
 19 18  1  0  0  0  0
 21 20  1  0  0  0  0
 22 21  1  0  0  0  0
 23 25  1  0  0  0  0
 24 22  1  0  0  0  0
 25 24  2  0  0  0  0
 26 24  1  0  0  0  0
 27 26  1  0  0  0  0
 28 27  2  0  0  0  0
 28 23  1  0  0  0  0
 29 14  1  0  0  0  0
 30 29  1  0  0  0  0
 31 30  1  0  0  0  0
M  END
>  <MODEL>
7

>  <REMARK>
 VINA RESULT:      -9.7      1.324      1.609
  Name = 
  6 active torsions:
  status: ('A' for Active; 'I' for Inactive)
    1  A    between atoms: N_2  and  C_27
    2  A    between atoms: C_3  and  C_13
    3  A    between atoms: C_6  and  O_30
    4  A    between atoms: C_16  and  C_25
    5  A    between atoms: C_24  and  O_30
    6  A    between atoms: C_25  and  C_27
                            x       y       z     vdW  Elec       q    Type
                         _______ _______ _______ _____ _____    ______ ____

>  <TORSDO>
F 6

$$$$
=
 OpenBabel10222421483D

 31 35  0  0  1  0  0  0  0  0999 V2000
  189.2920  177.5780  143.9810 C   0  0  0  0  0  3  0  0  0  0  0  0
  188.3920  177.4250  146.6620 C   0  0  0  0  0  0  0  0  0  0  0  0
  185.4950  178.9160  141.5420 C   0  0  0  0  0  2  0  0  0  0  0  0
  187.9380  177.6330  144.2930 C   0  0  0  0  0  0  0  0  0  0  0  0
  186.7880  177.7870  143.4080 C   0  0  2  0  0  3  0  0  0  0  0  0
  189.7770  177.3720  146.3700 C   0  0  0  0  0  0  0  0  0  0  0  0
  187.8880  177.3070  148.0640 C   0  0  0  0  0  1  0  0  0  0  0  0
  185.3460  178.6630  146.4410 C   0  0  0  0  0  3  0  0  0  0  0  0
  186.7370  178.0740  141.9200 C   0  0  2  0  0  3  0  0  0  0  0  0
  185.9940  177.5710  145.6250 C   0  0  2  0  0  3  0  0  0  0  0  0
  187.4930  177.5810  145.6010 C   0  0  0  0  0  0  0  0  0  0  0  0
  185.7030  177.7770  144.1700 C   0  0  1  0  0  3  0  0  0  0  0  0
  184.4630  178.3980  143.7170 C   0  0  0  0  0  0  0  0  0  0  0  0
  190.2250  177.4470  145.0270 C   0  0  0  0  0  0  0  0  0  0  0  0
  184.2880  179.3490  145.9710 C   0  0  0  0  0  3  0  0  0  0  0  0
  184.2110  178.4450  142.2460 C   0  0  0  0  0  2  0  0  0  0  0  0
  183.7920  179.1680  144.5800 C   0  0  0  0  0  3  0  0  0  0  0  0
  190.7780  177.2010  147.4710 C   0  0  0  0  0  2  0  0  0  0  0  0
  191.3220  175.7850  147.4710 C   0  0  0  0  0  1  0  0  0  0  0  0
  187.9940  178.7880  141.4400 C   0  0  0  0  0  2  0  0  0  0  0  0
  188.5930  178.0850  140.2330 C   0  0  0  0  0  2  0  0  0  0  0  0
  188.1410  178.7300  139.0090 N   0  0  0  0  0  2  0  0  0  0  0  0
  187.1960  178.0390  135.5360 C   0  0  0  0  0  3  0  0  0  0  0  0
  187.8770  178.0110  137.8030 C   0  0  0  0  0  0  0  0  0  0  0  0
  187.4550  178.6880  136.7020 N   0  0  0  0  0  0  0  0  0  0  0  0
  188.0480  176.6230  137.7350 C   0  0  0  0  0  3  0  0  0  0  0  0
  187.7760  175.9770  136.5310 C   0  0  0  0  0  3  0  0  0  0  0  0
  187.3560  176.6930  135.4560 N   0  0  0  0  0  0  0  0  0  0  0  0
  191.5980  177.3880  144.7560 O   0  0  0  0  0  0  0  0  0  0  0  0
  192.1450  176.5810  143.7220 C   0  0  0  0  0  2  0  0  0  0  0  0
  191.9740  175.1800  144.0610 N   0  0  0  0  0  1  0  0  0  0  0  0
  1  4  2  0  0  0  0
  1 14  1  0  0  0  0
  2  7  1  0  0  0  0
  3  9  1  0  0  0  0
  3 16  1  0  0  0  0
  4 11  1  0  0  0  0
  5 12  1  0  0  0  0
  5  4  1  1  0  0  0
  6  2  1  0  0  0  0
  6 18  1  0  0  0  0
  9 20  1  1  0  0  0
  9  5  1  0  0  0  0
 10  8  1  1  0  0  0
 11 10  1  0  0  0  0
 11  2  2  0  0  0  0
 12 13  1  1  0  0  0
 12 10  1  0  0  0  0
 13 17  2  0  0  0  0
 14  6  2  0  0  0  0
 15  8  2  0  0  0  0
 16 13  1  0  0  0  0
 17 15  1  0  0  0  0
 18 19  1  0  0  0  0
 21 20  1  0  0  0  0
 22 21  1  0  0  0  0
 23 25  1  0  0  0  0
 24 22  1  0  0  0  0
 25 24  2  0  0  0  0
 26 24  1  0  0  0  0
 27 26  2  0  0  0  0
 28 23  2  0  0  0  0
 28 27  1  0  0  0  0
 29 14  1  0  0  0  0
 30 31  1  0  0  0  0
 30 29  1  0  0  0  0
M  END
>  <MODEL>
8

>  <REMARK>
 VINA RESULT:      -9.6      2.054      5.049
  Name = 
  6 active torsions:
  status: ('A' for Active; 'I' for Inactive)
    1  A    between atoms: N_2  and  C_27
    2  A    between atoms: C_3  and  C_13
    3  A    between atoms: C_6  and  O_30
    4  A    between atoms: C_16  and  C_25
    5  A    between atoms: C_24  and  O_30
    6  A    between atoms: C_25  and  C_27
                            x       y       z     vdW  Elec       q    Type
                         _______ _______ _______ _____ _____    ______ ____

>  <TORSDO>
F 6

$$$$
=
 OpenBabel10222421483D

 31 35  0  0  1  0  0  0  0  0999 V2000
  187.4170  178.4120  141.5670 C   0  0  0  0  0  3  0  0  0  0  0  0
  186.2530  178.2710  138.9890 C   0  0  0  0  0  0  0  0  0  0  0  0
  183.7440  178.4560  144.5120 C   0  0  0  0  0  2  0  0  0  0  0  0
  186.0530  178.6130  141.3770 C   0  0  0  0  0  0  0  0  0  0  0  0
  185.0120  178.8940  142.3590 C   0  0  2  0  0  3  0  0  0  0  0  0
  187.6430  178.0580  139.1580 C   0  0  0  0  0  0  0  0  0  0  0  0
  185.6210  178.2410  137.6350 C   0  0  0  0  0  1  0  0  0  0  0  0
  183.0640  177.8300  139.6910 C   0  0  0  0  0  3  0  0  0  0  0  0
  185.0810  178.9060  143.8740 C   0  0  2  0  0  3  0  0  0  0  0  0
  184.0210  178.8750  140.2120 C   0  0  2  0  0  3  0  0  0  0  0  0
  185.4760  178.5240  140.1240 C   0  0  0  0  0  0  0  0  0  0  0  0
  183.8700  179.0120  141.6960 C   0  0  1  0  0  3  0  0  0  0  0  0
  182.5910  178.7880  142.3610 C   0  0  0  0  0  0  0  0  0  0  0  0
  188.2240  178.1300  140.4490 C   0  0  0  0  0  0  0  0  0  0  0  0
  181.9500  177.5040  140.3720 C   0  0  0  0  0  3  0  0  0  0  0  0
  182.5130  179.0720  143.8250 C   0  0  0  0  0  2  0  0  0  0  0  0
  181.6740  178.0470  141.7290 C   0  0  0  0  0  3  0  0  0  0  0  0
  188.5180  177.7870  137.9720 C   0  0  0  0  0  2  0  0  0  0  0  0
  188.9820  179.0920  137.3530 C   0  0  0  0  0  1  0  0  0  0  0  0
  186.2080  178.0220  144.3950 C   0  0  0  0  0  2  0  0  0  0  0  0
  186.6380  178.4530  145.7870 C   0  0  0  0  0  2  0  0  0  0  0  0
  187.5770  177.4850  146.3360 N   0  0  0  0  0  2  0  0  0  0  0  0
  191.1060  176.4980  146.2740 C   0  0  0  0  0  2  0  0  0  0  0  0
  188.9670  177.4770  146.0060 C   0  0  0  0  0  0  0  0  0  0  0  0
  189.7790  176.5400  146.5650 N   0  0  0  0  0  0  0  0  0  0  0  0
  189.5060  178.4150  145.1170 C   0  0  0  0  0  2  0  0  0  0  0  0
  190.8690  178.3560  144.8330 C   0  0  0  0  0  3  0  0  0  0  0  0
  191.6430  177.4030  145.4140 N   0  0  0  0  0  0  0  0  0  0  0  0
  189.6010  177.9200  140.5960 O   0  0  0  0  0  0  0  0  0  0  0  0
  190.1400  176.9360  141.4680 C   0  0  0  0  0  2  0  0  0  0  0  0
  191.5610  177.1780  141.6490 N   0  0  0  0  0  1  0  0  0  0  0  0
  2  6  2  0  0  0  0
  2 11  1  0  0  0  0
  4  1  1  0  0  0  0
  5  4  1  1  0  0  0
  5  9  1  0  0  0  0
  6 14  1  0  0  0  0
  7  2  1  0  0  0  0
  8 15  2  0  0  0  0
  9 20  1  6  0  0  0
  9  3  1  0  0  0  0
 10  8  1  1  0  0  0
 10 12  1  0  0  0  0
 11 10  1  0  0  0  0
 11  4  2  0  0  0  0
 12  5  1  0  0  0  0
 12 13  1  1  0  0  0
 13 16  1  0  0  0  0
 14 29  1  0  0  0  0
 14  1  2  0  0  0  0
 15 17  1  0  0  0  0
 16  3  1  0  0  0  0
 17 13  2  0  0  0  0
 18  6  1  0  0  0  0
 19 18  1  0  0  0  0
 20 21  1  0  0  0  0
 21 22  1  0  0  0  0
 23 25  1  0  0  0  0
 24 22  1  0  0  0  0
 24 25  2  0  0  0  0
 26 24  1  0  0  0  0
 27 26  1  0  0  0  0
 27 28  2  0  0  0  0
 28 23  1  0  0  0  0
 29 30  1  0  0  0  0
 30 31  1  0  0  0  0
M  END
>  <MODEL>
9

>  <REMARK>
 VINA RESULT:      -8.1      2.671      7.382
  Name = 
  6 active torsions:
  status: ('A' for Active; 'I' for Inactive)
    1  A    between atoms: N_2  and  C_27
    2  A    between atoms: C_3  and  C_13
    3  A    between atoms: C_6  and  O_30
    4  A    between atoms: C_16  and  C_25
    5  A    between atoms: C_24  and  O_30
    6  A    between atoms: C_25  and  C_27
                            x       y       z     vdW  Elec       q    Type
                         _______ _______ _______ _____ _____    ______ ____

>  <TORSDO>
F 6

$$$$
