=
 OpenBabel10232411443D

 27 29  0  0  1  0  0  0  0  0999 V2000
  188.9030  177.7500  141.0100 C   0  0  0  0  0  0  0  0  0  0  0  0
  186.3110  178.9000  141.3530 C   0  0  2  0  0  3  0  0  0  0  0  0
  186.8440  178.5860  139.9830 C   0  0  0  0  0  3  0  0  0  0  0  0
  188.3510  177.7920  142.2310 C   0  0  0  0  0  0  0  0  0  0  0  0
  187.0110  178.1840  142.3750 O   0  0  0  0  0  0  0  0  0  0  0  0
  188.0710  178.0870  139.8350 C   0  0  0  0  0  3  0  0  0  0  0  0
  182.1130  178.0820  141.4610 N   0  0  0  0  0  2  0  0  0  0  0  0
  184.1240  179.0060  142.5210 C   0  0  0  0  0  0  0  0  0  0  0  0
  184.8370  178.6390  141.4410 C   0  0  0  0  0  0  0  0  0  0  0  0
  184.7800  179.6930  143.6800 C   0  0  0  0  0  1  0  0  0  0  0  0
  181.8880  179.1010  143.6910 C   0  0  0  0  0  1  0  0  0  0  0  0
  184.1610  177.9610  140.3150 C   0  0  0  0  0  3  0  0  0  0  0  0
  182.8880  177.7130  140.3490 N   0  0  0  0  0  0  0  0  0  0  0  0
  182.7130  178.7280  142.5530 N   0  0  0  0  0  0  0  0  0  0  0  0
  190.7730  176.9430  139.6090 C   0  0  0  0  0  1  0  0  0  0  0  0
  190.2380  177.3550  140.8580 O   0  0  0  0  0  0  0  0  0  0  0  0
  189.1400  177.3820  143.4430 C   0  0  1  0  0  3  0  0  0  0  0  0
  187.0460  177.7750  147.1830 C   0  0  0  0  0  3  0  0  0  0  0  0
  187.0080  177.2760  144.8150 C   0  0  0  0  0  3  0  0  0  0  0  0
  186.3400  177.4050  146.0350 C   0  0  0  0  0  3  0  0  0  0  0  0
  189.0900  177.8880  145.8900 C   0  0  0  0  0  3  0  0  0  0  0  0
  188.3890  177.5200  144.7360 C   0  0  0  0  0  0  0  0  0  0  0  0
  188.4210  178.0150  147.1110 C   0  0  0  0  0  3  0  0  0  0  0  0
  189.8770  176.0480  143.2850 C   0  0  0  0  0  2  0  0  0  0  0  0
  191.9280  177.2040  143.6860 O   0  0  0  0  0  0  0  0  0  0  0  0
  191.9750  174.9470  144.0760 O   0  0  0  0  0  1  0  0  0  0  0  0
  191.3150  176.1050  143.6900 C   0  0  0  0  0  0  0  0  0  0  0  0
  1  4  2  0  0  0  0
  2  9  1  6  0  0  0
  2  5  1  0  0  0  0
  3  2  1  0  0  0  0
  4  5  1  0  0  0  0
  4 17  1  0  0  0  0
  6  3  2  0  0  0  0
  6  1  1  0  0  0  0
  7 14  1  0  0  0  0
  8 14  1  0  0  0  0
  8 10  1  0  0  0  0
  9  8  2  0  0  0  0
 12 13  2  0  0  0  0
 12  9  1  0  0  0  0
 13  7  1  0  0  0  0
 14 11  1  0  0  0  0
 15 16  1  0  0  0  0
 16  1  1  0  0  0  0
 17 24  1  6  0  0  0
 17 22  1  0  0  0  0
 19 20  1  0  0  0  0
 20 18  2  0  0  0  0
 21 23  2  0  0  0  0
 22 19  2  0  0  0  0
 22 21  1  0  0  0  0
 23 18  1  0  0  0  0
 24 27  1  0  0  0  0
 25 27  2  0  0  0  0
 27 26  1  0  0  0  0
M  END
>  <MODEL>
1

>  <REMARK>
 VINA RESULT:      -8.0      0.000      0.000
  Name = 
  6 active torsions:
  status: ('A' for Active; 'I' for Inactive)
    1  A    between atoms: C_5  and  O_23
    2  A    between atoms: C_7  and  C_8
    3  A    between atoms: C_11  and  C_14
    4  A    between atoms: C_11  and  C_15
    5  A    between atoms: C_11  and  C_20
    6  A    between atoms: C_14  and  C_27
                            x       y       z     vdW  Elec       q    Type
                         _______ _______ _______ _____ _____    ______ ____

>  <TORSDO>
F 6

$$$$
=
 OpenBabel10232411443D

 27 29  0  0  1  0  0  0  0  0999 V2000
  190.7830  177.1980  145.0380 C   0  0  0  0  0  0  0  0  0  0  0  0
  190.3190  177.9480  142.3220 C   0  0  2  0  0  3  0  0  0  0  0  0
  191.5720  177.2200  142.7200 C   0  0  0  0  0  3  0  0  0  0  0  0
  189.5660  177.6180  144.6630 C   0  0  0  0  0  0  0  0  0  0  0  0
  189.2860  177.8100  143.3020 O   0  0  0  0  0  0  0  0  0  0  0  0
  191.7940  176.9110  143.9980 C   0  0  0  0  0  3  0  0  0  0  0  0
  189.0500  176.5770  138.4730 N   0  0  0  0  0  2  0  0  0  0  0  0
  188.7110  178.0150  140.4320 C   0  0  0  0  0  0  0  0  0  0  0  0
  189.8300  177.5040  140.9750 C   0  0  0  0  0  0  0  0  0  0  0  0
  187.9070  179.0510  141.1560 C   0  0  0  0  0  1  0  0  0  0  0  0
  187.0880  178.0640  138.4980 C   0  0  0  0  0  1  0  0  0  0  0  0
  190.6000  176.4820  140.2360 C   0  0  0  0  0  3  0  0  0  0  0  0
  190.2140  176.0660  139.0690 N   0  0  0  0  0  0  0  0  0  0  0  0
  188.2880  177.5500  139.1380 N   0  0  0  0  0  0  0  0  0  0  0  0
  192.0170  176.0400  146.8410 C   0  0  0  0  0  1  0  0  0  0  0  0
  191.0690  176.9990  146.3940 O   0  0  0  0  0  0  0  0  0  0  0  0
  188.4860  177.8450  145.6840 C   0  0  1  0  0  3  0  0  0  0  0  0
  184.5490  178.4450  144.0530 C   0  0  0  0  0  3  0  0  0  0  0  0
  186.7630  177.4860  143.8580 C   0  0  0  0  0  3  0  0  0  0  0  0
  185.4800  177.6860  143.3400 C   0  0  0  0  0  3  0  0  0  0  0  0
  186.1830  178.8050  145.8040 C   0  0  0  0  0  3  0  0  0  0  0  0
  187.1210  178.0480  145.0940 C   0  0  0  0  0  0  0  0  0  0  0  0
  184.8990  179.0030  145.2850 C   0  0  0  0  0  3  0  0  0  0  0  0
  188.5230  176.8620  146.8600 C   0  0  0  0  0  2  0  0  0  0  0  0
  187.4590  177.2740  148.9580 O   0  0  0  0  0  1  0  0  0  0  0  0
  189.4200  178.4070  148.6060 O   0  0  0  0  0  0  0  0  0  0  0  0
  188.4310  177.5220  148.1980 C   0  0  0  0  0  0  0  0  0  0  0  0
  1 16  1  0  0  0  0
  2  9  1  6  0  0  0
  2  3  1  0  0  0  0
  2  5  1  0  0  0  0
  3  6  2  0  0  0  0
  4  1  2  0  0  0  0
  4 17  1  0  0  0  0
  5  4  1  0  0  0  0
  6  1  1  0  0  0  0
  7 13  1  0  0  0  0
  7 14  1  0  0  0  0
  8  9  2  0  0  0  0
  8 10  1  0  0  0  0
 11 14  1  0  0  0  0
 12  9  1  0  0  0  0
 13 12  2  0  0  0  0
 14  8  1  0  0  0  0
 16 15  1  0  0  0  0
 17 24  1  1  0  0  0
 18 23  1  0  0  0  0
 19 22  2  0  0  0  0
 20 19  1  0  0  0  0
 20 18  2  0  0  0  0
 22 17  1  0  0  0  0
 22 21  1  0  0  0  0
 23 21  2  0  0  0  0
 24 27  1  0  0  0  0
 27 26  2  0  0  0  0
 27 25  1  0  0  0  0
M  END
>  <MODEL>
2

>  <REMARK>
 VINA RESULT:      -7.8      3.142      5.177
  Name = 
  6 active torsions:
  status: ('A' for Active; 'I' for Inactive)
    1  A    between atoms: C_5  and  O_23
    2  A    between atoms: C_7  and  C_8
    3  A    between atoms: C_11  and  C_14
    4  A    between atoms: C_11  and  C_15
    5  A    between atoms: C_11  and  C_20
    6  A    between atoms: C_14  and  C_27
                            x       y       z     vdW  Elec       q    Type
                         _______ _______ _______ _____ _____    ______ ____

>  <TORSDO>
F 6

$$$$
=
 OpenBabel10232411443D

 27 29  0  0  1  0  0  0  0  0999 V2000
  185.0080  178.8850  140.3460 C   0  0  0  0  0  0  0  0  0  0  0  0
  185.4020  177.7960  142.9560 C   0  0  2  0  0  3  0  0  0  0  0  0
  186.5320  178.4500  142.2130 C   0  0  0  0  0  3  0  0  0  0  0  0
  183.9470  178.5340  141.0870 C   0  0  0  0  0  0  0  0  0  0  0  0
  184.1260  178.1740  142.4310 O   0  0  0  0  0  0  0  0  0  0  0  0
  186.3440  178.9180  140.9790 C   0  0  0  0  0  3  0  0  0  0  0  0
  185.4550  178.6810  147.1420 N   0  0  0  0  0  2  0  0  0  0  0  0
  186.5470  177.7370  145.1580 C   0  0  0  0  0  0  0  0  0  0  0  0
  185.4730  178.0840  144.4270 C   0  0  0  0  0  0  0  0  0  0  0  0
  187.7180  177.0450  144.5270 C   0  0  0  0  0  1  0  0  0  0  0  0
  187.6920  177.6860  147.4090 C   0  0  0  0  0  1  0  0  0  0  0  0
  184.3340  178.7630  145.0790 C   0  0  0  0  0  3  0  0  0  0  0  0
  184.3500  179.0300  146.3490 N   0  0  0  0  0  0  0  0  0  0  0  0
  186.5600  178.0360  146.5650 N   0  0  0  0  0  0  0  0  0  0  0  0
  185.4330  178.5300  137.9370 C   0  0  0  0  0  1  0  0  0  0  0  0
  184.8370  179.2510  139.0050 O   0  0  0  0  0  0  0  0  0  0  0  0
  182.5620  178.5630  140.5030 C   0  0  1  0  0  3  0  0  0  0  0  0
  181.8690  175.7040  137.3610 C   0  0  0  0  0  3  0  0  0  0  0  0
  182.6820  176.2010  139.5870 C   0  0  0  0  0  3  0  0  0  0  0  0
  182.4490  175.2820  138.5600 C   0  0  0  0  0  3  0  0  0  0  0  0
  181.7520  177.9680  138.2150 C   0  0  0  0  0  3  0  0  0  0  0  0
  182.3360  177.5510  139.4170 C   0  0  0  0  0  0  0  0  0  0  0  0
  181.5190  177.0470  137.1890 C   0  0  0  0  0  3  0  0  0  0  0  0
  181.4450  178.6220  141.5500 C   0  0  0  0  0  2  0  0  0  0  0  0
  180.2590  180.3010  140.3340 O   0  0  0  0  0  0  0  0  0  0  0  0
  180.1870  180.4990  142.6150 O   0  0  0  0  0  1  0  0  0  0  0  0
  180.6000  179.8520  141.4590 C   0  0  0  0  0  0  0  0  0  0  0  0
  1  6  1  0  0  0  0
  1  4  2  0  0  0  0
  2  9  1  1  0  0  0
  3  2  1  0  0  0  0
  4  5  1  0  0  0  0
  5  2  1  0  0  0  0
  6  3  2  0  0  0  0
  8 14  1  0  0  0  0
  9 12  1  0  0  0  0
  9  8  2  0  0  0  0
 10  8  1  0  0  0  0
 12 13  2  0  0  0  0
 13  7  1  0  0  0  0
 14  7  1  0  0  0  0
 14 11  1  0  0  0  0
 15 16  1  0  0  0  0
 16  1  1  0  0  0  0
 17  4  1  0  0  0  0
 17 24  1  1  0  0  0
 18 20  1  0  0  0  0
 20 19  2  0  0  0  0
 21 22  2  0  0  0  0
 22 19  1  0  0  0  0
 22 17  1  0  0  0  0
 23 18  2  0  0  0  0
 23 21  1  0  0  0  0
 25 27  2  0  0  0  0
 27 24  1  0  0  0  0
 27 26  1  0  0  0  0
M  END
>  <MODEL>
3

>  <REMARK>
 VINA RESULT:      -7.6      3.639      7.531
  Name = 
  6 active torsions:
  status: ('A' for Active; 'I' for Inactive)
    1  A    between atoms: C_5  and  O_23
    2  A    between atoms: C_7  and  C_8
    3  A    between atoms: C_11  and  C_14
    4  A    between atoms: C_11  and  C_15
    5  A    between atoms: C_11  and  C_20
    6  A    between atoms: C_14  and  C_27
                            x       y       z     vdW  Elec       q    Type
                         _______ _______ _______ _____ _____    ______ ____

>  <TORSDO>
F 6

$$$$
=
 OpenBabel10232411443D

 27 29  0  0  1  0  0  0  0  0999 V2000
  188.3920  178.1860  141.4700 C   0  0  0  0  0  0  0  0  0  0  0  0
  189.2390  176.7900  143.8130 C   0  0  2  0  0  3  0  0  0  0  0  0
  190.2380  177.2980  142.8120 C   0  0  0  0  0  3  0  0  0  0  0  0
  187.5180  177.9620  142.4630 C   0  0  0  0  0  0  0  0  0  0  0  0
  187.9730  177.4440  143.6850 O   0  0  0  0  0  0  0  0  0  0  0  0
  189.8260  177.9130  141.7030 C   0  0  0  0  0  3  0  0  0  0  0  0
  190.5870  177.2350  147.8490 N   0  0  0  0  0  2  0  0  0  0  0  0
  190.8810  176.2880  145.6050 C   0  0  0  0  0  0  0  0  0  0  0  0
  189.7570  176.9140  145.2160 C   0  0  0  0  0  0  0  0  0  0  0  0
  191.6620  175.4390  144.6480 C   0  0  0  0  0  1  0  0  0  0  0  0
  192.5380  175.7880  147.4450 C   0  0  0  0  0  1  0  0  0  0  0  0
  189.0080  177.7420  146.1840 C   0  0  0  0  0  3  0  0  0  0  0  0
  189.4170  177.8760  147.4090 N   0  0  0  0  0  0  0  0  0  0  0  0
  191.3300  176.4400  146.9640 N   0  0  0  0  0  0  0  0  0  0  0  0
  188.5830  178.4080  139.0150 C   0  0  0  0  0  1  0  0  0  0  0  0
  187.9470  178.7080  140.2490 O   0  0  0  0  0  0  0  0  0  0  0  0
  186.0640  178.3000  142.2930 C   0  0  1  0  0  3  0  0  0  0  0  0
  183.8800  178.7880  145.9710 C   0  0  0  0  0  3  0  0  0  0  0  0
  185.9620  178.3160  144.8280 C   0  0  0  0  0  3  0  0  0  0  0  0
  185.2430  178.4790  146.0150 C   0  0  0  0  0  3  0  0  0  0  0  0
  183.9560  178.7710  143.5500 C   0  0  0  0  0  3  0  0  0  0  0  0
  185.3190  178.4590  143.5880 C   0  0  0  0  0  0  0  0  0  0  0  0
  183.2370  178.9350  144.7380 C   0  0  0  0  0  3  0  0  0  0  0  0
  185.7960  179.4140  141.2740 C   0  0  0  0  0  2  0  0  0  0  0  0
  184.2160  177.9260  140.2780 O   0  0  0  0  0  1  0  0  0  0  0  0
  184.4820  179.9390  139.2170 O   0  0  0  0  0  0  0  0  0  0  0  0
  184.7890  179.0460  140.2330 C   0  0  0  0  0  0  0  0  0  0  0  0
  1  6  1  0  0  0  0
  1  4  2  0  0  0  0
  2  9  1  1  0  0  0
  3  2  1  0  0  0  0
  4  5  1  0  0  0  0
  5  2  1  0  0  0  0
  6  3  2  0  0  0  0
  8 14  1  0  0  0  0
  9  8  2  0  0  0  0
  9 12  1  0  0  0  0
 10  8  1  0  0  0  0
 12 13  2  0  0  0  0
 13  7  1  0  0  0  0
 14 11  1  0  0  0  0
 14  7  1  0  0  0  0
 15 16  1  0  0  0  0
 16  1  1  0  0  0  0
 17 24  1  1  0  0  0
 17  4  1  0  0  0  0
 17 22  1  0  0  0  0
 18 20  1  0  0  0  0
 19 20  2  0  0  0  0
 21 22  2  0  0  0  0
 21 23  1  0  0  0  0
 22 19  1  0  0  0  0
 23 18  2  0  0  0  0
 26 27  2  0  0  0  0
 27 25  1  0  0  0  0
 27 24  1  0  0  0  0
M  END
>  <MODEL>
4

>  <REMARK>
 VINA RESULT:      -7.5      3.604      6.428
  Name = 
  6 active torsions:
  status: ('A' for Active; 'I' for Inactive)
    1  A    between atoms: C_5  and  O_23
    2  A    between atoms: C_7  and  C_8
    3  A    between atoms: C_11  and  C_14
    4  A    between atoms: C_11  and  C_15
    5  A    between atoms: C_11  and  C_20
    6  A    between atoms: C_14  and  C_27
                            x       y       z     vdW  Elec       q    Type
                         _______ _______ _______ _____ _____    ______ ____

>  <TORSDO>
F 6

$$$$
=
 OpenBabel10232411443D

 27 29  0  0  1  0  0  0  0  0999 V2000
  190.9270  177.2730  139.6600 C   0  0  0  0  0  0  0  0  0  0  0  0
  188.5750  177.1230  138.0470 C   0  0  2  0  0  3  0  0  0  0  0  0
  189.9410  176.9870  137.4360 C   0  0  0  0  0  3  0  0  0  0  0  0
  189.7270  177.1480  140.2450 C   0  0  0  0  0  0  0  0  0  0  0  0
  188.5940  176.8900  139.4580 O   0  0  0  0  0  0  0  0  0  0  0  0
  191.0320  177.0990  138.1950 C   0  0  0  0  0  3  0  0  0  0  0  0
  185.8590  174.4370  136.1210 N   0  0  0  0  0  2  0  0  0  0  0  0
  186.3030  176.5960  137.1980 C   0  0  0  0  0  0  0  0  0  0  0  0
  187.5820  176.2210  137.3760 C   0  0  0  0  0  0  0  0  0  0  0  0
  185.8200  177.9360  137.6650 C   0  0  0  0  0  1  0  0  0  0  0  0
  183.9980  176.0360  136.3280 C   0  0  0  0  0  1  0  0  0  0  0  0
  188.0260  174.8920  136.9050 C   0  0  0  0  0  3  0  0  0  0  0  0
  187.2010  174.0770  136.3220 N   0  0  0  0  0  0  0  0  0  0  0  0
  185.3930  175.6890  136.5500 N   0  0  0  0  0  0  0  0  0  0  0  0
  193.3770  177.2270  139.9890 C   0  0  0  0  0  1  0  0  0  0  0  0
  192.0630  177.5250  140.4380 O   0  0  0  0  0  0  0  0  0  0  0  0
  189.5890  177.2400  141.7390 C   0  0  1  0  0  3  0  0  0  0  0  0
  185.6860  178.4300  143.1070 C   0  0  0  0  0  3  0  0  0  0  0  0
  187.4430  178.5600  141.4470 C   0  0  0  0  0  3  0  0  0  0  0  0
  186.1760  178.9370  141.9010 C   0  0  0  0  0  3  0  0  0  0  0  0
  187.7310  177.1670  143.4070 C   0  0  0  0  0  3  0  0  0  0  0  0
  188.2290  177.6730  142.2010 C   0  0  0  0  0  0  0  0  0  0  0  0
  186.4620  177.5440  143.8590 C   0  0  0  0  0  3  0  0  0  0  0  0
  190.1530  176.0300  142.4920 C   0  0  0  0  0  2  0  0  0  0  0  0
  191.8840  175.4580  144.0350 O   0  0  0  0  0  1  0  0  0  0  0  0
  191.5940  177.7000  143.6630 O   0  0  0  0  0  0  0  0  0  0  0  0
  191.2570  176.3730  143.4400 C   0  0  0  0  0  0  0  0  0  0  0  0
  1  4  2  0  0  0  0
  1 16  1  0  0  0  0
  2  9  1  6  0  0  0
  2  5  1  0  0  0  0
  3  2  1  0  0  0  0
  3  6  2  0  0  0  0
  4 17  1  0  0  0  0
  5  4  1  0  0  0  0
  6  1  1  0  0  0  0
  7 13  1  0  0  0  0
  7 14  1  0  0  0  0
  8  9  2  0  0  0  0
  8 10  1  0  0  0  0
 11 14  1  0  0  0  0
 12  9  1  0  0  0  0
 13 12  2  0  0  0  0
 14  8  1  0  0  0  0
 15 16  1  0  0  0  0
 17 22  1  0  0  0  0
 17 24  1  1  0  0  0
 18 23  1  0  0  0  0
 19 20  1  0  0  0  0
 19 22  2  0  0  0  0
 20 18  2  0  0  0  0
 21 23  2  0  0  0  0
 22 21  1  0  0  0  0
 24 27  1  0  0  0  0
 27 26  2  0  0  0  0
 27 25  1  0  0  0  0
M  END
>  <MODEL>
5

>  <REMARK>
 VINA RESULT:      -7.5      2.846      4.520
  Name = 
  6 active torsions:
  status: ('A' for Active; 'I' for Inactive)
    1  A    between atoms: C_5  and  O_23
    2  A    between atoms: C_7  and  C_8
    3  A    between atoms: C_11  and  C_14
    4  A    between atoms: C_11  and  C_15
    5  A    between atoms: C_11  and  C_20
    6  A    between atoms: C_14  and  C_27
                            x       y       z     vdW  Elec       q    Type
                         _______ _______ _______ _____ _____    ______ ____

>  <TORSDO>
F 6

$$$$
=
 OpenBabel10232411443D

 27 29  0  0  1  0  0  0  0  0999 V2000
  182.5120  178.9670  143.1080 C   0  0  0  0  0  0  0  0  0  0  0  0
  185.3590  178.8970  142.8820 C   0  0  2  0  0  3  0  0  0  0  0  0
  184.6940  179.1970  144.1960 C   0  0  0  0  0  3  0  0  0  0  0  0
  183.0790  178.4590  142.0040 C   0  0  0  0  0  0  0  0  0  0  0  0
  184.4670  178.2540  141.9660 O   0  0  0  0  0  0  0  0  0  0  0  0
  183.3650  179.2660  144.2780 C   0  0  0  0  0  3  0  0  0  0  0  0
  188.8530  176.5260  143.5670 N   0  0  0  0  0  2  0  0  0  0  0  0
  187.5090  177.9450  142.0850 C   0  0  0  0  0  0  0  0  0  0  0  0
  186.6020  178.0790  143.0690 C   0  0  0  0  0  0  0  0  0  0  0  0
  187.3090  178.6130  140.7580 C   0  0  0  0  0  1  0  0  0  0  0  0
  189.6980  176.9640  141.2960 C   0  0  0  0  0  1  0  0  0  0  0  0
  186.8270  177.4060  144.3660 C   0  0  0  0  0  3  0  0  0  0  0  0
  187.8870  176.6860  144.5730 N   0  0  0  0  0  0  0  0  0  0  0  0
  188.6820  177.1460  142.3200 N   0  0  0  0  0  0  0  0  0  0  0  0
  180.2820  178.4460  144.0370 C   0  0  0  0  0  1  0  0  0  0  0  0
  181.1280  179.1690  143.1550 O   0  0  0  0  0  0  0  0  0  0  0  0
  182.2380  178.0680  140.8210 C   0  0  1  0  0  3  0  0  0  0  0  0
  180.9210  181.4240  138.4700 C   0  0  0  0  0  3  0  0  0  0  0  0
  180.4160  179.6500  140.0380 C   0  0  0  0  0  3  0  0  0  0  0  0
  180.0010  180.7430  139.2720 C   0  0  0  0  0  3  0  0  0  0  0  0
  182.6730  179.9190  139.2010 C   0  0  0  0  0  3  0  0  0  0  0  0
  181.7560  179.2310  140.0040 C   0  0  0  0  0  0  0  0  0  0  0  0
  182.2570  181.0140  138.4360 C   0  0  0  0  0  3  0  0  0  0  0  0
  182.8200  176.9170  139.9940 C   0  0  0  0  0  2  0  0  0  0  0  0
  180.6910  175.8380  140.0720 O   0  0  0  0  0  1  0  0  0  0  0  0
  182.0350  175.2430  138.3140 O   0  0  0  0  0  0  0  0  0  0  0  0
  181.7880  175.9720  139.4690 C   0  0  0  0  0  0  0  0  0  0  0  0
  1 16  1  0  0  0  0
  1  6  1  0  0  0  0
  2  9  1  1  0  0  0
  2  3  1  0  0  0  0
  3  6  2  0  0  0  0
  4  1  2  0  0  0  0
  5  4  1  0  0  0  0
  5  2  1  0  0  0  0
  7 13  1  0  0  0  0
  8 14  1  0  0  0  0
  8  9  2  0  0  0  0
  9 12  1  0  0  0  0
 10  8  1  0  0  0  0
 11 14  1  0  0  0  0
 12 13  2  0  0  0  0
 14  7  1  0  0  0  0
 16 15  1  0  0  0  0
 17 24  1  6  0  0  0
 17  4  1  0  0  0  0
 18 20  1  0  0  0  0
 20 19  2  0  0  0  0
 21 22  2  0  0  0  0
 22 19  1  0  0  0  0
 22 17  1  0  0  0  0
 23 18  2  0  0  0  0
 23 21  1  0  0  0  0
 26 27  2  0  0  0  0
 27 24  1  0  0  0  0
 27 25  1  0  0  0  0
M  END
>  <MODEL>
6

>  <REMARK>
 VINA RESULT:      -7.3      3.815      7.969
  Name = 
  6 active torsions:
  status: ('A' for Active; 'I' for Inactive)
    1  A    between atoms: C_5  and  O_23
    2  A    between atoms: C_7  and  C_8
    3  A    between atoms: C_11  and  C_14
    4  A    between atoms: C_11  and  C_15
    5  A    between atoms: C_11  and  C_20
    6  A    between atoms: C_14  and  C_27
                            x       y       z     vdW  Elec       q    Type
                         _______ _______ _______ _____ _____    ______ ____

>  <TORSDO>
F 6

$$$$
=
 OpenBabel10232411443D

 27 29  0  0  1  0  0  0  0  0999 V2000
  185.8220  178.5660  145.7370 C   0  0  0  0  0  0  0  0  0  0  0  0
  184.8460  178.0380  143.1050 C   0  0  2  0  0  3  0  0  0  0  0  0
  184.1240  178.9840  144.0230 C   0  0  0  0  0  3  0  0  0  0  0  0
  186.6020  177.9230  144.8550 C   0  0  0  0  0  0  0  0  0  0  0  0
  186.2000  177.8260  143.5140 O   0  0  0  0  0  0  0  0  0  0  0  0
  184.5690  179.1910  145.2630 C   0  0  0  0  0  3  0  0  0  0  0  0
  184.8560  179.3740  139.0410 N   0  0  0  0  0  2  0  0  0  0  0  0
  183.6210  178.6950  141.0480 C   0  0  0  0  0  0  0  0  0  0  0  0
  184.7930  178.5070  141.6810 C   0  0  0  0  0  0  0  0  0  0  0  0
  182.3190  178.4410  141.7470 C   0  0  0  0  0  1  0  0  0  0  0  0
  182.3960  179.3650  138.9440 C   0  0  0  0  0  1  0  0  0  0  0  0
  186.0600  178.7650  140.9640 C   0  0  0  0  0  3  0  0  0  0  0  0
  186.0620  179.1690  139.7310 N   0  0  0  0  0  0  0  0  0  0  0  0
  183.6300  179.1430  139.6820 N   0  0  0  0  0  0  0  0  0  0  0  0
  185.9830  179.8380  147.8500 C   0  0  0  0  0  1  0  0  0  0  0  0
  186.2180  178.6710  147.0760 O   0  0  0  0  0  0  0  0  0  0  0  0
  187.9210  177.3420  145.2810 C   0  0  1  0  0  3  0  0  0  0  0  0
  190.8320  177.1280  142.1170 C   0  0  0  0  0  3  0  0  0  0  0  0
  188.8720  176.2230  143.2120 C   0  0  0  0  0  3  0  0  0  0  0  0
  189.8210  176.1650  142.1880 C   0  0  0  0  0  3  0  0  0  0  0  0
  189.9430  178.2070  144.0950 C   0  0  0  0  0  3  0  0  0  0  0  0
  188.9310  177.2440  144.1730 C   0  0  0  0  0  0  0  0  0  0  0  0
  190.8920  178.1490  143.0690 C   0  0  0  0  0  3  0  0  0  0  0  0
  188.4720  177.9330  146.5830 C   0  0  0  0  0  2  0  0  0  0  0  0
  188.3010  176.3720  148.3820 O   0  0  0  0  0  1  0  0  0  0  0  0
  190.3740  176.5500  147.4240 O   0  0  0  0  0  0  0  0  0  0  0  0
  189.0380  176.9100  147.5150 C   0  0  0  0  0  0  0  0  0  0  0  0
  1 16  1  0  0  0  0
  2  9  1  6  0  0  0
  2  5  1  0  0  0  0
  2  3  1  0  0  0  0
  3  6  2  0  0  0  0
  4 17  1  0  0  0  0
  4  1  2  0  0  0  0
  5  4  1  0  0  0  0
  6  1  1  0  0  0  0
  7 14  1  0  0  0  0
  7 13  1  0  0  0  0
  8  9  2  0  0  0  0
  8 10  1  0  0  0  0
 11 14  1  0  0  0  0
 12  9  1  0  0  0  0
 13 12  2  0  0  0  0
 14  8  1  0  0  0  0
 16 15  1  0  0  0  0
 17 24  1  1  0  0  0
 18 20  2  0  0  0  0
 18 23  1  0  0  0  0
 19 22  2  0  0  0  0
 20 19  1  0  0  0  0
 21 22  1  0  0  0  0
 22 17  1  0  0  0  0
 23 21  2  0  0  0  0
 24 27  1  0  0  0  0
 26 27  2  0  0  0  0
 27 25  1  0  0  0  0
M  END
>  <MODEL>
7

>  <REMARK>
 VINA RESULT:      -7.3      2.281      4.508
  Name = 
  6 active torsions:
  status: ('A' for Active; 'I' for Inactive)
    1  A    between atoms: C_5  and  O_23
    2  A    between atoms: C_7  and  C_8
    3  A    between atoms: C_11  and  C_14
    4  A    between atoms: C_11  and  C_15
    5  A    between atoms: C_11  and  C_20
    6  A    between atoms: C_14  and  C_27
                            x       y       z     vdW  Elec       q    Type
                         _______ _______ _______ _____ _____    ______ ____

>  <TORSDO>
F 6

$$$$
=
 OpenBabel10232411443D

 27 29  0  0  1  0  0  0  0  0999 V2000
  190.0760  176.5730  143.6540 C   0  0  0  0  0  0  0  0  0  0  0  0
  188.9870  178.2250  141.5950 C   0  0  2  0  0  3  0  0  0  0  0  0
  189.8300  177.0270  141.2600 C   0  0  0  0  0  3  0  0  0  0  0  0
  189.1350  177.4790  143.9570 C   0  0  0  0  0  0  0  0  0  0  0  0
  188.4690  178.1600  142.9260 O   0  0  0  0  0  0  0  0  0  0  0  0
  190.3650  176.2880  142.2320 C   0  0  0  0  0  3  0  0  0  0  0  0
  185.7180  178.7870  138.8920 N   0  0  0  0  0  2  0  0  0  0  0  0
  188.0780  178.2430  139.2850 C   0  0  0  0  0  0  0  0  0  0  0  0
  187.8760  178.4080  140.6040 C   0  0  0  0  0  0  0  0  0  0  0  0
  189.4290  177.8680  138.7540 C   0  0  0  0  0  1  0  0  0  0  0  0
  187.1310  178.2690  136.9440 C   0  0  0  0  0  1  0  0  0  0  0  0
  186.5320  178.7800  141.0960 C   0  0  0  0  0  3  0  0  0  0  0  0
  185.5420  178.9510  140.2760 N   0  0  0  0  0  0  0  0  0  0  0  0
  186.9760  178.4330  138.3800 N   0  0  0  0  0  0  0  0  0  0  0  0
  191.9740  175.2130  144.4650 C   0  0  0  0  0  1  0  0  0  0  0  0
  190.7420  175.8860  144.6760 O   0  0  0  0  0  0  0  0  0  0  0  0
  188.7560  177.7410  145.3880 C   0  0  1  0  0  3  0  0  0  0  0  0
  184.5900  178.6150  146.0260 C   0  0  0  0  0  3  0  0  0  0  0  0
  186.3860  178.0040  144.5220 C   0  0  0  0  0  3  0  0  0  0  0  0
  185.0350  178.2870  144.7430 C   0  0  0  0  0  3  0  0  0  0  0  0
  186.8480  178.3760  146.8700 C   0  0  0  0  0  3  0  0  0  0  0  0
  187.3000  178.0500  145.5870 C   0  0  0  0  0  0  0  0  0  0  0  0
  185.4960  178.6580  147.0900 C   0  0  0  0  0  3  0  0  0  0  0  0
  189.3240  176.7210  146.3800 C   0  0  0  0  0  2  0  0  0  0  0  0
  191.4190  177.1910  147.4250 O   0  0  0  0  0  0  0  0  0  0  0  0
  189.5760  178.0560  148.4760 O   0  0  0  0  0  1  0  0  0  0  0  0
  190.1690  177.3310  147.4520 C   0  0  0  0  0  0  0  0  0  0  0  0
  1  4  2  0  0  0  0
  1 16  1  0  0  0  0
  2  9  1  6  0  0  0
  2  5  1  0  0  0  0
  3  2  1  0  0  0  0
  3  6  2  0  0  0  0
  4 17  1  0  0  0  0
  5  4  1  0  0  0  0
  6  1  1  0  0  0  0
  7 13  1  0  0  0  0
  8  9  2  0  0  0  0
  9 12  1  0  0  0  0
 10  8  1  0  0  0  0
 11 14  1  0  0  0  0
 13 12  2  0  0  0  0
 14  7  1  0  0  0  0
 14  8  1  0  0  0  0
 15 16  1  0  0  0  0
 17 22  1  0  0  0  0
 17 24  1  1  0  0  0
 18 23  1  0  0  0  0
 19 20  1  0  0  0  0
 19 22  2  0  0  0  0
 20 18  2  0  0  0  0
 21 23  2  0  0  0  0
 22 21  1  0  0  0  0
 24 27  1  0  0  0  0
 25 27  2  0  0  0  0
 27 26  1  0  0  0  0
M  END
>  <MODEL>
8

>  <REMARK>
 VINA RESULT:      -7.1      2.181      4.026
  Name = 
  6 active torsions:
  status: ('A' for Active; 'I' for Inactive)
    1  A    between atoms: C_5  and  O_23
    2  A    between atoms: C_7  and  C_8
    3  A    between atoms: C_11  and  C_14
    4  A    between atoms: C_11  and  C_15
    5  A    between atoms: C_11  and  C_20
    6  A    between atoms: C_14  and  C_27
                            x       y       z     vdW  Elec       q    Type
                         _______ _______ _______ _____ _____    ______ ____

>  <TORSDO>
F 6

$$$$
=
 OpenBabel10232411443D

 27 29  0  0  1  0  0  0  0  0999 V2000
  189.9210  174.7730  137.2940 C   0  0  0  0  0  0  0  0  0  0  0  0
  192.7490  174.5330  137.6180 C   0  0  2  0  0  3  0  0  0  0  0  0
  192.0160  173.7150  136.5920 C   0  0  0  0  0  3  0  0  0  0  0  0
  190.5860  175.6770  138.0290 C   0  0  0  0  0  0  0  0  0  0  0  0
  191.9890  175.6690  138.0380 O   0  0  0  0  0  0  0  0  0  0  0  0
  190.6900  173.8080  136.4790 C   0  0  0  0  0  3  0  0  0  0  0  0
  196.5260  175.8600  136.1090 N   0  0  0  0  0  2  0  0  0  0  0  0
  195.2220  174.3360  137.5220 C   0  0  0  0  0  0  0  0  0  0  0  0
  194.0990  174.9570  137.1190 C   0  0  0  0  0  0  0  0  0  0  0  0
  195.1650  173.1930  138.4900 C   0  0  0  0  0  1  0  0  0  0  0  0
  197.7380  174.1570  137.4100 C   0  0  0  0  0  1  0  0  0  0  0  0
  194.1880  176.0820  136.1640 C   0  0  0  0  0  3  0  0  0  0  0  0
  195.3340  176.4840  135.7080 N   0  0  0  0  0  0  0  0  0  0  0  0
  196.4890  174.7860  137.0130 N   0  0  0  0  0  0  0  0  0  0  0  0
  187.7760  174.9780  136.0820 C   0  0  0  0  0  1  0  0  0  0  0  0
  188.5220  174.7770  137.2750 O   0  0  0  0  0  0  0  0  0  0  0  0
  189.8420  176.7250  138.8090 C   0  0  1  0  0  3  0  0  0  0  0  0
  191.1930  177.2360  142.8640 C   0  0  0  0  0  3  0  0  0  0  0  0
  191.6200  177.4030  140.4860 C   0  0  0  0  0  3  0  0  0  0  0  0
  192.0470  177.5660  141.8070 C   0  0  0  0  0  3  0  0  0  0  0  0
  189.4850  176.5770  141.2770 C   0  0  0  0  0  3  0  0  0  0  0  0
  190.3360  176.9040  140.2150 C   0  0  0  0  0  0  0  0  0  0  0  0
  189.9120  176.7430  142.5990 C   0  0  0  0  0  3  0  0  0  0  0  0
  189.6300  178.0370  138.0460 C   0  0  0  0  0  2  0  0  0  0  0  0
  187.2900  177.7090  138.3910 O   0  0  0  0  0  1  0  0  0  0  0  0
  187.8480  179.4160  136.9680 O   0  0  0  0  0  0  0  0  0  0  0  0
  188.1910  178.3720  137.8150 C   0  0  0  0  0  0  0  0  0  0  0  0
  1  4  2  0  0  0  0
  2  9  1  6  0  0  0
  2  5  1  0  0  0  0
  3  2  1  0  0  0  0
  4  5  1  0  0  0  0
  4 17  1  0  0  0  0
  6  3  2  0  0  0  0
  6  1  1  0  0  0  0
  7 14  1  0  0  0  0
  8 10  1  0  0  0  0
  9  8  2  0  0  0  0
 12  9  1  0  0  0  0
 13  7  1  0  0  0  0
 13 12  2  0  0  0  0
 14 11  1  0  0  0  0
 14  8  1  0  0  0  0
 15 16  1  0  0  0  0
 16  1  1  0  0  0  0
 17 24  1  6  0  0  0
 17 22  1  0  0  0  0
 19 20  1  0  0  0  0
 20 18  2  0  0  0  0
 21 23  2  0  0  0  0
 22 19  2  0  0  0  0
 22 21  1  0  0  0  0
 23 18  1  0  0  0  0
 26 27  2  0  0  0  0
 27 24  1  0  0  0  0
 27 25  1  0  0  0  0
M  END
>  <MODEL>
9

>  <REMARK>
 VINA RESULT:      -7.0      6.208      9.264
  Name = 
  6 active torsions:
  status: ('A' for Active; 'I' for Inactive)
    1  A    between atoms: C_5  and  O_23
    2  A    between atoms: C_7  and  C_8
    3  A    between atoms: C_11  and  C_14
    4  A    between atoms: C_11  and  C_15
    5  A    between atoms: C_11  and  C_20
    6  A    between atoms: C_14  and  C_27
                            x       y       z     vdW  Elec       q    Type
                         _______ _______ _______ _____ _____    ______ ____

>  <TORSDO>
F 6

$$$$
