=
 OpenBabel10232408233D

 30 31  0  0  1  0  0  0  0  0999 V2000
  186.1840  178.7350  140.4200 C   0  0  0  0  0  3  0  0  0  0  0  0
  190.4670  177.2770  140.0110 C   0  0  1  0  0  3  0  0  0  0  0  0
  188.5950  178.3410  138.5550 C   0  0  0  0  0  3  0  0  0  0  0  0
  187.1950  178.6810  141.2880 C   0  0  0  0  0  3  0  0  0  0  0  0
  186.1880  178.0140  139.1070 C   0  0  2  0  0  3  0  0  0  0  0  0
  189.0840  177.8390  139.8540 C   0  0  0  0  0  0  0  0  0  0  0  0
  191.5570  176.8000  142.1340 O   0  0  0  0  0  0  0  0  0  0  0  0
  189.3230  177.5740  142.1110 N   0  0  0  0  0  0  0  0  0  0  0  0
  190.5380  177.1700  141.4950 C   0  0  0  0  0  0  0  0  0  0  0  0
  188.4820  177.9950  141.0450 C   0  0  0  0  0  0  0  0  0  0  0  0
  187.3090  178.4640  138.2250 C   0  0  0  0  0  3  0  0  0  0  0  0
  191.2040  175.6880  138.1820 C   0  0  0  0  0  0  0  0  0  0  0  0
  190.5210  175.9510  139.4090 N   0  0  0  0  0  2  0  0  0  0  0  0
  191.2540  174.3520  137.6840 N   0  0  0  0  0  2  0  0  0  0  0  0
  191.7570  176.6260  137.5460 O   0  0  0  0  0  0  0  0  0  0  0  0
  193.3410  173.5500  136.7510 C   0  0  0  0  0  1  0  0  0  0  0  0
  191.9350  174.0190  136.4450 C   0  0  0  0  0  2  0  0  0  0  0  0
  184.9700  178.2170  138.4580 O   0  0  0  0  0  0  0  0  0  0  0  0
  184.3220  179.1980  139.2110 C   0  0  0  0  0  1  0  0  0  0  0  0
  189.0920  177.8410  143.5310 C   0  0  2  0  0  3  0  0  0  0  0  0
  190.3030  177.7440  145.6200 O   0  0  0  0  0  1  0  0  0  0  0  0
  190.4150  178.0650  144.2660 C   0  0  2  0  0  3  0  0  0  0  0  0
  190.8760  179.5020  144.1170 C   0  0  0  0  0  1  0  0  0  0  0  0
  188.2330  176.7550  144.1740 C   0  0  0  0  0  2  0  0  0  0  0  0
  186.8540  177.2980  144.4890 C   0  0  0  0  0  2  0  0  0  0  0  0
  186.9160  178.0990  145.6980 N   0  0  0  0  0  2  0  0  0  0  0  0
  185.7240  178.9330  145.7240 C   0  0  2  0  0  3  0  0  0  0  0  0
  184.9750  178.6380  146.8640 O   0  0  0  0  0  1  0  0  0  0  0  0
  183.6490  178.9810  144.9670 C   0  0  0  0  0  1  0  0  0  0  0  0
  184.9570  178.6800  144.5860 O   0  0  0  0  0  0  0  0  0  0  0  0
  1  4  2  0  0  0  0
  2 13  1  6  0  0  0
  2  9  1  0  0  0  0
  3  6  1  0  0  0  0
  5 18  1  6  0  0  0
  5  1  1  0  0  0  0
  6  2  1  0  0  0  0
  6 10  2  0  0  0  0
  8 20  1  0  0  0  0
  9  8  1  0  0  0  0
  9  7  2  0  0  0  0
 10  4  1  0  0  0  0
 10  8  1  0  0  0  0
 11  3  2  0  0  0  0
 11  5  1  0  0  0  0
 12 13  1  0  0  0  0
 14 12  1  0  0  0  0
 15 12  2  0  0  0  0
 17 16  1  0  0  0  0
 17 14  1  0  0  0  0
 18 19  1  0  0  0  0
 20 24  1  1  0  0  0
 20 22  1  0  0  0  0
 22 23  1  1  0  0  0
 22 21  1  0  0  0  0
 24 25  1  0  0  0  0
 25 26  1  0  0  0  0
 26 27  1  0  0  0  0
 27 28  1  1  0  0  0
 30 29  1  0  0  0  0
 30 27  1  0  0  0  0
M  END
>  <MODEL>
1

>  <REMARK>
 VINA RESULT:      -6.9      0.000      0.000
  Name = 
  10 active torsions:
  status: ('A' for Active; 'I' for Inactive)
    1  A    between atoms: C_3  and  N_20
    2  A    between atoms: C_3  and  C_25
    3  A    between atoms: C_3  and  C_26
    4  A    between atoms: C_4  and  N_22
    5  A    between atoms: C_4  and  C_26
    6  A    between atoms: O_5  and  C_15
    7  A    between atoms: C_8  and  N_9
    8  A    between atoms: C_10  and  O_18
    9  A    between atoms: C_10  and  N_22
   10  A    between atoms: N_16  and  C_27
                            x       y       z     vdW  Elec       q    Type
                         _______ _______ _______ _____ _____    ______ ____

>  <TORSDO>
F 10

$$$$
=
 OpenBabel10232408233D

 30 31  0  0  1  0  0  0  0  0999 V2000
  186.8090  178.4070  139.7830 C   0  0  0  0  0  3  0  0  0  0  0  0
  191.2240  177.4820  139.2390 C   0  0  1  0  0  3  0  0  0  0  0  0
  189.2180  178.4180  137.8750 C   0  0  0  0  0  3  0  0  0  0  0  0
  187.8340  178.4130  140.6370 C   0  0  0  0  0  3  0  0  0  0  0  0
  186.8740  177.7810  138.4250 C   0  0  2  0  0  3  0  0  0  0  0  0
  189.7830  177.8910  139.1330 C   0  0  0  0  0  0  0  0  0  0  0  0
  192.3960  176.9940  141.3150 O   0  0  0  0  0  0  0  0  0  0  0  0
  190.0880  177.5060  141.3640 N   0  0  0  0  0  0  0  0  0  0  0  0
  191.3300  177.2860  140.7110 C   0  0  0  0  0  0  0  0  0  0  0  0
  189.1860  177.8970  140.3360 C   0  0  0  0  0  0  0  0  0  0  0  0
  187.9220  178.4140  137.5650 C   0  0  0  0  0  3  0  0  0  0  0  0
  192.6660  175.8380  137.9610 C   0  0  0  0  0  0  0  0  0  0  0  0
  191.4190  176.2140  138.5470 N   0  0  0  0  0  2  0  0  0  0  0  0
  192.7900  174.5580  137.3460 N   0  0  0  0  0  2  0  0  0  0  0  0
  193.6470  176.6300  137.9870 O   0  0  0  0  0  0  0  0  0  0  0  0
  194.7440  173.1620  137.6710 C   0  0  0  0  0  1  0  0  0  0  0  0
  194.0320  174.1160  136.7350 C   0  0  0  0  0  2  0  0  0  0  0  0
  185.6300  177.8850  137.8010 O   0  0  0  0  0  0  0  0  0  0  0  0
  185.8150  177.3190  136.5380 C   0  0  0  0  0  1  0  0  0  0  0  0
  189.8510  177.6500  142.8010 C   0  0  2  0  0  3  0  0  0  0  0  0
  191.5020  177.2760  144.5260 O   0  0  0  0  0  1  0  0  0  0  0  0
  191.1090  178.1530  143.5120 C   0  0  2  0  0  3  0  0  0  0  0  0
  190.8820  179.5360  144.0900 C   0  0  0  0  0  1  0  0  0  0  0  0
  189.3000  176.3630  143.4100 C   0  0  0  0  0  2  0  0  0  0  0  0
  187.8360  176.5380  143.7610 C   0  0  0  0  0  2  0  0  0  0  0  0
  187.6630  177.7710  144.5070 N   0  0  0  0  0  2  0  0  0  0  0  0
  187.7250  177.4300  145.9200 C   0  0  2  0  0  3  0  0  0  0  0  0
  186.5890  177.9210  146.5680 O   0  0  0  0  0  1  0  0  0  0  0  0
  189.3490  177.0310  147.3640 C   0  0  0  0  0  1  0  0  0  0  0  0
  188.8650  178.0020  146.4860 O   0  0  0  0  0  0  0  0  0  0  0  0
  1  4  2  0  0  0  0
  2 13  1  6  0  0  0
  2  9  1  0  0  0  0
  3  6  1  0  0  0  0
  5 18  1  6  0  0  0
  5  1  1  0  0  0  0
  6  2  1  0  0  0  0
  6 10  2  0  0  0  0
  8 20  1  0  0  0  0
  9  7  2  0  0  0  0
  9  8  1  0  0  0  0
 10  4  1  0  0  0  0
 10  8  1  0  0  0  0
 11  3  2  0  0  0  0
 11  5  1  0  0  0  0
 12 15  2  0  0  0  0
 12 13  1  0  0  0  0
 14 12  1  0  0  0  0
 17 14  1  0  0  0  0
 17 16  1  0  0  0  0
 19 18  1  0  0  0  0
 20 24  1  1  0  0  0
 20 22  1  0  0  0  0
 22 23  1  1  0  0  0
 22 21  1  0  0  0  0
 24 25  1  0  0  0  0
 25 26  1  0  0  0  0
 26 27  1  0  0  0  0
 27 30  1  0  0  0  0
 27 28  1  1  0  0  0
 30 29  1  0  0  0  0
M  END
>  <MODEL>
2

>  <REMARK>
 VINA RESULT:      -6.7      1.634      2.041
  Name = 
  10 active torsions:
  status: ('A' for Active; 'I' for Inactive)
    1  A    between atoms: C_3  and  N_20
    2  A    between atoms: C_3  and  C_25
    3  A    between atoms: C_3  and  C_26
    4  A    between atoms: C_4  and  N_22
    5  A    between atoms: C_4  and  C_26
    6  A    between atoms: O_5  and  C_15
    7  A    between atoms: C_8  and  N_9
    8  A    between atoms: C_10  and  O_18
    9  A    between atoms: C_10  and  N_22
   10  A    between atoms: N_16  and  C_27
                            x       y       z     vdW  Elec       q    Type
                         _______ _______ _______ _____ _____    ______ ____

>  <TORSDO>
F 10

$$$$
=
 OpenBabel10232408233D

 30 31  0  0  1  0  0  0  0  0999 V2000
  191.2570  176.6230  141.5450 C   0  0  0  0  0  3  0  0  0  0  0  0
  187.2870  178.8260  141.3900 C   0  0  1  0  0  3  0  0  0  0  0  0
  189.3520  178.5830  142.9500 C   0  0  0  0  0  3  0  0  0  0  0  0
  190.5240  177.0720  140.5250 C   0  0  0  0  0  3  0  0  0  0  0  0
  190.7370  176.5130  142.9440 C   0  0  2  0  0  3  0  0  0  0  0  0
  188.6390  178.2530  141.7010 C   0  0  0  0  0  0  0  0  0  0  0  0
  186.1770  178.7150  139.2270 O   0  0  0  0  0  0  0  0  0  0  0  0
  188.2600  177.6390  139.5330 N   0  0  0  0  0  0  0  0  0  0  0  0
  187.1460  178.4050  139.9690 C   0  0  0  0  0  0  0  0  0  0  0  0
  189.1500  177.6040  140.6410 C   0  0  0  0  0  0  0  0  0  0  0  0
  190.3170  177.8400  143.4930 C   0  0  0  0  0  3  0  0  0  0  0  0
  185.2790  178.8830  142.9340 C   0  0  0  0  0  0  0  0  0  0  0  0
  186.2800  178.1640  142.2120 N   0  0  0  0  0  2  0  0  0  0  0  0
  184.2990  178.1600  143.6750 N   0  0  0  0  0  2  0  0  0  0  0  0
  185.2620  180.1440  142.9170 O   0  0  0  0  0  0  0  0  0  0  0  0
  181.9910  178.8910  143.5950 C   0  0  0  0  0  1  0  0  0  0  0  0
  183.2540  178.8320  144.4270 C   0  0  0  0  0  2  0  0  0  0  0  0
  191.7180  175.9560  143.7660 O   0  0  0  0  0  0  0  0  0  0  0  0
  191.5740  176.6130  144.9900 C   0  0  0  0  0  1  0  0  0  0  0  0
  188.6000  177.2650  138.1590 C   0  0  2  0  0  3  0  0  0  0  0  0
  189.0530  179.6380  138.0910 O   0  0  0  0  0  1  0  0  0  0  0  0
  188.8390  178.5080  137.2990 C   0  0  2  0  0  3  0  0  0  0  0  0
  187.6670  178.7490  136.3670 C   0  0  0  0  0  1  0  0  0  0  0  0
  187.5590  176.3210  137.5610 C   0  0  0  0  0  2  0  0  0  0  0  0
  188.2420  175.1270  136.9250 C   0  0  0  0  0  2  0  0  0  0  0  0
  189.6570  175.4120  136.7610 N   0  0  0  0  0  2  0  0  0  0  0  0
  190.3740  174.1660  136.9800 C   0  0  2  0  0  3  0  0  0  0  0  0
  189.4710  173.1660  137.3440 O   0  0  0  0  0  1  0  0  0  0  0  0
  192.5390  174.4110  137.3460 C   0  0  0  0  0  1  0  0  0  0  0  0
  191.3090  174.3410  138.0000 O   0  0  0  0  0  0  0  0  0  0  0  0
  1  5  1  0  0  0  0
  2  6  1  0  0  0  0
  2 13  1  1  0  0  0
  3 11  2  0  0  0  0
  4 10  1  0  0  0  0
  4  1  2  0  0  0  0
  5 11  1  0  0  0  0
  5 18  1  1  0  0  0
  6  3  1  0  0  0  0
  7  9  2  0  0  0  0
  8  9  1  0  0  0  0
  8 10  1  0  0  0  0
  9  2  1  0  0  0  0
 10  6  2  0  0  0  0
 12 14  1  0  0  0  0
 13 12  1  0  0  0  0
 14 17  1  0  0  0  0
 15 12  2  0  0  0  0
 16 17  1  0  0  0  0
 18 19  1  0  0  0  0
 20 24  1  6  0  0  0
 20  8  1  0  0  0  0
 22 23  1  6  0  0  0
 22 21  1  0  0  0  0
 22 20  1  0  0  0  0
 25 24  1  0  0  0  0
 26 25  1  0  0  0  0
 26 27  1  0  0  0  0
 27 28  1  1  0  0  0
 27 30  1  0  0  0  0
 29 30  1  0  0  0  0
M  END
>  <MODEL>
3

>  <REMARK>
 VINA RESULT:      -6.3      2.105      8.126
  Name = 
  10 active torsions:
  status: ('A' for Active; 'I' for Inactive)
    1  A    between atoms: C_3  and  N_20
    2  A    between atoms: C_3  and  C_25
    3  A    between atoms: C_3  and  C_26
    4  A    between atoms: C_4  and  N_22
    5  A    between atoms: C_4  and  C_26
    6  A    between atoms: O_5  and  C_15
    7  A    between atoms: C_8  and  N_9
    8  A    between atoms: C_10  and  O_18
    9  A    between atoms: C_10  and  N_22
   10  A    between atoms: N_16  and  C_27
                            x       y       z     vdW  Elec       q    Type
                         _______ _______ _______ _____ _____    ______ ____

>  <TORSDO>
F 10

$$$$
=
 OpenBabel10232408233D

 30 31  0  0  1  0  0  0  0  0999 V2000
  191.8890  176.6950  142.4920 C   0  0  0  0  0  3  0  0  0  0  0  0
  187.9780  178.7590  141.4520 C   0  0  1  0  0  3  0  0  0  0  0  0
  189.6690  178.6060  143.4200 C   0  0  0  0  0  3  0  0  0  0  0  0
  191.3780  177.1050  141.3310 C   0  0  0  0  0  3  0  0  0  0  0  0
  191.0860  176.5850  143.7510 C   0  0  2  0  0  3  0  0  0  0  0  0
  189.2490  178.2360  142.0540 C   0  0  0  0  0  0  0  0  0  0  0  0
  187.3600  178.5830  139.1050 O   0  0  0  0  0  0  0  0  0  0  0  0
  189.3620  177.5830  139.8680 N   0  0  0  0  0  0  0  0  0  0  0  0
  188.1570  178.3160  140.0420 C   0  0  0  0  0  0  0  0  0  0  0  0
  189.9950  177.5920  141.1410 C   0  0  0  0  0  0  0  0  0  0  0  0
  190.5180  177.9040  144.1710 C   0  0  0  0  0  3  0  0  0  0  0  0
  185.6040  178.7320  142.3350 C   0  0  0  0  0  0  0  0  0  0  0  0
  186.8400  178.0740  142.0530 N   0  0  0  0  0  2  0  0  0  0  0  0
  184.5210  177.9800  142.8780 N   0  0  0  0  0  2  0  0  0  0  0  0
  185.4710  179.9660  142.1060 O   0  0  0  0  0  0  0  0  0  0  0  0
  183.1860  178.9500  144.6510 C   0  0  0  0  0  1  0  0  0  0  0  0
  183.2380  178.5900  143.1820 C   0  0  0  0  0  2  0  0  0  0  0  0
  191.8850  176.0720  144.7730 O   0  0  0  0  0  0  0  0  0  0  0  0
  191.4360  176.7100  145.9320 C   0  0  0  0  0  1  0  0  0  0  0  0
  189.9980  177.2030  138.6060 C   0  0  2  0  0  3  0  0  0  0  0  0
  188.9870  175.3730  137.3930 O   0  0  0  0  0  1  0  0  0  0  0  0
  188.9530  176.7570  137.5820 C   0  0  2  0  0  3  0  0  0  0  0  0
  189.1670  177.4600  136.2560 C   0  0  0  0  0  1  0  0  0  0  0  0
  191.0970  176.1650  138.8230 C   0  0  0  0  0  2  0  0  0  0  0  0
  192.1830  176.3290  137.7780 C   0  0  0  0  0  2  0  0  0  0  0  0
  193.4720  176.4380  138.4360 N   0  0  0  0  0  2  0  0  0  0  0  0
  194.2810  175.3160  137.9850 C   0  0  2  0  0  3  0  0  0  0  0  0
  195.2450  175.0180  138.9500 O   0  0  0  0  0  1  0  0  0  0  0  0
  195.0790  174.4360  136.1220 C   0  0  0  0  0  1  0  0  0  0  0  0
  194.9130  175.6510  136.7870 O   0  0  0  0  0  0  0  0  0  0  0  0
  1  5  1  0  0  0  0
  2 13  1  1  0  0  0
  2  6  1  0  0  0  0
  3 11  2  0  0  0  0
  4  1  2  0  0  0  0
  5 11  1  0  0  0  0
  5 18  1  1  0  0  0
  6  3  1  0  0  0  0
  7  9  2  0  0  0  0
  8  9  1  0  0  0  0
  8 10  1  0  0  0  0
  9  2  1  0  0  0  0
 10  4  1  0  0  0  0
 10  6  2  0  0  0  0
 12 14  1  0  0  0  0
 13 12  1  0  0  0  0
 14 17  1  0  0  0  0
 15 12  2  0  0  0  0
 17 16  1  0  0  0  0
 18 19  1  0  0  0  0
 20 24  1  1  0  0  0
 20  8  1  0  0  0  0
 21 22  1  0  0  0  0
 22 23  1  6  0  0  0
 22 20  1  0  0  0  0
 25 26  1  0  0  0  0
 25 24  1  0  0  0  0
 27 26  1  0  0  0  0
 27 28  1  1  0  0  0
 29 30  1  0  0  0  0
 30 27  1  0  0  0  0
M  END
>  <MODEL>
4

>  <REMARK>
 VINA RESULT:      -6.1      2.338      8.498
  Name = 
  10 active torsions:
  status: ('A' for Active; 'I' for Inactive)
    1  A    between atoms: C_3  and  N_20
    2  A    between atoms: C_3  and  C_25
    3  A    between atoms: C_3  and  C_26
    4  A    between atoms: C_4  and  N_22
    5  A    between atoms: C_4  and  C_26
    6  A    between atoms: O_5  and  C_15
    7  A    between atoms: C_8  and  N_9
    8  A    between atoms: C_10  and  O_18
    9  A    between atoms: C_10  and  N_22
   10  A    between atoms: N_16  and  C_27
                            x       y       z     vdW  Elec       q    Type
                         _______ _______ _______ _____ _____    ______ ____

>  <TORSDO>
F 10

$$$$
=
 OpenBabel10232408233D

 30 31  0  0  1  0  0  0  0  0999 V2000
  184.8970  178.6120  142.4460 C   0  0  0  0  0  3  0  0  0  0  0  0
  188.1880  178.1050  139.3540 C   0  0  1  0  0  3  0  0  0  0  0  0
  185.7570  179.0100  139.5220 C   0  0  0  0  0  3  0  0  0  0  0  0
  186.2270  178.6140  142.5490 C   0  0  0  0  0  3  0  0  0  0  0  0
  184.1680  178.1340  141.2290 C   0  0  2  0  0  3  0  0  0  0  0  0
  186.9490  178.4050  140.1470 C   0  0  0  0  0  0  0  0  0  0  0  0
  190.3490  177.5050  140.2990 O   0  0  0  0  0  0  0  0  0  0  0  0
  188.4920  177.8220  141.7280 N   0  0  0  0  0  0  0  0  0  0  0  0
  189.1280  177.7700  140.4590 C   0  0  0  0  0  0  0  0  0  0  0  0
  187.1590  178.2410  141.4640 C   0  0  0  0  0  0  0  0  0  0  0  0
  184.5200  178.9330  140.0140 C   0  0  0  0  0  3  0  0  0  0  0  0
  188.1670  176.9380  137.1060 C   0  0  0  0  0  0  0  0  0  0  0  0
  187.9560  176.9330  138.5190 N   0  0  0  0  0  2  0  0  0  0  0  0
  187.9650  175.7360  136.3660 N   0  0  0  0  0  2  0  0  0  0  0  0
  188.5280  177.9940  136.5190 O   0  0  0  0  0  0  0  0  0  0  0  0
  189.5420  175.1160  134.6350 C   0  0  0  0  0  1  0  0  0  0  0  0
  188.1660  175.6750  134.9290 C   0  0  0  0  0  2  0  0  0  0  0  0
  182.7920  178.2000  141.4500 O   0  0  0  0  0  0  0  0  0  0  0  0
  182.2170  177.6980  140.2810 C   0  0  0  0  0  1  0  0  0  0  0  0
  189.1300  177.8000  143.0450 C   0  0  2  0  0  3  0  0  0  0  0  0
  191.3460  176.8780  143.3260 O   0  0  0  0  0  1  0  0  0  0  0  0
  190.6400  178.0130  142.9220 C   0  0  2  0  0  3  0  0  0  0  0  0
  191.0820  179.2100  143.7410 C   0  0  0  0  0  1  0  0  0  0  0  0
  188.7710  176.5350  143.8210 C   0  0  0  0  0  2  0  0  0  0  0  0
  188.0360  176.8970  145.0960 C   0  0  0  0  0  2  0  0  0  0  0  0
  188.6270  178.0930  145.6700 N   0  0  0  0  0  2  0  0  0  0  0  0
  189.2590  177.7020  146.9210 C   0  0  2  0  0  3  0  0  0  0  0  0
  190.4030  176.9500  146.6490 O   0  0  0  0  0  1  0  0  0  0  0  0
  188.0120  177.7560  148.7440 C   0  0  0  0  0  1  0  0  0  0  0  0
  188.3670  176.9360  147.6720 O   0  0  0  0  0  0  0  0  0  0  0  0
  1  4  2  0  0  0  0
  2 13  1  6  0  0  0
  2  6  1  0  0  0  0
  2  9  1  0  0  0  0
  3 11  2  0  0  0  0
  3  6  1  0  0  0  0
  5 18  1  1  0  0  0
  5  1  1  0  0  0  0
  6 10  2  0  0  0  0
  7  9  2  0  0  0  0
  8 20  1  0  0  0  0
  9  8  1  0  0  0  0
 10  8  1  0  0  0  0
 10  4  1  0  0  0  0
 11  5  1  0  0  0  0
 12 13  1  0  0  0  0
 14 12  1  0  0  0  0
 15 12  2  0  0  0  0
 16 17  1  0  0  0  0
 17 14  1  0  0  0  0
 19 18  1  0  0  0  0
 20 24  1  6  0  0  0
 22 20  1  0  0  0  0
 22 21  1  0  0  0  0
 22 23  1  1  0  0  0
 24 25  1  0  0  0  0
 25 26  1  0  0  0  0
 26 27  1  0  0  0  0
 27 28  1  6  0  0  0
 27 30  1  0  0  0  0
 30 29  1  0  0  0  0
M  END
>  <MODEL>
5

>  <REMARK>
 VINA RESULT:      -6.0      2.325      3.121
  Name = 
  10 active torsions:
  status: ('A' for Active; 'I' for Inactive)
    1  A    between atoms: C_3  and  N_20
    2  A    between atoms: C_3  and  C_25
    3  A    between atoms: C_3  and  C_26
    4  A    between atoms: C_4  and  N_22
    5  A    between atoms: C_4  and  C_26
    6  A    between atoms: O_5  and  C_15
    7  A    between atoms: C_8  and  N_9
    8  A    between atoms: C_10  and  O_18
    9  A    between atoms: C_10  and  N_22
   10  A    between atoms: N_16  and  C_27
                            x       y       z     vdW  Elec       q    Type
                         _______ _______ _______ _____ _____    ______ ____

>  <TORSDO>
F 10

$$$$
=
 OpenBabel10232408233D

 30 31  0  0  1  0  0  0  0  0999 V2000
  189.6220  177.3490  146.1010 C   0  0  0  0  0  3  0  0  0  0  0  0
  187.8550  177.3180  141.9150 C   0  0  1  0  0  3  0  0  0  0  0  0
  189.8270  176.2560  143.2350 C   0  0  0  0  0  3  0  0  0  0  0  0
  188.3740  177.5080  145.6570 C   0  0  0  0  0  3  0  0  0  0  0  0
  190.8240  177.4020  145.2090 C   0  0  2  0  0  3  0  0  0  0  0  0
  188.6340  177.1240  143.1840 C   0  0  0  0  0  0  0  0  0  0  0  0
  185.6640  178.3640  141.7580 O   0  0  0  0  0  0  0  0  0  0  0  0
  186.7700  178.2670  143.8460 N   0  0  0  0  0  0  0  0  0  0  0  0
  186.6640  178.0330  142.4480 C   0  0  0  0  0  0  0  0  0  0  0  0
  187.9950  177.6600  144.2370 C   0  0  0  0  0  0  0  0  0  0  0  0
  190.7880  176.3410  144.1550 C   0  0  0  0  0  3  0  0  0  0  0  0
  188.4050  178.1910  139.6020 C   0  0  0  0  0  0  0  0  0  0  0  0
  188.6040  178.1880  141.0170 N   0  0  0  0  0  2  0  0  0  0  0  0
  189.1410  179.1090  138.7960 N   0  0  0  0  0  2  0  0  0  0  0  0
  187.5870  177.3910  139.0710 O   0  0  0  0  0  0  0  0  0  0  0  0
  189.5940  177.9290  136.7300 C   0  0  0  0  0  1  0  0  0  0  0  0
  188.9820  179.1650  137.3530 C   0  0  0  0  0  2  0  0  0  0  0  0
  191.9820  177.2630  145.9750 O   0  0  0  0  0  0  0  0  0  0  0  0
  191.7430  176.1500  146.7840 C   0  0  0  0  0  1  0  0  0  0  0  0
  185.7140  178.7100  144.7560 C   0  0  2  0  0  3  0  0  0  0  0  0
  185.2270  177.3770  146.7130 O   0  0  0  0  0  1  0  0  0  0  0  0
  186.0660  178.3720  146.2060 C   0  0  2  0  0  3  0  0  0  0  0  0
  185.9840  179.6070  147.0820 C   0  0  0  0  0  1  0  0  0  0  0  0
  184.3480  178.1700  144.3370 C   0  0  0  0  0  2  0  0  0  0  0  0
  183.3710  179.3130  144.1470 C   0  0  0  0  0  2  0  0  0  0  0  0
  182.0180  178.7890  144.1040 N   0  0  0  0  0  2  0  0  0  0  0  0
  181.4450  179.1820  142.8260 C   0  0  2  0  0  3  0  0  0  0  0  0
  180.2990  178.4240  142.5770 O   0  0  0  0  0  1  0  0  0  0  0  0
  181.6670  178.2850  140.8190 C   0  0  0  0  0  1  0  0  0  0  0  0
  182.3770  178.9610  141.8120 O   0  0  0  0  0  0  0  0  0  0  0  0
  2 13  1  6  0  0  0
  2  9  1  0  0  0  0
  2  6  1  0  0  0  0
  3 11  2  0  0  0  0
  4  1  2  0  0  0  0
  5 18  1  1  0  0  0
  5  1  1  0  0  0  0
  6  3  1  0  0  0  0
  6 10  2  0  0  0  0
  7  9  2  0  0  0  0
  8 10  1  0  0  0  0
  8 20  1  0  0  0  0
  9  8  1  0  0  0  0
 10  4  1  0  0  0  0
 11  5  1  0  0  0  0
 12 13  1  0  0  0  0
 14 12  1  0  0  0  0
 15 12  2  0  0  0  0
 16 17  1  0  0  0  0
 17 14  1  0  0  0  0
 18 19  1  0  0  0  0
 20 24  1  6  0  0  0
 20 22  1  0  0  0  0
 22 21  1  0  0  0  0
 22 23  1  1  0  0  0
 25 24  1  0  0  0  0
 26 25  1  0  0  0  0
 27 28  1  6  0  0  0
 27 26  1  0  0  0  0
 29 30  1  0  0  0  0
 30 27  1  0  0  0  0
M  END
>  <MODEL>
6

>  <REMARK>
 VINA RESULT:      -5.9      2.671      5.588
  Name = 
  10 active torsions:
  status: ('A' for Active; 'I' for Inactive)
    1  A    between atoms: C_3  and  N_20
    2  A    between atoms: C_3  and  C_25
    3  A    between atoms: C_3  and  C_26
    4  A    between atoms: C_4  and  N_22
    5  A    between atoms: C_4  and  C_26
    6  A    between atoms: O_5  and  C_15
    7  A    between atoms: C_8  and  N_9
    8  A    between atoms: C_10  and  O_18
    9  A    between atoms: C_10  and  N_22
   10  A    between atoms: N_16  and  C_27
                            x       y       z     vdW  Elec       q    Type
                         _______ _______ _______ _____ _____    ______ ____

>  <TORSDO>
F 10

$$$$
=
 OpenBabel10232408233D

 30 31  0  0  1  0  0  0  0  0999 V2000
  186.9140  177.7480  145.4330 C   0  0  0  0  0  3  0  0  0  0  0  0
  186.3240  179.0280  141.1140 C   0  0  1  0  0  3  0  0  0  0  0  0
  185.2790  179.4430  143.4570 C   0  0  0  0  0  3  0  0  0  0  0  0
  187.7690  177.8860  144.4180 C   0  0  0  0  0  3  0  0  0  0  0  0
  185.4270  177.7290  145.2580 C   0  0  2  0  0  3  0  0  0  0  0  0
  186.2910  178.7990  142.5970 C   0  0  0  0  0  0  0  0  0  0  0  0
  188.1460  178.3860  139.6340 O   0  0  0  0  0  0  0  0  0  0  0  0
  188.2450  177.8230  141.9280 N   0  0  0  0  0  0  0  0  0  0  0  0
  187.6290  178.3920  140.7820 C   0  0  0  0  0  0  0  0  0  0  0  0
  187.3790  178.1310  143.0130 C   0  0  0  0  0  0  0  0  0  0  0  0
  184.9150  179.0020  144.6620 C   0  0  0  0  0  3  0  0  0  0  0  0
  184.3780  178.8720  139.5000 C   0  0  0  0  0  0  0  0  0  0  0  0
  185.2330  178.2920  140.4870 N   0  0  0  0  0  2  0  0  0  0  0  0
  183.3640  178.0700  138.8970 N   0  0  0  0  0  2  0  0  0  0  0  0
  184.5180  180.0800  139.1650 O   0  0  0  0  0  0  0  0  0  0  0  0
  181.1930  179.0850  138.5440 C   0  0  0  0  0  1  0  0  0  0  0  0
  182.4660  178.5990  137.8850 C   0  0  0  0  0  2  0  0  0  0  0  0
  184.8140  177.5100  146.4920 O   0  0  0  0  0  0  0  0  0  0  0  0
  184.8610  178.7460  147.1400 C   0  0  0  0  0  1  0  0  0  0  0  0
  189.6210  177.3400  142.0500 C   0  0  2  0  0  3  0  0  0  0  0  0
  190.1720  176.1580  140.0160 O   0  0  0  0  0  1  0  0  0  0  0  0
  190.3310  177.3670  140.6960 C   0  0  2  0  0  3  0  0  0  0  0  0
  191.8070  177.6680  140.8680 C   0  0  0  0  0  1  0  0  0  0  0  0
  189.6760  175.9690  142.7210 C   0  0  0  0  0  2  0  0  0  0  0  0
  190.8980  175.8740  143.6130 C   0  0  0  0  0  2  0  0  0  0  0  0
  191.0070  177.0820  144.4110 N   0  0  0  0  0  2  0  0  0  0  0  0
  190.9420  176.6820  145.8090 C   0  0  2  0  0  3  0  0  0  0  0  0
  190.0810  177.5370  146.4980 O   0  0  0  0  0  1  0  0  0  0  0  0
  192.2670  175.6860  147.2690 C   0  0  0  0  0  1  0  0  0  0  0  0
  192.2170  176.7520  146.3710 O   0  0  0  0  0  0  0  0  0  0  0  0
  2 13  1  6  0  0  0
  2  6  1  0  0  0  0
  3 11  2  0  0  0  0
  4  1  2  0  0  0  0
  5  1  1  0  0  0  0
  5 18  1  1  0  0  0
  6 10  2  0  0  0  0
  6  3  1  0  0  0  0
  7  9  2  0  0  0  0
  8 20  1  0  0  0  0
  8 10  1  0  0  0  0
  9  2  1  0  0  0  0
  9  8  1  0  0  0  0
 10  4  1  0  0  0  0
 11  5  1  0  0  0  0
 12 13  1  0  0  0  0
 14 12  1  0  0  0  0
 15 12  2  0  0  0  0
 17 16  1  0  0  0  0
 17 14  1  0  0  0  0
 18 19  1  0  0  0  0
 20 24  1  6  0  0  0
 21 22  1  0  0  0  0
 22 23  1  1  0  0  0
 22 20  1  0  0  0  0
 24 25  1  0  0  0  0
 25 26  1  0  0  0  0
 26 27  1  0  0  0  0
 27 30  1  0  0  0  0
 27 28  1  1  0  0  0
 30 29  1  0  0  0  0
M  END
>  <MODEL>
7

>  <REMARK>
 VINA RESULT:      -5.8      2.727      6.357
  Name = 
  10 active torsions:
  status: ('A' for Active; 'I' for Inactive)
    1  A    between atoms: C_3  and  N_20
    2  A    between atoms: C_3  and  C_25
    3  A    between atoms: C_3  and  C_26
    4  A    between atoms: C_4  and  N_22
    5  A    between atoms: C_4  and  C_26
    6  A    between atoms: O_5  and  C_15
    7  A    between atoms: C_8  and  N_9
    8  A    between atoms: C_10  and  O_18
    9  A    between atoms: C_10  and  N_22
   10  A    between atoms: N_16  and  C_27
                            x       y       z     vdW  Elec       q    Type
                         _______ _______ _______ _____ _____    ______ ____

>  <TORSDO>
F 10

$$$$
=
 OpenBabel10232408233D

 30 31  0  0  1  0  0  0  0  0999 V2000
  191.0300  176.5200  141.3660 C   0  0  0  0  0  3  0  0  0  0  0  0
  187.1260  178.8400  141.4990 C   0  0  1  0  0  3  0  0  0  0  0  0
  189.2820  178.5170  142.9150 C   0  0  0  0  0  3  0  0  0  0  0  0
  190.2450  177.0020  140.4020 C   0  0  0  0  0  3  0  0  0  0  0  0
  190.6010  176.4080  142.7960 C   0  0  2  0  0  3  0  0  0  0  0  0
  188.4780  178.2230  141.7130 C   0  0  0  0  0  0  0  0  0  0  0  0
  185.8720  178.7870  139.4140 O   0  0  0  0  0  0  0  0  0  0  0  0
  187.9380  177.6470  139.5690 N   0  0  0  0  0  0  0  0  0  0  0  0
  186.8790  178.4400  140.0860 C   0  0  0  0  0  0  0  0  0  0  0  0
  188.8980  177.5730  140.6150 C   0  0  0  0  0  0  0  0  0  0  0  0
  190.2580  177.7400  143.3850 C   0  0  0  0  0  3  0  0  0  0  0  0
  185.2060  178.9360  143.1490 C   0  0  0  0  0  0  0  0  0  0  0  0
  186.1570  178.1980  142.3790 N   0  0  0  0  0  2  0  0  0  0  0  0
  184.2580  178.2320  143.9480 N   0  0  0  0  0  2  0  0  0  0  0  0
  185.2040  180.1970  143.1220 O   0  0  0  0  0  0  0  0  0  0  0  0
  181.9050  178.7880  144.0970 C   0  0  0  0  0  1  0  0  0  0  0  0
  183.2640  178.9230  144.7500 C   0  0  0  0  0  2  0  0  0  0  0  0
  191.6170  175.8130  143.5450 O   0  0  0  0  0  0  0  0  0  0  0  0
  191.6060  176.4910  144.7650 C   0  0  0  0  0  1  0  0  0  0  0  0
  188.1740  177.2800  138.1720 C   0  0  2  0  0  3  0  0  0  0  0  0
  187.6410  179.1480  136.7350 O   0  0  0  0  0  1  0  0  0  0  0  0
  188.6870  178.4780  137.3730 C   0  0  2  0  0  3  0  0  0  0  0  0
  189.7160  178.0400  136.3480 C   0  0  0  0  0  1  0  0  0  0  0  0
  186.9400  176.6340  137.5460 C   0  0  0  0  0  2  0  0  0  0  0  0
  187.2940  175.2720  136.9820 C   0  0  0  0  0  2  0  0  0  0  0  0
  186.0740  174.5370  136.6970 N   0  0  0  0  0  2  0  0  0  0  0  0
  186.1920  173.2410  137.3460 C   0  0  2  0  0  3  0  0  0  0  0  0
  187.4110  172.6550  136.9980 O   0  0  0  0  0  1  0  0  0  0  0  0
  184.3520  173.2330  136.1240 C   0  0  0  0  0  1  0  0  0  0  0  0
  185.1450  172.4170  136.9300 O   0  0  0  0  0  0  0  0  0  0  0  0
  1  5  1  0  0  0  0
  2  6  1  0  0  0  0
  2 13  1  1  0  0  0
  3 11  2  0  0  0  0
  4 10  1  0  0  0  0
  4  1  2  0  0  0  0
  5 11  1  0  0  0  0
  5 18  1  1  0  0  0
  6  3  1  0  0  0  0
  7  9  2  0  0  0  0
  8  9  1  0  0  0  0
  8 10  1  0  0  0  0
  9  2  1  0  0  0  0
 10  6  2  0  0  0  0
 12 14  1  0  0  0  0
 13 12  1  0  0  0  0
 14 17  1  0  0  0  0
 15 12  2  0  0  0  0
 16 17  1  0  0  0  0
 18 19  1  0  0  0  0
 20 24  1  6  0  0  0
 20  8  1  0  0  0  0
 21 22  1  0  0  0  0
 22 23  1  6  0  0  0
 22 20  1  0  0  0  0
 25 24  1  0  0  0  0
 26 25  1  0  0  0  0
 26 27  1  0  0  0  0
 27 28  1  6  0  0  0
 29 30  1  0  0  0  0
 30 27  1  0  0  0  0
M  END
>  <MODEL>
8

>  <REMARK>
 VINA RESULT:      -5.8      2.915      8.060
  Name = 
  10 active torsions:
  status: ('A' for Active; 'I' for Inactive)
    1  A    between atoms: C_3  and  N_20
    2  A    between atoms: C_3  and  C_25
    3  A    between atoms: C_3  and  C_26
    4  A    between atoms: C_4  and  N_22
    5  A    between atoms: C_4  and  C_26
    6  A    between atoms: O_5  and  C_15
    7  A    between atoms: C_8  and  N_9
    8  A    between atoms: C_10  and  O_18
    9  A    between atoms: C_10  and  N_22
   10  A    between atoms: N_16  and  C_27
                            x       y       z     vdW  Elec       q    Type
                         _______ _______ _______ _____ _____    ______ ____

>  <TORSDO>
F 10

$$$$
=
 OpenBabel10232408233D

 30 31  0  0  1  0  0  0  0  0999 V2000
  188.9080  177.9990  138.7720 C   0  0  0  0  0  3  0  0  0  0  0  0
  184.5290  178.7570  139.7160 C   0  0  1  0  0  3  0  0  0  0  0  0
  186.0230  178.0390  137.7140 C   0  0  0  0  0  3  0  0  0  0  0  0
  188.2020  177.8710  139.8960 C   0  0  0  0  0  3  0  0  0  0  0  0
  188.4100  178.7370  137.5680 C   0  0  2  0  0  3  0  0  0  0  0  0
  185.8710  178.4280  139.1290 C   0  0  0  0  0  0  0  0  0  0  0  0
  184.0580  179.0070  142.0900 O   0  0  0  0  0  0  0  0  0  0  0  0
  186.2740  178.6040  141.3710 N   0  0  0  0  0  0  0  0  0  0  0  0
  184.8860  178.8200  141.1600 C   0  0  0  0  0  0  0  0  0  0  0  0
  186.8150  178.3460  140.0820 C   0  0  0  0  0  0  0  0  0  0  0  0
  187.1570  178.1310  137.0180 C   0  0  0  0  0  3  0  0  0  0  0  0
  182.7560  180.3570  138.8730 C   0  0  0  0  0  0  0  0  0  0  0  0
  184.1050  180.0700  139.2460 N   0  0  0  0  0  2  0  0  0  0  0  0
  182.4090  181.6810  138.4710 N   0  0  0  0  0  2  0  0  0  0  0  0
  181.8800  179.4500  138.8990 O   0  0  0  0  0  0  0  0  0  0  0  0
  181.0690  183.3720  137.3720 C   0  0  0  0  0  1  0  0  0  0  0  0
  181.0560  182.0370  138.0840 C   0  0  0  0  0  2  0  0  0  0  0  0
  189.3970  178.7470  136.5830 O   0  0  0  0  0  0  0  0  0  0  0  0
  189.3930  177.4530  136.0590 C   0  0  0  0  0  1  0  0  0  0  0  0
  186.9510  178.3470  142.6430 C   0  0  2  0  0  3  0  0  0  0  0  0
  188.0650  176.2240  142.9460 O   0  0  0  0  0  1  0  0  0  0  0  0
  188.2150  177.5120  142.4290 C   0  0  2  0  0  3  0  0  0  0  0  0
  189.4170  178.1830  143.0650 C   0  0  0  0  0  1  0  0  0  0  0  0
  186.0020  177.7330  143.6700 C   0  0  0  0  0  2  0  0  0  0  0  0
  186.2180  178.3720  145.0270 C   0  0  0  0  0  2  0  0  0  0  0  0
  186.6630  177.3610  145.9700 N   0  0  0  0  0  2  0  0  0  0  0  0
  187.8940  177.8490  146.5740 C   0  0  2  0  0  3  0  0  0  0  0  0
  188.9110  176.9130  146.3770 O   0  0  0  0  0  1  0  0  0  0  0  0
  188.9790  178.0390  148.4880 C   0  0  0  0  0  1  0  0  0  0  0  0
  187.6960  178.0390  147.9420 O   0  0  0  0  0  0  0  0  0  0  0  0
  1  4  2  0  0  0  0
  2 13  1  6  0  0  0
  2  9  1  0  0  0  0
  3  6  1  0  0  0  0
  4 10  1  0  0  0  0
  5 18  1  6  0  0  0
  5  1  1  0  0  0  0
  6  2  1  0  0  0  0
  6 10  2  0  0  0  0
  8 20  1  0  0  0  0
  9  8  1  0  0  0  0
  9  7  2  0  0  0  0
 10  8  1  0  0  0  0
 11  5  1  0  0  0  0
 11  3  2  0  0  0  0
 12 15  2  0  0  0  0
 12 13  1  0  0  0  0
 14 12  1  0  0  0  0
 16 17  1  0  0  0  0
 17 14  1  0  0  0  0
 19 18  1  0  0  0  0
 20 24  1  1  0  0  0
 22 20  1  0  0  0  0
 22 21  1  0  0  0  0
 22 23  1  1  0  0  0
 24 25  1  0  0  0  0
 25 26  1  0  0  0  0
 26 27  1  0  0  0  0
 27 28  1  1  0  0  0
 27 30  1  0  0  0  0
 30 29  1  0  0  0  0
M  END
>  <MODEL>
9

>  <REMARK>
 VINA RESULT:      -5.7      3.110      6.339
  Name = 
  10 active torsions:
  status: ('A' for Active; 'I' for Inactive)
    1  A    between atoms: C_3  and  N_20
    2  A    between atoms: C_3  and  C_25
    3  A    between atoms: C_3  and  C_26
    4  A    between atoms: C_4  and  N_22
    5  A    between atoms: C_4  and  C_26
    6  A    between atoms: O_5  and  C_15
    7  A    between atoms: C_8  and  N_9
    8  A    between atoms: C_10  and  O_18
    9  A    between atoms: C_10  and  N_22
   10  A    between atoms: N_16  and  C_27
                            x       y       z     vdW  Elec       q    Type
                         _______ _______ _______ _____ _____    ______ ____

>  <TORSDO>
F 10

$$$$
