=
 OpenBabel10222421573D

 40 43  0  0  1  0  0  0  0  0999 V2000
  188.8930  177.9760  139.7330 C   0  0  0  0  0  0  0  0  0  0  0  0
  190.2890  176.6760  138.3580 C   0  0  0  0  0  0  0  0  0  0  0  0
  188.9760  177.1070  137.3820 S   0  0  0  0  0  0  0  0  0  0  0  0
  190.0890  177.2400  139.6290 C   0  0  0  0  0  0  0  0  0  0  0  0
  191.0180  177.0690  140.7850 C   0  0  0  0  0  1  0  0  0  0  0  0
  188.1670  178.0010  138.5510 C   0  0  0  0  0  0  0  0  0  0  0  0
  192.4580  173.9880  136.9940 C   0  0  0  0  0  0  0  0  0  0  0  0
  191.2300  174.6250  137.4150 C   0  0  0  0  0  3  0  0  0  0  0  0
  193.1370  176.3900  137.8920 S   0  0  0  0  0  0  0  0  0  0  0  0
  191.4220  175.8440  137.8920 C   0  0  0  0  0  0  0  0  0  0  0  0
  192.4750  172.8360  136.4860 O   0  0  0  0  0  0  0  0  0  0  0  0
  193.6880  174.8020  137.1760 C   0  0  1  0  0  3  0  0  0  0  0  0
  195.6490  175.0220  138.5360 O   0  0  0  0  0  0  0  0  0  0  0  0
  194.6460  174.1130  138.1470 C   0  0  2  0  0  3  0  0  0  0  0  0
  196.0620  173.9790  137.6870 C   0  0  1  0  0  3  0  0  0  0  0  0
  196.3640  174.5380  136.2990 C   0  0  0  0  0  2  0  0  0  0  0  0
  197.0410  176.4990  135.2180 C   0  0  0  0  0  1  0  0  0  0  0  0
  197.2440  175.6880  136.4070 N   0  0  0  0  0  2  0  0  0  0  0  0
  186.9300  178.6860  138.3610 N   0  0  0  0  0  2  0  0  0  0  0  0
  184.6510  179.9460  139.3490 O   0  0  0  0  0  0  0  0  0  0  0  0
  183.3360  178.0270  139.2110 N   0  0  0  0  0  2  0  0  0  0  0  0
  184.5680  178.7250  139.0480 C   0  0  0  0  0  0  0  0  0  0  0  0
  185.7060  178.0300  138.5420 N   0  0  0  0  0  2  0  0  0  0  0  0
  182.1960  178.6790  139.7010 N   0  0  0  0  0  2  0  0  0  0  0  0
  181.1390  178.7750  143.1490 O   0  0  0  0  0  0  0  0  0  0  0  0
  182.1450  178.4360  141.0820 N   0  0  0  0  0  2  0  0  0  0  0  0
  181.1540  179.0370  141.9190 C   0  0  0  0  0  0  0  0  0  0  0  0
  180.1440  179.9810  141.3590 C   0  0  0  0  0  1  0  0  0  0  0  0
  188.4610  178.6950  140.9700 C   0  0  0  0  0  2  0  0  0  0  0  0
  187.4790  177.8410  141.7470 C   0  0  0  0  0  2  0  0  0  0  0  0
  186.2910  178.6850  142.1570 C   0  0  0  0  0  2  0  0  0  0  0  0
  185.6040  178.0400  143.7050 S   0  0  0  0  0  0  0  0  0  0  0  0
  187.1330  177.2770  144.1390 N   0  0  0  0  0  2  0  0  0  0  0  0
  187.5580  177.8780  145.3900 C   0  0  0  0  0  2  0  0  0  0  0  0
  191.2650  177.3190  144.9470 C   0  0  0  0  0  3  0  0  0  0  0  0
  191.5980  176.7770  146.1900 C   0  0  0  0  0  3  0  0  0  0  0  0
  189.9460  177.6880  144.6790 C   0  0  0  0  0  3  0  0  0  0  0  0
  190.5960  176.6060  147.1490 C   0  0  0  0  0  3  0  0  0  0  0  0
  188.9740  177.5100  145.6670 C   0  0  0  0  0  0  0  0  0  0  0  0
  189.3150  176.9720  146.8700 N   0  0  0  0  0  0  0  0  0  0  0  0
  1 29  1  0  0  0  0
  2  4  2  0  0  0  0
  3  2  1  0  0  0  0
  3  6  1  0  0  0  0
  4  1  1  0  0  0  0
  4  5  1  0  0  0  0
  6  1  2  0  0  0  0
  7  8  1  0  0  0  0
  8 10  2  0  0  0  0
  9 10  1  0  0  0  0
 10  2  1  0  0  0  0
 11  7  2  0  0  0  0
 12  7  1  1  0  0  0
 12  9  1  0  0  0  0
 12 14  1  0  0  0  0
 14 13  1  1  0  0  0
 15 16  1  6  0  0  0
 15 14  1  0  0  0  0
 15 13  1  0  0  0  0
 16 18  1  0  0  0  0
 17 18  1  0  0  0  0
 19 23  1  0  0  0  0
 19  6  1  0  0  0  0
 21 24  1  0  0  0  0
 22 21  1  0  0  0  0
 22 20  2  0  0  0  0
 23 22  1  0  0  0  0
 24 26  1  0  0  0  0
 26 27  1  0  0  0  0
 27 25  2  0  0  0  0
 28 27  1  0  0  0  0
 29 30  1  0  0  0  0
 30 31  1  0  0  0  0
 31 32  1  0  0  0  0
 32 33  1  0  0  0  0
 33 34  1  0  0  0  0
 34 39  1  0  0  0  0
 35 36  1  0  0  0  0
 36 38  2  0  0  0  0
 37 35  2  0  0  0  0
 37 39  1  0  0  0  0
 39 40  2  0  0  0  0
 40 38  1  0  0  0  0
M  END
>  <MODEL>
1

>  <REMARK>
 VINA RESULT:      -7.4      0.000      0.000
  Name = 
  15 active torsions:
  status: ('A' for Active; 'I' for Inactive)
    1  A    between atoms: C_1  and  C_12
    2  A    between atoms: C_1  and  C_24
    3  A    between atoms: N_3  and  N_17
    4  A    between atoms: N_3  and  N_34
    5  A    between atoms: N_5  and  S_33
    6  A    between atoms: N_5  and  C_40
    7  A    between atoms: C_6  and  C_24
    8  A    between atoms: C_7  and  C_30
    9  A    between atoms: N_10  and  C_15
   10  A    between atoms: C_12  and  S_33
   11  A    between atoms: N_14  and  C_31
   12  A    between atoms: N_14  and  N_37
   13  A    between atoms: C_15  and  C_32
   14  A    between atoms: C_20  and  C_39
   15  A    between atoms: C_21  and  C_40
                            x       y       z     vdW  Elec       q    Type
                         _______ _______ _______ _____ _____    ______ ____

>  <TORSDO>
F 15

$$$$
=
 OpenBabel10222421573D

 40 43  0  0  1  0  0  0  0  0999 V2000
  189.0560  177.7050  137.9620 C   0  0  0  0  0  0  0  0  0  0  0  0
  190.9740  176.3480  137.9040 C   0  0  0  0  0  0  0  0  0  0  0  0
  190.7720  176.7670  139.5300 S   0  0  0  0  0  0  0  0  0  0  0  0
  189.9380  176.9470  137.1690 C   0  0  0  0  0  0  0  0  0  0  0  0
  189.7770  176.8360  135.6900 C   0  0  0  0  0  1  0  0  0  0  0  0
  189.3880  177.6910  139.3090 C   0  0  0  0  0  0  0  0  0  0  0  0
  193.0780  173.5550  136.6520 C   0  0  0  0  0  0  0  0  0  0  0  0
  191.8880  174.2080  137.1500 C   0  0  0  0  0  3  0  0  0  0  0  0
  193.7390  176.0900  137.0680 S   0  0  0  0  0  0  0  0  0  0  0  0
  192.0760  175.4920  137.4050 C   0  0  0  0  0  0  0  0  0  0  0  0
  193.0880  172.3390  136.3250 O   0  0  0  0  0  0  0  0  0  0  0  0
  194.2730  174.4300  136.5250 C   0  0  1  0  0  3  0  0  0  0  0  0
  196.2110  175.0230  137.8040 O   0  0  0  0  0  0  0  0  0  0  0  0
  195.3960  173.9340  137.4360 C   0  0  2  0  0  3  0  0  0  0  0  0
  196.7860  174.1000  136.9110 C   0  0  1  0  0  3  0  0  0  0  0  0
  196.9020  174.7310  135.5260 C   0  0  0  0  0  2  0  0  0  0  0  0
  199.2250  174.6410  135.7870 C   0  0  0  0  0  1  0  0  0  0  0  0
  198.1200  175.5180  135.4390 N   0  0  0  0  0  2  0  0  0  0  0  0
  188.6610  178.3540  140.3420 N   0  0  0  0  0  2  0  0  0  0  0  0
  189.7530  178.3570  142.9050 O   0  0  0  0  0  0  0  0  0  0  0  0
  188.1190  176.9420  143.7750 N   0  0  0  0  0  2  0  0  0  0  0  0
  188.7100  177.6770  142.7070 C   0  0  0  0  0  0  0  0  0  0  0  0
  188.1120  177.6370  141.4130 N   0  0  0  0  0  2  0  0  0  0  0  0
  188.6770  176.9610  145.0620 N   0  0  0  0  0  2  0  0  0  0  0  0
  187.2120  178.5110  147.9700 O   0  0  0  0  0  0  0  0  0  0  0  0
  187.7620  177.6180  145.8970 N   0  0  0  0  0  2  0  0  0  0  0  0
  188.0580  177.9040  147.2660 C   0  0  0  0  0  0  0  0  0  0  0  0
  189.3510  177.4810  147.8770 C   0  0  0  0  0  1  0  0  0  0  0  0
  187.8580  178.4210  137.4270 C   0  0  0  0  0  2  0  0  0  0  0  0
  186.6190  177.5700  137.6170 C   0  0  0  0  0  2  0  0  0  0  0  0
  185.5570  178.3760  138.3330 C   0  0  0  0  0  2  0  0  0  0  0  0
  183.9900  177.4670  138.3000 S   0  0  0  0  0  0  0  0  0  0  0  0
  183.3850  178.3360  139.7100 N   0  0  0  0  0  2  0  0  0  0  0  0
  184.5320  178.6120  140.5550 C   0  0  0  0  0  2  0  0  0  0  0  0
  184.6030  178.6850  144.3290 C   0  0  0  0  0  3  0  0  0  0  0  0
  183.2510  178.8900  144.6110 C   0  0  0  0  0  3  0  0  0  0  0  0
  185.0320  178.5990  143.0030 C   0  0  0  0  0  3  0  0  0  0  0  0
  182.3430  179.0010  143.5540 C   0  0  0  0  0  3  0  0  0  0  0  0
  184.0950  178.7230  141.9740 C   0  0  0  0  0  0  0  0  0  0  0  0
  182.7800  178.9150  142.2680 N   0  0  0  0  0  0  0  0  0  0  0  0
  1  6  2  0  0  0  0
  2  3  1  0  0  0  0
  4  2  2  0  0  0  0
  4  1  1  0  0  0  0
  5  4  1  0  0  0  0
  6  3  1  0  0  0  0
  6 19  1  0  0  0  0
  7  8  1  0  0  0  0
  8 10  2  0  0  0  0
  9 10  1  0  0  0  0
 10  2  1  0  0  0  0
 11  7  2  0  0  0  0
 12  7  1  1  0  0  0
 12  9  1  0  0  0  0
 12 14  1  0  0  0  0
 14 13  1  1  0  0  0
 15 16  1  6  0  0  0
 15 14  1  0  0  0  0
 15 13  1  0  0  0  0
 18 16  1  0  0  0  0
 18 17  1  0  0  0  0
 19 23  1  0  0  0  0
 21 24  1  0  0  0  0
 22 20  2  0  0  0  0
 22 21  1  0  0  0  0
 23 22  1  0  0  0  0
 24 26  1  0  0  0  0
 26 27  1  0  0  0  0
 27 28  1  0  0  0  0
 27 25  2  0  0  0  0
 29 30  1  0  0  0  0
 29  1  1  0  0  0  0
 30 31  1  0  0  0  0
 32 31  1  0  0  0  0
 32 33  1  0  0  0  0
 33 34  1  0  0  0  0
 34 39  1  0  0  0  0
 35 36  1  0  0  0  0
 37 35  2  0  0  0  0
 38 36  2  0  0  0  0
 39 40  2  0  0  0  0
 39 37  1  0  0  0  0
 40 38  1  0  0  0  0
M  END
>  <MODEL>
2

>  <REMARK>
 VINA RESULT:      -7.0      2.480      5.236
  Name = 
  15 active torsions:
  status: ('A' for Active; 'I' for Inactive)
    1  A    between atoms: C_1  and  C_12
    2  A    between atoms: C_1  and  C_24
    3  A    between atoms: N_3  and  N_17
    4  A    between atoms: N_3  and  N_34
    5  A    between atoms: N_5  and  S_33
    6  A    between atoms: N_5  and  C_40
    7  A    between atoms: C_6  and  C_24
    8  A    between atoms: C_7  and  C_30
    9  A    between atoms: N_10  and  C_15
   10  A    between atoms: C_12  and  S_33
   11  A    between atoms: N_14  and  C_31
   12  A    between atoms: N_14  and  N_37
   13  A    between atoms: C_15  and  C_32
   14  A    between atoms: C_20  and  C_39
   15  A    between atoms: C_21  and  C_40
                            x       y       z     vdW  Elec       q    Type
                         _______ _______ _______ _____ _____    ______ ____

>  <TORSDO>
F 15

$$$$
=
 OpenBabel10222421573D

 40 43  0  0  1  0  0  0  0  0999 V2000
  188.7220  177.9870  139.8840 C   0  0  0  0  0  0  0  0  0  0  0  0
  190.0580  176.7020  138.4400 C   0  0  0  0  0  0  0  0  0  0  0  0
  188.6890  177.1120  137.5350 S   0  0  0  0  0  0  0  0  0  0  0  0
  189.9200  177.2670  139.7180 C   0  0  0  0  0  0  0  0  0  0  0  0
  190.9120  177.1120  140.8220 C   0  0  0  0  0  1  0  0  0  0  0  0
  187.9330  177.9990  138.7440 C   0  0  0  0  0  0  0  0  0  0  0  0
  192.1820  174.0500  136.9380 C   0  0  0  0  0  0  0  0  0  0  0  0
  190.9690  174.6760  137.4160 C   0  0  0  0  0  3  0  0  0  0  0  0
  192.8890  176.4320  137.8690 S   0  0  0  0  0  0  0  0  0  0  0  0
  191.1760  175.8830  137.9150 C   0  0  0  0  0  0  0  0  0  0  0  0
  192.1820  172.9110  136.4020 O   0  0  0  0  0  0  0  0  0  0  0  0
  193.4160  174.8630  137.0970 C   0  0  1  0  0  3  0  0  0  0  0  0
  195.2940  175.1000  138.5680 O   0  0  0  0  0  0  0  0  0  0  0  0
  194.4080  174.1520  138.0180 C   0  0  2  0  0  3  0  0  0  0  0  0
  195.8460  174.2250  137.6130 C   0  0  1  0  0  3  0  0  0  0  0  0
  196.1350  174.9900  136.3240 C   0  0  0  0  0  2  0  0  0  0  0  0
  198.4170  174.8560  135.8280 C   0  0  0  0  0  1  0  0  0  0  0  0
  197.4000  175.6950  136.4380 N   0  0  0  0  0  2  0  0  0  0  0  0
  186.6780  178.6670  138.6180 N   0  0  0  0  0  2  0  0  0  0  0  0
  185.2720  177.5330  136.4990 O   0  0  0  0  0  0  0  0  0  0  0  0
  183.5730  176.7030  137.8610 N   0  0  0  0  0  2  0  0  0  0  0  0
  184.7940  177.4090  137.6590 C   0  0  0  0  0  0  0  0  0  0  0  0
  185.4710  177.9740  138.7790 N   0  0  0  0  0  2  0  0  0  0  0  0
  182.8820  176.1300  136.7840 N   0  0  0  0  0  2  0  0  0  0  0  0
  181.4520  172.8630  137.3230 O   0  0  0  0  0  0  0  0  0  0  0  0
  182.7690  174.7580  137.0510 N   0  0  0  0  0  2  0  0  0  0  0  0
  181.5010  174.0980  137.0970 C   0  0  0  0  0  0  0  0  0  0  0  0
  180.2330  174.8560  136.8930 C   0  0  0  0  0  1  0  0  0  0  0  0
  188.3480  178.7050  141.1410 C   0  0  0  0  0  2  0  0  0  0  0  0
  187.5390  177.7890  142.0370 C   0  0  0  0  0  2  0  0  0  0  0  0
  186.1860  178.4110  142.3060 C   0  0  0  0  0  2  0  0  0  0  0  0
  185.7450  178.1590  144.0450 S   0  0  0  0  0  0  0  0  0  0  0  0
  187.2460  177.2910  144.3650 N   0  0  0  0  0  2  0  0  0  0  0  0
  187.7620  177.7980  145.6230 C   0  0  0  0  0  2  0  0  0  0  0  0
  190.9080  176.5320  147.2810 C   0  0  0  0  0  3  0  0  0  0  0  0
  191.7700  176.4610  146.1850 C   0  0  0  0  0  3  0  0  0  0  0  0
  189.5920  176.9640  147.1050 C   0  0  0  0  0  3  0  0  0  0  0  0
  191.2980  176.8300  144.9220 C   0  0  0  0  0  3  0  0  0  0  0  0
  189.1550  177.3160  145.8250 C   0  0  0  0  0  0  0  0  0  0  0  0
  190.0120  177.2480  144.7690 N   0  0  0  0  0  0  0  0  0  0  0  0
  1 29  1  0  0  0  0
  2  4  2  0  0  0  0
  3  2  1  0  0  0  0
  3  6  1  0  0  0  0
  4  1  1  0  0  0  0
  4  5  1  0  0  0  0
  6  1  2  0  0  0  0
  7  8  1  0  0  0  0
  8 10  2  0  0  0  0
  9 10  1  0  0  0  0
 10  2  1  0  0  0  0
 11  7  2  0  0  0  0
 12  7  1  1  0  0  0
 12  9  1  0  0  0  0
 12 14  1  0  0  0  0
 14 13  1  1  0  0  0
 15 16  1  6  0  0  0
 15 14  1  0  0  0  0
 15 13  1  0  0  0  0
 16 18  1  0  0  0  0
 17 18  1  0  0  0  0
 19  6  1  0  0  0  0
 19 23  1  0  0  0  0
 20 22  2  0  0  0  0
 22 21  1  0  0  0  0
 22 23  1  0  0  0  0
 24 26  1  0  0  0  0
 24 21  1  0  0  0  0
 26 27  1  0  0  0  0
 27 25  2  0  0  0  0
 28 27  1  0  0  0  0
 29 30  1  0  0  0  0
 30 31  1  0  0  0  0
 31 32  1  0  0  0  0
 32 33  1  0  0  0  0
 33 34  1  0  0  0  0
 34 39  1  0  0  0  0
 36 35  2  0  0  0  0
 37 35  1  0  0  0  0
 38 36  1  0  0  0  0
 39 37  2  0  0  0  0
 40 38  2  0  0  0  0
 40 39  1  0  0  0  0
M  END
>  <MODEL>
3

>  <REMARK>
 VINA RESULT:      -6.9      2.225      2.554
  Name = 
  15 active torsions:
  status: ('A' for Active; 'I' for Inactive)
    1  A    between atoms: C_1  and  C_12
    2  A    between atoms: C_1  and  C_24
    3  A    between atoms: N_3  and  N_17
    4  A    between atoms: N_3  and  N_34
    5  A    between atoms: N_5  and  S_33
    6  A    between atoms: N_5  and  C_40
    7  A    between atoms: C_6  and  C_24
    8  A    between atoms: C_7  and  C_30
    9  A    between atoms: N_10  and  C_15
   10  A    between atoms: C_12  and  S_33
   11  A    between atoms: N_14  and  C_31
   12  A    between atoms: N_14  and  N_37
   13  A    between atoms: C_15  and  C_32
   14  A    between atoms: C_20  and  C_39
   15  A    between atoms: C_21  and  C_40
                            x       y       z     vdW  Elec       q    Type
                         _______ _______ _______ _____ _____    ______ ____

>  <TORSDO>
F 15

$$$$
=
 OpenBabel10222421573D

 40 43  0  0  1  0  0  0  0  0999 V2000
  188.6550  177.9260  140.2240 C   0  0  0  0  0  0  0  0  0  0  0  0
  189.9840  176.7090  138.7140 C   0  0  0  0  0  0  0  0  0  0  0  0
  188.6390  177.2130  137.8200 S   0  0  0  0  0  0  0  0  0  0  0  0
  189.8390  177.1890  140.0260 C   0  0  0  0  0  0  0  0  0  0  0  0
  190.8100  176.9370  141.1310 C   0  0  0  0  0  1  0  0  0  0  0  0
  187.8850  178.0330  139.0760 C   0  0  0  0  0  0  0  0  0  0  0  0
  193.2780  175.3670  137.6420 C   0  0  0  0  0  0  0  0  0  0  0  0
  192.3480  176.3050  138.2310 C   0  0  0  0  0  3  0  0  0  0  0  0
  190.8640  174.3070  137.3460 S   0  0  0  0  0  0  0  0  0  0  0  0
  191.0910  175.9010  138.1510 C   0  0  0  0  0  0  0  0  0  0  0  0
  194.5210  175.5640  137.6470 O   0  0  0  0  0  0  0  0  0  0  0  0
  192.6610  174.1450  137.0630 C   0  0  1  0  0  3  0  0  0  0  0  0
  192.2830  172.9420  135.0250 O   0  0  0  0  0  0  0  0  0  0  0  0
  192.9330  174.0710  135.5610 C   0  0  2  0  0  3  0  0  0  0  0  0
  193.6870  172.8680  135.0900 C   0  0  1  0  0  3  0  0  0  0  0  0
  194.0980  171.8760  136.1750 C   0  0  0  0  0  2  0  0  0  0  0  0
  194.0680  169.6210  136.7940 C   0  0  0  0  0  1  0  0  0  0  0  0
  193.3770  170.6270  136.0050 N   0  0  0  0  0  2  0  0  0  0  0  0
  186.6480  178.7380  138.9780 N   0  0  0  0  0  0  0  0  0  0  0  0
  184.0980  179.8180  139.2760 O   0  0  0  0  0  0  0  0  0  0  0  0
  183.0420  178.0220  138.2320 N   0  0  0  0  0  2  0  0  0  0  0  0
  184.2030  178.6980  138.7070 C   0  0  0  0  0  0  0  0  0  0  0  0
  185.4850  178.0980  138.5330 N   0  0  0  0  0  0  0  0  0  0  0  0
  181.7660  178.5840  138.3820 N   0  0  0  0  0  2  0  0  0  0  0  0
  179.9830  177.0600  141.1220 O   0  0  0  0  0  0  0  0  0  0  0  0
  181.0010  177.6730  139.1250 N   0  0  0  0  0  2  0  0  0  0  0  0
  180.6880  177.8970  140.5030 C   0  0  0  0  0  0  0  0  0  0  0  0
  181.1950  179.1020  141.2200 C   0  0  0  0  0  1  0  0  0  0  0  0
  188.2780  178.5650  141.5210 C   0  0  0  0  0  2  0  0  0  0  0  0
  187.3970  177.6270  142.3220 C   0  0  0  0  0  2  0  0  0  0  0  0
  186.1420  178.3570  142.7510 C   0  0  0  0  0  2  0  0  0  0  0  0
  185.7600  177.9320  144.4710 S   0  0  0  0  0  0  0  0  0  0  0  0
  187.3950  178.3300  144.9980 N   0  0  0  0  0  2  0  0  0  0  0  0
  187.6830  177.4840  146.1420 C   0  0  0  0  0  2  0  0  0  0  0  0
  191.2030  176.7510  144.9910 C   0  0  0  0  0  3  0  0  0  0  0  0
  191.8170  176.4480  146.2080 C   0  0  0  0  0  3  0  0  0  0  0  0
  189.8510  177.0970  144.9610 C   0  0  0  0  0  3  0  0  0  0  0  0
  191.0610  176.4920  147.3820 C   0  0  0  0  0  3  0  0  0  0  0  0
  189.1310  177.1380  146.1580 C   0  0  0  0  0  0  0  0  0  0  0  0
  189.7440  176.8320  147.3340 N   0  0  0  0  0  0  0  0  0  0  0  0
  1 29  1  0  0  0  0
  2  4  2  0  0  0  0
  3  2  1  0  0  0  0
  3  6  1  0  0  0  0
  4  1  1  0  0  0  0
  4  5  1  0  0  0  0
  6  1  2  0  0  0  0
  7 11  2  0  0  0  0
  7  8  1  0  0  0  0
  9 10  1  0  0  0  0
 10  8  2  0  0  0  0
 10  2  1  0  0  0  0
 12  9  1  6  0  0  0
 12  7  1  0  0  0  0
 13 15  1  0  0  0  0
 14 13  1  6  0  0  0
 14 12  1  0  0  0  0
 15 14  1  0  0  0  0
 15 16  1  1  0  0  0
 18 16  1  0  0  0  0
 18 17  1  0  0  0  0
 19  6  1  0  0  0  0
 21 24  1  0  0  0  0
 21 22  1  0  0  0  0
 22 20  2  0  0  0  0
 23 22  1  0  0  0  0
 23 19  2  0  0  0  0
 24 26  1  0  0  0  0
 26 27  1  0  0  0  0
 27 25  2  0  0  0  0
 27 28  1  0  0  0  0
 29 30  1  0  0  0  0
 30 31  1  0  0  0  0
 31 32  1  0  0  0  0
 32 33  1  0  0  0  0
 33 34  1  0  0  0  0
 34 39  1  0  0  0  0
 35 36  1  0  0  0  0
 36 38  2  0  0  0  0
 37 35  2  0  0  0  0
 37 39  1  0  0  0  0
 39 40  2  0  0  0  0
 40 38  1  0  0  0  0
M  END
>  <MODEL>
4

>  <REMARK>
 VINA RESULT:      -6.6      1.824      2.381
  Name = 
  15 active torsions:
  status: ('A' for Active; 'I' for Inactive)
    1  A    between atoms: C_1  and  C_12
    2  A    between atoms: C_1  and  C_24
    3  A    between atoms: N_3  and  N_17
    4  A    between atoms: N_3  and  N_34
    5  A    between atoms: N_5  and  S_33
    6  A    between atoms: N_5  and  C_40
    7  A    between atoms: C_6  and  C_24
    8  A    between atoms: C_7  and  C_30
    9  A    between atoms: N_10  and  C_15
   10  A    between atoms: C_12  and  S_33
   11  A    between atoms: N_14  and  C_31
   12  A    between atoms: N_14  and  N_37
   13  A    between atoms: C_15  and  C_32
   14  A    between atoms: C_20  and  C_39
   15  A    between atoms: C_21  and  C_40
                            x       y       z     vdW  Elec       q    Type
                         _______ _______ _______ _____ _____    ______ ____

>  <TORSDO>
F 15

$$$$
=
 OpenBabel10222421573D

 40 43  0  0  1  0  0  0  0  0999 V2000
  188.0100  178.2060  141.4220 C   0  0  0  0  0  0  0  0  0  0  0  0
  185.9020  178.5150  140.4290 C   0  0  0  0  0  0  0  0  0  0  0  0
  186.9900  178.3900  139.1400 S   0  0  0  0  0  0  0  0  0  0  0  0
  186.6290  178.3890  141.6240 C   0  0  0  0  0  0  0  0  0  0  0  0
  186.0310  178.4680  142.9900 C   0  0  0  0  0  1  0  0  0  0  0  0
  188.3630  178.1750  140.0820 C   0  0  0  0  0  0  0  0  0  0  0  0
  182.2040  178.5180  140.7700 C   0  0  0  0  0  0  0  0  0  0  0  0
  183.5720  178.1810  141.0940 C   0  0  0  0  0  3  0  0  0  0  0  0
  183.7170  179.7270  138.9570 S   0  0  0  0  0  0  0  0  0  0  0  0
  184.4450  178.7210  140.2600 C   0  0  0  0  0  0  0  0  0  0  0  0
  181.2330  178.1210  141.4670 O   0  0  0  0  0  0  0  0  0  0  0  0
  182.0330  179.3910  139.5790 C   0  0  1  0  0  3  0  0  0  0  0  0
  181.5470  179.2110  137.2390 O   0  0  0  0  0  0  0  0  0  0  0  0
  181.2280  178.6680  138.4990 C   0  0  2  0  0  3  0  0  0  0  0  0
  180.2620  179.5100  137.7280 C   0  0  1  0  0  3  0  0  0  0  0  0
  180.1960  180.9810  138.1300 C   0  0  0  0  0  2  0  0  0  0  0  0
  181.0460  183.0950  137.6010 C   0  0  0  0  0  1  0  0  0  0  0  0
  180.6540  181.8160  137.0330 N   0  0  0  0  0  2  0  0  0  0  0  0
  189.6870  177.9830  139.5840 N   0  0  0  0  0  2  0  0  0  0  0  0
  191.3140  175.8590  138.8080 O   0  0  0  0  0  0  0  0  0  0  0  0
  190.9510  176.2040  136.5320 N   0  0  0  0  0  2  0  0  0  0  0  0
  190.7520  176.5350  137.9040 C   0  0  0  0  0  0  0  0  0  0  0  0
  189.9120  177.6350  138.2460 N   0  0  0  0  0  2  0  0  0  0  0  0
  191.7660  175.1260  136.1590 N   0  0  0  0  0  2  0  0  0  0  0  0
  195.3210  175.7090  136.3420 O   0  0  0  0  0  0  0  0  0  0  0  0
  193.0410  175.6470  135.8960 N   0  0  0  0  0  2  0  0  0  0  0  0
  194.1960  175.2260  136.6270 C   0  0  0  0  0  0  0  0  0  0  0  0
  194.0840  174.2300  137.7320 C   0  0  0  0  0  1  0  0  0  0  0  0
  188.9980  178.0210  142.5290 C   0  0  0  0  0  2  0  0  0  0  0  0
  189.3970  176.5630  142.6280 C   0  0  0  0  0  2  0  0  0  0  0  0
  190.7330  176.4510  143.3300 C   0  0  0  0  0  2  0  0  0  0  0  0
  191.3540  178.1120  143.7040 S   0  0  0  0  0  0  0  0  0  0  0  0
  191.6080  177.7020  145.4010 N   0  0  0  0  0  2  0  0  0  0  0  0
  190.6610  176.6500  145.7220 C   0  0  0  0  0  2  0  0  0  0  0  0
  187.2540  177.9260  146.7300 C   0  0  0  0  0  3  0  0  0  0  0  0
  187.4960  178.2970  148.0540 C   0  0  0  0  0  3  0  0  0  0  0  0
  188.2840  177.3800  145.9610 C   0  0  0  0  0  3  0  0  0  0  0  0
  188.7750  178.1200  148.5890 C   0  0  0  0  0  3  0  0  0  0  0  0
  189.5470  177.2100  146.5350 C   0  0  0  0  0  0  0  0  0  0  0  0
  189.7660  177.5860  147.8250 N   0  0  0  0  0  0  0  0  0  0  0  0
  1  4  1  0  0  0  0
  1 29  1  0  0  0  0
  2  4  2  0  0  0  0
  3  6  1  0  0  0  0
  3  2  1  0  0  0  0
  4  5  1  0  0  0  0
  6  1  2  0  0  0  0
  7  8  1  0  0  0  0
  7 11  2  0  0  0  0
  9 10  1  0  0  0  0
 10  2  1  0  0  0  0
 10  8  2  0  0  0  0
 12  9  1  6  0  0  0
 12  7  1  0  0  0  0
 13 15  1  0  0  0  0
 14 13  1  6  0  0  0
 14 12  1  0  0  0  0
 15 16  1  1  0  0  0
 15 14  1  0  0  0  0
 18 17  1  0  0  0  0
 18 16  1  0  0  0  0
 19  6  1  0  0  0  0
 21 22  1  0  0  0  0
 22 23  1  0  0  0  0
 22 20  2  0  0  0  0
 23 19  1  0  0  0  0
 24 21  1  0  0  0  0
 25 27  2  0  0  0  0
 26 24  1  0  0  0  0
 26 27  1  0  0  0  0
 27 28  1  0  0  0  0
 29 30  1  0  0  0  0
 30 31  1  0  0  0  0
 31 32  1  0  0  0  0
 32 33  1  0  0  0  0
 33 34  1  0  0  0  0
 34 39  1  0  0  0  0
 35 36  1  0  0  0  0
 36 38  2  0  0  0  0
 37 39  1  0  0  0  0
 37 35  2  0  0  0  0
 39 40  2  0  0  0  0
 40 38  1  0  0  0  0
M  END
>  <MODEL>
5

>  <REMARK>
 VINA RESULT:      -6.6      2.950      9.727
  Name = 
  15 active torsions:
  status: ('A' for Active; 'I' for Inactive)
    1  A    between atoms: C_1  and  C_12
    2  A    between atoms: C_1  and  C_24
    3  A    between atoms: N_3  and  N_17
    4  A    between atoms: N_3  and  N_34
    5  A    between atoms: N_5  and  S_33
    6  A    between atoms: N_5  and  C_40
    7  A    between atoms: C_6  and  C_24
    8  A    between atoms: C_7  and  C_30
    9  A    between atoms: N_10  and  C_15
   10  A    between atoms: C_12  and  S_33
   11  A    between atoms: N_14  and  C_31
   12  A    between atoms: N_14  and  N_37
   13  A    between atoms: C_15  and  C_32
   14  A    between atoms: C_20  and  C_39
   15  A    between atoms: C_21  and  C_40
                            x       y       z     vdW  Elec       q    Type
                         _______ _______ _______ _____ _____    ______ ____

>  <TORSDO>
F 15

$$$$
=
 OpenBabel10222421573D

 40 43  0  0  1  0  0  0  0  0999 V2000
  190.7480  177.1660  140.8910 C   0  0  0  0  0  0  0  0  0  0  0  0
  189.0620  177.3740  139.2670 C   0  0  0  0  0  0  0  0  0  0  0  0
  190.5110  177.2870  138.3990 S   0  0  0  0  0  0  0  0  0  0  0  0
  189.3690  177.2890  140.6350 C   0  0  0  0  0  0  0  0  0  0  0  0
  188.3610  177.3530  141.7330 C   0  0  0  0  0  1  0  0  0  0  0  0
  191.5150  177.1400  139.7360 C   0  0  0  0  0  0  0  0  0  0  0  0
  185.6290  178.4060  138.2970 C   0  0  0  0  0  0  0  0  0  0  0  0
  186.8580  178.4130  139.0590 C   0  0  0  0  0  3  0  0  0  0  0  0
  187.1750  176.5310  137.2330 S   0  0  0  0  0  0  0  0  0  0  0  0
  187.7310  177.5150  138.6340 C   0  0  0  0  0  0  0  0  0  0  0  0
  184.6890  179.2110  138.5340 O   0  0  0  0  0  0  0  0  0  0  0  0
  185.5710  177.4070  137.1990 C   0  0  1  0  0  3  0  0  0  0  0  0
  184.5830  175.3180  136.5640 O   0  0  0  0  0  0  0  0  0  0  0  0
  184.4420  176.4070  137.4460 C   0  0  2  0  0  3  0  0  0  0  0  0
  183.5040  176.1820  136.3030 C   0  0  1  0  0  3  0  0  0  0  0  0
  183.7900  176.9920  135.0410 C   0  0  0  0  0  2  0  0  0  0  0  0
  181.4610  176.7980  134.9410 C   0  0  0  0  0  1  0  0  0  0  0  0
  182.5790  177.6590  134.5940 N   0  0  0  0  0  2  0  0  0  0  0  0
  192.9350  177.0010  139.6940 N   0  0  0  0  0  2  0  0  0  0  0  0
  195.2720  175.4900  139.8190 O   0  0  0  0  0  0  0  0  0  0  0  0
  195.3920  175.1940  137.5100 N   0  0  0  0  0  2  0  0  0  0  0  0
  194.7700  175.7130  138.6840 C   0  0  0  0  0  0  0  0  0  0  0  0
  193.5780  176.4840  138.5630 N   0  0  0  0  0  2  0  0  0  0  0  0
  196.5630  174.4270  137.5910 N   0  0  0  0  0  2  0  0  0  0  0  0
  199.3100  175.4130  135.4710 O   0  0  0  0  0  0  0  0  0  0  0  0
  197.5930  175.1890  137.0220 N   0  0  0  0  0  2  0  0  0  0  0  0
  198.4090  174.6850  135.9620 C   0  0  0  0  0  0  0  0  0  0  0  0
  198.2180  173.3030  135.4350 C   0  0  0  0  0  1  0  0  0  0  0  0
  191.3330  177.0330  142.2600 C   0  0  0  0  0  2  0  0  0  0  0  0
  191.6150  178.4060  142.8380 C   0  0  0  0  0  2  0  0  0  0  0  0
  190.8410  178.5800  144.1270 C   0  0  0  0  0  2  0  0  0  0  0  0
  191.2320  177.2130  145.2500 S   0  0  0  0  0  0  0  0  0  0  0  0
  189.5420  176.7160  145.3320 N   0  0  0  0  0  2  0  0  0  0  0  0
  188.9940  177.2980  146.5440 C   0  0  0  0  0  2  0  0  0  0  0  0
  185.7550  178.1150  144.7860 C   0  0  0  0  0  3  0  0  0  0  0  0
  185.0270  178.6850  145.8330 C   0  0  0  0  0  3  0  0  0  0  0  0
  187.0520  177.6530  145.0120 C   0  0  0  0  0  3  0  0  0  0  0  0
  185.6160  178.7880  147.0960 C   0  0  0  0  0  3  0  0  0  0  0  0
  187.6040  177.7660  146.2910 C   0  0  0  0  0  0  0  0  0  0  0  0
  186.8820  178.3320  147.2980 N   0  0  0  0  0  0  0  0  0  0  0  0
  1 29  1  0  0  0  0
  2  4  2  0  0  0  0
  3  2  1  0  0  0  0
  3  6  1  0  0  0  0
  4  1  1  0  0  0  0
  4  5  1  0  0  0  0
  6  1  2  0  0  0  0
  7 11  2  0  0  0  0
  7  8  1  0  0  0  0
  9 10  1  0  0  0  0
 10  8  2  0  0  0  0
 10  2  1  0  0  0  0
 12  9  1  1  0  0  0
 12 14  1  0  0  0  0
 12  7  1  0  0  0  0
 14 13  1  6  0  0  0
 15 16  1  6  0  0  0
 15 13  1  0  0  0  0
 15 14  1  0  0  0  0
 18 17  1  0  0  0  0
 18 16  1  0  0  0  0
 19  6  1  0  0  0  0
 21 24  1  0  0  0  0
 21 22  1  0  0  0  0
 22 20  2  0  0  0  0
 23 22  1  0  0  0  0
 23 19  1  0  0  0  0
 25 27  2  0  0  0  0
 26 24  1  0  0  0  0
 27 26  1  0  0  0  0
 28 27  1  0  0  0  0
 29 30  1  0  0  0  0
 30 31  1  0  0  0  0
 31 32  1  0  0  0  0
 32 33  1  0  0  0  0
 33 34  1  0  0  0  0
 35 37  2  0  0  0  0
 35 36  1  0  0  0  0
 36 38  2  0  0  0  0
 37 39  1  0  0  0  0
 38 40  1  0  0  0  0
 39 34  1  0  0  0  0
 39 40  2  0  0  0  0
M  END
>  <MODEL>
6

>  <REMARK>
 VINA RESULT:      -6.3      3.271      9.735
  Name = 
  15 active torsions:
  status: ('A' for Active; 'I' for Inactive)
    1  A    between atoms: C_1  and  C_12
    2  A    between atoms: C_1  and  C_24
    3  A    between atoms: N_3  and  N_17
    4  A    between atoms: N_3  and  N_34
    5  A    between atoms: N_5  and  S_33
    6  A    between atoms: N_5  and  C_40
    7  A    between atoms: C_6  and  C_24
    8  A    between atoms: C_7  and  C_30
    9  A    between atoms: N_10  and  C_15
   10  A    between atoms: C_12  and  S_33
   11  A    between atoms: N_14  and  C_31
   12  A    between atoms: N_14  and  N_37
   13  A    between atoms: C_15  and  C_32
   14  A    between atoms: C_20  and  C_39
   15  A    between atoms: C_21  and  C_40
                            x       y       z     vdW  Elec       q    Type
                         _______ _______ _______ _____ _____    ______ ____

>  <TORSDO>
F 15

$$$$
=
 OpenBabel10222421573D

 40 43  0  0  1  0  0  0  0  0999 V2000
  188.3400  177.6980  139.1190 C   0  0  0  0  0  0  0  0  0  0  0  0
  189.5930  177.5980  141.1050 C   0  0  0  0  0  0  0  0  0  0  0  0
  190.3980  176.5840  140.0170 S   0  0  0  0  0  0  0  0  0  0  0  0
  188.4750  178.1380  140.4500 C   0  0  0  0  0  0  0  0  0  0  0  0
  187.4910  179.0660  141.0810 C   0  0  0  0  0  1  0  0  0  0  0  0
  189.3490  176.8300  138.7300 C   0  0  0  0  0  0  0  0  0  0  0  0
  191.3180  178.7510  144.1860 C   0  0  0  0  0  0  0  0  0  0  0  0
  191.0520  178.6400  142.7690 C   0  0  0  0  0  3  0  0  0  0  0  0
  189.2630  177.0900  143.9420 S   0  0  0  0  0  0  0  0  0  0  0  0
  190.0410  177.8320  142.4980 C   0  0  0  0  0  0  0  0  0  0  0  0
  192.2240  179.4970  144.6410 O   0  0  0  0  0  0  0  0  0  0  0  0
  190.4260  177.9470  145.0610 C   0  0  1  0  0  3  0  0  0  0  0  0
  190.3730  175.8980  146.3030 O   0  0  0  0  0  0  0  0  0  0  0  0
  191.2350  176.9120  145.8420 C   0  0  2  0  0  3  0  0  0  0  0  0
  190.8860  176.7620  147.2880 C   0  0  1  0  0  3  0  0  0  0  0  0
  189.7740  177.6730  147.8000 C   0  0  0  0  0  2  0  0  0  0  0  0
  187.4830  177.7910  147.3410 C   0  0  0  0  0  1  0  0  0  0  0  0
  188.5250  176.9360  147.8820 N   0  0  0  0  0  2  0  0  0  0  0  0
  189.4760  176.2450  137.4340 N   0  0  0  0  0  2  0  0  0  0  0  0
  191.2940  174.1530  137.7070 O   0  0  0  0  0  0  0  0  0  0  0  0
  192.8500  175.1040  136.2560 N   0  0  0  0  0  2  0  0  0  0  0  0
  191.6050  175.1110  136.9490 C   0  0  0  0  0  0  0  0  0  0  0  0
  190.7130  176.2090  136.7760 N   0  0  0  0  0  2  0  0  0  0  0  0
  193.7500  174.0380  136.3980 N   0  0  0  0  0  2  0  0  0  0  0  0
  195.9390  173.5390  139.2210 O   0  0  0  0  0  0  0  0  0  0  0  0
  194.5050  174.2880  137.5530 N   0  0  0  0  0  2  0  0  0  0  0  0
  195.2640  173.2610  138.1970 C   0  0  0  0  0  0  0  0  0  0  0  0
  195.2570  171.8620  137.6810 C   0  0  0  0  0  1  0  0  0  0  0  0
  187.2500  178.1450  138.1990 C   0  0  0  0  0  2  0  0  0  0  0  0
  185.9810  177.3660  138.4840 C   0  0  0  0  0  2  0  0  0  0  0  0
  184.8160  178.0210  137.7740 C   0  0  0  0  0  2  0  0  0  0  0  0
  184.0140  179.1960  138.8970 S   0  0  0  0  0  0  0  0  0  0  0  0
  184.2420  178.1250  140.2790 N   0  0  0  0  0  2  0  0  0  0  0  0
  183.1540  178.3980  141.2020 C   0  0  0  0  0  2  0  0  0  0  0  0
  185.4780  178.2470  144.1730 C   0  0  0  0  0  3  0  0  0  0  0  0
  184.6570  178.7700  145.1730 C   0  0  0  0  0  3  0  0  0  0  0  0
  184.9960  178.1270  142.8680 C   0  0  0  0  0  3  0  0  0  0  0  0
  183.3550  179.1630  144.8500 C   0  0  0  0  0  3  0  0  0  0  0  0
  183.6920  178.5390  142.5820 C   0  0  0  0  0  0  0  0  0  0  0  0
  182.9020  179.0390  143.5730 N   0  0  0  0  0  0  0  0  0  0  0  0
  1  4  1  0  0  0  0
  2 10  1  0  0  0  0
  3  2  1  0  0  0  0
  4  5  1  0  0  0  0
  4  2  2  0  0  0  0
  6  1  2  0  0  0  0
  6  3  1  0  0  0  0
  7 11  2  0  0  0  0
  7 12  1  0  0  0  0
  8  7  1  0  0  0  0
 10  8  2  0  0  0  0
 10  9  1  0  0  0  0
 12  9  1  6  0  0  0
 12 14  1  0  0  0  0
 13 15  1  0  0  0  0
 14 13  1  6  0  0  0
 14 15  1  0  0  0  0
 15 16  1  6  0  0  0
 16 18  1  0  0  0  0
 17 18  1  0  0  0  0
 19  6  1  0  0  0  0
 21 24  1  0  0  0  0
 21 22  1  0  0  0  0
 22 20  2  0  0  0  0
 23 22  1  0  0  0  0
 23 19  1  0  0  0  0
 24 26  1  0  0  0  0
 26 27  1  0  0  0  0
 27 25  2  0  0  0  0
 28 27  1  0  0  0  0
 29 30  1  0  0  0  0
 29  1  1  0  0  0  0
 31 30  1  0  0  0  0
 31 32  1  0  0  0  0
 32 33  1  0  0  0  0
 33 34  1  0  0  0  0
 34 39  1  0  0  0  0
 35 36  1  0  0  0  0
 37 35  2  0  0  0  0
 38 36  2  0  0  0  0
 39 37  1  0  0  0  0
 39 40  2  0  0  0  0
 40 38  1  0  0  0  0
M  END
>  <MODEL>
7

>  <REMARK>
 VINA RESULT:      -6.3      3.122      8.995
  Name = 
  15 active torsions:
  status: ('A' for Active; 'I' for Inactive)
    1  A    between atoms: C_1  and  C_12
    2  A    between atoms: C_1  and  C_24
    3  A    between atoms: N_3  and  N_17
    4  A    between atoms: N_3  and  N_34
    5  A    between atoms: N_5  and  S_33
    6  A    between atoms: N_5  and  C_40
    7  A    between atoms: C_6  and  C_24
    8  A    between atoms: C_7  and  C_30
    9  A    between atoms: N_10  and  C_15
   10  A    between atoms: C_12  and  S_33
   11  A    between atoms: N_14  and  C_31
   12  A    between atoms: N_14  and  N_37
   13  A    between atoms: C_15  and  C_32
   14  A    between atoms: C_20  and  C_39
   15  A    between atoms: C_21  and  C_40
                            x       y       z     vdW  Elec       q    Type
                         _______ _______ _______ _____ _____    ______ ____

>  <TORSDO>
F 15

$$$$
=
 OpenBabel10222421573D

 40 43  0  0  1  0  0  0  0  0999 V2000
  188.6190  177.6030  138.1250 C   0  0  0  0  0  0  0  0  0  0  0  0
  190.6860  176.4890  138.0150 C   0  0  0  0  0  0  0  0  0  0  0  0
  190.5150  176.9550  139.6320 S   0  0  0  0  0  0  0  0  0  0  0  0
  189.5480  176.9220  137.3150 C   0  0  0  0  0  0  0  0  0  0  0  0
  189.3290  176.7240  135.8520 C   0  0  0  0  0  1  0  0  0  0  0  0
  189.0180  177.6920  139.4510 C   0  0  0  0  0  0  0  0  0  0  0  0
  194.0660  175.4300  136.8950 C   0  0  0  0  0  0  0  0  0  0  0  0
  193.0510  176.3210  137.4130 C   0  0  0  0  0  3  0  0  0  0  0  0
  191.8080  174.0380  136.9460 S   0  0  0  0  0  0  0  0  0  0  0  0
  191.8590  175.7520  137.4910 C   0  0  0  0  0  0  0  0  0  0  0  0
  195.2680  175.7830  136.7750 O   0  0  0  0  0  0  0  0  0  0  0  0
  193.5920  174.0650  136.5500 C   0  0  1  0  0  3  0  0  0  0  0  0
  193.4240  172.4630  134.7750 O   0  0  0  0  0  0  0  0  0  0  0  0
  193.7840  173.7960  135.0580 C   0  0  2  0  0  3  0  0  0  0  0  0
  194.7990  172.7550  134.7060 C   0  0  1  0  0  3  0  0  0  0  0  0
  195.5210  172.1070  135.8840 C   0  0  0  0  0  2  0  0  0  0  0  0
  195.3370  170.3580  137.4270 C   0  0  0  0  0  1  0  0  0  0  0  0
  195.0700  170.7360  136.0490 N   0  0  0  0  0  2  0  0  0  0  0  0
  188.2660  178.3080  140.4960 N   0  0  0  0  0  2  0  0  0  0  0  0
  188.2840  176.4610  142.5800 O   0  0  0  0  0  0  0  0  0  0  0  0
  189.4330  177.8740  144.0340 N   0  0  0  0  0  2  0  0  0  0  0  0
  188.8280  177.5810  142.7780 C   0  0  0  0  0  0  0  0  0  0  0  0
  188.8430  178.5650  141.7460 N   0  0  0  0  0  2  0  0  0  0  0  0
  189.4410  176.9290  145.0700 N   0  0  0  0  0  2  0  0  0  0  0  0
  188.5450  178.4790  148.2020 O   0  0  0  0  0  0  0  0  0  0  0  0
  189.5380  177.6410  146.2750 N   0  0  0  0  0  2  0  0  0  0  0  0
  188.4050  177.8490  147.1230 C   0  0  0  0  0  0  0  0  0  0  0  0
  187.0560  177.3400  146.7420 C   0  0  0  0  0  1  0  0  0  0  0  0
  187.3170  178.1420  137.6280 C   0  0  0  0  0  2  0  0  0  0  0  0
  186.3560  177.0020  137.3560 C   0  0  0  0  0  2  0  0  0  0  0  0
  185.0050  177.3250  137.9580 C   0  0  0  0  0  2  0  0  0  0  0  0
  185.0450  178.9960  138.6580 S   0  0  0  0  0  0  0  0  0  0  0  0
  184.2390  178.4630  140.1330 N   0  0  0  0  0  2  0  0  0  0  0  0
  185.1650  178.7040  141.2250 C   0  0  0  0  0  2  0  0  0  0  0  0
  184.4020  178.8230  144.9200 C   0  0  0  0  0  3  0  0  0  0  0  0
  183.0060  178.8390  144.8980 C   0  0  0  0  0  3  0  0  0  0  0  0
  185.1170  178.7850  143.7220 C   0  0  0  0  0  3  0  0  0  0  0  0
  182.3440  178.8100  143.6670 C   0  0  0  0  0  3  0  0  0  0  0  0
  184.4190  178.7670  142.5110 C   0  0  0  0  0  0  0  0  0  0  0  0
  183.0570  178.7740  142.5090 N   0  0  0  0  0  0  0  0  0  0  0  0
  1  6  2  0  0  0  0
  2  3  1  0  0  0  0
  4  2  2  0  0  0  0
  4  1  1  0  0  0  0
  5  4  1  0  0  0  0
  6  3  1  0  0  0  0
  6 19  1  0  0  0  0
  7  8  1  0  0  0  0
  8 10  2  0  0  0  0
  9 10  1  0  0  0  0
 10  2  1  0  0  0  0
 11  7  2  0  0  0  0
 12  7  1  6  0  0  0
 12  9  1  0  0  0  0
 14 13  1  1  0  0  0
 14 12  1  0  0  0  0
 15 13  1  0  0  0  0
 15 14  1  0  0  0  0
 15 16  1  1  0  0  0
 16 18  1  0  0  0  0
 18 17  1  0  0  0  0
 19 23  1  0  0  0  0
 20 22  2  0  0  0  0
 21 24  1  0  0  0  0
 22 21  1  0  0  0  0
 23 22  1  0  0  0  0
 24 26  1  0  0  0  0
 26 27  1  0  0  0  0
 27 25  2  0  0  0  0
 28 27  1  0  0  0  0
 29  1  1  0  0  0  0
 30 29  1  0  0  0  0
 30 31  1  0  0  0  0
 31 32  1  0  0  0  0
 32 33  1  0  0  0  0
 33 34  1  0  0  0  0
 34 39  1  0  0  0  0
 36 35  1  0  0  0  0
 37 35  2  0  0  0  0
 38 36  2  0  0  0  0
 39 37  1  0  0  0  0
 40 39  2  0  0  0  0
 40 38  1  0  0  0  0
M  END
>  <MODEL>
8

>  <REMARK>
 VINA RESULT:      -6.2      2.855      5.579
  Name = 
  15 active torsions:
  status: ('A' for Active; 'I' for Inactive)
    1  A    between atoms: C_1  and  C_12
    2  A    between atoms: C_1  and  C_24
    3  A    between atoms: N_3  and  N_17
    4  A    between atoms: N_3  and  N_34
    5  A    between atoms: N_5  and  S_33
    6  A    between atoms: N_5  and  C_40
    7  A    between atoms: C_6  and  C_24
    8  A    between atoms: C_7  and  C_30
    9  A    between atoms: N_10  and  C_15
   10  A    between atoms: C_12  and  S_33
   11  A    between atoms: N_14  and  C_31
   12  A    between atoms: N_14  and  N_37
   13  A    between atoms: C_15  and  C_32
   14  A    between atoms: C_20  and  C_39
   15  A    between atoms: C_21  and  C_40
                            x       y       z     vdW  Elec       q    Type
                         _______ _______ _______ _____ _____    ______ ____

>  <TORSDO>
F 15

$$$$
=
 OpenBabel10222421573D

 40 43  0  0  1  0  0  0  0  0999 V2000
  189.7000  177.2760  140.6270 C   0  0  0  0  0  0  0  0  0  0  0  0
  187.4960  178.0580  140.3940 C   0  0  0  0  0  0  0  0  0  0  0  0
  188.2530  178.4130  138.9240 S   0  0  0  0  0  0  0  0  0  0  0  0
  188.4350  177.4270  141.2260 C   0  0  0  0  0  0  0  0  0  0  0  0
  188.1610  176.9770  142.6220 C   0  0  0  0  0  1  0  0  0  0  0  0
  189.7500  177.7720  139.3320 C   0  0  0  0  0  0  0  0  0  0  0  0
  184.2370  178.8080  142.0120 C   0  0  0  0  0  0  0  0  0  0  0  0
  185.6390  178.4580  141.9350 C   0  0  0  0  0  3  0  0  0  0  0  0
  184.8450  178.7350  139.4310 S   0  0  0  0  0  0  0  0  0  0  0  0
  186.0810  178.3830  140.6910 C   0  0  0  0  0  0  0  0  0  0  0  0
  183.6440  178.9550  143.1130 O   0  0  0  0  0  0  0  0  0  0  0  0
  183.5640  179.0110  140.7040 C   0  0  1  0  0  3  0  0  0  0  0  0
  181.9170  178.1070  139.2150 O   0  0  0  0  0  0  0  0  0  0  0  0
  182.4380  177.9940  140.5200 C   0  0  2  0  0  3  0  0  0  0  0  0
  181.0800  178.5610  140.2510 C   0  0  1  0  0  3  0  0  0  0  0  0
  180.9930  180.0840  140.2100 C   0  0  0  0  0  2  0  0  0  0  0  0
  181.4790  181.3290  138.2890 C   0  0  0  0  0  1  0  0  0  0  0  0
  180.4580  180.5160  138.9300 N   0  0  0  0  0  2  0  0  0  0  0  0
  190.8950  177.7350  138.4810 N   0  0  0  0  0  2  0  0  0  0  0  0
  193.5250  176.9000  138.8580 O   0  0  0  0  0  0  0  0  0  0  0  0
  193.2190  174.8910  137.7170 N   0  0  0  0  0  2  0  0  0  0  0  0
  192.7490  176.1390  138.2190 C   0  0  0  0  0  0  0  0  0  0  0  0
  191.3940  176.5200  137.9940 N   0  0  0  0  0  2  0  0  0  0  0  0
  194.5440  174.4820  137.9240 N   0  0  0  0  0  2  0  0  0  0  0  0
  197.4450  175.7830  136.2200 O   0  0  0  0  0  0  0  0  0  0  0  0
  195.3520  175.2670  137.0890 N   0  0  0  0  0  2  0  0  0  0  0  0
  196.7650  175.0650  136.9960 C   0  0  0  0  0  0  0  0  0  0  0  0
  197.4480  174.0240  137.8170 C   0  0  0  0  0  1  0  0  0  0  0  0
  190.8640  176.6150  141.2910 C   0  0  0  0  0  2  0  0  0  0  0  0
  191.7820  177.6630  141.8890 C   0  0  0  0  0  2  0  0  0  0  0  0
  191.6030  177.6920  143.3920 C   0  0  0  0  0  2  0  0  0  0  0  0
  191.6070  175.9960  144.0290 S   0  0  0  0  0  0  0  0  0  0  0  0
  191.1360  176.5340  145.6400 N   0  0  0  0  0  2  0  0  0  0  0  0
  190.4560  177.8050  145.4740 C   0  0  0  0  0  2  0  0  0  0  0  0
  186.8970  177.9510  146.7240 C   0  0  0  0  0  3  0  0  0  0  0  0
  187.1080  178.0350  148.1020 C   0  0  0  0  0  3  0  0  0  0  0  0
  187.9880  177.8700  145.8560 C   0  0  0  0  0  3  0  0  0  0  0  0
  188.4160  178.0410  148.5920 C   0  0  0  0  0  3  0  0  0  0  0  0
  189.2820  177.8690  146.3860 C   0  0  0  0  0  0  0  0  0  0  0  0
  189.4680  177.9600  147.7310 N   0  0  0  0  0  0  0  0  0  0  0  0
  1  4  1  0  0  0  0
  1 29  1  0  0  0  0
  2 10  1  0  0  0  0
  2  4  2  0  0  0  0
  3  6  1  0  0  0  0
  3  2  1  0  0  0  0
  4  5  1  0  0  0  0
  6  1  2  0  0  0  0
  7 11  2  0  0  0  0
  8  7  1  0  0  0  0
  9 10  1  0  0  0  0
 10  8  2  0  0  0  0
 12  9  1  6  0  0  0
 12  7  1  0  0  0  0
 13 15  1  0  0  0  0
 14 13  1  6  0  0  0
 14 12  1  0  0  0  0
 15 16  1  6  0  0  0
 15 14  1  0  0  0  0
 17 18  1  0  0  0  0
 18 16  1  0  0  0  0
 19  6  1  0  0  0  0
 21 24  1  0  0  0  0
 21 22  1  0  0  0  0
 22 20  2  0  0  0  0
 23 22  1  0  0  0  0
 23 19  1  0  0  0  0
 25 27  2  0  0  0  0
 26 24  1  0  0  0  0
 27 26  1  0  0  0  0
 27 28  1  0  0  0  0
 29 30  1  0  0  0  0
 30 31  1  0  0  0  0
 31 32  1  0  0  0  0
 32 33  1  0  0  0  0
 34 33  1  0  0  0  0
 34 39  1  0  0  0  0
 35 36  1  0  0  0  0
 36 38  2  0  0  0  0
 37 39  1  0  0  0  0
 37 35  2  0  0  0  0
 39 40  2  0  0  0  0
 40 38  1  0  0  0  0
M  END
>  <MODEL>
9

>  <REMARK>
 VINA RESULT:      -6.2      2.575      9.958
  Name = 
  15 active torsions:
  status: ('A' for Active; 'I' for Inactive)
    1  A    between atoms: C_1  and  C_12
    2  A    between atoms: C_1  and  C_24
    3  A    between atoms: N_3  and  N_17
    4  A    between atoms: N_3  and  N_34
    5  A    between atoms: N_5  and  S_33
    6  A    between atoms: N_5  and  C_40
    7  A    between atoms: C_6  and  C_24
    8  A    between atoms: C_7  and  C_30
    9  A    between atoms: N_10  and  C_15
   10  A    between atoms: C_12  and  S_33
   11  A    between atoms: N_14  and  C_31
   12  A    between atoms: N_14  and  N_37
   13  A    between atoms: C_15  and  C_32
   14  A    between atoms: C_20  and  C_39
   15  A    between atoms: C_21  and  C_40
                            x       y       z     vdW  Elec       q    Type
                         _______ _______ _______ _____ _____    ______ ____

>  <TORSDO>
F 15

$$$$
