=
 OpenBabel10232410253D

 33 36  0  0  1  0  0  0  0  0999 V2000
  183.4100  178.9040  145.5460 N   0  0  0  0  0  1  0  0  0  0  0  0
  185.4920  178.5430  146.9610 C   0  0  0  0  0  2  0  0  0  0  0  0
  186.1170  178.1780  142.2700 N   0  0  0  0  0  0  0  0  0  0  0  0
  187.9130  177.9400  143.8810 C   0  0  0  0  0  0  0  0  0  0  0  0
  185.1890  178.3660  143.1630 C   0  0  0  0  0  0  0  0  0  0  0  0
  187.5110  177.9610  142.5830 C   0  0  0  0  0  0  0  0  0  0  0  0
  187.2640  178.2000  146.6380 S   0  0  0  0  0  0  0  0  0  0  0  0
  186.9230  178.0950  144.9110 N   0  0  0  0  0  0  0  0  0  0  0  0
  184.7950  178.5800  145.6410 C   0  0  0  0  0  0  0  0  0  0  0  0
  185.5700  178.3440  144.5900 C   0  0  0  0  0  0  0  0  0  0  0  0
  191.1620  176.2240  144.2340 C   0  0  0  0  0  2  0  0  0  0  0  0
  191.5450  178.4900  143.6410 C   0  0  0  0  0  2  0  0  0  0  0  0
  190.1880  178.9360  144.1820 C   0  0  0  0  0  2  0  0  0  0  0  0
  189.7830  176.5330  144.8140 C   0  0  0  0  0  2  0  0  0  0  0  0
  192.0530  177.3670  144.4260 N   0  0  0  0  0  2  0  0  0  0  0  0
  189.2910  177.7870  144.2480 N   0  0  0  0  0  0  0  0  0  0  0  0
  189.1990  176.5070  141.4250 C   0  0  0  0  0  2  0  0  0  0  0  0
  190.4790  176.7750  140.6530 C   0  0  0  0  0  2  0  0  0  0  0  0
  189.1710  178.1640  139.1530 C   0  0  0  0  0  0  0  0  0  0  0  0
  188.4270  177.7460  141.4960 N   0  0  0  0  0  0  0  0  0  0  0  0
  190.1540  177.3310  139.3450 N   0  0  0  0  0  0  0  0  0  0  0  0
  188.2500  178.5600  140.2880 C   0  0  0  0  0  2  0  0  0  0  0  0
  188.9010  178.6650  137.7960 C   0  0  0  0  0  0  0  0  0  0  0  0
  189.0650  179.8870  137.5310 O   0  0  0  0  0  0  0  0  0  0  0  0
  189.5020  177.5900  135.7750 O   0  0  0  0  0  1  0  0  0  0  0  0
  188.4750  177.7250  136.7110 C   0  0  2  0  0  3  0  0  0  0  0  0
  187.3210  178.1990  136.0820 O   0  0  0  0  0  0  0  0  0  0  0  0
  185.4480  178.2200  138.1310 O   0  0  0  0  0  1  0  0  0  0  0  0
  186.5310  176.0040  137.2700 O   0  0  0  0  0  0  0  0  0  0  0  0
  184.8030  177.1310  135.6950 F   0  0  0  0  0  0  0  0  0  0  0  0
  186.0390  177.3550  136.8030 P   0  0  2  0  0  0  0  0  0  0  0  0
  183.7540  178.7410  141.3270 O   0  0  0  0  0  1  0  0  0  0  0  0
  183.7800  178.5330  142.7070 C   0  0  0  0  0  2  0  0  0  0  0  0
  1  9  1  0  0  0  0
  3  6  1  0  0  0  0
  3  5  2  0  0  0  0
  4 16  1  0  0  0  0
  4  8  1  0  0  0  0
  5 10  1  0  0  0  0
  6  4  2  0  0  0  0
  7  2  1  0  0  0  0
  8  7  1  0  0  0  0
  9  2  1  0  0  0  0
 10  8  1  0  0  0  0
 10  9  2  0  0  0  0
 11 15  1  0  0  0  0
 11 14  1  0  0  0  0
 12 13  1  0  0  0  0
 12 15  1  0  0  0  0
 13 16  1  0  0  0  0
 16 14  1  0  0  0  0
 17 20  1  0  0  0  0
 18 17  1  0  0  0  0
 19 21  2  0  0  0  0
 19 22  1  0  0  0  0
 20  6  1  0  0  0  0
 21 18  1  0  0  0  0
 22 20  1  0  0  0  0
 23 19  1  0  0  0  0
 24 23  2  0  0  0  0
 26 25  1  6  0  0  0
 26 23  1  0  0  0  0
 27 26  1  0  0  0  0
 27 31  1  0  0  0  0
 31 30  1  6  0  0  0
 31 29  2  0  0  0  0
 31 28  1  0  0  0  0
 32 33  1  0  0  0  0
 33  5  1  0  0  0  0
M  END
>  <MODEL>
1

>  <REMARK>
 VINA RESULT:      -7.5      0.000      0.000
  Name = 
  7 active torsions:
  status: ('A' for Active; 'I' for Inactive)
    1  A    between atoms: C_10  and  N_33
    2  A    between atoms: C_12  and  C_17
    3  A    between atoms: C_12  and  C_21
    4  A    between atoms: CA_14  and  C_19
    5  A    between atoms: C_18  and  N_26
    6  A    between atoms: P_20  and  O_29
    7  A    between atoms: C_21  and  O_29
                            x       y       z     vdW  Elec       q    Type
                         _______ _______ _______ _____ _____    ______ ____

>  <TORSDO>
F 7

$$$$
=
 OpenBabel10232410253D

 33 36  0  0  1  0  0  0  0  0999 V2000
  182.5270  178.2220  137.2160 N   0  0  0  0  0  1  0  0  0  0  0  0
  183.5540  176.6200  135.5280 C   0  0  0  0  0  2  0  0  0  0  0  0
  186.4950  178.2040  138.8990 N   0  0  0  0  0  0  0  0  0  0  0  0
  187.1580  176.6290  137.1790 C   0  0  0  0  0  0  0  0  0  0  0  0
  185.2750  178.3360  138.4670 C   0  0  0  0  0  0  0  0  0  0  0  0
  187.4850  177.3490  138.2830 C   0  0  0  0  0  0  0  0  0  0  0  0
  185.1960  175.8460  135.2730 S   0  0  0  0  0  0  0  0  0  0  0  0
  185.8370  176.7720  136.6310 N   0  0  0  0  0  0  0  0  0  0  0  0
  183.6630  177.5260  136.7090 C   0  0  0  0  0  0  0  0  0  0  0  0
  184.8680  177.5820  137.2650 C   0  0  0  0  0  0  0  0  0  0  0  0
  190.2290  175.5850  135.4180 C   0  0  0  0  0  2  0  0  0  0  0  0
  189.6900  173.9600  137.0610 C   0  0  0  0  0  2  0  0  0  0  0  0
  188.2180  174.3650  137.0830 C   0  0  0  0  0  2  0  0  0  0  0  0
  188.7890  176.0860  135.3370 C   0  0  0  0  0  2  0  0  0  0  0  0
  190.2450  174.1560  135.7240 N   0  0  0  0  0  2  0  0  0  0  0  0
  188.0800  175.7210  136.5620 N   0  0  0  0  0  0  0  0  0  0  0  0
  189.9190  177.9520  138.1570 C   0  0  0  0  0  2  0  0  0  0  0  0
  191.2080  177.2570  138.5610 C   0  0  0  0  0  2  0  0  0  0  0  0
  190.3280  177.1490  140.8210 C   0  0  0  0  0  0  0  0  0  0  0  0
  188.8040  177.3150  138.8540 N   0  0  0  0  0  0  0  0  0  0  0  0
  191.3420  177.2810  140.0130 N   0  0  0  0  0  0  0  0  0  0  0  0
  188.9160  177.0260  140.2890 C   0  0  0  0  0  2  0  0  0  0  0  0
  190.5500  177.2030  142.2740 C   0  0  0  0  0  0  0  0  0  0  0  0
  191.3490  176.3940  142.8200 O   0  0  0  0  0  0  0  0  0  0  0  0
  190.7650  179.2660  143.4120 O   0  0  0  0  0  1  0  0  0  0  0  0
  189.8670  178.2420  143.1090 C   0  0  2  0  0  3  0  0  0  0  0  0
  189.3800  177.6750  144.2890 O   0  0  0  0  0  0  0  0  0  0  0  0
  187.1020  178.2060  142.7950 O   0  0  0  0  0  0  0  0  0  0  0  0
  186.9750  177.1610  145.1860 O   0  0  0  0  0  1  0  0  0  0  0  0
  187.8390  175.6090  143.2930 F   0  0  0  0  0  0  0  0  0  0  0  0
  187.8060  177.1610  143.9230 P   0  0  2  0  0  0  0  0  0  0  0  0
  184.9290  179.6590  140.3900 O   0  0  0  0  0  1  0  0  0  0  0  0
  184.3670  179.2870  139.1680 C   0  0  0  0  0  2  0  0  0  0  0  0
  2  9  1  0  0  0  0
  4  6  2  0  0  0  0
  5  3  2  0  0  0  0
  5 33  1  0  0  0  0
  6 20  1  0  0  0  0
  6  3  1  0  0  0  0
  7  2  1  0  0  0  0
  7  8  1  0  0  0  0
  8  4  1  0  0  0  0
  8 10  1  0  0  0  0
  9  1  1  0  0  0  0
  9 10  2  0  0  0  0
 10  5  1  0  0  0  0
 11 15  1  0  0  0  0
 12 13  1  0  0  0  0
 14 11  1  0  0  0  0
 14 16  1  0  0  0  0
 15 12  1  0  0  0  0
 16 13  1  0  0  0  0
 16  4  1  0  0  0  0
 17 18  1  0  0  0  0
 17 20  1  0  0  0  0
 18 21  1  0  0  0  0
 19 23  1  0  0  0  0
 20 22  1  0  0  0  0
 21 19  2  0  0  0  0
 22 19  1  0  0  0  0
 23 24  2  0  0  0  0
 23 26  1  0  0  0  0
 26 25  1  1  0  0  0
 26 27  1  0  0  0  0
 30 31  1  0  0  0  0
 31 28  2  6  0  0  0
 31 27  1  0  0  0  0
 31 29  1  0  0  0  0
 33 32  1  0  0  0  0
M  END
>  <MODEL>
2

>  <REMARK>
 VINA RESULT:      -6.6      4.623      7.037
  Name = 
  7 active torsions:
  status: ('A' for Active; 'I' for Inactive)
    1  A    between atoms: C_10  and  N_33
    2  A    between atoms: C_12  and  C_17
    3  A    between atoms: C_12  and  C_21
    4  A    between atoms: CA_14  and  C_19
    5  A    between atoms: C_18  and  N_26
    6  A    between atoms: P_20  and  O_29
    7  A    between atoms: C_21  and  O_29
                            x       y       z     vdW  Elec       q    Type
                         _______ _______ _______ _____ _____    ______ ____

>  <TORSDO>
F 7

$$$$
=
 OpenBabel10232410253D

 33 36  0  0  1  0  0  0  0  0999 V2000
  181.6700  178.2120  139.7840 N   0  0  0  0  0  1  0  0  0  0  0  0
  181.5260  176.1330  138.3260 C   0  0  0  0  0  2  0  0  0  0  0  0
  185.7870  178.2150  138.5080 N   0  0  0  0  0  0  0  0  0  0  0  0
  185.3410  176.1920  137.2490 C   0  0  0  0  0  0  0  0  0  0  0  0
  184.5650  178.3580  138.9300 C   0  0  0  0  0  0  0  0  0  0  0  0
  186.2300  177.1330  137.6580 C   0  0  0  0  0  0  0  0  0  0  0  0
  182.6930  175.1540  137.3050 S   0  0  0  0  0  0  0  0  0  0  0  0
  183.9660  176.3250  137.6470 N   0  0  0  0  0  0  0  0  0  0  0  0
  182.2810  177.2950  138.8800 C   0  0  0  0  0  0  0  0  0  0  0  0
  183.5540  177.3670  138.5080 C   0  0  0  0  0  0  0  0  0  0  0  0
  186.8790  174.4200  134.4000 C   0  0  0  0  0  2  0  0  0  0  0  0
  187.2990  173.1960  136.3890 C   0  0  0  0  0  2  0  0  0  0  0  0
  186.1000  173.8130  137.1070 C   0  0  0  0  0  2  0  0  0  0  0  0
  185.6530  175.1090  134.9960 C   0  0  0  0  0  2  0  0  0  0  0  0
  187.0200  173.0770  134.9600 N   0  0  0  0  0  2  0  0  0  0  0  0
  185.7360  175.0660  136.4550 N   0  0  0  0  0  0  0  0  0  0  0  0
  188.0370  177.8750  136.0800 C   0  0  0  0  0  2  0  0  0  0  0  0
  189.2690  177.2120  135.4890 C   0  0  0  0  0  2  0  0  0  0  0  0
  190.0330  176.8220  137.7600 C   0  0  0  0  0  0  0  0  0  0  0  0
  187.6090  177.1100  137.2490 N   0  0  0  0  0  0  0  0  0  0  0  0
  190.2990  177.0920  136.5130 N   0  0  0  0  0  0  0  0  0  0  0  0
  188.6030  176.6800  138.2390 C   0  0  0  0  0  2  0  0  0  0  0  0
  191.1330  176.7360  138.7330 C   0  0  0  0  0  0  0  0  0  0  0  0
  192.2530  176.2760  138.3790 O   0  0  0  0  0  0  0  0  0  0  0  0
  192.1640  177.7040  140.6300 O   0  0  0  0  0  1  0  0  0  0  0  0
  190.9480  177.2320  140.1330 C   0  0  2  0  0  3  0  0  0  0  0  0
  190.4680  176.2070  140.9530 O   0  0  0  0  0  0  0  0  0  0  0  0
  188.4840  175.9150  142.8720 O   0  0  0  0  0  1  0  0  0  0  0  0
  188.8480  178.1620  141.5910 O   0  0  0  0  0  0  0  0  0  0  0  0
  190.6390  177.5430  143.3660 F   0  0  0  0  0  0  0  0  0  0  0  0
  189.5940  176.9870  142.1800 P   0  0  2  0  0  0  0  0  0  0  0  0
  184.0780  180.6670  138.9480 O   0  0  0  0  0  1  0  0  0  0  0  0
  184.2290  179.5450  139.7660 C   0  0  0  0  0  2  0  0  0  0  0  0
  2  9  1  0  0  0  0
  3  5  2  0  0  0  0
  4  8  1  0  0  0  0
  4  6  2  0  0  0  0
  5 33  1  0  0  0  0
  6  3  1  0  0  0  0
  7  8  1  0  0  0  0
  7  2  1  0  0  0  0
  8 10  1  0  0  0  0
  9  1  1  0  0  0  0
 10  9  2  0  0  0  0
 10  5  1  0  0  0  0
 11 15  1  0  0  0  0
 11 14  1  0  0  0  0
 12 13  1  0  0  0  0
 14 16  1  0  0  0  0
 15 12  1  0  0  0  0
 16 13  1  0  0  0  0
 16  4  1  0  0  0  0
 17 20  1  0  0  0  0
 18 17  1  0  0  0  0
 18 21  1  0  0  0  0
 19 22  1  0  0  0  0
 19 23  1  0  0  0  0
 20  6  1  0  0  0  0
 20 22  1  0  0  0  0
 21 19  2  0  0  0  0
 23 26  1  0  0  0  0
 24 23  2  0  0  0  0
 26 25  1  1  0  0  0
 26 27  1  0  0  0  0
 27 31  1  0  0  0  0
 31 29  2  6  0  0  0
 31 28  1  0  0  0  0
 31 30  1  0  0  0  0
 32 33  1  0  0  0  0
M  END
>  <MODEL>
3

>  <REMARK>
 VINA RESULT:      -6.3      5.129      6.968
  Name = 
  7 active torsions:
  status: ('A' for Active; 'I' for Inactive)
    1  A    between atoms: C_10  and  N_33
    2  A    between atoms: C_12  and  C_17
    3  A    between atoms: C_12  and  C_21
    4  A    between atoms: CA_14  and  C_19
    5  A    between atoms: C_18  and  N_26
    6  A    between atoms: P_20  and  O_29
    7  A    between atoms: C_21  and  O_29
                            x       y       z     vdW  Elec       q    Type
                         _______ _______ _______ _____ _____    ______ ____

>  <TORSDO>
F 7

$$$$
=
 OpenBabel10232410253D

 33 36  0  0  1  0  0  0  0  0999 V2000
  183.5760  179.0400  145.7450 N   0  0  0  0  0  1  0  0  0  0  0  0
  185.6200  178.5260  147.1680 C   0  0  0  0  0  2  0  0  0  0  0  0
  186.2710  178.2540  142.4740 N   0  0  0  0  0  0  0  0  0  0  0  0
  188.0350  177.8720  144.0930 C   0  0  0  0  0  0  0  0  0  0  0  0
  185.3460  178.4680  143.3630 C   0  0  0  0  0  0  0  0  0  0  0  0
  187.6480  177.9510  142.7930 C   0  0  0  0  0  0  0  0  0  0  0  0
  187.3740  178.0930  146.8510 S   0  0  0  0  0  0  0  0  0  0  0  0
  187.0450  178.0540  145.1180 N   0  0  0  0  0  0  0  0  0  0  0  0
  184.9390  178.6370  145.8440 C   0  0  0  0  0  0  0  0  0  0  0  0
  185.7110  178.3870  144.7920 C   0  0  0  0  0  0  0  0  0  0  0  0
  191.4350  178.7190  145.2550 C   0  0  0  0  0  2  0  0  0  0  0  0
  190.7810  176.6500  146.2180 C   0  0  0  0  0  2  0  0  0  0  0  0
  189.7610  176.3770  145.1150 C   0  0  0  0  0  2  0  0  0  0  0  0
  190.4570  178.5690  144.0920 C   0  0  0  0  0  2  0  0  0  0  0  0
  191.9120  177.4040  145.6790 N   0  0  0  0  0  2  0  0  0  0  0  0
  189.3990  177.6330  144.4680 N   0  0  0  0  0  0  0  0  0  0  0  0
  189.4360  176.5430  141.7310 C   0  0  0  0  0  2  0  0  0  0  0  0
  190.6760  176.8450  140.9080 C   0  0  0  0  0  2  0  0  0  0  0  0
  189.2300  177.9770  139.3210 C   0  0  0  0  0  0  0  0  0  0  0  0
  188.5620  177.7140  141.7090 N   0  0  0  0  0  0  0  0  0  0  0  0
  190.2840  177.2500  139.5630 N   0  0  0  0  0  0  0  0  0  0  0  0
  188.2970  178.3970  140.4370 C   0  0  0  0  0  2  0  0  0  0  0  0
  188.8970  178.3270  137.9310 C   0  0  0  0  0  0  0  0  0  0  0  0
  188.8380  179.5380  137.5820 O   0  0  0  0  0  0  0  0  0  0  0  0
  187.6040  176.4450  137.3090 O   0  0  0  0  0  1  0  0  0  0  0  0
  188.6700  177.2540  136.9120 C   0  0  2  0  0  3  0  0  0  0  0  0
  189.8210  176.4770  136.7590 O   0  0  0  0  0  0  0  0  0  0  0  0
  188.8970  175.2730  134.4350 O   0  0  0  0  0  0  0  0  0  0  0  0
  191.4290  175.7920  134.8100 O   0  0  0  0  0  1  0  0  0  0  0  0
  189.8890  177.8310  134.3510 F   0  0  0  0  0  0  0  0  0  0  0  0
  190.0440  176.3320  135.0840 P   0  0  2  0  0  0  0  0  0  0  0  0
  183.8230  178.3390  141.5660 O   0  0  0  0  0  1  0  0  0  0  0  0
  183.9530  178.7260  142.9010 C   0  0  0  0  0  2  0  0  0  0  0  0
  1  9  1  0  0  0  0
  3  6  1  0  0  0  0
  3  5  2  0  0  0  0
  4 16  1  0  0  0  0
  4  8  1  0  0  0  0
  5 10  1  0  0  0  0
  6  4  2  0  0  0  0
  7  2  1  0  0  0  0
  8  7  1  0  0  0  0
  9  2  1  0  0  0  0
 10  8  1  0  0  0  0
 10  9  2  0  0  0  0
 11 15  1  0  0  0  0
 13 12  1  0  0  0  0
 14 16  1  0  0  0  0
 14 11  1  0  0  0  0
 15 12  1  0  0  0  0
 16 13  1  0  0  0  0
 18 17  1  0  0  0  0
 19 21  2  0  0  0  0
 19 22  1  0  0  0  0
 20 17  1  0  0  0  0
 20  6  1  0  0  0  0
 21 18  1  0  0  0  0
 22 20  1  0  0  0  0
 23 19  1  0  0  0  0
 24 23  2  0  0  0  0
 26 25  1  1  0  0  0
 26 23  1  0  0  0  0
 27 26  1  0  0  0  0
 28 31  2  0  0  0  0
 29 31  1  0  0  0  0
 31 30  1  6  0  0  0
 31 27  1  0  0  0  0
 32 33  1  0  0  0  0
 33  5  1  0  0  0  0
M  END
>  <MODEL>
4

>  <REMARK>
 VINA RESULT:      -6.2      1.528      2.229
  Name = 
  7 active torsions:
  status: ('A' for Active; 'I' for Inactive)
    1  A    between atoms: C_10  and  N_33
    2  A    between atoms: C_12  and  C_17
    3  A    between atoms: C_12  and  C_21
    4  A    between atoms: CA_14  and  C_19
    5  A    between atoms: C_18  and  N_26
    6  A    between atoms: P_20  and  O_29
    7  A    between atoms: C_21  and  O_29
                            x       y       z     vdW  Elec       q    Type
                         _______ _______ _______ _____ _____    ______ ____

>  <TORSDO>
F 7

$$$$
=
 OpenBabel10232410253D

 33 36  0  0  1  0  0  0  0  0999 V2000
  186.0750  177.7890  144.8210 N   0  0  0  0  0  1  0  0  0  0  0  0
  185.0920  178.6430  142.6360 C   0  0  0  0  0  2  0  0  0  0  0  0
  189.5610  177.0640  142.3910 N   0  0  0  0  0  0  0  0  0  0  0  0
  188.3290  177.8920  140.4740 C   0  0  0  0  0  0  0  0  0  0  0  0
  188.6010  177.2750  143.2420 C   0  0  0  0  0  0  0  0  0  0  0  0
  189.4710  177.3570  140.9780 C   0  0  0  0  0  0  0  0  0  0  0  0
  185.6620  178.7860  140.8990 S   0  0  0  0  0  0  0  0  0  0  0  0
  187.2510  178.1900  141.3770 N   0  0  0  0  0  0  0  0  0  0  0  0
  186.2260  178.0920  143.4360 C   0  0  0  0  0  0  0  0  0  0  0  0
  187.3390  177.8640  142.7490 C   0  0  0  0  0  0  0  0  0  0  0  0
  189.3620  178.7150  137.0280 C   0  0  0  0  0  2  0  0  0  0  0  0
  187.6660  177.0560  136.9510 C   0  0  0  0  0  2  0  0  0  0  0  0
  187.1270  177.4410  138.3270 C   0  0  0  0  0  2  0  0  0  0  0  0
  188.9230  179.2040  138.4060 C   0  0  0  0  0  2  0  0  0  0  0  0
  188.2040  178.2350  136.2750 N   0  0  0  0  0  2  0  0  0  0  0  0
  188.1630  178.1480  139.0730 N   0  0  0  0  0  0  0  0  0  0  0  0
  191.9590  177.4040  140.6460 C   0  0  0  0  0  2  0  0  0  0  0  0
  192.8670  177.6630  139.4560 C   0  0  0  0  0  2  0  0  0  0  0  0
  191.7500  175.8270  138.3260 C   0  0  0  0  0  0  0  0  0  0  0  0
  190.6190  177.0920  140.1540 N   0  0  0  0  0  0  0  0  0  0  0  0
  192.8320  176.5160  138.5560 N   0  0  0  0  0  0  0  0  0  0  0  0
  190.4560  176.1430  139.0460 C   0  0  0  0  0  2  0  0  0  0  0  0
  191.8070  174.6730  137.4160 C   0  0  0  0  0  0  0  0  0  0  0  0
  190.8320  173.8750  137.3480 O   0  0  0  0  0  0  0  0  0  0  0  0
  192.6110  174.5460  135.1940 O   0  0  0  0  0  1  0  0  0  0  0  0
  192.9970  174.4610  136.5330 C   0  0  2  0  0  3  0  0  0  0  0  0
  193.5700  173.2110  136.7810 O   0  0  0  0  0  0  0  0  0  0  0  0
  195.3480  173.0600  138.9070 O   0  0  0  0  0  1  0  0  0  0  0  0
  195.4170  175.0210  137.1840 O   0  0  0  0  0  0  0  0  0  0  0  0
  196.2510  172.7120  136.3380 F   0  0  0  0  0  0  0  0  0  0  0  0
  195.1520  173.5370  137.2970 P   0  0  2  0  0  0  0  0  0  0  0  0
  189.5150  178.0350  145.2810 O   0  0  0  0  0  1  0  0  0  0  0  0
  188.8390  176.9700  144.6820 C   0  0  0  0  0  2  0  0  0  0  0  0
  2  9  1  0  0  0  0
  3  5  2  0  0  0  0
  4  6  2  0  0  0  0
  4  8  1  0  0  0  0
  5 33  1  0  0  0  0
  6  3  1  0  0  0  0
  7  8  1  0  0  0  0
  7  2  1  0  0  0  0
  8 10  1  0  0  0  0
  9  1  1  0  0  0  0
 10  5  1  0  0  0  0
 10  9  2  0  0  0  0
 11 14  1  0  0  0  0
 12 13  1  0  0  0  0
 13 16  1  0  0  0  0
 14 16  1  0  0  0  0
 15 12  1  0  0  0  0
 15 11  1  0  0  0  0
 16  4  1  0  0  0  0
 18 17  1  0  0  0  0
 19 21  2  0  0  0  0
 19 22  1  0  0  0  0
 20 17  1  0  0  0  0
 20  6  1  0  0  0  0
 21 18  1  0  0  0  0
 22 20  1  0  0  0  0
 23 19  1  0  0  0  0
 24 23  2  0  0  0  0
 26 25  1  6  0  0  0
 26 27  1  0  0  0  0
 26 23  1  0  0  0  0
 27 31  1  0  0  0  0
 29 31  2  0  0  0  0
 31 30  1  6  0  0  0
 31 28  1  0  0  0  0
 33 32  1  0  0  0  0
M  END
>  <MODEL>
5

>  <REMARK>
 VINA RESULT:      -6.1      4.365      6.116
  Name = 
  7 active torsions:
  status: ('A' for Active; 'I' for Inactive)
    1  A    between atoms: C_10  and  N_33
    2  A    between atoms: C_12  and  C_17
    3  A    between atoms: C_12  and  C_21
    4  A    between atoms: CA_14  and  C_19
    5  A    between atoms: C_18  and  N_26
    6  A    between atoms: P_20  and  O_29
    7  A    between atoms: C_21  and  O_29
                            x       y       z     vdW  Elec       q    Type
                         _______ _______ _______ _____ _____    ______ ____

>  <TORSDO>
F 7

$$$$
=
 OpenBabel10232410253D

 33 36  0  0  1  0  0  0  0  0999 V2000
  194.1660  172.1680  135.9910 N   0  0  0  0  0  1  0  0  0  0  0  0
  191.8780  171.5690  135.0540 C   0  0  0  0  0  2  0  0  0  0  0  0
  192.0700  175.5860  137.5740 N   0  0  0  0  0  0  0  0  0  0  0  0
  190.0510  174.7710  136.5100 C   0  0  0  0  0  0  0  0  0  0  0  0
  192.8090  174.5840  137.1980 C   0  0  0  0  0  0  0  0  0  0  0  0
  190.6690  175.7290  137.2480 C   0  0  0  0  0  0  0  0  0  0  0  0
  190.2090  172.3290  135.0610 S   0  0  0  0  0  0  0  0  0  0  0  0
  190.8060  173.6170  136.1060 N   0  0  0  0  0  0  0  0  0  0  0  0
  192.7740  172.4460  135.8650 C   0  0  0  0  0  0  0  0  0  0  0  0
  192.1840  173.5100  136.4000 C   0  0  0  0  0  0  0  0  0  0  0  0
  186.4500  175.4850  136.8940 C   0  0  0  0  0  2  0  0  0  0  0  0
  187.1660  176.2470  134.7630 C   0  0  0  0  0  2  0  0  0  0  0  0
  188.3580  175.2930  134.7430 C   0  0  0  0  0  2  0  0  0  0  0  0
  187.5960  174.4820  137.0010 C   0  0  0  0  0  2  0  0  0  0  0  0
  186.0540  175.6450  135.4950 N   0  0  0  0  0  2  0  0  0  0  0  0
  188.6790  174.8890  136.1080 N   0  0  0  0  0  0  0  0  0  0  0  0
  189.2810  177.7770  136.8220 C   0  0  0  0  0  2  0  0  0  0  0  0
  189.2090  179.1600  137.4470 C   0  0  0  0  0  2  0  0  0  0  0  0
  188.7500  178.0730  139.5680 C   0  0  0  0  0  0  0  0  0  0  0  0
  189.9680  176.8800  137.7490 N   0  0  0  0  0  0  0  0  0  0  0  0
  188.5680  179.0740  138.7530 N   0  0  0  0  0  0  0  0  0  0  0  0
  189.6030  176.8870  139.1700 C   0  0  0  0  0  2  0  0  0  0  0  0
  188.0490  178.0580  140.8620 C   0  0  0  0  0  0  0  0  0  0  0  0
  186.9430  178.6510  140.9870 O   0  0  0  0  0  0  0  0  0  0  0  0
  187.5940  176.9630  142.9090 O   0  0  0  0  0  1  0  0  0  0  0  0
  188.6170  177.3030  142.0230 C   0  0  2  0  0  3  0  0  0  0  0  0
  189.5770  178.0760  142.6830 O   0  0  0  0  0  0  0  0  0  0  0  0
  191.5760  177.2890  144.4400 O   0  0  0  0  0  1  0  0  0  0  0  0
  191.9490  177.3410  141.8560 O   0  0  0  0  0  0  0  0  0  0  0  0
  190.4230  175.4470  142.7630 F   0  0  0  0  0  0  0  0  0  0  0  0
  190.9050  177.0450  142.9080 P   0  0  2  0  0  0  0  0  0  0  0  0
  194.9650  175.5130  136.9680 O   0  0  0  0  0  1  0  0  0  0  0  0
  194.2310  174.5350  137.6410 C   0  0  0  0  0  2  0  0  0  0  0  0
  2  7  1  0  0  0  0
  2  9  1  0  0  0  0
  4  6  2  0  0  0  0
  5  3  2  0  0  0  0
  5 33  1  0  0  0  0
  6  3  1  0  0  0  0
  6 20  1  0  0  0  0
  7  8  1  0  0  0  0
  8 10  1  0  0  0  0
  8  4  1  0  0  0  0
  9  1  1  0  0  0  0
  9 10  2  0  0  0  0
 10  5  1  0  0  0  0
 11 14  1  0  0  0  0
 12 15  1  0  0  0  0
 13 12  1  0  0  0  0
 13 16  1  0  0  0  0
 15 11  1  0  0  0  0
 16  4  1  0  0  0  0
 16 14  1  0  0  0  0
 17 18  1  0  0  0  0
 17 20  1  0  0  0  0
 18 21  1  0  0  0  0
 19 23  1  0  0  0  0
 20 22  1  0  0  0  0
 21 19  2  0  0  0  0
 22 19  1  0  0  0  0
 23 24  2  0  0  0  0
 23 26  1  0  0  0  0
 26 27  1  0  0  0  0
 26 25  1  1  0  0  0
 27 31  1  0  0  0  0
 30 31  1  0  0  0  0
 31 29  2  6  0  0  0
 31 28  1  0  0  0  0
 32 33  1  0  0  0  0
M  END
>  <MODEL>
6

>  <REMARK>
 VINA RESULT:      -6.1      5.246      9.129
  Name = 
  7 active torsions:
  status: ('A' for Active; 'I' for Inactive)
    1  A    between atoms: C_10  and  N_33
    2  A    between atoms: C_12  and  C_17
    3  A    between atoms: C_12  and  C_21
    4  A    between atoms: CA_14  and  C_19
    5  A    between atoms: C_18  and  N_26
    6  A    between atoms: P_20  and  O_29
    7  A    between atoms: C_21  and  O_29
                            x       y       z     vdW  Elec       q    Type
                         _______ _______ _______ _____ _____    ______ ____

>  <TORSDO>
F 7

$$$$
=
 OpenBabel10232410253D

 33 36  0  0  1  0  0  0  0  0999 V2000
  182.2130  178.9150  142.3020 N   0  0  0  0  0  1  0  0  0  0  0  0
  181.2650  177.8360  140.2030 C   0  0  0  0  0  2  0  0  0  0  0  0
  185.9390  178.6550  140.1500 N   0  0  0  0  0  0  0  0  0  0  0  0
  184.7470  177.5940  138.3260 C   0  0  0  0  0  0  0  0  0  0  0  0
  184.8820  178.8360  140.8860 C   0  0  0  0  0  0  0  0  0  0  0  0
  185.9230  178.0280  138.8480 C   0  0  0  0  0  0  0  0  0  0  0  0
  181.9410  177.2260  138.6120 S   0  0  0  0  0  0  0  0  0  0  0  0
  183.5400  177.8090  139.0740 N   0  0  0  0  0  0  0  0  0  0  0  0
  182.3990  178.4200  140.9780 C   0  0  0  0  0  0  0  0  0  0  0  0
  183.5750  178.3900  140.3620 C   0  0  0  0  0  0  0  0  0  0  0  0
  185.0280  177.1870  134.6680 C   0  0  0  0  0  2  0  0  0  0  0  0
  185.7890  175.2030  135.7270 C   0  0  0  0  0  2  0  0  0  0  0  0
  184.9880  175.4880  136.9960 C   0  0  0  0  0  2  0  0  0  0  0  0
  184.1780  177.5900  135.8710 C   0  0  0  0  0  2  0  0  0  0  0  0
  185.0840  175.7290  134.5610 N   0  0  0  0  0  2  0  0  0  0  0  0
  184.6800  176.9130  137.0650 N   0  0  0  0  0  0  0  0  0  0  0  0
  187.4430  178.7920  137.0010 C   0  0  0  0  0  2  0  0  0  0  0  0
  188.4120  178.0910  136.0650 C   0  0  0  0  0  2  0  0  0  0  0  0
  189.5750  177.2770  138.0340 C   0  0  0  0  0  0  0  0  0  0  0  0
  187.1660  177.9110  138.1340 N   0  0  0  0  0  0  0  0  0  0  0  0
  189.6080  177.7010  136.8030 N   0  0  0  0  0  0  0  0  0  0  0  0
  188.2750  177.2260  138.8080 C   0  0  0  0  0  2  0  0  0  0  0  0
  190.8320  176.9190  138.7100 C   0  0  0  0  0  0  0  0  0  0  0  0
  191.7550  176.3500  138.0660 O   0  0  0  0  0  0  0  0  0  0  0  0
  192.3690  177.6580  140.3500 O   0  0  0  0  0  1  0  0  0  0  0  0
  191.0440  177.2670  140.1510 C   0  0  2  0  0  3  0  0  0  0  0  0
  190.7480  176.1700  140.9640 O   0  0  0  0  0  0  0  0  0  0  0  0
  189.2790  178.2940  141.9840 O   0  0  0  0  0  0  0  0  0  0  0  0
  191.0950  177.0630  143.4010 O   0  0  0  0  0  1  0  0  0  0  0  0
  188.8910  175.7610  142.9690 F   0  0  0  0  0  0  0  0  0  0  0  0
  190.0310  176.8250  142.3550 P   0  0  2  0  0  0  0  0  0  0  0  0
  185.5500  178.6570  143.1420 O   0  0  0  0  0  1  0  0  0  0  0  0
  185.0290  179.5380  142.1920 C   0  0  0  0  0  2  0  0  0  0  0  0
  2  9  1  0  0  0  0
  3  5  2  0  0  0  0
  4  6  2  0  0  0  0
  4  8  1  0  0  0  0
  5 33  1  0  0  0  0
  6  3  1  0  0  0  0
  7  8  1  0  0  0  0
  7  2  1  0  0  0  0
  8 10  1  0  0  0  0
  9  1  1  0  0  0  0
 10  5  1  0  0  0  0
 10  9  2  0  0  0  0
 11 14  1  0  0  0  0
 12 13  1  0  0  0  0
 13 16  1  0  0  0  0
 14 16  1  0  0  0  0
 15 11  1  0  0  0  0
 15 12  1  0  0  0  0
 16  4  1  0  0  0  0
 17 20  1  0  0  0  0
 18 21  1  0  0  0  0
 18 17  1  0  0  0  0
 19 23  1  0  0  0  0
 19 22  1  0  0  0  0
 20 22  1  0  0  0  0
 20  6  1  0  0  0  0
 21 19  2  0  0  0  0
 23 26  1  0  0  0  0
 24 23  2  0  0  0  0
 26 25  1  6  0  0  0
 26 27  1  0  0  0  0
 27 31  1  0  0  0  0
 31 28  2  6  0  0  0
 31 30  1  0  0  0  0
 31 29  1  0  0  0  0
 33 32  1  0  0  0  0
M  END
>  <MODEL>
7

>  <REMARK>
 VINA RESULT:      -6.1      4.390      6.530
  Name = 
  7 active torsions:
  status: ('A' for Active; 'I' for Inactive)
    1  A    between atoms: C_10  and  N_33
    2  A    between atoms: C_12  and  C_17
    3  A    between atoms: C_12  and  C_21
    4  A    between atoms: CA_14  and  C_19
    5  A    between atoms: C_18  and  N_26
    6  A    between atoms: P_20  and  O_29
    7  A    between atoms: C_21  and  O_29
                            x       y       z     vdW  Elec       q    Type
                         _______ _______ _______ _____ _____    ______ ____

>  <TORSDO>
F 7

$$$$
=
 OpenBabel10232410253D

 33 36  0  0  1  0  0  0  0  0999 V2000
  186.9000  177.8940  148.7400 N   0  0  0  0  0  1  0  0  0  0  0  0
  189.2060  177.2520  147.8800 C   0  0  0  0  0  2  0  0  0  0  0  0
  186.0120  178.3520  144.5470 N   0  0  0  0  0  0  0  0  0  0  0  0
  188.3070  177.7500  144.0520 C   0  0  0  0  0  0  0  0  0  0  0  0
  186.1320  178.2070  145.8340 C   0  0  0  0  0  0  0  0  0  0  0  0
  187.0850  178.1360  143.6030 C   0  0  0  0  0  0  0  0  0  0  0  0
  190.0160  177.1290  146.2400 S   0  0  0  0  0  0  0  0  0  0  0  0
  188.4850  177.5280  145.4610 N   0  0  0  0  0  0  0  0  0  0  0  0
  187.7830  177.6410  147.6500 C   0  0  0  0  0  0  0  0  0  0  0  0
  187.4380  177.7800  146.3760 C   0  0  0  0  0  0  0  0  0  0  0  0
  191.7120  178.2990  142.7350 C   0  0  0  0  0  2  0  0  0  0  0  0
  191.1690  175.9970  142.5390 C   0  0  0  0  0  2  0  0  0  0  0  0
  189.6670  176.2750  142.5570 C   0  0  0  0  0  2  0  0  0  0  0  0
  190.2430  178.7180  142.7610 C   0  0  0  0  0  2  0  0  0  0  0  0
  191.8770  177.1070  141.9050 N   0  0  0  0  0  2  0  0  0  0  0  0
  189.4230  177.5780  143.1680 N   0  0  0  0  0  0  0  0  0  0  0  0
  185.7080  179.1810  141.7810 C   0  0  0  0  0  2  0  0  0  0  0  0
  185.2130  178.7130  140.4240 C   0  0  0  0  0  2  0  0  0  0  0  0
  187.5310  178.3250  139.8180 C   0  0  0  0  0  0  0  0  0  0  0  0
  186.8060  178.3140  142.2040 N   0  0  0  0  0  0  0  0  0  0  0  0
  186.3250  178.6840  139.4810 N   0  0  0  0  0  0  0  0  0  0  0  0
  187.8700  177.9740  141.2510 C   0  0  0  0  0  2  0  0  0  0  0  0
  188.5990  178.3410  138.8060 C   0  0  0  0  0  0  0  0  0  0  0  0
  189.1190  179.4350  138.4540 O   0  0  0  0  0  0  0  0  0  0  0  0
  188.0520  176.1620  138.0620 O   0  0  0  0  0  1  0  0  0  0  0  0
  189.1090  177.0610  138.2200 C   0  0  2  0  0  3  0  0  0  0  0  0
  190.0850  176.5010  139.0480 O   0  0  0  0  0  0  0  0  0  0  0  0
  191.0160  176.4530  136.4340 O   0  0  0  0  0  0  0  0  0  0  0  0
  191.1070  174.3440  137.9730 O   0  0  0  0  0  1  0  0  0  0  0  0
  192.7850  176.2470  138.5230 F   0  0  0  0  0  0  0  0  0  0  0  0
  191.2450  175.8490  137.9970 P   0  0  2  0  0  0  0  0  0  0  0  0
  183.8990  178.9640  145.9320 O   0  0  0  0  0  1  0  0  0  0  0  0
  184.9330  178.4170  146.6940 C   0  0  0  0  0  2  0  0  0  0  0  0
  3  5  2  0  0  0  0
  4  8  1  0  0  0  0
  5 10  1  0  0  0  0
  5 33  1  0  0  0  0
  6  4  2  0  0  0  0
  6  3  1  0  0  0  0
  7  2  1  0  0  0  0
  8  7  1  0  0  0  0
  8 10  1  0  0  0  0
  9  2  1  0  0  0  0
  9  1  1  0  0  0  0
 10  9  2  0  0  0  0
 11 14  1  0  0  0  0
 12 13  1  0  0  0  0
 13 16  1  0  0  0  0
 14 16  1  0  0  0  0
 15 12  1  0  0  0  0
 15 11  1  0  0  0  0
 16  4  1  0  0  0  0
 17 20  1  0  0  0  0
 18 17  1  0  0  0  0
 19 22  1  0  0  0  0
 20  6  1  0  0  0  0
 21 19  2  0  0  0  0
 21 18  1  0  0  0  0
 22 20  1  0  0  0  0
 23 19  1  0  0  0  0
 24 23  2  0  0  0  0
 26 25  1  1  0  0  0
 26 23  1  0  0  0  0
 26 27  1  0  0  0  0
 29 31  1  0  0  0  0
 31 28  2  6  0  0  0
 31 30  1  0  0  0  0
 31 27  1  0  0  0  0
 32 33  1  0  0  0  0
M  END
>  <MODEL>
8

>  <REMARK>
 VINA RESULT:      -6.0      2.768      3.656
  Name = 
  7 active torsions:
  status: ('A' for Active; 'I' for Inactive)
    1  A    between atoms: C_10  and  N_33
    2  A    between atoms: C_12  and  C_17
    3  A    between atoms: C_12  and  C_21
    4  A    between atoms: CA_14  and  C_19
    5  A    between atoms: C_18  and  N_26
    6  A    between atoms: P_20  and  O_29
    7  A    between atoms: C_21  and  O_29
                            x       y       z     vdW  Elec       q    Type
                         _______ _______ _______ _____ _____    ______ ____

>  <TORSDO>
F 7

$$$$
=
 OpenBabel10232410253D

 33 36  0  0  1  0  0  0  0  0999 V2000
  184.5730  178.4790  146.8640 N   0  0  0  0  0  1  0  0  0  0  0  0
  187.0020  177.9630  147.4160 C   0  0  0  0  0  2  0  0  0  0  0  0
  185.9470  178.1420  142.7930 N   0  0  0  0  0  0  0  0  0  0  0  0
  188.1800  177.7250  143.6390 C   0  0  0  0  0  0  0  0  0  0  0  0
  185.3940  178.2240  143.9670 C   0  0  0  0  0  0  0  0  0  0  0  0
  187.3540  177.8940  142.5740 C   0  0  0  0  0  0  0  0  0  0  0  0
  188.5370  177.6640  146.4600 S   0  0  0  0  0  0  0  0  0  0  0  0
  187.6150  177.7580  144.9600 N   0  0  0  0  0  0  0  0  0  0  0  0
  185.8920  178.1500  146.4350 C   0  0  0  0  0  0  0  0  0  0  0  0
  186.2450  178.0390  145.1600 C   0  0  0  0  0  0  0  0  0  0  0  0
  191.7720  178.4240  144.1170 C   0  0  0  0  0  2  0  0  0  0  0  0
  191.4330  176.0750  144.1360 C   0  0  0  0  0  2  0  0  0  0  0  0
  190.1290  176.1850  143.3470 C   0  0  0  0  0  2  0  0  0  0  0  0
  190.4910  178.6760  143.3240 C   0  0  0  0  0  2  0  0  0  0  0  0
  192.3520  177.1380  143.7350 N   0  0  0  0  0  2  0  0  0  0  0  0
  189.5930  177.5350  143.4830 N   0  0  0  0  0  0  0  0  0  0  0  0
  187.2940  178.7100  140.2000 C   0  0  0  0  0  2  0  0  0  0  0  0
  187.4170  178.0380  138.8430 C   0  0  0  0  0  2  0  0  0  0  0  0
  189.5860  177.2130  139.5550 C   0  0  0  0  0  0  0  0  0  0  0  0
  187.8270  177.8080  141.2190 N   0  0  0  0  0  0  0  0  0  0  0  0
  188.8050  177.6560  138.6110 N   0  0  0  0  0  0  0  0  0  0  0  0
  189.1080  177.1300  140.9890 C   0  0  0  0  0  2  0  0  0  0  0  0
  190.9800  176.8650  139.2370 C   0  0  0  0  0  0  0  0  0  0  0  0
  191.9180  177.2900  139.9650 O   0  0  0  0  0  0  0  0  0  0  0  0
  190.4430  174.8630  138.0950 O   0  0  0  0  0  1  0  0  0  0  0  0
  191.2930  175.9690  138.0780 C   0  0  2  0  0  3  0  0  0  0  0  0
  192.6230  175.5450  138.1370 O   0  0  0  0  0  0  0  0  0  0  0  0
  194.0100  174.3690  136.0400 O   0  0  0  0  0  0  0  0  0  0  0  0
  194.2320  176.9130  136.5900 O   0  0  0  0  0  1  0  0  0  0  0  0
  191.9920  176.1550  135.5180 F   0  0  0  0  0  0  0  0  0  0  0  0
  193.2370  175.7750  136.5730 P   0  0  2  0  0  0  0  0  0  0  0  0
  183.4650  179.0330  142.8760 O   0  0  0  0  0  1  0  0  0  0  0  0
  183.9210  178.4380  144.0530 C   0  0  0  0  0  2  0  0  0  0  0  0
  3  5  2  0  0  0  0
  4  8  1  0  0  0  0
  5 33  1  0  0  0  0
  5 10  1  0  0  0  0
  6  3  1  0  0  0  0
  6  4  2  0  0  0  0
  7  2  1  0  0  0  0
  8 10  1  0  0  0  0
  8  7  1  0  0  0  0
  9  1  1  0  0  0  0
  9  2  1  0  0  0  0
 10  9  2  0  0  0  0
 13 16  1  0  0  0  0
 13 12  1  0  0  0  0
 14 16  1  0  0  0  0
 14 11  1  0  0  0  0
 15 11  1  0  0  0  0
 15 12  1  0  0  0  0
 16  4  1  0  0  0  0
 17 20  1  0  0  0  0
 18 17  1  0  0  0  0
 19 22  1  0  0  0  0
 20  6  1  0  0  0  0
 21 18  1  0  0  0  0
 21 19  2  0  0  0  0
 22 20  1  0  0  0  0
 23 19  1  0  0  0  0
 23 24  2  0  0  0  0
 26 25  1  1  0  0  0
 26 27  1  0  0  0  0
 26 23  1  0  0  0  0
 28 31  2  0  0  0  0
 31 30  1  6  0  0  0
 31 29  1  0  0  0  0
 31 27  1  0  0  0  0
 32 33  1  0  0  0  0
M  END
>  <MODEL>
9

>  <REMARK>
 VINA RESULT:      -6.0      2.775      3.625
  Name = 
  7 active torsions:
  status: ('A' for Active; 'I' for Inactive)
    1  A    between atoms: C_10  and  N_33
    2  A    between atoms: C_12  and  C_17
    3  A    between atoms: C_12  and  C_21
    4  A    between atoms: CA_14  and  C_19
    5  A    between atoms: C_18  and  N_26
    6  A    between atoms: P_20  and  O_29
    7  A    between atoms: C_21  and  O_29
                            x       y       z     vdW  Elec       q    Type
                         _______ _______ _______ _____ _____    ______ ____

>  <TORSDO>
F 7

$$$$
