=
 OpenBabel10232408173D

 32 34  0  0  1  0  0  0  0  0999 V2000
  188.3790  178.4350  139.9270 C   0  0  2  0  0  3  0  0  0  0  0  0
  188.9410  179.3260  137.7980 O   0  0  0  0  0  0  0  0  0  0  0  0
  188.5290  178.3270  138.4440 C   0  0  0  0  0  0  0  0  0  0  0  0
  188.2090  177.0950  137.7780 N   0  0  0  0  0  2  0  0  0  0  0  0
  189.4880  176.2800  135.8960 C   0  0  0  0  0  2  0  0  0  0  0  0
  188.3670  176.8020  136.3830 C   0  0  0  0  0  0  0  0  0  0  0  0
  187.1920  176.9400  135.4810 C   0  0  0  0  0  2  0  0  0  0  0  0
  186.9750  178.2870  135.1930 O   0  0  0  0  0  1  0  0  0  0  0  0
  189.1530  177.3310  140.6460 C   0  0  0  0  0  2  0  0  0  0  0  0
  190.2750  177.8670  141.3400 O   0  0  0  0  0  0  0  0  0  0  0  0
  190.2120  178.3900  143.7270 C   0  0  0  0  0  3  0  0  0  0  0  0
  190.5180  178.0360  145.0440 C   0  0  0  0  0  3  0  0  0  0  0  0
  191.5360  175.9880  144.2560 C   0  0  0  0  0  3  0  0  0  0  0  0
  190.5660  177.5420  142.6670 C   0  0  0  0  0  0  0  0  0  0  0  0
  191.1820  176.8330  145.3180 C   0  0  0  0  0  0  0  0  0  0  0  0
  191.2280  176.3420  142.9390 C   0  0  0  0  0  3  0  0  0  0  0  0
  191.4990  176.4710  146.6710 N   0  0  0  0  0  0  0  0  0  0  0  0
  190.8580  177.0750  147.7020 O   0  0  0  0  0  1  0  0  0  0  0  0
  192.5120  175.6070  146.9360 O   0  0  0  0  0  0  0  0  0  0  0  0
  192.7650  175.7430  148.3040 C   0  0  0  0  0  1  0  0  0  0  0  0
  186.9080  178.4550  140.3300 C   0  0  0  0  0  2  0  0  0  0  0  0
  186.7390  178.8150  141.8000 C   0  0  0  0  0  2  0  0  0  0  0  0
  184.2730  178.5710  142.1260 C   0  0  0  0  0  3  0  0  0  0  0  0
  185.7180  178.0780  143.9430 C   0  0  0  0  0  0  0  0  0  0  0  0
  186.7260  177.6430  144.8060 C   0  0  0  0  0  3  0  0  0  0  0  0
  187.5620  177.4140  147.0940 N   0  0  0  0  0  1  0  0  0  0  0  0
  185.3830  178.4530  146.6740 C   0  0  0  0  0  3  0  0  0  0  0  0
  185.6560  177.9680  142.4600 C   0  0  2  0  0  3  0  0  0  0  0  0
  186.5530  177.8390  146.1860 C   0  0  0  0  0  0  0  0  0  0  0  0
  183.6760  178.9960  143.3920 N   0  0  0  0  0  0  0  0  0  0  0  0
  184.5810  178.6660  144.4220 C   0  0  0  0  0  0  0  0  0  0  0  0
  184.3790  178.8720  145.7860 C   0  0  0  0  0  3  0  0  0  0  0  0
  1 21  1  6  0  0  0
  1  9  1  0  0  0  0
  2  3  2  0  0  0  0
  3  1  1  0  0  0  0
  4  3  1  0  0  0  0
  5  6  2  0  0  0  0
  6  4  1  0  0  0  0
  7  6  1  0  0  0  0
  8  7  1  0  0  0  0
  9 10  1  0  0  0  0
 10 14  1  0  0  0  0
 11 12  1  0  0  0  0
 12 15  2  0  0  0  0
 13 15  1  0  0  0  0
 14 16  1  0  0  0  0
 14 11  2  0  0  0  0
 15 17  1  0  0  0  0
 16 13  2  0  0  0  0
 17 19  1  0  0  0  0
 17 18  1  0  0  0  0
 19 20  1  0  0  0  0
 21 22  1  0  0  0  0
 23 28  1  0  0  0  0
 23 30  2  0  0  0  0
 24 31  2  0  0  0  0
 24 25  1  0  0  0  0
 25 29  2  0  0  0  0
 28 22  1  6  0  0  0
 28 24  1  0  0  0  0
 29 27  1  0  0  0  0
 29 26  1  0  0  0  0
 30 31  1  0  0  0  0
 31 32  1  0  0  0  0
 32 27  2  0  0  0  0
M  END
>  <MODEL>
1

>  <REMARK>
 VINA RESULT:      -8.2      0.000      0.000
  Name = 
  11 active torsions:
  status: ('A' for Active; 'I' for Inactive)
    1  A    between atoms: O_7  and  C_12
    2  A    between atoms: O_7  and  C_19
    3  A    between atoms: C_9  and  C_13
    4  A    between atoms: N_11  and  O_24
    5  A    between atoms: N_11  and  C_26
    6  A    between atoms: C_12  and  C_13
    7  A    between atoms: C_13  and  C_18
    8  A    between atoms: C_15  and  C_16
    9  A    between atoms: C_15  and  C_18
   10  A    between atoms: N_17  and  CA_31
   11  A    between atoms: C_25  and  CA_31
                            x       y       z     vdW  Elec       q    Type
                         _______ _______ _______ _____ _____    ______ ____

>  <TORSDO>
F 11

$$$$
=
 OpenBabel10232408173D

 32 34  0  0  1  0  0  0  0  0999 V2000
  189.0560  177.1690  141.0530 C   0  0  2  0  0  3  0  0  0  0  0  0
  189.7210  178.1420  138.9900 O   0  0  0  0  0  0  0  0  0  0  0  0
  189.7850  177.1380  139.7480 C   0  0  0  0  0  0  0  0  0  0  0  0
  190.5470  175.9790  139.3780 N   0  0  0  0  0  2  0  0  0  0  0  0
  192.6250  176.2210  138.1670 C   0  0  0  0  0  2  0  0  0  0  0  0
  191.3600  175.8170  138.2070 C   0  0  0  0  0  0  0  0  0  0  0  0
  190.8220  175.0370  137.0610 C   0  0  0  0  0  2  0  0  0  0  0  0
  190.5010  173.7460  137.4790 O   0  0  0  0  0  1  0  0  0  0  0  0
  188.4310  178.5390  141.3070 C   0  0  0  0  0  2  0  0  0  0  0  0
  187.2350  178.7000  140.5510 O   0  0  0  0  0  0  0  0  0  0  0  0
  184.8080  178.9390  140.3810 C   0  0  0  0  0  3  0  0  0  0  0  0
  183.5550  178.9560  141.0010 C   0  0  0  0  0  3  0  0  0  0  0  0
  184.6080  178.5420  143.1390 C   0  0  0  0  0  3  0  0  0  0  0  0
  185.9680  178.7220  141.1390 C   0  0  0  0  0  0  0  0  0  0  0  0
  183.4470  178.7590  142.3840 C   0  0  0  0  0  0  0  0  0  0  0  0
  185.8610  178.5240  142.5190 C   0  0  0  0  0  3  0  0  0  0  0  0
  182.1600  178.7780  143.0200 N   0  0  0  0  0  0  0  0  0  0  0  0
  182.0680  178.6760  144.3680 O   0  0  0  0  0  1  0  0  0  0  0  0
  181.0220  178.7880  142.2790 O   0  0  0  0  0  0  0  0  0  0  0  0
  180.2800  179.8730  142.7540 C   0  0  0  0  0  1  0  0  0  0  0  0
  189.9650  176.7340  142.1980 C   0  0  0  0  0  2  0  0  0  0  0  0
  189.1960  176.6330  143.5100 C   0  0  0  0  0  2  0  0  0  0  0  0
  190.9880  177.2230  145.1490 C   0  0  0  0  0  3  0  0  0  0  0  0
  188.7370  177.7600  145.6760 C   0  0  0  0  0  0  0  0  0  0  0  0
  187.4040  178.1730  145.7060 C   0  0  0  0  0  3  0  0  0  0  0  0
  185.3740  178.5870  147.0060 N   0  0  0  0  0  1  0  0  0  0  0  0
  187.4070  177.7840  148.1130 C   0  0  0  0  0  3  0  0  0  0  0  0
  189.6600  177.6860  144.5100 C   0  0  2  0  0  3  0  0  0  0  0  0
  186.7340  178.1790  146.9400 C   0  0  0  0  0  0  0  0  0  0  0  0
  190.7350  177.0420  146.5780 N   0  0  0  0  0  0  0  0  0  0  0  0
  189.3880  177.3860  146.8180 C   0  0  0  0  0  0  0  0  0  0  0  0
  188.7520  177.3840  148.0590 C   0  0  0  0  0  3  0  0  0  0  0  0
  1  9  1  1  0  0  0
  1 21  1  0  0  0  0
  2  3  2  0  0  0  0
  3  1  1  0  0  0  0
  4  3  1  0  0  0  0
  5  6  2  0  0  0  0
  6  4  1  0  0  0  0
  7  8  1  0  0  0  0
  7  6  1  0  0  0  0
 10 14  1  0  0  0  0
 10  9  1  0  0  0  0
 11 12  2  0  0  0  0
 11 14  1  0  0  0  0
 12 15  1  0  0  0  0
 14 16  2  0  0  0  0
 15 17  1  0  0  0  0
 15 13  2  0  0  0  0
 16 13  1  0  0  0  0
 17 18  1  0  0  0  0
 19 20  1  0  0  0  0
 19 17  1  0  0  0  0
 21 22  1  0  0  0  0
 23 30  2  0  0  0  0
 24 25  2  0  0  0  0
 24 31  1  0  0  0  0
 25 29  1  0  0  0  0
 28 22  1  6  0  0  0
 28 23  1  0  0  0  0
 28 24  1  0  0  0  0
 29 26  1  0  0  0  0
 29 27  2  0  0  0  0
 30 31  1  0  0  0  0
 31 32  2  0  0  0  0
 32 27  1  0  0  0  0
M  END
>  <MODEL>
2

>  <REMARK>
 VINA RESULT:      -8.2      3.128      6.202
  Name = 
  11 active torsions:
  status: ('A' for Active; 'I' for Inactive)
    1  A    between atoms: O_7  and  C_12
    2  A    between atoms: O_7  and  C_19
    3  A    between atoms: C_9  and  C_13
    4  A    between atoms: N_11  and  O_24
    5  A    between atoms: N_11  and  C_26
    6  A    between atoms: C_12  and  C_13
    7  A    between atoms: C_13  and  C_18
    8  A    between atoms: C_15  and  C_16
    9  A    between atoms: C_15  and  C_18
   10  A    between atoms: N_17  and  CA_31
   11  A    between atoms: C_25  and  CA_31
                            x       y       z     vdW  Elec       q    Type
                         _______ _______ _______ _____ _____    ______ ____

>  <TORSDO>
F 11

$$$$
=
 OpenBabel10232408173D

 32 34  0  0  1  0  0  0  0  0999 V2000
  189.0050  177.1410  141.2010 C   0  0  2  0  0  3  0  0  0  0  0  0
  190.7180  177.6130  139.6250 O   0  0  0  0  0  0  0  0  0  0  0  0
  189.5160  177.2820  139.8040 C   0  0  0  0  0  0  0  0  0  0  0  0
  188.6430  177.0350  138.6910 N   0  0  0  0  0  2  0  0  0  0  0  0
  189.1800  175.9320  136.6080 C   0  0  0  0  0  2  0  0  0  0  0  0
  188.9920  177.0510  137.2990 C   0  0  0  0  0  0  0  0  0  0  0  0
  188.9900  178.3490  136.5730 C   0  0  0  0  0  2  0  0  0  0  0  0
  188.2730  179.2970  137.3030 O   0  0  0  0  0  1  0  0  0  0  0  0
  188.3280  178.4260  141.6760 C   0  0  0  0  0  2  0  0  0  0  0  0
  187.2560  178.7850  140.8100 O   0  0  0  0  0  0  0  0  0  0  0  0
  184.8680  178.9490  140.3140 C   0  0  0  0  0  3  0  0  0  0  0  0
  183.5440  178.9600  140.7630 C   0  0  0  0  0  3  0  0  0  0  0  0
  184.3150  178.6720  143.0380 C   0  0  0  0  0  3  0  0  0  0  0  0
  185.9230  178.7990  141.2260 C   0  0  0  0  0  0  0  0  0  0  0  0
  183.2590  178.8210  142.1280 C   0  0  0  0  0  0  0  0  0  0  0  0
  185.6390  178.6600  142.5880 C   0  0  0  0  0  3  0  0  0  0  0  0
  181.8990  178.8340  142.5890 N   0  0  0  0  0  0  0  0  0  0  0  0
  180.8880  179.0560  141.7140 O   0  0  0  0  0  1  0  0  0  0  0  0
  181.6170  178.7350  143.9130 O   0  0  0  0  0  0  0  0  0  0  0  0
  180.2620  178.3990  143.9790 C   0  0  0  0  0  1  0  0  0  0  0  0
  190.1150  176.6970  142.1490 C   0  0  0  0  0  2  0  0  0  0  0  0
  189.5750  176.4220  143.5460 C   0  0  0  0  0  2  0  0  0  0  0  0
  191.2850  177.0810  145.2450 C   0  0  0  0  0  3  0  0  0  0  0  0
  189.0110  177.6260  145.6450 C   0  0  0  0  0  0  0  0  0  0  0  0
  187.6760  178.0330  145.5970 C   0  0  0  0  0  3  0  0  0  0  0  0
  185.5850  178.4850  146.7840 N   0  0  0  0  0  1  0  0  0  0  0  0
  187.5660  177.7330  148.0150 C   0  0  0  0  0  3  0  0  0  0  0  0
  189.9870  177.5140  144.5280 C   0  0  2  0  0  3  0  0  0  0  0  0
  186.9490  178.0810  146.7980 C   0  0  0  0  0  0  0  0  0  0  0  0
  190.9650  176.9520  146.6660 N   0  0  0  0  0  0  0  0  0  0  0  0
  189.6070  177.2970  146.8300 C   0  0  0  0  0  0  0  0  0  0  0  0
  188.9140  177.3380  148.0390 C   0  0  0  0  0  3  0  0  0  0  0  0
  1  9  1  1  0  0  0
  1 21  1  0  0  0  0
  2  3  2  0  0  0  0
  3  1  1  0  0  0  0
  4  3  1  0  0  0  0
  5  6  2  0  0  0  0
  6  4  1  0  0  0  0
  7  6  1  0  0  0  0
  7  8  1  0  0  0  0
 10 14  1  0  0  0  0
 10  9  1  0  0  0  0
 11 12  2  0  0  0  0
 11 14  1  0  0  0  0
 12 15  1  0  0  0  0
 14 16  2  0  0  0  0
 15 17  1  0  0  0  0
 15 13  2  0  0  0  0
 16 13  1  0  0  0  0
 17 19  1  0  0  0  0
 18 17  1  0  0  0  0
 19 20  1  0  0  0  0
 21 22  1  0  0  0  0
 23 30  2  0  0  0  0
 24 31  1  0  0  0  0
 25 24  2  0  0  0  0
 25 29  1  0  0  0  0
 26 29  1  0  0  0  0
 27 32  1  0  0  0  0
 28 22  1  6  0  0  0
 28 23  1  0  0  0  0
 28 24  1  0  0  0  0
 29 27  2  0  0  0  0
 30 31  1  0  0  0  0
 31 32  2  0  0  0  0
M  END
>  <MODEL>
3

>  <REMARK>
 VINA RESULT:      -7.9      2.811      6.132
  Name = 
  11 active torsions:
  status: ('A' for Active; 'I' for Inactive)
    1  A    between atoms: O_7  and  C_12
    2  A    between atoms: O_7  and  C_19
    3  A    between atoms: C_9  and  C_13
    4  A    between atoms: N_11  and  O_24
    5  A    between atoms: N_11  and  C_26
    6  A    between atoms: C_12  and  C_13
    7  A    between atoms: C_13  and  C_18
    8  A    between atoms: C_15  and  C_16
    9  A    between atoms: C_15  and  C_18
   10  A    between atoms: N_17  and  CA_31
   11  A    between atoms: C_25  and  CA_31
                            x       y       z     vdW  Elec       q    Type
                         _______ _______ _______ _____ _____    ______ ____

>  <TORSDO>
F 11

$$$$
=
 OpenBabel10232408173D

 32 34  0  0  1  0  0  0  0  0999 V2000
  185.3760  179.2180  141.7710 C   0  0  2  0  0  3  0  0  0  0  0  0
  184.5470  179.9140  139.6570 O   0  0  0  0  0  0  0  0  0  0  0  0
  184.5480  179.0200  140.5430 C   0  0  0  0  0  0  0  0  0  0  0  0
  183.7720  177.8220  140.3850 N   0  0  0  0  0  2  0  0  0  0  0  0
  183.5290  176.8460  138.1870 C   0  0  0  0  0  2  0  0  0  0  0  0
  182.9890  177.4440  139.2440 C   0  0  0  0  0  0  0  0  0  0  0  0
  181.5100  177.5820  139.3100 C   0  0  0  0  0  2  0  0  0  0  0  0
  181.0750  177.3790  140.6190 O   0  0  0  0  0  1  0  0  0  0  0  0
  186.8310  178.8210  141.5290 C   0  0  0  0  0  2  0  0  0  0  0  0
  187.0980  178.6950  140.1360 O   0  0  0  0  0  0  0  0  0  0  0  0
  188.3860  177.7810  138.2690 C   0  0  0  0  0  3  0  0  0  0  0  0
  189.5200  177.1080  137.8060 C   0  0  0  0  0  3  0  0  0  0  0  0
  190.3320  176.9160  140.0770 C   0  0  0  0  0  3  0  0  0  0  0  0
  188.2200  178.0260  139.6410 C   0  0  0  0  0  0  0  0  0  0  0  0
  190.5010  176.6710  138.7070 C   0  0  0  0  0  0  0  0  0  0  0  0
  189.1980  177.5910  140.5400 C   0  0  0  0  0  3  0  0  0  0  0  0
  191.6640  175.9780  138.2300 N   0  0  0  0  0  0  0  0  0  0  0  0
  191.6320  174.6330  138.0650 O   0  0  0  0  0  1  0  0  0  0  0  0
  192.8360  176.6390  138.0470 O   0  0  0  0  0  0  0  0  0  0  0  0
  193.7420  175.6710  137.6020 C   0  0  0  0  0  1  0  0  0  0  0  0
  184.7740  178.4810  142.9630 C   0  0  0  0  0  2  0  0  0  0  0  0
  185.2970  179.0360  144.2820 C   0  0  0  0  0  2  0  0  0  0  0  0
  185.2290  178.4130  146.7010 C   0  0  0  0  0  3  0  0  0  0  0  0
  187.0470  177.6550  145.3780 C   0  0  0  0  0  0  0  0  0  0  0  0
  187.9050  177.1410  144.4040 C   0  0  0  0  0  3  0  0  0  0  0  0
  190.1600  176.4400  143.7650 N   0  0  0  0  0  1  0  0  0  0  0  0
  189.7200  177.2730  146.0280 C   0  0  0  0  0  3  0  0  0  0  0  0
  185.5860  177.9210  145.2800 C   0  0  2  0  0  3  0  0  0  0  0  0
  189.2570  176.9540  144.7360 C   0  0  0  0  0  0  0  0  0  0  0  0
  186.4700  178.4220  147.4750 N   0  0  0  0  0  0  0  0  0  0  0  0
  187.5000  177.9540  146.6320 C   0  0  0  0  0  0  0  0  0  0  0  0
  188.8350  177.7760  146.9940 C   0  0  0  0  0  3  0  0  0  0  0  0
  1  9  1  6  0  0  0
  1 21  1  0  0  0  0
  2  3  2  0  0  0  0
  3  1  1  0  0  0  0
  4  3  1  0  0  0  0
  5  6  2  0  0  0  0
  6  7  1  0  0  0  0
  6  4  1  0  0  0  0
  7  8  1  0  0  0  0
 10  9  1  0  0  0  0
 11 14  1  0  0  0  0
 12 11  2  0  0  0  0
 12 15  1  0  0  0  0
 13 16  1  0  0  0  0
 14 10  1  0  0  0  0
 14 16  2  0  0  0  0
 15 13  2  0  0  0  0
 17 15  1  0  0  0  0
 18 17  1  0  0  0  0
 19 17  1  0  0  0  0
 20 19  1  0  0  0  0
 21 22  1  0  0  0  0
 23 30  2  0  0  0  0
 24 31  1  0  0  0  0
 25 29  1  0  0  0  0
 25 24  2  0  0  0  0
 26 29  1  0  0  0  0
 27 32  1  0  0  0  0
 28 22  1  6  0  0  0
 28 24  1  0  0  0  0
 28 23  1  0  0  0  0
 29 27  2  0  0  0  0
 31 32  2  0  0  0  0
 31 30  1  0  0  0  0
M  END
>  <MODEL>
4

>  <REMARK>
 VINA RESULT:      -7.8      3.113      5.608
  Name = 
  11 active torsions:
  status: ('A' for Active; 'I' for Inactive)
    1  A    between atoms: O_7  and  C_12
    2  A    between atoms: O_7  and  C_19
    3  A    between atoms: C_9  and  C_13
    4  A    between atoms: N_11  and  O_24
    5  A    between atoms: N_11  and  C_26
    6  A    between atoms: C_12  and  C_13
    7  A    between atoms: C_13  and  C_18
    8  A    between atoms: C_15  and  C_16
    9  A    between atoms: C_15  and  C_18
   10  A    between atoms: N_17  and  CA_31
   11  A    between atoms: C_25  and  CA_31
                            x       y       z     vdW  Elec       q    Type
                         _______ _______ _______ _____ _____    ______ ____

>  <TORSDO>
F 11

$$$$
=
 OpenBabel10232408173D

 32 34  0  0  1  0  0  0  0  0999 V2000
  184.9360  179.0640  141.5220 C   0  0  2  0  0  3  0  0  0  0  0  0
  183.4270  179.4140  139.7200 O   0  0  0  0  0  0  0  0  0  0  0  0
  183.5630  179.1000  140.9330 C   0  0  0  0  0  0  0  0  0  0  0  0
  182.4240  178.7760  141.7450 N   0  0  0  0  0  2  0  0  0  0  0  0
  180.5870  177.6300  140.6690 C   0  0  0  0  0  2  0  0  0  0  0  0
  181.0560  178.6900  141.3190 C   0  0  0  0  0  0  0  0  0  0  0  0
  180.1010  179.7440  141.7530 C   0  0  0  0  0  2  0  0  0  0  0  0
  180.5330  180.3080  142.9520 O   0  0  0  0  0  1  0  0  0  0  0  0
  185.9890  178.7600  140.4570 C   0  0  0  0  0  2  0  0  0  0  0  0
  187.2900  178.7070  141.0320 O   0  0  0  0  0  0  0  0  0  0  0  0
  189.4040  177.4890  141.1900 C   0  0  0  0  0  3  0  0  0  0  0  0
  190.4520  176.8110  140.5600 C   0  0  0  0  0  3  0  0  0  0  0  0
  189.4080  177.1970  138.4120 C   0  0  0  0  0  3  0  0  0  0  0  0
  188.3510  178.0240  140.4330 C   0  0  0  0  0  0  0  0  0  0  0  0
  190.4610  176.6610  139.1670 C   0  0  0  0  0  0  0  0  0  0  0  0
  188.3590  177.8730  139.0430 C   0  0  0  0  0  3  0  0  0  0  0  0
  191.5380  175.9660  138.5200 N   0  0  0  0  0  0  0  0  0  0  0  0
  192.6740  176.6300  138.1940 O   0  0  0  0  0  1  0  0  0  0  0  0
  191.3920  174.6740  138.1300 O   0  0  0  0  0  0  0  0  0  0  0  0
  192.4710  174.4200  137.2790 C   0  0  0  0  0  1  0  0  0  0  0  0
  185.0050  178.0840  142.6890 C   0  0  0  0  0  2  0  0  0  0  0  0
  185.5840  178.7430  143.9340 C   0  0  0  0  0  2  0  0  0  0  0  0
  185.1530  178.3010  146.3550 C   0  0  0  0  0  3  0  0  0  0  0  0
  187.2150  177.5960  145.4170 C   0  0  0  0  0  0  0  0  0  0  0  0
  188.2580  177.0820  144.6430 C   0  0  0  0  0  3  0  0  0  0  0  0
  190.6300  176.5210  144.4420 N   0  0  0  0  0  1  0  0  0  0  0  0
  189.7600  177.4840  146.5210 C   0  0  0  0  0  3  0  0  0  0  0  0
  185.7770  177.7340  145.0610 C   0  0  2  0  0  3  0  0  0  0  0  0
  189.5440  177.0320  145.2050 C   0  0  0  0  0  0  0  0  0  0  0  0
  186.2430  178.4700  147.3170 N   0  0  0  0  0  0  0  0  0  0  0  0
  187.4290  178.0250  146.6960 C   0  0  0  0  0  0  0  0  0  0  0  0
  188.6930  177.9850  147.2830 C   0  0  0  0  0  3  0  0  0  0  0  0
  1  9  1  6  0  0  0
  1 21  1  0  0  0  0
  2  3  2  0  0  0  0
  3  1  1  0  0  0  0
  3  4  1  0  0  0  0
  5  6  2  0  0  0  0
  6  4  1  0  0  0  0
  6  7  1  0  0  0  0
  7  8  1  0  0  0  0
  9 10  1  0  0  0  0
 12 11  1  0  0  0  0
 13 16  2  0  0  0  0
 13 15  1  0  0  0  0
 14 10  1  0  0  0  0
 14 11  2  0  0  0  0
 15 12  2  0  0  0  0
 16 14  1  0  0  0  0
 17 15  1  0  0  0  0
 18 17  1  0  0  0  0
 19 17  1  0  0  0  0
 20 19  1  0  0  0  0
 21 22  1  0  0  0  0
 23 30  2  0  0  0  0
 24 31  1  0  0  0  0
 25 29  1  0  0  0  0
 25 24  2  0  0  0  0
 26 29  1  0  0  0  0
 27 32  1  0  0  0  0
 28 22  1  6  0  0  0
 28 24  1  0  0  0  0
 28 23  1  0  0  0  0
 29 27  2  0  0  0  0
 31 32  2  0  0  0  0
 31 30  1  0  0  0  0
M  END
>  <MODEL>
5

>  <REMARK>
 VINA RESULT:      -7.5      3.056      6.134
  Name = 
  11 active torsions:
  status: ('A' for Active; 'I' for Inactive)
    1  A    between atoms: O_7  and  C_12
    2  A    between atoms: O_7  and  C_19
    3  A    between atoms: C_9  and  C_13
    4  A    between atoms: N_11  and  O_24
    5  A    between atoms: N_11  and  C_26
    6  A    between atoms: C_12  and  C_13
    7  A    between atoms: C_13  and  C_18
    8  A    between atoms: C_15  and  C_16
    9  A    between atoms: C_15  and  C_18
   10  A    between atoms: N_17  and  CA_31
   11  A    between atoms: C_25  and  CA_31
                            x       y       z     vdW  Elec       q    Type
                         _______ _______ _______ _____ _____    ______ ____

>  <TORSDO>
F 11

$$$$
=
 OpenBabel10232408173D

 32 34  0  0  1  0  0  0  0  0999 V2000
  184.9340  179.1740  139.9750 C   0  0  2  0  0  3  0  0  0  0  0  0
  183.8860  180.9790  138.8400 O   0  0  0  0  0  0  0  0  0  0  0  0
  183.8110  179.7720  139.1920 C   0  0  0  0  0  0  0  0  0  0  0  0
  182.6690  178.9720  138.8480 N   0  0  0  0  0  2  0  0  0  0  0  0
  181.3530  178.8790  136.8220 C   0  0  0  0  0  2  0  0  0  0  0  0
  181.5490  179.3660  138.0430 C   0  0  0  0  0  0  0  0  0  0  0  0
  180.4940  180.2220  138.6500 C   0  0  0  0  0  2  0  0  0  0  0  0
  180.6290  181.5320  138.1910 O   0  0  0  0  0  1  0  0  0  0  0  0
  185.8430  178.3280  139.0850 C   0  0  0  0  0  2  0  0  0  0  0  0
  187.1830  178.8060  139.1270 O   0  0  0  0  0  0  0  0  0  0  0  0
  189.1100  177.3760  139.6000 C   0  0  0  0  0  3  0  0  0  0  0  0
  190.0490  176.8870  140.5120 C   0  0  0  0  0  3  0  0  0  0  0  0
  189.0530  178.2330  142.2580 C   0  0  0  0  0  3  0  0  0  0  0  0
  188.1370  178.2980  140.0140 C   0  0  0  0  0  0  0  0  0  0  0  0
  190.0270  177.3120  141.8470 C   0  0  0  0  0  0  0  0  0  0  0  0
  188.1150  178.7230  141.3450 C   0  0  0  0  0  3  0  0  0  0  0  0
  190.9910  176.8070  142.7840 N   0  0  0  0  0  0  0  0  0  0  0  0
  190.9150  175.5230  143.2100 O   0  0  0  0  0  1  0  0  0  0  0  0
  191.9170  177.6330  143.3360 O   0  0  0  0  0  0  0  0  0  0  0  0
  191.6060  177.6810  144.6980 C   0  0  0  0  0  1  0  0  0  0  0  0
  184.4100  178.3850  141.1710 C   0  0  0  0  0  2  0  0  0  0  0  0
  185.0600  178.8450  142.4690 C   0  0  0  0  0  2  0  0  0  0  0  0
  183.3450  178.7810  144.2850 C   0  0  0  0  0  3  0  0  0  0  0  0
  185.5470  178.0390  144.7680 C   0  0  0  0  0  0  0  0  0  0  0  0
  186.8170  177.4600  144.7930 C   0  0  0  0  0  3  0  0  0  0  0  0
  188.8770  176.9950  146.0280 N   0  0  0  0  0  1  0  0  0  0  0  0
  187.0530  178.2370  147.0930 C   0  0  0  0  0  3  0  0  0  0  0  0
  184.5510  178.0440  143.6620 C   0  0  2  0  0  3  0  0  0  0  0  0
  187.5770  177.5670  145.9700 C   0  0  0  0  0  0  0  0  0  0  0  0
  183.7310  179.1590  145.6450 N   0  0  0  0  0  0  0  0  0  0  0  0
  185.0400  178.6800  145.8630 C   0  0  0  0  0  0  0  0  0  0  0  0
  185.7680  178.8010  147.0470 C   0  0  0  0  0  3  0  0  0  0  0  0
  1  9  1  6  0  0  0
  1 21  1  0  0  0  0
  2  3  2  0  0  0  0
  3  1  1  0  0  0  0
  4  3  1  0  0  0  0
  5  6  2  0  0  0  0
  6  7  1  0  0  0  0
  6  4  1  0  0  0  0
  8  7  1  0  0  0  0
  9 10  1  0  0  0  0
 10 14  1  0  0  0  0
 11 14  2  0  0  0  0
 11 12  1  0  0  0  0
 12 15  2  0  0  0  0
 14 16  1  0  0  0  0
 15 13  1  0  0  0  0
 15 17  1  0  0  0  0
 16 13  2  0  0  0  0
 17 18  1  0  0  0  0
 17 19  1  0  0  0  0
 19 20  1  0  0  0  0
 21 22  1  0  0  0  0
 23 30  2  0  0  0  0
 24 25  2  0  0  0  0
 24 31  1  0  0  0  0
 25 29  1  0  0  0  0
 28 22  1  6  0  0  0
 28 23  1  0  0  0  0
 28 24  1  0  0  0  0
 29 26  1  0  0  0  0
 29 27  2  0  0  0  0
 30 31  1  0  0  0  0
 31 32  2  0  0  0  0
 32 27  1  0  0  0  0
M  END
>  <MODEL>
6

>  <REMARK>
 VINA RESULT:      -7.5      2.967      4.328
  Name = 
  11 active torsions:
  status: ('A' for Active; 'I' for Inactive)
    1  A    between atoms: O_7  and  C_12
    2  A    between atoms: O_7  and  C_19
    3  A    between atoms: C_9  and  C_13
    4  A    between atoms: N_11  and  O_24
    5  A    between atoms: N_11  and  C_26
    6  A    between atoms: C_12  and  C_13
    7  A    between atoms: C_13  and  C_18
    8  A    between atoms: C_15  and  C_16
    9  A    between atoms: C_15  and  C_18
   10  A    between atoms: N_17  and  CA_31
   11  A    between atoms: C_25  and  CA_31
                            x       y       z     vdW  Elec       q    Type
                         _______ _______ _______ _____ _____    ______ ____

>  <TORSDO>
F 11

$$$$
=
 OpenBabel10232408173D

 32 34  0  0  1  0  0  0  0  0999 V2000
  188.7440  176.8320  143.5060 C   0  0  2  0  0  3  0  0  0  0  0  0
  189.9270  178.5890  144.5820 O   0  0  0  0  0  0  0  0  0  0  0  0
  189.3590  177.4720  144.7080 C   0  0  0  0  0  0  0  0  0  0  0  0
  189.2930  176.8170  145.9840 N   0  0  0  0  0  2  0  0  0  0  0  0
  188.9800  178.0330  148.0500 C   0  0  0  0  0  2  0  0  0  0  0  0
  189.7620  177.3250  147.2420 C   0  0  0  0  0  0  0  0  0  0  0  0
  191.1080  176.9180  147.7240 C   0  0  0  0  0  2  0  0  0  0  0  0
  191.9850  176.8180  146.6450 O   0  0  0  0  0  1  0  0  0  0  0  0
  189.7700  176.6460  142.3900 C   0  0  0  0  0  2  0  0  0  0  0  0
  189.5890  177.6180  141.3660 O   0  0  0  0  0  0  0  0  0  0  0  0
  191.0300  176.7920  139.5720 C   0  0  0  0  0  3  0  0  0  0  0  0
  191.2280  176.5290  138.2130 C   0  0  0  0  0  3  0  0  0  0  0  0
  189.0100  177.3660  137.7290 C   0  0  0  0  0  3  0  0  0  0  0  0
  189.8180  177.3430  140.0160 C   0  0  0  0  0  0  0  0  0  0  0  0
  190.2200  176.8150  137.2830 C   0  0  0  0  0  0  0  0  0  0  0  0
  188.8120  177.6280  139.0880 C   0  0  0  0  0  3  0  0  0  0  0  0
  190.4250  176.5470  135.8870 N   0  0  0  0  0  0  0  0  0  0  0  0
  189.6110  177.1110  134.9610 O   0  0  0  0  0  1  0  0  0  0  0  0
  191.3580  175.6460  135.4860 O   0  0  0  0  0  0  0  0  0  0  0  0
  190.7190  174.4040  135.5360 C   0  0  0  0  0  1  0  0  0  0  0  0
  187.5220  177.6140  143.0340 C   0  0  0  0  0  2  0  0  0  0  0  0
  186.3940  177.5540  144.0560 C   0  0  0  0  0  2  0  0  0  0  0  0
  185.1970  179.1140  145.5980 C   0  0  0  0  0  3  0  0  0  0  0  0
  184.3540  178.8120  143.4000 C   0  0  0  0  0  0  0  0  0  0  0  0
  184.1430  178.6630  142.0280 C   0  0  0  0  0  3  0  0  0  0  0  0
  182.5690  178.4900  140.1630 N   0  0  0  0  0  1  0  0  0  0  0  0
  181.7450  178.7900  142.4520 C   0  0  0  0  0  3  0  0  0  0  0  0
  185.6450  178.8800  144.1380 C   0  0  2  0  0  3  0  0  0  0  0  0
  182.8210  178.6470  141.5540 C   0  0  0  0  0  0  0  0  0  0  0  0
  183.7350  179.1340  145.5980 N   0  0  0  0  0  0  0  0  0  0  0  0
  183.3070  178.9580  144.2650 C   0  0  0  0  0  0  0  0  0  0  0  0
  181.9840  178.9510  143.8260 C   0  0  0  0  0  3  0  0  0  0  0  0
  1  9  1  6  0  0  0
  1  3  1  0  0  0  0
  2  3  2  0  0  0  0
  3  4  1  0  0  0  0
  4  6  1  0  0  0  0
  6  7  1  0  0  0  0
  6  5  2  0  0  0  0
  8  7  1  0  0  0  0
 10  9  1  0  0  0  0
 11 14  1  0  0  0  0
 12 11  2  0  0  0  0
 13 16  1  0  0  0  0
 14 10  1  0  0  0  0
 15 13  2  0  0  0  0
 15 12  1  0  0  0  0
 16 14  2  0  0  0  0
 17 15  1  0  0  0  0
 18 17  1  0  0  0  0
 19 20  1  0  0  0  0
 19 17  1  0  0  0  0
 21  1  1  0  0  0  0
 21 22  1  0  0  0  0
 23 30  2  0  0  0  0
 24 28  1  0  0  0  0
 24 31  1  0  0  0  0
 25 24  2  0  0  0  0
 26 29  1  0  0  0  0
 27 32  1  0  0  0  0
 28 22  1  1  0  0  0
 28 23  1  0  0  0  0
 29 25  1  0  0  0  0
 29 27  2  0  0  0  0
 31 30  1  0  0  0  0
 32 31  2  0  0  0  0
M  END
>  <MODEL>
7

>  <REMARK>
 VINA RESULT:      -7.5      2.193      7.455
  Name = 
  11 active torsions:
  status: ('A' for Active; 'I' for Inactive)
    1  A    between atoms: O_7  and  C_12
    2  A    between atoms: O_7  and  C_19
    3  A    between atoms: C_9  and  C_13
    4  A    between atoms: N_11  and  O_24
    5  A    between atoms: N_11  and  C_26
    6  A    between atoms: C_12  and  C_13
    7  A    between atoms: C_13  and  C_18
    8  A    between atoms: C_15  and  C_16
    9  A    between atoms: C_15  and  C_18
   10  A    between atoms: N_17  and  CA_31
   11  A    between atoms: C_25  and  CA_31
                            x       y       z     vdW  Elec       q    Type
                         _______ _______ _______ _____ _____    ______ ____

>  <TORSDO>
F 11

$$$$
=
 OpenBabel10232408173D

 32 34  0  0  1  0  0  0  0  0999 V2000
  188.8950  177.2950  140.5730 C   0  0  2  0  0  3  0  0  0  0  0  0
  190.0430  178.1980  138.7000 O   0  0  0  0  0  0  0  0  0  0  0  0
  189.8650  177.1960  139.4410 C   0  0  0  0  0  0  0  0  0  0  0  0
  190.5830  175.9720  139.2160 N   0  0  0  0  0  2  0  0  0  0  0  0
  191.3050  175.2880  137.0120 C   0  0  0  0  0  2  0  0  0  0  0  0
  191.5970  175.7360  138.2290 C   0  0  0  0  0  0  0  0  0  0  0  0
  192.9960  176.1490  138.5220 C   0  0  0  0  0  2  0  0  0  0  0  0
  193.4920  176.9140  137.4680 O   0  0  0  0  0  1  0  0  0  0  0  0
  188.0610  178.5720  140.4790 C   0  0  0  0  0  2  0  0  0  0  0  0
  187.0160  178.4260  139.5220 O   0  0  0  0  0  0  0  0  0  0  0  0
  184.6660  178.5980  138.8710 C   0  0  0  0  0  3  0  0  0  0  0  0
  183.3240  178.7330  139.2370 C   0  0  0  0  0  3  0  0  0  0  0  0
  183.9660  178.7950  141.5680 C   0  0  0  0  0  3  0  0  0  0  0  0
  185.6660  178.5590  139.8540 C   0  0  0  0  0  0  0  0  0  0  0  0
  182.9650  178.8330  140.5870 C   0  0  0  0  0  0  0  0  0  0  0  0
  185.3080  178.6580  141.2020 C   0  0  0  0  0  3  0  0  0  0  0  0
  181.5860  178.9740  140.9620 N   0  0  0  0  0  0  0  0  0  0  0  0
  180.7620  179.7650  140.2320 O   0  0  0  0  0  1  0  0  0  0  0  0
  181.1200  178.4110  142.1060 O   0  0  0  0  0  0  0  0  0  0  0  0
  180.5040  179.4520  142.8070 C   0  0  0  0  0  1  0  0  0  0  0  0
  189.6070  177.1770  141.9170 C   0  0  0  0  0  2  0  0  0  0  0  0
  188.8730  177.9510  143.0050 C   0  0  0  0  0  2  0  0  0  0  0  0
  186.7300  177.4280  144.1780 C   0  0  0  0  0  3  0  0  0  0  0  0
  188.7690  177.1990  145.3710 C   0  0  0  0  0  0  0  0  0  0  0  0
  190.0610  176.9290  145.8250 C   0  0  0  0  0  3  0  0  0  0  0  0
  191.6650  176.9110  147.6720 N   0  0  0  0  0  1  0  0  0  0  0  0
  189.3620  177.6590  148.0440 C   0  0  0  0  0  3  0  0  0  0  0  0
  188.2080  177.0120  144.0050 C   0  0  2  0  0  3  0  0  0  0  0  0
  190.3570  177.1690  147.1770 C   0  0  0  0  0  0  0  0  0  0  0  0
  186.5620  177.8370  145.5730 N   0  0  0  0  0  0  0  0  0  0  0  0
  187.8040  177.6670  146.2180 C   0  0  0  0  0  0  0  0  0  0  0  0
  188.0660  177.9110  147.5660 C   0  0  0  0  0  3  0  0  0  0  0  0
  1  9  1  1  0  0  0
  1 21  1  0  0  0  0
  2  3  2  0  0  0  0
  3  1  1  0  0  0  0
  4  3  1  0  0  0  0
  5  6  2  0  0  0  0
  6  7  1  0  0  0  0
  6  4  1  0  0  0  0
  8  7  1  0  0  0  0
 10 14  1  0  0  0  0
 10  9  1  0  0  0  0
 11 12  2  0  0  0  0
 11 14  1  0  0  0  0
 12 15  1  0  0  0  0
 14 16  2  0  0  0  0
 15 17  1  0  0  0  0
 15 13  2  0  0  0  0
 16 13  1  0  0  0  0
 17 19  1  0  0  0  0
 18 17  1  0  0  0  0
 19 20  1  0  0  0  0
 21 22  1  0  0  0  0
 23 30  2  0  0  0  0
 24 25  2  0  0  0  0
 24 31  1  0  0  0  0
 25 29  1  0  0  0  0
 28 22  1  6  0  0  0
 28 23  1  0  0  0  0
 28 24  1  0  0  0  0
 29 26  1  0  0  0  0
 29 27  2  0  0  0  0
 30 31  1  0  0  0  0
 31 32  2  0  0  0  0
 32 27  1  0  0  0  0
M  END
>  <MODEL>
8

>  <REMARK>
 VINA RESULT:      -7.2      3.158      6.500
  Name = 
  11 active torsions:
  status: ('A' for Active; 'I' for Inactive)
    1  A    between atoms: O_7  and  C_12
    2  A    between atoms: O_7  and  C_19
    3  A    between atoms: C_9  and  C_13
    4  A    between atoms: N_11  and  O_24
    5  A    between atoms: N_11  and  C_26
    6  A    between atoms: C_12  and  C_13
    7  A    between atoms: C_13  and  C_18
    8  A    between atoms: C_15  and  C_16
    9  A    between atoms: C_15  and  C_18
   10  A    between atoms: N_17  and  CA_31
   11  A    between atoms: C_25  and  CA_31
                            x       y       z     vdW  Elec       q    Type
                         _______ _______ _______ _____ _____    ______ ____

>  <TORSDO>
F 11

$$$$
=
 OpenBabel10232408173D

 32 34  0  0  1  0  0  0  0  0999 V2000
  189.4200  177.7130  142.8570 C   0  0  2  0  0  3  0  0  0  0  0  0
  190.6560  178.8300  144.5510 O   0  0  0  0  0  0  0  0  0  0  0  0
  189.8870  177.8730  144.2680 C   0  0  0  0  0  0  0  0  0  0  0  0
  189.4550  176.9480  145.2770 N   0  0  0  0  0  2  0  0  0  0  0  0
  188.9850  177.6820  147.5320 C   0  0  0  0  0  2  0  0  0  0  0  0
  189.7470  177.0030  146.6810 C   0  0  0  0  0  0  0  0  0  0  0  0
  190.8400  176.1510  147.2220 C   0  0  0  0  0  2  0  0  0  0  0  0
  191.9790  176.9260  147.4380 O   0  0  0  0  0  1  0  0  0  0  0  0
  187.9470  177.3130  142.8020 C   0  0  0  0  0  2  0  0  0  0  0  0
  187.1720  178.1060  143.6960 O   0  0  0  0  0  0  0  0  0  0  0  0
  185.2290  178.3490  142.2320 C   0  0  0  0  0  3  0  0  0  0  0  0
  183.8590  178.5830  142.0810 C   0  0  0  0  0  3  0  0  0  0  0  0
  183.6310  178.7930  144.4800 C   0  0  0  0  0  3  0  0  0  0  0  0
  185.8070  178.3360  143.5110 C   0  0  0  0  0  0  0  0  0  0  0  0
  183.0510  178.8070  143.2030 C   0  0  0  0  0  0  0  0  0  0  0  0
  185.0010  178.5580  144.6310 C   0  0  0  0  0  3  0  0  0  0  0  0
  181.6450  179.0490  143.0470 N   0  0  0  0  0  0  0  0  0  0  0  0
  180.8070  178.8810  144.0990 O   0  0  0  0  0  1  0  0  0  0  0  0
  181.1240  179.3380  141.8270 O   0  0  0  0  0  0  0  0  0  0  0  0
  180.7290  178.1080  141.2920 C   0  0  0  0  0  1  0  0  0  0  0  0
  190.3060  176.7320  142.0950 C   0  0  0  0  0  2  0  0  0  0  0  0
  190.7600  177.3140  140.7620 C   0  0  0  0  0  2  0  0  0  0  0  0
  191.4220  176.2640  138.5930 C   0  0  0  0  0  3  0  0  0  0  0  0
  189.2620  177.2290  138.7820 C   0  0  0  0  0  0  0  0  0  0  0  0
  187.9850  177.6540  139.1530 C   0  0  0  0  0  3  0  0  0  0  0  0
  185.9040  178.7900  138.5500 N   0  0  0  0  0  1  0  0  0  0  0  0
  187.7110  178.5710  136.9100 C   0  0  0  0  0  3  0  0  0  0  0  0
  190.2610  176.4770  139.5900 C   0  0  2  0  0  3  0  0  0  0  0  0
  187.2070  178.3370  138.2040 C   0  0  0  0  0  0  0  0  0  0  0  0
  191.0340  176.9110  137.3400 N   0  0  0  0  0  0  0  0  0  0  0  0
  189.7440  177.4520  137.5230 C   0  0  0  0  0  0  0  0  0  0  0  0
  188.9940  178.1230  136.5570 C   0  0  0  0  0  3  0  0  0  0  0  0
  1 21  1  1  0  0  0
  1  3  1  0  0  0  0
  3  2  2  0  0  0  0
  3  4  1  0  0  0  0
  4  6  1  0  0  0  0
  6  7  1  0  0  0  0
  6  5  2  0  0  0  0
  7  8  1  0  0  0  0
  9  1  1  0  0  0  0
  9 10  1  0  0  0  0
 11 14  1  0  0  0  0
 12 11  2  0  0  0  0
 12 15  1  0  0  0  0
 13 16  1  0  0  0  0
 14 10  1  0  0  0  0
 14 16  2  0  0  0  0
 15 13  2  0  0  0  0
 17 15  1  0  0  0  0
 17 18  1  0  0  0  0
 19 17  1  0  0  0  0
 20 19  1  0  0  0  0
 22 21  1  0  0  0  0
 23 28  1  0  0  0  0
 24 25  1  0  0  0  0
 24 28  1  0  0  0  0
 27 29  1  0  0  0  0
 28 22  1  1  0  0  0
 29 26  1  0  0  0  0
 29 25  2  0  0  0  0
 30 31  1  0  0  0  0
 30 23  2  0  0  0  0
 31 24  2  0  0  0  0
 32 27  2  0  0  0  0
 32 31  1  0  0  0  0
M  END
>  <MODEL>
9

>  <REMARK>
 VINA RESULT:      -7.2      3.074      8.623
  Name = 
  11 active torsions:
  status: ('A' for Active; 'I' for Inactive)
    1  A    between atoms: O_7  and  C_12
    2  A    between atoms: O_7  and  C_19
    3  A    between atoms: C_9  and  C_13
    4  A    between atoms: N_11  and  O_24
    5  A    between atoms: N_11  and  C_26
    6  A    between atoms: C_12  and  C_13
    7  A    between atoms: C_13  and  C_18
    8  A    between atoms: C_15  and  C_16
    9  A    between atoms: C_15  and  C_18
   10  A    between atoms: N_17  and  CA_31
   11  A    between atoms: C_25  and  CA_31
                            x       y       z     vdW  Elec       q    Type
                         _______ _______ _______ _____ _____    ______ ____

>  <TORSDO>
F 11

$$$$
