=
 OpenBabel10232409543D

 34 37  0  0  1  0  0  0  0  0999 V2000
  182.7810  178.7520  137.9200 N   0  0  0  0  0  0  0  0  0  0  0  0
  184.7560  178.9900  139.4990 C   0  0  1  0  0  3  0  0  0  0  0  0
  185.4720  177.8970  138.6690 C   0  0  1  0  0  3  0  0  0  0  0  0
  183.2110  180.7560  139.0420 O   0  0  0  0  0  0  0  0  0  0  0  0
  184.7060  177.3410  137.4570 C   0  0  2  0  0  3  0  0  0  0  0  0
  183.5450  179.5640  138.8190 C   0  0  0  0  0  0  0  0  0  0  0  0
  183.2010  177.3770  137.6920 C   0  0  0  0  0  2  0  0  0  0  0  0
  187.0500  179.0250  137.0830 N   0  0  0  0  0  0  0  0  0  0  0  0
  186.8040  178.3400  138.2800 N   0  0  0  0  0  0  0  0  0  0  0  0
  189.1070  178.5590  138.1380 C   0  0  1  0  0  3  0  0  0  0  0  0
  188.4520  179.2750  137.0340 N   0  0  0  0  0  0  0  0  0  0  0  0
  188.0940  177.4770  140.0600 O   0  0  0  0  0  0  0  0  0  0  0  0
  188.0030  178.0490  138.9360 C   0  0  0  0  0  0  0  0  0  0  0  0
  189.8700  176.8070  136.3670 C   0  0  0  0  0  0  0  0  0  0  0  0
  191.5010  175.8660  137.3910 N   0  0  0  0  0  0  0  0  0  0  0  0
  189.9430  177.4350  137.5980 C   0  0  0  0  0  0  0  0  0  0  0  0
  191.5130  177.0950  139.5940 C   0  0  0  0  0  1  0  0  0  0  0  0
  191.0010  176.8050  138.2220 C   0  0  0  0  0  0  0  0  0  0  0  0
  189.0480  177.0730  135.4530 O   0  0  0  0  0  0  0  0  0  0  0  0
  190.8190  175.8550  136.2580 N   0  0  0  0  0  2  0  0  0  0  0  0
  192.6210  174.9780  137.6670 C   0  0  0  0  0  1  0  0  0  0  0  0
  184.4060  175.3590  136.1560 O   0  0  0  0  0  1  0  0  0  0  0  0
  185.1510  175.9120  137.1990 C   0  0  0  0  0  2  0  0  0  0  0  0
  183.5000  177.6870  141.0380 O   0  0  0  0  0  0  0  0  0  0  0  0
  184.4070  178.4950  140.8810 C   0  0  0  0  0  0  0  0  0  0  0  0
  185.0670  179.1010  142.0850 C   0  0  1  0  0  3  0  0  0  0  0  0
  184.6410  178.4170  143.3090 C   0  0  1  0  0  3  0  0  0  0  0  0
  185.9560  178.1160  142.7270 N   0  0  0  0  0  2  0  0  0  0  0  0
  184.9670  178.5130  145.7690 C   0  0  0  0  0  1  0  0  0  0  0  0
  184.8370  179.3350  144.5040 C   0  0  0  0  0  2  0  0  0  0  0  0
  181.6800  179.3160  137.1450 C   0  0  0  0  0  2  0  0  0  0  0  0
  179.9860  177.8030  136.1510 C   0  0  0  0  0  1  0  0  0  0  0  0
  181.3430  179.2350  134.6690 C   0  0  0  0  0  1  0  0  0  0  0  0
  181.3490  178.4310  135.9520 C   0  0  0  0  0  3  0  0  0  0  0  0
  1  6  1  0  0  0  0
  2 25  1  1  0  0  0
  3  9  1  6  0  0  0
  3  2  1  0  0  0  0
  5 23  1  1  0  0  0
  5  7  1  0  0  0  0
  5  3  1  0  0  0  0
  6  4  2  0  0  0  0
  6  2  1  0  0  0  0
  7  1  1  0  0  0  0
  8  9  1  0  0  0  0
  9 13  1  0  0  0  0
 10 16  1  6  0  0  0
 10 13  1  0  0  0  0
 11  8  2  0  0  0  0
 11 10  1  0  0  0  0
 13 12  2  0  0  0  0
 14 16  1  0  0  0  0
 15 21  1  0  0  0  0
 15 18  1  0  0  0  0
 16 18  2  0  0  0  0
 18 17  1  0  0  0  0
 19 14  2  0  0  0  0
 20 14  1  0  0  0  0
 20 15  1  0  0  0  0
 22 23  1  0  0  0  0
 25 24  2  0  0  0  0
 26 25  1  6  0  0  0
 26 28  1  0  0  0  0
 26 27  1  0  0  0  0
 27 30  1  1  0  0  0
 28 27  1  0  0  0  0
 30 29  1  0  0  0  0
 31  1  1  0  0  0  0
 33 34  1  0  0  0  0
 34 32  1  0  0  0  0
 34 31  1  0  0  0  0
M  END
>  <MODEL>
1

>  <REMARK>
 VINA RESULT:      -6.5      0.000      0.000
  Name = 
  8 active torsions:
  status: ('A' for Active; 'I' for Inactive)
    1  A    between atoms: C_1  and  C_18
    2  A    between atoms: C_2  and  N_3
    3  A    between atoms: C_2  and  C_28
    4  A    between atoms: C_8  and  C_13
    5  A    between atoms: N_10  and  C_20
    6  A    between atoms: C_14  and  C_18
    7  A    between atoms: C_19  and  C_31
    8  A    between atoms: C_27  and  C_34
                            x       y       z     vdW  Elec       q    Type
                         _______ _______ _______ _____ _____    ______ ____

>  <TORSDO>
F 8

$$$$
=
 OpenBabel10232409543D

 34 37  0  0  1  0  0  0  0  0999 V2000
  188.7720  173.9210  135.4530 N   0  0  0  0  0  0  0  0  0  0  0  0
  190.2810  175.5430  136.6930 C   0  0  1  0  0  3  0  0  0  0  0  0
  189.3790  176.6870  136.1700 C   0  0  1  0  0  3  0  0  0  0  0  0
  189.9590  173.2700  137.3570 O   0  0  0  0  0  0  0  0  0  0  0  0
  188.1740  176.2740  135.3070 C   0  0  2  0  0  3  0  0  0  0  0  0
  189.6730  174.1790  136.5340 C   0  0  0  0  0  0  0  0  0  0  0  0
  188.4690  175.0000  134.5230 C   0  0  0  0  0  2  0  0  0  0  0  0
  189.5180  178.8110  137.4910 N   0  0  0  0  0  0  0  0  0  0  0  0
  188.9570  177.5490  137.2660 N   0  0  0  0  0  0  0  0  0  0  0  0
  188.0380  178.3040  139.2560 C   0  0  1  0  0  3  0  0  0  0  0  0
  188.8790  179.3450  138.6470 N   0  0  0  0  0  0  0  0  0  0  0  0
  187.3790  176.1550  138.3390 O   0  0  0  0  0  0  0  0  0  0  0  0
  188.0690  177.2140  138.2920 C   0  0  0  0  0  0  0  0  0  0  0  0
  189.8940  177.4030  140.8480 C   0  0  0  0  0  0  0  0  0  0  0  0
  188.8780  177.4530  142.7360 N   0  0  0  0  0  0  0  0  0  0  0  0
  188.6220  177.8750  140.5700 C   0  0  0  0  0  0  0  0  0  0  0  0
  186.6010  178.3170  142.0810 C   0  0  0  0  0  1  0  0  0  0  0  0
  188.0050  177.8930  141.8050 C   0  0  0  0  0  0  0  0  0  0  0  0
  190.8150  177.2360  140.0100 O   0  0  0  0  0  0  0  0  0  0  0  0
  190.0330  177.1480  142.1660 N   0  0  0  0  0  2  0  0  0  0  0  0
  188.6230  177.3170  144.1620 C   0  0  0  0  0  1  0  0  0  0  0  0
  186.8150  178.1900  134.8720 O   0  0  0  0  0  1  0  0  0  0  0  0
  187.8390  177.4010  134.3460 C   0  0  0  0  0  2  0  0  0  0  0  0
  191.7810  175.8490  134.8760 O   0  0  0  0  0  0  0  0  0  0  0  0
  191.6540  175.5930  136.0680 C   0  0  0  0  0  0  0  0  0  0  0  0
  192.8570  175.1810  136.8640 C   0  0  1  0  0  3  0  0  0  0  0  0
  194.0900  175.6040  136.1940 C   0  0  1  0  0  3  0  0  0  0  0  0
  193.5830  176.3730  137.3390 N   0  0  0  0  0  2  0  0  0  0  0  0
  194.7270  173.4300  137.2140 C   0  0  0  0  0  1  0  0  0  0  0  0
  195.2500  174.7410  136.6640 C   0  0  0  0  0  2  0  0  0  0  0  0
  188.0640  172.6490  135.3460 C   0  0  0  0  0  2  0  0  0  0  0  0
  185.8810  171.7230  134.6220 C   0  0  0  0  0  1  0  0  0  0  0  0
  186.0270  172.9340  136.7670 C   0  0  0  0  0  1  0  0  0  0  0  0
  186.5570  172.8640  135.3510 C   0  0  0  0  0  3  0  0  0  0  0  0
  1  6  1  0  0  0  0
  2 25  1  6  0  0  0
  3  2  1  0  0  0  0
  3  9  1  1  0  0  0
  5 23  1  6  0  0  0
  5  3  1  0  0  0  0
  6  2  1  0  0  0  0
  6  4  2  0  0  0  0
  7  5  1  0  0  0  0
  7  1  1  0  0  0  0
  8 11  2  0  0  0  0
  9  8  1  0  0  0  0
  9 13  1  0  0  0  0
 10 16  1  1  0  0  0
 11 10  1  0  0  0  0
 13 12  2  0  0  0  0
 13 10  1  0  0  0  0
 14 20  1  0  0  0  0
 15 21  1  0  0  0  0
 16 14  1  0  0  0  0
 16 18  2  0  0  0  0
 18 17  1  0  0  0  0
 18 15  1  0  0  0  0
 19 14  2  0  0  0  0
 20 15  1  0  0  0  0
 23 22  1  0  0  0  0
 24 25  2  0  0  0  0
 26 25  1  6  0  0  0
 26 28  1  0  0  0  0
 27 30  1  1  0  0  0
 27 26  1  0  0  0  0
 27 28  1  0  0  0  0
 30 29  1  0  0  0  0
 31 34  1  0  0  0  0
 31  1  1  0  0  0  0
 32 34  1  0  0  0  0
 34 33  1  0  0  0  0
M  END
>  <MODEL>
2

>  <REMARK>
 VINA RESULT:      -5.9      3.830      7.455
  Name = 
  8 active torsions:
  status: ('A' for Active; 'I' for Inactive)
    1  A    between atoms: C_1  and  C_18
    2  A    between atoms: C_2  and  N_3
    3  A    between atoms: C_2  and  C_28
    4  A    between atoms: C_8  and  C_13
    5  A    between atoms: N_10  and  C_20
    6  A    between atoms: C_14  and  C_18
    7  A    between atoms: C_19  and  C_31
    8  A    between atoms: C_27  and  C_34
                            x       y       z     vdW  Elec       q    Type
                         _______ _______ _______ _____ _____    ______ ____

>  <TORSDO>
F 8

$$$$
=
 OpenBabel10232409543D

 34 37  0  0  1  0  0  0  0  0999 V2000
  189.0480  176.4300  138.0790 N   0  0  0  0  0  0  0  0  0  0  0  0
  191.1900  176.2030  139.4230 C   0  0  1  0  0  3  0  0  0  0  0  0
  190.5690  177.1690  140.4610 C   0  0  1  0  0  3  0  0  0  0  0  0
  190.3710  174.5090  137.9490 O   0  0  0  0  0  0  0  0  0  0  0  0
  189.1420  177.6650  140.1710 C   0  0  2  0  0  3  0  0  0  0  0  0
  190.1930  175.6530  138.4430 C   0  0  0  0  0  0  0  0  0  0  0  0
  188.8820  177.7500  138.6720 C   0  0  0  0  0  2  0  0  0  0  0  0
  190.0970  175.3690  142.1380 N   0  0  0  0  0  0  0  0  0  0  0  0
  190.6580  176.6070  141.8010 N   0  0  0  0  0  0  0  0  0  0  0  0
  190.9360  176.3870  144.0920 C   0  0  1  0  0  3  0  0  0  0  0  0
  190.3620  175.1590  143.5220 N   0  0  0  0  0  0  0  0  0  0  0  0
  191.7750  178.3500  142.9380 O   0  0  0  0  0  0  0  0  0  0  0  0
  191.1690  177.2400  142.9370 C   0  0  0  0  0  0  0  0  0  0  0  0
  188.6960  177.5280  144.7780 C   0  0  0  0  0  0  0  0  0  0  0  0
  188.9920  177.7850  146.8860 N   0  0  0  0  0  0  0  0  0  0  0  0
  189.9580  177.0200  145.0380 C   0  0  0  0  0  0  0  0  0  0  0  0
  191.3040  176.8310  147.2090 C   0  0  0  0  0  1  0  0  0  0  0  0
  190.1080  177.2020  146.3980 C   0  0  0  0  0  0  0  0  0  0  0  0
  188.1320  177.5570  143.6560 O   0  0  0  0  0  0  0  0  0  0  0  0
  188.1240  177.9910  145.9090 N   0  0  0  0  0  2  0  0  0  0  0  0
  188.7450  178.1480  148.2740 C   0  0  0  0  0  1  0  0  0  0  0  0
  187.6030  179.2440  141.0910 O   0  0  0  0  0  1  0  0  0  0  0  0
  188.9520  179.0330  140.8020 C   0  0  0  0  0  2  0  0  0  0  0  0
  192.9880  177.7440  139.2310 O   0  0  0  0  0  0  0  0  0  0  0  0
  192.3530  176.8400  138.7020 C   0  0  0  0  0  0  0  0  0  0  0  0
  192.6420  176.4770  137.2750 C   0  0  1  0  0  3  0  0  0  0  0  0
  194.0760  176.5810  136.9950 C   0  0  1  0  0  3  0  0  0  0  0  0
  193.4730  175.2610  137.2190 N   0  0  0  0  0  2  0  0  0  0  0  0
  195.6970  176.3390  135.1280 C   0  0  0  0  0  1  0  0  0  0  0  0
  194.2940  176.7690  135.5020 C   0  0  0  0  0  2  0  0  0  0  0  0
  187.9960  175.8740  137.2330 C   0  0  0  0  0  2  0  0  0  0  0  0
  188.8610  176.2410  134.9390 C   0  0  0  0  0  1  0  0  0  0  0  0
  186.4490  176.5190  135.3790 C   0  0  0  0  0  1  0  0  0  0  0  0
  187.8360  176.6900  135.9590 C   0  0  0  0  0  3  0  0  0  0  0  0
  1  6  1  0  0  0  0
  1  7  1  0  0  0  0
  2 25  1  6  0  0  0
  2  3  1  0  0  0  0
  3  9  1  1  0  0  0
  4  6  2  0  0  0  0
  5  3  1  0  0  0  0
  5 23  1  6  0  0  0
  6  2  1  0  0  0  0
  7  5  1  0  0  0  0
  8 11  2  0  0  0  0
  9  8  1  0  0  0  0
  9 13  1  0  0  0  0
 10 16  1  1  0  0  0
 11 10  1  0  0  0  0
 13 12  2  0  0  0  0
 13 10  1  0  0  0  0
 14 16  1  0  0  0  0
 14 20  1  0  0  0  0
 15 21  1  0  0  0  0
 16 18  2  0  0  0  0
 18 15  1  0  0  0  0
 18 17  1  0  0  0  0
 19 14  2  0  0  0  0
 20 15  1  0  0  0  0
 23 22  1  0  0  0  0
 25 24  2  0  0  0  0
 26 25  1  1  0  0  0
 27 30  1  6  0  0  0
 27 28  1  0  0  0  0
 27 26  1  0  0  0  0
 28 26  1  0  0  0  0
 29 30  1  0  0  0  0
 31  1  1  0  0  0  0
 32 34  1  0  0  0  0
 33 34  1  0  0  0  0
 34 31  1  0  0  0  0
M  END
>  <MODEL>
3

>  <REMARK>
 VINA RESULT:      -5.7      3.986      8.443
  Name = 
  8 active torsions:
  status: ('A' for Active; 'I' for Inactive)
    1  A    between atoms: C_1  and  C_18
    2  A    between atoms: C_2  and  N_3
    3  A    between atoms: C_2  and  C_28
    4  A    between atoms: C_8  and  C_13
    5  A    between atoms: N_10  and  C_20
    6  A    between atoms: C_14  and  C_18
    7  A    between atoms: C_19  and  C_31
    8  A    between atoms: C_27  and  C_34
                            x       y       z     vdW  Elec       q    Type
                         _______ _______ _______ _____ _____    ______ ____

>  <TORSDO>
F 8

$$$$
=
 OpenBabel10232409543D

 34 37  0  0  1  0  0  0  0  0999 V2000
  190.2700  177.4720  141.0240 N   0  0  0  0  0  0  0  0  0  0  0  0
  189.3920  177.2780  138.6500 C   0  0  1  0  0  3  0  0  0  0  0  0
  190.7910  176.7570  138.2400 C   0  0  1  0  0  3  0  0  0  0  0  0
  188.0020  177.1210  140.5880 O   0  0  0  0  0  0  0  0  0  0  0  0
  191.8310  176.6220  139.3650 C   0  0  2  0  0  3  0  0  0  0  0  0
  189.1640  177.2840  140.1350 C   0  0  0  0  0  0  0  0  0  0  0  0
  191.5990  177.6580  140.4580 C   0  0  0  0  0  2  0  0  0  0  0  0
  189.9500  174.4130  137.9660 N   0  0  0  0  0  0  0  0  0  0  0  0
  190.6760  175.5130  137.4920 N   0  0  0  0  0  0  0  0  0  0  0  0
  191.0610  173.8000  135.9780 C   0  0  1  0  0  3  0  0  0  0  0  0
  190.0770  173.3840  136.9880 N   0  0  0  0  0  0  0  0  0  0  0  0
  192.0460  175.9900  135.6280 O   0  0  0  0  0  0  0  0  0  0  0  0
  191.3470  175.1870  136.3100 C   0  0  0  0  0  0  0  0  0  0  0  0
  193.3950  173.1190  136.9160 C   0  0  0  0  0  0  0  0  0  0  0  0
  193.7840  171.3320  135.7990 N   0  0  0  0  0  0  0  0  0  0  0  0
  192.2970  172.9560  136.0880 C   0  0  0  0  0  0  0  0  0  0  0  0
  191.7280  171.1640  134.3480 C   0  0  0  0  0  1  0  0  0  0  0  0
  192.5850  171.8000  135.3910 C   0  0  0  0  0  0  0  0  0  0  0  0
  193.5570  174.0480  137.7470 O   0  0  0  0  0  0  0  0  0  0  0  0
  194.2900  172.1280  136.7260 N   0  0  0  0  0  2  0  0  0  0  0  0
  194.4540  170.1340  135.3120 C   0  0  0  0  0  1  0  0  0  0  0  0
  194.1510  176.9910  139.8060 O   0  0  0  0  0  1  0  0  0  0  0  0
  193.2220  176.7960  138.7820 C   0  0  0  0  0  2  0  0  0  0  0  0
  189.1040  179.6320  138.7790 O   0  0  0  0  0  0  0  0  0  0  0  0
  189.1150  178.6390  138.0610 C   0  0  0  0  0  0  0  0  0  0  0  0
  188.7040  178.7670  136.6230 C   0  0  1  0  0  3  0  0  0  0  0  0
  187.7020  177.7540  136.2800 C   0  0  1  0  0  3  0  0  0  0  0  0
  187.2800  179.1380  136.5330 N   0  0  0  0  0  2  0  0  0  0  0  0
  188.3110  176.1590  134.4760 C   0  0  0  0  0  1  0  0  0  0  0  0
  187.7090  177.5150  134.7790 C   0  0  0  0  0  2  0  0  0  0  0  0
  190.1040  177.3520  142.4700 C   0  0  0  0  0  2  0  0  0  0  0  0
  191.5830  178.3880  144.1690 C   0  0  0  0  0  1  0  0  0  0  0  0
  191.6070  175.9380  143.8800 C   0  0  0  0  0  1  0  0  0  0  0  0
  191.4560  177.2630  143.1650 C   0  0  0  0  0  3  0  0  0  0  0  0
  1 31  1  0  0  0  0
  2 25  1  1  0  0  0
  2  6  1  0  0  0  0
  3  9  1  1  0  0  0
  3  2  1  0  0  0  0
  3  5  1  0  0  0  0
  5 23  1  6  0  0  0
  5  7  1  0  0  0  0
  6  4  2  0  0  0  0
  6  1  1  0  0  0  0
  7  1  1  0  0  0  0
  9  8  1  0  0  0  0
 10 16  1  1  0  0  0
 10 13  1  0  0  0  0
 10 11  1  0  0  0  0
 11  8  2  0  0  0  0
 12 13  2  0  0  0  0
 13  9  1  0  0  0  0
 14 19  2  0  0  0  0
 15 20  1  0  0  0  0
 16 14  1  0  0  0  0
 17 18  1  0  0  0  0
 18 15  1  0  0  0  0
 18 16  2  0  0  0  0
 20 14  1  0  0  0  0
 21 15  1  0  0  0  0
 23 22  1  0  0  0  0
 25 24  2  0  0  0  0
 26 25  1  1  0  0  0
 27 30  1  6  0  0  0
 27 28  1  0  0  0  0
 27 26  1  0  0  0  0
 28 26  1  0  0  0  0
 29 30  1  0  0  0  0
 31 34  1  0  0  0  0
 34 33  1  0  0  0  0
 34 32  1  0  0  0  0
M  END
>  <MODEL>
4

>  <REMARK>
 VINA RESULT:      -5.6      4.228      7.851
  Name = 
  8 active torsions:
  status: ('A' for Active; 'I' for Inactive)
    1  A    between atoms: C_1  and  C_18
    2  A    between atoms: C_2  and  N_3
    3  A    between atoms: C_2  and  C_28
    4  A    between atoms: C_8  and  C_13
    5  A    between atoms: N_10  and  C_20
    6  A    between atoms: C_14  and  C_18
    7  A    between atoms: C_19  and  C_31
    8  A    between atoms: C_27  and  C_34
                            x       y       z     vdW  Elec       q    Type
                         _______ _______ _______ _____ _____    ______ ____

>  <TORSDO>
F 8

$$$$
=
 OpenBabel10232409543D

 34 37  0  0  1  0  0  0  0  0999 V2000
  192.2720  176.0280  136.5670 N   0  0  0  0  0  0  0  0  0  0  0  0
  189.8190  175.3890  136.4160 C   0  0  1  0  0  3  0  0  0  0  0  0
  189.5800  176.2500  137.6810 C   0  0  1  0  0  3  0  0  0  0  0  0
  191.2760  175.4850  134.5250 O   0  0  0  0  0  0  0  0  0  0  0  0
  190.8070  176.9720  138.2630 C   0  0  2  0  0  3  0  0  0  0  0  0
  191.1530  175.6310  135.7680 C   0  0  0  0  0  0  0  0  0  0  0  0
  192.0850  176.1840  138.0030 C   0  0  0  0  0  2  0  0  0  0  0  0
  188.6830  178.5700  137.3750 N   0  0  0  0  0  0  0  0  0  0  0  0
  188.4860  177.1870  137.4630 N   0  0  0  0  0  0  0  0  0  0  0  0
  186.3680  178.1230  137.3460 C   0  0  1  0  0  3  0  0  0  0  0  0
  187.4000  179.1580  137.1830 N   0  0  0  0  0  0  0  0  0  0  0  0
  186.6390  175.7140  137.4670 O   0  0  0  0  0  0  0  0  0  0  0  0
  187.1220  176.8820  137.4460 C   0  0  0  0  0  0  0  0  0  0  0  0
  186.0380  178.6780  139.8710 C   0  0  0  0  0  0  0  0  0  0  0  0
  183.8990  178.6790  140.0170 N   0  0  0  0  0  0  0  0  0  0  0  0
  185.5810  178.3750  138.5990 C   0  0  0  0  0  0  0  0  0  0  0  0
  183.2130  178.1150  137.6570 C   0  0  0  0  0  1  0  0  0  0  0  0
  184.2070  178.3880  138.7360 C   0  0  0  0  0  0  0  0  0  0  0  0
  187.2430  178.7880  140.2120 O   0  0  0  0  0  0  0  0  0  0  0  0
  185.0060  178.8560  140.7210 N   0  0  0  0  0  2  0  0  0  0  0  0
  182.5610  178.7890  140.5790 C   0  0  0  0  0  1  0  0  0  0  0  0
  191.8390  177.4230  140.3710 O   0  0  0  0  0  1  0  0  0  0  0  0
  190.6140  177.1570  139.7580 C   0  0  0  0  0  2  0  0  0  0  0  0
  190.4600  173.2990  137.3460 O   0  0  0  0  0  0  0  0  0  0  0  0
  189.6220  173.9210  136.7030 C   0  0  0  0  0  0  0  0  0  0  0  0
  188.4780  173.1800  136.0760 C   0  0  1  0  0  3  0  0  0  0  0  0
  188.0160  173.8690  134.8680 C   0  0  1  0  0  3  0  0  0  0  0  0
  188.8670  172.6780  134.7450 N   0  0  0  0  0  2  0  0  0  0  0  0
  186.1280  172.4020  135.5420 C   0  0  0  0  0  1  0  0  0  0  0  0
  186.5790  173.4720  134.5700 C   0  0  0  0  0  2  0  0  0  0  0  0
  193.5440  176.3970  135.9540 C   0  0  0  0  0  2  0  0  0  0  0  0
  194.2340  174.0160  135.9220 C   0  0  0  0  0  1  0  0  0  0  0  0
  195.9490  175.7740  135.6770 C   0  0  0  0  0  1  0  0  0  0  0  0
  194.6390  175.4130  136.3430 C   0  0  0  0  0  3  0  0  0  0  0  0
  1  7  1  0  0  0  0
  2 25  1  1  0  0  0
  2  3  1  0  0  0  0
  3  9  1  6  0  0  0
  3  5  1  0  0  0  0
  4  6  2  0  0  0  0
  5 23  1  1  0  0  0
  6  2  1  0  0  0  0
  6  1  1  0  0  0  0
  7  5  1  0  0  0  0
  8  9  1  0  0  0  0
 10 13  1  0  0  0  0
 10 16  1  1  0  0  0
 11 10  1  0  0  0  0
 11  8  2  0  0  0  0
 13  9  1  0  0  0  0
 13 12  2  0  0  0  0
 14 19  2  0  0  0  0
 14 20  1  0  0  0  0
 15 21  1  0  0  0  0
 15 20  1  0  0  0  0
 16 18  2  0  0  0  0
 16 14  1  0  0  0  0
 17 18  1  0  0  0  0
 18 15  1  0  0  0  0
 23 22  1  0  0  0  0
 25 24  2  0  0  0  0
 26 25  1  1  0  0  0
 27 30  1  6  0  0  0
 27 26  1  0  0  0  0
 28 27  1  0  0  0  0
 28 26  1  0  0  0  0
 30 29  1  0  0  0  0
 31 34  1  0  0  0  0
 31  1  1  0  0  0  0
 32 34  1  0  0  0  0
 33 34  1  0  0  0  0
M  END
>  <MODEL>
5

>  <REMARK>
 VINA RESULT:      -5.6      2.500      8.724
  Name = 
  8 active torsions:
  status: ('A' for Active; 'I' for Inactive)
    1  A    between atoms: C_1  and  C_18
    2  A    between atoms: C_2  and  N_3
    3  A    between atoms: C_2  and  C_28
    4  A    between atoms: C_8  and  C_13
    5  A    between atoms: N_10  and  C_20
    6  A    between atoms: C_14  and  C_18
    7  A    between atoms: C_19  and  C_31
    8  A    between atoms: C_27  and  C_34
                            x       y       z     vdW  Elec       q    Type
                         _______ _______ _______ _____ _____    ______ ____

>  <TORSDO>
F 8

$$$$
=
 OpenBabel10232409543D

 34 37  0  0  1  0  0  0  0  0999 V2000
  186.0780  177.6370  138.5440 N   0  0  0  0  0  0  0  0  0  0  0  0
  188.4680  177.5170  139.3930 C   0  0  1  0  0  3  0  0  0  0  0  0
  187.9670  178.1620  140.7090 C   0  0  1  0  0  3  0  0  0  0  0  0
  187.5690  176.0130  137.7680 O   0  0  0  0  0  0  0  0  0  0  0  0
  186.4620  178.4630  140.7980 C   0  0  2  0  0  3  0  0  0  0  0  0
  187.3610  177.0020  138.5180 C   0  0  0  0  0  0  0  0  0  0  0  0
  185.8810  178.7790  139.4240 C   0  0  0  0  0  2  0  0  0  0  0  0
  187.8890  176.1160  142.1540 N   0  0  0  0  0  0  0  0  0  0  0  0
  188.4060  177.3840  141.8590 N   0  0  0  0  0  0  0  0  0  0  0  0
  189.3250  176.7840  143.9020 C   0  0  1  0  0  3  0  0  0  0  0  0
  188.5320  175.6760  143.3470 N   0  0  0  0  0  0  0  0  0  0  0  0
  189.9150  178.8970  142.8650 O   0  0  0  0  0  0  0  0  0  0  0  0
  189.2660  177.8120  142.8740 C   0  0  0  0  0  0  0  0  0  0  0  0
  187.4120  177.6950  145.4190 C   0  0  0  0  0  0  0  0  0  0  0  0
  188.4080  177.8140  147.3130 N   0  0  0  0  0  0  0  0  0  0  0  0
  188.7080  177.2670  145.1810 C   0  0  0  0  0  0  0  0  0  0  0  0
  190.7310  177.0190  146.7330 C   0  0  0  0  0  1  0  0  0  0  0  0
  189.3120  177.3570  146.4200 C   0  0  0  0  0  0  0  0  0  0  0  0
  186.4930  177.7640  144.5640 O   0  0  0  0  0  0  0  0  0  0  0  0
  187.2470  178.0260  146.7160 N   0  0  0  0  0  2  0  0  0  0  0  0
  188.6410  178.0520  148.7300 C   0  0  0  0  0  1  0  0  0  0  0  0
  184.9770  179.5670  142.3100 O   0  0  0  0  0  1  0  0  0  0  0  0
  186.2440  179.6420  141.7300 C   0  0  0  0  0  2  0  0  0  0  0  0
  188.9220  179.5110  138.1840 O   0  0  0  0  0  0  0  0  0  0  0  0
  189.3640  178.4570  138.6250 C   0  0  0  0  0  0  0  0  0  0  0  0
  190.7600  178.0380  138.2650 C   0  0  1  0  0  3  0  0  0  0  0  0
  191.0220  176.6700  138.7200 C   0  0  1  0  0  3  0  0  0  0  0  0
  190.7230  176.9210  137.3030 N   0  0  0  0  0  2  0  0  0  0  0  0
  193.1590  176.3160  137.5030 C   0  0  0  0  0  1  0  0  0  0  0  0
  192.5200  176.4580  138.8690 C   0  0  0  0  0  2  0  0  0  0  0  0
  184.9470  177.0820  137.8060 C   0  0  0  0  0  2  0  0  0  0  0  0
  182.7260  178.0130  137.2160 C   0  0  0  0  0  1  0  0  0  0  0  0
  182.9350  176.5460  139.1890 C   0  0  0  0  0  1  0  0  0  0  0  0
  183.6290  177.6050  138.3600 C   0  0  0  0  0  3  0  0  0  0  0  0
  1  7  1  0  0  0  0
  2 25  1  6  0  0  0
  2  3  1  0  0  0  0
  3  5  1  0  0  0  0
  3  9  1  1  0  0  0
  4  6  2  0  0  0  0
  5 23  1  1  0  0  0
  6  1  1  0  0  0  0
  6  2  1  0  0  0  0
  7  5  1  0  0  0  0
  8 11  2  0  0  0  0
  9  8  1  0  0  0  0
  9 13  1  0  0  0  0
 10 16  1  1  0  0  0
 11 10  1  0  0  0  0
 12 13  2  0  0  0  0
 13 10  1  0  0  0  0
 14 20  1  0  0  0  0
 15 21  1  0  0  0  0
 16 14  1  0  0  0  0
 16 18  2  0  0  0  0
 18 17  1  0  0  0  0
 18 15  1  0  0  0  0
 19 14  2  0  0  0  0
 20 15  1  0  0  0  0
 23 22  1  0  0  0  0
 24 25  2  0  0  0  0
 26 25  1  1  0  0  0
 26 27  1  0  0  0  0
 27 30  1  6  0  0  0
 28 26  1  0  0  0  0
 28 27  1  0  0  0  0
 29 30  1  0  0  0  0
 31 34  1  0  0  0  0
 31  1  1  0  0  0  0
 32 34  1  0  0  0  0
 34 33  1  0  0  0  0
M  END
>  <MODEL>
6

>  <REMARK>
 VINA RESULT:      -5.4      2.967      7.034
  Name = 
  8 active torsions:
  status: ('A' for Active; 'I' for Inactive)
    1  A    between atoms: C_1  and  C_18
    2  A    between atoms: C_2  and  N_3
    3  A    between atoms: C_2  and  C_28
    4  A    between atoms: C_8  and  C_13
    5  A    between atoms: N_10  and  C_20
    6  A    between atoms: C_14  and  C_18
    7  A    between atoms: C_19  and  C_31
    8  A    between atoms: C_27  and  C_34
                            x       y       z     vdW  Elec       q    Type
                         _______ _______ _______ _____ _____    ______ ____

>  <TORSDO>
F 8

$$$$
=
 OpenBabel10232409543D

 34 37  0  0  1  0  0  0  0  0999 V2000
  190.0670  176.3000  136.4040 N   0  0  0  0  0  0  0  0  0  0  0  0
  188.5520  176.5450  138.4270 C   0  0  1  0  0  3  0  0  0  0  0  0
  187.6120  177.4000  137.5420 C   0  0  1  0  0  3  0  0  0  0  0  0
  190.0040  174.6780  138.0840 O   0  0  0  0  0  0  0  0  0  0  0  0
  188.0340  177.5930  136.0760 C   0  0  2  0  0  3  0  0  0  0  0  0
  189.5800  175.7780  137.6440 C   0  0  0  0  0  0  0  0  0  0  0  0
  189.5510  177.5780  135.9330 C   0  0  0  0  0  2  0  0  0  0  0  0
  185.8560  175.6670  137.1030 N   0  0  0  0  0  0  0  0  0  0  0  0
  186.2440  176.9070  137.6250 N   0  0  0  0  0  0  0  0  0  0  0  0
  183.9400  176.8110  137.8660 C   0  0  1  0  0  3  0  0  0  0  0  0
  184.4590  175.5350  137.3490 N   0  0  0  0  0  0  0  0  0  0  0  0
  185.1750  178.7450  138.6540 O   0  0  0  0  0  0  0  0  0  0  0  0
  185.1320  177.6140  138.0900 C   0  0  0  0  0  0  0  0  0  0  0  0
  183.0490  177.3120  135.4690 C   0  0  0  0  0  0  0  0  0  0  0  0
  181.4240  178.6410  135.9020 N   0  0  0  0  0  0  0  0  0  0  0  0
  183.0450  177.4520  136.8460 C   0  0  0  0  0  0  0  0  0  0  0  0
  181.5380  178.8050  138.4160 C   0  0  0  0  0  1  0  0  0  0  0  0
  181.9880  178.3090  137.0820 C   0  0  0  0  0  0  0  0  0  0  0  0
  183.8450  176.6000  134.8050 O   0  0  0  0  0  0  0  0  0  0  0  0
  182.0620  178.0420  134.9100 N   0  0  0  0  0  2  0  0  0  0  0  0
  180.2830  179.5250  135.7090 C   0  0  0  0  0  1  0  0  0  0  0  0
  187.4870  179.8600  136.5950 O   0  0  0  0  0  1  0  0  0  0  0  0
  187.4840  178.9140  135.5690 C   0  0  0  0  0  2  0  0  0  0  0  0
  190.2080  178.0410  139.2420 O   0  0  0  0  0  0  0  0  0  0  0  0
  189.2100  177.3790  139.4990 C   0  0  0  0  0  0  0  0  0  0  0  0
  188.7370  177.2840  140.9200 C   0  0  1  0  0  3  0  0  0  0  0  0
  189.2860  178.3800  141.7220 C   0  0  1  0  0  3  0  0  0  0  0  0
  187.8950  178.4470  141.2540 N   0  0  0  0  0  2  0  0  0  0  0  0
  188.4760  176.7250  143.3880 C   0  0  0  0  0  1  0  0  0  0  0  0
  189.2860  177.9900  143.1920 C   0  0  0  0  0  2  0  0  0  0  0  0
  190.9650  175.5200  135.5570 C   0  0  0  0  0  2  0  0  0  0  0  0
  193.0760  174.6790  136.5480 C   0  0  0  0  0  1  0  0  0  0  0  0
  193.1730  176.1670  134.5820 C   0  0  0  0  0  1  0  0  0  0  0  0
  192.4190  175.8550  135.8560 C   0  0  0  0  0  3  0  0  0  0  0  0
  1  6  1  0  0  0  0
  2 25  1  1  0  0  0
  3  9  1  6  0  0  0
  3  2  1  0  0  0  0
  5 23  1  1  0  0  0
  5  3  1  0  0  0  0
  6  4  2  0  0  0  0
  6  2  1  0  0  0  0
  7  5  1  0  0  0  0
  7  1  1  0  0  0  0
  8 11  2  0  0  0  0
  8  9  1  0  0  0  0
  9 13  1  0  0  0  0
 10 16  1  6  0  0  0
 10 13  1  0  0  0  0
 11 10  1  0  0  0  0
 13 12  2  0  0  0  0
 14 16  1  0  0  0  0
 15 18  1  0  0  0  0
 16 18  2  0  0  0  0
 18 17  1  0  0  0  0
 19 14  2  0  0  0  0
 20 14  1  0  0  0  0
 20 15  1  0  0  0  0
 21 15  1  0  0  0  0
 23 22  1  0  0  0  0
 24 25  2  0  0  0  0
 26 25  1  6  0  0  0
 26 28  1  0  0  0  0
 26 27  1  0  0  0  0
 27 30  1  1  0  0  0
 28 27  1  0  0  0  0
 30 29  1  0  0  0  0
 31 34  1  0  0  0  0
 31  1  1  0  0  0  0
 33 34  1  0  0  0  0
 34 32  1  0  0  0  0
M  END
>  <MODEL>
7

>  <REMARK>
 VINA RESULT:      -5.0      2.437      7.355
  Name = 
  8 active torsions:
  status: ('A' for Active; 'I' for Inactive)
    1  A    between atoms: C_1  and  C_18
    2  A    between atoms: C_2  and  N_3
    3  A    between atoms: C_2  and  C_28
    4  A    between atoms: C_8  and  C_13
    5  A    between atoms: N_10  and  C_20
    6  A    between atoms: C_14  and  C_18
    7  A    between atoms: C_19  and  C_31
    8  A    between atoms: C_27  and  C_34
                            x       y       z     vdW  Elec       q    Type
                         _______ _______ _______ _____ _____    ______ ____

>  <TORSDO>
F 8

$$$$
=
 OpenBabel10232409543D

 34 37  0  0  1  0  0  0  0  0999 V2000
  190.4460  176.9550  140.3430 N   0  0  0  0  0  0  0  0  0  0  0  0
  189.3330  177.2370  138.0770 C   0  0  1  0  0  3  0  0  0  0  0  0
  190.6930  176.8720  137.4330 C   0  0  1  0  0  3  0  0  0  0  0  0
  188.1510  176.6150  140.0590 O   0  0  0  0  0  0  0  0  0  0  0  0
  191.8450  176.5420  138.3980 C   0  0  2  0  0  3  0  0  0  0  0  0
  189.2590  176.9170  139.5430 C   0  0  0  0  0  0  0  0  0  0  0  0
  191.7060  177.3110  139.7060 C   0  0  0  0  0  2  0  0  0  0  0  0
  190.1760  176.0700  135.1160 N   0  0  0  0  0  0  0  0  0  0  0  0
  190.5250  175.8130  136.4480 N   0  0  0  0  0  0  0  0  0  0  0  0
  190.1950  173.7380  135.4680 C   0  0  1  0  0  3  0  0  0  0  0  0
  190.0840  174.8060  134.4640 N   0  0  0  0  0  0  0  0  0  0  0  0
  190.8730  173.9020  137.7920 O   0  0  0  0  0  0  0  0  0  0  0  0
  190.5490  174.4370  136.6940 C   0  0  0  0  0  0  0  0  0  0  0  0
  187.7210  173.4640  136.2400 C   0  0  0  0  0  0  0  0  0  0  0  0
  187.2510  171.5300  135.4430 N   0  0  0  0  0  0  0  0  0  0  0  0
  188.8780  173.0320  135.6140 C   0  0  0  0  0  0  0  0  0  0  0  0
  189.4260  170.8740  134.3470 C   0  0  0  0  0  1  0  0  0  0  0  0
  188.5340  171.7920  135.1150 C   0  0  0  0  0  0  0  0  0  0  0  0
  187.5710  174.5640  136.8290 O   0  0  0  0  0  0  0  0  0  0  0  0
  186.7440  172.5400  136.1310 N   0  0  0  0  0  2  0  0  0  0  0  0
  186.5030  170.3270  135.1080 C   0  0  0  0  0  1  0  0  0  0  0  0
  194.1730  176.0420  138.1950 O   0  0  0  0  0  1  0  0  0  0  0  0
  193.1660  176.8920  137.7350 C   0  0  0  0  0  2  0  0  0  0  0  0
  189.1930  179.5300  138.6810 O   0  0  0  0  0  0  0  0  0  0  0  0
  188.9730  178.6810  137.8260 C   0  0  0  0  0  0  0  0  0  0  0  0
  188.2080  179.0600  136.5930 C   0  0  1  0  0  3  0  0  0  0  0  0
  187.3580  177.9510  136.1490 C   0  0  1  0  0  3  0  0  0  0  0  0
  186.7610  179.0790  136.8780 N   0  0  0  0  0  2  0  0  0  0  0  0
  185.7140  177.4530  134.3560 C   0  0  0  0  0  1  0  0  0  0  0  0
  187.0430  178.1070  134.6710 C   0  0  0  0  0  2  0  0  0  0  0  0
  190.4300  176.5230  141.7370 C   0  0  0  0  0  2  0  0  0  0  0  0
  189.0940  177.8620  143.3410 C   0  0  0  0  0  1  0  0  0  0  0  0
  191.5110  177.5570  143.7400 C   0  0  0  0  0  1  0  0  0  0  0  0
  190.4470  177.7210  142.6760 C   0  0  0  0  0  3  0  0  0  0  0  0
  1 31  1  0  0  0  0
  2 25  1  1  0  0  0
  2  6  1  0  0  0  0
  3  9  1  6  0  0  0
  3  2  1  0  0  0  0
  3  5  1  0  0  0  0
  5 23  1  6  0  0  0
  5  7  1  0  0  0  0
  6  4  2  0  0  0  0
  6  1  1  0  0  0  0
  7  1  1  0  0  0  0
  8  9  1  0  0  0  0
  9 13  1  0  0  0  0
 10 16  1  1  0  0  0
 10 13  1  0  0  0  0
 11  8  2  0  0  0  0
 11 10  1  0  0  0  0
 13 12  2  0  0  0  0
 14 19  2  0  0  0  0
 15 20  1  0  0  0  0
 16 14  1  0  0  0  0
 17 18  1  0  0  0  0
 18 15  1  0  0  0  0
 18 16  2  0  0  0  0
 20 14  1  0  0  0  0
 21 15  1  0  0  0  0
 23 22  1  0  0  0  0
 25 24  2  0  0  0  0
 26 28  1  0  0  0  0
 26 25  1  1  0  0  0
 27 30  1  6  0  0  0
 27 26  1  0  0  0  0
 27 28  1  0  0  0  0
 29 30  1  0  0  0  0
 31 34  1  0  0  0  0
 34 32  1  0  0  0  0
 34 33  1  0  0  0  0
M  END
>  <MODEL>
8

>  <REMARK>
 VINA RESULT:      -5.0      3.660      7.577
  Name = 
  8 active torsions:
  status: ('A' for Active; 'I' for Inactive)
    1  A    between atoms: C_1  and  C_18
    2  A    between atoms: C_2  and  N_3
    3  A    between atoms: C_2  and  C_28
    4  A    between atoms: C_8  and  C_13
    5  A    between atoms: N_10  and  C_20
    6  A    between atoms: C_14  and  C_18
    7  A    between atoms: C_19  and  C_31
    8  A    between atoms: C_27  and  C_34
                            x       y       z     vdW  Elec       q    Type
                         _______ _______ _______ _____ _____    ______ ____

>  <TORSDO>
F 8

$$$$
=
 OpenBabel10232409543D

 34 37  0  0  1  0  0  0  0  0999 V2000
  181.6470  180.3030  138.5110 N   0  0  0  0  0  0  0  0  0  0  0  0
  183.2230  178.5660  139.4840 C   0  0  1  0  0  3  0  0  0  0  0  0
  182.3040  177.4800  138.8730 C   0  0  1  0  0  3  0  0  0  0  0  0
  183.9050  180.7760  138.8800 O   0  0  0  0  0  0  0  0  0  0  0  0
  181.0890  177.9780  138.0720 C   0  0  2  0  0  3  0  0  0  0  0  0
  182.9620  179.9450  138.9460 C   0  0  0  0  0  0  0  0  0  0  0  0
  180.5840  179.3120  138.6080 C   0  0  0  0  0  2  0  0  0  0  0  0
  183.4550  175.2730  138.5850 N   0  0  0  0  0  0  0  0  0  0  0  0
  183.0840  176.5300  138.0920 N   0  0  0  0  0  0  0  0  0  0  0  0
  184.4790  175.6060  136.4870 C   0  0  1  0  0  3  0  0  0  0  0  0
  184.2170  174.6380  137.5620 N   0  0  0  0  0  0  0  0  0  0  0  0
  183.4840  177.7920  136.1360 O   0  0  0  0  0  0  0  0  0  0  0  0
  183.6710  176.7620  136.8450 C   0  0  0  0  0  0  0  0  0  0  0  0
  186.6230  176.9030  137.2040 C   0  0  0  0  0  0  0  0  0  0  0  0
  188.1050  175.9640  135.9730 N   0  0  0  0  0  0  0  0  0  0  0  0
  185.9370  175.9590  136.4580 C   0  0  0  0  0  0  0  0  0  0  0  0
  186.7280  174.2920  134.6810 C   0  0  0  0  0  1  0  0  0  0  0  0
  186.9230  175.3790  135.6840 C   0  0  0  0  0  0  0  0  0  0  0  0
  186.1170  177.6670  138.0650 O   0  0  0  0  0  0  0  0  0  0  0  0
  187.9360  176.8960  136.8960 N   0  0  0  0  0  2  0  0  0  0  0  0
  189.3940  175.6450  135.3770 C   0  0  0  0  0  1  0  0  0  0  0  0
  180.1360  176.1600  139.2960 O   0  0  0  0  0  1  0  0  0  0  0  0
  179.9820  176.9420  138.1500 C   0  0  0  0  0  2  0  0  0  0  0  0
  182.1350  178.2060  141.5650 O   0  0  0  0  0  0  0  0  0  0  0  0
  183.1590  178.5600  140.9920 C   0  0  0  0  0  0  0  0  0  0  0  0
  184.2920  179.1290  141.7940 C   0  0  1  0  0  3  0  0  0  0  0  0
  184.2860  178.5860  143.1550 C   0  0  1  0  0  3  0  0  0  0  0  0
  185.2370  178.0610  142.1670 N   0  0  0  0  0  2  0  0  0  0  0  0
  185.2420  178.8660  145.4300 C   0  0  0  0  0  1  0  0  0  0  0  0
  185.0270  179.5310  144.0870 C   0  0  0  0  0  2  0  0  0  0  0  0
  181.3890  181.5860  137.8640 C   0  0  0  0  0  2  0  0  0  0  0  0
  180.1280  182.7700  136.0880 C   0  0  0  0  0  1  0  0  0  0  0  0
  181.1430  180.5760  135.5910 C   0  0  0  0  0  1  0  0  0  0  0  0
  180.4740  181.4120  136.6610 C   0  0  0  0  0  3  0  0  0  0  0  0
  1  7  1  0  0  0  0
  1  6  1  0  0  0  0
  2 25  1  1  0  0  0
  3  9  1  6  0  0  0
  3  2  1  0  0  0  0
  4  6  2  0  0  0  0
  5 23  1  1  0  0  0
  5  7  1  0  0  0  0
  5  3  1  0  0  0  0
  6  2  1  0  0  0  0
  9  8  1  0  0  0  0
 10 16  1  1  0  0  0
 10 13  1  0  0  0  0
 10 11  1  0  0  0  0
 11  8  2  0  0  0  0
 12 13  2  0  0  0  0
 13  9  1  0  0  0  0
 14 19  2  0  0  0  0
 15 20  1  0  0  0  0
 16 14  1  0  0  0  0
 17 18  1  0  0  0  0
 18 15  1  0  0  0  0
 18 16  2  0  0  0  0
 20 14  1  0  0  0  0
 21 15  1  0  0  0  0
 23 22  1  0  0  0  0
 25 24  2  0  0  0  0
 26 25  1  6  0  0  0
 26 28  1  0  0  0  0
 26 27  1  0  0  0  0
 27 30  1  1  0  0  0
 28 27  1  0  0  0  0
 30 29  1  0  0  0  0
 31  1  1  0  0  0  0
 32 34  1  0  0  0  0
 33 34  1  0  0  0  0
 34 31  1  0  0  0  0
M  END
>  <MODEL>
9

>  <REMARK>
 VINA RESULT:      -5.0      2.332      3.822
  Name = 
  8 active torsions:
  status: ('A' for Active; 'I' for Inactive)
    1  A    between atoms: C_1  and  C_18
    2  A    between atoms: C_2  and  N_3
    3  A    between atoms: C_2  and  C_28
    4  A    between atoms: C_8  and  C_13
    5  A    between atoms: N_10  and  C_20
    6  A    between atoms: C_14  and  C_18
    7  A    between atoms: C_19  and  C_31
    8  A    between atoms: C_27  and  C_34
                            x       y       z     vdW  Elec       q    Type
                         _______ _______ _______ _____ _____    ______ ____

>  <TORSDO>
F 8

$$$$
