=
 OpenBabel10232408243D

 30 32  0  0  1  0  0  0  0  0999 V2000
  190.1710  176.3980  142.4520 C   0  0  1  0  0  3  0  0  0  0  0  0
  190.9180  177.2160  143.3930 N   0  0  0  0  0  2  0  0  0  0  0  0
  191.3720  176.3530  144.4680 C   0  0  0  0  0  2  0  0  0  0  0  0
  191.5710  177.1810  145.7200 C   0  0  0  0  0  2  0  0  0  0  0  0
  192.2960  175.7380  147.5940 C   0  0  0  0  0  1  0  0  0  0  0  0
  191.1050  176.3980  146.9310 C   0  0  0  0  0  2  0  0  0  0  0  0
  188.7450  176.2160  142.9620 C   0  0  0  0  0  2  0  0  0  0  0  0
  188.1390  177.4790  143.2150 O   0  0  0  0  0  0  0  0  0  0  0  0
  185.9490  178.1960  144.1840 C   0  0  0  0  0  0  0  0  0  0  0  0
  185.3040  178.3400  142.9460 C   0  0  0  0  0  3  0  0  0  0  0  0
  185.7920  178.2930  146.5850 N   0  0  0  0  0  0  0  0  0  0  0  0
  183.8760  178.8630  145.2900 C   0  0  0  0  0  3  0  0  0  0  0  0
  183.2610  179.0190  144.0470 C   0  0  0  0  0  3  0  0  0  0  0  0
  187.8500  177.6290  145.5750 C   0  0  0  0  0  3  0  0  0  0  0  0
  185.2090  178.4470  145.3670 C   0  0  0  0  0  0  0  0  0  0  0  0
  187.0820  177.8920  146.7090 C   0  0  0  0  0  3  0  0  0  0  0  0
  183.9730  178.7530  142.8750 C   0  0  0  0  0  3  0  0  0  0  0  0
  187.3010  177.7790  144.3000 C   0  0  0  0  0  0  0  0  0  0  0  0
  190.1780  177.0530  141.0740 C   0  0  0  0  0  2  0  0  0  0  0  0
  190.3000  176.0830  140.0770 O   0  0  0  0  0  0  0  0  0  0  0  0
  190.4850  176.8050  138.8960 C   0  0  0  0  0  2  0  0  0  0  0  0
  189.6370  178.0620  138.9230 C   0  0  0  0  0  2  0  0  0  0  0  0
  188.4580  177.8850  138.0880 N   0  0  0  0  0  0  0  0  0  0  0  0
  187.1350  178.1280  138.6040 C   0  0  0  0  0  0  0  0  0  0  0  0
  188.6480  177.4470  136.7060 C   0  0  0  0  0  2  0  0  0  0  0  0
  184.6460  177.9530  138.3020 C   0  0  0  0  0  1  0  0  0  0  0  0
  186.9780  178.5440  139.7850 O   0  0  0  0  0  0  0  0  0  0  0  0
  185.9970  177.8700  137.7690 N   0  0  0  0  0  0  0  0  0  0  0  0
  187.4410  176.6560  136.2080 C   0  0  0  0  0  2  0  0  0  0  0  0
  186.1830  177.5020  136.3700 C   0  0  0  0  0  2  0  0  0  0  0  0
  1 19  1  6  0  0  0
  1  7  1  0  0  0  0
  1  2  1  0  0  0  0
  2  3  1  0  0  0  0
  3  4  1  0  0  0  0
  4  6  1  0  0  0  0
  6  5  1  0  0  0  0
  7  8  1  0  0  0  0
  8 18  1  0  0  0  0
  9 18  2  0  0  0  0
  9 15  1  0  0  0  0
 10  9  1  0  0  0  0
 11 16  1  0  0  0  0
 12 15  1  0  0  0  0
 13 12  2  0  0  0  0
 14 16  2  0  0  0  0
 15 11  2  0  0  0  0
 17 10  2  0  0  0  0
 17 13  1  0  0  0  0
 18 14  1  0  0  0  0
 20 19  1  0  0  0  0
 21 22  1  0  0  0  0
 21 20  1  0  0  0  0
 23 24  1  0  0  0  0
 23 22  1  0  0  0  0
 24 27  2  0  0  0  0
 25 23  1  0  0  0  0
 28 26  1  0  0  0  0
 28 24  1  0  0  0  0
 29 30  1  0  0  0  0
 29 25  1  0  0  0  0
 30 28  1  0  0  0  0
M  END
>  <MODEL>
1

>  <REMARK>
 VINA RESULT:      -7.7      0.000      0.000
  Name = 
  12 active torsions:
  status: ('A' for Active; 'I' for Inactive)
    1  A    between atoms: C_3  and  N_19
    2  A    between atoms: C_3  and  C_20
    3  A    between atoms: N_4  and  C_24
    4  A    between atoms: O_5  and  C_13
    5  A    between atoms: O_5  and  C_26
    6  A    between atoms: C_10  and  N_19
    7  A    between atoms: C_10  and  C_22
    8  A    between atoms: C_10  and  C_26
    9  A    between atoms: C_13  and  C_24
   10  A    between atoms: C_18  and  C_20
   11  A    between atoms: C_22  and  O_29
   12  A    between atoms: O_29  and  C_30
                            x       y       z     vdW  Elec       q    Type
                         _______ _______ _______ _____ _____    ______ ____

>  <TORSDO>
F 12

$$$$
=
 OpenBabel10232408243D

 30 32  0  0  1  0  0  0  0  0999 V2000
  190.2560  177.0060  141.7410 C   0  0  1  0  0  3  0  0  0  0  0  0
  191.3650  177.2250  142.6540 N   0  0  0  0  0  2  0  0  0  0  0  0
  191.1670  176.3660  143.8080 C   0  0  0  0  0  2  0  0  0  0  0  0
  191.5080  177.1370  145.0660 C   0  0  0  0  0  2  0  0  0  0  0  0
  191.3240  176.6200  147.4780 C   0  0  0  0  0  1  0  0  0  0  0  0
  191.9210  176.1730  146.1590 C   0  0  0  0  0  2  0  0  0  0  0  0
  189.1150  177.9550  142.0940 C   0  0  0  0  0  2  0  0  0  0  0  0
  187.9460  177.2220  142.4470 O   0  0  0  0  0  0  0  0  0  0  0  0
  186.8520  177.8690  144.5990 C   0  0  0  0  0  0  0  0  0  0  0  0
  187.9520  177.5340  145.4050 C   0  0  0  0  0  3  0  0  0  0  0  0
  184.6220  178.7670  144.4690 N   0  0  0  0  0  0  0  0  0  0  0  0
  185.6500  178.5630  146.6080 C   0  0  0  0  0  3  0  0  0  0  0  0
  186.7470  178.2040  147.3920 C   0  0  0  0  0  3  0  0  0  0  0  0
  185.7370  178.1140  142.4630 C   0  0  0  0  0  3  0  0  0  0  0  0
  185.6960  178.4070  145.2200 C   0  0  0  0  0  0  0  0  0  0  0  0
  184.6210  178.6340  143.1190 C   0  0  0  0  0  3  0  0  0  0  0  0
  187.9000  177.6950  146.7900 C   0  0  0  0  0  3  0  0  0  0  0  0
  186.8640  177.7210  143.1870 C   0  0  0  0  0  0  0  0  0  0  0  0
  190.7170  177.2170  140.3030 C   0  0  0  0  0  2  0  0  0  0  0  0
  190.5780  176.0370  139.5700 O   0  0  0  0  0  0  0  0  0  0  0  0
  190.4800  176.4500  138.2400 C   0  0  0  0  0  2  0  0  0  0  0  0
  189.7030  177.7510  138.1620 C   0  0  0  0  0  2  0  0  0  0  0  0
  188.4060  177.5190  137.5410 N   0  0  0  0  0  0  0  0  0  0  0  0
  187.1880  177.9490  138.1770 C   0  0  0  0  0  0  0  0  0  0  0  0
  188.3690  176.8300  136.2520 C   0  0  0  0  0  2  0  0  0  0  0  0
  184.6750  177.9140  138.2520 C   0  0  0  0  0  1  0  0  0  0  0  0
  187.2270  178.5780  139.2700 O   0  0  0  0  0  0  0  0  0  0  0  0
  185.9280  177.6350  137.5660 N   0  0  0  0  0  0  0  0  0  0  0  0
  187.0640  176.0570  136.0770 C   0  0  0  0  0  2  0  0  0  0  0  0
  185.8870  177.0120  136.2480 C   0  0  0  0  0  2  0  0  0  0  0  0
  1 19  1  6  0  0  0
  1  7  1  0  0  0  0
  1  2  1  0  0  0  0
  2  3  1  0  0  0  0
  3  4  1  0  0  0  0
  4  6  1  0  0  0  0
  6  5  1  0  0  0  0
  7  8  1  0  0  0  0
  8 18  1  0  0  0  0
  9 15  1  0  0  0  0
  9 10  2  0  0  0  0
 10 17  1  0  0  0  0
 11 15  1  0  0  0  0
 12 13  1  0  0  0  0
 14 16  1  0  0  0  0
 14 18  2  0  0  0  0
 15 12  2  0  0  0  0
 16 11  2  0  0  0  0
 17 13  2  0  0  0  0
 18  9  1  0  0  0  0
 20 19  1  0  0  0  0
 21 20  1  0  0  0  0
 22 21  1  0  0  0  0
 23 22  1  0  0  0  0
 23 24  1  0  0  0  0
 24 27  2  0  0  0  0
 25 23  1  0  0  0  0
 28 24  1  0  0  0  0
 28 26  1  0  0  0  0
 29 30  1  0  0  0  0
 29 25  1  0  0  0  0
 30 28  1  0  0  0  0
M  END
>  <MODEL>
2

>  <REMARK>
 VINA RESULT:      -7.6      0.995      2.102
  Name = 
  12 active torsions:
  status: ('A' for Active; 'I' for Inactive)
    1  A    between atoms: C_3  and  N_19
    2  A    between atoms: C_3  and  C_20
    3  A    between atoms: N_4  and  C_24
    4  A    between atoms: O_5  and  C_13
    5  A    between atoms: O_5  and  C_26
    6  A    between atoms: C_10  and  N_19
    7  A    between atoms: C_10  and  C_22
    8  A    between atoms: C_10  and  C_26
    9  A    between atoms: C_13  and  C_24
   10  A    between atoms: C_18  and  C_20
   11  A    between atoms: C_22  and  O_29
   12  A    between atoms: O_29  and  C_30
                            x       y       z     vdW  Elec       q    Type
                         _______ _______ _______ _____ _____    ______ ____

>  <TORSDO>
F 12

$$$$
=
 OpenBabel10232408243D

 30 32  0  0  1  0  0  0  0  0999 V2000
  189.5940  177.0380  143.7900 C   0  0  1  0  0  3  0  0  0  0  0  0
  189.8140  177.9180  144.9250 N   0  0  0  0  0  2  0  0  0  0  0  0
  190.4180  177.1320  145.9850 C   0  0  0  0  0  2  0  0  0  0  0  0
  189.3800  176.8570  147.0540 C   0  0  0  0  0  2  0  0  0  0  0  0
  188.0740  177.9030  148.8760 C   0  0  0  0  0  1  0  0  0  0  0  0
  189.3100  178.0310  148.0110 C   0  0  0  0  0  2  0  0  0  0  0  0
  188.1410  176.5750  143.7820 C   0  0  0  0  0  2  0  0  0  0  0  0
  187.2750  177.6500  143.4290 O   0  0  0  0  0  0  0  0  0  0  0  0
  184.8820  178.3470  143.6040 C   0  0  0  0  0  0  0  0  0  0  0  0
  184.6090  178.2090  142.2340 C   0  0  0  0  0  3  0  0  0  0  0  0
  184.0490  178.8640  145.8030 N   0  0  0  0  0  0  0  0  0  0  0  0
  182.5620  179.0280  143.9500 C   0  0  0  0  0  3  0  0  0  0  0  0
  182.3190  178.9050  142.5810 C   0  0  0  0  0  3  0  0  0  0  0  0
  186.3270  178.2010  145.5430 C   0  0  0  0  0  3  0  0  0  0  0  0
  183.8300  178.7460  144.4670 C   0  0  0  0  0  0  0  0  0  0  0  0
  185.2620  178.6010  146.3510 C   0  0  0  0  0  3  0  0  0  0  0  0
  183.3410  178.4900  141.7240 C   0  0  0  0  0  3  0  0  0  0  0  0
  186.1570  178.0710  144.1630 C   0  0  0  0  0  0  0  0  0  0  0  0
  189.9420  177.7650  142.4950 C   0  0  0  0  0  2  0  0  0  0  0  0
  191.2870  177.5650  142.1720 O   0  0  0  0  0  0  0  0  0  0  0  0
  191.3070  177.4440  140.7820 C   0  0  0  0  0  2  0  0  0  0  0  0
  190.0440  176.7500  140.3070 C   0  0  0  0  0  2  0  0  0  0  0  0
  189.8200  177.0340  138.8970 N   0  0  0  0  0  0  0  0  0  0  0  0
  188.7360  177.8810  138.4700 C   0  0  0  0  0  0  0  0  0  0  0  0
  190.7240  176.4330  137.9180 C   0  0  0  0  0  2  0  0  0  0  0  0
  187.3330  178.7920  136.5940 C   0  0  0  0  0  1  0  0  0  0  0  0
  187.9820  178.4290  139.3210 O   0  0  0  0  0  0  0  0  0  0  0  0
  188.5070  178.0740  137.0670 N   0  0  0  0  0  0  0  0  0  0  0  0
  190.0200  176.2110  136.5810 C   0  0  0  0  0  2  0  0  0  0  0  0
  189.4460  177.5350  136.0890 C   0  0  0  0  0  2  0  0  0  0  0  0
  1 19  1  6  0  0  0
  1  2  1  0  0  0  0
  2  3  1  0  0  0  0
  3  4  1  0  0  0  0
  4  6  1  0  0  0  0
  6  5  1  0  0  0  0
  7  1  1  0  0  0  0
  8  7  1  0  0  0  0
  8 18  1  0  0  0  0
  9 18  2  0  0  0  0
  9 15  1  0  0  0  0
 10  9  1  0  0  0  0
 11 16  1  0  0  0  0
 12 15  1  0  0  0  0
 13 12  2  0  0  0  0
 14 16  2  0  0  0  0
 15 11  2  0  0  0  0
 17 10  2  0  0  0  0
 17 13  1  0  0  0  0
 18 14  1  0  0  0  0
 20 19  1  0  0  0  0
 21 20  1  0  0  0  0
 22 21  1  0  0  0  0
 23 22  1  0  0  0  0
 24 23  1  0  0  0  0
 24 27  2  0  0  0  0
 25 23  1  0  0  0  0
 26 28  1  0  0  0  0
 28 24  1  0  0  0  0
 29 25  1  0  0  0  0
 30 29  1  0  0  0  0
 30 28  1  0  0  0  0
M  END
>  <MODEL>
3

>  <REMARK>
 VINA RESULT:      -7.6      1.623      2.190
  Name = 
  12 active torsions:
  status: ('A' for Active; 'I' for Inactive)
    1  A    between atoms: C_3  and  N_19
    2  A    between atoms: C_3  and  C_20
    3  A    between atoms: N_4  and  C_24
    4  A    between atoms: O_5  and  C_13
    5  A    between atoms: O_5  and  C_26
    6  A    between atoms: C_10  and  N_19
    7  A    between atoms: C_10  and  C_22
    8  A    between atoms: C_10  and  C_26
    9  A    between atoms: C_13  and  C_24
   10  A    between atoms: C_18  and  C_20
   11  A    between atoms: C_22  and  O_29
   12  A    between atoms: O_29  and  C_30
                            x       y       z     vdW  Elec       q    Type
                         _______ _______ _______ _____ _____    ______ ____

>  <TORSDO>
F 12

$$$$
=
 OpenBabel10232408243D

 30 32  0  0  1  0  0  0  0  0999 V2000
  188.1690  178.5820  141.4440 C   0  0  1  0  0  3  0  0  0  0  0  0
  186.9860  178.1390  142.1620 N   0  0  0  0  0  2  0  0  0  0  0  0
  185.8970  179.0370  141.8220 C   0  0  0  0  0  2  0  0  0  0  0  0
  184.6130  178.5140  142.4310 C   0  0  0  0  0  2  0  0  0  0  0  0
  183.0900  178.8720  144.3470 C   0  0  0  0  0  1  0  0  0  0  0  0
  184.5310  178.9310  143.8850 C   0  0  0  0  0  2  0  0  0  0  0  0
  189.4130  178.0150  142.1190 C   0  0  0  0  0  2  0  0  0  0  0  0
  189.0500  177.1230  143.1680 O   0  0  0  0  0  0  0  0  0  0  0  0
  188.9500  177.4120  145.6490 C   0  0  0  0  0  0  0  0  0  0  0  0
  187.5990  177.7950  145.6760 C   0  0  0  0  0  3  0  0  0  0  0  0
  190.9520  176.9210  146.8920 N   0  0  0  0  0  0  0  0  0  0  0  0
  189.0140  177.6290  148.0800 C   0  0  0  0  0  3  0  0  0  0  0  0
  187.6760  178.0280  148.0820 C   0  0  0  0  0  3  0  0  0  0  0  0
  190.9630  176.6820  144.5170 C   0  0  0  0  0  3  0  0  0  0  0  0
  189.6520  177.3140  146.8770 C   0  0  0  0  0  0  0  0  0  0  0  0
  191.6130  176.6060  145.7490 C   0  0  0  0  0  3  0  0  0  0  0  0
  186.9680  178.1050  146.8820 C   0  0  0  0  0  3  0  0  0  0  0  0
  189.6290  177.0880  144.4460 C   0  0  0  0  0  0  0  0  0  0  0  0
  188.0880  178.1400  139.9860 C   0  0  0  0  0  2  0  0  0  0  0  0
  188.9260  178.9270  139.1930 O   0  0  0  0  0  0  0  0  0  0  0  0
  188.6770  178.5080  137.8840 C   0  0  0  0  0  2  0  0  0  0  0  0
  188.4040  177.0160  137.8650 C   0  0  0  0  0  2  0  0  0  0  0  0
  189.4420  176.3300  137.1080 N   0  0  0  0  0  0  0  0  0  0  0  0
  190.5660  175.7190  137.7690 C   0  0  0  0  0  0  0  0  0  0  0  0
  189.3190  176.2810  135.6520 C   0  0  0  0  0  2  0  0  0  0  0  0
  192.8260  174.6310  137.6010 C   0  0  0  0  0  1  0  0  0  0  0  0
  190.6480  175.7300  139.0280 O   0  0  0  0  0  0  0  0  0  0  0  0
  191.6030  175.1190  136.9810 N   0  0  0  0  0  0  0  0  0  0  0  0
  190.6900  176.2050  134.9850 C   0  0  0  0  0  2  0  0  0  0  0  0
  191.4510  175.0040  135.5340 C   0  0  0  0  0  2  0  0  0  0  0  0
  1 19  1  6  0  0  0
  1  7  1  0  0  0  0
  1  2  1  0  0  0  0
  3  2  1  0  0  0  0
  3  4  1  0  0  0  0
  4  6  1  0  0  0  0
  6  5  1  0  0  0  0
  7  8  1  0  0  0  0
  8 18  1  0  0  0  0
  9 10  2  0  0  0  0
  9 15  1  0  0  0  0
 10 17  1  0  0  0  0
 12 13  1  0  0  0  0
 14 16  1  0  0  0  0
 15 11  1  0  0  0  0
 15 12  2  0  0  0  0
 16 11  2  0  0  0  0
 17 13  2  0  0  0  0
 18 14  2  0  0  0  0
 18  9  1  0  0  0  0
 20 19  1  0  0  0  0
 21 20  1  0  0  0  0
 22 21  1  0  0  0  0
 23 24  1  0  0  0  0
 23 22  1  0  0  0  0
 24 27  2  0  0  0  0
 25 23  1  0  0  0  0
 28 26  1  0  0  0  0
 28 24  1  0  0  0  0
 29 30  1  0  0  0  0
 29 25  1  0  0  0  0
 30 28  1  0  0  0  0
M  END
>  <MODEL>
4

>  <REMARK>
 VINA RESULT:      -7.6      2.141      5.028
  Name = 
  12 active torsions:
  status: ('A' for Active; 'I' for Inactive)
    1  A    between atoms: C_3  and  N_19
    2  A    between atoms: C_3  and  C_20
    3  A    between atoms: N_4  and  C_24
    4  A    between atoms: O_5  and  C_13
    5  A    between atoms: O_5  and  C_26
    6  A    between atoms: C_10  and  N_19
    7  A    between atoms: C_10  and  C_22
    8  A    between atoms: C_10  and  C_26
    9  A    between atoms: C_13  and  C_24
   10  A    between atoms: C_18  and  C_20
   11  A    between atoms: C_22  and  O_29
   12  A    between atoms: O_29  and  C_30
                            x       y       z     vdW  Elec       q    Type
                         _______ _______ _______ _____ _____    ______ ____

>  <TORSDO>
F 12

$$$$
=
 OpenBabel10232408243D

 30 32  0  0  1  0  0  0  0  0999 V2000
  188.8130  177.3380  141.0120 C   0  0  1  0  0  3  0  0  0  0  0  0
  190.1440  177.0180  141.5010 N   0  0  0  0  0  2  0  0  0  0  0  0
  189.9970  176.1450  142.6510 C   0  0  0  0  0  2  0  0  0  0  0  0
  191.0110  176.5360  143.7050 C   0  0  0  0  0  2  0  0  0  0  0  0
  191.0890  178.9640  144.1730 C   0  0  0  0  0  1  0  0  0  0  0  0
  191.6630  177.8490  143.3230 C   0  0  0  0  0  2  0  0  0  0  0  0
  188.1010  178.2270  142.0260 C   0  0  0  0  0  2  0  0  0  0  0  0
  186.9160  177.5950  142.5000 O   0  0  0  0  0  0  0  0  0  0  0  0
  186.5030  178.0790  144.9170 C   0  0  0  0  0  0  0  0  0  0  0  0
  187.7660  177.6440  145.3500 C   0  0  0  0  0  3  0  0  0  0  0  0
  184.3760  179.0470  145.4940 N   0  0  0  0  0  0  0  0  0  0  0  0
  185.9490  178.6260  147.2320 C   0  0  0  0  0  3  0  0  0  0  0  0
  187.2020  178.1690  147.6430 C   0  0  0  0  0  3  0  0  0  0  0  0
  184.8490  178.5420  143.2100 C   0  0  0  0  0  3  0  0  0  0  0  0
  185.5960  178.5920  145.8790 C   0  0  0  0  0  0  0  0  0  0  0  0
  183.9900  179.0330  144.1930 C   0  0  0  0  0  3  0  0  0  0  0  0
  188.1120  177.6830  146.7020 C   0  0  0  0  0  3  0  0  0  0  0  0
  186.1120  178.0560  143.5530 C   0  0  0  0  0  0  0  0  0  0  0  0
  188.9100  178.0270  139.6540 C   0  0  0  0  0  2  0  0  0  0  0  0
  189.2020  177.0950  138.6560 O   0  0  0  0  0  0  0  0  0  0  0  0
  187.9810  176.8520  138.0250 C   0  0  0  0  0  2  0  0  0  0  0  0
  187.2730  178.1660  137.7510 C   0  0  0  0  0  2  0  0  0  0  0  0
  185.8310  177.9660  137.7630 N   0  0  0  0  0  0  0  0  0  0  0  0
  185.0180  178.4720  138.8390 C   0  0  0  0  0  0  0  0  0  0  0  0
  185.2240  177.2320  136.6540 C   0  0  0  0  0  2  0  0  0  0  0  0
  182.7860  178.5470  139.9920 C   0  0  0  0  0  1  0  0  0  0  0  0
  185.5410  179.1390  139.7740 O   0  0  0  0  0  0  0  0  0  0  0  0
  183.6110  178.1890  138.8490 N   0  0  0  0  0  0  0  0  0  0  0  0
  183.9560  176.5100  137.1000 C   0  0  0  0  0  2  0  0  0  0  0  0
  182.9900  177.5190  137.7120 C   0  0  0  0  0  2  0  0  0  0  0  0
  1 19  1  6  0  0  0
  1  2  1  0  0  0  0
  1  7  1  0  0  0  0
  2  3  1  0  0  0  0
  3  4  1  0  0  0  0
  6  4  1  0  0  0  0
  6  5  1  0  0  0  0
  7  8  1  0  0  0  0
  8 18  1  0  0  0  0
  9 10  2  0  0  0  0
  9 15  1  0  0  0  0
 10 17  1  0  0  0  0
 11 15  1  0  0  0  0
 12 13  1  0  0  0  0
 14 18  2  0  0  0  0
 14 16  1  0  0  0  0
 15 12  2  0  0  0  0
 16 11  2  0  0  0  0
 17 13  2  0  0  0  0
 18  9  1  0  0  0  0
 20 19  1  0  0  0  0
 21 20  1  0  0  0  0
 22 23  1  0  0  0  0
 22 21  1  0  0  0  0
 23 24  1  0  0  0  0
 24 28  1  0  0  0  0
 24 27  2  0  0  0  0
 25 29  1  0  0  0  0
 25 23  1  0  0  0  0
 28 26  1  0  0  0  0
 29 30  1  0  0  0  0
 30 28  1  0  0  0  0
M  END
>  <MODEL>
5

>  <REMARK>
 VINA RESULT:      -7.4      1.645      3.027
  Name = 
  12 active torsions:
  status: ('A' for Active; 'I' for Inactive)
    1  A    between atoms: C_3  and  N_19
    2  A    between atoms: C_3  and  C_20
    3  A    between atoms: N_4  and  C_24
    4  A    between atoms: O_5  and  C_13
    5  A    between atoms: O_5  and  C_26
    6  A    between atoms: C_10  and  N_19
    7  A    between atoms: C_10  and  C_22
    8  A    between atoms: C_10  and  C_26
    9  A    between atoms: C_13  and  C_24
   10  A    between atoms: C_18  and  C_20
   11  A    between atoms: C_22  and  O_29
   12  A    between atoms: O_29  and  C_30
                            x       y       z     vdW  Elec       q    Type
                         _______ _______ _______ _____ _____    ______ ____

>  <TORSDO>
F 12

$$$$
=
 OpenBabel10232408243D

 30 32  0  0  1  0  0  0  0  0999 V2000
  190.2560  176.9150  143.2440 C   0  0  1  0  0  3  0  0  0  0  0  0
  191.4880  177.5390  143.6960 N   0  0  0  0  0  2  0  0  0  0  0  0
  191.4880  177.5210  145.1470 C   0  0  0  0  0  2  0  0  0  0  0  0
  191.9540  176.1630  145.6280 C   0  0  0  0  0  2  0  0  0  0  0  0
  190.4850  176.9170  147.4700 C   0  0  0  0  0  1  0  0  0  0  0  0
  191.6390  176.0080  147.1020 C   0  0  0  0  0  2  0  0  0  0  0  0
  189.0810  177.8430  143.5370 C   0  0  0  0  0  2  0  0  0  0  0  0
  188.0380  177.1370  144.2010 O   0  0  0  0  0  0  0  0  0  0  0  0
  185.7720  178.1620  144.4380 C   0  0  0  0  0  0  0  0  0  0  0  0
  185.4370  178.0430  143.0790 C   0  0  0  0  0  3  0  0  0  0  0  0
  185.0930  178.8240  146.6500 N   0  0  0  0  0  0  0  0  0  0  0  0
  183.5820  179.1650  144.8410 C   0  0  0  0  0  3  0  0  0  0  0  0
  183.2790  179.0560  143.4830 C   0  0  0  0  0  3  0  0  0  0  0  0
  187.2470  177.8460  146.3330 C   0  0  0  0  0  3  0  0  0  0  0  0
  184.8150  178.7170  145.3250 C   0  0  0  0  0  0  0  0  0  0  0  0
  186.2750  178.4030  147.1650 C   0  0  0  0  0  3  0  0  0  0  0  0
  184.2040  178.4900  142.6030 C   0  0  0  0  0  3  0  0  0  0  0  0
  187.0140  177.7210  144.9620 C   0  0  0  0  0  0  0  0  0  0  0  0
  190.3470  176.6030  141.7530 C   0  0  0  0  0  2  0  0  0  0  0  0
  191.3830  177.3350  141.1670 O   0  0  0  0  0  0  0  0  0  0  0  0
  191.2340  177.1300  139.7940 C   0  0  0  0  0  2  0  0  0  0  0  0
  190.0440  177.9200  139.2830 C   0  0  0  0  0  2  0  0  0  0  0  0
  189.5290  177.3110  138.0650 N   0  0  0  0  0  0  0  0  0  0  0  0
  188.6740  178.0460  137.1680 C   0  0  0  0  0  0  0  0  0  0  0  0
  189.8990  175.9270  137.7720 C   0  0  0  0  0  2  0  0  0  0  0  0
  187.1410  178.0420  135.1760 C   0  0  0  0  0  1  0  0  0  0  0  0
  188.3900  179.2530  137.4040 O   0  0  0  0  0  0  0  0  0  0  0  0
  188.1290  177.3850  136.0170 N   0  0  0  0  0  0  0  0  0  0  0  0
  188.8160  175.2290  136.9540 C   0  0  0  0  0  2  0  0  0  0  0  0
  188.5500  176.0290  135.6830 C   0  0  0  0  0  2  0  0  0  0  0  0
  1 19  1  6  0  0  0
  1  7  1  0  0  0  0
  1  2  1  0  0  0  0
  2  3  1  0  0  0  0
  3  4  1  0  0  0  0
  4  6  1  0  0  0  0
  6  5  1  0  0  0  0
  7  8  1  0  0  0  0
  8 18  1  0  0  0  0
  9 18  2  0  0  0  0
  9 15  1  0  0  0  0
 10  9  1  0  0  0  0
 11 16  1  0  0  0  0
 12 15  1  0  0  0  0
 13 12  2  0  0  0  0
 14 16  2  0  0  0  0
 15 11  2  0  0  0  0
 17 10  2  0  0  0  0
 17 13  1  0  0  0  0
 18 14  1  0  0  0  0
 20 19  1  0  0  0  0
 21 20  1  0  0  0  0
 22 21  1  0  0  0  0
 23 22  1  0  0  0  0
 24 27  2  0  0  0  0
 24 23  1  0  0  0  0
 25 23  1  0  0  0  0
 26 28  1  0  0  0  0
 28 24  1  0  0  0  0
 29 25  1  0  0  0  0
 30 28  1  0  0  0  0
 30 29  1  0  0  0  0
M  END
>  <MODEL>
6

>  <REMARK>
 VINA RESULT:      -7.4      1.434      1.639
  Name = 
  12 active torsions:
  status: ('A' for Active; 'I' for Inactive)
    1  A    between atoms: C_3  and  N_19
    2  A    between atoms: C_3  and  C_20
    3  A    between atoms: N_4  and  C_24
    4  A    between atoms: O_5  and  C_13
    5  A    between atoms: O_5  and  C_26
    6  A    between atoms: C_10  and  N_19
    7  A    between atoms: C_10  and  C_22
    8  A    between atoms: C_10  and  C_26
    9  A    between atoms: C_13  and  C_24
   10  A    between atoms: C_18  and  C_20
   11  A    between atoms: C_22  and  O_29
   12  A    between atoms: O_29  and  C_30
                            x       y       z     vdW  Elec       q    Type
                         _______ _______ _______ _____ _____    ______ ____

>  <TORSDO>
F 12

$$$$
=
 OpenBabel10232408243D

 30 32  0  0  1  0  0  0  0  0999 V2000
  190.1020  176.9150  143.2770 C   0  0  1  0  0  3  0  0  0  0  0  0
  191.4190  177.4930  143.4880 N   0  0  0  0  0  2  0  0  0  0  0  0
  191.6000  177.6720  144.9170 C   0  0  0  0  0  2  0  0  0  0  0  0
  191.5700  176.3190  145.5960 C   0  0  0  0  0  2  0  0  0  0  0  0
  192.4690  175.7900  147.8390 C   0  0  0  0  0  1  0  0  0  0  0  0
  191.3630  176.5000  147.0860 C   0  0  0  0  0  2  0  0  0  0  0  0
  189.0360  177.8900  143.7650 C   0  0  0  0  0  2  0  0  0  0  0  0
  187.9180  177.1850  144.2950 O   0  0  0  0  0  0  0  0  0  0  0  0
  185.6320  178.1780  144.4860 C   0  0  0  0  0  0  0  0  0  0  0  0
  185.3260  178.0530  143.1210 C   0  0  0  0  0  3  0  0  0  0  0  0
  184.9010  178.8310  146.6840 N   0  0  0  0  0  0  0  0  0  0  0  0
  183.4210  179.1500  144.8460 C   0  0  0  0  0  3  0  0  0  0  0  0
  183.1460  179.0350  143.4820 C   0  0  0  0  0  3  0  0  0  0  0  0
  187.0740  177.8850  146.4100 C   0  0  0  0  0  3  0  0  0  0  0  0
  184.6500  178.7200  145.3530 C   0  0  0  0  0  0  0  0  0  0  0  0
  186.0790  178.4280  147.2220 C   0  0  0  0  0  3  0  0  0  0  0  0
  184.0960  178.4820  142.6210 C   0  0  0  0  0  3  0  0  0  0  0  0
  186.8710  177.7550  145.0340 C   0  0  0  0  0  0  0  0  0  0  0  0
  189.9090  176.5910  141.7980 C   0  0  0  0  0  2  0  0  0  0  0  0
  189.6460  177.7570  141.0760 O   0  0  0  0  0  0  0  0  0  0  0  0
  189.8630  177.4090  139.7420 C   0  0  0  0  0  2  0  0  0  0  0  0
  191.2710  176.8680  139.5740 C   0  0  0  0  0  2  0  0  0  0  0  0
  191.4820  176.4500  138.1960 N   0  0  0  0  0  0  0  0  0  0  0  0
  192.8040  176.4100  137.6240 C   0  0  0  0  0  0  0  0  0  0  0  0
  190.3160  176.0740  137.4000 C   0  0  0  0  0  2  0  0  0  0  0  0
  194.2560  176.1630  135.5860 C   0  0  0  0  0  1  0  0  0  0  0  0
  193.8120  176.6970  138.3260 O   0  0  0  0  0  0  0  0  0  0  0  0
  192.9600  176.0630  136.2400 N   0  0  0  0  0  0  0  0  0  0  0  0
  190.5490  176.3480  135.9160 C   0  0  0  0  0  2  0  0  0  0  0  0
  191.8090  175.6190  135.4610 C   0  0  0  0  0  2  0  0  0  0  0  0
  1 19  1  6  0  0  0
  1  2  1  0  0  0  0
  1  7  1  0  0  0  0
  2  3  1  0  0  0  0
  3  4  1  0  0  0  0
  4  6  1  0  0  0  0
  6  5  1  0  0  0  0
  7  8  1  0  0  0  0
  8 18  1  0  0  0  0
  9 18  2  0  0  0  0
  9 15  1  0  0  0  0
 10  9  1  0  0  0  0
 11 16  1  0  0  0  0
 12 15  1  0  0  0  0
 13 12  2  0  0  0  0
 14 16  2  0  0  0  0
 15 11  2  0  0  0  0
 17 10  2  0  0  0  0
 17 13  1  0  0  0  0
 18 14  1  0  0  0  0
 20 19  1  0  0  0  0
 21 20  1  0  0  0  0
 22 21  1  0  0  0  0
 23 22  1  0  0  0  0
 24 23  1  0  0  0  0
 24 27  2  0  0  0  0
 25 23  1  0  0  0  0
 26 28  1  0  0  0  0
 28 24  1  0  0  0  0
 29 25  1  0  0  0  0
 30 29  1  0  0  0  0
 30 28  1  0  0  0  0
M  END
>  <MODEL>
7

>  <REMARK>
 VINA RESULT:      -7.4      2.126      3.337
  Name = 
  12 active torsions:
  status: ('A' for Active; 'I' for Inactive)
    1  A    between atoms: C_3  and  N_19
    2  A    between atoms: C_3  and  C_20
    3  A    between atoms: N_4  and  C_24
    4  A    between atoms: O_5  and  C_13
    5  A    between atoms: O_5  and  C_26
    6  A    between atoms: C_10  and  N_19
    7  A    between atoms: C_10  and  C_22
    8  A    between atoms: C_10  and  C_26
    9  A    between atoms: C_13  and  C_24
   10  A    between atoms: C_18  and  C_20
   11  A    between atoms: C_22  and  O_29
   12  A    between atoms: O_29  and  C_30
                            x       y       z     vdW  Elec       q    Type
                         _______ _______ _______ _____ _____    ______ ____

>  <TORSDO>
F 12

$$$$
=
 OpenBabel10232408243D

 30 32  0  0  1  0  0  0  0  0999 V2000
  188.5430  177.7440  141.0400 C   0  0  1  0  0  3  0  0  0  0  0  0
  189.7560  177.7310  141.8410 N   0  0  0  0  0  2  0  0  0  0  0  0
  190.1440  176.3460  142.0360 C   0  0  0  0  0  2  0  0  0  0  0  0
  190.5220  176.1350  143.4870 C   0  0  0  0  0  2  0  0  0  0  0  0
  191.5160  177.1870  145.4940 C   0  0  0  0  0  1  0  0  0  0  0  0
  191.1670  177.3930  144.0340 C   0  0  0  0  0  2  0  0  0  0  0  0
  187.4680  178.5480  141.7640 C   0  0  0  0  0  2  0  0  0  0  0  0
  186.6610  177.6940  142.5690 O   0  0  0  0  0  0  0  0  0  0  0  0
  186.3590  178.1120  145.0140 C   0  0  0  0  0  0  0  0  0  0  0  0
  187.6610  177.7240  145.3700 C   0  0  0  0  0  3  0  0  0  0  0  0
  184.2260  178.9740  145.7250 N   0  0  0  0  0  0  0  0  0  0  0  0
  185.9080  178.5890  147.3670 C   0  0  0  0  0  3  0  0  0  0  0  0
  187.1990  178.1790  147.7000 C   0  0  0  0  0  3  0  0  0  0  0  0
  184.5960  178.5360  143.4080 C   0  0  0  0  0  3  0  0  0  0  0  0
  185.4850  178.5660  146.0350 C   0  0  0  0  0  0  0  0  0  0  0  0
  183.7720  178.9690  144.4460 C   0  0  0  0  0  3  0  0  0  0  0  0
  188.0780  177.7520  146.7020 C   0  0  0  0  0  3  0  0  0  0  0  0
  185.8960  178.0990  143.6730 C   0  0  0  0  0  0  0  0  0  0  0  0
  188.8350  178.3350  139.6650 C   0  0  0  0  0  2  0  0  0  0  0  0
  187.6730  178.3590  138.8900 O   0  0  0  0  0  0  0  0  0  0  0  0
  188.0730  177.9100  137.6300 C   0  0  0  0  0  2  0  0  0  0  0  0
  188.2150  176.4000  137.6440 C   0  0  0  0  0  2  0  0  0  0  0  0
  189.3610  176.0010  136.8380 N   0  0  0  0  0  0  0  0  0  0  0  0
  190.5820  175.5470  137.4530 C   0  0  0  0  0  0  0  0  0  0  0  0
  189.2440  176.0780  135.3830 C   0  0  0  0  0  2  0  0  0  0  0  0
  193.0050  174.9240  137.2120 C   0  0  0  0  0  1  0  0  0  0  0  0
  190.6640  175.4450  138.7080 O   0  0  0  0  0  0  0  0  0  0  0  0
  191.7110  175.2340  136.6250 N   0  0  0  0  0  0  0  0  0  0  0  0
  190.6030  176.3280  134.7340 C   0  0  0  0  0  2  0  0  0  0  0  0
  191.5790  175.2410  135.1720 C   0  0  0  0  0  2  0  0  0  0  0  0
  1 19  1  6  0  0  0
  1  7  1  0  0  0  0
  1  2  1  0  0  0  0
  2  3  1  0  0  0  0
  3  4  1  0  0  0  0
  4  6  1  0  0  0  0
  6  5  1  0  0  0  0
  7  8  1  0  0  0  0
  8 18  1  0  0  0  0
  9 10  2  0  0  0  0
  9 15  1  0  0  0  0
 10 17  1  0  0  0  0
 11 15  1  0  0  0  0
 12 13  1  0  0  0  0
 14 18  2  0  0  0  0
 14 16  1  0  0  0  0
 15 12  2  0  0  0  0
 16 11  2  0  0  0  0
 17 13  2  0  0  0  0
 18  9  1  0  0  0  0
 20 19  1  0  0  0  0
 21 22  1  0  0  0  0
 21 20  1  0  0  0  0
 23 24  1  0  0  0  0
 23 22  1  0  0  0  0
 24 27  2  0  0  0  0
 25 23  1  0  0  0  0
 28 26  1  0  0  0  0
 28 24  1  0  0  0  0
 29 30  1  0  0  0  0
 29 25  1  0  0  0  0
 30 28  1  0  0  0  0
M  END
>  <MODEL>
8

>  <REMARK>
 VINA RESULT:      -7.3      1.907      3.800
  Name = 
  12 active torsions:
  status: ('A' for Active; 'I' for Inactive)
    1  A    between atoms: C_3  and  N_19
    2  A    between atoms: C_3  and  C_20
    3  A    between atoms: N_4  and  C_24
    4  A    between atoms: O_5  and  C_13
    5  A    between atoms: O_5  and  C_26
    6  A    between atoms: C_10  and  N_19
    7  A    between atoms: C_10  and  C_22
    8  A    between atoms: C_10  and  C_26
    9  A    between atoms: C_13  and  C_24
   10  A    between atoms: C_18  and  C_20
   11  A    between atoms: C_22  and  O_29
   12  A    between atoms: O_29  and  C_30
                            x       y       z     vdW  Elec       q    Type
                         _______ _______ _______ _____ _____    ______ ____

>  <TORSDO>
F 12

$$$$
=
 OpenBabel10232408243D

 30 32  0  0  1  0  0  0  0  0999 V2000
  186.0090  179.1470  141.5020 C   0  0  1  0  0  3  0  0  0  0  0  0
  185.3400  179.5350  142.7320 N   0  0  0  0  0  2  0  0  0  0  0  0
  184.3340  178.5300  143.0260 C   0  0  0  0  0  2  0  0  0  0  0  0
  183.8800  178.6870  144.4620 C   0  0  0  0  0  2  0  0  0  0  0  0
  185.0390  178.4190  146.6310 C   0  0  0  0  0  1  0  0  0  0  0  0
  185.0370  179.1670  145.3140 C   0  0  0  0  0  2  0  0  0  0  0  0
  187.0300  178.0550  141.8040 C   0  0  0  0  0  2  0  0  0  0  0  0
  187.6740  178.3020  143.0500 O   0  0  0  0  0  0  0  0  0  0  0  0
  189.3940  177.5720  144.7090 C   0  0  0  0  0  0  0  0  0  0  0  0
  188.5320  177.6270  145.8160 C   0  0  0  0  0  3  0  0  0  0  0  0
  191.5880  177.0600  143.8610 N   0  0  0  0  0  0  0  0  0  0  0  0
  191.1840  176.8310  146.1960 C   0  0  0  0  0  3  0  0  0  0  0  0
  190.3150  176.9120  147.2860 C   0  0  0  0  0  3  0  0  0  0  0  0
  189.8880  177.7750  142.3460 C   0  0  0  0  0  3  0  0  0  0  0  0
  190.7330  177.1500  144.9120 C   0  0  0  0  0  0  0  0  0  0  0  0
  191.1960  177.3590  142.5970 C   0  0  0  0  0  3  0  0  0  0  0  0
  188.9880  177.3040  147.0950 C   0  0  0  0  0  3  0  0  0  0  0  0
  188.9710  177.8920  143.3930 C   0  0  0  0  0  0  0  0  0  0  0  0
  184.9820  178.6680  140.4810 C   0  0  0  0  0  2  0  0  0  0  0  0
  185.2800  179.1800  139.2160 O   0  0  0  0  0  0  0  0  0  0  0  0
  185.4620  178.0560  138.4080 C   0  0  0  0  0  2  0  0  0  0  0  0
  186.5350  178.3360  137.3720 C   0  0  0  0  0  2  0  0  0  0  0  0
  187.6190  177.3730  137.5050 N   0  0  0  0  0  0  0  0  0  0  0  0
  188.8080  177.6890  138.2540 C   0  0  0  0  0  0  0  0  0  0  0  0
  187.4730  176.0730  136.8540 C   0  0  0  0  0  2  0  0  0  0  0  0
  191.1580  177.0820  138.9100 C   0  0  0  0  0  1  0  0  0  0  0  0
  188.9120  178.7980  138.8470 O   0  0  0  0  0  0  0  0  0  0  0  0
  189.8830  176.7400  138.2980 N   0  0  0  0  0  0  0  0  0  0  0  0
  188.8330  175.4940  136.4700 C   0  0  0  0  0  2  0  0  0  0  0  0
  189.7160  175.4150  137.7110 C   0  0  0  0  0  2  0  0  0  0  0  0
  1 19  1  6  0  0  0
  1  7  1  0  0  0  0
  1  2  1  0  0  0  0
  2  3  1  0  0  0  0
  3  4  1  0  0  0  0
  4  6  1  0  0  0  0
  6  5  1  0  0  0  0
  7  8  1  0  0  0  0
  8 18  1  0  0  0  0
  9 15  1  0  0  0  0
  9 10  2  0  0  0  0
 10 17  1  0  0  0  0
 11 15  1  0  0  0  0
 12 13  1  0  0  0  0
 14 16  1  0  0  0  0
 14 18  2  0  0  0  0
 15 12  2  0  0  0  0
 16 11  2  0  0  0  0
 17 13  2  0  0  0  0
 18  9  1  0  0  0  0
 20 19  1  0  0  0  0
 21 20  1  0  0  0  0
 22 23  1  0  0  0  0
 22 21  1  0  0  0  0
 23 24  1  0  0  0  0
 24 28  1  0  0  0  0
 24 27  2  0  0  0  0
 25 23  1  0  0  0  0
 28 26  1  0  0  0  0
 29 25  1  0  0  0  0
 29 30  1  0  0  0  0
 30 28  1  0  0  0  0
M  END
>  <MODEL>
9

>  <REMARK>
 VINA RESULT:      -7.3      1.599      5.244
  Name = 
  12 active torsions:
  status: ('A' for Active; 'I' for Inactive)
    1  A    between atoms: C_3  and  N_19
    2  A    between atoms: C_3  and  C_20
    3  A    between atoms: N_4  and  C_24
    4  A    between atoms: O_5  and  C_13
    5  A    between atoms: O_5  and  C_26
    6  A    between atoms: C_10  and  N_19
    7  A    between atoms: C_10  and  C_22
    8  A    between atoms: C_10  and  C_26
    9  A    between atoms: C_13  and  C_24
   10  A    between atoms: C_18  and  C_20
   11  A    between atoms: C_22  and  O_29
   12  A    between atoms: O_29  and  C_30
                            x       y       z     vdW  Elec       q    Type
                         _______ _______ _______ _____ _____    ______ ____

>  <TORSDO>
F 12

$$$$
