=
 OpenBabel10222421283D

 69 74  0  0  1  0  0  0  0  0999 V2000
  187.4330  178.3310  141.6720 C   0  0  0  0  0  3  0  0  0  0  0  0
  187.1830  177.9740  142.9400 C   0  0  0  0  0  0  0  0  0  0  0  0
  189.6720  176.6930  145.4070 C   0  0  0  0  0  2  0  0  0  0  0  0
  188.2080  177.9740  144.0390 C   0  0  1  0  0  3  0  0  0  0  0  0
  189.0990  177.6120  147.4750 C   0  0  0  0  0  1  0  0  0  0  0  0
  188.5330  177.0650  146.2550 N   0  0  0  0  0  0  0  0  0  0  0  0
  187.8650  178.1610  145.5380 C   0  0  2  0  0  3  0  0  0  0  0  0
  189.1840  176.8210  143.9770 C   0  0  0  0  0  2  0  0  0  0  0  0
  185.7110  177.2480  146.0330 O   0  0  0  0  0  0  0  0  0  0  0  0
  185.8500  179.5060  146.3460 O   0  0  0  0  0  1  0  0  0  0  0  0
  186.4180  178.2900  145.9850 C   0  0  0  0  0  0  0  0  0  0  0  0
  185.7590  177.8640  143.3760 C   0  0  0  0  0  2  0  0  0  0  0  0
  184.9330  177.8450  142.2430 O   0  0  0  0  0  0  0  0  0  0  0  0
  183.6760  178.3280  142.6640 C   0  0  2  0  0  3  0  0  0  0  0  0
  181.4660  178.8350  141.8820 C   0  0  0  0  0  2  0  0  0  0  0  0
  180.7590  177.8200  141.0140 C   0  0  0  0  0  2  0  0  0  0  0  0
  181.6650  177.6820  139.8220 C   0  0  1  0  0  3  0  0  0  0  0  0
  183.0480  178.0300  140.3390 C   0  0  0  0  0  2  0  0  0  0  0  0
  182.8800  178.8700  141.5300 N   0  0  0  0  0  0  0  0  0  0  0  0
  183.6980  174.2810  138.0360 N   0  0  0  0  0  0  0  0  0  0  0  0
  182.5120  174.7970  137.4510 C   0  0  0  0  0  0  0  0  0  0  0  0
  180.9440  175.4110  134.9730 N   0  0  0  0  0  2  0  0  0  0  0  0
  180.8470  174.1530  135.7080 C   0  0  0  0  0  2  0  0  0  0  0  0
  180.4690  176.4830  135.8440 C   0  0  0  0  0  2  0  0  0  0  0  0
  181.3920  175.3160  139.9710 O   0  0  0  0  0  0  0  0  0  0  0  0
  181.5840  176.2990  139.1900 C   0  0  0  0  0  0  0  0  0  0  0  0
  182.0730  173.9750  136.5410 C   0  0  0  0  0  0  0  0  0  0  0  0
  181.5950  177.0010  136.7530 C   0  0  0  0  0  2  0  0  0  0  0  0
  182.9750  172.8750  136.4940 N   0  0  0  0  0  0  0  0  0  0  0  0
  181.8990  176.0400  137.8120 N   0  0  0  0  0  0  0  0  0  0  0  0
  184.0500  173.0820  137.3870 N   0  0  0  0  0  0  0  0  0  0  0  0
  183.1240  172.0440  135.2980 C   0  0  0  0  0  2  0  0  0  0  0  0
  184.3030  171.1050  135.4360 C   0  0  0  0  0  1  0  0  0  0  0  0
  183.8730  179.3550  143.7910 C   0  0  0  0  0  2  0  0  0  0  0  0
  183.0340  179.0670  144.8870 O   0  0  0  0  0  1  0  0  0  0  0  0
  188.7830  178.7040  141.1260 C   0  0  0  0  0  2  0  0  0  0  0  0
  189.9920  176.6980  140.5750 O   0  0  0  0  0  1  0  0  0  0  0  0
  189.2150  177.7370  140.0280 C   0  0  1  0  0  3  0  0  0  0  0  0
  188.0790  177.2070  139.4030 O   0  0  0  0  0  0  0  0  0  0  0  0
  188.3190  177.2940  138.0250 C   0  0  2  0  0  3  0  0  0  0  0  0
  186.9110  177.7720  135.9130 C   0  0  0  0  0  2  0  0  0  0  0  0
  187.3260  178.2210  137.3120 C   0  0  1  0  0  3  0  0  0  0  0  0
  185.0620  177.4640  137.4320 N   0  0  0  0  0  2  0  0  0  0  0  0
  185.4280  177.4720  136.0310 C   0  0  2  0  0  3  0  0  0  0  0  0
  186.0480  178.3090  138.0990 C   0  0  0  0  0  2  0  0  0  0  0  0
  186.1470  175.7840  134.3490 C   0  0  0  0  0  1  0  0  0  0  0  0
  185.1420  176.1090  135.4340 C   0  0  0  0  0  2  0  0  0  0  0  0
  188.2290  175.8930  137.3990 C   0  0  0  0  0  2  0  0  0  0  0  0
  189.4720  175.4840  136.6470 C   0  0  0  0  0  0  0  0  0  0  0  0
  189.3700  175.0890  135.4560 O   0  0  0  0  0  0  0  0  0  0  0  0
  190.7460  175.5650  137.1930 O   0  0  0  0  0  0  0  0  0  0  0  0
  191.8990  175.9760  136.4630 C   0  0  0  0  0  2  0  0  0  0  0  0
  195.1310  173.1920  136.9050 C   0  0  0  0  0  0  0  0  0  0  0  0
  193.7610  174.9770  137.8650 C   0  0  0  0  0  0  0  0  0  0  0  0
  194.2940  173.2130  135.7740 C   0  0  0  0  0  0  0  0  0  0  0  0
  194.8480  174.0750  137.9690 C   0  0  0  0  0  0  0  0  0  0  0  0
  192.9810  174.9600  136.7030 C   0  0  0  0  0  0  0  0  0  0  0  0
  195.6470  174.0300  139.1590 N   0  0  0  0  0  1  0  0  0  0  0  0
  193.2660  174.0860  135.7090 N   0  0  0  0  0  0  0  0  0  0  0  0
  194.4780  172.3030  134.6110 C   0  0  0  0  0  1  0  0  0  0  0  0
  193.7950  177.0810  139.0490 O   0  0  0  0  0  0  0  0  0  0  0  0
  193.3540  175.9020  138.9590 C   0  0  0  0  0  3  0  0  0  0  0  0
  196.2160  172.1470  137.1270 C   0  0  2  0  0  3  0  0  0  0  0  0
  198.0250  171.1040  135.8930 O   0  0  0  0  0  1  0  0  0  0  0  0
  197.5600  172.3230  136.3890 C   0  0  2  0  0  3  0  0  0  0  0  0
  199.6990  172.0860  137.4500 O   0  0  0  0  0  1  0  0  0  0  0  0
  198.6130  172.9500  137.3070 C   0  0  0  0  0  2  0  0  0  0  0  0
  195.7660  170.8090  137.2600 O   0  0  0  0  0  0  0  0  0  0  0  0
  195.3490  170.6620  138.5050 O   0  0  0  0  0  1  0  0  0  0  0  0
  1  2  2  0  0  0  0
  2 12  1  0  0  0  0
  3  6  1  0  0  0  0
  4  2  1  6  0  0  0
  4  7  1  0  0  0  0
  6  5  1  0  0  0  0
  7 11  1  6  0  0  0
  7  6  1  0  0  0  0
  8  4  1  0  0  0  0
  8  3  1  0  0  0  0
 11  9  2  0  0  0  0
 11 10  1  0  0  0  0
 13 14  1  0  0  0  0
 13 12  1  0  0  0  0
 14 34  1  1  0  0  0
 16 15  1  0  0  0  0
 17 26  1  1  0  0  0
 17 18  1  0  0  0  0
 17 16  1  0  0  0  0
 18 19  1  0  0  0  0
 19 15  1  0  0  0  0
 19 14  1  0  0  0  0
 21 30  1  0  0  0  0
 21 20  1  0  0  0  0
 22 23  1  0  0  0  0
 22 24  1  0  0  0  0
 23 27  1  0  0  0  0
 24 28  1  0  0  0  0
 26 25  2  0  0  0  0
 27 21  2  0  0  0  0
 28 30  1  0  0  0  0
 29 27  1  0  0  0  0
 29 31  1  0  0  0  0
 30 26  1  0  0  0  0
 31 20  2  0  0  0  0
 32 33  1  0  0  0  0
 32 29  1  0  0  0  0
 34 35  1  0  0  0  0
 36  1  1  0  0  0  0
 38 37  1  1  0  0  0
 38 36  1  0  0  0  0
 39 38  1  0  0  0  0
 40 48  1  6  0  0  0
 40 39  1  0  0  0  0
 41 44  1  0  0  0  0
 41 42  1  0  0  0  0
 42 40  1  1  0  0  0
 42 45  1  0  0  0  0
 43 45  1  0  0  0  0
 44 47  1  1  0  0  0
 44 43  1  0  0  0  0
 46 47  1  0  0  0  0
 49 51  1  0  0  0  0
 49 48  1  0  0  0  0
 50 49  2  0  0  0  0
 52 57  1  0  0  0  0
 52 51  1  0  0  0  0
 53 63  1  0  0  0  0
 53 56  1  0  0  0  0
 54 56  2  0  0  0  0
 54 62  1  0  0  0  0
 55 53  2  0  0  0  0
 56 58  1  0  0  0  0
 57 54  1  0  0  0  0
 59 55  1  0  0  0  0
 59 57  2  0  0  0  0
 60 55  1  0  0  0  0
 62 61  2  0  0  0  0
 63 68  1  6  0  0  0
 65 64  1  1  0  0  0
 65 63  1  0  0  0  0
 65 67  1  0  0  0  0
 67 66  1  0  0  0  0
 68 69  1  0  0  0  0
M  END
>  <MODEL>
1

>  <REMARK>
 VINA RESULT:      -6.3      0.000      0.000
  Name = 
  25 active torsions:
  status: ('A' for Active; 'I' for Inactive)
    1  A    between atoms: C_1  and  C_13
    2  A    between atoms: C_1  and  C_45
    3  A    between atoms: O_5  and  C_14
    4  A    between atoms: O_5  and  C_63
    5  A    between atoms: C_7  and  C_35
    6  A    between atoms: C_9  and  C_55
    7  A    between atoms: C_10  and  C_45
    8  A    between atoms: C_11  and  C_53
    9  A    between atoms: C_13  and  O_34
   10  A    between atoms: C_14  and  C_21
   11  A    between atoms: C_14  and  N_54
   12  A    between atoms: O_17  and  C_35
   13  A    between atoms: O_19  and  C_45
   14  A    between atoms: O_19  and  C_58
   15  A    between atoms: C_20  and  C_26
   16  A    between atoms: C_20  and  C_58
   17  A    between atoms: C_24  and  C_67
   18  A    between atoms: C_31  and  C_52
   19  A    between atoms: O_34  and  C_52
   20  A    between atoms: C_35  and  C_67
   21  A    between atoms: C_37  and  C_50
   22  A    between atoms: C_41  and  C_44
   23  A    between atoms: C_49  and  C_64
   24  A    between atoms: C_55  and  C_63
   25  A    between atoms: N_59  and  C_62
                            x       y       z     vdW  Elec       q    Type
                         _______ _______ _______ _____ _____    ______ ____

>  <TORSDO>
F 25

$$$$
=
 OpenBabel10222421283D

 69 74  0  0  1  0  0  0  0  0999 V2000
  188.1070  177.9070  142.5930 C   0  0  0  0  0  3  0  0  0  0  0  0
  187.5040  177.8930  143.7890 C   0  0  0  0  0  0  0  0  0  0  0  0
  189.3490  176.9450  146.8900 C   0  0  0  0  0  2  0  0  0  0  0  0
  188.2200  178.0330  145.1020 C   0  0  1  0  0  3  0  0  0  0  0  0
  188.2400  177.9700  148.6700 C   0  0  0  0  0  1  0  0  0  0  0  0
  188.0200  177.3040  147.3990 N   0  0  0  0  0  0  0  0  0  0  0  0
  187.5060  178.3040  146.4500 C   0  0  2  0  0  3  0  0  0  0  0  0
  189.2280  176.9410  145.3790 C   0  0  0  0  0  2  0  0  0  0  0  0
  185.4500  179.5010  146.6900 O   0  0  0  0  0  1  0  0  0  0  0  0
  185.1790  177.2540  146.3860 O   0  0  0  0  0  0  0  0  0  0  0  0
  185.9890  178.3750  146.5160 C   0  0  0  0  0  0  0  0  0  0  0  0
  186.0200  178.0580  143.8360 C   0  0  0  0  0  2  0  0  0  0  0  0
  185.5190  178.0650  142.5250 O   0  0  0  0  0  0  0  0  0  0  0  0
  184.1360  178.3200  142.6340 C   0  0  2  0  0  3  0  0  0  0  0  0
  182.1260  178.9990  141.5160 C   0  0  0  0  0  2  0  0  0  0  0  0
  181.4440  178.0110  140.5990 C   0  0  0  0  0  2  0  0  0  0  0  0
  182.4880  177.7130  139.5590 C   0  0  1  0  0  3  0  0  0  0  0  0
  183.8130  177.9510  140.2580 C   0  0  0  0  0  2  0  0  0  0  0  0
  183.5710  178.8720  141.3740 N   0  0  0  0  0  0  0  0  0  0  0  0
  184.3730  174.1780  137.8730 N   0  0  0  0  0  0  0  0  0  0  0  0
  183.1940  174.7120  137.2880 C   0  0  0  0  0  0  0  0  0  0  0  0
  181.6030  175.2840  134.8160 N   0  0  0  0  0  2  0  0  0  0  0  0
  181.4770  174.0590  135.6010 C   0  0  0  0  0  2  0  0  0  0  0  0
  181.1800  176.4040  135.6520 C   0  0  0  0  0  2  0  0  0  0  0  0
  182.1390  175.3650  139.8050 O   0  0  0  0  0  0  0  0  0  0  0  0
  182.3490  176.3100  138.9830 C   0  0  0  0  0  0  0  0  0  0  0  0
  182.7110  173.8720  136.4190 C   0  0  0  0  0  0  0  0  0  0  0  0
  182.3400  176.9180  136.5210 C   0  0  0  0  0  2  0  0  0  0  0  0
  183.5750  172.7400  136.4000 N   0  0  0  0  0  0  0  0  0  0  0  0
  182.6300  175.9880  137.6110 N   0  0  0  0  0  0  0  0  0  0  0  0
  184.6730  172.9440  137.2650 N   0  0  0  0  0  0  0  0  0  0  0  0
  183.6740  171.8590  135.2340 C   0  0  0  0  0  2  0  0  0  0  0  0
  184.6150  170.7050  135.5080 C   0  0  0  0  0  1  0  0  0  0  0  0
  183.8770  179.2310  143.8450 C   0  0  0  0  0  2  0  0  0  0  0  0
  182.8350  178.7210  144.6460 O   0  0  0  0  0  1  0  0  0  0  0  0
  189.5920  177.9780  142.3700 C   0  0  0  0  0  2  0  0  0  0  0  0
  190.2800  175.6860  142.1200 O   0  0  0  0  0  1  0  0  0  0  0  0
  190.0550  176.8840  141.4140 C   0  0  1  0  0  3  0  0  0  0  0  0
  189.0800  176.6830  140.4300 O   0  0  0  0  0  0  0  0  0  0  0  0
  189.6140  177.1980  139.2420 C   0  0  2  0  0  3  0  0  0  0  0  0
  188.9150  178.7210  137.2760 C   0  0  0  0  0  2  0  0  0  0  0  0
  188.9050  178.4800  138.7840 C   0  0  1  0  0  3  0  0  0  0  0  0
  186.6890  178.1020  137.9710 N   0  0  0  0  0  2  0  0  0  0  0  0
  187.4570  178.6330  136.8650 C   0  0  2  0  0  3  0  0  0  0  0  0
  187.4540  178.4300  139.1720 C   0  0  0  0  0  2  0  0  0  0  0  0
  185.9120  177.1730  135.5710 C   0  0  0  0  0  1  0  0  0  0  0  0
  187.3260  177.7030  135.6760 C   0  0  0  0  0  2  0  0  0  0  0  0
  189.5050  176.1440  138.1290 C   0  0  0  0  0  2  0  0  0  0  0  0
  190.8020  175.8930  137.4010 C   0  0  0  0  0  0  0  0  0  0  0  0
  190.8580  176.0840  136.1580 O   0  0  0  0  0  0  0  0  0  0  0  0
  191.9670  175.5010  138.0470 O   0  0  0  0  0  0  0  0  0  0  0  0
  193.2650  175.5810  137.4630 C   0  0  0  0  0  2  0  0  0  0  0  0
  194.6810  171.6600  136.4580 C   0  0  0  0  0  0  0  0  0  0  0  0
  194.8780  173.6620  137.8490 C   0  0  0  0  0  0  0  0  0  0  0  0
  193.5330  172.2280  135.8730 C   0  0  0  0  0  0  0  0  0  0  0  0
  195.3480  172.3820  137.4700 C   0  0  0  0  0  0  0  0  0  0  0  0
  193.7430  174.1780  137.2120 C   0  0  0  0  0  0  0  0  0  0  0  0
  196.4830  171.7980  138.1260 N   0  0  0  0  0  1  0  0  0  0  0  0
  193.1120  173.4510  136.2590 N   0  0  0  0  0  0  0  0  0  0  0  0
  192.7320  171.5410  134.8250 C   0  0  0  0  0  1  0  0  0  0  0  0
  196.5410  174.1200  139.5390 O   0  0  0  0  0  0  0  0  0  0  0  0
  195.4830  174.4690  138.9440 C   0  0  0  0  0  3  0  0  0  0  0  0
  195.1390  170.2330  136.1920 C   0  0  2  0  0  3  0  0  0  0  0  0
  193.1040  169.0600  136.7960 O   0  0  0  0  0  1  0  0  0  0  0  0
  194.4840  169.0920  137.0000 C   0  0  2  0  0  3  0  0  0  0  0  0
  195.7470  168.2910  138.8750 O   0  0  0  0  0  1  0  0  0  0  0  0
  194.7900  169.2320  138.4930 C   0  0  0  0  0  2  0  0  0  0  0  0
  196.5220  170.0690  135.9220 O   0  0  0  0  0  0  0  0  0  0  0  0
  196.6730  168.8680  135.3890 O   0  0  0  0  0  1  0  0  0  0  0  0
  1  2  2  0  0  0  0
  2 12  1  0  0  0  0
  3  6  1  0  0  0  0
  4  2  1  6  0  0  0
  4  8  1  0  0  0  0
  4  7  1  0  0  0  0
  6  5  1  0  0  0  0
  7 11  1  6  0  0  0
  7  6  1  0  0  0  0
  8  3  1  0  0  0  0
 10 11  2  0  0  0  0
 11  9  1  0  0  0  0
 13 14  1  0  0  0  0
 13 12  1  0  0  0  0
 14 34  1  1  0  0  0
 16 15  1  0  0  0  0
 17 26  1  1  0  0  0
 17 18  1  0  0  0  0
 17 16  1  0  0  0  0
 18 19  1  0  0  0  0
 19 15  1  0  0  0  0
 19 14  1  0  0  0  0
 21 30  1  0  0  0  0
 21 20  1  0  0  0  0
 22 23  1  0  0  0  0
 22 24  1  0  0  0  0
 23 27  1  0  0  0  0
 24 28  1  0  0  0  0
 26 25  2  0  0  0  0
 27 21  2  0  0  0  0
 28 30  1  0  0  0  0
 29 27  1  0  0  0  0
 29 31  1  0  0  0  0
 30 26  1  0  0  0  0
 31 20  2  0  0  0  0
 32 33  1  0  0  0  0
 32 29  1  0  0  0  0
 34 35  1  0  0  0  0
 36  1  1  0  0  0  0
 38 37  1  1  0  0  0
 38 36  1  0  0  0  0
 39 38  1  0  0  0  0
 40 48  1  6  0  0  0
 40 39  1  0  0  0  0
 41 42  1  0  0  0  0
 42 45  1  0  0  0  0
 42 40  1  6  0  0  0
 43 45  1  0  0  0  0
 44 47  1  6  0  0  0
 44 41  1  0  0  0  0
 44 43  1  0  0  0  0
 46 47  1  0  0  0  0
 49 51  1  0  0  0  0
 49 48  1  0  0  0  0
 50 49  2  0  0  0  0
 52 51  1  0  0  0  0
 53 56  1  0  0  0  0
 54 62  1  0  0  0  0
 55 59  1  0  0  0  0
 55 53  2  0  0  0  0
 56 54  2  0  0  0  0
 56 58  1  0  0  0  0
 57 52  1  0  0  0  0
 57 54  1  0  0  0  0
 59 57  2  0  0  0  0
 60 55  1  0  0  0  0
 62 61  2  0  0  0  0
 63 68  1  1  0  0  0
 63 53  1  0  0  0  0
 63 65  1  0  0  0  0
 65 64  1  1  0  0  0
 65 67  1  0  0  0  0
 67 66  1  0  0  0  0
 69 68  1  0  0  0  0
M  END
>  <MODEL>
2

>  <REMARK>
 VINA RESULT:      -6.0      1.440      2.015
  Name = 
  25 active torsions:
  status: ('A' for Active; 'I' for Inactive)
    1  A    between atoms: C_1  and  C_13
    2  A    between atoms: C_1  and  C_45
    3  A    between atoms: O_5  and  C_14
    4  A    between atoms: O_5  and  C_63
    5  A    between atoms: C_7  and  C_35
    6  A    between atoms: C_9  and  C_55
    7  A    between atoms: C_10  and  C_45
    8  A    between atoms: C_11  and  C_53
    9  A    between atoms: C_13  and  O_34
   10  A    between atoms: C_14  and  C_21
   11  A    between atoms: C_14  and  N_54
   12  A    between atoms: O_17  and  C_35
   13  A    between atoms: O_19  and  C_45
   14  A    between atoms: O_19  and  C_58
   15  A    between atoms: C_20  and  C_26
   16  A    between atoms: C_20  and  C_58
   17  A    between atoms: C_24  and  C_67
   18  A    between atoms: C_31  and  C_52
   19  A    between atoms: O_34  and  C_52
   20  A    between atoms: C_35  and  C_67
   21  A    between atoms: C_37  and  C_50
   22  A    between atoms: C_41  and  C_44
   23  A    between atoms: C_49  and  C_64
   24  A    between atoms: C_55  and  C_63
   25  A    between atoms: N_59  and  C_62
                            x       y       z     vdW  Elec       q    Type
                         _______ _______ _______ _____ _____    ______ ____

>  <TORSDO>
F 25

$$$$
=
 OpenBabel10222421283D

 69 74  0  0  1  0  0  0  0  0999 V2000
  186.3270  178.3680  140.5030 C   0  0  0  0  0  3  0  0  0  0  0  0
  185.2760  178.4200  139.6720 C   0  0  0  0  0  0  0  0  0  0  0  0
  182.1710  178.6090  141.7310 C   0  0  0  0  0  2  0  0  0  0  0  0
  183.8820  178.7910  140.0890 C   0  0  1  0  0  3  0  0  0  0  0  0
  180.3950  178.0680  140.3160 C   0  0  0  0  0  1  0  0  0  0  0  0
  181.7740  177.7330  140.6220 N   0  0  0  0  0  0  0  0  0  0  0  0
  182.6030  178.1590  139.4840 C   0  0  2  0  0  3  0  0  0  0  0  0
  183.6660  178.8120  141.5850 C   0  0  0  0  0  2  0  0  0  0  0  0
  183.0430  175.8960  138.8460 O   0  0  0  0  0  1  0  0  0  0  0  0
  182.4490  177.2480  137.1030 O   0  0  0  0  0  0  0  0  0  0  0  0
  182.7100  177.0470  138.4530 C   0  0  0  0  0  0  0  0  0  0  0  0
  185.5370  178.4130  138.2010 C   0  0  0  0  0  2  0  0  0  0  0  0
  186.6540  177.6060  137.9370 O   0  0  0  0  0  0  0  0  0  0  0  0
  187.4240  178.3000  136.9810 C   0  0  2  0  0  3  0  0  0  0  0  0
  186.3440  177.7850  134.9030 C   0  0  0  0  0  2  0  0  0  0  0  0
  185.5430  176.5070  134.8060 C   0  0  0  0  0  2  0  0  0  0  0  0
  186.5550  175.4330  135.0950 C   0  0  1  0  0  3  0  0  0  0  0  0
  187.6000  176.1050  135.9650 C   0  0  0  0  0  2  0  0  0  0  0  0
  187.5380  177.5470  135.7040 N   0  0  0  0  0  0  0  0  0  0  0  0
  185.8080  171.1520  135.0030 N   0  0  0  0  0  0  0  0  0  0  0  0
  184.7610  172.0570  135.3250 C   0  0  0  0  0  0  0  0  0  0  0  0
  181.8560  172.7670  135.1580 N   0  0  0  0  0  2  0  0  0  0  0  0
  182.4450  171.9940  136.2480 C   0  0  0  0  0  2  0  0  0  0  0  0
  182.4410  174.1040  135.1830 C   0  0  0  0  0  2  0  0  0  0  0  0
  186.5200  173.7160  136.7520 O   0  0  0  0  0  0  0  0  0  0  0  0
  185.9270  174.2040  135.7400 C   0  0  0  0  0  0  0  0  0  0  0  0
  183.7360  171.4030  135.7890 C   0  0  0  0  0  0  0  0  0  0  0  0
  183.7690  174.1460  134.4090 C   0  0  0  0  0  2  0  0  0  0  0  0
  184.0790  170.0200  135.7820 N   0  0  0  0  0  0  0  0  0  0  0  0
  184.8330  173.4780  135.1580 N   0  0  0  0  0  0  0  0  0  0  0  0
  185.3630  169.8350  135.2240 N   0  0  0  0  0  0  0  0  0  0  0  0
  183.0610  168.9690  135.7260 C   0  0  0  0  0  2  0  0  0  0  0  0
  182.4430  168.8900  134.3460 C   0  0  0  0  0  1  0  0  0  0  0  0
  188.7950  178.6500  137.5850 C   0  0  0  0  0  2  0  0  0  0  0  0
  189.1070  180.0090  137.3740 O   0  0  0  0  0  1  0  0  0  0  0  0
  186.2690  178.5890  141.9890 C   0  0  0  0  0  2  0  0  0  0  0  0
  187.7450  176.7270  142.3670 O   0  0  0  0  0  1  0  0  0  0  0  0
  187.5410  178.0870  142.6660 C   0  0  1  0  0  3  0  0  0  0  0  0
  188.6330  178.8440  142.2220 O   0  0  0  0  0  0  0  0  0  0  0  0
  189.7530  178.0110  142.3360 C   0  0  2  0  0  3  0  0  0  0  0  0
  189.9530  178.7100  144.8150 C   0  0  0  0  0  2  0  0  0  0  0  0
  190.6690  178.4130  143.5000 C   0  0  1  0  0  3  0  0  0  0  0  0
  191.1370  176.6170  145.0060 N   0  0  0  0  0  2  0  0  0  0  0  0
  190.4310  177.6280  145.7650 C   0  0  2  0  0  3  0  0  0  0  0  0
  191.6270  177.2960  143.8090 C   0  0  0  0  0  2  0  0  0  0  0  0
  187.9590  177.6970  146.0410 C   0  0  0  0  0  1  0  0  0  0  0  0
  189.2360  176.9940  146.4480 C   0  0  0  0  0  2  0  0  0  0  0  0
  190.5620  178.0550  141.0290 C   0  0  0  0  0  2  0  0  0  0  0  0
  190.7460  176.7040  140.3840 C   0  0  0  0  0  0  0  0  0  0  0  0
  190.4670  175.6660  141.0390 O   0  0  0  0  0  0  0  0  0  0  0  0
  191.1710  176.5440  139.0720 O   0  0  0  0  0  0  0  0  0  0  0  0
  192.4510  176.9500  138.5970 C   0  0  0  0  0  2  0  0  0  0  0  0
  194.3850  173.3800  137.2160 C   0  0  0  0  0  0  0  0  0  0  0  0
  192.5060  174.9380  137.0530 C   0  0  0  0  0  0  0  0  0  0  0  0
  194.9680  174.2440  138.1620 C   0  0  0  0  0  0  0  0  0  0  0  0
  193.1470  173.7430  136.6450 C   0  0  0  0  0  0  0  0  0  0  0  0
  193.1310  175.7410  138.0150 C   0  0  0  0  0  0  0  0  0  0  0  0
  192.5620  172.9120  135.6320 N   0  0  0  0  0  1  0  0  0  0  0  0
  194.3290  175.3750  138.5290 N   0  0  0  0  0  0  0  0  0  0  0  0
  196.2850  173.9780  138.8000 C   0  0  0  0  0  1  0  0  0  0  0  0
  191.0770  175.6020  135.2240 O   0  0  0  0  0  0  0  0  0  0  0  0
  191.2300  175.4290  136.4650 C   0  0  0  0  0  3  0  0  0  0  0  0
  195.0980  172.1660  136.6370 C   0  0  2  0  0  3  0  0  0  0  0  0
  197.0960  170.8850  137.1370 O   0  0  0  0  0  1  0  0  0  0  0  0
  195.8250  171.2140  137.6100 C   0  0  2  0  0  3  0  0  0  0  0  0
  195.0310  169.6020  139.2000 O   0  0  0  0  0  1  0  0  0  0  0  0
  195.0090  169.9400  137.8460 C   0  0  0  0  0  2  0  0  0  0  0  0
  195.7400  172.3640  135.3880 O   0  0  0  0  0  0  0  0  0  0  0  0
  196.1740  173.6120  135.3690 O   0  0  0  0  0  1  0  0  0  0  0  0
  1 36  1  0  0  0  0
  2  1  2  0  0  0  0
  4  2  1  1  0  0  0
  4  8  1  0  0  0  0
  5  6  1  0  0  0  0
  6  3  1  0  0  0  0
  7 11  1  6  0  0  0
  7  4  1  0  0  0  0
  7  6  1  0  0  0  0
  8  3  1  0  0  0  0
 10 11  2  0  0  0  0
 11  9  1  0  0  0  0
 12  2  1  0  0  0  0
 13 12  1  0  0  0  0
 14 34  1  1  0  0  0
 14 13  1  0  0  0  0
 15 19  1  0  0  0  0
 16 15  1  0  0  0  0
 16 17  1  0  0  0  0
 17 26  1  1  0  0  0
 17 18  1  0  0  0  0
 19 18  1  0  0  0  0
 19 14  1  0  0  0  0
 20 31  2  0  0  0  0
 20 21  1  0  0  0  0
 21 27  2  0  0  0  0
 22 24  1  0  0  0  0
 22 23  1  0  0  0  0
 26 25  2  0  0  0  0
 27 23  1  0  0  0  0
 28 30  1  0  0  0  0
 28 24  1  0  0  0  0
 29 27  1  0  0  0  0
 30 21  1  0  0  0  0
 30 26  1  0  0  0  0
 31 29  1  0  0  0  0
 32 29  1  0  0  0  0
 33 32  1  0  0  0  0
 35 34  1  0  0  0  0
 36 38  1  0  0  0  0
 38 37  1  6  0  0  0
 39 40  1  0  0  0  0
 39 38  1  0  0  0  0
 40 48  1  6  0  0  0
 41 44  1  0  0  0  0
 42 40  1  6  0  0  0
 42 45  1  0  0  0  0
 42 41  1  0  0  0  0
 43 44  1  0  0  0  0
 44 47  1  6  0  0  0
 45 43  1  0  0  0  0
 46 47  1  0  0  0  0
 49 48  1  0  0  0  0
 49 50  2  0  0  0  0
 51 49  1  0  0  0  0
 52 51  1  0  0  0  0
 53 55  1  0  0  0  0
 54 57  2  0  0  0  0
 55 59  2  0  0  0  0
 55 60  1  0  0  0  0
 56 54  1  0  0  0  0
 56 53  2  0  0  0  0
 57 59  1  0  0  0  0
 57 52  1  0  0  0  0
 58 56  1  0  0  0  0
 61 62  2  0  0  0  0
 62 54  1  0  0  0  0
 63 68  1  6  0  0  0
 63 53  1  0  0  0  0
 63 65  1  0  0  0  0
 65 64  1  6  0  0  0
 65 67  1  0  0  0  0
 67 66  1  0  0  0  0
 69 68  1  0  0  0  0
M  END
>  <MODEL>
3

>  <REMARK>
 VINA RESULT:      -5.1      2.051      6.005
  Name = 
  25 active torsions:
  status: ('A' for Active; 'I' for Inactive)
    1  A    between atoms: C_1  and  C_13
    2  A    between atoms: C_1  and  C_45
    3  A    between atoms: O_5  and  C_14
    4  A    between atoms: O_5  and  C_63
    5  A    between atoms: C_7  and  C_35
    6  A    between atoms: C_9  and  C_55
    7  A    between atoms: C_10  and  C_45
    8  A    between atoms: C_11  and  C_53
    9  A    between atoms: C_13  and  O_34
   10  A    between atoms: C_14  and  C_21
   11  A    between atoms: C_14  and  N_54
   12  A    between atoms: O_17  and  C_35
   13  A    between atoms: O_19  and  C_45
   14  A    between atoms: O_19  and  C_58
   15  A    between atoms: C_20  and  C_26
   16  A    between atoms: C_20  and  C_58
   17  A    between atoms: C_24  and  C_67
   18  A    between atoms: C_31  and  C_52
   19  A    between atoms: O_34  and  C_52
   20  A    between atoms: C_35  and  C_67
   21  A    between atoms: C_37  and  C_50
   22  A    between atoms: C_41  and  C_44
   23  A    between atoms: C_49  and  C_64
   24  A    between atoms: C_55  and  C_63
   25  A    between atoms: N_59  and  C_62
                            x       y       z     vdW  Elec       q    Type
                         _______ _______ _______ _____ _____    ______ ____

>  <TORSDO>
F 25

$$$$
=
 OpenBabel10222421283D

 69 74  0  0  1  0  0  0  0  0999 V2000
  185.3260  177.9790  137.9970 C   0  0  0  0  0  3  0  0  0  0  0  0
  184.0000  177.9860  138.1890 C   0  0  0  0  0  0  0  0  0  0  0  0
  182.3830  175.5120  135.9130 C   0  0  0  0  0  2  0  0  0  0  0  0
  183.0670  176.9110  137.7100 C   0  0  1  0  0  3  0  0  0  0  0  0
  180.0820  175.8800  136.0490 C   0  0  0  0  0  1  0  0  0  0  0  0
  181.3640  176.5620  136.0300 N   0  0  0  0  0  0  0  0  0  0  0  0
  181.5780  177.1540  137.3590 C   0  0  2  0  0  3  0  0  0  0  0  0
  183.6230  176.0590  136.5920 C   0  0  0  0  0  2  0  0  0  0  0  0
  181.2870  179.3690  136.5050 O   0  0  0  0  0  0  0  0  0  0  0  0
  180.1440  178.9690  138.4410 O   0  0  0  0  0  1  0  0  0  0  0  0
  180.9920  178.5550  137.4210 C   0  0  0  0  0  0  0  0  0  0  0  0
  183.4350  178.9410  139.1900 C   0  0  0  0  0  2  0  0  0  0  0  0
  183.0870  178.2350  140.3510 O   0  0  0  0  0  0  0  0  0  0  0  0
  184.2350  178.2310  141.1690 C   0  0  2  0  0  3  0  0  0  0  0  0
  183.5240  179.1380  143.2720 C   0  0  0  0  0  2  0  0  0  0  0  0
  184.5770  179.4890  144.2970 C   0  0  0  0  0  2  0  0  0  0  0  0
  185.2710  178.1810  144.5550 C   0  0  1  0  0  3  0  0  0  0  0  0
  185.0920  177.3850  143.2760 C   0  0  0  0  0  2  0  0  0  0  0  0
  183.9090  177.9120  142.5850 N   0  0  0  0  0  0  0  0  0  0  0  0
  189.2410  176.4820  145.0480 N   0  0  0  0  0  0  0  0  0  0  0  0
  188.6890  177.3210  146.0520 C   0  0  0  0  0  0  0  0  0  0  0  0
  188.3890  177.9660  148.9610 N   0  0  0  0  0  2  0  0  0  0  0  0
  189.4320  178.5250  148.1060 C   0  0  0  0  0  2  0  0  0  0  0  0
  187.0970  178.4320  148.4650 C   0  0  0  0  0  2  0  0  0  0  0  0
  187.4820  178.9710  144.1280 O   0  0  0  0  0  0  0  0  0  0  0  0
  186.7290  178.3670  144.9530 C   0  0  0  0  0  0  0  0  0  0  0  0
  189.6100  177.6480  146.9120 C   0  0  0  0  0  0  0  0  0  0  0  0
  186.5720  177.5250  147.3410 C   0  0  0  0  0  2  0  0  0  0  0  0
  190.8190  177.0180  146.4970 N   0  0  0  0  0  0  0  0  0  0  0  0
  187.3200  177.7390  146.1030 N   0  0  0  0  0  0  0  0  0  0  0  0
  190.5900  176.2190  145.3550 N   0  0  0  0  0  0  0  0  0  0  0  0
  191.8980  176.7150  147.4390 C   0  0  0  0  0  2  0  0  0  0  0  0
  192.5770  175.4110  147.0800 C   0  0  0  0  0  1  0  0  0  0  0  0
  184.9740  179.5710  141.0210 C   0  0  0  0  0  2  0  0  0  0  0  0
  186.3680  179.3730  140.9420 O   0  0  0  0  0  1  0  0  0  0  0  0
  186.0820  176.9480  137.2070 C   0  0  0  0  0  2  0  0  0  0  0  0
  187.9130  177.7620  138.5390 O   0  0  0  0  0  1  0  0  0  0  0  0
  187.5870  177.1840  137.2980 C   0  0  1  0  0  3  0  0  0  0  0  0
  188.2590  175.9650  137.1460 O   0  0  0  0  0  0  0  0  0  0  0  0
  187.4180  175.1510  136.3770 C   0  0  2  0  0  3  0  0  0  0  0  0
  185.8990  173.0830  136.6810 C   0  0  0  0  0  2  0  0  0  0  0  0
  187.2390  173.7520  136.9820 C   0  0  1  0  0  3  0  0  0  0  0  0
  187.6410  171.9840  135.4250 N   0  0  0  0  0  2  0  0  0  0  0  0
  186.2560  171.8770  135.8320 C   0  0  2  0  0  3  0  0  0  0  0  0
  188.2830  172.8190  136.4370 C   0  0  0  0  0  2  0  0  0  0  0  0
  184.7710  173.2190  134.3520 C   0  0  0  0  0  1  0  0  0  0  0  0
  185.3750  171.8530  134.5990 C   0  0  0  0  0  2  0  0  0  0  0  0
  187.9940  175.0100  134.9590 C   0  0  0  0  0  2  0  0  0  0  0  0
  189.1330  175.9560  134.6700 C   0  0  0  0  0  0  0  0  0  0  0  0
  188.8790  177.1460  134.3470 O   0  0  0  0  0  0  0  0  0  0  0  0
  190.4670  175.5900  134.7870 O   0  0  0  0  0  0  0  0  0  0  0  0
  190.9190  174.2390  134.8290 C   0  0  0  0  0  2  0  0  0  0  0  0
  194.9080  174.3630  136.3980 C   0  0  0  0  0  0  0  0  0  0  0  0
  192.5370  174.8970  136.6680 C   0  0  0  0  0  0  0  0  0  0  0  0
  194.5800  173.6880  135.2060 C   0  0  0  0  0  0  0  0  0  0  0  0
  193.8700  174.9580  137.1430 C   0  0  0  0  0  0  0  0  0  0  0  0
  192.2820  174.2300  135.4640 C   0  0  0  0  0  0  0  0  0  0  0  0
  194.1690  175.5970  138.3920 N   0  0  0  0  0  1  0  0  0  0  0  0
  193.2990  173.6500  134.7830 N   0  0  0  0  0  0  0  0  0  0  0  0
  195.5890  172.9950  134.3610 C   0  0  0  0  0  1  0  0  0  0  0  0
  191.1230  175.1280  138.6110 O   0  0  0  0  0  0  0  0  0  0  0  0
  191.3720  175.4460  137.4150 C   0  0  0  0  0  3  0  0  0  0  0  0
  196.2960  174.3310  137.0240 C   0  0  2  0  0  3  0  0  0  0  0  0
  196.7900  176.3710  135.8090 O   0  0  0  0  0  1  0  0  0  0  0  0
  197.3720  175.2850  136.4630 C   0  0  2  0  0  3  0  0  0  0  0  0
  199.6220  175.0210  135.6740 O   0  0  0  0  0  1  0  0  0  0  0  0
  198.3190  174.5480  135.5140 C   0  0  0  0  0  2  0  0  0  0  0  0
  196.7650  173.0530  137.4200 O   0  0  0  0  0  0  0  0  0  0  0  0
  196.1700  172.7590  138.5630 O   0  0  0  0  0  1  0  0  0  0  0  0
  1  2  2  0  0  0  0
  2 12  1  0  0  0  0
  3  6  1  0  0  0  0
  3  8  1  0  0  0  0
  4  2  1  6  0  0  0
  6  5  1  0  0  0  0
  6  7  1  0  0  0  0
  7 11  1  6  0  0  0
  7  4  1  0  0  0  0
  8  4  1  0  0  0  0
  9 11  2  0  0  0  0
 11 10  1  0  0  0  0
 12 13  1  0  0  0  0
 13 14  1  0  0  0  0
 14 34  1  1  0  0  0
 14 19  1  0  0  0  0
 15 16  1  0  0  0  0
 16 17  1  0  0  0  0
 17 26  1  6  0  0  0
 18 17  1  0  0  0  0
 19 15  1  0  0  0  0
 19 18  1  0  0  0  0
 20 31  2  0  0  0  0
 20 21  1  0  0  0  0
 21 30  1  0  0  0  0
 21 27  2  0  0  0  0
 23 22  1  0  0  0  0
 24 22  1  0  0  0  0
 25 26  2  0  0  0  0
 26 30  1  0  0  0  0
 27 23  1  0  0  0  0
 28 24  1  0  0  0  0
 29 27  1  0  0  0  0
 29 32  1  0  0  0  0
 30 28  1  0  0  0  0
 31 29  1  0  0  0  0
 33 32  1  0  0  0  0
 35 34  1  0  0  0  0
 36 38  1  0  0  0  0
 36  1  1  0  0  0  0
 38 37  1  1  0  0  0
 39 38  1  0  0  0  0
 40 48  1  6  0  0  0
 40 39  1  0  0  0  0
 41 42  1  0  0  0  0
 42 40  1  6  0  0  0
 43 44  1  0  0  0  0
 43 45  1  0  0  0  0
 44 47  1  6  0  0  0
 44 41  1  0  0  0  0
 45 42  1  0  0  0  0
 46 47  1  0  0  0  0
 49 51  1  0  0  0  0
 49 48  1  0  0  0  0
 50 49  2  0  0  0  0
 51 52  1  0  0  0  0
 52 57  1  0  0  0  0
 53 63  1  0  0  0  0
 53 56  1  0  0  0  0
 54 56  2  0  0  0  0
 54 62  1  0  0  0  0
 55 53  2  0  0  0  0
 56 58  1  0  0  0  0
 57 54  1  0  0  0  0
 59 55  1  0  0  0  0
 59 57  2  0  0  0  0
 60 55  1  0  0  0  0
 62 61  2  0  0  0  0
 63 68  1  6  0  0  0
 65 64  1  6  0  0  0
 65 63  1  0  0  0  0
 67 66  1  0  0  0  0
 67 65  1  0  0  0  0
 68 69  1  0  0  0  0
M  END
>  <MODEL>
4

>  <REMARK>
 VINA RESULT:      -4.1      2.230      7.519
  Name = 
  25 active torsions:
  status: ('A' for Active; 'I' for Inactive)
    1  A    between atoms: C_1  and  C_13
    2  A    between atoms: C_1  and  C_45
    3  A    between atoms: O_5  and  C_14
    4  A    between atoms: O_5  and  C_63
    5  A    between atoms: C_7  and  C_35
    6  A    between atoms: C_9  and  C_55
    7  A    between atoms: C_10  and  C_45
    8  A    between atoms: C_11  and  C_53
    9  A    between atoms: C_13  and  O_34
   10  A    between atoms: C_14  and  C_21
   11  A    between atoms: C_14  and  N_54
   12  A    between atoms: O_17  and  C_35
   13  A    between atoms: O_19  and  C_45
   14  A    between atoms: O_19  and  C_58
   15  A    between atoms: C_20  and  C_26
   16  A    between atoms: C_20  and  C_58
   17  A    between atoms: C_24  and  C_67
   18  A    between atoms: C_31  and  C_52
   19  A    between atoms: O_34  and  C_52
   20  A    between atoms: C_35  and  C_67
   21  A    between atoms: C_37  and  C_50
   22  A    between atoms: C_41  and  C_44
   23  A    between atoms: C_49  and  C_64
   24  A    between atoms: C_55  and  C_63
   25  A    between atoms: N_59  and  C_62
                            x       y       z     vdW  Elec       q    Type
                         _______ _______ _______ _____ _____    ______ ____

>  <TORSDO>
F 25

$$$$
=
 OpenBabel10222421283D

 69 74  0  0  1  0  0  0  0  0999 V2000
  187.3840  178.0730  140.1770 C   0  0  0  0  0  3  0  0  0  0  0  0
  186.6140  178.2940  139.1030 C   0  0  0  0  0  0  0  0  0  0  0  0
  187.3580  175.6840  136.5430 C   0  0  0  0  0  2  0  0  0  0  0  0
  186.8290  177.6580  137.7590 C   0  0  1  0  0  3  0  0  0  0  0  0
  188.9790  176.5810  135.1240 C   0  0  0  0  0  1  0  0  0  0  0  0
  188.5620  176.5240  136.5130 N   0  0  0  0  0  0  0  0  0  0  0  0
  188.1010  177.8650  136.9000 C   0  0  2  0  0  3  0  0  0  0  0  0
  186.5400  176.1750  137.7210 C   0  0  0  0  0  2  0  0  0  0  0  0
  189.1450  179.9530  137.4200 O   0  0  0  0  0  0  0  0  0  0  0  0
  190.4260  178.1300  137.9220 O   0  0  0  0  0  1  0  0  0  0  0  0
  189.2580  178.6980  137.4280 C   0  0  0  0  0  0  0  0  0  0  0  0
  185.2920  178.9610  139.3050 C   0  0  0  0  0  2  0  0  0  0  0  0
  185.2290  179.4660  140.6120 O   0  0  0  0  0  0  0  0  0  0  0  0
  184.1580  178.7980  141.2410 C   0  0  2  0  0  3  0  0  0  0  0  0
  181.7740  178.6300  141.4440 C   0  0  0  0  0  2  0  0  0  0  0  0
  181.0790  177.4550  140.7970 C   0  0  0  0  0  2  0  0  0  0  0  0
  181.4230  177.5970  139.3410 C   0  0  1  0  0  3  0  0  0  0  0  0
  182.7470  178.3370  139.3230 C   0  0  0  0  0  2  0  0  0  0  0  0
  182.8570  179.0840  140.5800 N   0  0  0  0  0  0  0  0  0  0  0  0
  183.7400  174.1820  137.9780 N   0  0  0  0  0  0  0  0  0  0  0  0
  182.7890  174.7940  137.1180 C   0  0  0  0  0  0  0  0  0  0  0  0
  182.0120  175.6220  134.3470 N   0  0  0  0  0  2  0  0  0  0  0  0
  181.6610  174.3360  134.9420 C   0  0  0  0  0  2  0  0  0  0  0  0
  181.3540  176.6730  135.1180 C   0  0  0  0  0  2  0  0  0  0  0  0
  181.0240  175.2460  139.2530 O   0  0  0  0  0  0  0  0  0  0  0  0
  181.4690  176.2550  138.6230 C   0  0  0  0  0  0  0  0  0  0  0  0
  182.5930  174.0460  136.0710 C   0  0  0  0  0  0  0  0  0  0  0  0
  182.1970  177.0800  136.3370 C   0  0  0  0  0  2  0  0  0  0  0  0
  183.4260  172.9000  136.2070 N   0  0  0  0  0  0  0  0  0  0  0  0
  182.1490  176.0500  137.3740 N   0  0  0  0  0  0  0  0  0  0  0  0
  184.2130  173.0000  137.3760 N   0  0  0  0  0  0  0  0  0  0  0  0
  183.8740  172.1240  135.0480 C   0  0  0  0  0  2  0  0  0  0  0  0
  185.0700  171.2670  135.4020 C   0  0  0  0  0  1  0  0  0  0  0  0
  184.1480  179.1450  142.7390 C   0  0  0  0  0  2  0  0  0  0  0  0
  184.7360  178.1130  143.4990 O   0  0  0  0  0  1  0  0  0  0  0  0
  188.6260  177.2260  140.1950 C   0  0  0  0  0  2  0  0  0  0  0  0
  189.4100  175.6290  141.8140 O   0  0  0  0  0  1  0  0  0  0  0  0
  189.1070  176.9900  141.6230 C   0  0  1  0  0  3  0  0  0  0  0  0
  190.2430  177.7720  141.8660 O   0  0  0  0  0  0  0  0  0  0  0  0
  191.0470  177.0280  142.7390 C   0  0  2  0  0  3  0  0  0  0  0  0
  190.0280  178.4080  144.6710 C   0  0  0  0  0  2  0  0  0  0  0  0
  191.2660  177.7330  144.0840 C   0  0  1  0  0  3  0  0  0  0  0  0
  190.5530  176.4390  145.9630 N   0  0  0  0  0  2  0  0  0  0  0  0
  189.7400  177.6380  145.9460 C   0  0  2  0  0  3  0  0  0  0  0  0
  191.7080  176.7370  145.1200 C   0  0  0  0  0  2  0  0  0  0  0  0
  187.4150  178.4420  146.3250 C   0  0  0  0  0  1  0  0  0  0  0  0
  188.2760  177.2460  145.9770 C   0  0  0  0  0  2  0  0  0  0  0  0
  192.4140  176.7700  142.0840 C   0  0  0  0  0  2  0  0  0  0  0  0
  192.5720  177.4240  140.7340 C   0  0  0  0  0  0  0  0  0  0  0  0
  192.0060  178.5260  140.5120 O   0  0  0  0  0  0  0  0  0  0  0  0
  193.3570  176.8870  139.7220 O   0  0  0  0  0  0  0  0  0  0  0  0
  192.8660  175.9960  138.7230 C   0  0  0  0  0  2  0  0  0  0  0  0
  196.2340  173.9900  136.9860 C   0  0  0  0  0  0  0  0  0  0  0  0
  193.9790  174.8990  136.7260 C   0  0  0  0  0  0  0  0  0  0  0  0
  196.2500  174.5100  138.2950 C   0  0  0  0  0  0  0  0  0  0  0  0
  195.0900  174.2040  136.1900 C   0  0  0  0  0  0  0  0  0  0  0  0
  194.0510  175.3710  138.0410 C   0  0  0  0  0  0  0  0  0  0  0  0
  195.0740  173.7390  134.8330 N   0  0  0  0  0  1  0  0  0  0  0  0
  195.1730  175.1670  138.7730 N   0  0  0  0  0  0  0  0  0  0  0  0
  197.4160  174.3740  139.2080 C   0  0  0  0  0  1  0  0  0  0  0  0
  192.6920  176.2060  135.1560 O   0  0  0  0  0  0  0  0  0  0  0  0
  192.7540  175.2200  135.9420 C   0  0  0  0  0  3  0  0  0  0  0  0
  197.4520  173.3670  136.3170 C   0  0  2  0  0  3  0  0  0  0  0  0
  199.2480  171.9810  137.1750 O   0  0  0  0  0  1  0  0  0  0  0  0
  197.9080  171.9690  136.7860 C   0  0  2  0  0  3  0  0  0  0  0  0
  197.3360  169.7000  136.2580 O   0  0  0  0  0  1  0  0  0  0  0  0
  197.6900  170.9240  135.6890 C   0  0  0  0  0  2  0  0  0  0  0  0
  198.4960  174.2650  135.9780 O   0  0  0  0  0  0  0  0  0  0  0  0
  199.2130  173.6860  135.0290 O   0  0  0  0  0  1  0  0  0  0  0  0
  1 36  1  0  0  0  0
  2 12  1  0  0  0  0
  2  1  2  0  0  0  0
  3  8  1  0  0  0  0
  4  2  1  1  0  0  0
  5  6  1  0  0  0  0
  6  3  1  0  0  0  0
  6  7  1  0  0  0  0
  7 11  1  1  0  0  0
  7  4  1  0  0  0  0
  8  4  1  0  0  0  0
  9 11  2  0  0  0  0
 11 10  1  0  0  0  0
 12 13  1  0  0  0  0
 13 14  1  0  0  0  0
 14 34  1  1  0  0  0
 16 15  1  0  0  0  0
 17 26  1  1  0  0  0
 17 16  1  0  0  0  0
 18 17  1  0  0  0  0
 18 19  1  0  0  0  0
 19 14  1  0  0  0  0
 19 15  1  0  0  0  0
 21 30  1  0  0  0  0
 21 20  1  0  0  0  0
 22 23  1  0  0  0  0
 22 24  1  0  0  0  0
 23 27  1  0  0  0  0
 24 28  1  0  0  0  0
 26 25  2  0  0  0  0
 27 29  1  0  0  0  0
 27 21  2  0  0  0  0
 28 30  1  0  0  0  0
 29 31  1  0  0  0  0
 30 26  1  0  0  0  0
 31 20  2  0  0  0  0
 32 33  1  0  0  0  0
 32 29  1  0  0  0  0
 34 35  1  0  0  0  0
 36 38  1  0  0  0  0
 38 37  1  6  0  0  0
 38 39  1  0  0  0  0
 39 40  1  0  0  0  0
 40 48  1  6  0  0  0
 41 44  1  0  0  0  0
 42 40  1  6  0  0  0
 42 41  1  0  0  0  0
 42 45  1  0  0  0  0
 44 43  1  0  0  0  0
 44 47  1  6  0  0  0
 45 43  1  0  0  0  0
 47 46  1  0  0  0  0
 49 48  1  0  0  0  0
 50 49  2  0  0  0  0
 51 49  1  0  0  0  0
 52 51  1  0  0  0  0
 53 55  1  0  0  0  0
 54 57  2  0  0  0  0
 55 59  2  0  0  0  0
 55 60  1  0  0  0  0
 56 54  1  0  0  0  0
 56 53  2  0  0  0  0
 57 52  1  0  0  0  0
 57 59  1  0  0  0  0
 58 56  1  0  0  0  0
 61 62  2  0  0  0  0
 62 54  1  0  0  0  0
 63 68  1  1  0  0  0
 63 65  1  0  0  0  0
 63 53  1  0  0  0  0
 65 64  1  6  0  0  0
 67 66  1  0  0  0  0
 67 65  1  0  0  0  0
 69 68  1  0  0  0  0
M  END
>  <MODEL>
5

>  <REMARK>
 VINA RESULT:      -3.7      1.659      5.304
  Name = 
  25 active torsions:
  status: ('A' for Active; 'I' for Inactive)
    1  A    between atoms: C_1  and  C_13
    2  A    between atoms: C_1  and  C_45
    3  A    between atoms: O_5  and  C_14
    4  A    between atoms: O_5  and  C_63
    5  A    between atoms: C_7  and  C_35
    6  A    between atoms: C_9  and  C_55
    7  A    between atoms: C_10  and  C_45
    8  A    between atoms: C_11  and  C_53
    9  A    between atoms: C_13  and  O_34
   10  A    between atoms: C_14  and  C_21
   11  A    between atoms: C_14  and  N_54
   12  A    between atoms: O_17  and  C_35
   13  A    between atoms: O_19  and  C_45
   14  A    between atoms: O_19  and  C_58
   15  A    between atoms: C_20  and  C_26
   16  A    between atoms: C_20  and  C_58
   17  A    between atoms: C_24  and  C_67
   18  A    between atoms: C_31  and  C_52
   19  A    between atoms: O_34  and  C_52
   20  A    between atoms: C_35  and  C_67
   21  A    between atoms: C_37  and  C_50
   22  A    between atoms: C_41  and  C_44
   23  A    between atoms: C_49  and  C_64
   24  A    between atoms: C_55  and  C_63
   25  A    between atoms: N_59  and  C_62
                            x       y       z     vdW  Elec       q    Type
                         _______ _______ _______ _____ _____    ______ ____

>  <TORSDO>
F 25

$$$$
