=
 OpenBabel10232411213D

 37 39  0  0  1  0  0  0  0  0999 V2000
  191.1670  176.9400  140.3460 C   0  0  0  0  0  2  0  0  0  0  0  0
  189.3260  177.6550  141.8950 C   0  0  2  0  0  3  0  0  0  0  0  0
  188.4990  178.1240  140.6930 C   0  0  0  0  0  2  0  0  0  0  0  0
  190.3260  177.3910  139.1560 C   0  0  0  0  0  2  0  0  0  0  0  0
  190.2640  176.5130  141.5010 C   0  0  0  0  0  2  0  0  0  0  0  0
  189.4300  178.5570  139.5660 C   0  0  1  0  0  3  0  0  0  0  0  0
  188.4640  177.2750  143.1100 C   0  0  1  0  0  3  0  0  0  0  0  0
  188.4840  177.8880  148.4640 C   0  0  0  0  0  3  0  0  0  0  0  0
  187.4950  177.7630  146.2470 C   0  0  0  0  0  3  0  0  0  0  0  0
  190.5690  177.0370  144.4510 C   0  0  0  0  0  3  0  0  0  0  0  0
  189.2430  177.2030  144.4040 C   0  0  0  0  0  0  0  0  0  0  0  0
  189.8410  177.3960  146.6050 C   0  0  0  0  0  0  0  0  0  0  0  0
  189.7130  177.6060  147.9400 N   0  0  0  0  0  2  0  0  0  0  0  0
  191.0910  177.1060  145.8640 C   0  0  0  0  0  3  0  0  0  0  0  0
  187.3540  177.9730  147.6280 C   0  0  0  0  0  3  0  0  0  0  0  0
  188.7670  177.4600  145.7590 C   0  0  0  0  0  0  0  0  0  0  0  0
  186.0520  177.7330  142.8050 C   0  0  0  0  0  3  0  0  0  0  0  0
  187.2390  178.1390  143.2570 C   0  0  0  0  0  3  0  0  0  0  0  0
  184.7690  179.4890  141.8810 O   0  0  0  0  0  1  0  0  0  0  0  0
  184.8490  178.6020  142.9570 C   0  0  2  0  0  3  0  0  0  0  0  0
  184.9520  179.3790  144.2590 C   0  0  0  0  0  2  0  0  0  0  0  0
  182.7480  178.4700  144.3640 O   0  0  0  0  0  1  0  0  0  0  0  0
  183.6650  179.2610  145.0590 C   0  0  0  0  0  3  0  0  0  0  0  0
  183.9400  178.6710  146.2910 O   0  0  0  0  0  1  0  0  0  0  0  0
  188.6480  178.9960  138.4240 N   0  0  0  0  0  2  0  0  0  0  0  0
  188.1490  177.8380  137.8130 N   0  0  0  0  0  2  0  0  0  0  0  0
  186.3380  176.5800  137.0970 O   0  0  0  0  0  0  0  0  0  0  0  0
  185.8160  178.6030  138.1260 N   0  0  0  0  0  0  0  0  0  0  0  0
  186.7480  177.6280  137.6600 C   0  0  0  0  0  0  0  0  0  0  0  0
  183.8840  180.4290  138.9840 O   0  0  0  0  0  0  0  0  0  0  0  0
  184.4400  178.3410  138.1110 N   0  0  0  0  0  0  0  0  0  0  0  0
  183.4940  179.2870  138.6180 C   0  0  0  0  0  0  0  0  0  0  0  0
  182.0370  178.9360  138.7240 C   0  0  1  0  0  3  0  0  0  0  0  0
  181.7760  177.4460  138.5530 C   0  0  0  0  0  1  0  0  0  0  0  0
  181.7510  178.8350  141.0880 O   0  0  0  0  0  0  0  0  0  0  0  0
  180.5810  180.5460  140.0410 N   0  0  0  0  0  1  0  0  0  0  0  0
  181.4580  179.4230  140.0140 C   0  0  0  0  0  0  0  0  0  0  0  0
  1  5  1  0  0  0  0
  2  7  1  1  0  0  0
  3  2  1  0  0  0  0
  4  6  1  0  0  0  0
  4  1  1  0  0  0  0
  5  2  1  0  0  0  0
  6 25  1  6  0  0  0
  6  3  1  0  0  0  0
  7 18  1  1  0  0  0
  7 11  1  0  0  0  0
  9 15  1  0  0  0  0
 10 14  1  0  0  0  0
 11 10  2  0  0  0  0
 11 16  1  0  0  0  0
 12 13  1  0  0  0  0
 13  8  1  0  0  0  0
 14 12  2  0  0  0  0
 15  8  2  0  0  0  0
 16  9  2  0  0  0  0
 16 12  1  0  0  0  0
 17 20  1  0  0  0  0
 17 18  2  0  0  0  0
 20 19  1  6  0  0  0
 20 21  1  0  0  0  0
 21 23  1  0  0  0  0
 22 23  1  0  0  0  0
 23 24  1  0  0  0  0
 26 25  1  0  0  0  0
 27 29  2  0  0  0  0
 29 26  1  0  0  0  0
 29 28  1  0  0  0  0
 31 28  2  0  0  0  0
 31 32  1  0  0  0  0
 32 33  1  0  0  0  0
 32 30  2  0  0  0  0
 33 34  1  1  0  0  0
 33 37  1  0  0  0  0
 37 36  1  0  0  0  0
 37 35  2  0  0  0  0
M  END
>  <MODEL>
1

>  <REMARK>
 VINA RESULT:      -9.1      0.000      0.000
  Name = 
  11 active torsions:
  status: ('A' for Active; 'I' for Inactive)
    1  A    between atoms: C_5  and  C_6
    2  A    between atoms: C_6  and  C_21
    3  A    between atoms: C_6  and  C_37
    4  A    between atoms: C_7  and  C_30
    5  A    between atoms: C_10  and  C_12
    6  A    between atoms: C_10  and  C_33
    7  A    between atoms: N_11  and  N_25
    8  A    between atoms: N_13  and  N_17
    9  A    between atoms: N_13  and  C_29
   10  A    between atoms: C_14  and  C_19
   11  A    between atoms: C_14  and  C_30
                            x       y       z     vdW  Elec       q    Type
                         _______ _______ _______ _____ _____    ______ ____

>  <TORSDO>
F 11

$$$$
=
 OpenBabel10232411213D

 37 39  0  0  1  0  0  0  0  0999 V2000
  183.6990  179.0510  145.1280 C   0  0  0  0  0  2  0  0  0  0  0  0
  185.7650  178.0720  144.0900 C   0  0  2  0  0  3  0  0  0  0  0  0
  185.1310  178.2110  142.7010 C   0  0  0  0  0  2  0  0  0  0  0  0
  183.0880  179.2040  143.7390 C   0  0  0  0  0  2  0  0  0  0  0  0
  185.2220  179.1350  145.0480 C   0  0  0  0  0  2  0  0  0  0  0  0
  183.6140  178.1080  142.8170 C   0  0  1  0  0  3  0  0  0  0  0  0
  187.3020  178.0850  144.0560 C   0  0  1  0  0  3  0  0  0  0  0  0
  191.7100  176.4890  146.7140 C   0  0  0  0  0  3  0  0  0  0  0  0
  190.4320  177.2660  144.7990 C   0  0  0  0  0  3  0  0  0  0  0  0
  187.2360  177.5450  146.5040 C   0  0  0  0  0  3  0  0  0  0  0  0
  187.9370  177.7190  145.3790 C   0  0  0  0  0  0  0  0  0  0  0  0
  189.4200  176.9760  146.9560 C   0  0  0  0  0  0  0  0  0  0  0  0
  190.5920  176.5560  147.4970 N   0  0  0  0  0  2  0  0  0  0  0  0
  188.1110  177.0860  147.6430 C   0  0  0  0  0  3  0  0  0  0  0  0
  191.6500  176.8400  145.3520 C   0  0  0  0  0  3  0  0  0  0  0  0
  189.3210  177.3350  145.6400 C   0  0  0  0  0  0  0  0  0  0  0  0
  188.6360  177.8210  141.9900 C   0  0  0  0  0  3  0  0  0  0  0  0
  187.8730  177.2630  142.9310 C   0  0  0  0  0  3  0  0  0  0  0  0
  190.2730  176.2420  141.3490 O   0  0  0  0  0  1  0  0  0  0  0  0
  189.1920  176.9940  140.8800 C   0  0  2  0  0  3  0  0  0  0  0  0
  189.6490  177.9060  139.7540 C   0  0  0  0  0  2  0  0  0  0  0  0
  187.6400  178.5120  138.6170 O   0  0  0  0  0  1  0  0  0  0  0  0
  188.7820  177.7140  138.5210 C   0  0  0  0  0  3  0  0  0  0  0  0
  189.5050  178.0800  137.3870 O   0  0  0  0  0  1  0  0  0  0  0  0
  183.0120  178.2450  141.5030 N   0  0  0  0  0  2  0  0  0  0  0  0
  183.7110  179.2670  140.8480 N   0  0  0  0  0  2  0  0  0  0  0  0
  184.6880  180.1000  138.9170 O   0  0  0  0  0  0  0  0  0  0  0  0
  183.7150  177.9920  138.7270 N   0  0  0  0  0  2  0  0  0  0  0  0
  184.0680  179.1560  139.4730 C   0  0  0  0  0  0  0  0  0  0  0  0
  184.0090  175.4890  137.5220 O   0  0  0  0  0  0  0  0  0  0  0  0
  184.1850  177.8100  137.4200 N   0  0  0  0  0  2  0  0  0  0  0  0
  184.3750  176.5050  136.8690 C   0  0  0  0  0  0  0  0  0  0  0  0
  185.0110  176.3230  135.5200 C   0  0  1  0  0  3  0  0  0  0  0  0
  184.3040  177.1130  134.4260 C   0  0  0  0  0  1  0  0  0  0  0  0
  187.2990  175.8150  135.9510 O   0  0  0  0  0  0  0  0  0  0  0  0
  186.9160  177.9620  135.1540 N   0  0  0  0  0  1  0  0  0  0  0  0
  186.4650  176.6720  135.5580 C   0  0  0  0  0  0  0  0  0  0  0  0
  2  7  1  6  0  0  0
  2  5  1  0  0  0  0
  3  6  1  0  0  0  0
  3  2  1  0  0  0  0
  4  1  1  0  0  0  0
  5  1  1  0  0  0  0
  6 25  1  6  0  0  0
  6  4  1  0  0  0  0
  7 18  1  6  0  0  0
  7 11  1  0  0  0  0
  8 13  1  0  0  0  0
  9 15  1  0  0  0  0
  9 16  2  0  0  0  0
 10 14  1  0  0  0  0
 11 16  1  0  0  0  0
 11 10  2  0  0  0  0
 12 13  1  0  0  0  0
 12 14  2  0  0  0  0
 15  8  2  0  0  0  0
 16 12  1  0  0  0  0
 17 18  2  0  0  0  0
 20 19  1  1  0  0  0
 20 17  1  0  0  0  0
 21 20  1  0  0  0  0
 23 22  1  0  0  0  0
 23 21  1  0  0  0  0
 24 23  1  0  0  0  0
 26 25  1  0  0  0  0
 27 29  2  0  0  0  0
 28 29  1  0  0  0  0
 29 26  1  0  0  0  0
 31 28  1  0  0  0  0
 32 31  1  0  0  0  0
 32 30  2  0  0  0  0
 33 34  1  6  0  0  0
 33 37  1  0  0  0  0
 33 32  1  0  0  0  0
 36 37  1  0  0  0  0
 37 35  2  0  0  0  0
M  END
>  <MODEL>
2

>  <REMARK>
 VINA RESULT:      -9.0      2.374      5.492
  Name = 
  11 active torsions:
  status: ('A' for Active; 'I' for Inactive)
    1  A    between atoms: C_5  and  C_6
    2  A    between atoms: C_6  and  C_21
    3  A    between atoms: C_6  and  C_37
    4  A    between atoms: C_7  and  C_30
    5  A    between atoms: C_10  and  C_12
    6  A    between atoms: C_10  and  C_33
    7  A    between atoms: N_11  and  N_25
    8  A    between atoms: N_13  and  N_17
    9  A    between atoms: N_13  and  C_29
   10  A    between atoms: C_14  and  C_19
   11  A    between atoms: C_14  and  C_30
                            x       y       z     vdW  Elec       q    Type
                         _______ _______ _______ _____ _____    ______ ____

>  <TORSDO>
F 11

$$$$
=
 OpenBabel10232411213D

 37 39  0  0  1  0  0  0  0  0999 V2000
  190.0980  176.1000  142.7850 C   0  0  0  0  0  2  0  0  0  0  0  0
  188.0320  177.5150  142.9580 C   0  0  2  0  0  3  0  0  0  0  0  0
  188.1560  177.8740  141.4720 C   0  0  0  0  0  2  0  0  0  0  0  0
  190.1980  176.4470  141.3040 C   0  0  0  0  0  2  0  0  0  0  0  0
  188.6400  176.1400  143.2410 C   0  0  0  0  0  2  0  0  0  0  0  0
  189.6220  177.8390  141.0560 C   0  0  1  0  0  3  0  0  0  0  0  0
  186.5890  177.6040  143.4820 C   0  0  1  0  0  3  0  0  0  0  0  0
  188.8900  177.8220  148.3500 C   0  0  0  0  0  3  0  0  0  0  0  0
  188.7790  177.3690  145.9660 C   0  0  0  0  0  3  0  0  0  0  0  0
  185.3780  178.5460  145.4660 C   0  0  0  0  0  3  0  0  0  0  0  0
  186.4980  178.0570  144.9220 C   0  0  0  0  0  0  0  0  0  0  0  0
  186.9340  178.3460  147.1500 C   0  0  0  0  0  0  0  0  0  0  0  0
  187.6160  178.3130  148.3240 N   0  0  0  0  0  2  0  0  0  0  0  0
  185.5450  178.8190  146.9390 C   0  0  0  0  0  3  0  0  0  0  0  0
  189.4930  177.3390  147.1740 C   0  0  0  0  0  3  0  0  0  0  0  0
  187.4880  177.8960  145.9820 C   0  0  0  0  0  0  0  0  0  0  0  0
  184.5430  177.9250  142.1300 C   0  0  0  0  0  3  0  0  0  0  0  0
  185.6890  178.4230  142.5940 C   0  0  0  0  0  3  0  0  0  0  0  0
  182.3610  178.7510  141.7540 O   0  0  0  0  0  1  0  0  0  0  0  0
  183.6630  178.7490  141.2500 C   0  0  2  0  0  3  0  0  0  0  0  0
  183.6700  178.1660  139.8460 C   0  0  0  0  0  2  0  0  0  0  0  0
  184.1480  180.3940  139.1390 O   0  0  0  0  0  1  0  0  0  0  0  0
  184.4590  179.0540  138.8980 C   0  0  0  0  0  3  0  0  0  0  0  0
  185.8220  178.8540  139.1050 O   0  0  0  0  0  1  0  0  0  0  0  0
  189.7410  178.1730  139.6490 N   0  0  0  0  0  2  0  0  0  0  0  0
  190.3640  177.0810  139.0310 N   0  0  0  0  0  2  0  0  0  0  0  0
  190.2270  175.2130  137.6640 O   0  0  0  0  0  0  0  0  0  0  0  0
  188.2310  176.3690  137.9950 N   0  0  0  0  0  2  0  0  0  0  0  0
  189.6290  176.1770  138.2090 C   0  0  0  0  0  0  0  0  0  0  0  0
  185.9520  176.9740  136.4990 O   0  0  0  0  0  0  0  0  0  0  0  0
  187.4740  175.4080  137.3110 N   0  0  0  0  0  2  0  0  0  0  0  0
  186.2800  175.7610  136.6090 C   0  0  0  0  0  0  0  0  0  0  0  0
  185.4050  174.7030  135.9990 C   0  0  1  0  0  3  0  0  0  0  0  0
  186.1970  173.6660  135.2140 C   0  0  0  0  0  1  0  0  0  0  0  0
  183.3870  174.4460  137.2400 O   0  0  0  0  0  0  0  0  0  0  0  0
  185.0690  172.9460  137.8010 N   0  0  0  0  0  1  0  0  0  0  0  0
  184.5600  174.0370  137.0380 C   0  0  0  0  0  0  0  0  0  0  0  0
  1  5  1  0  0  0  0
  2  5  1  0  0  0  0
  2  7  1  6  0  0  0
  3  2  1  0  0  0  0
  4  1  1  0  0  0  0
  6 25  1  6  0  0  0
  6  4  1  0  0  0  0
  6  3  1  0  0  0  0
  7 18  1  6  0  0  0
  7 11  1  0  0  0  0
  9 16  2  0  0  0  0
  9 15  1  0  0  0  0
 10 14  1  0  0  0  0
 11 10  2  0  0  0  0
 11 16  1  0  0  0  0
 12 13  1  0  0  0  0
 13  8  1  0  0  0  0
 14 12  2  0  0  0  0
 15  8  2  0  0  0  0
 16 12  1  0  0  0  0
 17 18  2  0  0  0  0
 20 19  1  1  0  0  0
 20 17  1  0  0  0  0
 21 20  1  0  0  0  0
 23 24  1  0  0  0  0
 23 22  1  0  0  0  0
 23 21  1  0  0  0  0
 26 25  1  0  0  0  0
 27 29  2  0  0  0  0
 28 29  1  0  0  0  0
 29 26  1  0  0  0  0
 30 32  2  0  0  0  0
 31 28  1  0  0  0  0
 32 31  1  0  0  0  0
 33 34  1  1  0  0  0
 33 32  1  0  0  0  0
 33 37  1  0  0  0  0
 37 35  2  0  0  0  0
 37 36  1  0  0  0  0
M  END
>  <MODEL>
3

>  <REMARK>
 VINA RESULT:      -8.9      2.386      4.209
  Name = 
  11 active torsions:
  status: ('A' for Active; 'I' for Inactive)
    1  A    between atoms: C_5  and  C_6
    2  A    between atoms: C_6  and  C_21
    3  A    between atoms: C_6  and  C_37
    4  A    between atoms: C_7  and  C_30
    5  A    between atoms: C_10  and  C_12
    6  A    between atoms: C_10  and  C_33
    7  A    between atoms: N_11  and  N_25
    8  A    between atoms: N_13  and  N_17
    9  A    between atoms: N_13  and  C_29
   10  A    between atoms: C_14  and  C_19
   11  A    between atoms: C_14  and  C_30
                            x       y       z     vdW  Elec       q    Type
                         _______ _______ _______ _____ _____    ______ ____

>  <TORSDO>
F 11

$$$$
=
 OpenBabel10232411213D

 37 39  0  0  1  0  0  0  0  0999 V2000
  183.5320  178.9410  144.9950 C   0  0  0  0  0  2  0  0  0  0  0  0
  185.6330  178.2110  143.8310 C   0  0  2  0  0  3  0  0  0  0  0  0
  185.0290  178.6270  142.4850 C   0  0  0  0  0  2  0  0  0  0  0  0
  182.9510  179.3700  143.6520 C   0  0  0  0  0  2  0  0  0  0  0  0
  185.0550  179.0500  144.9720 C   0  0  0  0  0  2  0  0  0  0  0  0
  183.5110  178.4910  142.5390 C   0  0  1  0  0  3  0  0  0  0  0  0
  187.1700  178.2420  143.8390 C   0  0  1  0  0  3  0  0  0  0  0  0
  191.5640  176.6990  146.5510 C   0  0  0  0  0  3  0  0  0  0  0  0
  190.3150  177.5540  144.6500 C   0  0  0  0  0  3  0  0  0  0  0  0
  187.0430  177.4980  146.2300 C   0  0  0  0  0  3  0  0  0  0  0  0
  187.7750  177.8070  145.1540 C   0  0  0  0  0  0  0  0  0  0  0  0
  189.2400  177.0250  146.7300 C   0  0  0  0  0  0  0  0  0  0  0  0
  190.4140  176.6330  147.2860 N   0  0  0  0  0  2  0  0  0  0  0  0
  187.9000  177.0000  147.3660 C   0  0  0  0  0  3  0  0  0  0  0  0
  191.5350  177.1580  145.2210 C   0  0  0  0  0  3  0  0  0  0  0  0
  189.1690  177.4870  145.4440 C   0  0  0  0  0  0  0  0  0  0  0  0
  188.3540  178.1420  141.6690 C   0  0  0  0  0  3  0  0  0  0  0  0
  187.7800  177.4930  142.6830 C   0  0  0  0  0  3  0  0  0  0  0  0
  190.0170  176.6070  140.9900 O   0  0  0  0  0  1  0  0  0  0  0  0
  188.9520  177.3860  140.5310 C   0  0  2  0  0  3  0  0  0  0  0  0
  189.4470  178.3680  139.4810 C   0  0  0  0  0  2  0  0  0  0  0  0
  187.2140  178.3980  138.6420 O   0  0  0  0  0  1  0  0  0  0  0  0
  188.5540  178.3380  138.2520 C   0  0  0  0  0  3  0  0  0  0  0  0
  188.8470  179.4320  137.4420 O   0  0  0  0  0  1  0  0  0  0  0  0
  182.9380  178.8890  141.2660 N   0  0  0  0  0  2  0  0  0  0  0  0
  181.7620  178.1450  141.1080 N   0  0  0  0  0  2  0  0  0  0  0  0
  180.6540  176.3340  140.1740 O   0  0  0  0  0  0  0  0  0  0  0  0
  182.9020  176.5470  139.5990 N   0  0  0  0  0  2  0  0  0  0  0  0
  181.7270  176.9820  140.2840 C   0  0  0  0  0  0  0  0  0  0  0  0
  184.6770  176.2630  137.4620 O   0  0  0  0  0  0  0  0  0  0  0  0
  182.8430  175.4950  138.6760 N   0  0  0  0  0  2  0  0  0  0  0  0
  183.7370  175.4270  137.5630 C   0  0  0  0  0  0  0  0  0  0  0  0
  183.5730  174.3710  136.5070 C   0  0  1  0  0  3  0  0  0  0  0  0
  183.5150  174.9500  135.1000 C   0  0  0  0  0  1  0  0  0  0  0  0
  185.1810  172.8940  135.5510 O   0  0  0  0  0  0  0  0  0  0  0  0
  185.0910  172.8600  137.8710 N   0  0  0  0  0  1  0  0  0  0  0  0
  184.6530  173.3400  136.6030 C   0  0  0  0  0  0  0  0  0  0  0  0
  2  7  1  6  0  0  0
  2  5  1  0  0  0  0
  3  6  1  0  0  0  0
  3  2  1  0  0  0  0
  4  1  1  0  0  0  0
  5  1  1  0  0  0  0
  6 25  1  6  0  0  0
  6  4  1  0  0  0  0
  7 18  1  6  0  0  0
  7 11  1  0  0  0  0
  8 13  1  0  0  0  0
  9 15  1  0  0  0  0
  9 16  2  0  0  0  0
 10 14  1  0  0  0  0
 11 16  1  0  0  0  0
 11 10  2  0  0  0  0
 12 13  1  0  0  0  0
 12 14  2  0  0  0  0
 15  8  2  0  0  0  0
 16 12  1  0  0  0  0
 17 18  2  0  0  0  0
 20 19  1  1  0  0  0
 20 17  1  0  0  0  0
 21 20  1  0  0  0  0
 23 22  1  0  0  0  0
 23 21  1  0  0  0  0
 24 23  1  0  0  0  0
 26 25  1  0  0  0  0
 27 29  2  0  0  0  0
 28 29  1  0  0  0  0
 29 26  1  0  0  0  0
 30 32  2  0  0  0  0
 31 28  1  0  0  0  0
 32 31  1  0  0  0  0
 33 34  1  6  0  0  0
 33 37  1  0  0  0  0
 33 32  1  0  0  0  0
 35 37  2  0  0  0  0
 37 36  1  0  0  0  0
M  END
>  <MODEL>
4

>  <REMARK>
 VINA RESULT:      -8.5      2.770      5.718
  Name = 
  11 active torsions:
  status: ('A' for Active; 'I' for Inactive)
    1  A    between atoms: C_5  and  C_6
    2  A    between atoms: C_6  and  C_21
    3  A    between atoms: C_6  and  C_37
    4  A    between atoms: C_7  and  C_30
    5  A    between atoms: C_10  and  C_12
    6  A    between atoms: C_10  and  C_33
    7  A    between atoms: N_11  and  N_25
    8  A    between atoms: N_13  and  N_17
    9  A    between atoms: N_13  and  C_29
   10  A    between atoms: C_14  and  C_19
   11  A    between atoms: C_14  and  C_30
                            x       y       z     vdW  Elec       q    Type
                         _______ _______ _______ _____ _____    ______ ____

>  <TORSDO>
F 11

$$$$
=
 OpenBabel10232411213D

 37 39  0  0  1  0  0  0  0  0999 V2000
  191.0450  176.8590  139.4420 C   0  0  0  0  0  2  0  0  0  0  0  0
  189.2320  177.7880  140.9080 C   0  0  2  0  0  3  0  0  0  0  0  0
  188.4190  178.1630  139.6620 C   0  0  0  0  0  2  0  0  0  0  0  0
  190.2180  177.2170  138.2110 C   0  0  0  0  0  2  0  0  0  0  0  0
  190.1300  176.5810  140.6320 C   0  0  0  0  0  2  0  0  0  0  0  0
  189.3640  178.4480  138.5000 C   0  0  1  0  0  3  0  0  0  0  0  0
  188.3580  177.5610  142.1520 C   0  0  1  0  0  3  0  0  0  0  0  0
  188.1930  177.7860  147.5350 C   0  0  0  0  0  3  0  0  0  0  0  0
  187.2960  177.4810  145.2970 C   0  0  0  0  0  3  0  0  0  0  0  0
  190.4250  177.9640  143.5140 C   0  0  0  0  0  3  0  0  0  0  0  0
  189.1210  177.6720  143.4530 C   0  0  0  0  0  0  0  0  0  0  0  0
  189.6270  177.9100  145.6720 C   0  0  0  0  0  0  0  0  0  0  0  0
  189.4420  177.9740  147.0160 N   0  0  0  0  0  2  0  0  0  0  0  0
  190.8990  178.1110  144.9380 C   0  0  0  0  0  3  0  0  0  0  0  0
  187.0970  177.5380  146.6850 C   0  0  0  0  0  3  0  0  0  0  0  0
  188.5920  177.6620  144.8130 C   0  0  0  0  0  0  0  0  0  0  0  0
  185.9150  177.8870  142.3620 C   0  0  0  0  0  3  0  0  0  0  0  0
  187.1220  178.4210  142.1700 C   0  0  0  0  0  3  0  0  0  0  0  0
  184.6770  179.5510  141.2280 O   0  0  0  0  0  1  0  0  0  0  0  0
  184.7000  178.7520  142.3740 C   0  0  2  0  0  3  0  0  0  0  0  0
  184.7220  179.6320  143.6140 C   0  0  0  0  0  2  0  0  0  0  0  0
  182.5540  178.6400  143.7140 O   0  0  0  0  0  1  0  0  0  0  0  0
  183.4050  179.5340  144.3670 C   0  0  0  0  0  3  0  0  0  0  0  0
  183.6470  179.0770  145.6600 O   0  0  0  0  0  1  0  0  0  0  0  0
  188.5960  178.7970  137.3190 N   0  0  0  0  0  2  0  0  0  0  0  0
  187.2510  178.8260  137.7110 N   0  0  0  0  0  2  0  0  0  0  0  0
  185.1500  177.8470  137.7150 O   0  0  0  0  0  0  0  0  0  0  0  0
  186.8000  176.6880  136.5470 N   0  0  0  0  0  2  0  0  0  0  0  0
  186.3490  177.7900  137.3350 C   0  0  0  0  0  0  0  0  0  0  0  0
  186.7190  174.0300  137.3990 O   0  0  0  0  0  0  0  0  0  0  0  0
  185.8920  175.7430  136.0530 N   0  0  0  0  0  2  0  0  0  0  0  0
  185.9310  174.3780  136.4770 C   0  0  0  0  0  0  0  0  0  0  0  0
  185.0440  173.3480  135.8360 C   0  0  1  0  0  3  0  0  0  0  0  0
  185.7940  172.0760  135.4640 C   0  0  0  0  0  1  0  0  0  0  0  0
  183.1750  173.9620  137.1820 O   0  0  0  0  0  0  0  0  0  0  0  0
  183.5400  171.6750  137.0140 N   0  0  0  0  0  1  0  0  0  0  0  0
  183.8730  173.0270  136.7100 C   0  0  0  0  0  0  0  0  0  0  0  0
  1  5  1  0  0  0  0
  2  7  1  1  0  0  0
  3  2  1  0  0  0  0
  4  6  1  0  0  0  0
  4  1  1  0  0  0  0
  5  2  1  0  0  0  0
  6 25  1  6  0  0  0
  6  3  1  0  0  0  0
  7 18  1  1  0  0  0
  7 11  1  0  0  0  0
  9 15  1  0  0  0  0
 10 14  1  0  0  0  0
 11 10  2  0  0  0  0
 11 16  1  0  0  0  0
 12 13  1  0  0  0  0
 13  8  1  0  0  0  0
 14 12  2  0  0  0  0
 15  8  2  0  0  0  0
 16  9  2  0  0  0  0
 16 12  1  0  0  0  0
 17 20  1  0  0  0  0
 18 17  2  0  0  0  0
 20 19  1  6  0  0  0
 20 21  1  0  0  0  0
 21 23  1  0  0  0  0
 22 23  1  0  0  0  0
 23 24  1  0  0  0  0
 25 26  1  0  0  0  0
 28 29  1  0  0  0  0
 29 26  1  0  0  0  0
 29 27  2  0  0  0  0
 31 32  1  0  0  0  0
 31 28  1  0  0  0  0
 32 30  2  0  0  0  0
 33 34  1  1  0  0  0
 33 32  1  0  0  0  0
 33 37  1  0  0  0  0
 37 36  1  0  0  0  0
 37 35  2  0  0  0  0
M  END
>  <MODEL>
5

>  <REMARK>
 VINA RESULT:      -8.3      2.411      3.425
  Name = 
  11 active torsions:
  status: ('A' for Active; 'I' for Inactive)
    1  A    between atoms: C_5  and  C_6
    2  A    between atoms: C_6  and  C_21
    3  A    between atoms: C_6  and  C_37
    4  A    between atoms: C_7  and  C_30
    5  A    between atoms: C_10  and  C_12
    6  A    between atoms: C_10  and  C_33
    7  A    between atoms: N_11  and  N_25
    8  A    between atoms: N_13  and  N_17
    9  A    between atoms: N_13  and  C_29
   10  A    between atoms: C_14  and  C_19
   11  A    between atoms: C_14  and  C_30
                            x       y       z     vdW  Elec       q    Type
                         _______ _______ _______ _____ _____    ______ ____

>  <TORSDO>
F 11

$$$$
=
 OpenBabel10232411213D

 37 39  0  0  1  0  0  0  0  0999 V2000
  188.6450  178.4560  139.0980 C   0  0  0  0  0  2  0  0  0  0  0  0
  189.0310  177.4010  141.3430 C   0  0  2  0  0  3  0  0  0  0  0  0
  190.1820  176.5760  140.7550 C   0  0  0  0  0  2  0  0  0  0  0  0
  189.8050  177.6460  138.5300 C   0  0  0  0  0  2  0  0  0  0  0  0
  188.8620  178.7200  140.5870 C   0  0  0  0  0  2  0  0  0  0  0  0
  189.9250  176.3190  139.2750 C   0  0  1  0  0  3  0  0  0  0  0  0
  189.1700  177.6390  142.8560 C   0  0  1  0  0  3  0  0  0  0  0  0
  183.9170  178.8400  142.7570 C   0  0  0  0  0  3  0  0  0  0  0  0
  186.1440  178.5400  141.8310 C   0  0  0  0  0  3  0  0  0  0  0  0
  187.7310  177.4050  144.8960 C   0  0  0  0  0  3  0  0  0  0  0  0
  187.8470  177.6570  143.5880 C   0  0  0  0  0  0  0  0  0  0  0  0
  185.6590  178.0510  144.1300 C   0  0  0  0  0  0  0  0  0  0  0  0
  184.3600  178.4160  143.9780 N   0  0  0  0  0  2  0  0  0  0  0  0
  186.3150  177.5930  145.3780 C   0  0  0  0  0  3  0  0  0  0  0  0
  184.8000  178.9120  141.6630 C   0  0  0  0  0  3  0  0  0  0  0  0
  186.5470  178.0960  143.0910 C   0  0  0  0  0  0  0  0  0  0  0  0
  190.9990  177.1310  144.4410 C   0  0  0  0  0  3  0  0  0  0  0  0
  190.1450  176.6990  143.5130 C   0  0  0  0  0  3  0  0  0  0  0  0
  192.0680  175.0280  144.3100 O   0  0  0  0  0  1  0  0  0  0  0  0
  191.9610  176.1870  145.0820 C   0  0  2  0  0  3  0  0  0  0  0  0
  191.4660  175.8340  146.4750 C   0  0  0  0  0  2  0  0  0  0  0  0
  190.0270  177.2600  147.7370 O   0  0  0  0  0  1  0  0  0  0  0  0
  191.3530  177.0810  147.3370 C   0  0  0  0  0  3  0  0  0  0  0  0
  192.1580  176.9360  148.4650 O   0  0  0  0  0  1  0  0  0  0  0  0
  191.0160  175.5420  138.7150 N   0  0  0  0  0  2  0  0  0  0  0  0
  191.9350  176.4630  138.1950 N   0  0  0  0  0  2  0  0  0  0  0  0
  193.9580  176.8910  137.1450 O   0  0  0  0  0  0  0  0  0  0  0  0
  193.4810  174.6450  137.5380 N   0  0  0  0  0  2  0  0  0  0  0  0
  193.1610  176.0340  137.6100 C   0  0  0  0  0  0  0  0  0  0  0  0
  195.4010  173.5010  139.2140 O   0  0  0  0  0  0  0  0  0  0  0  0
  194.7430  174.2230  137.0980 N   0  0  0  0  0  2  0  0  0  0  0  0
  195.7130  173.6990  138.0080 C   0  0  0  0  0  0  0  0  0  0  0  0
  197.1080  173.3810  137.5460 C   0  0  1  0  0  3  0  0  0  0  0  0
  197.1320  172.6210  136.2270 C   0  0  0  0  0  1  0  0  0  0  0  0
  198.0410  175.3800  138.4490 O   0  0  0  0  0  0  0  0  0  0  0  0
  198.6160  174.9520  136.2400 N   0  0  0  0  0  1  0  0  0  0  0  0
  197.9390  174.6210  137.4500 C   0  0  0  0  0  0  0  0  0  0  0  0
  1  5  1  0  0  0  0
  2  7  1  1  0  0  0
  3  2  1  0  0  0  0
  4  1  1  0  0  0  0
  4  6  1  0  0  0  0
  5  2  1  0  0  0  0
  6 25  1  6  0  0  0
  6  3  1  0  0  0  0
  7 18  1  1  0  0  0
  7 11  1  0  0  0  0
  8 13  1  0  0  0  0
  9 16  2  0  0  0  0
 10 14  1  0  0  0  0
 11 10  2  0  0  0  0
 12 14  2  0  0  0  0
 13 12  1  0  0  0  0
 15  9  1  0  0  0  0
 15  8  2  0  0  0  0
 16 11  1  0  0  0  0
 16 12  1  0  0  0  0
 17 20  1  0  0  0  0
 18 17  2  0  0  0  0
 20 19  1  6  0  0  0
 20 21  1  0  0  0  0
 21 23  1  0  0  0  0
 23 22  1  0  0  0  0
 23 24  1  0  0  0  0
 26 25  1  0  0  0  0
 27 29  2  0  0  0  0
 28 29  1  0  0  0  0
 29 26  1  0  0  0  0
 31 28  1  0  0  0  0
 31 32  1  0  0  0  0
 32 30  2  0  0  0  0
 33 34  1  6  0  0  0
 33 32  1  0  0  0  0
 36 37  1  0  0  0  0
 37 33  1  0  0  0  0
 37 35  2  0  0  0  0
M  END
>  <MODEL>
6

>  <REMARK>
 VINA RESULT:      -8.2      5.279      8.838
  Name = 
  11 active torsions:
  status: ('A' for Active; 'I' for Inactive)
    1  A    between atoms: C_5  and  C_6
    2  A    between atoms: C_6  and  C_21
    3  A    between atoms: C_6  and  C_37
    4  A    between atoms: C_7  and  C_30
    5  A    between atoms: C_10  and  C_12
    6  A    between atoms: C_10  and  C_33
    7  A    between atoms: N_11  and  N_25
    8  A    between atoms: N_13  and  N_17
    9  A    between atoms: N_13  and  C_29
   10  A    between atoms: C_14  and  C_19
   11  A    between atoms: C_14  and  C_30
                            x       y       z     vdW  Elec       q    Type
                         _______ _______ _______ _____ _____    ______ ____

>  <TORSDO>
F 11

$$$$
=
 OpenBabel10232411213D

 37 39  0  0  1  0  0  0  0  0999 V2000
  190.1690  176.1670  142.8810 C   0  0  0  0  0  2  0  0  0  0  0  0
  188.0780  177.5430  143.0740 C   0  0  2  0  0  3  0  0  0  0  0  0
  188.1820  177.9060  141.5880 C   0  0  0  0  0  2  0  0  0  0  0  0
  190.2490  176.5170  141.3990 C   0  0  0  0  0  2  0  0  0  0  0  0
  188.7150  176.1800  143.3500 C   0  0  0  0  0  2  0  0  0  0  0  0
  189.6450  177.8980  141.1580 C   0  0  1  0  0  3  0  0  0  0  0  0
  186.6390  177.6060  143.6110 C   0  0  1  0  0  3  0  0  0  0  0  0
  188.9040  177.8410  148.4960 C   0  0  0  0  0  3  0  0  0  0  0  0
  188.7990  177.3460  146.1190 C   0  0  0  0  0  3  0  0  0  0  0  0
  185.4420  178.6240  145.5660 C   0  0  0  0  0  3  0  0  0  0  0  0
  186.5500  178.0880  145.0420 C   0  0  0  0  0  0  0  0  0  0  0  0
  186.9770  178.4050  147.2680 C   0  0  0  0  0  0  0  0  0  0  0  0
  187.6460  178.3720  148.4480 N   0  0  0  0  0  2  0  0  0  0  0  0
  185.6050  178.9180  147.0350 C   0  0  0  0  0  3  0  0  0  0  0  0
  189.5020  177.3170  147.3340 C   0  0  0  0  0  3  0  0  0  0  0  0
  187.5250  177.9150  146.1140 C   0  0  0  0  0  0  0  0  0  0  0  0
  184.4350  178.0130  142.5640 C   0  0  0  0  0  3  0  0  0  0  0  0
  185.7080  178.3800  142.7150 C   0  0  0  0  0  3  0  0  0  0  0  0
  182.3090  179.0140  142.3180 O   0  0  0  0  0  1  0  0  0  0  0  0
  183.5270  178.7890  141.6710 C   0  0  2  0  0  3  0  0  0  0  0  0
  183.2920  178.0060  140.3900 C   0  0  0  0  0  2  0  0  0  0  0  0
  183.0050  178.9290  138.2080 O   0  0  0  0  0  1  0  0  0  0  0  0
  183.9510  178.6980  139.2080 C   0  0  0  0  0  3  0  0  0  0  0  0
  184.4850  179.9150  139.6250 O   0  0  0  0  0  1  0  0  0  0  0  0
  189.7440  178.2360  139.7500 N   0  0  0  0  0  2  0  0  0  0  0  0
  189.2160  177.1490  139.0410 N   0  0  0  0  0  2  0  0  0  0  0  0
  189.5510  175.2680  137.7270 O   0  0  0  0  0  0  0  0  0  0  0  0
  191.4790  176.4130  138.3580 N   0  0  0  0  0  2  0  0  0  0  0  0
  190.0620  176.2380  138.3450 C   0  0  0  0  0  0  0  0  0  0  0  0
  193.9010  177.2850  137.2760 O   0  0  0  0  0  0  0  0  0  0  0  0
  192.3060  175.6110  137.5610 N   0  0  0  0  0  2  0  0  0  0  0  0
  193.5080  176.1240  136.9800 C   0  0  0  0  0  0  0  0  0  0  0  0
  194.3110  175.2960  136.0170 C   0  0  1  0  0  3  0  0  0  0  0  0
  195.0460  176.1420  134.9860 C   0  0  0  0  0  1  0  0  0  0  0  0
  195.3610  173.1940  136.4140 O   0  0  0  0  0  0  0  0  0  0  0  0
  196.0810  174.9150  137.7960 N   0  0  0  0  0  1  0  0  0  0  0  0
  195.2700  174.4060  136.7410 C   0  0  0  0  0  0  0  0  0  0  0  0
  1  5  1  0  0  0  0
  2  5  1  0  0  0  0
  2  7  1  6  0  0  0
  3  2  1  0  0  0  0
  4  1  1  0  0  0  0
  6 25  1  6  0  0  0
  6  4  1  0  0  0  0
  6  3  1  0  0  0  0
  7 18  1  6  0  0  0
  7 11  1  0  0  0  0
  9 15  1  0  0  0  0
 10 14  1  0  0  0  0
 11 10  2  0  0  0  0
 11 16  1  0  0  0  0
 12 13  1  0  0  0  0
 13  8  1  0  0  0  0
 14 12  2  0  0  0  0
 15  8  2  0  0  0  0
 16  9  2  0  0  0  0
 16 12  1  0  0  0  0
 17 18  2  0  0  0  0
 20 19  1  1  0  0  0
 20 17  1  0  0  0  0
 21 20  1  0  0  0  0
 22 23  1  0  0  0  0
 23 24  1  0  0  0  0
 23 21  1  0  0  0  0
 26 25  1  0  0  0  0
 27 29  2  0  0  0  0
 29 28  1  0  0  0  0
 29 26  1  0  0  0  0
 31 28  1  0  0  0  0
 32 30  2  0  0  0  0
 32 31  1  0  0  0  0
 33 34  1  6  0  0  0
 33 37  1  0  0  0  0
 33 32  1  0  0  0  0
 35 37  2  0  0  0  0
 37 36  1  0  0  0  0
M  END
>  <MODEL>
7

>  <REMARK>
 VINA RESULT:      -8.2      3.457      6.879
  Name = 
  11 active torsions:
  status: ('A' for Active; 'I' for Inactive)
    1  A    between atoms: C_5  and  C_6
    2  A    between atoms: C_6  and  C_21
    3  A    between atoms: C_6  and  C_37
    4  A    between atoms: C_7  and  C_30
    5  A    between atoms: C_10  and  C_12
    6  A    between atoms: C_10  and  C_33
    7  A    between atoms: N_11  and  N_25
    8  A    between atoms: N_13  and  N_17
    9  A    between atoms: N_13  and  C_29
   10  A    between atoms: C_14  and  C_19
   11  A    between atoms: C_14  and  C_30
                            x       y       z     vdW  Elec       q    Type
                         _______ _______ _______ _____ _____    ______ ____

>  <TORSDO>
F 11

$$$$
=
 OpenBabel10232411213D

 37 39  0  0  1  0  0  0  0  0999 V2000
  192.0250  177.6970  141.3930 C   0  0  0  0  0  2  0  0  0  0  0  0
  189.6980  177.2950  142.2410 C   0  0  2  0  0  3  0  0  0  0  0  0
  189.2520  176.9030  140.8280 C   0  0  0  0  0  2  0  0  0  0  0  0
  191.5760  177.2850  139.9960 C   0  0  0  0  0  2  0  0  0  0  0  0
  191.1820  176.9900  142.4520 C   0  0  0  0  0  2  0  0  0  0  0  0
  190.1040  177.6380  139.7990 C   0  0  1  0  0  3  0  0  0  0  0  0
  188.8360  176.6580  143.3440 C   0  0  1  0  0  3  0  0  0  0  0  0
  188.0680  178.1370  148.4700 C   0  0  0  0  0  3  0  0  0  0  0  0
  187.4170  177.6270  146.1850 C   0  0  0  0  0  3  0  0  0  0  0  0
  190.7220  176.6970  144.9970 C   0  0  0  0  0  3  0  0  0  0  0  0
  189.4170  176.8190  144.7310 C   0  0  0  0  0  0  0  0  0  0  0  0
  189.6850  177.3840  146.9330 C   0  0  0  0  0  0  0  0  0  0  0  0
  189.3620  177.8060  148.1830 N   0  0  0  0  0  2  0  0  0  0  0  0
  191.0310  177.0090  146.4390 C   0  0  0  0  0  3  0  0  0  0  0  0
  187.0740  178.0560  147.4770 C   0  0  0  0  0  3  0  0  0  0  0  0
  188.7470  177.2820  145.9420 C   0  0  0  0  0  0  0  0  0  0  0  0
  187.0450  178.2250  142.6710 C   0  0  0  0  0  3  0  0  0  0  0  0
  187.3980  177.1040  143.3000 C   0  0  0  0  0  3  0  0  0  0  0  0
  185.4140  179.5390  141.5760 O   0  0  0  0  0  1  0  0  0  0  0  0
  185.6160  178.6540  142.6380 C   0  0  2  0  0  3  0  0  0  0  0  0
  185.2660  179.3360  143.9500 C   0  0  0  0  0  2  0  0  0  0  0  0
  184.0110  178.8010  145.9080 O   0  0  0  0  0  1  0  0  0  0  0  0
  183.9660  178.7850  144.5130 C   0  0  0  0  0  3  0  0  0  0  0  0
  182.9040  179.5740  144.0780 O   0  0  0  0  0  1  0  0  0  0  0  0
  189.6870  177.2630  138.4600 N   0  0  0  0  0  2  0  0  0  0  0  0
  189.1170  178.4060  137.8850 N   0  0  0  0  0  2  0  0  0  0  0  0
  187.2840  179.4640  136.9370 O   0  0  0  0  0  0  0  0  0  0  0  0
  186.9510  177.2480  137.5760 N   0  0  0  0  0  2  0  0  0  0  0  0
  187.7630  178.4140  137.4410 C   0  0  0  0  0  0  0  0  0  0  0  0
  184.6530  178.1490  138.8820 O   0  0  0  0  0  0  0  0  0  0  0  0
  185.6690  177.1990  137.0130 N   0  0  0  0  0  2  0  0  0  0  0  0
  184.5160  177.6170  137.7460 C   0  0  0  0  0  0  0  0  0  0  0  0
  183.1350  177.4300  137.1820 C   0  0  1  0  0  3  0  0  0  0  0  0
  183.0940  176.4040  136.0570 C   0  0  0  0  0  1  0  0  0  0  0  0
  181.2530  177.8790  138.5730 O   0  0  0  0  0  0  0  0  0  0  0  0
  182.2460  175.8090  138.9230 N   0  0  0  0  0  1  0  0  0  0  0  0
  182.1600  177.0660  138.2560 C   0  0  0  0  0  0  0  0  0  0  0  0
  1  5  1  0  0  0  0
  2  5  1  0  0  0  0
  2  7  1  1  0  0  0
  3  2  1  0  0  0  0
  4  1  1  0  0  0  0
  6 25  1  6  0  0  0
  6  4  1  0  0  0  0
  6  3  1  0  0  0  0
  7 18  1  1  0  0  0
  7 11  1  0  0  0  0
  9 15  1  0  0  0  0
 10 14  1  0  0  0  0
 11 10  2  0  0  0  0
 11 16  1  0  0  0  0
 12 13  1  0  0  0  0
 13  8  1  0  0  0  0
 14 12  2  0  0  0  0
 15  8  2  0  0  0  0
 16  9  2  0  0  0  0
 16 12  1  0  0  0  0
 17 18  2  0  0  0  0
 20 19  1  6  0  0  0
 20 17  1  0  0  0  0
 20 21  1  0  0  0  0
 21 23  1  0  0  0  0
 23 22  1  0  0  0  0
 24 23  1  0  0  0  0
 26 25  1  0  0  0  0
 27 29  2  0  0  0  0
 29 28  1  0  0  0  0
 29 26  1  0  0  0  0
 31 28  1  0  0  0  0
 31 32  1  0  0  0  0
 32 30  2  0  0  0  0
 33 34  1  6  0  0  0
 33 32  1  0  0  0  0
 33 37  1  0  0  0  0
 37 35  2  0  0  0  0
 37 36  1  0  0  0  0
M  END
>  <MODEL>
8

>  <REMARK>
 VINA RESULT:      -8.2      1.566      1.803
  Name = 
  11 active torsions:
  status: ('A' for Active; 'I' for Inactive)
    1  A    between atoms: C_5  and  C_6
    2  A    between atoms: C_6  and  C_21
    3  A    between atoms: C_6  and  C_37
    4  A    between atoms: C_7  and  C_30
    5  A    between atoms: C_10  and  C_12
    6  A    between atoms: C_10  and  C_33
    7  A    between atoms: N_11  and  N_25
    8  A    between atoms: N_13  and  N_17
    9  A    between atoms: N_13  and  C_29
   10  A    between atoms: C_14  and  C_19
   11  A    between atoms: C_14  and  C_30
                            x       y       z     vdW  Elec       q    Type
                         _______ _______ _______ _____ _____    ______ ____

>  <TORSDO>
F 11

$$$$
=
 OpenBabel10232411213D

 37 39  0  0  1  0  0  0  0  0999 V2000
  188.4570  177.6970  137.5850 C   0  0  0  0  0  2  0  0  0  0  0  0
  188.8160  177.4600  140.0580 C   0  0  2  0  0  3  0  0  0  0  0  0
  190.1170  176.6930  139.7930 C   0  0  0  0  0  2  0  0  0  0  0  0
  189.7630  176.9510  137.3350 C   0  0  0  0  0  2  0  0  0  0  0  0
  188.5170  178.4370  138.9190 C   0  0  0  0  0  2  0  0  0  0  0  0
  190.0160  175.9550  138.4630 C   0  0  1  0  0  3  0  0  0  0  0  0
  188.8010  178.1710  141.4210 C   0  0  1  0  0  3  0  0  0  0  0  0
  185.3800  177.8990  145.5760 C   0  0  0  0  0  3  0  0  0  0  0  0
  187.5340  177.7510  144.4600 C   0  0  0  0  0  3  0  0  0  0  0  0
  186.3800  178.7750  141.1700 C   0  0  0  0  0  3  0  0  0  0  0  0
  187.4090  178.4280  141.9520 C   0  0  1  0  0  3  0  0  0  0  0  0
  185.5570  178.4540  143.2960 C   0  0  0  0  0  0  0  0  0  0  0  0
  184.7970  178.3120  144.4120 N   0  0  0  0  0  0  0  0  0  0  0  0
  185.0920  178.8650  141.9490 C   0  0  0  0  0  3  0  0  0  0  0  0
  186.7570  177.6090  145.6210 C   0  0  0  0  0  3  0  0  0  0  0  0
  186.8990  178.1920  143.2990 C   0  0  0  0  0  0  0  0  0  0  0  0
  190.7760  178.0590  142.9060 C   0  0  0  0  0  3  0  0  0  0  0  0
  189.6610  177.4870  142.4510 C   0  0  0  0  0  3  0  0  0  0  0  0
  191.5540  175.9860  143.7320 O   0  0  0  0  0  1  0  0  0  0  0  0
  191.6180  177.3680  143.9250 C   0  0  2  0  0  3  0  0  0  0  0  0
  191.1120  177.7180  145.3150 C   0  0  0  0  0  2  0  0  0  0  0  0
  192.3270  176.4670  146.9450 O   0  0  0  0  0  1  0  0  0  0  0  0
  191.1340  176.4960  146.2190 C   0  0  0  0  0  3  0  0  0  0  0  0
  190.0600  176.5570  147.1030 O   0  0  0  0  0  1  0  0  0  0  0  0
  191.2490  175.2320  138.2080 N   0  0  0  0  0  2  0  0  0  0  0  0
  192.1960  176.1850  137.8120 N   0  0  0  0  0  2  0  0  0  0  0  0
  194.3120  176.6840  137.0070 O   0  0  0  0  0  0  0  0  0  0  0  0
  193.8550  174.4190  137.3060 N   0  0  0  0  0  2  0  0  0  0  0  0
  193.4920  175.7990  137.3630 C   0  0  0  0  0  0  0  0  0  0  0  0
  195.6950  173.5680  139.2270 O   0  0  0  0  0  0  0  0  0  0  0  0
  195.1690  174.0380  137.0060 N   0  0  0  0  0  2  0  0  0  0  0  0
  196.0910  173.6670  138.0340 C   0  0  0  0  0  0  0  0  0  0  0  0
  197.5340  173.3950  137.7120 C   0  0  1  0  0  3  0  0  0  0  0  0
  197.7050  172.4050  136.5680 C   0  0  0  0  0  1  0  0  0  0  0  0
  198.5930  175.4280  138.3640 O   0  0  0  0  0  0  0  0  0  0  0  0
  198.6050  175.0180  136.0790 N   0  0  0  0  0  1  0  0  0  0  0  0
  198.2690  174.6650  137.4180 C   0  0  0  0  0  0  0  0  0  0  0  0
  1  5  1  0  0  0  0
  2  7  1  1  0  0  0
  3  2  1  0  0  0  0
  4  1  1  0  0  0  0
  4  6  1  0  0  0  0
  5  2  1  0  0  0  0
  6 25  1  6  0  0  0
  6  3  1  0  0  0  0
  7 18  1  1  0  0  0
  8 15  1  0  0  0  0
  9 15  2  0  0  0  0
 10 14  2  0  0  0  0
 10 11  1  0  0  0  0
 11  7  1  6  0  0  0
 11 16  1  0  0  0  0
 12 16  2  0  0  0  0
 12 13  1  0  0  0  0
 13  8  2  0  0  0  0
 14 12  1  0  0  0  0
 16  9  1  0  0  0  0
 17 20  1  0  0  0  0
 18 17  2  0  0  0  0
 20 19  1  6  0  0  0
 20 21  1  0  0  0  0
 21 23  1  0  0  0  0
 23 22  1  0  0  0  0
 23 24  1  0  0  0  0
 26 25  1  0  0  0  0
 27 29  2  0  0  0  0
 28 29  1  0  0  0  0
 29 26  1  0  0  0  0
 31 28  1  0  0  0  0
 31 32  1  0  0  0  0
 32 30  2  0  0  0  0
 33 34  1  6  0  0  0
 33 32  1  0  0  0  0
 36 37  1  0  0  0  0
 37 33  1  0  0  0  0
 37 35  2  0  0  0  0
M  END
>  <MODEL>
9

>  <REMARK>
 VINA RESULT:      -8.1      5.431      8.904
  Name = 
  11 active torsions:
  status: ('A' for Active; 'I' for Inactive)
    1  A    between atoms: C_5  and  C_6
    2  A    between atoms: C_6  and  C_21
    3  A    between atoms: C_6  and  C_37
    4  A    between atoms: C_7  and  C_30
    5  A    between atoms: C_10  and  C_12
    6  A    between atoms: C_10  and  C_33
    7  A    between atoms: N_11  and  N_25
    8  A    between atoms: N_13  and  N_17
    9  A    between atoms: N_13  and  C_29
   10  A    between atoms: C_14  and  C_19
   11  A    between atoms: C_14  and  C_30
                            x       y       z     vdW  Elec       q    Type
                         _______ _______ _______ _____ _____    ______ ____

>  <TORSDO>
F 11

$$$$
