=
 OpenBabel10232410133D

 66 73  0  0  1  0  0  0  0  0999 V2000
  189.3340  177.2770  139.2550 C   0  0  2  0  0  3  0  0  0  0  0  0
  189.5850  177.5900  140.6940 C   0  0  0  0  0  0  0  0  0  0  0  0
  190.8430  177.3580  141.2530 O   0  0  0  0  0  0  0  0  0  0  0  0
  191.2000  177.6510  142.6080 C   0  0  0  0  0  0  0  0  0  0  0  0
  190.4340  176.7470  143.5580 C   0  0  2  0  0  3  0  0  0  0  0  0
  190.0590  178.2170  143.4670 C   0  0  0  0  0  0  0  0  0  0  0  0
  188.6050  178.0810  141.4360 C   0  0  0  0  0  3  0  0  0  0  0  0
  188.8090  178.3650  142.7860 O   0  0  0  0  0  0  0  0  0  0  0  0
  191.2700  176.5070  144.7970 C   0  0  0  0  0  2  0  0  0  0  0  0
  190.8180  177.4340  145.9060 C   0  0  0  0  0  2  0  0  0  0  0  0
  190.0850  176.6350  146.9640 C   0  0  0  0  0  2  0  0  0  0  0  0
  188.5880  176.8680  146.8470 C   0  0  0  0  0  2  0  0  0  0  0  0
  188.4600  178.1220  148.8060 C   0  0  0  0  0  1  0  0  0  0  0  0
  188.2420  178.1810  147.3700 N   0  0  0  0  0  0  0  0  0  0  0  0
  186.4870  178.1590  145.7690 N   0  0  0  0  0  0  0  0  0  0  0  0
  186.8110  178.3510  147.1690 C   0  0  1  0  0  3  0  0  0  0  0  0
  186.2660  177.1820  146.7280 O   0  0  0  0  0  0  0  0  0  0  0  0
  185.2080  178.8150  145.4270 C   0  0  0  0  0  0  0  0  0  0  0  0
  185.2720  180.2140  145.5230 O   0  0  0  0  0  1  0  0  0  0  0  0
  184.2210  178.3560  146.3030 O   0  0  0  0  0  1  0  0  0  0  0  0
  184.8070  178.4440  144.0040 C   0  0  0  0  0  2  0  0  0  0  0  0
  185.7860  178.8330  143.1050 F   0  0  0  0  0  0  0  0  0  0  0  0
  190.4440  176.7770  137.0830 C   0  0  0  0  0  2  0  0  0  0  0  0
  191.1660  175.9990  138.1690 C   0  0  2  0  0  3  0  0  0  0  0  0
  190.6270  177.3890  138.4590 C   0  0  2  0  0  3  0  0  0  0  0  0
  192.5970  176.0840  137.9530 N   0  0  0  0  0  2  0  0  0  0  0  0
  192.9350  175.0850  136.9570 C   0  0  0  0  0  2  0  0  0  0  0  0
  197.0890  174.4780  135.8480 C   0  0  2  0  0  3  0  0  0  0  0  0
  193.8770  175.6480  136.0060 N   0  0  0  0  0  2  0  0  0  0  0  0
  195.2160  175.1680  135.9320 C   0  0  0  0  0  0  0  0  0  0  0  0
  196.2850  175.4790  135.1770 N   0  0  0  0  0  0  0  0  0  0  0  0
  196.0120  174.1340  136.6860 C   0  0  1  0  0  3  0  0  0  0  0  0
  194.3870  172.4700  137.2500 F   0  0  0  0  0  0  0  0  0  0  0  0
  195.5000  172.7020  136.4610 C   0  0  2  0  0  3  0  0  0  0  0  0
  196.7350  171.3820  136.7470 S   0  0  0  0  0  1  0  0  0  0  0  0
  198.1880  175.1460  136.6620 C   0  0  0  0  0  2  0  0  0  0  0  0
  198.8140  174.1580  137.6410 C   0  0  2  0  0  3  0  0  0  0  0  0
  197.6370  175.0530  139.5360 O   0  0  0  0  0  0  0  0  0  0  0  0
  198.4420  176.0390  139.1140 O   0  0  0  0  0  0  0  0  0  0  0  0
  198.8940  174.7340  139.0660 C   0  0  0  0  0  3  0  0  0  0  0  0
  200.0640  173.7460  137.1680 O   0  0  0  0  0  0  0  0  0  0  0  0
  200.0860  172.3660  137.3690 C   0  0  0  0  0  2  0  0  0  0  0  0
  200.1910  171.7230  136.1510 F   0  0  0  0  0  0  0  0  0  0  0  0
  188.3870  178.1660  138.7400 O   0  0  0  0  0  0  0  0  0  0  0  0
  187.4050  177.3590  138.1590 C   0  0  0  0  0  2  0  0  0  0  0  0
  186.9030  178.0000  136.8780 C   0  0  0  0  0  2  0  0  0  0  0  0
  186.3760  177.0030  136.0140 O   0  0  0  0  0  0  0  0  0  0  0  0
  187.5080  175.1100  136.6900 O   0  0  0  0  0  0  0  0  0  0  0  0
  185.2460  174.8470  136.2490 N   0  0  0  0  0  2  0  0  0  0  0  0
  186.4220  175.6470  136.3440 C   0  0  0  0  0  0  0  0  0  0  0  0
  180.1550  174.3860  138.5650 C   0  0  0  0  0  1  0  0  0  0  0  0
  182.3460  177.4980  138.5000 C   0  0  2  0  0  3  0  0  0  0  0  0
  179.9820  177.2760  139.0150 O   0  0  0  0  0  0  0  0  0  0  0  0
  181.0670  176.7490  138.6480 C   0  0  0  0  0  0  0  0  0  0  0  0
  182.7360  177.4170  135.7670 O   0  0  0  0  0  1  0  0  0  0  0  0
  182.5380  175.0740  137.9370 C   0  0  2  0  0  3  0  0  0  0  0  0
  183.9770  175.3980  135.7980 C   0  0  1  0  0  3  0  0  0  0  0  0
  182.6300  174.2860  136.2950 S   0  0  0  0  0  0  0  0  0  0  0  0
  183.7250  176.7280  136.4750 C   0  0  2  0  0  3  0  0  0  0  0  0
  181.1690  175.3870  138.2840 N   0  0  0  0  0  0  0  0  0  0  0  0
  183.2760  176.4210  137.9050 C   0  0  1  0  0  3  0  0  0  0  0  0
  182.9120  177.9900  139.8450 C   0  0  2  0  0  3  0  0  0  0  0  0
  182.0610  177.5190  141.0150 C   0  0  0  0  0  1  0  0  0  0  0  0
  182.9480  179.5140  139.8980 C   0  0  0  0  0  2  0  0  0  0  0  0
  181.7120  180.1480  139.2780 C   0  0  0  0  0  2  0  0  0  0  0  0
  182.0130  180.6690  138.0170 O   0  0  0  0  0  1  0  0  0  0  0  0
  1 44  1  6  0  0  0
  1  2  1  0  0  0  0
  2  3  1  0  0  0  0
  2  7  2  0  0  0  0
  3  4  1  0  0  0  0
  4  6  2  0  0  0  0
  4  5  1  0  0  0  0
  5  9  1  1  0  0  0
  6  5  1  0  0  0  0
  7  8  1  0  0  0  0
  8  6  1  0  0  0  0
  9 10  1  0  0  0  0
 10 11  1  0  0  0  0
 12 11  1  0  0  0  0
 12 14  1  0  0  0  0
 14 13  1  0  0  0  0
 15 17  1  0  0  0  0
 15 16  1  0  0  0  0
 16 14  1  6  0  0  0
 17 16  1  0  0  0  0
 18 19  1  0  0  0  0
 18 15  1  0  0  0  0
 18 20  1  0  0  0  0
 21 18  1  0  0  0  0
 22 21  1  0  0  0  0
 23 24  1  0  0  0  0
 23 25  1  0  0  0  0
 24 26  1  6  0  0  0
 24 25  1  0  0  0  0
 25  1  1  1  0  0  0
 27 26  1  0  0  0  0
 28 36  1  1  0  0  0
 28 32  1  0  0  0  0
 29 27  1  0  0  0  0
 30 29  1  0  0  0  0
 30 32  1  0  0  0  0
 31 28  1  0  0  0  0
 31 30  2  0  0  0  0
 32 34  1  6  0  0  0
 34 35  1  1  0  0  0
 34 33  1  0  0  0  0
 37 36  1  6  0  0  0
 37 40  1  0  0  0  0
 39 38  1  0  0  0  0
 40 39  1  0  0  0  0
 40 38  1  0  0  0  0
 41 42  1  0  0  0  0
 41 37  1  0  0  0  0
 43 42  1  0  0  0  0
 45 44  1  0  0  0  0
 46 45  1  0  0  0  0
 47 50  1  0  0  0  0
 47 46  1  0  0  0  0
 49 50  1  0  0  0  0
 50 48  2  0  0  0  0
 52 54  1  0  0  0  0
 52 62  1  1  0  0  0
 54 53  2  0  0  0  0
 56 58  1  6  0  0  0
 56 60  1  0  0  0  0
 57 49  1  1  0  0  0
 57 58  1  0  0  0  0
 57 59  1  0  0  0  0
 59 55  1  6  0  0  0
 59 61  1  0  0  0  0
 60 51  1  0  0  0  0
 60 54  1  0  0  0  0
 61 56  1  0  0  0  0
 61 52  1  0  0  0  0
 62 64  1  0  0  0  0
 62 63  1  0  0  0  0
 65 64  1  0  0  0  0
 66 65  1  0  0  0  0
M  END
>  <MODEL>
1

>  <REMARK>
 VINA RESULT:      -6.2      0.000      0.000
  Name = 
  28 active torsions:
  status: ('A' for Active; 'I' for Inactive)
    1  A    between atoms: C_1  and  C_34
    2  A    between atoms: C_2  and  O_12
    3  A    between atoms: C_2  and  C_27
    4  A    between atoms: C_2  and  C_52
    5  A    between atoms: O_3  and  C_32
    6  A    between atoms: O_3  and  C_34
    7  A    between atoms: C_5  and  C_18
    8  A    between atoms: C_5  and  N_55
    9  A    between atoms: C_7  and  C_17
   10  A    between atoms: C_7  and  C_25
   11  A    between atoms: C_9  and  C_11
   12  A    between atoms: C_9  and  C_14
   13  A    between atoms: C_10  and  C_24
   14  A    between atoms: C_11  and  C_18
   15  A    between atoms: O_12  and  C_53
   16  A    between atoms: C_13  and  N_22
   17  A    between atoms: C_13  and  N_33
   18  A    between atoms: N_15  and  C_24
   19  A    between atoms: C_19  and  C_27
   20  A    between atoms: C_25  and  C_54
   21  A    between atoms: O_28  and  C_49
   22  A    between atoms: O_28  and  C_65
   23  A    between atoms: C_32  and  C_49
   24  A    between atoms: N_33  and  C_43
   25  A    between atoms: C_34  and  C_59
   26  A    between atoms: C_35  and  C_61
   27  A    between atoms: C_45  and  N_63
   28  A    between atoms: C_46  and  N_55
                            x       y       z     vdW  Elec       q    Type
                         _______ _______ _______ _____ _____    ______ ____

>  <TORSDO>
F 28

$$$$
=
 OpenBabel10232410133D

 66 73  0  0  1  0  0  0  0  0999 V2000
  188.0010  176.3450  135.3300 C   0  0  2  0  0  3  0  0  0  0  0  0
  186.7440  175.5420  135.2360 C   0  0  0  0  0  0  0  0  0  0  0  0
  185.5700  176.1320  134.7640 O   0  0  0  0  0  0  0  0  0  0  0  0
  184.3220  175.4500  134.6020 C   0  0  0  0  0  0  0  0  0  0  0  0
  183.7660  175.0480  135.9570 C   0  0  2  0  0  3  0  0  0  0  0  0
  184.3320  173.9780  135.0390 C   0  0  0  0  0  0  0  0  0  0  0  0
  186.7500  174.2730  135.6080 C   0  0  0  0  0  3  0  0  0  0  0  0
  185.5860  173.5080  135.5460 O   0  0  0  0  0  0  0  0  0  0  0  0
  182.2540  175.0350  135.8900 C   0  0  0  0  0  2  0  0  0  0  0  0
  181.7680  176.2290  135.0940 C   0  0  0  0  0  2  0  0  0  0  0  0
  180.6580  176.9240  135.8550 C   0  0  0  0  0  2  0  0  0  0  0  0
  180.8920  178.4260  135.8600 C   0  0  0  0  0  2  0  0  0  0  0  0
  180.0860  180.3710  136.8560 C   0  0  0  0  0  1  0  0  0  0  0  0
  180.4720  178.9960  137.1300 N   0  0  0  0  0  0  0  0  0  0  0  0
  181.4300  178.2730  139.1790 N   0  0  0  0  0  0  0  0  0  0  0  0
  181.6520  179.0520  137.9780 C   0  0  1  0  0  3  0  0  0  0  0  0
  182.1830  177.8030  138.1130 O   0  0  0  0  0  0  0  0  0  0  0  0
  182.3310  178.7070  140.2670 C   0  0  0  0  0  0  0  0  0  0  0  0
  181.6380  179.1980  141.3840 O   0  0  0  0  0  1  0  0  0  0  0  0
  183.1630  179.7190  139.7820 O   0  0  0  0  0  1  0  0  0  0  0  0
  183.1990  177.5350  140.7110 C   0  0  0  0  0  2  0  0  0  0  0  0
  183.1160  176.4950  139.8010 F   0  0  0  0  0  0  0  0  0  0  0  0
  190.4360  176.2740  135.8450 C   0  0  0  0  0  2  0  0  0  0  0  0
  190.1820  175.3650  134.6560 C   0  0  2  0  0  3  0  0  0  0  0  0
  189.1570  175.4610  135.7750 C   0  0  2  0  0  3  0  0  0  0  0  0
  190.9400  174.1390  134.8160 N   0  0  0  0  0  2  0  0  0  0  0  0
  192.0090  174.4230  135.7550 C   0  0  0  0  0  2  0  0  0  0  0  0
  196.0690  172.8860  135.6690 C   0  0  2  0  0  3  0  0  0  0  0  0
  193.2350  174.6940  135.0260 N   0  0  0  0  0  2  0  0  0  0  0  0
  194.4200  173.9470  135.2860 C   0  0  0  0  0  0  0  0  0  0  0  0
  195.6700  173.9650  134.7880 N   0  0  0  0  0  0  0  0  0  0  0  0
  194.7870  172.8460  136.2470 C   0  0  1  0  0  3  0  0  0  0  0  0
  192.6710  171.7510  136.0190 F   0  0  0  0  0  0  0  0  0  0  0  0
  194.0360  171.5330  135.9700 C   0  0  2  0  0  3  0  0  0  0  0  0
  194.4700  170.1410  137.0750 S   0  0  0  0  0  1  0  0  0  0  0  0
  197.0830  173.3870  136.6880 C   0  0  0  0  0  2  0  0  0  0  0  0
  197.7660  174.6580  136.1940 C   0  0  2  0  0  3  0  0  0  0  0  0
  199.9510  175.3220  135.4460 O   0  0  0  0  0  0  0  0  0  0  0  0
  199.1810  175.3200  134.3480 O   0  0  0  0  0  0  0  0  0  0  0  0
  198.9860  174.3460  135.3090 C   0  0  0  0  0  3  0  0  0  0  0  0
  198.0960  175.4740  137.2800 O   0  0  0  0  0  0  0  0  0  0  0  0
  197.4880  174.8700  138.3800 C   0  0  0  0  0  2  0  0  0  0  0  0
  198.3860  174.8060  139.4280 F   0  0  0  0  0  0  0  0  0  0  0  0
  187.8250  177.3840  136.2480 O   0  0  0  0  0  0  0  0  0  0  0  0
  187.3050  176.7750  137.3950 C   0  0  0  0  0  2  0  0  0  0  0  0
  188.4270  176.4770  138.3720 C   0  0  0  0  0  2  0  0  0  0  0  0
  188.1530  177.0900  139.6240 O   0  0  0  0  0  0  0  0  0  0  0  0
  189.0120  179.2180  139.3850 O   0  0  0  0  0  0  0  0  0  0  0  0
  189.5670  178.1040  141.3410 N   0  0  0  0  0  2  0  0  0  0  0  0
  188.8960  178.1780  140.0860 C   0  0  0  0  0  0  0  0  0  0  0  0
  190.7760  177.5070  146.7900 C   0  0  0  0  0  1  0  0  0  0  0  0
  187.3140  177.4240  145.2100 C   0  0  2  0  0  3  0  0  0  0  0  0
  188.0280  176.7120  147.4210 O   0  0  0  0  0  0  0  0  0  0  0  0
  188.3170  177.1670  146.2810 C   0  0  0  0  0  0  0  0  0  0  0  0
  187.9920  175.5160  143.3320 O   0  0  0  0  0  1  0  0  0  0  0  0
  189.6540  177.9700  144.5370 C   0  0  2  0  0  3  0  0  0  0  0  0
  189.5180  176.9080  142.1690 C   0  0  1  0  0  3  0  0  0  0  0  0
  190.7860  177.0230  143.4650 S   0  0  0  0  0  0  0  0  0  0  0  0
  188.1780  176.8220  142.8680 C   0  0  2  0  0  3  0  0  0  0  0  0
  189.6470  177.4340  145.8800 N   0  0  0  0  0  0  0  0  0  0  0  0
  188.2140  177.8230  144.0240 C   0  0  1  0  0  3  0  0  0  0  0  0
  186.3560  178.5800  145.5510 C   0  0  2  0  0  3  0  0  0  0  0  0
  185.7710  178.4290  146.9470 C   0  0  0  0  0  1  0  0  0  0  0  0
  185.1850  178.6260  144.5740 C   0  0  0  0  0  2  0  0  0  0  0  0
  183.8510  178.8440  145.2720 C   0  0  0  0  0  2  0  0  0  0  0  0
  182.7980  178.7080  144.3650 O   0  0  0  0  0  1  0  0  0  0  0  0
  1 44  1  1  0  0  0
  2  1  1  0  0  0  0
  2  7  2  0  0  0  0
  3  2  1  0  0  0  0
  4  3  1  0  0  0  0
  4  6  2  0  0  0  0
  4  5  1  0  0  0  0
  5  9  1  6  0  0  0
  6  8  1  0  0  0  0
  6  5  1  0  0  0  0
  8  7  1  0  0  0  0
 10 11  1  0  0  0  0
 10  9  1  0  0  0  0
 11 12  1  0  0  0  0
 12 14  1  0  0  0  0
 13 14  1  0  0  0  0
 15 18  1  0  0  0  0
 16 14  1  6  0  0  0
 16 17  1  0  0  0  0
 16 15  1  0  0  0  0
 17 15  1  0  0  0  0
 18 21  1  0  0  0  0
 18 19  1  0  0  0  0
 20 18  1  0  0  0  0
 22 21  1  0  0  0  0
 24 26  1  1  0  0  0
 24 25  1  0  0  0  0
 24 23  1  0  0  0  0
 25  1  1  6  0  0  0
 25 23  1  0  0  0  0
 26 27  1  0  0  0  0
 28 32  1  0  0  0  0
 28 36  1  1  0  0  0
 29 30  1  0  0  0  0
 29 27  1  0  0  0  0
 30 32  1  0  0  0  0
 31 30  2  0  0  0  0
 31 28  1  0  0  0  0
 32 34  1  6  0  0  0
 34 33  1  1  0  0  0
 34 35  1  0  0  0  0
 37 36  1  1  0  0  0
 37 41  1  0  0  0  0
 39 40  1  0  0  0  0
 39 38  1  0  0  0  0
 40 38  1  0  0  0  0
 40 37  1  0  0  0  0
 41 42  1  0  0  0  0
 42 43  1  0  0  0  0
 44 45  1  0  0  0  0
 45 46  1  0  0  0  0
 46 47  1  0  0  0  0
 47 50  1  0  0  0  0
 48 50  2  0  0  0  0
 50 49  1  0  0  0  0
 52 62  1  1  0  0  0
 52 54  1  0  0  0  0
 54 53  2  0  0  0  0
 56 58  1  6  0  0  0
 56 60  1  0  0  0  0
 57 49  1  6  0  0  0
 57 59  1  0  0  0  0
 57 58  1  0  0  0  0
 59 55  1  1  0  0  0
 59 61  1  0  0  0  0
 60 54  1  0  0  0  0
 60 51  1  0  0  0  0
 61 56  1  0  0  0  0
 61 52  1  0  0  0  0
 62 63  1  0  0  0  0
 64 65  1  0  0  0  0
 64 62  1  0  0  0  0
 66 65  1  0  0  0  0
M  END
>  <MODEL>
2

>  <REMARK>
 VINA RESULT:      -5.7      2.616      7.657
  Name = 
  28 active torsions:
  status: ('A' for Active; 'I' for Inactive)
    1  A    between atoms: C_1  and  C_34
    2  A    between atoms: C_2  and  O_12
    3  A    between atoms: C_2  and  C_27
    4  A    between atoms: C_2  and  C_52
    5  A    between atoms: O_3  and  C_32
    6  A    between atoms: O_3  and  C_34
    7  A    between atoms: C_5  and  C_18
    8  A    between atoms: C_5  and  N_55
    9  A    between atoms: C_7  and  C_17
   10  A    between atoms: C_7  and  C_25
   11  A    between atoms: C_9  and  C_11
   12  A    between atoms: C_9  and  C_14
   13  A    between atoms: C_10  and  C_24
   14  A    between atoms: C_11  and  C_18
   15  A    between atoms: O_12  and  C_53
   16  A    between atoms: C_13  and  N_22
   17  A    between atoms: C_13  and  N_33
   18  A    between atoms: N_15  and  C_24
   19  A    between atoms: C_19  and  C_27
   20  A    between atoms: C_25  and  C_54
   21  A    between atoms: O_28  and  C_49
   22  A    between atoms: O_28  and  C_65
   23  A    between atoms: C_32  and  C_49
   24  A    between atoms: N_33  and  C_43
   25  A    between atoms: C_34  and  C_59
   26  A    between atoms: C_35  and  C_61
   27  A    between atoms: C_45  and  N_63
   28  A    between atoms: C_46  and  N_55
                            x       y       z     vdW  Elec       q    Type
                         _______ _______ _______ _____ _____    ______ ____

>  <TORSDO>
F 28

$$$$
=
 OpenBabel10232410133D

 66 73  0  0  1  0  0  0  0  0999 V2000
  188.8520  174.8140  135.1700 C   0  0  2  0  0  3  0  0  0  0  0  0
  187.8350  173.7440  135.3970 C   0  0  0  0  0  0  0  0  0  0  0  0
  186.5200  173.9230  134.9620 O   0  0  0  0  0  0  0  0  0  0  0  0
  185.4770  172.9540  135.0980 C   0  0  0  0  0  0  0  0  0  0  0  0
  185.1340  172.7570  136.5650 C   0  0  2  0  0  3  0  0  0  0  0  0
  185.8870  171.6640  135.8240 C   0  0  0  0  0  0  0  0  0  0  0  0
  188.1860  172.6300  136.0190 C   0  0  0  0  0  3  0  0  0  0  0  0
  187.2500  171.6240  136.2590 O   0  0  0  0  0  0  0  0  0  0  0  0
  183.6720  172.3800  136.6870 C   0  0  0  0  0  2  0  0  0  0  0  0
  182.8660  173.1160  135.6380 C   0  0  0  0  0  2  0  0  0  0  0  0
  181.8800  174.0440  136.3190 C   0  0  0  0  0  2  0  0  0  0  0  0
  182.3660  174.3800  137.7190 C   0  0  0  0  0  2  0  0  0  0  0  0
  180.3070  175.4380  137.4590 C   0  0  0  0  0  1  0  0  0  0  0  0
  181.4090  175.2480  138.3880 N   0  0  0  0  0  0  0  0  0  0  0  0
  182.0800  176.9070  139.9490 N   0  0  0  0  0  0  0  0  0  0  0  0
  182.0520  176.5420  138.5460 C   0  0  1  0  0  3  0  0  0  0  0  0
  183.1900  176.4040  139.2850 O   0  0  0  0  0  0  0  0  0  0  0  0
  182.2230  178.3690  140.1130 C   0  0  0  0  0  0  0  0  0  0  0  0
  182.6280  178.7330  141.4070 O   0  0  0  0  0  1  0  0  0  0  0  0
  180.9920  178.9720  139.8480 O   0  0  0  0  0  1  0  0  0  0  0  0
  183.2490  178.8970  139.1170 C   0  0  0  0  0  2  0  0  0  0  0  0
  184.0090  179.9040  139.6880 F   0  0  0  0  0  0  0  0  0  0  0  0
  191.2970  175.2740  135.0710 C   0  0  0  0  0  2  0  0  0  0  0  0
  191.0380  173.9620  134.3540 C   0  0  2  0  0  3  0  0  0  0  0  0
  190.2320  174.3260  135.5890 C   0  0  2  0  0  3  0  0  0  0  0  0
  192.0580  173.0000  134.7240 N   0  0  0  0  0  2  0  0  0  0  0  0
  193.0170  173.7000  135.5570 C   0  0  0  0  0  2  0  0  0  0  0  0
  197.2310  172.7130  135.2150 C   0  0  2  0  0  3  0  0  0  0  0  0
  194.1470  174.1200  134.7480 N   0  0  0  0  0  2  0  0  0  0  0  0
  195.4350  173.5400  134.9340 C   0  0  0  0  0  0  0  0  0  0  0  0
  196.6360  173.7160  134.3550 N   0  0  0  0  0  0  0  0  0  0  0  0
  196.0060  172.5120  135.8760 C   0  0  1  0  0  3  0  0  0  0  0  0
  194.1410  171.0430  136.1800 F   0  0  0  0  0  0  0  0  0  0  0  0
  195.4200  171.1070  135.6570 C   0  0  2  0  0  3  0  0  0  0  0  0
  196.4230  169.7340  136.3300 S   0  0  0  0  0  1  0  0  0  0  0  0
  198.2330  173.3590  136.1620 C   0  0  0  0  0  2  0  0  0  0  0  0
  197.7280  173.3130  137.6000 C   0  0  2  0  0  3  0  0  0  0  0  0
  196.8320  174.7680  139.2900 O   0  0  0  0  0  0  0  0  0  0  0  0
  195.7710  174.1630  138.7380 O   0  0  0  0  0  0  0  0  0  0  0  0
  196.8350  174.5220  137.9330 C   0  0  0  0  0  3  0  0  0  0  0  0
  198.8070  173.1960  138.4800 O   0  0  0  0  0  0  0  0  0  0  0  0
  199.8930  173.7380  137.7910 C   0  0  0  0  0  2  0  0  0  0  0  0
  200.2310  174.9560  138.3450 F   0  0  0  0  0  0  0  0  0  0  0  0
  188.5110  175.9500  135.9100 O   0  0  0  0  0  0  0  0  0  0  0  0
  188.6300  175.5630  137.2480 C   0  0  0  0  0  2  0  0  0  0  0  0
  189.4640  176.5810  138.0060 C   0  0  0  0  0  2  0  0  0  0  0  0
  188.9110  176.7920  139.2970 O   0  0  0  0  0  0  0  0  0  0  0  0
  189.0010  179.0970  139.2280 O   0  0  0  0  0  0  0  0  0  0  0  0
  188.9840  178.1350  141.3390 N   0  0  0  0  0  2  0  0  0  0  0  0
  188.9530  178.0430  139.9170 C   0  0  0  0  0  0  0  0  0  0  0  0
  190.6010  177.6070  146.6880 C   0  0  0  0  0  1  0  0  0  0  0  0
  187.0280  177.5320  145.3770 C   0  0  2  0  0  3  0  0  0  0  0  0
  187.9030  176.8450  147.5380 O   0  0  0  0  0  0  0  0  0  0  0  0
  188.1070  177.2820  146.3730 C   0  0  0  0  0  0  0  0  0  0  0  0
  187.5460  175.5900  143.4820 O   0  0  0  0  0  1  0  0  0  0  0  0
  189.3140  178.0470  144.5200 C   0  0  2  0  0  3  0  0  0  0  0  0
  188.9900  176.9530  142.1860 C   0  0  1  0  0  3  0  0  0  0  0  0
  190.3530  177.0750  143.3790 S   0  0  0  0  0  0  0  0  0  0  0  0
  187.7060  176.8880  142.9860 C   0  0  2  0  0  3  0  0  0  0  0  0
  189.4040  177.5300  145.8680 N   0  0  0  0  0  0  0  0  0  0  0  0
  187.8380  177.9060  144.1200 C   0  0  1  0  0  3  0  0  0  0  0  0
  186.1070  178.7010  145.7730 C   0  0  2  0  0  3  0  0  0  0  0  0
  186.4980  179.2900  147.1200 C   0  0  0  0  0  1  0  0  0  0  0  0
  184.6570  178.2410  145.8850 C   0  0  0  0  0  2  0  0  0  0  0  0
  183.7950  178.7480  144.7380 C   0  0  0  0  0  2  0  0  0  0  0  0
  184.2290  180.0080  144.3220 O   0  0  0  0  0  1  0  0  0  0  0  0
  1  2  1  0  0  0  0
  1 44  1  1  0  0  0
  2  7  2  0  0  0  0
  3  4  1  0  0  0  0
  3  2  1  0  0  0  0
  4  6  2  0  0  0  0
  4  5  1  0  0  0  0
  5  9  1  6  0  0  0
  6  8  1  0  0  0  0
  6  5  1  0  0  0  0
  7  8  1  0  0  0  0
 10 11  1  0  0  0  0
 10  9  1  0  0  0  0
 11 12  1  0  0  0  0
 12 14  1  0  0  0  0
 13 14  1  0  0  0  0
 15 18  1  0  0  0  0
 16 14  1  1  0  0  0
 16 17  1  0  0  0  0
 16 15  1  0  0  0  0
 17 15  1  0  0  0  0
 18 19  1  0  0  0  0
 20 18  1  0  0  0  0
 21 22  1  0  0  0  0
 21 18  1  0  0  0  0
 23 25  1  0  0  0  0
 24 26  1  1  0  0  0
 24 23  1  0  0  0  0
 24 25  1  0  0  0  0
 25  1  1  6  0  0  0
 26 27  1  0  0  0  0
 28 32  1  0  0  0  0
 28 36  1  1  0  0  0
 29 30  1  0  0  0  0
 29 27  1  0  0  0  0
 30 32  1  0  0  0  0
 31 30  2  0  0  0  0
 31 28  1  0  0  0  0
 32 34  1  6  0  0  0
 34 33  1  1  0  0  0
 34 35  1  0  0  0  0
 37 36  1  6  0  0  0
 37 40  1  0  0  0  0
 37 41  1  0  0  0  0
 39 38  1  0  0  0  0
 40 39  1  0  0  0  0
 40 38  1  0  0  0  0
 42 43  1  0  0  0  0
 42 41  1  0  0  0  0
 44 45  1  0  0  0  0
 45 46  1  0  0  0  0
 46 47  1  0  0  0  0
 47 50  1  0  0  0  0
 48 50  2  0  0  0  0
 50 49  1  0  0  0  0
 52 62  1  1  0  0  0
 52 54  1  0  0  0  0
 54 53  2  0  0  0  0
 56 58  1  6  0  0  0
 56 60  1  0  0  0  0
 57 49  1  6  0  0  0
 57 59  1  0  0  0  0
 57 58  1  0  0  0  0
 59 55  1  1  0  0  0
 59 61  1  0  0  0  0
 60 54  1  0  0  0  0
 60 51  1  0  0  0  0
 61 56  1  0  0  0  0
 61 52  1  0  0  0  0
 62 64  1  0  0  0  0
 62 63  1  0  0  0  0
 65 64  1  0  0  0  0
 66 65  1  0  0  0  0
M  END
>  <MODEL>
3

>  <REMARK>
 VINA RESULT:      -5.6      2.632      7.390
  Name = 
  28 active torsions:
  status: ('A' for Active; 'I' for Inactive)
    1  A    between atoms: C_1  and  C_34
    2  A    between atoms: C_2  and  O_12
    3  A    between atoms: C_2  and  C_27
    4  A    between atoms: C_2  and  C_52
    5  A    between atoms: O_3  and  C_32
    6  A    between atoms: O_3  and  C_34
    7  A    between atoms: C_5  and  C_18
    8  A    between atoms: C_5  and  N_55
    9  A    between atoms: C_7  and  C_17
   10  A    between atoms: C_7  and  C_25
   11  A    between atoms: C_9  and  C_11
   12  A    between atoms: C_9  and  C_14
   13  A    between atoms: C_10  and  C_24
   14  A    between atoms: C_11  and  C_18
   15  A    between atoms: O_12  and  C_53
   16  A    between atoms: C_13  and  N_22
   17  A    between atoms: C_13  and  N_33
   18  A    between atoms: N_15  and  C_24
   19  A    between atoms: C_19  and  C_27
   20  A    between atoms: C_25  and  C_54
   21  A    between atoms: O_28  and  C_49
   22  A    between atoms: O_28  and  C_65
   23  A    between atoms: C_32  and  C_49
   24  A    between atoms: N_33  and  C_43
   25  A    between atoms: C_34  and  C_59
   26  A    between atoms: C_35  and  C_61
   27  A    between atoms: C_45  and  N_63
   28  A    between atoms: C_46  and  N_55
                            x       y       z     vdW  Elec       q    Type
                         _______ _______ _______ _____ _____    ______ ____

>  <TORSDO>
F 28

$$$$
=
 OpenBabel10232410133D

 66 73  0  0  1  0  0  0  0  0999 V2000
  184.2780  178.1190  141.9610 C   0  0  2  0  0  3  0  0  0  0  0  0
  182.9630  178.1770  141.2530 C   0  0  0  0  0  0  0  0  0  0  0  0
  182.5400  177.1000  140.4720 O   0  0  0  0  0  0  0  0  0  0  0  0
  181.2900  177.0360  139.7790 C   0  0  0  0  0  0  0  0  0  0  0  0
  181.2570  178.0650  138.6630 C   0  0  2  0  0  3  0  0  0  0  0  0
  180.4160  178.2930  139.9090 C   0  0  0  0  0  0  0  0  0  0  0  0
  182.2070  179.2570  141.3660 C   0  0  0  0  0  3  0  0  0  0  0  0
  180.9850  179.3420  140.7000 O   0  0  0  0  0  0  0  0  0  0  0  0
  180.3800  177.5520  137.5400 C   0  0  0  0  0  2  0  0  0  0  0  0
  181.0780  176.4120  136.8280 C   0  0  0  0  0  2  0  0  0  0  0  0
  180.1430  175.2220  136.7480 C   0  0  0  0  0  2  0  0  0  0  0  0
  180.8420  173.9770  137.2680 C   0  0  0  0  0  2  0  0  0  0  0  0
  180.2730  172.0370  136.1100 C   0  0  0  0  0  1  0  0  0  0  0  0
  181.2390  173.1230  136.1600 N   0  0  0  0  0  0  0  0  0  0  0  0
  183.5880  173.2140  135.8230 N   0  0  0  0  0  0  0  0  0  0  0  0
  182.5170  172.5310  136.5210 C   0  0  1  0  0  3  0  0  0  0  0  0
  183.2910  173.4560  137.1560 O   0  0  0  0  0  0  0  0  0  0  0  0
  184.7910  172.3600  135.7320 C   0  0  0  0  0  0  0  0  0  0  0  0
  184.5130  171.0040  135.9650 O   0  0  0  0  0  1  0  0  0  0  0  0
  185.7190  172.7920  136.6820 O   0  0  0  0  0  1  0  0  0  0  0  0
  185.4120  172.4970  134.3460 C   0  0  0  0  0  2  0  0  0  0  0  0
  186.7120  172.9640  134.4390 F   0  0  0  0  0  0  0  0  0  0  0  0
  184.3060  179.5390  144.0060 C   0  0  0  0  0  2  0  0  0  0  0  0
  185.3760  178.4730  144.1610 C   0  0  2  0  0  3  0  0  0  0  0  0
  184.0650  178.1410  143.4680 C   0  0  2  0  0  3  0  0  0  0  0  0
  185.3420  177.9470  145.5120 N   0  0  0  0  0  2  0  0  0  0  0  0
  186.6400  177.3510  145.7660 C   0  0  0  0  0  2  0  0  0  0  0  0
  190.6820  177.8670  144.2700 C   0  0  2  0  0  3  0  0  0  0  0  0
  187.6560  178.3880  145.7800 N   0  0  0  0  0  2  0  0  0  0  0  0
  188.9190  178.1810  145.1540 C   0  0  0  0  0  0  0  0  0  0  0  0
  190.0260  178.9300  145.0040 N   0  0  0  0  0  0  0  0  0  0  0  0
  189.5630  177.0300  144.4260 C   0  0  1  0  0  3  0  0  0  0  0  0
  188.1470  175.5190  143.2260 F   0  0  0  0  0  0  0  0  0  0  0  0
  188.8650  176.6940  143.0980 C   0  0  2  0  0  3  0  0  0  0  0  0
  189.9730  176.5750  141.6470 S   0  0  0  0  0  1  0  0  0  0  0  0
  191.8560  177.3210  145.0730 C   0  0  0  0  0  2  0  0  0  0  0  0
  191.4950  175.9910  145.7250 C   0  0  2  0  0  3  0  0  0  0  0  0
  191.1210  177.4950  147.5610 O   0  0  0  0  0  0  0  0  0  0  0  0
  192.1280  176.7000  147.9480 O   0  0  0  0  0  0  0  0  0  0  0  0
  191.0970  176.1640  147.2010 C   0  0  0  0  0  3  0  0  0  0  0  0
  192.5450  175.0820  145.5650 O   0  0  0  0  0  0  0  0  0  0  0  0
  192.0480  174.1100  144.6960 C   0  0  0  0  0  2  0  0  0  0  0  0
  192.7730  172.9440  144.8440 F   0  0  0  0  0  0  0  0  0  0  0  0
  185.0620  179.2120  141.5820 O   0  0  0  0  0  0  0  0  0  0  0  0
  184.9530  179.2750  140.1900 C   0  0  0  0  0  2  0  0  0  0  0  0
  186.0820  178.4890  139.5490 C   0  0  0  0  0  2  0  0  0  0  0  0
  185.8400  178.3430  138.1570 O   0  0  0  0  0  0  0  0  0  0  0  0
  184.8630  176.2770  137.8380 O   0  0  0  0  0  0  0  0  0  0  0  0
  186.7980  176.6920  136.6290 N   0  0  0  0  0  2  0  0  0  0  0  0
  185.7840  177.0870  137.5500 C   0  0  0  0  0  0  0  0  0  0  0  0
  192.0500  176.6070  138.6070 C   0  0  0  0  0  1  0  0  0  0  0  0
  190.9170  175.5610  135.1270 C   0  0  2  0  0  3  0  0  0  0  0  0
  193.1520  176.0360  135.9530 O   0  0  0  0  0  0  0  0  0  0  0  0
  191.9080  175.9860  136.1540 C   0  0  0  0  0  0  0  0  0  0  0  0
  189.5650  177.9180  134.6340 O   0  0  0  0  0  1  0  0  0  0  0  0
  189.8840  176.1920  137.3090 C   0  0  2  0  0  3  0  0  0  0  0  0
  187.9190  177.5610  136.3020 C   0  0  1  0  0  3  0  0  0  0  0  0
  188.9970  177.7220  137.7540 S   0  0  0  0  0  0  0  0  0  0  0  0
  188.7490  176.9350  135.2020 C   0  0  2  0  0  3  0  0  0  0  0  0
  191.3150  176.3880  137.3730 N   0  0  0  0  0  0  0  0  0  0  0  0
  189.5800  175.8260  135.8490 C   0  0  1  0  0  3  0  0  0  0  0  0
  191.0290  174.0670  134.7690 C   0  0  2  0  0  3  0  0  0  0  0  0
  189.6640  173.4540  134.4910 C   0  0  0  0  0  1  0  0  0  0  0  0
  191.6540  173.2760  135.9130 C   0  0  0  0  0  2  0  0  0  0  0  0
  192.8820  172.4910  135.4770 C   0  0  0  0  0  2  0  0  0  0  0  0
  192.5190  171.2050  135.0700 O   0  0  0  0  0  1  0  0  0  0  0  0
  1 44  1  6  0  0  0
  2  7  2  0  0  0  0
  2  1  1  0  0  0  0
  3  2  1  0  0  0  0
  4  6  2  0  0  0  0
  4  3  1  0  0  0  0
  5  9  1  6  0  0  0
  5  4  1  0  0  0  0
  5  6  1  0  0  0  0
  6  8  1  0  0  0  0
  8  7  1  0  0  0  0
 10  9  1  0  0  0  0
 11 10  1  0  0  0  0
 11 12  1  0  0  0  0
 13 14  1  0  0  0  0
 14 12  1  0  0  0  0
 15 16  1  0  0  0  0
 15 17  1  0  0  0  0
 16 14  1  6  0  0  0
 16 17  1  0  0  0  0
 18 15  1  0  0  0  0
 18 19  1  0  0  0  0
 18 20  1  0  0  0  0
 21 22  1  0  0  0  0
 21 18  1  0  0  0  0
 23 24  1  0  0  0  0
 24 26  1  1  0  0  0
 25  1  1  6  0  0  0
 25 23  1  0  0  0  0
 25 24  1  0  0  0  0
 26 27  1  0  0  0  0
 27 29  1  0  0  0  0
 28 32  1  0  0  0  0
 28 31  1  0  0  0  0
 28 36  1  1  0  0  0
 30 29  1  0  0  0  0
 31 30  2  0  0  0  0
 32 34  1  6  0  0  0
 32 30  1  0  0  0  0
 34 35  1  6  0  0  0
 34 33  1  0  0  0  0
 37 36  1  1  0  0  0
 37 40  1  0  0  0  0
 38 39  1  0  0  0  0
 40 38  1  0  0  0  0
 40 39  1  0  0  0  0
 41 37  1  0  0  0  0
 42 43  1  0  0  0  0
 42 41  1  0  0  0  0
 45 44  1  0  0  0  0
 46 45  1  0  0  0  0
 47 46  1  0  0  0  0
 49 50  1  0  0  0  0
 50 48  2  0  0  0  0
 50 47  1  0  0  0  0
 52 62  1  1  0  0  0
 52 61  1  0  0  0  0
 52 54  1  0  0  0  0
 53 54  2  0  0  0  0
 54 60  1  0  0  0  0
 56 60  1  0  0  0  0
 56 58  1  6  0  0  0
 57 49  1  1  0  0  0
 57 58  1  0  0  0  0
 59 55  1  1  0  0  0
 59 61  1  0  0  0  0
 59 57  1  0  0  0  0
 60 51  1  0  0  0  0
 61 56  1  0  0  0  0
 62 64  1  0  0  0  0
 63 62  1  0  0  0  0
 65 64  1  0  0  0  0
 66 65  1  0  0  0  0
M  END
>  <MODEL>
4

>  <REMARK>
 VINA RESULT:      -5.5      3.994     10.278
  Name = 
  28 active torsions:
  status: ('A' for Active; 'I' for Inactive)
    1  A    between atoms: C_1  and  C_34
    2  A    between atoms: C_2  and  O_12
    3  A    between atoms: C_2  and  C_27
    4  A    between atoms: C_2  and  C_52
    5  A    between atoms: O_3  and  C_32
    6  A    between atoms: O_3  and  C_34
    7  A    between atoms: C_5  and  C_18
    8  A    between atoms: C_5  and  N_55
    9  A    between atoms: C_7  and  C_17
   10  A    between atoms: C_7  and  C_25
   11  A    between atoms: C_9  and  C_11
   12  A    between atoms: C_9  and  C_14
   13  A    between atoms: C_10  and  C_24
   14  A    between atoms: C_11  and  C_18
   15  A    between atoms: O_12  and  C_53
   16  A    between atoms: C_13  and  N_22
   17  A    between atoms: C_13  and  N_33
   18  A    between atoms: N_15  and  C_24
   19  A    between atoms: C_19  and  C_27
   20  A    between atoms: C_25  and  C_54
   21  A    between atoms: O_28  and  C_49
   22  A    between atoms: O_28  and  C_65
   23  A    between atoms: C_32  and  C_49
   24  A    between atoms: N_33  and  C_43
   25  A    between atoms: C_34  and  C_59
   26  A    between atoms: C_35  and  C_61
   27  A    between atoms: C_45  and  N_63
   28  A    between atoms: C_46  and  N_55
                            x       y       z     vdW  Elec       q    Type
                         _______ _______ _______ _____ _____    ______ ____

>  <TORSDO>
F 28

$$$$
=
 OpenBabel10232410133D

 66 73  0  0  1  0  0  0  0  0999 V2000
  190.0200  177.1050  140.4360 C   0  0  2  0  0  3  0  0  0  0  0  0
  190.5630  177.3860  141.7990 C   0  0  0  0  0  0  0  0  0  0  0  0
  190.9440  176.3330  142.6330 O   0  0  0  0  0  0  0  0  0  0  0  0
  191.5050  176.4890  143.9400 C   0  0  0  0  0  0  0  0  0  0  0  0
  190.4720  177.0760  144.8860 C   0  0  2  0  0  3  0  0  0  0  0  0
  191.6280  177.9440  144.4190 C   0  0  0  0  0  0  0  0  0  0  0  0
  190.6740  178.6380  142.2120 C   0  0  0  0  0  3  0  0  0  0  0  0
  191.1610  178.9260  143.4870 O   0  0  0  0  0  0  0  0  0  0  0  0
  190.7410  176.5750  146.2890 C   0  0  0  0  0  2  0  0  0  0  0  0
  189.9320  177.3810  147.2830 C   0  0  0  0  0  2  0  0  0  0  0  0
  188.4820  176.9470  147.2230 C   0  0  0  0  0  2  0  0  0  0  0  0
  187.6370  178.0420  146.5940 C   0  0  0  0  0  2  0  0  0  0  0  0
  187.2650  176.7400  144.6980 C   0  0  0  0  0  1  0  0  0  0  0  0
  186.5920  177.4580  145.7680 N   0  0  0  0  0  0  0  0  0  0  0  0
  184.4580  178.2730  145.1160 N   0  0  0  0  0  0  0  0  0  0  0  0
  185.8780  178.5630  145.1480 C   0  0  1  0  0  3  0  0  0  0  0  0
  185.0250  179.1260  146.0510 O   0  0  0  0  0  0  0  0  0  0  0  0
  183.7790  179.0670  144.0710 C   0  0  0  0  0  0  0  0  0  0  0  0
  184.2610  180.3830  143.9890 O   0  0  0  0  0  1  0  0  0  0  0  0
  182.4130  179.1130  144.3610 O   0  0  0  0  0  1  0  0  0  0  0  0
  183.9670  178.3960  142.7150 C   0  0  0  0  0  2  0  0  0  0  0  0
  184.6530  179.2300  141.8490 F   0  0  0  0  0  0  0  0  0  0  0  0
  191.0260  176.3310  138.2940 C   0  0  0  0  0  2  0  0  0  0  0  0
  192.0980  176.2650  139.3660 C   0  0  2  0  0  3  0  0  0  0  0  0
  191.0770  177.3910  139.3790 C   0  0  2  0  0  3  0  0  0  0  0  0
  193.3480  176.7680  138.8300 N   0  0  0  0  0  2  0  0  0  0  0  0
  194.0650  175.6300  138.2880 C   0  0  0  0  0  2  0  0  0  0  0  0
  195.8830  173.4360  135.0120 C   0  0  2  0  0  3  0  0  0  0  0  0
  194.2520  175.8110  136.8590 N   0  0  0  0  0  2  0  0  0  0  0  0
  194.9300  174.8280  136.0810 C   0  0  0  0  0  0  0  0  0  0  0  0
  195.2460  174.7160  134.7790 N   0  0  0  0  0  0  0  0  0  0  0  0
  195.6050  173.5170  136.3890 C   0  0  1  0  0  3  0  0  0  0  0  0
  195.0250  171.9610  138.1120 F   0  0  0  0  0  0  0  0  0  0  0  0
  194.6250  172.4370  136.8760 C   0  0  2  0  0  3  0  0  0  0  0  0
  194.3870  171.0300  135.7300 S   0  0  0  0  0  1  0  0  0  0  0  0
  197.3830  173.5450  134.7760 C   0  0  0  0  0  2  0  0  0  0  0  0
  198.1600  173.0700  136.0000 C   0  0  2  0  0  3  0  0  0  0  0  0
  198.7900  175.1250  137.0760 O   0  0  0  0  0  0  0  0  0  0  0  0
  199.1140  175.2810  135.7840 O   0  0  0  0  0  0  0  0  0  0  0  0
  199.2890  174.0460  136.3760 C   0  0  0  0  0  3  0  0  0  0  0  0
  198.6330  171.7710  135.7890 O   0  0  0  0  0  0  0  0  0  0  0  0
  198.8510  171.2580  137.0680 C   0  0  0  0  0  2  0  0  0  0  0  0
  197.6450  170.8770  137.6250 F   0  0  0  0  0  0  0  0  0  0  0  0
  188.8970  177.9050  140.2050 O   0  0  0  0  0  0  0  0  0  0  0  0
  188.1180  177.1870  139.2930 C   0  0  0  0  0  2  0  0  0  0  0  0
  187.8910  178.0190  138.0430 C   0  0  0  0  0  2  0  0  0  0  0  0
  187.3030  177.2160  137.0300 O   0  0  0  0  0  0  0  0  0  0  0  0
  188.1390  175.2440  137.8870 O   0  0  0  0  0  0  0  0  0  0  0  0
  186.6700  175.0440  136.1030 N   0  0  0  0  0  2  0  0  0  0  0  0
  187.3930  175.8230  137.0530 C   0  0  0  0  0  0  0  0  0  0  0  0
  181.4650  173.7060  134.4850 C   0  0  0  0  0  1  0  0  0  0  0  0
  182.5020  176.7680  136.4950 C   0  0  2  0  0  3  0  0  0  0  0  0
  180.4210  176.3110  135.3260 O   0  0  0  0  0  0  0  0  0  0  0  0
  181.5940  175.9630  135.6320 C   0  0  0  0  0  0  0  0  0  0  0  0
  184.4520  177.5420  134.6980 O   0  0  0  0  0  1  0  0  0  0  0  0
  183.5240  174.6420  135.6810 C   0  0  2  0  0  3  0  0  0  0  0  0
  185.8390  175.6580  135.0790 C   0  0  1  0  0  3  0  0  0  0  0  0
  184.7510  174.3980  134.3540 S   0  0  0  0  0  0  0  0  0  0  0  0
  184.9450  176.7070  135.7050 C   0  0  2  0  0  3  0  0  0  0  0  0
  182.1930  174.7820  135.1350 N   0  0  0  0  0  0  0  0  0  0  0  0
  183.8130  175.9610  136.4140 C   0  0  1  0  0  3  0  0  0  0  0  0
  182.0260  176.8450  137.9580 C   0  0  2  0  0  3  0  0  0  0  0  0
  183.1690  177.1920  138.9000 C   0  0  0  0  0  1  0  0  0  0  0  0
  181.4510  175.5090  138.4170 C   0  0  0  0  0  2  0  0  0  0  0  0
  180.0740  175.6520  139.0470 C   0  0  0  0  0  2  0  0  0  0  0  0
  180.0570  175.0710  140.3170 O   0  0  0  0  0  1  0  0  0  0  0  0
  1 44  1  6  0  0  0
  1  2  1  0  0  0  0
  2  7  2  0  0  0  0
  2  3  1  0  0  0  0
  3  4  1  0  0  0  0
  4  6  2  0  0  0  0
  4  5  1  0  0  0  0
  5  9  1  1  0  0  0
  6  5  1  0  0  0  0
  7  8  1  0  0  0  0
  8  6  1  0  0  0  0
  9 10  1  0  0  0  0
 11 10  1  0  0  0  0
 12 11  1  0  0  0  0
 13 14  1  0  0  0  0
 14 12  1  0  0  0  0
 15 16  1  0  0  0  0
 15 17  1  0  0  0  0
 16 14  1  1  0  0  0
 16 17  1  0  0  0  0
 18 20  1  0  0  0  0
 18 15  1  0  0  0  0
 19 18  1  0  0  0  0
 21 18  1  0  0  0  0
 22 21  1  0  0  0  0
 23 24  1  0  0  0  0
 23 25  1  0  0  0  0
 24 26  1  6  0  0  0
 24 25  1  0  0  0  0
 25  1  1  1  0  0  0
 27 26  1  0  0  0  0
 28 36  1  1  0  0  0
 28 32  1  0  0  0  0
 29 27  1  0  0  0  0
 30 32  1  0  0  0  0
 30 29  1  0  0  0  0
 31 28  1  0  0  0  0
 31 30  2  0  0  0  0
 32 34  1  6  0  0  0
 34 35  1  6  0  0  0
 34 33  1  0  0  0  0
 37 36  1  6  0  0  0
 37 40  1  0  0  0  0
 39 40  1  0  0  0  0
 39 38  1  0  0  0  0
 40 38  1  0  0  0  0
 41 37  1  0  0  0  0
 41 42  1  0  0  0  0
 42 43  1  0  0  0  0
 45 44  1  0  0  0  0
 46 45  1  0  0  0  0
 47 50  1  0  0  0  0
 47 46  1  0  0  0  0
 49 50  1  0  0  0  0
 50 48  2  0  0  0  0
 51 60  1  0  0  0  0
 52 62  1  1  0  0  0
 53 54  2  0  0  0  0
 54 52  1  0  0  0  0
 56 58  1  6  0  0  0
 56 61  1  0  0  0  0
 57 59  1  0  0  0  0
 57 49  1  1  0  0  0
 58 57  1  0  0  0  0
 59 55  1  6  0  0  0
 59 61  1  0  0  0  0
 60 54  1  0  0  0  0
 60 56  1  0  0  0  0
 61 52  1  0  0  0  0
 62 64  1  0  0  0  0
 62 63  1  0  0  0  0
 64 65  1  0  0  0  0
 65 66  1  0  0  0  0
M  END
>  <MODEL>
5

>  <REMARK>
 VINA RESULT:      -5.5      1.800      2.401
  Name = 
  28 active torsions:
  status: ('A' for Active; 'I' for Inactive)
    1  A    between atoms: C_1  and  C_34
    2  A    between atoms: C_2  and  O_12
    3  A    between atoms: C_2  and  C_27
    4  A    between atoms: C_2  and  C_52
    5  A    between atoms: O_3  and  C_32
    6  A    between atoms: O_3  and  C_34
    7  A    between atoms: C_5  and  C_18
    8  A    between atoms: C_5  and  N_55
    9  A    between atoms: C_7  and  C_17
   10  A    between atoms: C_7  and  C_25
   11  A    between atoms: C_9  and  C_11
   12  A    between atoms: C_9  and  C_14
   13  A    between atoms: C_10  and  C_24
   14  A    between atoms: C_11  and  C_18
   15  A    between atoms: O_12  and  C_53
   16  A    between atoms: C_13  and  N_22
   17  A    between atoms: C_13  and  N_33
   18  A    between atoms: N_15  and  C_24
   19  A    between atoms: C_19  and  C_27
   20  A    between atoms: C_25  and  C_54
   21  A    between atoms: O_28  and  C_49
   22  A    between atoms: O_28  and  C_65
   23  A    between atoms: C_32  and  C_49
   24  A    between atoms: N_33  and  C_43
   25  A    between atoms: C_34  and  C_59
   26  A    between atoms: C_35  and  C_61
   27  A    between atoms: C_45  and  N_63
   28  A    between atoms: C_46  and  N_55
                            x       y       z     vdW  Elec       q    Type
                         _______ _______ _______ _____ _____    ______ ____

>  <TORSDO>
F 28

$$$$
=
 OpenBabel10232410133D

 66 73  0  0  1  0  0  0  0  0999 V2000
  188.5430  177.5540  139.1100 C   0  0  2  0  0  3  0  0  0  0  0  0
  187.6040  176.9760  138.1030 C   0  0  0  0  0  0  0  0  0  0  0  0
  187.6710  175.6190  137.7780 O   0  0  0  0  0  0  0  0  0  0  0  0
  186.8020  174.9570  136.8550 C   0  0  0  0  0  0  0  0  0  0  0  0
  187.0460  175.4710  135.4460 C   0  0  2  0  0  3  0  0  0  0  0  0
  185.7720  175.8690  136.1720 C   0  0  0  0  0  0  0  0  0  0  0  0
  186.7130  177.7580  137.5160 C   0  0  0  0  0  3  0  0  0  0  0  0
  185.8370  177.2460  136.5590 O   0  0  0  0  0  0  0  0  0  0  0  0
  186.7480  174.3650  134.4560 C   0  0  0  0  0  2  0  0  0  0  0  0
  187.3960  173.0760  134.9180 C   0  0  0  0  0  2  0  0  0  0  0  0
  186.3360  172.1580  135.4920 C   0  0  0  0  0  2  0  0  0  0  0  0
  185.0050  172.4060  134.8030 C   0  0  0  0  0  2  0  0  0  0  0  0
  183.7070  170.5240  134.3560 C   0  0  0  0  0  1  0  0  0  0  0  0
  183.9800  171.5380  135.3620 N   0  0  0  0  0  0  0  0  0  0  0  0
  183.0650  173.5520  136.2280 N   0  0  0  0  0  0  0  0  0  0  0  0
  182.7730  172.3390  135.4890 C   0  0  1  0  0  3  0  0  0  0  0  0
  182.9400  173.5300  134.8460 O   0  0  0  0  0  0  0  0  0  0  0  0
  181.8370  174.1160  136.8270 C   0  0  0  0  0  0  0  0  0  0  0  0
  180.8520  173.1450  137.0620 O   0  0  0  0  0  1  0  0  0  0  0  0
  181.3150  175.0750  135.9560 O   0  0  0  0  0  1  0  0  0  0  0  0
  182.1780  174.7920  138.1500 C   0  0  0  0  0  2  0  0  0  0  0  0
  181.0270  175.2160  138.7910 F   0  0  0  0  0  0  0  0  0  0  0  0
  188.4690  178.7470  141.2940 C   0  0  0  0  0  2  0  0  0  0  0  0
  187.1500  178.0200  141.1130 C   0  0  2  0  0  3  0  0  0  0  0  0
  187.8470  178.6420  139.9150 C   0  0  2  0  0  3  0  0  0  0  0  0
  186.0610  178.8840  141.5270 N   0  0  0  0  0  2  0  0  0  0  0  0
  186.0950  178.9420  142.9760 C   0  0  0  0  0  2  0  0  0  0  0  0
  187.9020  177.6610  146.7100 C   0  0  2  0  0  3  0  0  0  0  0  0
  186.7340  177.7460  143.4940 N   0  0  0  0  0  2  0  0  0  0  0  0
  187.2230  177.7000  144.8310 C   0  0  0  0  0  0  0  0  0  0  0  0
  187.8410  176.7640  145.5730 N   0  0  0  0  0  0  0  0  0  0  0  0
  187.2870  178.6860  145.9680 C   0  0  1  0  0  3  0  0  0  0  0  0
  186.0300  180.0040  147.5210 F   0  0  0  0  0  0  0  0  0  0  0  0
  185.8990  179.0750  146.5040 C   0  0  2  0  0  3  0  0  0  0  0  0
  184.8710  177.6780  147.0840 S   0  0  0  0  0  1  0  0  0  0  0  0
  189.3480  178.0310  147.0100 C   0  0  0  0  0  2  0  0  0  0  0  0
  190.3090  177.1000  146.2800 C   0  0  2  0  0  3  0  0  0  0  0  0
  192.3500  176.4670  147.3800 O   0  0  0  0  0  0  0  0  0  0  0  0
  192.0160  175.4190  146.6130 O   0  0  0  0  0  0  0  0  0  0  0  0
  191.0180  176.1340  147.2470 C   0  0  0  0  0  3  0  0  0  0  0  0
  191.2150  177.8490  145.5230 O   0  0  0  0  0  0  0  0  0  0  0  0
  190.7740  177.7200  144.2060 C   0  0  0  0  0  2  0  0  0  0  0  0
  190.3590  178.9500  143.7350 F   0  0  0  0  0  0  0  0  0  0  0  0
  189.6560  178.0920  138.4580 O   0  0  0  0  0  0  0  0  0  0  0  0
  190.7620  177.4910  139.0680 C   0  0  0  0  0  2  0  0  0  0  0  0
  190.6680  175.9820  138.9330 C   0  0  0  0  0  2  0  0  0  0  0  0
  191.1540  175.5810  137.6600 O   0  0  0  0  0  0  0  0  0  0  0  0
  190.1270  173.5180  137.5450 O   0  0  0  0  0  0  0  0  0  0  0  0
  192.1950  173.6910  136.5100 N   0  0  0  0  0  2  0  0  0  0  0  0
  191.1080  174.2480  137.2440 C   0  0  0  0  0  0  0  0  0  0  0  0
  196.8870  174.4340  139.5000 C   0  0  0  0  0  1  0  0  0  0  0  0
  196.5140  172.3400  136.3430 C   0  0  2  0  0  3  0  0  0  0  0  0
  198.5260  173.1380  137.4460 O   0  0  0  0  0  0  0  0  0  0  0  0
  197.2680  173.0970  137.3800 C   0  0  0  0  0  0  0  0  0  0  0  0
  195.3590  174.3780  134.8800 O   0  0  0  0  0  1  0  0  0  0  0  0
  195.0460  173.5530  137.9560 C   0  0  2  0  0  3  0  0  0  0  0  0
  193.3810  174.4680  136.1840 C   0  0  1  0  0  3  0  0  0  0  0  0
  194.1210  175.1060  137.7150 S   0  0  0  0  0  0  0  0  0  0  0  0
  194.4150  173.5760  135.5310 C   0  0  2  0  0  3  0  0  0  0  0  0
  196.4330  173.8210  138.2630 N   0  0  0  0  0  0  0  0  0  0  0  0
  195.0590  172.7510  136.6460 C   0  0  1  0  0  3  0  0  0  0  0  0
  196.6650  170.8140  136.4880 C   0  0  2  0  0  3  0  0  0  0  0  0
  196.8870  170.1440  135.1400 C   0  0  0  0  0  1  0  0  0  0  0  0
  195.4110  170.1950  137.0980 C   0  0  0  0  0  2  0  0  0  0  0  0
  195.7120  168.9370  137.8980 C   0  0  0  0  0  2  0  0  0  0  0  0
  197.0540  168.9160  138.2860 O   0  0  0  0  0  1  0  0  0  0  0  0
  1 44  1  6  0  0  0
  2  1  1  0  0  0  0
  3  2  1  0  0  0  0
  4  3  1  0  0  0  0
  5  9  1  6  0  0  0
  5  6  1  0  0  0  0
  5  4  1  0  0  0  0
  6  8  1  0  0  0  0
  6  4  2  0  0  0  0
  7  2  2  0  0  0  0
  8  7  1  0  0  0  0
  9 10  1  0  0  0  0
 10 11  1  0  0  0  0
 12 14  1  0  0  0  0
 12 11  1  0  0  0  0
 13 14  1  0  0  0  0
 15 18  1  0  0  0  0
 16 14  1  6  0  0  0
 16 15  1  0  0  0  0
 17 16  1  0  0  0  0
 17 15  1  0  0  0  0
 18 19  1  0  0  0  0
 18 21  1  0  0  0  0
 20 18  1  0  0  0  0
 21 22  1  0  0  0  0
 24 23  1  0  0  0  0
 24 26  1  1  0  0  0
 25  1  1  6  0  0  0
 25 24  1  0  0  0  0
 25 23  1  0  0  0  0
 26 27  1  0  0  0  0
 27 29  1  0  0  0  0
 28 36  1  6  0  0  0
 29 30  1  0  0  0  0
 30 31  2  0  0  0  0
 30 32  1  0  0  0  0
 31 28  1  0  0  0  0
 32 34  1  1  0  0  0
 32 28  1  0  0  0  0
 34 35  1  1  0  0  0
 34 33  1  0  0  0  0
 37 36  1  1  0  0  0
 37 40  1  0  0  0  0
 39 40  1  0  0  0  0
 39 38  1  0  0  0  0
 40 38  1  0  0  0  0
 41 37  1  0  0  0  0
 42 41  1  0  0  0  0
 43 42  1  0  0  0  0
 44 45  1  0  0  0  0
 46 45  1  0  0  0  0
 47 46  1  0  0  0  0
 49 50  1  0  0  0  0
 50 48  2  0  0  0  0
 50 47  1  0  0  0  0
 52 62  1  1  0  0  0
 52 61  1  0  0  0  0
 52 54  1  0  0  0  0
 54 53  2  0  0  0  0
 54 60  1  0  0  0  0
 56 58  1  6  0  0  0
 56 60  1  0  0  0  0
 57 49  1  1  0  0  0
 57 58  1  0  0  0  0
 59 55  1  1  0  0  0
 59 57  1  0  0  0  0
 59 61  1  0  0  0  0
 60 51  1  0  0  0  0
 61 56  1  0  0  0  0
 62 64  1  0  0  0  0
 63 62  1  0  0  0  0
 64 65  1  0  0  0  0
 65 66  1  0  0  0  0
M  END
>  <MODEL>
6

>  <REMARK>
 VINA RESULT:      -5.3      3.752     11.866
  Name = 
  28 active torsions:
  status: ('A' for Active; 'I' for Inactive)
    1  A    between atoms: C_1  and  C_34
    2  A    between atoms: C_2  and  O_12
    3  A    between atoms: C_2  and  C_27
    4  A    between atoms: C_2  and  C_52
    5  A    between atoms: O_3  and  C_32
    6  A    between atoms: O_3  and  C_34
    7  A    between atoms: C_5  and  C_18
    8  A    between atoms: C_5  and  N_55
    9  A    between atoms: C_7  and  C_17
   10  A    between atoms: C_7  and  C_25
   11  A    between atoms: C_9  and  C_11
   12  A    between atoms: C_9  and  C_14
   13  A    between atoms: C_10  and  C_24
   14  A    between atoms: C_11  and  C_18
   15  A    between atoms: O_12  and  C_53
   16  A    between atoms: C_13  and  N_22
   17  A    between atoms: C_13  and  N_33
   18  A    between atoms: N_15  and  C_24
   19  A    between atoms: C_19  and  C_27
   20  A    between atoms: C_25  and  C_54
   21  A    between atoms: O_28  and  C_49
   22  A    between atoms: O_28  and  C_65
   23  A    between atoms: C_32  and  C_49
   24  A    between atoms: N_33  and  C_43
   25  A    between atoms: C_34  and  C_59
   26  A    between atoms: C_35  and  C_61
   27  A    between atoms: C_45  and  N_63
   28  A    between atoms: C_46  and  N_55
                            x       y       z     vdW  Elec       q    Type
                         _______ _______ _______ _____ _____    ______ ____

>  <TORSDO>
F 28

$$$$
=
 OpenBabel10232410133D

 66 73  0  0  1  0  0  0  0  0999 V2000
  190.0910  175.9420  137.2270 C   0  0  2  0  0  3  0  0  0  0  0  0
  190.7310  175.0090  136.2510 C   0  0  0  0  0  0  0  0  0  0  0  0
  190.2440  173.7090  136.1000 O   0  0  0  0  0  0  0  0  0  0  0  0
  190.7590  172.7470  135.1750 C   0  0  0  0  0  0  0  0  0  0  0  0
  192.1700  172.3450  135.5700 C   0  0  2  0  0  3  0  0  0  0  0  0
  191.9630  173.2270  134.3500 C   0  0  0  0  0  0  0  0  0  0  0  0
  191.7660  175.4210  135.5360 C   0  0  0  0  0  3  0  0  0  0  0  0
  192.3920  174.5630  134.6310 O   0  0  0  0  0  0  0  0  0  0  0  0
  192.4190  170.9160  135.1330 C   0  0  0  0  0  2  0  0  0  0  0  0
  193.8830  170.7360  134.7890 C   0  0  0  0  0  2  0  0  0  0  0  0
  194.6910  170.6280  136.0670 C   0  0  0  0  0  2  0  0  0  0  0  0
  196.0970  171.1590  135.8380 C   0  0  0  0  0  2  0  0  0  0  0  0
  195.4760  172.6290  137.5360 C   0  0  0  0  0  1  0  0  0  0  0  0
  196.5820  171.8280  137.0360 N   0  0  0  0  0  0  0  0  0  0  0  0
  198.4500  173.1150  137.7390 N   0  0  0  0  0  0  0  0  0  0  0  0
  197.6150  172.7580  136.6090 C   0  0  1  0  0  3  0  0  0  0  0  0
  198.8440  172.1930  136.7800 O   0  0  0  0  0  0  0  0  0  0  0  0
  199.1410  174.3990  137.5020 C   0  0  0  0  0  0  0  0  0  0  0  0
  200.0250  174.7390  138.5380 O   0  0  0  0  0  1  0  0  0  0  0  0
  198.1830  175.4090  137.3890 O   0  0  0  0  0  1  0  0  0  0  0  0
  199.9270  174.3240  136.1980 C   0  0  0  0  0  2  0  0  0  0  0  0
  199.3710  175.1610  135.2450 F   0  0  0  0  0  0  0  0  0  0  0  0
  189.1020  178.2150  137.4570 C   0  0  0  0  0  2  0  0  0  0  0  0
  187.9980  177.2650  137.0290 C   0  0  2  0  0  3  0  0  0  0  0  0
  189.4080  177.0860  136.4910 C   0  0  2  0  0  3  0  0  0  0  0  0
  187.1830  177.9000  136.0120 N   0  0  0  0  0  2  0  0  0  0  0  0
  185.8320  177.4000  136.1800 C   0  0  0  0  0  2  0  0  0  0  0  0
  182.2520  176.8720  138.5790 C   0  0  2  0  0  3  0  0  0  0  0  0
  185.2210  178.0320  137.3360 N   0  0  0  0  0  2  0  0  0  0  0  0
  183.9850  177.5570  137.8610 C   0  0  0  0  0  0  0  0  0  0  0  0
  183.1990  177.9230  138.8890 N   0  0  0  0  0  0  0  0  0  0  0  0
  183.0200  176.4670  137.4720 C   0  0  1  0  0  3  0  0  0  0  0  0
  184.8920  175.0230  137.1000 F   0  0  0  0  0  0  0  0  0  0  0  0
  183.6140  175.0570  137.6270 C   0  0  2  0  0  3  0  0  0  0  0  0
  182.6160  173.7100  136.8940 S   0  0  0  0  0  1  0  0  0  0  0  0
  180.9350  177.4730  138.1060 C   0  0  0  0  0  2  0  0  0  0  0  0
  180.2540  178.2420  139.2330 C   0  0  2  0  0  3  0  0  0  0  0  0
  180.9770  180.1860  138.0190 O   0  0  0  0  0  0  0  0  0  0  0  0
  180.9760  180.5490  139.3100 O   0  0  0  0  0  0  0  0  0  0  0  0
  179.9840  179.7070  138.8460 C   0  0  0  0  0  3  0  0  0  0  0  0
  181.0090  178.1370  140.4050 O   0  0  0  0  0  0  0  0  0  0  0  0
  180.1810  177.4660  141.3060 C   0  0  0  0  0  2  0  0  0  0  0  0
  180.1690  178.1380  142.5120 F   0  0  0  0  0  0  0  0  0  0  0  0
  191.0620  176.4530  138.0920 O   0  0  0  0  0  0  0  0  0  0  0  0
  190.4130  176.6090  139.3200 C   0  0  0  0  0  2  0  0  0  0  0  0
  191.4190  176.9920  140.3900 C   0  0  0  0  0  2  0  0  0  0  0  0
  190.7670  177.1060  141.6470 O   0  0  0  0  0  0  0  0  0  0  0  0
  192.2720  178.6350  142.4980 O   0  0  0  0  0  0  0  0  0  0  0  0
  190.8890  177.5910  144.0400 N   0  0  0  0  0  2  0  0  0  0  0  0
  191.3360  177.8170  142.7060 C   0  0  0  0  0  0  0  0  0  0  0  0
  186.4540  178.0860  147.4450 C   0  0  0  0  0  1  0  0  0  0  0  0
  186.3980  178.0060  143.6400 C   0  0  2  0  0  3  0  0  0  0  0  0
  184.5770  177.7280  145.2240 O   0  0  0  0  0  0  0  0  0  0  0  0
  185.8080  177.8920  145.0020 C   0  0  0  0  0  0  0  0  0  0  0  0
  187.8680  175.6740  143.4620 O   0  0  0  0  0  1  0  0  0  0  0  0
  188.0840  178.1530  145.4730 C   0  0  2  0  0  3  0  0  0  0  0  0
  189.8530  176.6180  144.3490 C   0  0  1  0  0  3  0  0  0  0  0  0
  189.2640  176.8850  146.0460 S   0  0  0  0  0  0  0  0  0  0  0  0
  188.6670  176.8220  143.4320 C   0  0  2  0  0  3  0  0  0  0  0  0
  186.7710  177.9280  146.0360 N   0  0  0  0  0  0  0  0  0  0  0  0
  187.9080  178.0430  143.9520 C   0  0  1  0  0  3  0  0  0  0  0  0
  185.9830  179.3000  142.9140 C   0  0  2  0  0  3  0  0  0  0  0  0
  184.8600  180.0170  143.6470 C   0  0  0  0  0  1  0  0  0  0  0  0
  185.4820  178.9990  141.5040 C   0  0  0  0  0  2  0  0  0  0  0  0
  186.5610  178.3920  140.6200 C   0  0  0  0  0  2  0  0  0  0  0  0
  187.7080  179.1890  140.6340 O   0  0  0  0  0  1  0  0  0  0  0  0
  1 44  1  1  0  0  0
  2  1  1  0  0  0  0
  3  2  1  0  0  0  0
  4  5  1  0  0  0  0
  4  3  1  0  0  0  0
  5  9  1  6  0  0  0
  6  8  1  0  0  0  0
  6  4  2  0  0  0  0
  6  5  1  0  0  0  0
  7  2  2  0  0  0  0
  8  7  1  0  0  0  0
 10  9  1  0  0  0  0
 10 11  1  0  0  0  0
 12 11  1  0  0  0  0
 12 14  1  0  0  0  0
 14 13  1  0  0  0  0
 16 17  1  0  0  0  0
 16 14  1  1  0  0  0
 16 15  1  0  0  0  0
 17 15  1  0  0  0  0
 18 15  1  0  0  0  0
 18 19  1  0  0  0  0
 20 18  1  0  0  0  0
 21 18  1  0  0  0  0
 22 21  1  0  0  0  0
 24 26  1  6  0  0  0
 24 23  1  0  0  0  0
 25 24  1  0  0  0  0
 25  1  1  1  0  0  0
 25 23  1  0  0  0  0
 26 27  1  0  0  0  0
 27 29  1  0  0  0  0
 28 36  1  6  0  0  0
 28 31  1  0  0  0  0
 29 30  1  0  0  0  0
 30 31  2  0  0  0  0
 32 34  1  1  0  0  0
 32 30  1  0  0  0  0
 32 28  1  0  0  0  0
 33 34  1  0  0  0  0
 34 35  1  6  0  0  0
 37 36  1  6  0  0  0
 37 41  1  0  0  0  0
 38 40  1  0  0  0  0
 38 39  1  0  0  0  0
 40 37  1  0  0  0  0
 40 39  1  0  0  0  0
 41 42  1  0  0  0  0
 42 43  1  0  0  0  0
 44 45  1  0  0  0  0
 45 46  1  0  0  0  0
 46 47  1  0  0  0  0
 47 50  1  0  0  0  0
 48 50  2  0  0  0  0
 50 49  1  0  0  0  0
 52 62  1  1  0  0  0
 52 61  1  0  0  0  0
 52 54  1  0  0  0  0
 54 53  2  0  0  0  0
 54 60  1  0  0  0  0
 56 60  1  0  0  0  0
 56 58  1  1  0  0  0
 57 49  1  6  0  0  0
 57 58  1  0  0  0  0
 59 55  1  1  0  0  0
 59 61  1  0  0  0  0
 59 57  1  0  0  0  0
 60 51  1  0  0  0  0
 61 56  1  0  0  0  0
 62 63  1  0  0  0  0
 64 62  1  0  0  0  0
 65 66  1  0  0  0  0
 65 64  1  0  0  0  0
M  END
>  <MODEL>
7

>  <REMARK>
 VINA RESULT:      -4.9      2.937     12.074
  Name = 
  28 active torsions:
  status: ('A' for Active; 'I' for Inactive)
    1  A    between atoms: C_1  and  C_34
    2  A    between atoms: C_2  and  O_12
    3  A    between atoms: C_2  and  C_27
    4  A    between atoms: C_2  and  C_52
    5  A    between atoms: O_3  and  C_32
    6  A    between atoms: O_3  and  C_34
    7  A    between atoms: C_5  and  C_18
    8  A    between atoms: C_5  and  N_55
    9  A    between atoms: C_7  and  C_17
   10  A    between atoms: C_7  and  C_25
   11  A    between atoms: C_9  and  C_11
   12  A    between atoms: C_9  and  C_14
   13  A    between atoms: C_10  and  C_24
   14  A    between atoms: C_11  and  C_18
   15  A    between atoms: O_12  and  C_53
   16  A    between atoms: C_13  and  N_22
   17  A    between atoms: C_13  and  N_33
   18  A    between atoms: N_15  and  C_24
   19  A    between atoms: C_19  and  C_27
   20  A    between atoms: C_25  and  C_54
   21  A    between atoms: O_28  and  C_49
   22  A    between atoms: O_28  and  C_65
   23  A    between atoms: C_32  and  C_49
   24  A    between atoms: N_33  and  C_43
   25  A    between atoms: C_34  and  C_59
   26  A    between atoms: C_35  and  C_61
   27  A    between atoms: C_45  and  N_63
   28  A    between atoms: C_46  and  N_55
                            x       y       z     vdW  Elec       q    Type
                         _______ _______ _______ _____ _____    ______ ____

>  <TORSDO>
F 28

$$$$
=
 OpenBabel10232410133D

 66 73  0  0  1  0  0  0  0  0999 V2000
  190.0910  177.3540  140.1300 C   0  0  2  0  0  3  0  0  0  0  0  0
  190.4410  177.6770  141.5460 C   0  0  0  0  0  0  0  0  0  0  0  0
  191.1930  176.7780  142.3040 O   0  0  0  0  0  0  0  0  0  0  0  0
  191.6110  177.0000  143.6550 C   0  0  0  0  0  0  0  0  0  0  0  0
  190.4050  177.0170  144.5790 C   0  0  2  0  0  3  0  0  0  0  0  0
  191.1240  178.3200  144.2710 C   0  0  0  0  0  0  0  0  0  0  0  0
  190.0260  178.8150  142.0780 C   0  0  0  0  0  3  0  0  0  0  0  0
  190.3240  179.1310  143.4040 O   0  0  0  0  0  0  0  0  0  0  0  0
  190.8190  176.5130  145.9450 C   0  0  0  0  0  2  0  0  0  0  0  0
  189.8260  176.9870  146.9860 C   0  0  0  0  0  2  0  0  0  0  0  0
  188.4600  177.1370  146.3470 C   0  0  0  0  0  2  0  0  0  0  0  0
  187.6540  178.1920  147.0870 C   0  0  0  0  0  2  0  0  0  0  0  0
  186.0930  176.5130  146.6710 C   0  0  0  0  0  1  0  0  0  0  0  0
  186.2300  177.9370  146.9320 N   0  0  0  0  0  0  0  0  0  0  0  0
  184.4020  178.9670  145.8190 N   0  0  0  0  0  0  0  0  0  0  0  0
  185.8080  178.6280  145.7240 C   0  0  1  0  0  3  0  0  0  0  0  0
  185.4110  179.8950  146.0320 O   0  0  0  0  0  0  0  0  0  0  0  0
  183.8150  179.1750  144.4790 C   0  0  0  0  0  0  0  0  0  0  0  0
  183.7590  180.5280  144.1140 O   0  0  0  0  0  1  0  0  0  0  0  0
  182.5160  178.6610  144.4760 O   0  0  0  0  0  1  0  0  0  0  0  0
  184.6380  178.4240  143.4390 C   0  0  0  0  0  2  0  0  0  0  0  0
  185.1490  179.3010  142.4970 F   0  0  0  0  0  0  0  0  0  0  0  0
  191.0760  176.9260  137.8830 C   0  0  0  0  0  2  0  0  0  0  0  0
  191.9830  176.2910  138.9210 C   0  0  2  0  0  3  0  0  0  0  0  0
  191.2860  177.6080  139.2220 C   0  0  2  0  0  3  0  0  0  0  0  0
  193.3670  176.5580  138.5800 N   0  0  0  0  0  2  0  0  0  0  0  0
  193.8780  175.3680  137.9260 C   0  0  0  0  0  2  0  0  0  0  0  0
  197.1580  172.7050  136.9280 C   0  0  2  0  0  3  0  0  0  0  0  0
  195.1880  175.0450  138.4620 N   0  0  0  0  0  2  0  0  0  0  0  0
  196.0150  174.0720  137.8300 C   0  0  0  0  0  0  0  0  0  0  0  0
  197.2390  173.5740  138.0830 N   0  0  0  0  0  0  0  0  0  0  0  0
  195.8610  173.1670  136.6360 C   0  0  1  0  0  3  0  0  0  0  0  0
  196.1070  175.2640  135.5100 F   0  0  0  0  0  0  0  0  0  0  0  0
  195.7750  173.9370  135.3070 C   0  0  2  0  0  3  0  0  0  0  0  0
  194.1600  173.8360  134.4540 S   0  0  0  0  0  1  0  0  0  0  0  0
  197.1030  171.2480  137.3690 C   0  0  0  0  0  2  0  0  0  0  0  0
  196.6750  170.3480  136.2150 C   0  0  2  0  0  3  0  0  0  0  0  0
  195.0370  168.6950  136.8170 O   0  0  0  0  0  0  0  0  0  0  0  0
  194.8860  168.8870  135.4980 O   0  0  0  0  0  0  0  0  0  0  0  0
  195.1860  169.9670  136.3060 C   0  0  0  0  0  3  0  0  0  0  0  0
  197.5040  169.2240  136.1550 O   0  0  0  0  0  0  0  0  0  0  0  0
  198.6340  169.6480  135.4550 C   0  0  0  0  0  2  0  0  0  0  0  0
  199.7450  169.5530  136.2690 F   0  0  0  0  0  0  0  0  0  0  0  0
  189.0150  178.1470  139.7210 O   0  0  0  0  0  0  0  0  0  0  0  0
  188.2370  177.3160  138.9090 C   0  0  0  0  0  2  0  0  0  0  0  0
  187.9870  177.9910  137.5720 C   0  0  0  0  0  2  0  0  0  0  0  0
  187.1980  177.1470  136.7450 O   0  0  0  0  0  0  0  0  0  0  0  0
  188.2860  175.2080  137.3620 O   0  0  0  0  0  0  0  0  0  0  0  0
  186.2750  174.9410  136.2380 N   0  0  0  0  0  2  0  0  0  0  0  0
  187.2900  175.7560  136.8180 C   0  0  0  0  0  0  0  0  0  0  0  0
  180.9510  173.1700  136.1060 C   0  0  0  0  0  1  0  0  0  0  0  0
  182.2820  176.2270  137.9420 C   0  0  2  0  0  3  0  0  0  0  0  0
  179.9940  175.6190  137.3970 O   0  0  0  0  0  0  0  0  0  0  0  0
  181.2280  175.3750  137.3240 C   0  0  0  0  0  0  0  0  0  0  0  0
  183.5450  177.2680  135.7170 O   0  0  0  0  0  1  0  0  0  0  0  0
  183.1880  174.2500  136.7180 C   0  0  2  0  0  3  0  0  0  0  0  0
  185.1320  175.5150  135.5450 C   0  0  1  0  0  3  0  0  0  0  0  0
  183.9840  174.1870  135.0780 S   0  0  0  0  0  0  0  0  0  0  0  0
  184.3800  176.4410  136.4770 C   0  0  2  0  0  3  0  0  0  0  0  0
  181.7480  174.2820  136.5920 N   0  0  0  0  0  0  0  0  0  0  0  0
  183.5720  175.5570  137.4280 C   0  0  1  0  0  3  0  0  0  0  0  0
  182.2540  176.1920  139.4820 C   0  0  2  0  0  3  0  0  0  0  0  0
  181.0500  175.4210  140.0010 C   0  0  0  0  0  1  0  0  0  0  0  0
  182.1720  177.6020  140.0590 C   0  0  0  0  0  2  0  0  0  0  0  0
  180.8940  178.3230  139.6550 C   0  0  0  0  0  2  0  0  0  0  0  0
  180.1700  178.7010  140.7880 O   0  0  0  0  0  1  0  0  0  0  0  0
  1 44  1  6  0  0  0
  1  2  1  0  0  0  0
  2  7  2  0  0  0  0
  2  3  1  0  0  0  0
  3  4  1  0  0  0  0
  4  6  2  0  0  0  0
  4  5  1  0  0  0  0
  5  9  1  1  0  0  0
  6  5  1  0  0  0  0
  7  8  1  0  0  0  0
  8  6  1  0  0  0  0
  9 10  1  0  0  0  0
 11 10  1  0  0  0  0
 11 12  1  0  0  0  0
 13 14  1  0  0  0  0
 14 12  1  0  0  0  0
 15 17  1  0  0  0  0
 16 15  1  0  0  0  0
 16 17  1  0  0  0  0
 16 14  1  1  0  0  0
 18 15  1  0  0  0  0
 19 18  1  0  0  0  0
 20 18  1  0  0  0  0
 21 18  1  0  0  0  0
 22 21  1  0  0  0  0
 23 24  1  0  0  0  0
 23 25  1  0  0  0  0
 24 26  1  6  0  0  0
 24 25  1  0  0  0  0
 25  1  1  1  0  0  0
 27 29  1  0  0  0  0
 27 26  1  0  0  0  0
 28 36  1  1  0  0  0
 28 31  1  0  0  0  0
 30 31  2  0  0  0  0
 30 29  1  0  0  0  0
 32 34  1  6  0  0  0
 32 28  1  0  0  0  0
 32 30  1  0  0  0  0
 34 35  1  1  0  0  0
 34 33  1  0  0  0  0
 37 40  1  0  0  0  0
 37 36  1  1  0  0  0
 39 40  1  0  0  0  0
 39 38  1  0  0  0  0
 40 38  1  0  0  0  0
 41 37  1  0  0  0  0
 42 41  1  0  0  0  0
 42 43  1  0  0  0  0
 45 44  1  0  0  0  0
 46 45  1  0  0  0  0
 47 50  1  0  0  0  0
 47 46  1  0  0  0  0
 49 50  1  0  0  0  0
 50 48  2  0  0  0  0
 51 60  1  0  0  0  0
 52 62  1  1  0  0  0
 54 53  2  0  0  0  0
 54 52  1  0  0  0  0
 56 58  1  6  0  0  0
 56 61  1  0  0  0  0
 57 49  1  1  0  0  0
 57 59  1  0  0  0  0
 58 57  1  0  0  0  0
 59 55  1  6  0  0  0
 59 61  1  0  0  0  0
 60 56  1  0  0  0  0
 60 54  1  0  0  0  0
 61 52  1  0  0  0  0
 62 63  1  0  0  0  0
 62 64  1  0  0  0  0
 65 64  1  0  0  0  0
 65 66  1  0  0  0  0
M  END
>  <MODEL>
8

>  <REMARK>
 VINA RESULT:      -4.9      2.240      2.702
  Name = 
  28 active torsions:
  status: ('A' for Active; 'I' for Inactive)
    1  A    between atoms: C_1  and  C_34
    2  A    between atoms: C_2  and  O_12
    3  A    between atoms: C_2  and  C_27
    4  A    between atoms: C_2  and  C_52
    5  A    between atoms: O_3  and  C_32
    6  A    between atoms: O_3  and  C_34
    7  A    between atoms: C_5  and  C_18
    8  A    between atoms: C_5  and  N_55
    9  A    between atoms: C_7  and  C_17
   10  A    between atoms: C_7  and  C_25
   11  A    between atoms: C_9  and  C_11
   12  A    between atoms: C_9  and  C_14
   13  A    between atoms: C_10  and  C_24
   14  A    between atoms: C_11  and  C_18
   15  A    between atoms: O_12  and  C_53
   16  A    between atoms: C_13  and  N_22
   17  A    between atoms: C_13  and  N_33
   18  A    between atoms: N_15  and  C_24
   19  A    between atoms: C_19  and  C_27
   20  A    between atoms: C_25  and  C_54
   21  A    between atoms: O_28  and  C_49
   22  A    between atoms: O_28  and  C_65
   23  A    between atoms: C_32  and  C_49
   24  A    between atoms: N_33  and  C_43
   25  A    between atoms: C_34  and  C_59
   26  A    between atoms: C_35  and  C_61
   27  A    between atoms: C_45  and  N_63
   28  A    between atoms: C_46  and  N_55
                            x       y       z     vdW  Elec       q    Type
                         _______ _______ _______ _____ _____    ______ ____

>  <TORSDO>
F 28

$$$$
=
 OpenBabel10232410133D

 66 73  0  0  1  0  0  0  0  0999 V2000
  190.5710  175.5390  137.5020 C   0  0  2  0  0  3  0  0  0  0  0  0
  191.1890  174.6020  136.5170 C   0  0  0  0  0  0  0  0  0  0  0  0
  190.6700  173.3160  136.3520 O   0  0  0  0  0  0  0  0  0  0  0  0
  191.1630  172.3510  135.4170 C   0  0  0  0  0  0  0  0  0  0  0  0
  192.5620  171.9100  135.8090 C   0  0  2  0  0  3  0  0  0  0  0  0
  192.3780  172.8100  134.5980 C   0  0  0  0  0  0  0  0  0  0  0  0
  192.2340  174.9960  135.8070 C   0  0  0  0  0  3  0  0  0  0  0  0
  192.8390  174.1330  134.8940 O   0  0  0  0  0  0  0  0  0  0  0  0
  192.7770  170.4810  135.3570 C   0  0  0  0  0  2  0  0  0  0  0  0
  194.0060  170.4030  134.4750 C   0  0  0  0  0  2  0  0  0  0  0  0
  195.2470  170.3560  135.3440 C   0  0  0  0  0  2  0  0  0  0  0  0
  195.8180  171.7550  135.5100 C   0  0  0  0  0  2  0  0  0  0  0  0
  195.2580  171.9260  137.7640 C   0  0  0  0  0  1  0  0  0  0  0  0
  196.3810  171.9130  136.8420 N   0  0  0  0  0  0  0  0  0  0  0  0
  198.3860  173.1510  136.5440 N   0  0  0  0  0  0  0  0  0  0  0  0
  196.9810  173.2360  136.8910 C   0  0  1  0  0  3  0  0  0  0  0  0
  197.4210  173.5900  135.6500 O   0  0  0  0  0  0  0  0  0  0  0  0
  199.1340  174.3100  137.0730 C   0  0  0  0  0  0  0  0  0  0  0  0
  199.7460  174.0450  138.3080 O   0  0  0  0  0  1  0  0  0  0  0  0
  198.2480  175.3770  137.2390 O   0  0  0  0  0  1  0  0  0  0  0  0
  200.2110  174.7220  136.0760 C   0  0  0  0  0  2  0  0  0  0  0  0
  200.0810  174.0090  134.8970 F   0  0  0  0  0  0  0  0  0  0  0  0
  189.5670  177.8010  137.7730 C   0  0  0  0  0  2  0  0  0  0  0  0
  188.4890  176.8710  137.2470 C   0  0  2  0  0  3  0  0  0  0  0  0
  189.9270  176.7130  136.7790 C   0  0  2  0  0  3  0  0  0  0  0  0
  187.7290  177.5470  136.2140 N   0  0  0  0  0  2  0  0  0  0  0  0
  186.6320  176.6690  135.8520 C   0  0  0  0  0  2  0  0  0  0  0  0
  183.4060  174.2040  137.3900 C   0  0  2  0  0  3  0  0  0  0  0  0
  185.5650  176.7990  136.8280 N   0  0  0  0  0  2  0  0  0  0  0  0
  184.6610  175.7250  137.0690 C   0  0  0  0  0  0  0  0  0  0  0  0
  183.6070  175.5500  137.8870 N   0  0  0  0  0  0  0  0  0  0  0  0
  184.4810  174.3440  136.4930 C   0  0  1  0  0  3  0  0  0  0  0  0
  186.6410  174.0950  137.4930 F   0  0  0  0  0  0  0  0  0  0  0  0
  185.6590  173.4060  136.8050 C   0  0  2  0  0  3  0  0  0  0  0  0
  186.4000  172.5810  135.3500 S   0  0  0  0  0  1  0  0  0  0  0  0
  182.0950  174.1170  136.6210 C   0  0  0  0  0  2  0  0  0  0  0  0
  181.6400  172.6690  136.4870 C   0  0  2  0  0  3  0  0  0  0  0  0
  180.0340  172.5770  138.2720 O   0  0  0  0  0  0  0  0  0  0  0  0
  179.9960  171.3690  137.6930 O   0  0  0  0  0  0  0  0  0  0  0  0
  180.1690  172.4880  136.9030 C   0  0  0  0  0  3  0  0  0  0  0  0
  182.4980  171.8310  137.2060 O   0  0  0  0  0  0  0  0  0  0  0  0
  183.0630  170.9890  136.2480 C   0  0  0  0  0  2  0  0  0  0  0  0
  182.0650  170.4420  135.4670 F   0  0  0  0  0  0  0  0  0  0  0  0
  191.5520  176.0100  138.3800 O   0  0  0  0  0  0  0  0  0  0  0  0
  190.8940  176.1900  139.6010 C   0  0  0  0  0  2  0  0  0  0  0  0
  191.7940  176.9440  140.5630 C   0  0  0  0  0  2  0  0  0  0  0  0
  191.2000  176.9760  141.8530 O   0  0  0  0  0  0  0  0  0  0  0  0
  192.1340  179.0150  142.3950 O   0  0  0  0  0  0  0  0  0  0  0  0
  190.7350  178.0750  143.9870 N   0  0  0  0  0  2  0  0  0  0  0  0
  191.3770  178.0600  142.7150 C   0  0  0  0  0  0  0  0  0  0  0  0
  186.9150  177.9730  148.0990 C   0  0  0  0  0  1  0  0  0  0  0  0
  186.2250  177.9140  144.3560 C   0  0  2  0  0  3  0  0  0  0  0  0
  184.7480  177.3940  146.2150 O   0  0  0  0  0  0  0  0  0  0  0  0
  185.8930  177.7150  145.7950 C   0  0  0  0  0  0  0  0  0  0  0  0
  187.9220  175.7910  143.8680 O   0  0  0  0  0  1  0  0  0  0  0  0
  188.1660  178.2630  145.8860 C   0  0  2  0  0  3  0  0  0  0  0  0
  189.8960  176.9740  144.4370 C   0  0  1  0  0  3  0  0  0  0  0  0
  189.5750  177.1520  146.2160 S   0  0  0  0  0  0  0  0  0  0  0  0
  188.5550  177.0310  143.7370 C   0  0  2  0  0  3  0  0  0  0  0  0
  187.0060  177.8680  146.6530 N   0  0  0  0  0  0  0  0  0  0  0  0
  187.7490  178.1420  144.4120 C   0  0  1  0  0  3  0  0  0  0  0  0
  185.5340  179.1490  143.7480 C   0  0  2  0  0  3  0  0  0  0  0  0
  184.0530  178.8990  143.5070 C   0  0  0  0  0  1  0  0  0  0  0  0
  186.1550  179.5150  142.4030 C   0  0  0  0  0  2  0  0  0  0  0  0
  185.3330  179.0120  141.2260 C   0  0  0  0  0  2  0  0  0  0  0  0
  186.1340  178.8940  140.0870 O   0  0  0  0  0  1  0  0  0  0  0  0
  1 44  1  1  0  0  0
  2  1  1  0  0  0  0
  3  2  1  0  0  0  0
  4  5  1  0  0  0  0
  4  3  1  0  0  0  0
  5  9  1  6  0  0  0
  6  8  1  0  0  0  0
  6  4  2  0  0  0  0
  6  5  1  0  0  0  0
  7  2  2  0  0  0  0
  8  7  1  0  0  0  0
 10 11  1  0  0  0  0
 10  9  1  0  0  0  0
 11 12  1  0  0  0  0
 12 14  1  0  0  0  0
 14 13  1  0  0  0  0
 15 16  1  0  0  0  0
 15 18  1  0  0  0  0
 16 14  1  6  0  0  0
 17 15  1  0  0  0  0
 17 16  1  0  0  0  0
 18 20  1  0  0  0  0
 18 19  1  0  0  0  0
 21 18  1  0  0  0  0
 22 21  1  0  0  0  0
 24 26  1  6  0  0  0
 24 23  1  0  0  0  0
 25 24  1  0  0  0  0
 25  1  1  1  0  0  0
 25 23  1  0  0  0  0
 27 26  1  0  0  0  0
 27 29  1  0  0  0  0
 28 36  1  6  0  0  0
 28 31  1  0  0  0  0
 29 30  1  0  0  0  0
 30 31  2  0  0  0  0
 32 34  1  1  0  0  0
 32 30  1  0  0  0  0
 32 28  1  0  0  0  0
 34 35  1  6  0  0  0
 34 33  1  0  0  0  0
 37 36  1  1  0  0  0
 37 40  1  0  0  0  0
 37 41  1  0  0  0  0
 39 38  1  0  0  0  0
 40 39  1  0  0  0  0
 40 38  1  0  0  0  0
 42 41  1  0  0  0  0
 43 42  1  0  0  0  0
 44 45  1  0  0  0  0
 45 46  1  0  0  0  0
 46 47  1  0  0  0  0
 47 50  1  0  0  0  0
 48 50  2  0  0  0  0
 50 49  1  0  0  0  0
 52 62  1  1  0  0  0
 52 61  1  0  0  0  0
 52 54  1  0  0  0  0
 54 53  2  0  0  0  0
 54 60  1  0  0  0  0
 56 58  1  6  0  0  0
 56 60  1  0  0  0  0
 57 49  1  6  0  0  0
 57 58  1  0  0  0  0
 59 55  1  1  0  0  0
 59 61  1  0  0  0  0
 59 57  1  0  0  0  0
 60 51  1  0  0  0  0
 61 56  1  0  0  0  0
 63 62  1  0  0  0  0
 64 62  1  0  0  0  0
 65 64  1  0  0  0  0
 66 65  1  0  0  0  0
M  END
>  <MODEL>
9

>  <REMARK>
 VINA RESULT:      -4.6      3.512     11.667
  Name = 
  28 active torsions:
  status: ('A' for Active; 'I' for Inactive)
    1  A    between atoms: C_1  and  C_34
    2  A    between atoms: C_2  and  O_12
    3  A    between atoms: C_2  and  C_27
    4  A    between atoms: C_2  and  C_52
    5  A    between atoms: O_3  and  C_32
    6  A    between atoms: O_3  and  C_34
    7  A    between atoms: C_5  and  C_18
    8  A    between atoms: C_5  and  N_55
    9  A    between atoms: C_7  and  C_17
   10  A    between atoms: C_7  and  C_25
   11  A    between atoms: C_9  and  C_11
   12  A    between atoms: C_9  and  C_14
   13  A    between atoms: C_10  and  C_24
   14  A    between atoms: C_11  and  C_18
   15  A    between atoms: O_12  and  C_53
   16  A    between atoms: C_13  and  N_22
   17  A    between atoms: C_13  and  N_33
   18  A    between atoms: N_15  and  C_24
   19  A    between atoms: C_19  and  C_27
   20  A    between atoms: C_25  and  C_54
   21  A    between atoms: O_28  and  C_49
   22  A    between atoms: O_28  and  C_65
   23  A    between atoms: C_32  and  C_49
   24  A    between atoms: N_33  and  C_43
   25  A    between atoms: C_34  and  C_59
   26  A    between atoms: C_35  and  C_61
   27  A    between atoms: C_45  and  N_63
   28  A    between atoms: C_46  and  N_55
                            x       y       z     vdW  Elec       q    Type
                         _______ _______ _______ _____ _____    ______ ____

>  <TORSDO>
F 28

$$$$
