=
 OpenBabel10232409343D

 33 37  0  0  1  0  0  0  0  0999 V2000
  191.4460  177.4580  141.4570 C   0  0  0  0  0  3  0  0  0  0  0  0
  189.4490  177.2020  140.0860 C   0  0  0  0  0  3  0  0  0  0  0  0
  191.1550  176.3620  137.0290 C   0  0  0  0  0  3  0  0  0  0  0  0
  190.0390  177.4900  141.3270 C   0  0  0  0  0  0  0  0  0  0  0  0
  189.9650  176.5750  137.7180 C   0  0  0  0  0  0  0  0  0  0  0  0
  190.2920  176.8890  139.0200 C   0  0  0  0  0  0  0  0  0  0  0  0
  191.6230  176.8670  139.1730 N   0  0  0  0  0  0  0  0  0  0  0  0
  192.1570  176.5500  137.9800 C   0  0  0  0  0  0  0  0  0  0  0  0
  192.2430  177.1400  140.3490 C   0  0  0  0  0  3  0  0  0  0  0  0
  193.5700  176.4400  137.7570 N   0  0  0  0  0  2  0  0  0  0  0  0
  194.9110  172.9690  137.3130 C   0  0  0  0  0  3  0  0  0  0  0  0
  196.1060  173.9100  137.1950 C   0  0  0  0  0  3  0  0  0  0  0  0
  195.5740  175.2460  137.3680 N   0  0  0  0  0  0  0  0  0  0  0  0
  194.3050  175.2270  137.5620 C   0  0  0  0  0  0  0  0  0  0  0  0
  193.7100  173.8690  137.5600 C   0  0  0  0  0  2  0  0  0  0  0  0
  188.5670  175.6460  143.0820 O   0  0  0  0  0  0  0  0  0  0  0  0
  188.4770  176.8900  143.2750 C   0  0  0  0  0  0  0  0  0  0  0  0
  189.1850  177.8130  142.4330 N   0  0  0  0  0  2  0  0  0  0  0  0
  187.6390  177.3990  144.3740 C   0  0  0  0  0  0  0  0  0  0  0  0
  187.3540  177.9350  146.6920 N   0  0  0  0  0  0  0  0  0  0  0  0
  188.1360  177.4630  145.6820 C   0  0  0  0  0  3  0  0  0  0  0  0
  185.5440  178.3100  145.1810 C   0  0  0  0  0  3  0  0  0  0  0  0
  185.3310  178.8200  147.4970 F   0  0  0  0  0  0  0  0  0  0  0  0
  186.0800  178.3550  146.4690 C   0  0  0  0  0  0  0  0  0  0  0  0
  186.3290  177.8290  144.1330 C   0  0  0  0  0  3  0  0  0  0  0  0
  188.5970  176.5360  137.1260 C   0  0  0  0  0  2  0  0  0  0  0  0
  188.3910  177.7370  136.2240 C   0  0  0  0  0  2  0  0  0  0  0  0
  187.1960  178.5320  136.7080 C   0  0  0  0  0  2  0  0  0  0  0  0
  185.0740  177.5970  137.5410 C   0  0  0  0  0  3  0  0  0  0  0  0
  186.5180  177.8110  137.8600 C   0  0  2  0  0  3  0  0  0  0  0  0
  185.2480  178.9280  139.3360 N   0  0  0  0  0  0  0  0  0  0  0  0
  184.3710  178.2710  138.4370 C   0  0  0  0  0  3  0  0  0  0  0  0
  186.4520  178.6800  139.0250 N   0  0  0  0  0  0  0  0  0  0  0  0
  2  4  2  0  0  0  0
  3  5  1  0  0  0  0
  3  8  2  0  0  0  0
  4  1  1  0  0  0  0
  4 18  1  0  0  0  0
  5  6  2  0  0  0  0
  6  7  1  0  0  0  0
  6  2  1  0  0  0  0
  7  9  1  0  0  0  0
  8  7  1  0  0  0  0
  9  1  2  0  0  0  0
 10  8  1  0  0  0  0
 11 15  1  0  0  0  0
 12 11  2  0  0  0  0
 12 13  1  0  0  0  0
 13 14  2  0  0  0  0
 14 10  1  0  0  0  0
 15 14  1  0  0  0  0
 16 17  2  0  0  0  0
 17 19  1  0  0  0  0
 18 17  1  0  0  0  0
 19 21  1  0  0  0  0
 21 20  2  0  0  0  0
 22 24  2  0  0  0  0
 24 20  1  0  0  0  0
 24 23  1  0  0  0  0
 25 19  2  0  0  0  0
 25 22  1  0  0  0  0
 26  5  1  0  0  0  0
 27 28  1  0  0  0  0
 27 26  1  0  0  0  0
 29 30  1  0  0  0  0
 29 32  2  0  0  0  0
 30 28  1  6  0  0  0
 30 33  1  0  0  0  0
 32 31  1  0  0  0  0
 33 31  2  0  0  0  0
M  END
>  <MODEL>
1

>  <REMARK>
 VINA RESULT:      -8.7      0.000      0.000
  Name = 
  7 active torsions:
  status: ('A' for Active; 'I' for Inactive)
    1  A    between atoms: C_3  and  C_12
    2  A    between atoms: N_4  and  C_32
    3  A    between atoms: C_5  and  C_25
    4  A    between atoms: C_19  and  N_27
    5  A    between atoms: C_21  and  C_31
    6  A    between atoms: C_25  and  C_30
    7  A    between atoms: C_30  and  C_31
                            x       y       z     vdW  Elec       q    Type
                         _______ _______ _______ _____ _____    ______ ____

>  <TORSDO>
F 7

$$$$
=
 OpenBabel10232409343D

 33 37  0  0  1  0  0  0  0  0999 V2000
  189.1630  177.4310  137.9120 C   0  0  0  0  0  3  0  0  0  0  0  0
  189.9130  177.1410  140.2110 C   0  0  0  0  0  3  0  0  0  0  0  0
  187.0020  178.5710  141.7750 C   0  0  0  0  0  3  0  0  0  0  0  0
  190.1420  176.9950  138.8340 C   0  0  0  0  0  0  0  0  0  0  0  0
  188.2510  177.9680  141.8910 C   0  0  0  0  0  0  0  0  0  0  0  0
  188.7080  177.7160  140.6150 C   0  0  0  0  0  0  0  0  0  0  0  0
  187.7990  178.1210  139.7180 N   0  0  0  0  0  0  0  0  0  0  0  0
  186.7630  178.6380  140.4030 C   0  0  0  0  0  0  0  0  0  0  0  0
  187.9720  178.0040  138.3770 C   0  0  0  0  0  3  0  0  0  0  0  0
  185.5970  179.1820  139.7700 N   0  0  0  0  0  2  0  0  0  0  0  0
  182.3000  178.2330  141.2770 C   0  0  0  0  0  3  0  0  0  0  0  0
  181.9860  179.1450  140.0960 C   0  0  0  0  0  3  0  0  0  0  0  0
  183.2670  179.5040  139.5230 N   0  0  0  0  0  0  0  0  0  0  0  0
  184.2390  178.9620  140.1640 C   0  0  0  0  0  0  0  0  0  0  0  0
  183.8170  178.1200  141.3100 C   0  0  0  0  0  2  0  0  0  0  0  0
  190.5870  174.2890  137.7740 O   0  0  0  0  0  0  0  0  0  0  0  0
  191.5650  175.0780  137.8890 C   0  0  0  0  0  0  0  0  0  0  0  0
  191.3760  176.4050  138.4040 N   0  0  0  0  0  2  0  0  0  0  0  0
  192.9120  174.6340  137.4910 C   0  0  0  0  0  0  0  0  0  0  0  0
  195.2900  174.9160  137.5390 N   0  0  0  0  0  0  0  0  0  0  0  0
  194.0500  175.3330  137.9130 C   0  0  0  0  0  3  0  0  0  0  0  0
  194.3610  173.0940  136.3080 C   0  0  0  0  0  3  0  0  0  0  0  0
  196.7160  173.4340  136.4010 F   0  0  0  0  0  0  0  0  0  0  0  0
  195.4660  173.8210  136.7530 C   0  0  0  0  0  0  0  0  0  0  0  0
  193.0810  173.5060  136.6800 C   0  0  0  0  0  3  0  0  0  0  0  0
  188.9790  177.7120  143.1670 C   0  0  0  0  0  2  0  0  0  0  0  0
  188.1100  176.8960  144.1020 C   0  0  0  0  0  2  0  0  0  0  0  0
  188.0210  177.5930  145.4450 C   0  0  0  0  0  2  0  0  0  0  0  0
  185.6470  178.0940  145.0120 C   0  0  0  0  0  3  0  0  0  0  0  0
  186.6060  177.4990  145.9910 C   0  0  2  0  0  3  0  0  0  0  0  0
  185.6020  179.2830  146.9120 N   0  0  0  0  0  0  0  0  0  0  0  0
  185.0820  179.1360  145.6010 C   0  0  0  0  0  3  0  0  0  0  0  0
  186.4550  178.3750  147.1430 N   0  0  0  0  0  0  0  0  0  0  0  0
  1  9  2  0  0  0  0
  1  4  1  0  0  0  0
  2  6  1  0  0  0  0
  3  5  1  0  0  0  0
  4  2  2  0  0  0  0
  5 26  1  0  0  0  0
  6  5  2  0  0  0  0
  7  8  1  0  0  0  0
  7  6  1  0  0  0  0
  8  3  2  0  0  0  0
  9  7  1  0  0  0  0
 10 14  1  0  0  0  0
 10  8  1  0  0  0  0
 11 15  1  0  0  0  0
 12 11  2  0  0  0  0
 13 12  1  0  0  0  0
 13 14  2  0  0  0  0
 14 15  1  0  0  0  0
 16 17  2  0  0  0  0
 17 18  1  0  0  0  0
 18  4  1  0  0  0  0
 19 17  1  0  0  0  0
 19 21  1  0  0  0  0
 20 21  2  0  0  0  0
 22 25  1  0  0  0  0
 22 24  2  0  0  0  0
 23 24  1  0  0  0  0
 24 20  1  0  0  0  0
 25 19  2  0  0  0  0
 26 27  1  0  0  0  0
 27 28  1  0  0  0  0
 29 32  2  0  0  0  0
 29 30  1  0  0  0  0
 30 28  1  6  0  0  0
 30 33  1  0  0  0  0
 31 33  2  0  0  0  0
 32 31  1  0  0  0  0
M  END
>  <MODEL>
2

>  <REMARK>
 VINA RESULT:      -8.4      3.470      9.241
  Name = 
  7 active torsions:
  status: ('A' for Active; 'I' for Inactive)
    1  A    between atoms: C_3  and  C_12
    2  A    between atoms: N_4  and  C_32
    3  A    between atoms: C_5  and  C_25
    4  A    between atoms: C_19  and  N_27
    5  A    between atoms: C_21  and  C_31
    6  A    between atoms: C_25  and  C_30
    7  A    between atoms: C_30  and  C_31
                            x       y       z     vdW  Elec       q    Type
                         _______ _______ _______ _____ _____    ______ ____

>  <TORSDO>
F 7

$$$$
=
 OpenBabel10232409343D

 33 37  0  0  1  0  0  0  0  0999 V2000
  192.0330  177.3950  140.3560 C   0  0  0  0  0  3  0  0  0  0  0  0
  190.1180  176.2360  139.3960 C   0  0  0  0  0  3  0  0  0  0  0  0
  191.7230  175.2740  136.3190 C   0  0  0  0  0  3  0  0  0  0  0  0
  190.6890  176.9670  140.4500 C   0  0  0  0  0  0  0  0  0  0  0  0
  190.5960  175.2670  137.1370 C   0  0  0  0  0  0  0  0  0  0  0  0
  190.9170  175.9570  138.2870 C   0  0  0  0  0  0  0  0  0  0  0  0
  192.1880  176.3770  138.2260 N   0  0  0  0  0  0  0  0  0  0  0  0
  192.6880  175.9710  137.0450 C   0  0  0  0  0  0  0  0  0  0  0  0
  192.7870  177.0880  139.2160 C   0  0  0  0  0  3  0  0  0  0  0  0
  194.0300  176.2480  136.6240 N   0  0  0  0  0  2  0  0  0  0  0  0
  196.5590  173.5620  137.2860 C   0  0  0  0  0  3  0  0  0  0  0  0
  197.3100  174.7010  136.6030 C   0  0  0  0  0  3  0  0  0  0  0  0
  196.3230  175.7310  136.3530 N   0  0  0  0  0  0  0  0  0  0  0  0
  195.1600  175.3790  136.7700 C   0  0  0  0  0  0  0  0  0  0  0  0
  195.1170  174.0330  137.3910 C   0  0  0  0  0  2  0  0  0  0  0  0
  190.2970  175.3300  142.8610 O   0  0  0  0  0  0  0  0  0  0  0  0
  189.7060  176.4410  142.7630 C   0  0  0  0  0  0  0  0  0  0  0  0
  189.8800  177.2600  141.5960 N   0  0  0  0  0  2  0  0  0  0  0  0
  188.8320  176.9020  143.8550 C   0  0  0  0  0  0  0  0  0  0  0  0
  186.6640  177.5360  144.6530 N   0  0  0  0  0  0  0  0  0  0  0  0
  187.4640  177.1100  143.6380 C   0  0  0  0  0  3  0  0  0  0  0  0
  188.5150  177.5800  146.1600 C   0  0  0  0  0  3  0  0  0  0  0  0
  186.3330  178.1970  146.8840 F   0  0  0  0  0  0  0  0  0  0  0  0
  187.1590  177.7740  145.8970 C   0  0  0  0  0  0  0  0  0  0  0  0
  189.3520  177.1430  145.1320 C   0  0  0  0  0  3  0  0  0  0  0  0
  189.2710  174.6800  136.7890 C   0  0  0  0  0  2  0  0  0  0  0  0
  188.4150  175.7160  136.0900 C   0  0  0  0  0  2  0  0  0  0  0  0
  187.3400  176.2070  137.0400 C   0  0  0  0  0  2  0  0  0  0  0  0
  188.4670  178.2810  136.3320 C   0  0  0  0  0  3  0  0  0  0  0  0
  187.2450  177.7220  136.9840 C   0  0  2  0  0  3  0  0  0  0  0  0
  188.3610  179.0050  138.4500 N   0  0  0  0  0  0  0  0  0  0  0  0
  189.0850  179.0270  137.2320 C   0  0  0  0  0  3  0  0  0  0  0  0
  187.3300  178.2780  138.3270 N   0  0  0  0  0  0  0  0  0  0  0  0
  1  4  1  0  0  0  0
  2  4  2  0  0  0  0
  3  8  2  0  0  0  0
  3  5  1  0  0  0  0
  4 18  1  0  0  0  0
  5  6  2  0  0  0  0
  6  2  1  0  0  0  0
  7  6  1  0  0  0  0
  7  9  1  0  0  0  0
  8  7  1  0  0  0  0
  9  1  2  0  0  0  0
 10 14  1  0  0  0  0
 10  8  1  0  0  0  0
 11 15  1  0  0  0  0
 12 11  2  0  0  0  0
 13 12  1  0  0  0  0
 13 14  2  0  0  0  0
 14 15  1  0  0  0  0
 17 16  2  0  0  0  0
 17 19  1  0  0  0  0
 18 17  1  0  0  0  0
 19 25  1  0  0  0  0
 20 24  2  0  0  0  0
 21 19  2  0  0  0  0
 21 20  1  0  0  0  0
 24 22  1  0  0  0  0
 24 23  1  0  0  0  0
 25 22  2  0  0  0  0
 26  5  1  0  0  0  0
 27 26  1  0  0  0  0
 27 28  1  0  0  0  0
 29 30  1  0  0  0  0
 29 32  2  0  0  0  0
 30 28  1  1  0  0  0
 30 33  1  0  0  0  0
 32 31  1  0  0  0  0
 33 31  2  0  0  0  0
M  END
>  <MODEL>
3

>  <REMARK>
 VINA RESULT:      -8.3      1.422      2.023
  Name = 
  7 active torsions:
  status: ('A' for Active; 'I' for Inactive)
    1  A    between atoms: C_3  and  C_12
    2  A    between atoms: N_4  and  C_32
    3  A    between atoms: C_5  and  C_25
    4  A    between atoms: C_19  and  N_27
    5  A    between atoms: C_21  and  C_31
    6  A    between atoms: C_25  and  C_30
    7  A    between atoms: C_30  and  C_31
                            x       y       z     vdW  Elec       q    Type
                         _______ _______ _______ _____ _____    ______ ____

>  <TORSDO>
F 7

$$$$
=
 OpenBabel10232409343D

 33 37  0  0  1  0  0  0  0  0999 V2000
  189.1020  177.4660  138.6020 C   0  0  0  0  0  3  0  0  0  0  0  0
  190.5170  177.3180  140.5780 C   0  0  0  0  0  3  0  0  0  0  0  0
  187.9930  178.2730  142.9620 C   0  0  0  0  0  3  0  0  0  0  0  0
  190.3600  177.2000  139.1880 C   0  0  0  0  0  0  0  0  0  0  0  0
  189.3010  177.8790  142.6930 C   0  0  0  0  0  0  0  0  0  0  0  0
  189.4050  177.6950  141.3310 C   0  0  0  0  0  0  0  0  0  0  0  0
  188.2250  177.9410  140.7470 N   0  0  0  0  0  0  0  0  0  0  0  0
  187.3630  178.2910  141.7180 C   0  0  0  0  0  0  0  0  0  0  0  0
  188.0200  177.8450  139.4090 C   0  0  0  0  0  3  0  0  0  0  0  0
  185.9940  178.6360  141.4660 N   0  0  0  0  0  2  0  0  0  0  0  0
  183.7070  178.6150  144.4350 C   0  0  0  0  0  3  0  0  0  0  0  0
  182.8520  179.0160  143.2370 C   0  0  0  0  0  3  0  0  0  0  0  0
  183.7470  179.0210  142.0970 N   0  0  0  0  0  0  0  0  0  0  0  0
  184.9420  178.6960  142.4360 C   0  0  0  0  0  0  0  0  0  0  0  0
  185.1080  178.4040  143.8810 C   0  0  0  0  0  2  0  0  0  0  0  0
  191.0300  174.5260  138.1640 O   0  0  0  0  0  0  0  0  0  0  0  0
  191.7970  175.4970  137.9140 C   0  0  0  0  0  0  0  0  0  0  0  0
  191.4940  176.8130  138.4010 N   0  0  0  0  0  2  0  0  0  0  0  0
  193.0140  175.2770  137.1130 C   0  0  0  0  0  0  0  0  0  0  0  0
  194.9670  176.1370  136.0240 N   0  0  0  0  0  0  0  0  0  0  0  0
  193.8450  176.3500  136.7650 C   0  0  0  0  0  3  0  0  0  0  0  0
  194.5180  173.7950  135.9240 C   0  0  0  0  0  3  0  0  0  0  0  0
  196.4400  174.7190  134.8660 F   0  0  0  0  0  0  0  0  0  0  0  0
  195.3160  174.8930  135.6010 C   0  0  0  0  0  0  0  0  0  0  0  0
  193.3630  173.9920  136.6820 C   0  0  0  0  0  3  0  0  0  0  0  0
  190.3950  177.7530  143.6970 C   0  0  0  0  0  2  0  0  0  0  0  0
  189.9750  176.8060  144.8030 C   0  0  0  0  0  2  0  0  0  0  0  0
  190.1830  177.4740  146.1470 C   0  0  0  0  0  2  0  0  0  0  0  0
  187.7630  177.2250  146.5400 C   0  0  0  0  0  3  0  0  0  0  0  0
  189.1200  177.0150  147.1300 C   0  0  2  0  0  3  0  0  0  0  0  0
  187.9790  178.4960  148.3730 N   0  0  0  0  0  0  0  0  0  0  0  0
  187.1330  178.0990  147.3070 C   0  0  0  0  0  3  0  0  0  0  0  0
  189.0930  177.8980  148.2870 N   0  0  0  0  0  0  0  0  0  0  0  0
  1  4  1  0  0  0  0
  1  9  2  0  0  0  0
  2  6  1  0  0  0  0
  4  2  2  0  0  0  0
  5  3  1  0  0  0  0
  5 26  1  0  0  0  0
  6  5  2  0  0  0  0
  7  6  1  0  0  0  0
  7  8  1  0  0  0  0
  8  3  2  0  0  0  0
  9  7  1  0  0  0  0
 10  8  1  0  0  0  0
 10 14  1  0  0  0  0
 12 11  2  0  0  0  0
 13 14  2  0  0  0  0
 13 12  1  0  0  0  0
 14 15  1  0  0  0  0
 15 11  1  0  0  0  0
 17 16  2  0  0  0  0
 17 18  1  0  0  0  0
 18  4  1  0  0  0  0
 19 17  1  0  0  0  0
 20 21  2  0  0  0  0
 21 19  1  0  0  0  0
 22 25  1  0  0  0  0
 23 24  1  0  0  0  0
 24 22  2  0  0  0  0
 24 20  1  0  0  0  0
 25 19  2  0  0  0  0
 26 27  1  0  0  0  0
 27 28  1  0  0  0  0
 29 30  1  0  0  0  0
 29 32  2  0  0  0  0
 30 28  1  6  0  0  0
 30 33  1  0  0  0  0
 32 31  1  0  0  0  0
 33 31  2  0  0  0  0
M  END
>  <MODEL>
4

>  <REMARK>
 VINA RESULT:      -8.2      3.655      9.692
  Name = 
  7 active torsions:
  status: ('A' for Active; 'I' for Inactive)
    1  A    between atoms: C_3  and  C_12
    2  A    between atoms: N_4  and  C_32
    3  A    between atoms: C_5  and  C_25
    4  A    between atoms: C_19  and  N_27
    5  A    between atoms: C_21  and  C_31
    6  A    between atoms: C_25  and  C_30
    7  A    between atoms: C_30  and  C_31
                            x       y       z     vdW  Elec       q    Type
                         _______ _______ _______ _____ _____    ______ ____

>  <TORSDO>
F 7

$$$$
=
 OpenBabel10232409343D

 33 37  0  0  1  0  0  0  0  0999 V2000
  189.4390  177.6030  140.6490 C   0  0  0  0  0  3  0  0  0  0  0  0
  187.1050  178.2950  140.7140 C   0  0  0  0  0  3  0  0  0  0  0  0
  186.5560  178.2190  137.1560 C   0  0  0  0  0  3  0  0  0  0  0  0
  188.2980  177.9910  141.3880 C   0  0  0  0  0  0  0  0  0  0  0  0
  186.0660  178.4370  138.4410 C   0  0  0  0  0  0  0  0  0  0  0  0
  187.0970  178.1950  139.3230 C   0  0  0  0  0  0  0  0  0  0  0  0
  188.1950  177.8250  138.6490 N   0  0  0  0  0  0  0  0  0  0  0  0
  187.8830  177.8340  137.3410 C   0  0  0  0  0  0  0  0  0  0  0  0
  189.3730  177.5230  139.2510 C   0  0  0  0  0  3  0  0  0  0  0  0
  188.8200  177.4970  136.3080 N   0  0  0  0  0  2  0  0  0  0  0  0
  189.3060  173.8410  135.6430 C   0  0  0  0  0  3  0  0  0  0  0  0
  190.2220  174.5790  134.6730 C   0  0  0  0  0  3  0  0  0  0  0  0
  190.0250  175.9900  134.9400 N   0  0  0  0  0  0  0  0  0  0  0  0
  189.1690  176.1760  135.8800 C   0  0  0  0  0  0  0  0  0  0  0  0
  188.6060  174.9270  136.4470 C   0  0  0  0  0  2  0  0  0  0  0  0
  187.9530  175.8370  143.3590 O   0  0  0  0  0  0  0  0  0  0  0  0
  188.1490  177.0180  143.7590 C   0  0  0  0  0  0  0  0  0  0  0  0
  188.3210  178.0890  142.8180 N   0  0  0  0  0  2  0  0  0  0  0  0
  188.2040  177.3000  145.2040 C   0  0  0  0  0  0  0  0  0  0  0  0
  187.1290  178.0140  147.2220 N   0  0  0  0  0  0  0  0  0  0  0  0
  187.0690  177.7550  145.8870 C   0  0  0  0  0  3  0  0  0  0  0  0
  189.4330  177.3910  147.2900 C   0  0  0  0  0  3  0  0  0  0  0  0
  188.3010  178.1090  149.2580 F   0  0  0  0  0  0  0  0  0  0  0  0
  188.2770  177.8420  147.9300 C   0  0  0  0  0  0  0  0  0  0  0  0
  189.3920  177.1200  145.9210 C   0  0  0  0  0  3  0  0  0  0  0  0
  184.6950  178.9140  138.7790 C   0  0  0  0  0  2  0  0  0  0  0  0
  183.7510  177.7330  138.8950 C   0  0  0  0  0  2  0  0  0  0  0  0
  183.4500  177.4680  140.3560 C   0  0  0  0  0  2  0  0  0  0  0  0
  183.8670  178.7240  142.4350 C   0  0  0  0  0  3  0  0  0  0  0  0
  183.2190  178.7780  141.0890 C   0  0  2  0  0  3  0  0  0  0  0  0
  181.6510  178.9470  142.6870 N   0  0  0  0  0  0  0  0  0  0  0  0
  182.9050  178.8290  143.3370 C   0  0  0  0  0  3  0  0  0  0  0  0
  181.8110  178.9200  141.4300 N   0  0  0  0  0  0  0  0  0  0  0  0
  1  4  1  0  0  0  0
  2  4  2  0  0  0  0
  3  8  2  0  0  0  0
  3  5  1  0  0  0  0
  4 18  1  0  0  0  0
  5 26  1  0  0  0  0
  5  6  2  0  0  0  0
  6  2  1  0  0  0  0
  7  9  1  0  0  0  0
  7  6  1  0  0  0  0
  8  7  1  0  0  0  0
  9  1  2  0  0  0  0
 10  8  1  0  0  0  0
 11 15  1  0  0  0  0
 12 13  1  0  0  0  0
 12 11  2  0  0  0  0
 13 14  2  0  0  0  0
 14 10  1  0  0  0  0
 14 15  1  0  0  0  0
 16 17  2  0  0  0  0
 17 19  1  0  0  0  0
 18 17  1  0  0  0  0
 19 21  2  0  0  0  0
 19 25  1  0  0  0  0
 20 24  2  0  0  0  0
 21 20  1  0  0  0  0
 22 24  1  0  0  0  0
 24 23  1  0  0  0  0
 25 22  2  0  0  0  0
 26 27  1  0  0  0  0
 27 28  1  0  0  0  0
 29 32  2  0  0  0  0
 30 28  1  1  0  0  0
 30 33  1  0  0  0  0
 30 29  1  0  0  0  0
 31 32  1  0  0  0  0
 33 31  2  0  0  0  0
M  END
>  <MODEL>
5

>  <REMARK>
 VINA RESULT:      -8.1      2.868      4.181
  Name = 
  7 active torsions:
  status: ('A' for Active; 'I' for Inactive)
    1  A    between atoms: C_3  and  C_12
    2  A    between atoms: N_4  and  C_32
    3  A    between atoms: C_5  and  C_25
    4  A    between atoms: C_19  and  N_27
    5  A    between atoms: C_21  and  C_31
    6  A    between atoms: C_25  and  C_30
    7  A    between atoms: C_30  and  C_31
                            x       y       z     vdW  Elec       q    Type
                         _______ _______ _______ _____ _____    ______ ____

>  <TORSDO>
F 7

$$$$
=
 OpenBabel10232409343D

 33 37  0  0  1  0  0  0  0  0999 V2000
  187.4920  178.3520  140.5720 C   0  0  0  0  0  3  0  0  0  0  0  0
  189.7700  177.4940  140.6420 C   0  0  0  0  0  3  0  0  0  0  0  0
  190.1540  177.0630  137.0870 C   0  0  0  0  0  3  0  0  0  0  0  0
  188.6350  177.9750  141.3130 C   0  0  0  0  0  0  0  0  0  0  0  0
  190.6870  176.9760  138.3700 C   0  0  0  0  0  0  0  0  0  0  0  0
  189.7190  177.4110  139.2500 C   0  0  0  0  0  0  0  0  0  0  0  0
  188.6200  177.7750  138.5750 N   0  0  0  0  0  0  0  0  0  0  0  0
  188.8680  177.5720  137.2690 C   0  0  0  0  0  0  0  0  0  0  0  0
  187.4970  178.2440  139.1750 C   0  0  0  0  0  3  0  0  0  0  0  0
  187.9100  177.8440  136.2370 N   0  0  0  0  0  2  0  0  0  0  0  0
  185.4050  175.1420  135.5500 C   0  0  0  0  0  3  0  0  0  0  0  0
  185.0840  176.2810  134.5880 C   0  0  0  0  0  3  0  0  0  0  0  0
  186.0580  177.3170  134.8630 N   0  0  0  0  0  0  0  0  0  0  0  0
  186.8640  176.9690  135.8000 C   0  0  0  0  0  0  0  0  0  0  0  0
  186.6030  175.6190  136.3570 C   0  0  0  0  0  2  0  0  0  0  0  0
  187.9460  175.9030  143.2830 O   0  0  0  0  0  0  0  0  0  0  0  0
  188.3300  177.0360  143.6840 C   0  0  0  0  0  0  0  0  0  0  0  0
  188.6730  178.0660  142.7430 N   0  0  0  0  0  2  0  0  0  0  0  0
  188.4290  177.3050  145.1290 C   0  0  0  0  0  0  0  0  0  0  0  0
  189.7440  177.4740  147.1240 N   0  0  0  0  0  0  0  0  0  0  0  0
  189.6620  177.2250  145.7890 C   0  0  0  0  0  3  0  0  0  0  0  0
  187.3970  177.8950  147.2400 C   0  0  0  0  0  3  0  0  0  0  0  0
  188.7650  178.0460  149.1830 F   0  0  0  0  0  0  0  0  0  0  0  0
  188.6460  177.8040  147.8560 C   0  0  0  0  0  0  0  0  0  0  0  0
  187.2920  177.6430  145.8710 C   0  0  0  0  0  3  0  0  0  0  0  0
  192.0340  176.4410  138.7180 C   0  0  0  0  0  2  0  0  0  0  0  0
  192.4640  175.4140  137.6890 C   0  0  0  0  0  2  0  0  0  0  0  0
  193.7340  175.8820  137.0090 C   0  0  0  0  0  2  0  0  0  0  0  0
  194.5950  173.8370  138.0800 C   0  0  0  0  0  2  0  0  0  0  0  0
  194.7180  174.7310  136.8890 C   0  0  2  0  0  3  0  0  0  0  0  0
  196.6470  174.7370  138.0370 N   0  0  0  0  0  0  0  0  0  0  0  0
  195.7530  173.8730  138.7180 C   0  0  0  0  0  3  0  0  0  0  0  0
  196.0820  175.2240  137.0130 N   0  0  0  0  0  2  0  0  0  0  0  0
  1  4  1  0  0  0  0
  2  4  2  0  0  0  0
  3  8  2  0  0  0  0
  3  5  1  0  0  0  0
  4 18  1  0  0  0  0
  5 26  1  0  0  0  0
  5  6  2  0  0  0  0
  6  2  1  0  0  0  0
  7  9  1  0  0  0  0
  7  6  1  0  0  0  0
  8  7  1  0  0  0  0
  9  1  2  0  0  0  0
 10  8  1  0  0  0  0
 11 15  1  0  0  0  0
 12 13  1  0  0  0  0
 12 11  2  0  0  0  0
 13 14  2  0  0  0  0
 14 10  1  0  0  0  0
 14 15  1  0  0  0  0
 16 17  2  0  0  0  0
 17 19  1  0  0  0  0
 18 17  1  0  0  0  0
 19 21  2  0  0  0  0
 19 25  1  0  0  0  0
 20 24  2  0  0  0  0
 21 20  1  0  0  0  0
 22 24  1  0  0  0  0
 24 23  1  0  0  0  0
 25 22  2  0  0  0  0
 27 26  1  0  0  0  0
 28 27  1  0  0  0  0
 29 32  1  0  0  0  0
 30 28  1  1  0  0  0
 30 33  1  0  0  0  0
 30 29  1  0  0  0  0
 31 32  2  0  0  0  0
 33 31  1  0  0  0  0
M  END
>  <MODEL>
6

>  <REMARK>
 VINA RESULT:      -8.1      1.924      6.232
  Name = 
  7 active torsions:
  status: ('A' for Active; 'I' for Inactive)
    1  A    between atoms: C_3  and  C_12
    2  A    between atoms: N_4  and  C_32
    3  A    between atoms: C_5  and  C_25
    4  A    between atoms: C_19  and  N_27
    5  A    between atoms: C_21  and  C_31
    6  A    between atoms: C_25  and  C_30
    7  A    between atoms: C_30  and  C_31
                            x       y       z     vdW  Elec       q    Type
                         _______ _______ _______ _____ _____    ______ ____

>  <TORSDO>
F 7

$$$$
=
 OpenBabel10232409343D

 33 37  0  0  1  0  0  0  0  0999 V2000
  188.4530  178.4170  139.6560 C   0  0  0  0  0  3  0  0  0  0  0  0
  188.6600  177.6660  141.9640 C   0  0  0  0  0  3  0  0  0  0  0  0
  192.1540  176.8080  141.8030 C   0  0  0  0  0  3  0  0  0  0  0  0
  187.8710  178.1820  140.9230 C   0  0  0  0  0  0  0  0  0  0  0  0
  190.9750  176.9040  142.5370 C   0  0  0  0  0  0  0  0  0  0  0  0
  190.0050  177.4070  141.6970 C   0  0  0  0  0  0  0  0  0  0  0  0
  190.5270  177.6390  140.4850 N   0  0  0  0  0  0  0  0  0  0  0  0
  191.8240  177.2830  140.5340 C   0  0  0  0  0  0  0  0  0  0  0  0
  189.8090  178.1350  139.4460 C   0  0  0  0  0  3  0  0  0  0  0  0
  192.7080  177.3850  139.4100 N   0  0  0  0  0  2  0  0  0  0  0  0
  192.3250  174.7620  136.7610 C   0  0  0  0  0  3  0  0  0  0  0  0
  193.4480  175.6830  136.2940 C   0  0  0  0  0  3  0  0  0  0  0  0
  193.5860  176.6910  137.3260 N   0  0  0  0  0  0  0  0  0  0  0  0
  192.7490  176.5040  138.2820 C   0  0  0  0  0  0  0  0  0  0  0  0
  191.8660  175.3260  138.0970 C   0  0  0  0  0  2  0  0  0  0  0  0
  186.2910  177.4490  143.2920 O   0  0  0  0  0  0  0  0  0  0  0  0
  185.7400  178.0830  142.3500 C   0  0  0  0  0  0  0  0  0  0  0  0
  186.4880  178.4530  141.1820 N   0  0  0  0  0  2  0  0  0  0  0  0
  184.3160  178.4480  142.4510 C   0  0  0  0  0  0  0  0  0  0  0  0
  182.1960  178.8490  141.4100 N   0  0  0  0  0  0  0  0  0  0  0  0
  183.5100  178.5100  141.3070 C   0  0  0  0  0  3  0  0  0  0  0  0
  182.3910  179.0850  143.7780 C   0  0  0  0  0  3  0  0  0  0  0  0
  180.3150  179.4670  142.6770 F   0  0  0  0  0  0  0  0  0  0  0  0
  181.6260  179.1350  142.6110 C   0  0  0  0  0  0  0  0  0  0  0  0
  183.7410  178.7410  143.6930 C   0  0  0  0  0  3  0  0  0  0  0  0
  190.7940  176.4720  143.9520 C   0  0  0  0  0  2  0  0  0  0  0  0
  191.1330  177.6140  144.8890 C   0  0  0  0  0  2  0  0  0  0  0  0
  189.8540  178.2620  145.3790 C   0  0  0  0  0  2  0  0  0  0  0  0
  187.6690  177.7160  146.3780 C   0  0  0  0  0  3  0  0  0  0  0  0
  189.1060  177.3140  146.3010 C   0  0  2  0  0  3  0  0  0  0  0  0
  188.6030  177.9090  148.4060 N   0  0  0  0  0  0  0  0  0  0  0  0
  187.4230  178.0530  147.6330 C   0  0  0  0  0  3  0  0  0  0  0  0
  189.5520  177.4970  147.6740 N   0  0  0  0  0  0  0  0  0  0  0  0
  1  4  1  0  0  0  0
  3  5  1  0  0  0  0
  4 18  1  0  0  0  0
  4  2  2  0  0  0  0
  5 26  1  0  0  0  0
  6  2  1  0  0  0  0
  6  5  2  0  0  0  0
  7  8  1  0  0  0  0
  7  6  1  0  0  0  0
  8  3  2  0  0  0  0
  9  1  2  0  0  0  0
  9  7  1  0  0  0  0
 10  8  1  0  0  0  0
 11 15  1  0  0  0  0
 12 11  2  0  0  0  0
 12 13  1  0  0  0  0
 13 14  2  0  0  0  0
 14 10  1  0  0  0  0
 15 14  1  0  0  0  0
 17 19  1  0  0  0  0
 17 16  2  0  0  0  0
 18 17  1  0  0  0  0
 19 25  1  0  0  0  0
 20 24  2  0  0  0  0
 21 20  1  0  0  0  0
 21 19  2  0  0  0  0
 24 23  1  0  0  0  0
 24 22  1  0  0  0  0
 25 22  2  0  0  0  0
 26 27  1  0  0  0  0
 27 28  1  0  0  0  0
 29 32  2  0  0  0  0
 30 28  1  6  0  0  0
 30 29  1  0  0  0  0
 30 33  1  0  0  0  0
 32 31  1  0  0  0  0
 33 31  2  0  0  0  0
M  END
>  <MODEL>
7

>  <REMARK>
 VINA RESULT:      -8.1      2.521      5.607
  Name = 
  7 active torsions:
  status: ('A' for Active; 'I' for Inactive)
    1  A    between atoms: C_3  and  C_12
    2  A    between atoms: N_4  and  C_32
    3  A    between atoms: C_5  and  C_25
    4  A    between atoms: C_19  and  N_27
    5  A    between atoms: C_21  and  C_31
    6  A    between atoms: C_25  and  C_30
    7  A    between atoms: C_30  and  C_31
                            x       y       z     vdW  Elec       q    Type
                         _______ _______ _______ _____ _____    ______ ____

>  <TORSDO>
F 7

$$$$
=
 OpenBabel10232409343D

 33 37  0  0  1  0  0  0  0  0999 V2000
  190.9430  177.2100  141.1680 C   0  0  0  0  0  3  0  0  0  0  0  0
  188.6010  177.7390  140.7650 C   0  0  0  0  0  3  0  0  0  0  0  0
  188.7150  177.4000  137.1810 C   0  0  0  0  0  3  0  0  0  0  0  0
  189.6670  177.5630  141.6610 C   0  0  0  0  0  0  0  0  0  0  0  0
  187.9870  177.6640  138.3390 C   0  0  0  0  0  0  0  0  0  0  0  0
  188.8530  177.5510  139.4060 C   0  0  0  0  0  0  0  0  0  0  0  0
  190.0740  177.2170  138.9680 N   0  0  0  0  0  0  0  0  0  0  0  0
  190.0070  177.1220  137.6280 C   0  0  0  0  0  0  0  0  0  0  0  0
  191.1380  177.0370  139.7910 C   0  0  0  0  0  3  0  0  0  0  0  0
  191.1340  176.7870  136.8070 N   0  0  0  0  0  2  0  0  0  0  0  0
  191.7370  173.1330  136.2350 C   0  0  0  0  0  3  0  0  0  0  0  0
  192.8340  173.8730  135.4760 C   0  0  0  0  0  3  0  0  0  0  0  0
  192.5900  175.2820  135.7050 N   0  0  0  0  0  0  0  0  0  0  0  0
  191.5600  175.4670  136.4520 C   0  0  0  0  0  0  0  0  0  0  0  0
  190.8910  174.2160  136.8850 C   0  0  0  0  0  2  0  0  0  0  0  0
  187.9450  175.9700  143.4340 O   0  0  0  0  0  0  0  0  0  0  0  0
  188.5750  176.9570  143.9040 C   0  0  0  0  0  0  0  0  0  0  0  0
  189.4230  177.7520  143.0610 N   0  0  0  0  0  2  0  0  0  0  0  0
  188.4410  177.2960  145.3310 C   0  0  0  0  0  0  0  0  0  0  0  0
  187.1010  178.0460  147.1710 N   0  0  0  0  0  0  0  0  0  0  0  0
  187.2150  177.7340  145.8510 C   0  0  0  0  0  3  0  0  0  0  0  0
  189.3980  177.5130  147.5470 C   0  0  0  0  0  3  0  0  0  0  0  0
  188.0070  178.2630  149.3290 F   0  0  0  0  0  0  0  0  0  0  0  0
  188.1580  177.9450  148.0210 C   0  0  0  0  0  0  0  0  0  0  0  0
  189.5360  177.1890  146.1970 C   0  0  0  0  0  3  0  0  0  0  0  0
  186.5520  178.0650  138.3910 C   0  0  0  0  0  2  0  0  0  0  0  0
  185.8620  177.6820  137.0980 C   0  0  0  0  0  2  0  0  0  0  0  0
  184.6660  176.8020  137.4050 C   0  0  0  0  0  2  0  0  0  0  0  0
  184.6710  174.3400  137.4880 C   0  0  0  0  0  2  0  0  0  0  0  0
  184.7290  175.5270  136.5820 C   0  0  2  0  0  3  0  0  0  0  0  0
  186.6370  174.3550  136.4120 N   0  0  0  0  0  0  0  0  0  0  0  0
  185.8120  173.6850  137.3490 C   0  0  0  0  0  3  0  0  0  0  0  0
  186.0450  175.3870  135.9750 N   0  0  0  0  0  2  0  0  0  0  0  0
  1  4  1  0  0  0  0
  2  4  2  0  0  0  0
  3  8  2  0  0  0  0
  3  5  1  0  0  0  0
  4 18  1  0  0  0  0
  5 26  1  0  0  0  0
  5  6  2  0  0  0  0
  6  2  1  0  0  0  0
  7  6  1  0  0  0  0
  7  9  1  0  0  0  0
  8  7  1  0  0  0  0
  9  1  2  0  0  0  0
 10  8  1  0  0  0  0
 11 15  1  0  0  0  0
 12 13  1  0  0  0  0
 12 11  2  0  0  0  0
 13 14  2  0  0  0  0
 14 10  1  0  0  0  0
 14 15  1  0  0  0  0
 16 17  2  0  0  0  0
 17 19  1  0  0  0  0
 18 17  1  0  0  0  0
 19 21  2  0  0  0  0
 19 25  1  0  0  0  0
 20 24  2  0  0  0  0
 21 20  1  0  0  0  0
 22 24  1  0  0  0  0
 24 23  1  0  0  0  0
 25 22  2  0  0  0  0
 27 28  1  0  0  0  0
 27 26  1  0  0  0  0
 30 28  1  1  0  0  0
 30 29  1  0  0  0  0
 31 32  2  0  0  0  0
 32 29  1  0  0  0  0
 33 31  1  0  0  0  0
 33 30  1  0  0  0  0
M  END
>  <MODEL>
8

>  <REMARK>
 VINA RESULT:      -7.8      2.109      2.847
  Name = 
  7 active torsions:
  status: ('A' for Active; 'I' for Inactive)
    1  A    between atoms: C_3  and  C_12
    2  A    between atoms: N_4  and  C_32
    3  A    between atoms: C_5  and  C_25
    4  A    between atoms: C_19  and  N_27
    5  A    between atoms: C_21  and  C_31
    6  A    between atoms: C_25  and  C_30
    7  A    between atoms: C_30  and  C_31
                            x       y       z     vdW  Elec       q    Type
                         _______ _______ _______ _____ _____    ______ ____

>  <TORSDO>
F 7

$$$$
=
 OpenBabel10232409343D

 33 37  0  0  1  0  0  0  0  0999 V2000
  187.5950  178.4120  139.6370 C   0  0  0  0  0  3  0  0  0  0  0  0
  188.6230  177.4470  141.6230 C   0  0  0  0  0  3  0  0  0  0  0  0
  185.8500  178.0310  143.8450 C   0  0  0  0  0  3  0  0  0  0  0  0
  188.6960  177.7820  140.2610 C   0  0  0  0  0  0  0  0  0  0  0  0
  187.1320  177.5310  143.6320 C   0  0  0  0  0  0  0  0  0  0  0  0
  187.4480  177.7530  142.3090 C   0  0  0  0  0  0  0  0  0  0  0  0
  186.4210  178.3520  141.6900 N   0  0  0  0  0  0  0  0  0  0  0  0
  185.4490  178.5250  142.6040 C   0  0  0  0  0  0  0  0  0  0  0  0
  186.4400  178.6980  140.3780 C   0  0  0  0  0  3  0  0  0  0  0  0
  184.1920  179.1470  142.3050 N   0  0  0  0  0  2  0  0  0  0  0  0
  181.9300  177.2710  139.9800 C   0  0  0  0  0  3  0  0  0  0  0  0
  181.1940  178.5540  140.3530 C   0  0  0  0  0  3  0  0  0  0  0  0
  182.0780  179.2690  141.2510 N   0  0  0  0  0  0  0  0  0  0  0  0
  183.1710  178.6240  141.4480 C   0  0  0  0  0  0  0  0  0  0  0  0
  183.2560  177.3340  140.7220 C   0  0  0  0  0  2  0  0  0  0  0  0
  189.0440  175.8890  138.0390 O   0  0  0  0  0  0  0  0  0  0  0  0
  190.0390  176.5420  138.4590 C   0  0  0  0  0  0  0  0  0  0  0  0
  189.8970  177.4730  139.5430 N   0  0  0  0  0  2  0  0  0  0  0  0
  191.3580  176.3480  137.8320 C   0  0  0  0  0  0  0  0  0  0  0  0
  193.7490  176.3590  137.9770 N   0  0  0  0  0  0  0  0  0  0  0  0
  192.5350  176.5400  138.5660 C   0  0  0  0  0  3  0  0  0  0  0  0
  192.7140  175.7890  135.9030 C   0  0  0  0  0  3  0  0  0  0  0  0
  195.0850  175.8200  136.1200 F   0  0  0  0  0  0  0  0  0  0  0  0
  193.8600  175.9910  136.6730 C   0  0  0  0  0  0  0  0  0  0  0  0
  191.4600  175.9690  136.4880 C   0  0  0  0  0  3  0  0  0  0  0  0
  188.0160  176.9330  144.6730 C   0  0  0  0  0  2  0  0  0  0  0  0
  189.0170  177.9640  145.1550 C   0  0  0  0  0  2  0  0  0  0  0  0
  190.0500  177.2920  146.0370 C   0  0  0  0  0  2  0  0  0  0  0  0
  191.4320  178.3580  144.2980 C   0  0  0  0  0  2  0  0  0  0  0  0
  191.4070  177.3020  145.3550 C   0  0  2  0  0  3  0  0  0  0  0  0
  191.6970  176.3480  143.3430 N   0  0  0  0  0  0  0  0  0  0  0  0
  191.6070  177.7480  143.1380 C   0  0  0  0  0  3  0  0  0  0  0  0
  191.5860  176.0840  144.5780 N   0  0  0  0  0  2  0  0  0  0  0  0
  1  4  1  0  0  0  0
  1  9  2  0  0  0  0
  2  6  1  0  0  0  0
  4  2  2  0  0  0  0
  5  3  1  0  0  0  0
  5 26  1  0  0  0  0
  6  5  2  0  0  0  0
  7  6  1  0  0  0  0
  7  8  1  0  0  0  0
  8  3  2  0  0  0  0
  9  7  1  0  0  0  0
 10  8  1  0  0  0  0
 11 12  2  0  0  0  0
 11 15  1  0  0  0  0
 12 13  1  0  0  0  0
 13 14  2  0  0  0  0
 14 10  1  0  0  0  0
 15 14  1  0  0  0  0
 16 17  2  0  0  0  0
 17 18  1  0  0  0  0
 18  4  1  0  0  0  0
 19 17  1  0  0  0  0
 19 21  1  0  0  0  0
 20 21  2  0  0  0  0
 22 25  1  0  0  0  0
 22 24  2  0  0  0  0
 23 24  1  0  0  0  0
 24 20  1  0  0  0  0
 25 19  2  0  0  0  0
 26 27  1  0  0  0  0
 27 28  1  0  0  0  0
 29 30  1  0  0  0  0
 30 28  1  6  0  0  0
 31 33  1  0  0  0  0
 32 31  2  0  0  0  0
 32 29  1  0  0  0  0
 33 30  1  0  0  0  0
M  END
>  <MODEL>
9

>  <REMARK>
 VINA RESULT:      -7.7      3.551      9.387
  Name = 
  7 active torsions:
  status: ('A' for Active; 'I' for Inactive)
    1  A    between atoms: C_3  and  C_12
    2  A    between atoms: N_4  and  C_32
    3  A    between atoms: C_5  and  C_25
    4  A    between atoms: C_19  and  N_27
    5  A    between atoms: C_21  and  C_31
    6  A    between atoms: C_25  and  C_30
    7  A    between atoms: C_30  and  C_31
                            x       y       z     vdW  Elec       q    Type
                         _______ _______ _______ _____ _____    ______ ____

>  <TORSDO>
F 7

$$$$
