=
 OpenBabel10232407453D

 62 71  0  0  1  0  0  0  0  0999 V2000
  184.7130  178.9910  140.6620 C   0  0  1  0  0  3  0  0  0  0  0  0
  184.3950  178.4630  139.2610 C   0  0  2  0  0  3  0  0  0  0  0  0
  184.5150  179.5180  138.3370 O   0  0  0  0  0  0  0  0  0  0  0  0
  183.2040  179.0730  138.5800 C   0  0  2  0  0  3  0  0  0  0  0  0
  181.1430  180.0040  139.6390 C   0  0  0  0  0  3  0  0  0  0  0  0
  182.4220  179.9660  139.4370 N   0  0  0  0  0  0  0  0  0  0  0  0
  180.1380  177.4360  140.8540 O   0  0  0  0  0  1  0  0  0  0  0  0
  180.5920  176.8410  137.2300 C   0  0  0  0  0  0  0  0  0  0  0  0
  180.4710  178.0170  136.6890 N   0  0  0  0  0  0  0  0  0  0  0  0
  180.2460  179.1920  137.4760 C   0  0  0  0  0  0  0  0  0  0  0  0
  180.1340  179.1060  138.9810 C   0  0  1  0  0  3  0  0  0  0  0  0
  180.2770  177.6930  139.4950 C   0  0  0  0  0  0  0  0  0  0  0  0
  180.4830  176.6650  138.6790 C   0  0  0  0  0  3  0  0  0  0  0  0
  180.0990  180.3020  136.8970 O   0  0  0  0  0  0  0  0  0  0  0  0
  180.9240  175.3970  136.2190 S   0  0  0  0  0  0  0  0  0  0  0  0
  182.7510  173.7890  137.3490 N   0  0  0  0  0  2  0  0  0  0  0  0
  181.3990  174.2750  137.5920 C   0  0  2  0  0  3  0  0  0  0  0  0
  181.3240  172.0890  136.7460 C   0  0  0  0  0  2  0  0  0  0  0  0
  180.5430  173.0440  137.5980 C   0  0  0  0  0  2  0  0  0  0  0  0
  182.6410  172.6740  136.4890 N   0  0  0  0  0  0  0  0  0  0  0  0
  185.0480  172.1890  136.5460 C   0  0  0  0  0  1  0  0  0  0  0  0
  183.6500  171.7130  136.9170 C   0  0  0  0  0  2  0  0  0  0  0  0
  184.1080  178.1400  141.6920 N   0  0  0  0  0  2  0  0  0  0  0  0
  183.8310  178.9830  142.8550 C   0  0  0  0  0  2  0  0  0  0  0  0
  184.0330  178.9100  145.2300 C   0  0  0  0  0  3  0  0  0  0  0  0
  184.4470  178.4070  144.0790 C   0  0  0  0  0  3  0  0  0  0  0  0
  184.5550  178.4820  146.4520 O   0  0  0  0  0  0  0  0  0  0  0  0
  185.9420  178.3770  146.6180 C   0  0  0  0  0  0  0  0  0  0  0  0
  186.5240  179.1150  147.4630 O   0  0  0  0  0  0  0  0  0  0  0  0
  186.7330  177.3810  145.8160 C   0  0  0  0  0  2  0  0  0  0  0  0
  188.2520  176.3100  143.5180 C   0  0  0  0  0  2  0  0  0  0  0  0
  189.7550  178.2310  143.4780 C   0  0  1  0  0  3  0  0  0  0  0  0
  190.6240  178.6990  144.6980 C   0  0  0  0  0  2  0  0  0  0  0  0
  190.4570  177.0190  142.7850 C   0  0  1  0  0  3  0  0  0  0  0  0
  191.6160  176.5800  146.1490 O   0  0  0  0  0  0  0  0  0  0  0  0
  191.6010  176.8140  144.8110 C   0  0  1  0  0  3  0  0  0  0  0  0
  190.8570  175.9030  143.8040 C   0  0  1  0  0  3  0  0  0  0  0  0
  188.1530  177.8430  145.4440 C   0  0  2  0  0  3  0  0  0  0  0  0
  188.3500  177.7640  143.9200 C   0  0  2  0  0  3  0  0  0  0  0  0
  190.6500  177.5620  145.7400 C   0  0  2  0  0  0  0  0  0  0  0  0
  189.2590  176.9990  146.0940 C   0  0  0  0  0  2  0  0  0  0  0  0
  189.5770  175.8480  142.9360 C   0  0  1  0  0  3  0  0  0  0  0  0
  186.1510  179.1830  140.9070 N   0  0  0  0  0  2  0  0  0  0  0  0
  186.8900  178.7540  139.7950 N   0  0  0  0  0  2  0  0  0  0  0  0
  188.1130  178.1830  140.3290 C   0  0  0  0  0  2  0  0  0  0  0  0
  189.2700  178.4030  139.3670 C   0  0  0  0  0  2  0  0  0  0  0  0
  189.5040  177.1220  138.5930 C   0  0  0  0  0  2  0  0  0  0  0  0
  189.8360  177.4690  137.2820 O   0  0  0  0  0  0  0  0  0  0  0  0
  189.5110  176.3420  136.5160 C   0  0  1  0  0  3  0  0  0  0  0  0
  192.4720  174.0210  137.3790 C   0  0  0  0  0  3  0  0  0  0  0  0
  190.7410  175.4560  136.3040 C   0  0  2  0  0  3  0  0  0  0  0  0
  194.2730  176.3630  135.3170 O   0  0  0  0  0  1  0  0  0  0  0  0
  193.1790  175.5250  135.5500 C   0  0  1  0  0  0  0  0  0  0  0  0
  191.2990  174.9220  137.6300 C   0  0  0  0  0  2  0  0  0  0  0  0
  193.3740  174.3180  136.4330 C   0  0  0  0  0  0  0  0  0  0  0  0
  191.8170  176.2200  135.5180 C   0  0  1  0  0  3  0  0  0  0  0  0
  194.5260  173.4060  136.1990 C   0  0  0  0  0  1  0  0  0  0  0  0
  192.2830  175.3470  134.3480 C   0  0  0  0  0  2  0  0  0  0  0  0
  188.4150  175.5600  137.2230 C   0  0  0  0  0  2  0  0  0  0  0  0
  187.0460  175.9960  136.7390 C   0  0  0  0  0  2  0  0  0  0  0  0
  185.4670  175.3830  135.2610 O   0  0  0  0  0  1  0  0  0  0  0  0
  186.8070  175.4870  135.3970 N   0  0  0  0  0  2  0  0  0  0  0  0
  1 43  1  1  0  0  0
  1 23  1  0  0  0  0
  2  1  1  1  0  0  0
  3  4  1  0  0  0  0
  3  2  1  0  0  0  0
  4  2  1  0  0  0  0
  4  6  1  1  0  0  0
  6  5  2  0  0  0  0
  8 13  1  0  0  0  0
  9  8  2  0  0  0  0
  9 10  1  0  0  0  0
 10 11  1  0  0  0  0
 11 12  1  0  0  0  0
 11  5  1  1  0  0  0
 12  7  1  0  0  0  0
 13 12  2  0  0  0  0
 14 10  2  0  0  0  0
 15  8  1  0  0  0  0
 16 17  1  0  0  0  0
 17 15  1  6  0  0  0
 17 19  1  0  0  0  0
 18 19  1  0  0  0  0
 20 18  1  0  0  0  0
 20 22  1  0  0  0  0
 20 16  1  0  0  0  0
 21 22  1  0  0  0  0
 23 24  1  0  0  0  0
 24 26  1  0  0  0  0
 25 27  1  0  0  0  0
 26 25  2  0  0  0  0
 27 28  1  0  0  0  0
 28 29  2  0  0  0  0
 30 28  1  0  0  0  0
 31 39  1  0  0  0  0
 32 39  1  0  0  0  0
 32 33  1  1  0  0  0
 33 40  1  0  0  0  0
 34 42  1  0  0  0  0
 34 32  1  0  0  0  0
 34 37  1  0  0  0  0
 36 40  1  0  0  0  0
 36 35  1  0  0  0  0
 37 36  1  0  0  0  0
 38 30  1  0  0  0  0
 38 41  1  0  0  0  0
 39 38  1  0  0  0  0
 40 41  1  0  0  0  0
 40 35  1  0  0  0  0
 42 31  1  0  0  0  0
 42 37  1  0  0  0  0
 44 45  1  0  0  0  0
 44 43  1  0  0  0  0
 46 45  1  0  0  0  0
 47 46  1  0  0  0  0
 48 47  1  0  0  0  0
 49 59  1  0  0  0  0
 49 48  1  0  0  0  0
 50 54  1  0  0  0  0
 51 49  1  0  0  0  0
 51 54  1  0  0  0  0
 52 53  1  0  0  0  0
 53 55  1  0  0  0  0
 55 50  2  0  0  0  0
 56 53  1  0  0  0  0
 56 51  1  0  0  0  0
 57 55  1  0  0  0  0
 58 56  1  0  0  0  0
 58 53  1  0  0  0  0
 60 59  1  0  0  0  0
 61 62  1  0  0  0  0
 62 60  1  0  0  0  0
M  END
>  <MODEL>
1

>  <REMARK>
 VINA RESULT:      -7.5      0.000      0.000
  Name = 
  24 active torsions:
  status: ('A' for Active; 'I' for Inactive)
    1  A    between atoms: C_3  and  C_46
    2  A    between atoms: S_4  and  C_15
    3  A    between atoms: S_4  and  C_36
    4  A    between atoms: C_5  and  O_37
    5  A    between atoms: C_5  and  C_59
    6  A    between atoms: C_6  and  C_51
    7  A    between atoms: C_9  and  C_48
    8  A    between atoms: N_13  and  N_25
    9  A    between atoms: N_13  and  C_26
   10  A    between atoms: O_16  and  C_32
   11  A    between atoms: O_16  and  C_48
   12  A    between atoms: C_21  and  C_26
   13  A    between atoms: C_21  and  C_32
   14  A    between atoms: N_24  and  C_29
   15  A    between atoms: N_25  and  C_46
   16  A    between atoms: N_27  and  C_34
   17  A    between atoms: N_27  and  C_46
   18  A    between atoms: C_28  and  O_37
   19  A    between atoms: C_29  and  C_50
   20  A    between atoms: C_34  and  C_62
   21  A    between atoms: C_38  and  N_47
   22  A    between atoms: C_48  and  C_50
   23  A    between atoms: C_49  and  C_59
   24  A    between atoms: C_52  and  N_58
                            x       y       z     vdW  Elec       q    Type
                         _______ _______ _______ _____ _____    ______ ____

>  <TORSDO>
F 24

$$$$
=
 OpenBabel10232407453D

 62 71  0  0  1  0  0  0  0  0999 V2000
  190.0520  177.6620  137.5570 C   0  0  1  0  0  3  0  0  0  0  0  0
  190.2000  176.1470  137.3960 C   0  0  2  0  0  3  0  0  0  0  0  0
  190.7590  175.6150  138.5740 O   0  0  0  0  0  0  0  0  0  0  0  0
  191.6010  175.6110  137.4490 C   0  0  2  0  0  3  0  0  0  0  0  0
  193.8500  176.6130  137.0270 C   0  0  0  0  0  3  0  0  0  0  0  0
  192.6340  176.6480  137.4750 N   0  0  0  0  0  0  0  0  0  0  0  0
  194.3580  173.9940  138.4270 O   0  0  0  0  0  1  0  0  0  0  0  0
  197.3050  174.7030  136.3060 C   0  0  0  0  0  0  0  0  0  0  0  0
  196.8480  175.4640  135.3570 N   0  0  0  0  0  0  0  0  0  0  0  0
  195.4770  175.8750  135.3100 C   0  0  0  0  0  0  0  0  0  0  0  0
  194.4990  175.4280  136.3720 C   0  0  1  0  0  3  0  0  0  0  0  0
  195.1380  174.5390  137.4140 C   0  0  0  0  0  0  0  0  0  0  0  0
  196.4250  174.2130  137.3670 C   0  0  0  0  0  3  0  0  0  0  0  0
  195.0780  176.5820  134.3460 O   0  0  0  0  0  0  0  0  0  0  0  0
  199.0400  174.2500  136.3620 S   0  0  0  0  0  0  0  0  0  0  0  0
  197.8070  172.0510  135.4440 N   0  0  0  0  0  2  0  0  0  0  0  0
  198.9510  172.8970  135.1260 C   0  0  2  0  0  3  0  0  0  0  0  0
  199.6740  170.9410  136.2000 C   0  0  0  0  0  2  0  0  0  0  0  0
  200.1410  171.9910  135.2360 C   0  0  0  0  0  2  0  0  0  0  0  0
  198.2380  171.1210  136.4160 N   0  0  0  0  0  0  0  0  0  0  0  0
  198.5600  168.6990  136.1730 C   0  0  0  0  0  1  0  0  0  0  0  0
  197.5760  169.8590  136.1120 C   0  0  0  0  0  2  0  0  0  0  0  0
  189.2520  178.2290  136.4660 N   0  0  0  0  0  2  0  0  0  0  0  0
  188.8130  177.1190  135.6190 C   0  0  0  0  0  2  0  0  0  0  0  0
  186.5610  176.3860  135.8970 C   0  0  0  0  0  3  0  0  0  0  0  0
  187.3670  177.2460  135.2980 C   0  0  0  0  0  3  0  0  0  0  0  0
  185.1850  176.3740  135.6570 O   0  0  0  0  0  0  0  0  0  0  0  0
  184.3820  175.4020  136.2660 C   0  0  0  0  0  0  0  0  0  0  0  0
  184.7090  174.1830  136.1810 O   0  0  0  0  0  0  0  0  0  0  0  0
  183.1530  175.8000  137.0350 C   0  0  0  0  0  2  0  0  0  0  0  0
  181.7310  176.3400  139.5690 C   0  0  0  0  0  2  0  0  0  0  0  0
  183.2840  178.1170  140.1870 C   0  0  1  0  0  3  0  0  0  0  0  0
  183.5810  179.3770  139.3020 C   0  0  0  0  0  2  0  0  0  0  0  0
  181.9350  178.3300  140.9460 C   0  0  1  0  0  3  0  0  0  0  0  0
  181.3310  180.3070  138.0170 O   0  0  0  0  0  0  0  0  0  0  0  0
  181.5340  179.9500  139.3120 C   0  0  1  0  0  3  0  0  0  0  0  0
  180.7820  178.7800  139.9920 C   0  0  1  0  0  3  0  0  0  0  0  0
  183.2920  177.1120  137.8260 C   0  0  2  0  0  3  0  0  0  0  0  0
  183.1390  176.8370  139.3330 C   0  0  2  0  0  3  0  0  0  0  0  0
  182.4880  179.4800  138.2190 C   0  0  2  0  0  0  0  0  0  0  0  0
  182.2440  178.1690  137.4450 C   0  0  0  0  0  2  0  0  0  0  0  0
  180.9840  177.3180  140.4590 C   0  0  1  0  0  3  0  0  0  0  0  0
  189.5250  178.0680  138.8700 N   0  0  0  0  0  2  0  0  0  0  0  0
  188.1510  177.7990  138.9400 N   0  0  0  0  0  2  0  0  0  0  0  0
  187.6740  178.4880  140.1250 C   0  0  0  0  0  2  0  0  0  0  0  0
  188.3920  177.9790  141.3650 C   0  0  0  0  0  2  0  0  0  0  0  0
  187.3550  177.5180  142.3680 C   0  0  0  0  0  2  0  0  0  0  0  0
  187.5000  178.2920  143.5200 O   0  0  0  0  0  0  0  0  0  0  0  0
  187.1990  177.4250  144.5790 C   0  0  1  0  0  3  0  0  0  0  0  0
  189.7600  176.7060  147.3750 C   0  0  0  0  0  3  0  0  0  0  0  0
  188.4790  176.9200  145.2490 C   0  0  2  0  0  3  0  0  0  0  0  0
  192.0350  178.1700  144.9960 O   0  0  0  0  0  1  0  0  0  0  0  0
  191.0050  177.2830  145.3200 C   0  0  1  0  0  0  0  0  0  0  0  0
  188.5160  177.2580  146.7450 C   0  0  0  0  0  2  0  0  0  0  0  0
  190.9340  176.7490  146.7280 C   0  0  0  0  0  0  0  0  0  0  0  0
  189.7130  177.4760  144.5240 C   0  0  1  0  0  3  0  0  0  0  0  0
  192.1520  176.1890  147.3720 C   0  0  0  0  0  1  0  0  0  0  0  0
  190.6650  176.3160  144.2110 C   0  0  0  0  0  2  0  0  0  0  0  0
  186.3310  178.1580  145.5900 C   0  0  0  0  0  2  0  0  0  0  0  0
  185.2590  178.9690  144.8890 C   0  0  0  0  0  2  0  0  0  0  0  0
  184.3900  178.5530  146.9200 O   0  0  0  0  0  1  0  0  0  0  0  0
  184.0420  178.9800  145.6860 N   0  0  0  0  0  2  0  0  0  0  0  0
  1 23  1  6  0  0  0
  1 43  1  0  0  0  0
  2  4  1  0  0  0  0
  2  1  1  1  0  0  0
  2  3  1  0  0  0  0
  4  6  1  1  0  0  0
  4  3  1  0  0  0  0
  5  6  2  0  0  0  0
  8 15  1  0  0  0  0
  8 13  1  0  0  0  0
  9  8  2  0  0  0  0
 10  9  1  0  0  0  0
 10 11  1  0  0  0  0
 11  5  1  1  0  0  0
 11 12  1  0  0  0  0
 12  7  1  0  0  0  0
 13 12  2  0  0  0  0
 14 10  2  0  0  0  0
 16 20  1  0  0  0  0
 17 19  1  0  0  0  0
 17 16  1  0  0  0  0
 17 15  1  1  0  0  0
 18 20  1  0  0  0  0
 19 18  1  0  0  0  0
 22 21  1  0  0  0  0
 22 20  1  0  0  0  0
 24 23  1  0  0  0  0
 26 24  1  0  0  0  0
 26 25  2  0  0  0  0
 27 25  1  0  0  0  0
 27 28  1  0  0  0  0
 28 30  1  0  0  0  0
 29 28  2  0  0  0  0
 30 38  1  0  0  0  0
 31 42  1  0  0  0  0
 32 33  1  6  0  0  0
 32 34  1  0  0  0  0
 35 40  1  0  0  0  0
 35 36  1  0  0  0  0
 36 37  1  0  0  0  0
 37 42  1  0  0  0  0
 37 34  1  0  0  0  0
 38 39  1  0  0  0  0
 39 31  1  0  0  0  0
 39 32  1  0  0  0  0
 40 33  1  0  0  0  0
 40 36  1  0  0  0  0
 41 38  1  0  0  0  0
 41 40  1  0  0  0  0
 42 34  1  0  0  0  0
 43 44  1  0  0  0  0
 44 45  1  0  0  0  0
 45 46  1  0  0  0  0
 46 47  1  0  0  0  0
 47 48  1  0  0  0  0
 48 49  1  0  0  0  0
 49 51  1  0  0  0  0
 49 59  1  0  0  0  0
 51 54  1  0  0  0  0
 52 53  1  0  0  0  0
 53 55  1  0  0  0  0
 54 50  1  0  0  0  0
 55 57  1  0  0  0  0
 55 50  2  0  0  0  0
 56 51  1  0  0  0  0
 56 53  1  0  0  0  0
 58 56  1  0  0  0  0
 58 53  1  0  0  0  0
 60 59  1  0  0  0  0
 60 62  1  0  0  0  0
 62 61  1  0  0  0  0
M  END
>  <MODEL>
2

>  <REMARK>
 VINA RESULT:      -7.3      4.212     11.568
  Name = 
  24 active torsions:
  status: ('A' for Active; 'I' for Inactive)
    1  A    between atoms: C_3  and  C_46
    2  A    between atoms: S_4  and  C_15
    3  A    between atoms: S_4  and  C_36
    4  A    between atoms: C_5  and  O_37
    5  A    between atoms: C_5  and  C_59
    6  A    between atoms: C_6  and  C_51
    7  A    between atoms: C_9  and  C_48
    8  A    between atoms: N_13  and  N_25
    9  A    between atoms: N_13  and  C_26
   10  A    between atoms: O_16  and  C_32
   11  A    between atoms: O_16  and  C_48
   12  A    between atoms: C_21  and  C_26
   13  A    between atoms: C_21  and  C_32
   14  A    between atoms: N_24  and  C_29
   15  A    between atoms: N_25  and  C_46
   16  A    between atoms: N_27  and  C_34
   17  A    between atoms: N_27  and  C_46
   18  A    between atoms: C_28  and  O_37
   19  A    between atoms: C_29  and  C_50
   20  A    between atoms: C_34  and  C_62
   21  A    between atoms: C_38  and  N_47
   22  A    between atoms: C_48  and  C_50
   23  A    between atoms: C_49  and  C_59
   24  A    between atoms: C_52  and  N_58
                            x       y       z     vdW  Elec       q    Type
                         _______ _______ _______ _____ _____    ______ ____

>  <TORSDO>
F 24

$$$$
=
 OpenBabel10232407453D

 62 71  0  0  1  0  0  0  0  0999 V2000
  185.2460  179.0890  140.8280 C   0  0  1  0  0  3  0  0  0  0  0  0
  185.0370  178.3420  139.5080 C   0  0  2  0  0  3  0  0  0  0  0  0
  185.3970  179.1890  138.4420 O   0  0  0  0  0  0  0  0  0  0  0  0
  184.0210  178.9290  138.5720 C   0  0  2  0  0  3  0  0  0  0  0  0
  181.9820  180.1390  139.3540 C   0  0  0  0  0  3  0  0  0  0  0  0
  183.2570  180.0380  139.1430 N   0  0  0  0  0  0  0  0  0  0  0  0
  181.0870  177.9890  141.2650 O   0  0  0  0  0  1  0  0  0  0  0  0
  181.3800  176.4400  137.9180 C   0  0  0  0  0  0  0  0  0  0  0  0
  181.2100  177.4250  137.0870 N   0  0  0  0  0  0  0  0  0  0  0  0
  181.0000  178.7680  137.5380 C   0  0  0  0  0  0  0  0  0  0  0  0
  180.9610  179.0910  139.0150 C   0  0  1  0  0  3  0  0  0  0  0  0
  181.1570  177.8700  139.8820 C   0  0  0  0  0  0  0  0  0  0  0  0
  181.3440  176.6610  139.3640 C   0  0  0  0  0  3  0  0  0  0  0  0
  180.8030  179.6800  136.6900 O   0  0  0  0  0  0  0  0  0  0  0  0
  181.6920  174.7790  137.3180 S   0  0  0  0  0  0  0  0  0  0  0  0
  184.2100  175.6460  136.9870 N   0  0  0  0  0  2  0  0  0  0  0  0
  183.4600  174.7010  137.8040 C   0  0  2  0  0  3  0  0  0  0  0  0
  184.5900  173.5620  136.0930 C   0  0  0  0  0  2  0  0  0  0  0  0
  184.0470  173.3590  137.4760 C   0  0  0  0  0  2  0  0  0  0  0  0
  184.5240  174.9890  135.7770 N   0  0  0  0  0  0  0  0  0  0  0  0
  186.2010  176.7620  136.0410 C   0  0  0  0  0  1  0  0  0  0  0  0
  185.8600  175.4270  135.3960 C   0  0  0  0  0  2  0  0  0  0  0  0
  184.5020  178.4470  141.9160 N   0  0  0  0  0  2  0  0  0  0  0  0
  184.8060  179.1740  143.1480 C   0  0  0  0  0  2  0  0  0  0  0  0
  185.6820  178.6600  145.3060 C   0  0  0  0  0  3  0  0  0  0  0  0
  184.9500  178.2340  144.2910 C   0  0  0  0  0  3  0  0  0  0  0  0
  185.9250  177.8630  146.4260 O   0  0  0  0  0  0  0  0  0  0  0  0
  187.2390  177.6700  146.8710 C   0  0  0  0  0  0  0  0  0  0  0  0
  187.4490  176.9800  147.9090 O   0  0  0  0  0  0  0  0  0  0  0  0
  188.3950  178.2570  146.1110 C   0  0  0  0  0  2  0  0  0  0  0  0
  190.6450  178.9890  144.3390 C   0  0  0  0  0  2  0  0  0  0  0  0
  191.5800  176.7380  144.4160 C   0  0  1  0  0  3  0  0  0  0  0  0
  190.7970  175.4410  144.0060 C   0  0  0  0  0  2  0  0  0  0  0  0
  192.0890  177.4580  143.1260 C   0  0  1  0  0  3  0  0  0  0  0  0
  189.1520  175.8560  141.8370 O   0  0  0  0  0  0  0  0  0  0  0  0
  190.4530  176.1890  142.0460 C   0  0  1  0  0  3  0  0  0  0  0  0
  190.9550  177.6540  142.0690 C   0  0  1  0  0  3  0  0  0  0  0  0
  189.2330  177.2290  145.3290 C   0  0  2  0  0  3  0  0  0  0  0  0
  190.6800  177.7340  145.1810 C   0  0  2  0  0  3  0  0  0  0  0  0
  189.5380  175.8620  143.2210 C   0  0  2  0  0  0  0  0  0  0  0  0
  188.6980  176.9520  143.9170 C   0  0  0  0  0  2  0  0  0  0  0  0
  191.4110  178.7620  143.0470 C   0  0  1  0  0  3  0  0  0  0  0  0
  186.6630  179.2690  141.1860 N   0  0  0  0  0  2  0  0  0  0  0  0
  187.4150  178.1740  140.7380 N   0  0  0  0  0  2  0  0  0  0  0  0
  188.5720  178.7370  140.0670 C   0  0  0  0  0  2  0  0  0  0  0  0
  188.6280  178.2770  138.6200 C   0  0  0  0  0  2  0  0  0  0  0  0
  189.3280  176.9350  138.5670 C   0  0  0  0  0  2  0  0  0  0  0  0
  190.6020  177.1370  138.0330 O   0  0  0  0  0  0  0  0  0  0  0  0
  190.7210  176.1870  137.0100 C   0  0  1  0  0  3  0  0  0  0  0  0
  193.8130  175.6990  134.7530 C   0  0  0  0  0  3  0  0  0  0  0  0
  192.1880  175.9910  136.6190 C   0  0  2  0  0  3  0  0  0  0  0  0
  194.4630  173.0070  137.0570 O   0  0  0  0  0  1  0  0  0  0  0  0
  194.1250  174.3370  136.7900 C   0  0  1  0  0  0  0  0  0  0  0  0
  192.3610  175.8410  135.1010 C   0  0  0  0  0  2  0  0  0  0  0  0
  194.6340  174.9660  135.5190 C   0  0  0  0  0  0  0  0  0  0  0  0
  192.7810  174.7880  137.3660 C   0  0  1  0  0  3  0  0  0  0  0  0
  196.0710  174.8460  135.1550 C   0  0  0  0  0  1  0  0  0  0  0  0
  194.1000  175.2150  138.0180 C   0  0  0  0  0  2  0  0  0  0  0  0
  190.1220  174.8710  137.4800 C   0  0  0  0  0  2  0  0  0  0  0  0
  189.3660  174.1930  136.3540 C   0  0  0  0  0  2  0  0  0  0  0  0
  187.9130  172.5600  135.8290 O   0  0  0  0  0  1  0  0  0  0  0  0
  188.5880  173.0810  136.8770 N   0  0  0  0  0  2  0  0  0  0  0  0
  1 43  1  1  0  0  0
  1 23  1  0  0  0  0
  2  1  1  1  0  0  0
  3  4  1  0  0  0  0
  3  2  1  0  0  0  0
  4  6  1  1  0  0  0
  4  2  1  0  0  0  0
  6  5  2  0  0  0  0
  8 13  1  0  0  0  0
  9 10  1  0  0  0  0
  9  8  2  0  0  0  0
 10 11  1  0  0  0  0
 11  5  1  6  0  0  0
 11 12  1  0  0  0  0
 12  7  1  0  0  0  0
 13 12  2  0  0  0  0
 14 10  2  0  0  0  0
 15  8  1  0  0  0  0
 16 17  1  0  0  0  0
 17 15  1  6  0  0  0
 18 19  1  0  0  0  0
 19 17  1  0  0  0  0
 20 18  1  0  0  0  0
 20 16  1  0  0  0  0
 22 20  1  0  0  0  0
 22 21  1  0  0  0  0
 23 24  1  0  0  0  0
 24 26  1  0  0  0  0
 25 27  1  0  0  0  0
 26 25  2  0  0  0  0
 27 28  1  0  0  0  0
 28 29  2  0  0  0  0
 30 28  1  0  0  0  0
 31 39  1  0  0  0  0
 32 33  1  6  0  0  0
 32 39  1  0  0  0  0
 34 32  1  0  0  0  0
 35 36  1  0  0  0  0
 35 40  1  0  0  0  0
 36 37  1  0  0  0  0
 36 40  1  0  0  0  0
 37 42  1  0  0  0  0
 37 34  1  0  0  0  0
 38 30  1  0  0  0  0
 39 38  1  0  0  0  0
 40 41  1  0  0  0  0
 40 33  1  0  0  0  0
 41 38  1  0  0  0  0
 42 34  1  0  0  0  0
 42 31  1  0  0  0  0
 44 43  1  0  0  0  0
 45 44  1  0  0  0  0
 46 45  1  0  0  0  0
 47 46  1  0  0  0  0
 48 47  1  0  0  0  0
 49 59  1  0  0  0  0
 49 48  1  0  0  0  0
 50 54  1  0  0  0  0
 50 55  2  0  0  0  0
 51 49  1  0  0  0  0
 51 56  1  0  0  0  0
 53 52  1  0  0  0  0
 53 56  1  0  0  0  0
 53 58  1  0  0  0  0
 54 51  1  0  0  0  0
 55 53  1  0  0  0  0
 56 58  1  0  0  0  0
 57 55  1  0  0  0  0
 60 62  1  0  0  0  0
 60 59  1  0  0  0  0
 61 62  1  0  0  0  0
M  END
>  <MODEL>
3

>  <REMARK>
 VINA RESULT:      -7.2      1.587      2.370
  Name = 
  24 active torsions:
  status: ('A' for Active; 'I' for Inactive)
    1  A    between atoms: C_3  and  C_46
    2  A    between atoms: S_4  and  C_15
    3  A    between atoms: S_4  and  C_36
    4  A    between atoms: C_5  and  O_37
    5  A    between atoms: C_5  and  C_59
    6  A    between atoms: C_6  and  C_51
    7  A    between atoms: C_9  and  C_48
    8  A    between atoms: N_13  and  N_25
    9  A    between atoms: N_13  and  C_26
   10  A    between atoms: O_16  and  C_32
   11  A    between atoms: O_16  and  C_48
   12  A    between atoms: C_21  and  C_26
   13  A    between atoms: C_21  and  C_32
   14  A    between atoms: N_24  and  C_29
   15  A    between atoms: N_25  and  C_46
   16  A    between atoms: N_27  and  C_34
   17  A    between atoms: N_27  and  C_46
   18  A    between atoms: C_28  and  O_37
   19  A    between atoms: C_29  and  C_50
   20  A    between atoms: C_34  and  C_62
   21  A    between atoms: C_38  and  N_47
   22  A    between atoms: C_48  and  C_50
   23  A    between atoms: C_49  and  C_59
   24  A    between atoms: C_52  and  N_58
                            x       y       z     vdW  Elec       q    Type
                         _______ _______ _______ _____ _____    ______ ____

>  <TORSDO>
F 24

$$$$
=
 OpenBabel10232407453D

 62 71  0  0  1  0  0  0  0  0999 V2000
  190.5440  177.2150  139.9190 C   0  0  1  0  0  3  0  0  0  0  0  0
  191.6020  176.4450  139.1230 C   0  0  2  0  0  3  0  0  0  0  0  0
  191.6600  176.9670  137.8170 O   0  0  0  0  0  0  0  0  0  0  0  0
  191.1050  175.6810  137.9310 C   0  0  2  0  0  3  0  0  0  0  0  0
  188.9080  175.2200  136.8360 C   0  0  0  0  0  3  0  0  0  0  0  0
  189.6460  175.6500  137.8110 N   0  0  0  0  0  0  0  0  0  0  0  0
  188.8940  172.2810  136.1700 O   0  0  0  0  0  1  0  0  0  0  0  0
  192.0810  173.6840  134.9190 C   0  0  0  0  0  0  0  0  0  0  0  0
  191.8250  174.9410  134.7130 N   0  0  0  0  0  0  0  0  0  0  0  0
  190.5410  175.5080  134.9950 C   0  0  0  0  0  0  0  0  0  0  0  0
  189.4210  174.6530  135.5440 C   0  0  1  0  0  3  0  0  0  0  0  0
  189.8300  173.2110  135.7300 C   0  0  0  0  0  0  0  0  0  0  0  0
  191.0520  172.7810  135.4350 C   0  0  0  0  0  3  0  0  0  0  0  0
  190.3350  176.7250  134.7410 O   0  0  0  0  0  0  0  0  0  0  0  0
  193.7170  173.0170  134.6030 S   0  0  0  0  0  0  0  0  0  0  0  0
  194.6780  173.3770  137.0820 N   0  0  0  0  0  2  0  0  0  0  0  0
  194.0100  172.3530  136.2880 C   0  0  2  0  0  3  0  0  0  0  0  0
  196.3020  171.8790  136.4460 C   0  0  0  0  0  2  0  0  0  0  0  0
  194.9760  171.2060  136.2510 C   0  0  0  0  0  2  0  0  0  0  0  0
  196.0600  173.2750  136.8110 N   0  0  0  0  0  0  0  0  0  0  0  0
  195.8390  174.2380  139.0590 C   0  0  0  0  0  1  0  0  0  0  0  0
  196.7540  173.5370  138.0650 C   0  0  0  0  0  2  0  0  0  0  0  0
  189.7100  178.0290  139.0280 N   0  0  0  0  0  2  0  0  0  0  0  0
  188.5020  178.3950  139.7680 C   0  0  0  0  0  2  0  0  0  0  0  0
  187.4270  178.2940  137.6420 C   0  0  0  0  0  3  0  0  0  0  0  0
  187.2880  178.1410  138.9480 C   0  0  0  0  0  3  0  0  0  0  0  0
  186.3570  178.1190  136.7620 O   0  0  0  0  0  0  0  0  0  0  0  0
  186.5840  177.5750  135.4910 C   0  0  0  0  0  0  0  0  0  0  0  0
  187.4630  178.0900  134.7430 O   0  0  0  0  0  0  0  0  0  0  0  0
  185.8080  176.3750  135.0260 C   0  0  0  0  0  2  0  0  0  0  0  0
  185.6380  173.4590  135.4840 C   0  0  0  0  0  2  0  0  0  0  0  0
  184.7330  173.7550  137.7300 C   0  0  1  0  0  3  0  0  0  0  0  0
  183.4300  174.5640  138.0580 C   0  0  0  0  0  2  0  0  0  0  0  0
  184.3380  172.3390  137.2030 C   0  0  1  0  0  3  0  0  0  0  0  0
  181.4800  174.2260  136.1430 O   0  0  0  0  0  0  0  0  0  0  0  0
  182.2600  173.3210  136.7910 C   0  0  1  0  0  3  0  0  0  0  0  0
  183.2730  172.4060  136.0610 C   0  0  1  0  0  3  0  0  0  0  0  0
  184.9170  175.7320  136.1040 C   0  0  2  0  0  3  0  0  0  0  0  0
  185.5730  174.4430  136.6300 C   0  0  2  0  0  3  0  0  0  0  0  0
  182.6560  174.7920  136.7430 C   0  0  2  0  0  0  0  0  0  0  0  0
  183.5170  175.3590  135.5960 C   0  0  0  0  0  2  0  0  0  0  0  0
  184.7910  172.2400  135.8060 C   0  0  1  0  0  3  0  0  0  0  0  0
  189.7200  176.3590  140.7860 N   0  0  0  0  0  2  0  0  0  0  0  0
  190.4740  175.9190  141.8840 N   0  0  0  0  0  2  0  0  0  0  0  0
  190.7380  177.1010  142.6820 C   0  0  0  0  0  2  0  0  0  0  0  0
  190.1320  176.9570  144.0690 C   0  0  0  0  0  2  0  0  0  0  0  0
  189.1240  178.0690  144.2740 C   0  0  0  0  0  2  0  0  0  0  0  0
  187.8520  177.4930  144.3040 O   0  0  0  0  0  0  0  0  0  0  0  0
  187.1230  178.2760  145.2100 C   0  0  1  0  0  3  0  0  0  0  0  0
  183.3270  178.8520  144.8150 C   0  0  0  0  0  3  0  0  0  0  0  0
  185.8060  178.7440  144.5860 C   0  0  2  0  0  3  0  0  0  0  0  0
  183.9570  177.4930  141.5380 O   0  0  0  0  0  1  0  0  0  0  0  0
  184.2690  178.3680  142.5820 C   0  0  1  0  0  0  0  0  0  0  0  0
  184.5930  178.3340  145.4320 C   0  0  0  0  0  2  0  0  0  0  0  0
  183.1560  178.8350  143.4850 C   0  0  0  0  0  0  0  0  0  0  0  0
  185.6820  178.2180  143.1480 C   0  0  1  0  0  3  0  0  0  0  0  0
  181.8940  179.3580  142.8970 C   0  0  0  0  0  1  0  0  0  0  0  0
  185.3250  179.3880  142.2250 C   0  0  0  0  0  2  0  0  0  0  0  0
  186.8500  177.4600  146.4640 C   0  0  0  0  0  2  0  0  0  0  0  0
  187.3970  178.1630  147.6910 C   0  0  0  0  0  2  0  0  0  0  0  0
  189.2280  176.8600  147.6670 O   0  0  0  0  0  1  0  0  0  0  0  0
  188.2110  177.2440  148.4700 N   0  0  0  0  0  2  0  0  0  0  0  0
  1 23  1  6  0  0  0
  1 43  1  0  0  0  0
  2  1  1  1  0  0  0
  3  4  1  0  0  0  0
  3  2  1  0  0  0  0
  4  6  1  1  0  0  0
  4  2  1  0  0  0  0
  5  6  2  0  0  0  0
  8 13  1  0  0  0  0
  9  8  2  0  0  0  0
  9 10  1  0  0  0  0
 10 11  1  0  0  0  0
 11 12  1  0  0  0  0
 11  5  1  1  0  0  0
 12  7  1  0  0  0  0
 13 12  2  0  0  0  0
 14 10  2  0  0  0  0
 15  8  1  0  0  0  0
 17 15  1  6  0  0  0
 17 16  1  0  0  0  0
 18 20  1  0  0  0  0
 19 17  1  0  0  0  0
 19 18  1  0  0  0  0
 20 16  1  0  0  0  0
 20 22  1  0  0  0  0
 22 21  1  0  0  0  0
 23 24  1  0  0  0  0
 25 26  2  0  0  0  0
 26 24  1  0  0  0  0
 27 25  1  0  0  0  0
 28 27  1  0  0  0  0
 29 28  2  0  0  0  0
 30 28  1  0  0  0  0
 30 38  1  0  0  0  0
 31 42  1  0  0  0  0
 31 39  1  0  0  0  0
 32 33  1  6  0  0  0
 34 32  1  0  0  0  0
 35 40  1  0  0  0  0
 35 36  1  0  0  0  0
 37 36  1  0  0  0  0
 37 34  1  0  0  0  0
 38 39  1  0  0  0  0
 39 32  1  0  0  0  0
 40 36  1  0  0  0  0
 40 33  1  0  0  0  0
 41 38  1  0  0  0  0
 41 40  1  0  0  0  0
 42 37  1  0  0  0  0
 42 34  1  0  0  0  0
 43 44  1  0  0  0  0
 44 45  1  0  0  0  0
 45 46  1  0  0  0  0
 46 47  1  0  0  0  0
 47 48  1  0  0  0  0
 48 49  1  0  0  0  0
 49 59  1  0  0  0  0
 50 54  1  0  0  0  0
 51 49  1  0  0  0  0
 51 54  1  0  0  0  0
 52 53  1  0  0  0  0
 53 56  1  0  0  0  0
 53 55  1  0  0  0  0
 55 50  2  0  0  0  0
 56 51  1  0  0  0  0
 57 55  1  0  0  0  0
 58 53  1  0  0  0  0
 58 56  1  0  0  0  0
 59 60  1  0  0  0  0
 60 62  1  0  0  0  0
 61 62  1  0  0  0  0
M  END
>  <MODEL>
4

>  <REMARK>
 VINA RESULT:      -7.0      3.661     10.672
  Name = 
  24 active torsions:
  status: ('A' for Active; 'I' for Inactive)
    1  A    between atoms: C_3  and  C_46
    2  A    between atoms: S_4  and  C_15
    3  A    between atoms: S_4  and  C_36
    4  A    between atoms: C_5  and  O_37
    5  A    between atoms: C_5  and  C_59
    6  A    between atoms: C_6  and  C_51
    7  A    between atoms: C_9  and  C_48
    8  A    between atoms: N_13  and  N_25
    9  A    between atoms: N_13  and  C_26
   10  A    between atoms: O_16  and  C_32
   11  A    between atoms: O_16  and  C_48
   12  A    between atoms: C_21  and  C_26
   13  A    between atoms: C_21  and  C_32
   14  A    between atoms: N_24  and  C_29
   15  A    between atoms: N_25  and  C_46
   16  A    between atoms: N_27  and  C_34
   17  A    between atoms: N_27  and  C_46
   18  A    between atoms: C_28  and  O_37
   19  A    between atoms: C_29  and  C_50
   20  A    between atoms: C_34  and  C_62
   21  A    between atoms: C_38  and  N_47
   22  A    between atoms: C_48  and  C_50
   23  A    between atoms: C_49  and  C_59
   24  A    between atoms: C_52  and  N_58
                            x       y       z     vdW  Elec       q    Type
                         _______ _______ _______ _____ _____    ______ ____

>  <TORSDO>
F 24

$$$$
=
 OpenBabel10232407453D

 62 71  0  0  1  0  0  0  0  0999 V2000
  183.8250  178.2500  139.4880 C   0  0  1  0  0  3  0  0  0  0  0  0
  183.3340  176.8390  139.8220 C   0  0  2  0  0  3  0  0  0  0  0  0
  183.3830  176.0500  138.6570 O   0  0  0  0  0  0  0  0  0  0  0  0
  182.0940  176.3850  139.1080 C   0  0  2  0  0  3  0  0  0  0  0  0
  180.6940  177.3310  137.2700 C   0  0  0  0  0  3  0  0  0  0  0  0
  181.4430  177.4340  138.3220 N   0  0  0  0  0  0  0  0  0  0  0  0
  179.9830  174.7910  138.7260 O   0  0  0  0  0  1  0  0  0  0  0  0
  182.0730  173.8520  135.8210 C   0  0  0  0  0  0  0  0  0  0  0  0
  181.8880  174.8110  134.9640 N   0  0  0  0  0  0  0  0  0  0  0  0
  181.0500  175.9350  135.2540 C   0  0  0  0  0  0  0  0  0  0  0  0
  180.3360  176.0450  136.5820 C   0  0  1  0  0  3  0  0  0  0  0  0
  180.6140  174.8710  137.4900 C   0  0  0  0  0  0  0  0  0  0  0  0
  181.4100  173.8710  137.1250 C   0  0  0  0  0  3  0  0  0  0  0  0
  180.8760  176.8180  134.3720 O   0  0  0  0  0  0  0  0  0  0  0  0
  183.1700  172.4840  135.4440 S   0  0  0  0  0  0  0  0  0  0  0  0
  185.6090  172.7020  134.3460 N   0  0  0  0  0  2  0  0  0  0  0  0
  184.6750  173.4890  135.1420 C   0  0  2  0  0  3  0  0  0  0  0  0
  186.3660  172.6190  136.5160 C   0  0  0  0  0  2  0  0  0  0  0  0
  185.4020  173.7650  136.4250 C   0  0  0  0  0  2  0  0  0  0  0  0
  186.3400  171.8950  135.2440 N   0  0  0  0  0  0  0  0  0  0  0  0
  188.4340  170.6130  135.2810 C   0  0  0  0  0  1  0  0  0  0  0  0
  187.7050  171.8320  134.7360 C   0  0  0  0  0  2  0  0  0  0  0  0
  183.5320  179.1790  140.5850 N   0  0  0  0  0  2  0  0  0  0  0  0
  184.7390  179.2900  141.4040 C   0  0  0  0  0  2  0  0  0  0  0  0
  185.1020  178.8130  143.7120 C   0  0  0  0  0  3  0  0  0  0  0  0
  184.6840  178.3430  142.5490 C   0  0  0  0  0  3  0  0  0  0  0  0
  185.1350  178.0180  144.8590 O   0  0  0  0  0  0  0  0  0  0  0  0
  185.9430  178.3920  145.9410 C   0  0  0  0  0  0  0  0  0  0  0  0
  185.6720  179.4460  146.5840 O   0  0  0  0  0  0  0  0  0  0  0  0
  187.1090  177.5370  146.3520 C   0  0  0  0  0  2  0  0  0  0  0  0
  188.0500  176.4200  143.7820 C   0  0  0  0  0  2  0  0  0  0  0  0
  189.6260  178.2500  143.4390 C   0  0  1  0  0  3  0  0  0  0  0  0
  190.7560  178.6440  144.4540 C   0  0  0  0  0  2  0  0  0  0  0  0
  190.0930  177.0110  142.6090 C   0  0  1  0  0  3  0  0  0  0  0  0
  191.8960  176.4450  145.6550 O   0  0  0  0  0  0  0  0  0  0  0  0
  191.6180  176.7040  144.3500 C   0  0  1  0  0  3  0  0  0  0  0  0
  190.6270  175.8560  143.5150 C   0  0  1  0  0  3  0  0  0  0  0  0
  188.4470  177.9210  145.6940 C   0  0  2  0  0  3  0  0  0  0  0  0
  188.3170  177.8590  144.1620 C   0  0  2  0  0  3  0  0  0  0  0  0
  190.9290  177.4890  145.4610 C   0  0  2  0  0  0  0  0  0  0  0  0
  189.6100  177.0020  146.0940 C   0  0  0  0  0  2  0  0  0  0  0  0
  189.1940  175.8920  142.9330 C   0  0  1  0  0  3  0  0  0  0  0  0
  185.2450  178.3060  139.1080 N   0  0  0  0  0  2  0  0  0  0  0  0
  185.3700  178.7180  137.7740 N   0  0  0  0  0  2  0  0  0  0  0  0
  185.8880  177.5710  137.0520 C   0  0  0  0  0  2  0  0  0  0  0  0
  186.8780  178.0120  135.9860 C   0  0  0  0  0  2  0  0  0  0  0  0
  187.7350  176.8240  135.6020 C   0  0  0  0  0  2  0  0  0  0  0  0
  189.0730  177.2170  135.6820 O   0  0  0  0  0  0  0  0  0  0  0  0
  189.5950  176.5070  136.7710 C   0  0  1  0  0  3  0  0  0  0  0  0
  191.2360  173.1470  135.8170 C   0  0  0  0  0  3  0  0  0  0  0  0
  190.6740  175.5240  136.3120 C   0  0  2  0  0  3  0  0  0  0  0  0
  193.7980  174.3210  138.0630 O   0  0  0  0  0  1  0  0  0  0  0  0
  192.9210  174.5210  136.9930 C   0  0  1  0  0  0  0  0  0  0  0  0
  190.1690  174.0750  136.3180 C   0  0  0  0  0  2  0  0  0  0  0  0
  192.5200  173.3300  136.1610 C   0  0  0  0  0  0  0  0  0  0  0  0
  191.9340  175.6750  137.1770 C   0  0  1  0  0  3  0  0  0  0  0  0
  193.5600  172.3990  135.6470 C   0  0  0  0  0  1  0  0  0  0  0  0
  193.1490  175.8180  136.2540 C   0  0  0  0  0  2  0  0  0  0  0  0
  190.1730  177.4920  137.7750 C   0  0  0  0  0  2  0  0  0  0  0  0
  189.3820  177.4680  139.0680 C   0  0  0  0  0  2  0  0  0  0  0  0
  187.9720  178.7080  140.3050 O   0  0  0  0  0  1  0  0  0  0  0  0
  189.0130  178.8220  139.4510 N   0  0  0  0  0  2  0  0  0  0  0  0
  1 43  1  1  0  0  0
  1 23  1  0  0  0  0
  2  1  1  6  0  0  0
  3  4  1  0  0  0  0
  3  2  1  0  0  0  0
  4  6  1  6  0  0  0
  4  2  1  0  0  0  0
  5  6  2  0  0  0  0
  8 13  1  0  0  0  0
  9 10  1  0  0  0  0
  9  8  2  0  0  0  0
 10 11  1  0  0  0  0
 11  5  1  1  0  0  0
 11 12  1  0  0  0  0
 12  7  1  0  0  0  0
 13 12  2  0  0  0  0
 14 10  2  0  0  0  0
 15  8  1  0  0  0  0
 16 17  1  0  0  0  0
 16 20  1  0  0  0  0
 17 15  1  1  0  0  0
 17 19  1  0  0  0  0
 19 18  1  0  0  0  0
 20 18  1  0  0  0  0
 22 20  1  0  0  0  0
 22 21  1  0  0  0  0
 23 24  1  0  0  0  0
 24 26  1  0  0  0  0
 25 27  1  0  0  0  0
 26 25  2  0  0  0  0
 27 28  1  0  0  0  0
 28 30  1  0  0  0  0
 28 29  2  0  0  0  0
 31 39  1  0  0  0  0
 32 39  1  0  0  0  0
 32 33  1  1  0  0  0
 33 40  1  0  0  0  0
 34 42  1  0  0  0  0
 34 32  1  0  0  0  0
 34 37  1  0  0  0  0
 36 40  1  0  0  0  0
 36 35  1  0  0  0  0
 37 36  1  0  0  0  0
 38 41  1  0  0  0  0
 38 30  1  0  0  0  0
 39 38  1  0  0  0  0
 40 35  1  0  0  0  0
 40 41  1  0  0  0  0
 42 37  1  0  0  0  0
 42 31  1  0  0  0  0
 44 43  1  0  0  0  0
 45 44  1  0  0  0  0
 46 45  1  0  0  0  0
 47 48  1  0  0  0  0
 47 46  1  0  0  0  0
 48 49  1  0  0  0  0
 49 59  1  0  0  0  0
 50 55  2  0  0  0  0
 50 54  1  0  0  0  0
 51 54  1  0  0  0  0
 51 49  1  0  0  0  0
 51 56  1  0  0  0  0
 53 56  1  0  0  0  0
 53 52  1  0  0  0  0
 55 53  1  0  0  0  0
 57 55  1  0  0  0  0
 58 53  1  0  0  0  0
 58 56  1  0  0  0  0
 59 60  1  0  0  0  0
 60 62  1  0  0  0  0
 62 61  1  0  0  0  0
M  END
>  <MODEL>
5

>  <REMARK>
 VINA RESULT:      -6.7      1.920      2.916
  Name = 
  24 active torsions:
  status: ('A' for Active; 'I' for Inactive)
    1  A    between atoms: C_3  and  C_46
    2  A    between atoms: S_4  and  C_15
    3  A    between atoms: S_4  and  C_36
    4  A    between atoms: C_5  and  O_37
    5  A    between atoms: C_5  and  C_59
    6  A    between atoms: C_6  and  C_51
    7  A    between atoms: C_9  and  C_48
    8  A    between atoms: N_13  and  N_25
    9  A    between atoms: N_13  and  C_26
   10  A    between atoms: O_16  and  C_32
   11  A    between atoms: O_16  and  C_48
   12  A    between atoms: C_21  and  C_26
   13  A    between atoms: C_21  and  C_32
   14  A    between atoms: N_24  and  C_29
   15  A    between atoms: N_25  and  C_46
   16  A    between atoms: N_27  and  C_34
   17  A    between atoms: N_27  and  C_46
   18  A    between atoms: C_28  and  O_37
   19  A    between atoms: C_29  and  C_50
   20  A    between atoms: C_34  and  C_62
   21  A    between atoms: C_38  and  N_47
   22  A    between atoms: C_48  and  C_50
   23  A    between atoms: C_49  and  C_59
   24  A    between atoms: C_52  and  N_58
                            x       y       z     vdW  Elec       q    Type
                         _______ _______ _______ _____ _____    ______ ____

>  <TORSDO>
F 24

$$$$
=
 OpenBabel10232407453D

 62 71  0  0  1  0  0  0  0  0999 V2000
  189.8760  177.5220  142.7860 C   0  0  1  0  0  3  0  0  0  0  0  0
  189.9330  178.2650  144.1240 C   0  0  2  0  0  3  0  0  0  0  0  0
  190.2480  177.3460  145.1440 O   0  0  0  0  0  0  0  0  0  0  0  0
  188.9320  177.8390  145.1590 C   0  0  2  0  0  3  0  0  0  0  0  0
  186.7040  177.0930  144.3110 C   0  0  0  0  0  3  0  0  0  0  0  0
  187.9340  176.8890  144.6650 N   0  0  0  0  0  0  0  0  0  0  0  0
  185.1740  178.0920  146.7070 O   0  0  0  0  0  1  0  0  0  0  0  0
  183.2410  179.0250  143.6930 C   0  0  0  0  0  0  0  0  0  0  0  0
  184.1290  179.0980  142.7470 N   0  0  0  0  0  0  0  0  0  0  0  0
  185.5120  178.8110  142.9820 C   0  0  0  0  0  0  0  0  0  0  0  0
  185.9970  178.4170  144.3590 C   0  0  1  0  0  3  0  0  0  0  0  0
  184.8830  178.3790  145.3780 C   0  0  0  0  0  0  0  0  0  0  0  0
  183.6250  178.6640  145.0580 C   0  0  0  0  0  3  0  0  0  0  0  0
  186.3370  178.9330  142.0370 O   0  0  0  0  0  0  0  0  0  0  0  0
  181.5090  179.3400  143.3510 S   0  0  0  0  0  0  0  0  0  0  0  0
  182.2030  178.8110  140.8140 N   0  0  0  0  0  2  0  0  0  0  0  0
  181.3770  178.2550  141.8780 C   0  0  2  0  0  3  0  0  0  0  0  0
  180.0300  179.3770  140.3200 C   0  0  0  0  0  2  0  0  0  0  0  0
  179.9820  178.2660  141.3260 C   0  0  0  0  0  2  0  0  0  0  0  0
  181.4250  179.7860  140.1530 N   0  0  0  0  0  0  0  0  0  0  0  0
  181.5990  181.0460  138.0520 C   0  0  0  0  0  1  0  0  0  0  0  0
  181.7530  179.6960  138.7360 C   0  0  0  0  0  2  0  0  0  0  0  0
  189.4090  178.4090  141.7150 N   0  0  0  0  0  2  0  0  0  0  0  0
  188.9290  177.5640  140.6220 C   0  0  0  0  0  2  0  0  0  0  0  0
  187.5680  178.0060  138.7140 C   0  0  0  0  0  3  0  0  0  0  0  0
  188.6180  178.3860  139.4220 C   0  0  0  0  0  3  0  0  0  0  0  0
  187.1860  178.6710  137.5470 O   0  0  0  0  0  0  0  0  0  0  0  0
  187.5910  178.1750  136.3010 C   0  0  0  0  0  0  0  0  0  0  0  0
  188.8170  177.9500  136.0900 O   0  0  0  0  0  0  0  0  0  0  0  0
  186.5770  177.8890  135.2290 C   0  0  0  0  0  2  0  0  0  0  0  0
  184.3010  176.5680  136.5760 C   0  0  0  0  0  2  0  0  0  0  0  0
  184.2970  174.7150  134.9890 C   0  0  1  0  0  3  0  0  0  0  0  0
  185.5350  173.7940  134.7040 C   0  0  0  0  0  2  0  0  0  0  0  0
  183.6110  174.2540  136.3150 C   0  0  1  0  0  3  0  0  0  0  0  0
  186.9920  173.2670  136.9800 O   0  0  0  0  0  0  0  0  0  0  0  0
  185.6550  173.2110  136.7450 C   0  0  1  0  0  3  0  0  0  0  0  0
  184.6300  174.1010  137.4900 C   0  0  1  0  0  3  0  0  0  0  0  0
  186.2330  176.3990  135.0560 C   0  0  2  0  0  3  0  0  0  0  0  0
  184.7120  176.1930  135.1700 C   0  0  2  0  0  3  0  0  0  0  0  0
  186.5710  174.0120  135.8260 C   0  0  2  0  0  0  0  0  0  0  0  0
  186.8970  175.4930  136.1030 C   0  0  0  0  0  2  0  0  0  0  0  0
  183.7400  175.3500  137.2890 C   0  0  1  0  0  3  0  0  0  0  0  0
  191.1420  176.8670  142.4220 N   0  0  0  0  0  2  0  0  0  0  0  0
  191.9630  177.7620  141.7230 N   0  0  0  0  0  2  0  0  0  0  0  0
  192.7250  176.9540  140.7890 C   0  0  0  0  0  2  0  0  0  0  0  0
  192.4030  177.3460  139.3560 C   0  0  0  0  0  2  0  0  0  0  0  0
  192.5250  176.1170  138.4800 C   0  0  0  0  0  2  0  0  0  0  0  0
  193.0630  176.5150  137.2550 O   0  0  0  0  0  0  0  0  0  0  0  0
  193.4610  175.3260  136.6300 C   0  0  1  0  0  3  0  0  0  0  0  0
  197.2100  174.8010  135.8790 C   0  0  0  0  0  3  0  0  0  0  0  0
  194.9440  175.0470  136.8860 C   0  0  2  0  0  3  0  0  0  0  0  0
  196.6990  171.8560  137.8910 O   0  0  0  0  0  1  0  0  0  0  0  0
  196.5560  173.2280  137.6700 C   0  0  1  0  0  0  0  0  0  0  0  0
  195.7560  175.0280  135.5840 C   0  0  0  0  0  2  0  0  0  0  0  0
  197.5890  173.9320  136.8270 C   0  0  0  0  0  0  0  0  0  0  0  0
  195.1110  173.7320  137.6620 C   0  0  1  0  0  3  0  0  0  0  0  0
  199.0370  173.7280  137.1040 C   0  0  0  0  0  1  0  0  0  0  0  0
  196.0270  173.9850  138.8650 C   0  0  0  0  0  2  0  0  0  0  0  0
  192.6110  174.1800  137.1570 C   0  0  0  0  0  2  0  0  0  0  0  0
  192.1300  173.3010  136.0190 C   0  0  0  0  0  2  0  0  0  0  0  0
  190.3080  173.4800  137.3240 O   0  0  0  0  0  1  0  0  0  0  0  0
  190.6810  173.1860  136.0580 N   0  0  0  0  0  2  0  0  0  0  0  0
  1 23  1  6  0  0  0
  2  1  1  6  0  0  0
  2  3  1  0  0  0  0
  2  4  1  0  0  0  0
  3  4  1  0  0  0  0
  4  6  1  6  0  0  0
  5  6  2  0  0  0  0
  8 13  1  0  0  0  0
  9 10  1  0  0  0  0
  9  8  2  0  0  0  0
 10 11  1  0  0  0  0
 11  5  1  6  0  0  0
 11 12  1  0  0  0  0
 12  7  1  0  0  0  0
 13 12  2  0  0  0  0
 14 10  2  0  0  0  0
 15  8  1  0  0  0  0
 16 17  1  0  0  0  0
 17 15  1  1  0  0  0
 18 19  1  0  0  0  0
 19 17  1  0  0  0  0
 20 18  1  0  0  0  0
 20 16  1  0  0  0  0
 21 22  1  0  0  0  0
 22 20  1  0  0  0  0
 24 23  1  0  0  0  0
 25 26  2  0  0  0  0
 26 24  1  0  0  0  0
 27 25  1  0  0  0  0
 28 27  1  0  0  0  0
 29 28  2  0  0  0  0
 30 28  1  0  0  0  0
 31 42  1  0  0  0  0
 32 33  1  1  0  0  0
 32 39  1  0  0  0  0
 32 34  1  0  0  0  0
 33 40  1  0  0  0  0
 34 42  1  0  0  0  0
 34 37  1  0  0  0  0
 36 35  1  0  0  0  0
 36 37  1  0  0  0  0
 38 39  1  0  0  0  0
 38 30  1  0  0  0  0
 38 41  1  0  0  0  0
 39 31  1  0  0  0  0
 40 41  1  0  0  0  0
 40 36  1  0  0  0  0
 40 35  1  0  0  0  0
 42 37  1  0  0  0  0
 43  1  1  0  0  0  0
 44 43  1  0  0  0  0
 45 44  1  0  0  0  0
 46 45  1  0  0  0  0
 47 46  1  0  0  0  0
 48 47  1  0  0  0  0
 49 51  1  0  0  0  0
 49 59  1  0  0  0  0
 49 48  1  0  0  0  0
 50 55  2  0  0  0  0
 51 56  1  0  0  0  0
 53 52  1  0  0  0  0
 53 58  1  0  0  0  0
 54 50  1  0  0  0  0
 54 51  1  0  0  0  0
 55 57  1  0  0  0  0
 55 53  1  0  0  0  0
 56 53  1  0  0  0  0
 56 58  1  0  0  0  0
 60 62  1  0  0  0  0
 60 59  1  0  0  0  0
 62 61  1  0  0  0  0
M  END
>  <MODEL>
6

>  <REMARK>
 VINA RESULT:      -6.6      2.866      7.642
  Name = 
  24 active torsions:
  status: ('A' for Active; 'I' for Inactive)
    1  A    between atoms: C_3  and  C_46
    2  A    between atoms: S_4  and  C_15
    3  A    between atoms: S_4  and  C_36
    4  A    between atoms: C_5  and  O_37
    5  A    between atoms: C_5  and  C_59
    6  A    between atoms: C_6  and  C_51
    7  A    between atoms: C_9  and  C_48
    8  A    between atoms: N_13  and  N_25
    9  A    between atoms: N_13  and  C_26
   10  A    between atoms: O_16  and  C_32
   11  A    between atoms: O_16  and  C_48
   12  A    between atoms: C_21  and  C_26
   13  A    between atoms: C_21  and  C_32
   14  A    between atoms: N_24  and  C_29
   15  A    between atoms: N_25  and  C_46
   16  A    between atoms: N_27  and  C_34
   17  A    between atoms: N_27  and  C_46
   18  A    between atoms: C_28  and  O_37
   19  A    between atoms: C_29  and  C_50
   20  A    between atoms: C_34  and  C_62
   21  A    between atoms: C_38  and  N_47
   22  A    between atoms: C_48  and  C_50
   23  A    between atoms: C_49  and  C_59
   24  A    between atoms: C_52  and  N_58
                            x       y       z     vdW  Elec       q    Type
                         _______ _______ _______ _____ _____    ______ ____

>  <TORSDO>
F 24

$$$$
=
 OpenBabel10232407453D

 62 71  0  0  1  0  0  0  0  0999 V2000
  191.1260  175.4300  137.8540 C   0  0  1  0  0  3  0  0  0  0  0  0
  190.7690  176.0170  136.4860 C   0  0  2  0  0  3  0  0  0  0  0  0
  189.9920  177.1760  136.6740 O   0  0  0  0  0  0  0  0  0  0  0  0
  189.3070  176.0660  136.1490 C   0  0  2  0  0  3  0  0  0  0  0  0
  187.1940  175.5610  137.3810 C   0  0  0  0  0  3  0  0  0  0  0  0
  188.4510  175.3810  137.1190 N   0  0  0  0  0  0  0  0  0  0  0  0
  187.0620  178.4520  138.2190 O   0  0  0  0  0  1  0  0  0  0  0  0
  183.6110  177.3680  137.4380 C   0  0  0  0  0  0  0  0  0  0  0  0
  183.7600  176.3900  136.5950 N   0  0  0  0  0  0  0  0  0  0  0  0
  185.0540  175.9320  136.1880 C   0  0  0  0  0  0  0  0  0  0  0  0
  186.3090  176.5810  136.7250 C   0  0  1  0  0  3  0  0  0  0  0  0
  186.0140  177.7110  137.6830 C   0  0  0  0  0  0  0  0  0  0  0  0
  184.7720  178.0620  137.9970 C   0  0  0  0  0  3  0  0  0  0  0  0
  185.1410  175.0040  135.3390 O   0  0  0  0  0  0  0  0  0  0  0  0
  181.9760  177.8820  137.9660 S   0  0  0  0  0  0  0  0  0  0  0  0
  182.9530  178.8780  140.2580 N   0  0  0  0  0  2  0  0  0  0  0  0
  182.5120  179.3370  138.9480 C   0  0  2  0  0  3  0  0  0  0  0  0
  180.8410  179.7400  140.5430 C   0  0  0  0  0  2  0  0  0  0  0  0
  181.3550  180.2490  139.2300 C   0  0  0  0  0  2  0  0  0  0  0  0
  181.8020  178.7690  141.0680 N   0  0  0  0  0  0  0  0  0  0  0  0
  181.5600  178.3030  143.4670 C   0  0  0  0  0  1  0  0  0  0  0  0
  182.1870  179.1970  142.4060 C   0  0  0  0  0  2  0  0  0  0  0  0
  192.4010  174.7070  137.7970 N   0  0  0  0  0  2  0  0  0  0  0  0
  193.0620  175.0770  136.5460 C   0  0  0  0  0  2  0  0  0  0  0  0
  193.3270  172.7130  136.3810 C   0  0  0  0  0  3  0  0  0  0  0  0
  193.7140  173.8930  135.9280 C   0  0  0  0  0  3  0  0  0  0  0  0
  193.8830  171.5220  135.9100 O   0  0  0  0  0  0  0  0  0  0  0  0
  194.7620  170.7960  136.7230 C   0  0  0  0  0  0  0  0  0  0  0  0
  194.2970  170.0640  137.6420 O   0  0  0  0  0  0  0  0  0  0  0  0
  196.2460  170.8650  136.4930 C   0  0  0  0  0  2  0  0  0  0  0  0
  199.1240  171.5030  136.7150 C   0  0  0  0  0  2  0  0  0  0  0  0
  198.8390  173.6660  135.6230 C   0  0  1  0  0  3  0  0  0  0  0  0
  197.8610  174.7860  136.1230 C   0  0  0  0  0  2  0  0  0  0  0  0
  200.1400  173.6980  136.4870 C   0  0  1  0  0  3  0  0  0  0  0  0
  197.7690  174.9420  138.8700 O   0  0  0  0  0  0  0  0  0  0  0  0
  198.8240  174.8730  138.0160 C   0  0  1  0  0  3  0  0  0  0  0  0
  199.8350  173.7000  138.0190 C   0  0  1  0  0  3  0  0  0  0  0  0
  196.8120  172.2920  136.3920 C   0  0  2  0  0  3  0  0  0  0  0  0
  198.2190  172.2580  135.7670 C   0  0  2  0  0  3  0  0  0  0  0  0
  197.4310  174.4470  137.5650 C   0  0  2  0  0  0  0  0  0  0  0  0
  196.9300  173.0010  137.7490 C   0  0  0  0  0  2  0  0  0  0  0  0
  200.2160  172.4280  137.2260 C   0  0  1  0  0  3  0  0  0  0  0  0
  191.1250  176.4230  138.9400 N   0  0  0  0  0  2  0  0  0  0  0  0
  192.4220  176.9130  139.1460 N   0  0  0  0  0  2  0  0  0  0  0  0
  192.4980  177.2530  140.5550 C   0  0  0  0  0  2  0  0  0  0  0  0
  191.1110  177.5250  141.1150 C   0  0  0  0  0  2  0  0  0  0  0  0
  191.0300  176.9400  142.5090 C   0  0  0  0  0  2  0  0  0  0  0  0
  189.7660  177.2350  143.0250 O   0  0  0  0  0  0  0  0  0  0  0  0
  189.9520  177.3230  144.4110 C   0  0  1  0  0  3  0  0  0  0  0  0
  186.2050  177.9630  145.0790 C   0  0  0  0  0  3  0  0  0  0  0  0
  188.6070  177.3040  145.1410 C   0  0  2  0  0  3  0  0  0  0  0  0
  187.4730  179.1520  148.2350 O   0  0  0  0  0  1  0  0  0  0  0  0
  187.4190  178.1940  147.2190 C   0  0  1  0  0  0  0  0  0  0  0  0
  187.5170  178.0450  144.3560 C   0  0  0  0  0  2  0  0  0  0  0  0
  186.1500  178.0700  146.4140 C   0  0  0  0  0  0  0  0  0  0  0  0
  188.7620  177.8830  146.5550 C   0  0  1  0  0  3  0  0  0  0  0  0
  184.8380  177.9800  147.1080 C   0  0  0  0  0  1  0  0  0  0  0  0
  188.1350  176.9080  147.5580 C   0  0  0  0  0  2  0  0  0  0  0  0
  190.8180  176.1610  144.8710 C   0  0  0  0  0  2  0  0  0  0  0  0
  191.9560  176.6520  145.7440 C   0  0  0  0  0  2  0  0  0  0  0  0
  191.2490  175.5530  147.5730 O   0  0  0  0  0  1  0  0  0  0  0  0
  192.3000  175.6390  146.7280 N   0  0  0  0  0  2  0  0  0  0  0  0
  1 23  1  6  0  0  0
  1 43  1  0  0  0  0
  2  3  1  0  0  0  0
  2  1  1  1  0  0  0
  4  2  1  0  0  0  0
  4  3  1  0  0  0  0
  4  6  1  1  0  0  0
  6  5  2  0  0  0  0
  8 15  1  0  0  0  0
  8 13  1  0  0  0  0
  9  8  2  0  0  0  0
 10  9  1  0  0  0  0
 10 11  1  0  0  0  0
 11  5  1  1  0  0  0
 11 12  1  0  0  0  0
 12 13  2  0  0  0  0
 12  7  1  0  0  0  0
 14 10  2  0  0  0  0
 16 20  1  0  0  0  0
 17 15  1  6  0  0  0
 17 19  1  0  0  0  0
 17 16  1  0  0  0  0
 18 20  1  0  0  0  0
 19 18  1  0  0  0  0
 20 22  1  0  0  0  0
 22 21  1  0  0  0  0
 24 23  1  0  0  0  0
 26 25  2  0  0  0  0
 26 24  1  0  0  0  0
 27 25  1  0  0  0  0
 27 28  1  0  0  0  0
 28 29  2  0  0  0  0
 30 28  1  0  0  0  0
 31 42  1  0  0  0  0
 32 39  1  0  0  0  0
 32 33  1  1  0  0  0
 32 34  1  0  0  0  0
 33 40  1  0  0  0  0
 34 42  1  0  0  0  0
 34 37  1  0  0  0  0
 36 37  1  0  0  0  0
 36 35  1  0  0  0  0
 38 30  1  0  0  0  0
 38 41  1  0  0  0  0
 39 38  1  0  0  0  0
 39 31  1  0  0  0  0
 40 41  1  0  0  0  0
 40 36  1  0  0  0  0
 40 35  1  0  0  0  0
 42 37  1  0  0  0  0
 43 44  1  0  0  0  0
 44 45  1  0  0  0  0
 45 46  1  0  0  0  0
 46 47  1  0  0  0  0
 47 48  1  0  0  0  0
 48 49  1  0  0  0  0
 49 59  1  0  0  0  0
 49 51  1  0  0  0  0
 50 55  2  0  0  0  0
 51 56  1  0  0  0  0
 53 58  1  0  0  0  0
 53 52  1  0  0  0  0
 54 50  1  0  0  0  0
 54 51  1  0  0  0  0
 55 57  1  0  0  0  0
 55 53  1  0  0  0  0
 56 53  1  0  0  0  0
 56 58  1  0  0  0  0
 59 60  1  0  0  0  0
 60 62  1  0  0  0  0
 62 61  1  0  0  0  0
M  END
>  <MODEL>
7

>  <REMARK>
 VINA RESULT:      -6.5      3.191     10.226
  Name = 
  24 active torsions:
  status: ('A' for Active; 'I' for Inactive)
    1  A    between atoms: C_3  and  C_46
    2  A    between atoms: S_4  and  C_15
    3  A    between atoms: S_4  and  C_36
    4  A    between atoms: C_5  and  O_37
    5  A    between atoms: C_5  and  C_59
    6  A    between atoms: C_6  and  C_51
    7  A    between atoms: C_9  and  C_48
    8  A    between atoms: N_13  and  N_25
    9  A    between atoms: N_13  and  C_26
   10  A    between atoms: O_16  and  C_32
   11  A    between atoms: O_16  and  C_48
   12  A    between atoms: C_21  and  C_26
   13  A    between atoms: C_21  and  C_32
   14  A    between atoms: N_24  and  C_29
   15  A    between atoms: N_25  and  C_46
   16  A    between atoms: N_27  and  C_34
   17  A    between atoms: N_27  and  C_46
   18  A    between atoms: C_28  and  O_37
   19  A    between atoms: C_29  and  C_50
   20  A    between atoms: C_34  and  C_62
   21  A    between atoms: C_38  and  N_47
   22  A    between atoms: C_48  and  C_50
   23  A    between atoms: C_49  and  C_59
   24  A    between atoms: C_52  and  N_58
                            x       y       z     vdW  Elec       q    Type
                         _______ _______ _______ _____ _____    ______ ____

>  <TORSDO>
F 24

$$$$
=
 OpenBabel10232407453D

 62 71  0  0  1  0  0  0  0  0999 V2000
  189.7790  177.5470  138.3330 C   0  0  1  0  0  3  0  0  0  0  0  0
  189.8240  176.2250  137.5630 C   0  0  2  0  0  3  0  0  0  0  0  0
  190.4380  175.2470  138.3690 O   0  0  0  0  0  0  0  0  0  0  0  0
  191.1910  175.6810  137.2640 C   0  0  2  0  0  3  0  0  0  0  0  0
  193.5140  176.5970  137.2040 C   0  0  0  0  0  3  0  0  0  0  0  0
  192.2820  176.5940  137.6080 N   0  0  0  0  0  0  0  0  0  0  0  0
  193.6520  173.6400  137.7610 O   0  0  0  0  0  1  0  0  0  0  0  0
  196.8460  174.6150  136.1690 C   0  0  0  0  0  0  0  0  0  0  0  0
  196.5530  175.6710  135.4700 N   0  0  0  0  0  0  0  0  0  0  0  0
  195.2340  176.2280  135.4580 C   0  0  0  0  0  0  0  0  0  0  0  0
  194.1200  175.5970  136.2620 C   0  0  1  0  0  3  0  0  0  0  0  0
  194.5730  174.3720  137.0210 C   0  0  0  0  0  0  0  0  0  0  0  0
  195.8260  173.9320  136.9650 C   0  0  0  0  0  3  0  0  0  0  0  0
  194.9950  177.2310  134.7340 O   0  0  0  0  0  0  0  0  0  0  0  0
  198.5210  173.9730  136.2010 S   0  0  0  0  0  0  0  0  0  0  0  0
  197.6240  171.4490  136.0390 N   0  0  0  0  0  2  0  0  0  0  0  0
  198.2010  172.4800  135.1840 C   0  0  2  0  0  3  0  0  0  0  0  0
  199.8390  170.9010  135.7550 C   0  0  0  0  0  2  0  0  0  0  0  0
  199.4850  171.8880  134.6830 C   0  0  0  0  0  2  0  0  0  0  0  0
  198.6990  170.7810  136.6650 N   0  0  0  0  0  0  0  0  0  0  0  0
  196.9060  169.1550  136.2530 C   0  0  0  0  0  1  0  0  0  0  0  0
  198.3310  169.3740  136.7410 C   0  0  0  0  0  2  0  0  0  0  0  0
  189.3220  178.6410  137.4700 N   0  0  0  0  0  2  0  0  0  0  0  0
  188.2000  178.1370  136.6770 C   0  0  0  0  0  2  0  0  0  0  0  0
  185.9250  177.5850  137.1330 C   0  0  0  0  0  3  0  0  0  0  0  0
  186.9080  178.4440  137.3450 C   0  0  0  0  0  3  0  0  0  0  0  0
  184.6510  177.7720  137.6730 O   0  0  0  0  0  0  0  0  0  0  0  0
  183.5430  177.1690  137.0660 C   0  0  0  0  0  0  0  0  0  0  0  0
  182.3800  177.4470  137.4780 O   0  0  0  0  0  0  0  0  0  0  0  0
  183.7270  176.2160  135.9190 C   0  0  0  0  0  2  0  0  0  0  0  0
  185.7840  174.1330  135.5100 C   0  0  0  0  0  2  0  0  0  0  0  0
  184.7210  172.6180  137.0980 C   0  0  1  0  0  3  0  0  0  0  0  0
  183.2350  172.1250  136.9900 C   0  0  0  0  0  2  0  0  0  0  0  0
  185.6080  171.7880  136.1160 C   0  0  1  0  0  3  0  0  0  0  0  0
  182.4720  171.6690  134.3840 O   0  0  0  0  0  0  0  0  0  0  0  0
  183.5830  171.2880  135.0670 C   0  0  1  0  0  3  0  0  0  0  0  0
  185.0110  171.7380  134.6730 C   0  0  1  0  0  3  0  0  0  0  0  0
  183.5220  174.7330  136.2790 C   0  0  2  0  0  3  0  0  0  0  0  0
  184.8610  174.1060  136.7070 C   0  0  2  0  0  3  0  0  0  0  0  0
  182.7210  172.4400  135.5700 C   0  0  2  0  0  0  0  0  0  0  0  0
  182.9710  173.8930  135.1180 C   0  0  0  0  0  2  0  0  0  0  0  0
  186.1340  172.7130  135.1000 C   0  0  1  0  0  3  0  0  0  0  0  0
  188.9890  177.4810  139.5730 N   0  0  0  0  0  2  0  0  0  0  0  0
  189.4460  176.4290  140.3800 N   0  0  0  0  0  2  0  0  0  0  0  0
  189.4160  176.9320  141.7400 C   0  0  0  0  0  2  0  0  0  0  0  0
  190.7720  177.4970  142.1320 C   0  0  0  0  0  2  0  0  0  0  0  0
  191.1680  176.9150  143.4730 C   0  0  0  0  0  2  0  0  0  0  0  0
  191.2500  177.9670  144.3880 O   0  0  0  0  0  0  0  0  0  0  0  0
  190.9800  177.3840  145.6340 C   0  0  1  0  0  3  0  0  0  0  0  0
  187.1990  177.8540  145.0210 C   0  0  0  0  0  3  0  0  0  0  0  0
  189.4720  177.3020  145.8800 C   0  0  2  0  0  3  0  0  0  0  0  0
  187.3000  179.0800  148.4080 O   0  0  0  0  0  1  0  0  0  0  0  0
  187.6270  178.1270  147.4400 C   0  0  1  0  0  0  0  0  0  0  0  0
  188.6710  177.9980  144.7710 C   0  0  0  0  0  2  0  0  0  0  0  0
  186.7020  177.9510  146.2630 C   0  0  0  0  0  0  0  0  0  0  0  0
  189.1260  177.8790  147.2600 C   0  0  1  0  0  3  0  0  0  0  0  0
  185.2390  177.8000  146.4850 C   0  0  0  0  0  1  0  0  0  0  0  0
  188.2460  176.8720  148.0080 C   0  0  0  0  0  2  0  0  0  0  0  0
  191.5970  175.9950  145.6770 C   0  0  0  0  0  2  0  0  0  0  0  0
  191.8810  175.5780  147.1060 C   0  0  0  0  0  2  0  0  0  0  0  0
  193.4190  176.0780  148.6680 O   0  0  0  0  0  1  0  0  0  0  0  0
  192.5450  176.6600  147.8180 N   0  0  0  0  0  2  0  0  0  0  0  0
  1 23  1  6  0  0  0
  1 43  1  0  0  0  0
  2  1  1  1  0  0  0
  2  3  1  0  0  0  0
  4  2  1  0  0  0  0
  4  6  1  1  0  0  0
  4  3  1  0  0  0  0
  5  6  2  0  0  0  0
  8 15  1  0  0  0  0
  8 13  1  0  0  0  0
  9  8  2  0  0  0  0
 10  9  1  0  0  0  0
 10 11  1  0  0  0  0
 11 12  1  0  0  0  0
 11  5  1  1  0  0  0
 12  7  1  0  0  0  0
 13 12  2  0  0  0  0
 14 10  2  0  0  0  0
 16 20  1  0  0  0  0
 17 16  1  0  0  0  0
 17 15  1  1  0  0  0
 18 20  1  0  0  0  0
 19 17  1  0  0  0  0
 19 18  1  0  0  0  0
 20 22  1  0  0  0  0
 21 22  1  0  0  0  0
 24 26  1  0  0  0  0
 24 23  1  0  0  0  0
 25 26  2  0  0  0  0
 25 27  1  0  0  0  0
 28 29  2  0  0  0  0
 28 27  1  0  0  0  0
 30 38  1  0  0  0  0
 30 28  1  0  0  0  0
 31 39  1  0  0  0  0
 32 33  1  6  0  0  0
 34 32  1  0  0  0  0
 35 36  1  0  0  0  0
 35 40  1  0  0  0  0
 36 40  1  0  0  0  0
 37 36  1  0  0  0  0
 37 42  1  0  0  0  0
 37 34  1  0  0  0  0
 38 39  1  0  0  0  0
 39 32  1  0  0  0  0
 40 33  1  0  0  0  0
 41 40  1  0  0  0  0
 41 38  1  0  0  0  0
 42 31  1  0  0  0  0
 42 34  1  0  0  0  0
 43 44  1  0  0  0  0
 44 45  1  0  0  0  0
 45 46  1  0  0  0  0
 46 47  1  0  0  0  0
 47 48  1  0  0  0  0
 48 49  1  0  0  0  0
 49 59  1  0  0  0  0
 49 51  1  0  0  0  0
 50 55  2  0  0  0  0
 51 56  1  0  0  0  0
 53 58  1  0  0  0  0
 53 52  1  0  0  0  0
 54 50  1  0  0  0  0
 54 51  1  0  0  0  0
 55 57  1  0  0  0  0
 55 53  1  0  0  0  0
 56 53  1  0  0  0  0
 56 58  1  0  0  0  0
 59 60  1  0  0  0  0
 60 62  1  0  0  0  0
 62 61  1  0  0  0  0
M  END
>  <MODEL>
8

>  <REMARK>
 VINA RESULT:      -6.2      4.395     12.092
  Name = 
  24 active torsions:
  status: ('A' for Active; 'I' for Inactive)
    1  A    between atoms: C_3  and  C_46
    2  A    between atoms: S_4  and  C_15
    3  A    between atoms: S_4  and  C_36
    4  A    between atoms: C_5  and  O_37
    5  A    between atoms: C_5  and  C_59
    6  A    between atoms: C_6  and  C_51
    7  A    between atoms: C_9  and  C_48
    8  A    between atoms: N_13  and  N_25
    9  A    between atoms: N_13  and  C_26
   10  A    between atoms: O_16  and  C_32
   11  A    between atoms: O_16  and  C_48
   12  A    between atoms: C_21  and  C_26
   13  A    between atoms: C_21  and  C_32
   14  A    between atoms: N_24  and  C_29
   15  A    between atoms: N_25  and  C_46
   16  A    between atoms: N_27  and  C_34
   17  A    between atoms: N_27  and  C_46
   18  A    between atoms: C_28  and  O_37
   19  A    between atoms: C_29  and  C_50
   20  A    between atoms: C_34  and  C_62
   21  A    between atoms: C_38  and  N_47
   22  A    between atoms: C_48  and  C_50
   23  A    between atoms: C_49  and  C_59
   24  A    between atoms: C_52  and  N_58
                            x       y       z     vdW  Elec       q    Type
                         _______ _______ _______ _____ _____    ______ ____

>  <TORSDO>
F 24

$$$$
=
 OpenBabel10232407453D

 62 71  0  0  1  0  0  0  0  0999 V2000
  190.5170  174.3400  136.5510 C   0  0  1  0  0  3  0  0  0  0  0  0
  189.7220  173.8290  135.3470 C   0  0  2  0  0  3  0  0  0  0  0  0
  188.8460  174.8430  134.9140 O   0  0  0  0  0  0  0  0  0  0  0  0
  188.2350  173.7350  135.5280 C   0  0  2  0  0  3  0  0  0  0  0  0
  186.5970  174.2470  137.3430 C   0  0  0  0  0  3  0  0  0  0  0  0
  187.7860  173.9870  136.8990 N   0  0  0  0  0  0  0  0  0  0  0  0
  185.9790  176.6490  135.6320 O   0  0  0  0  0  1  0  0  0  0  0  0
  182.8040  175.5500  137.1830 C   0  0  0  0  0  0  0  0  0  0  0  0
  182.9790  174.2840  137.4200 N   0  0  0  0  0  0  0  0  0  0  0  0
  184.2100  173.6200  137.1160 C   0  0  0  0  0  0  0  0  0  0  0  0
  185.3640  174.3740  136.4950 C   0  0  1  0  0  3  0  0  0  0  0  0
  185.0430  175.8300  136.2540 C   0  0  0  0  0  0  0  0  0  0  0  0
  183.8630  176.3530  136.5710 C   0  0  0  0  0  3  0  0  0  0  0  0
  184.3120  172.3820  137.3320 O   0  0  0  0  0  0  0  0  0  0  0  0
  181.2660  176.3620  137.6230 S   0  0  0  0  0  0  0  0  0  0  0  0
  181.3910  177.0670  140.2090 N   0  0  0  0  0  2  0  0  0  0  0  0
  181.9620  177.4530  138.9250 C   0  0  2  0  0  3  0  0  0  0  0  0
  180.2680  178.9560  139.5340 C   0  0  0  0  0  2  0  0  0  0  0  0
  181.5260  178.8740  138.7230 C   0  0  0  0  0  2  0  0  0  0  0  0
  180.1510  177.7320  140.3280 N   0  0  0  0  0  0  0  0  0  0  0  0
  180.4490  179.5580  141.9430 C   0  0  0  0  0  1  0  0  0  0  0  0
  180.0120  178.1160  141.7270 C   0  0  0  0  0  2  0  0  0  0  0  0
  191.8660  173.7650  136.5700 N   0  0  0  0  0  2  0  0  0  0  0  0
  192.3480  173.7260  135.1890 C   0  0  0  0  0  2  0  0  0  0  0  0
  193.1160  171.5810  135.8920 C   0  0  0  0  0  3  0  0  0  0  0  0
  193.1780  172.5150  134.9580 C   0  0  0  0  0  3  0  0  0  0  0  0
  193.8720  170.4090  135.8140 O   0  0  0  0  0  0  0  0  0  0  0  0
  195.0550  170.2940  136.5550 C   0  0  0  0  0  0  0  0  0  0  0  0
  194.9990  169.9220  137.7620 O   0  0  0  0  0  0  0  0  0  0  0  0
  196.3840  170.5860  135.9180 C   0  0  0  0  0  2  0  0  0  0  0  0
  199.0180  171.6350  136.7550 C   0  0  0  0  0  2  0  0  0  0  0  0
  198.7040  173.7140  135.5180 C   0  0  1  0  0  3  0  0  0  0  0  0
  197.4940  174.6910  135.7270 C   0  0  0  0  0  2  0  0  0  0  0  0
  199.7520  173.9480  136.6530 C   0  0  1  0  0  3  0  0  0  0  0  0
  196.7470  174.8820  138.3700 O   0  0  0  0  0  0  0  0  0  0  0  0
  197.9700  174.9490  137.7820 C   0  0  1  0  0  3  0  0  0  0  0  0
  199.1030  173.9340  138.0740 C   0  0  1  0  0  3  0  0  0  0  0  0
  196.7600  172.0780  135.8750 C   0  0  2  0  0  3  0  0  0  0  0  0
  198.2640  172.2340  135.5890 C   0  0  2  0  0  3  0  0  0  0  0  0
  196.7910  174.3200  137.0480 C   0  0  2  0  0  0  0  0  0  0  0  0
  196.4620  172.8200  137.1860 C   0  0  0  0  0  2  0  0  0  0  0  0
  199.8260  172.7150  137.4530 C   0  0  1  0  0  3  0  0  0  0  0  0
  190.5610  175.8080  136.6490 N   0  0  0  0  0  2  0  0  0  0  0  0
  191.5720  176.2000  137.5380 N   0  0  0  0  0  2  0  0  0  0  0  0
  190.9660  176.1880  138.8560 C   0  0  0  0  0  2  0  0  0  0  0  0
  189.5730  176.7940  138.8100 C   0  0  0  0  0  2  0  0  0  0  0  0
  189.0030  176.8020  140.2130 C   0  0  0  0  0  2  0  0  0  0  0  0
  188.7230  178.1270  140.5540 O   0  0  0  0  0  0  0  0  0  0  0  0
  188.7040  178.1430  141.9550 C   0  0  1  0  0  3  0  0  0  0  0  0
  184.9700  179.0140  142.3950 C   0  0  0  0  0  3  0  0  0  0  0  0
  187.2680  178.0560  142.4800 C   0  0  2  0  0  3  0  0  0  0  0  0
  185.8510  178.8690  145.8850 O   0  0  0  0  0  1  0  0  0  0  0  0
  185.8660  178.3330  144.5950 C   0  0  1  0  0  0  0  0  0  0  0  0
  186.3770  179.1610  141.8960 C   0  0  0  0  0  2  0  0  0  0  0  0
  184.7250  178.6640  143.6660 C   0  0  0  0  0  0  0  0  0  0  0  0
  187.2600  178.0900  144.0150 C   0  0  1  0  0  3  0  0  0  0  0  0
  183.3210  178.5200  144.1350 C   0  0  0  0  0  1  0  0  0  0  0  0
  186.4070  176.9250  144.5290 C   0  0  0  0  0  2  0  0  0  0  0  0
  189.5260  176.9760  142.4770 C   0  0  0  0  0  2  0  0  0  0  0  0
  190.6280  177.4640  143.3980 C   0  0  0  0  0  2  0  0  0  0  0  0
  191.6500  176.3620  145.0690 O   0  0  0  0  0  1  0  0  0  0  0  0
  191.5260  176.3680  143.7230 N   0  0  0  0  0  2  0  0  0  0  0  0
  1 23  1  6  0  0  0
  1 43  1  0  0  0  0
  2  4  1  0  0  0  0
  2  1  1  1  0  0  0
  3  2  1  0  0  0  0
  3  4  1  0  0  0  0
  4  6  1  1  0  0  0
  6  5  2  0  0  0  0
  7 12  1  0  0  0  0
  8  9  2  0  0  0  0
  8 15  1  0  0  0  0
 10 14  2  0  0  0  0
 10  9  1  0  0  0  0
 11 10  1  0  0  0  0
 11  5  1  1  0  0  0
 12 11  1  0  0  0  0
 12 13  2  0  0  0  0
 13  8  1  0  0  0  0
 16 20  1  0  0  0  0
 17 15  1  6  0  0  0
 17 16  1  0  0  0  0
 18 20  1  0  0  0  0
 19 17  1  0  0  0  0
 19 18  1  0  0  0  0
 20 22  1  0  0  0  0
 22 21  1  0  0  0  0
 24 23  1  0  0  0  0
 26 24  1  0  0  0  0
 26 25  2  0  0  0  0
 27 25  1  0  0  0  0
 27 28  1  0  0  0  0
 28 29  2  0  0  0  0
 30 28  1  0  0  0  0
 31 42  1  0  0  0  0
 32 39  1  0  0  0  0
 32 33  1  1  0  0  0
 32 34  1  0  0  0  0
 33 40  1  0  0  0  0
 34 42  1  0  0  0  0
 34 37  1  0  0  0  0
 36 37  1  0  0  0  0
 36 35  1  0  0  0  0
 38 30  1  0  0  0  0
 38 41  1  0  0  0  0
 39 38  1  0  0  0  0
 39 31  1  0  0  0  0
 40 41  1  0  0  0  0
 40 36  1  0  0  0  0
 40 35  1  0  0  0  0
 42 37  1  0  0  0  0
 43 44  1  0  0  0  0
 44 45  1  0  0  0  0
 46 45  1  0  0  0  0
 46 47  1  0  0  0  0
 47 48  1  0  0  0  0
 48 49  1  0  0  0  0
 49 59  1  0  0  0  0
 49 51  1  0  0  0  0
 50 55  2  0  0  0  0
 51 56  1  0  0  0  0
 53 52  1  0  0  0  0
 54 50  1  0  0  0  0
 54 51  1  0  0  0  0
 55 57  1  0  0  0  0
 55 53  1  0  0  0  0
 56 58  1  0  0  0  0
 56 53  1  0  0  0  0
 58 53  1  0  0  0  0
 59 60  1  0  0  0  0
 60 62  1  0  0  0  0
 62 61  1  0  0  0  0
M  END
>  <MODEL>
9

>  <REMARK>
 VINA RESULT:      -6.1      3.104      9.924
  Name = 
  24 active torsions:
  status: ('A' for Active; 'I' for Inactive)
    1  A    between atoms: C_3  and  C_46
    2  A    between atoms: S_4  and  C_15
    3  A    between atoms: S_4  and  C_36
    4  A    between atoms: C_5  and  O_37
    5  A    between atoms: C_5  and  C_59
    6  A    between atoms: C_6  and  C_51
    7  A    between atoms: C_9  and  C_48
    8  A    between atoms: N_13  and  N_25
    9  A    between atoms: N_13  and  C_26
   10  A    between atoms: O_16  and  C_32
   11  A    between atoms: O_16  and  C_48
   12  A    between atoms: C_21  and  C_26
   13  A    between atoms: C_21  and  C_32
   14  A    between atoms: N_24  and  C_29
   15  A    between atoms: N_25  and  C_46
   16  A    between atoms: N_27  and  C_34
   17  A    between atoms: N_27  and  C_46
   18  A    between atoms: C_28  and  O_37
   19  A    between atoms: C_29  and  C_50
   20  A    between atoms: C_34  and  C_62
   21  A    between atoms: C_38  and  N_47
   22  A    between atoms: C_48  and  C_50
   23  A    between atoms: C_49  and  C_59
   24  A    between atoms: C_52  and  N_58
                            x       y       z     vdW  Elec       q    Type
                         _______ _______ _______ _____ _____    ______ ____

>  <TORSDO>
F 24

$$$$
