=
 OpenBabel10232411013D

 42 45  0  0  1  0  0  0  0  0999 V2000
  182.7430  178.2180  140.4950 C   0  0  0  0  0  0  0  0  0  0  0  0
  181.9940  178.6350  141.6320 N   0  0  0  0  0  1  0  0  0  0  0  0
  182.8420  176.9420  138.4880 C   0  0  0  0  0  0  0  0  0  0  0  0
  184.0600  178.6650  140.3110 C   0  0  0  0  0  0  0  0  0  0  0  0
  182.1760  177.3720  139.5930 N   0  0  0  0  0  0  0  0  0  0  0  0
  184.1450  177.3910  138.2510 C   0  0  0  0  0  3  0  0  0  0  0  0
  184.7600  178.2650  139.1570 C   0  0  0  0  0  0  0  0  0  0  0  0
  182.1850  176.0230  137.5470 C   0  0  0  0  0  0  0  0  0  0  0  0
  182.7460  175.7220  136.4570 O   0  0  0  0  0  0  0  0  0  0  0  0
  180.9060  175.4720  137.8700 N   0  0  0  0  0  2  0  0  0  0  0  0
  180.3080  172.8810  137.6320 S   0  0  0  0  0  1  0  0  0  0  0  0
  180.2040  174.5660  136.9770 C   0  0  0  0  0  2  0  0  0  0  0  0
  186.0420  178.7690  138.9100 O   0  0  0  0  0  0  0  0  0  0  0  0
  187.1500  177.9570  138.5420 C   0  0  1  0  0  3  0  0  0  0  0  0
  187.5410  178.2740  137.0910 C   0  0  0  0  0  2  0  0  0  0  0  0
  189.4890  177.2730  139.1730 C   0  0  0  0  0  2  0  0  0  0  0  0
  189.0490  178.2320  136.8240 C   0  0  0  0  0  2  0  0  0  0  0  0
  189.7340  177.1430  137.6570 C   0  0  1  0  0  3  0  0  0  0  0  0
  188.3140  178.1940  139.5070 C   0  0  0  0  0  2  0  0  0  0  0  0
  191.1010  177.0060  137.3400 O   0  0  0  0  0  0  0  0  0  0  0  0
  191.7270  176.5620  138.4640 N   0  0  0  0  0  2  0  0  0  0  0  0
  193.0760  176.1810  138.0760 C   0  0  0  0  0  2  0  0  0  0  0  0
  194.0620  174.3300  136.7100 C   0  0  0  0  0  3  0  0  0  0  0  0
  193.0230  175.1160  137.0240 C   0  0  0  0  0  3  0  0  0  0  0  0
  196.3830  173.6530  136.6120 N   0  0  0  0  0  2  0  0  0  0  0  0
  196.4890  172.7260  137.7330 C   0  0  0  0  0  2  0  0  0  0  0  0
  196.1380  174.1250  139.6140 O   0  0  0  0  0  1  0  0  0  0  0  0
  195.4060  174.4200  137.3750 C   0  0  2  0  0  3  0  0  0  0  0  0
  195.4810  173.4850  138.5620 C   0  0  1  0  0  3  0  0  0  0  0  0
  184.6320  179.5240  141.2640 O   0  0  0  0  0  0  0  0  0  0  0  0
  185.1790  179.1070  142.4850 C   0  0  0  0  0  0  0  0  0  0  0  0
  186.1930  178.1360  142.5470 C   0  0  0  0  0  3  0  0  0  0  0  0
  186.7200  177.7420  143.7790 C   0  0  0  0  0  3  0  0  0  0  0  0
  184.6840  179.6540  143.6720 C   0  0  0  0  0  3  0  0  0  0  0  0
  185.2120  179.2600  144.9050 C   0  0  0  0  0  3  0  0  0  0  0  0
  186.2370  178.3040  144.9690 C   0  0  0  0  0  0  0  0  0  0  0  0
  186.8010  177.8890  146.2690 C   0  0  0  0  0  0  0  0  0  0  0  0
  186.3410  178.3650  147.3410 O   0  0  0  0  0  0  0  0  0  0  0  0
  187.9440  176.9270  146.3370 C   0  0  0  0  0  2  0  0  0  0  0  0
  189.2290  177.6770  146.6270 C   0  0  0  0  0  2  0  0  0  0  0  0
  190.2260  177.4230  145.5160 C   0  0  0  0  0  2  0  0  0  0  0  0
  190.2060  178.5880  144.5510 C   0  0  0  0  0  1  0  0  0  0  0  0
  1  2  1  0  0  0  0
  3  5  1  0  0  0  0
  4  1  1  0  0  0  0
  4 30  1  0  0  0  0
  5  1  2  0  0  0  0
  6  3  2  0  0  0  0
  6  7  1  0  0  0  0
  7  4  2  0  0  0  0
  8 10  1  0  0  0  0
  8  3  1  0  0  0  0
  9  8  2  0  0  0  0
 12 11  1  0  0  0  0
 12 10  1  0  0  0  0
 13  7  1  0  0  0  0
 14 13  1  1  0  0  0
 14 19  1  0  0  0  0
 15 14  1  0  0  0  0
 16 19  1  0  0  0  0
 17 15  1  0  0  0  0
 17 18  1  0  0  0  0
 18 20  1  1  0  0  0
 18 16  1  0  0  0  0
 20 21  1  0  0  0  0
 22 21  1  0  0  0  0
 23 24  2  0  0  0  0
 24 22  1  0  0  0  0
 25 28  1  0  0  0  0
 25 26  1  0  0  0  0
 26 29  1  0  0  0  0
 28 23  1  6  0  0  0
 28 29  1  0  0  0  0
 29 27  1  1  0  0  0
 30 31  1  0  0  0  0
 31 32  2  0  0  0  0
 31 34  1  0  0  0  0
 32 33  1  0  0  0  0
 33 36  2  0  0  0  0
 34 35  2  0  0  0  0
 35 36  1  0  0  0  0
 36 37  1  0  0  0  0
 37 39  1  0  0  0  0
 37 38  2  0  0  0  0
 39 40  1  0  0  0  0
 41 40  1  0  0  0  0
 42 41  1  0  0  0  0
M  END
>  <MODEL>
1

>  <REMARK>
 VINA RESULT:      -7.4      0.000      0.000
  Name = 
  15 active torsions:
  status: ('A' for Active; 'I' for Inactive)
    1  A    between atoms: C_1  and  O_14
    2  A    between atoms: C_2  and  O_29
    3  A    between atoms: C_3  and  C_25
    4  A    between atoms: C_4  and  C_40
    5  A    between atoms: C_4  and  C_42
    6  A    between atoms: C_9  and  C_28
    7  A    between atoms: C_11  and  C_12
    8  A    between atoms: C_11  and  C_42
    9  A    between atoms: O_14  and  C_39
   10  A    between atoms: C_17  and  C_34
   11  A    between atoms: C_24  and  O_37
   12  A    between atoms: C_26  and  O_29
   13  A    between atoms: C_31  and  N_41
   14  A    between atoms: C_34  and  N_35
   15  A    between atoms: N_35  and  O_37
                            x       y       z     vdW  Elec       q    Type
                         _______ _______ _______ _____ _____    ______ ____

>  <TORSDO>
F 15

$$$$
=
 OpenBabel10232411013D

 42 45  0  0  1  0  0  0  0  0999 V2000
  182.8250  178.2500  140.4190 C   0  0  0  0  0  0  0  0  0  0  0  0
  182.0570  178.6560  141.5480 N   0  0  0  0  0  1  0  0  0  0  0  0
  182.9550  177.0020  138.3970 C   0  0  0  0  0  0  0  0  0  0  0  0
  184.1470  178.6920  140.2660 C   0  0  0  0  0  0  0  0  0  0  0  0
  182.2710  177.4200  139.4960 N   0  0  0  0  0  0  0  0  0  0  0  0
  184.2640  177.4460  138.1910 C   0  0  0  0  0  3  0  0  0  0  0  0
  184.8670  178.3040  139.1200 C   0  0  0  0  0  0  0  0  0  0  0  0
  182.3110  176.1000  137.4310 C   0  0  0  0  0  0  0  0  0  0  0  0
  181.0630  175.9120  137.4710 O   0  0  0  0  0  0  0  0  0  0  0  0
  183.1040  175.4320  136.4470 N   0  0  0  0  0  2  0  0  0  0  0  0
  182.5740  172.8340  136.1280 S   0  0  0  0  0  1  0  0  0  0  0  0
  182.5270  174.5220  135.4720 C   0  0  0  0  0  2  0  0  0  0  0  0
  186.1560  178.8040  138.9040 O   0  0  0  0  0  0  0  0  0  0  0  0
  187.2890  177.9810  138.6590 C   0  0  1  0  0  3  0  0  0  0  0  0
  187.7830  178.2260  137.2250 C   0  0  0  0  0  2  0  0  0  0  0  0
  189.5780  177.3420  139.4900 C   0  0  0  0  0  2  0  0  0  0  0  0
  189.3070  178.1800  137.0700 C   0  0  0  0  0  2  0  0  0  0  0  0
  189.9320  177.1370  138.0040 C   0  0  1  0  0  3  0  0  0  0  0  0
  188.3800  178.2720  139.6920 C   0  0  0  0  0  2  0  0  0  0  0  0
  191.3180  176.9920  137.7930 O   0  0  0  0  0  0  0  0  0  0  0  0
  191.5800  175.6560  137.7860 N   0  0  0  0  0  2  0  0  0  0  0  0
  190.9060  175.0990  136.6240 C   0  0  0  0  0  2  0  0  0  0  0  0
  189.0900  173.4090  136.9580 C   0  0  0  0  0  3  0  0  0  0  0  0
  190.3920  173.7290  136.9420 C   0  0  0  0  0  3  0  0  0  0  0  0
  186.7080  173.8240  137.0740 N   0  0  0  0  0  2  0  0  0  0  0  0
  186.3100  173.7670  135.6720 C   0  0  0  0  0  2  0  0  0  0  0  0
  187.4080  175.6440  134.7300 O   0  0  0  0  0  1  0  0  0  0  0  0
  187.9880  174.3850  136.6580 C   0  0  2  0  0  3  0  0  0  0  0  0
  187.6200  174.3440  135.1910 C   0  0  1  0  0  3  0  0  0  0  0  0
  184.7060  179.5340  141.2420 O   0  0  0  0  0  0  0  0  0  0  0  0
  185.2190  179.0980  142.4710 C   0  0  0  0  0  0  0  0  0  0  0  0
  186.2320  178.1280  142.5460 C   0  0  0  0  0  3  0  0  0  0  0  0
  186.7240  177.7140  143.7860 C   0  0  0  0  0  3  0  0  0  0  0  0
  184.6900  179.6260  143.6520 C   0  0  0  0  0  3  0  0  0  0  0  0
  185.1830  179.2120  144.8940 C   0  0  0  0  0  3  0  0  0  0  0  0
  186.2070  178.2570  144.9710 C   0  0  0  0  0  0  0  0  0  0  0  0
  186.7350  177.8210  146.2790 C   0  0  0  0  0  0  0  0  0  0  0  0
  186.1510  178.1610  147.3430 O   0  0  0  0  0  0  0  0  0  0  0  0
  187.9830  177.0020  146.3690 C   0  0  0  0  0  2  0  0  0  0  0  0
  189.1950  177.9110  146.3560 C   0  0  0  0  0  2  0  0  0  0  0  0
  190.1840  177.4240  145.3170 C   0  0  0  0  0  2  0  0  0  0  0  0
  190.3600  178.4890  144.2570 C   0  0  0  0  0  1  0  0  0  0  0  0
  1  2  1  0  0  0  0
  3  5  1  0  0  0  0
  4  1  1  0  0  0  0
  4 30  1  0  0  0  0
  5  1  2  0  0  0  0
  6  3  2  0  0  0  0
  6  7  1  0  0  0  0
  7  4  2  0  0  0  0
  8  9  2  0  0  0  0
  8  3  1  0  0  0  0
 10  8  1  0  0  0  0
 12 11  1  0  0  0  0
 12 10  1  0  0  0  0
 13  7  1  0  0  0  0
 14 13  1  1  0  0  0
 14 19  1  0  0  0  0
 15 14  1  0  0  0  0
 16 19  1  0  0  0  0
 17 15  1  0  0  0  0
 17 18  1  0  0  0  0
 18 20  1  1  0  0  0
 18 16  1  0  0  0  0
 21 20  1  0  0  0  0
 22 24  1  0  0  0  0
 22 21  1  0  0  0  0
 24 23  2  0  0  0  0
 26 25  1  0  0  0  0
 28 23  1  6  0  0  0
 28 25  1  0  0  0  0
 29 27  1  1  0  0  0
 29 26  1  0  0  0  0
 29 28  1  0  0  0  0
 30 31  1  0  0  0  0
 31 32  2  0  0  0  0
 31 34  1  0  0  0  0
 32 33  1  0  0  0  0
 33 36  2  0  0  0  0
 34 35  2  0  0  0  0
 35 36  1  0  0  0  0
 36 37  1  0  0  0  0
 37 39  1  0  0  0  0
 37 38  2  0  0  0  0
 40 39  1  0  0  0  0
 41 40  1  0  0  0  0
 42 41  1  0  0  0  0
M  END
>  <MODEL>
2

>  <REMARK>
 VINA RESULT:      -7.4      2.187      3.470
  Name = 
  15 active torsions:
  status: ('A' for Active; 'I' for Inactive)
    1  A    between atoms: C_1  and  O_14
    2  A    between atoms: C_2  and  O_29
    3  A    between atoms: C_3  and  C_25
    4  A    between atoms: C_4  and  C_40
    5  A    between atoms: C_4  and  C_42
    6  A    between atoms: C_9  and  C_28
    7  A    between atoms: C_11  and  C_12
    8  A    between atoms: C_11  and  C_42
    9  A    between atoms: O_14  and  C_39
   10  A    between atoms: C_17  and  C_34
   11  A    between atoms: C_24  and  O_37
   12  A    between atoms: C_26  and  O_29
   13  A    between atoms: C_31  and  N_41
   14  A    between atoms: C_34  and  N_35
   15  A    between atoms: N_35  and  O_37
                            x       y       z     vdW  Elec       q    Type
                         _______ _______ _______ _____ _____    ______ ____

>  <TORSDO>
F 15

$$$$
=
 OpenBabel10232411013D

 42 45  0  0  1  0  0  0  0  0999 V2000
  183.1460  178.2110  140.1170 C   0  0  0  0  0  0  0  0  0  0  0  0
  182.6400  178.5780  141.3970 N   0  0  0  0  0  1  0  0  0  0  0  0
  182.8060  177.0820  138.0500 C   0  0  0  0  0  0  0  0  0  0  0  0
  184.4320  178.6080  139.7230 C   0  0  0  0  0  0  0  0  0  0  0  0
  182.3770  177.4600  139.2830 N   0  0  0  0  0  0  0  0  0  0  0  0
  184.0690  177.4850  137.6070 C   0  0  0  0  0  3  0  0  0  0  0  0
  184.8880  178.2610  138.4370 C   0  0  0  0  0  0  0  0  0  0  0  0
  181.9370  176.2650  137.1890 C   0  0  0  0  0  0  0  0  0  0  0  0
  181.6490  176.6560  136.0240 O   0  0  0  0  0  0  0  0  0  0  0  0
  181.4180  175.0260  137.6780 N   0  0  0  0  0  2  0  0  0  0  0  0
  181.5500  172.9620  135.9880 S   0  0  0  0  0  1  0  0  0  0  0  0
  180.5480  174.1810  136.8780 C   0  0  0  0  0  2  0  0  0  0  0  0
  186.1330  178.7210  137.9920 O   0  0  0  0  0  0  0  0  0  0  0  0
  187.0630  177.9130  137.2820 C   0  0  1  0  0  3  0  0  0  0  0  0
  188.2600  178.7810  136.8640 C   0  0  0  0  0  2  0  0  0  0  0  0
  188.4370  175.8070  137.3730 C   0  0  0  0  0  2  0  0  0  0  0  0
  189.6090  178.0550  136.9170 C   0  0  0  0  0  2  0  0  0  0  0  0
  189.4650  176.5800  136.5230 C   0  0  1  0  0  3  0  0  0  0  0  0
  187.4950  176.7290  138.1480 C   0  0  0  0  0  2  0  0  0  0  0  0
  190.7100  175.9220  136.4480 O   0  0  0  0  0  0  0  0  0  0  0  0
  191.5680  176.6030  137.2550 N   0  0  0  0  0  2  0  0  0  0  0  0
  192.1920  175.6240  138.1310 C   0  0  0  0  0  2  0  0  0  0  0  0
  193.7640  173.9520  137.1320 C   0  0  0  0  0  3  0  0  0  0  0  0
  192.5150  174.3820  137.3600 C   0  0  0  0  0  3  0  0  0  0  0  0
  196.1560  174.2110  136.8710 N   0  0  0  0  0  2  0  0  0  0  0  0
  196.6740  173.6030  138.0910 C   0  0  0  0  0  2  0  0  0  0  0  0
  195.8880  175.0610  139.7860 O   0  0  0  0  0  1  0  0  0  0  0  0
  194.9930  174.6630  137.6240 C   0  0  2  0  0  3  0  0  0  0  0  0
  195.4880  174.0480  138.9140 C   0  0  1  0  0  3  0  0  0  0  0  0
  185.2160  179.3670  140.6080 O   0  0  0  0  0  0  0  0  0  0  0  0
  186.1920  178.8370  141.4620 C   0  0  0  0  0  0  0  0  0  0  0  0
  187.5340  178.7160  141.0640 C   0  0  0  0  0  3  0  0  0  0  0  0
  188.4850  178.1850  141.9390 C   0  0  0  0  0  3  0  0  0  0  0  0
  185.8130  178.3950  142.7320 C   0  0  0  0  0  3  0  0  0  0  0  0
  186.7660  177.8630  143.6080 C   0  0  0  0  0  3  0  0  0  0  0  0
  188.1100  177.7580  143.2210 C   0  0  0  0  0  0  0  0  0  0  0  0
  189.1200  177.2040  144.1440 C   0  0  0  0  0  0  0  0  0  0  0  0
  189.6860  176.1090  143.8810 O   0  0  0  0  0  0  0  0  0  0  0  0
  189.4650  177.9080  145.4170 C   0  0  0  0  0  2  0  0  0  0  0  0
  189.8180  176.8930  146.4860 C   0  0  0  0  0  2  0  0  0  0  0  0
  188.7730  176.9250  147.5810 C   0  0  0  0  0  2  0  0  0  0  0  0
  188.8110  178.2730  148.2690 C   0  0  0  0  0  1  0  0  0  0  0  0
  1  2  1  0  0  0  0
  3  5  1  0  0  0  0
  4  1  1  0  0  0  0
  4 30  1  0  0  0  0
  5  1  2  0  0  0  0
  6  3  2  0  0  0  0
  6  7  1  0  0  0  0
  7  4  2  0  0  0  0
  8 10  1  0  0  0  0
  8  3  1  0  0  0  0
  9  8  2  0  0  0  0
 11 12  1  0  0  0  0
 12 10  1  0  0  0  0
 13  7  1  0  0  0  0
 14 13  1  1  0  0  0
 14 19  1  0  0  0  0
 15 17  1  0  0  0  0
 15 14  1  0  0  0  0
 16 19  1  0  0  0  0
 18 20  1  1  0  0  0
 18 17  1  0  0  0  0
 18 16  1  0  0  0  0
 20 21  1  0  0  0  0
 21 22  1  0  0  0  0
 23 24  2  0  0  0  0
 24 22  1  0  0  0  0
 25 28  1  0  0  0  0
 25 26  1  0  0  0  0
 26 29  1  0  0  0  0
 28 23  1  6  0  0  0
 28 29  1  0  0  0  0
 29 27  1  1  0  0  0
 30 31  1  0  0  0  0
 31 34  1  0  0  0  0
 32 31  2  0  0  0  0
 32 33  1  0  0  0  0
 33 36  2  0  0  0  0
 34 35  2  0  0  0  0
 36 35  1  0  0  0  0
 36 37  1  0  0  0  0
 37 39  1  0  0  0  0
 38 37  2  0  0  0  0
 39 40  1  0  0  0  0
 40 41  1  0  0  0  0
 41 42  1  0  0  0  0
M  END
>  <MODEL>
3

>  <REMARK>
 VINA RESULT:      -7.3      1.439      1.776
  Name = 
  15 active torsions:
  status: ('A' for Active; 'I' for Inactive)
    1  A    between atoms: C_1  and  O_14
    2  A    between atoms: C_2  and  O_29
    3  A    between atoms: C_3  and  C_25
    4  A    between atoms: C_4  and  C_40
    5  A    between atoms: C_4  and  C_42
    6  A    between atoms: C_9  and  C_28
    7  A    between atoms: C_11  and  C_12
    8  A    between atoms: C_11  and  C_42
    9  A    between atoms: O_14  and  C_39
   10  A    between atoms: C_17  and  C_34
   11  A    between atoms: C_24  and  O_37
   12  A    between atoms: C_26  and  O_29
   13  A    between atoms: C_31  and  N_41
   14  A    between atoms: C_34  and  N_35
   15  A    between atoms: N_35  and  O_37
                            x       y       z     vdW  Elec       q    Type
                         _______ _______ _______ _____ _____    ______ ____

>  <TORSDO>
F 15

$$$$
=
 OpenBabel10232411013D

 42 45  0  0  1  0  0  0  0  0999 V2000
  189.7080  176.9150  135.5580 C   0  0  0  0  0  0  0  0  0  0  0  0
  188.9700  177.0390  134.3470 N   0  0  0  0  0  1  0  0  0  0  0  0
  191.6360  176.0910  136.6840 C   0  0  0  0  0  0  0  0  0  0  0  0
  189.2160  177.4750  136.7470 C   0  0  0  0  0  0  0  0  0  0  0  0
  190.8880  176.2390  135.5580 N   0  0  0  0  0  0  0  0  0  0  0  0
  191.1970  176.6620  137.8820 C   0  0  0  0  0  3  0  0  0  0  0  0
  189.9880  177.3680  137.9200 C   0  0  0  0  0  0  0  0  0  0  0  0
  192.9020  175.3460  136.6300 C   0  0  0  0  0  0  0  0  0  0  0  0
  193.8470  175.7510  135.8990 O   0  0  0  0  0  0  0  0  0  0  0  0
  193.0580  174.1570  137.4090 N   0  0  0  0  0  2  0  0  0  0  0  0
  195.3930  173.9680  138.6930 S   0  0  0  0  0  1  0  0  0  0  0  0
  194.2820  173.3740  137.3910 C   0  0  0  0  0  2  0  0  0  0  0  0
  189.5580  177.9940  139.0960 O   0  0  0  0  0  0  0  0  0  0  0  0
  189.4120  177.3190  140.3390 C   0  0  1  0  0  3  0  0  0  0  0  0
  190.7550  177.3490  141.0840 C   0  0  0  0  0  2  0  0  0  0  0  0
  188.0710  177.2090  142.4660 C   0  0  0  0  0  2  0  0  0  0  0  0
  190.6250  177.5040  142.6040 C   0  0  0  0  0  2  0  0  0  0  0  0
  189.3880  176.7720  143.1360 C   0  0  1  0  0  3  0  0  0  0  0  0
  188.2940  177.9690  141.1570 C   0  0  0  0  0  2  0  0  0  0  0  0
  189.3140  176.7990  144.5440 O   0  0  0  0  0  0  0  0  0  0  0  0
  189.1940  178.1040  144.9100 N   0  0  0  0  0  2  0  0  0  0  0  0
  188.4820  178.1250  146.1780 C   0  0  0  0  0  2  0  0  0  0  0  0
  186.1360  177.3340  145.8080 C   0  0  0  0  0  3  0  0  0  0  0  0
  187.4020  177.0870  146.1730 C   0  0  0  0  0  3  0  0  0  0  0  0
  184.4920  179.0760  146.1560 N   0  0  0  0  0  2  0  0  0  0  0  0
  183.6650  178.9720  144.9590 C   0  0  0  0  0  2  0  0  0  0  0  0
  185.1530  179.6060  143.2280 O   0  0  0  0  0  1  0  0  0  0  0  0
  185.6460  178.6810  145.3570 C   0  0  2  0  0  3  0  0  0  0  0  0
  184.8290  178.5590  144.0910 C   0  0  1  0  0  3  0  0  0  0  0  0
  187.9860  178.1530  136.7280 O   0  0  0  0  0  0  0  0  0  0  0  0
  186.7620  177.5930  137.1170 C   0  0  0  0  0  0  0  0  0  0  0  0
  186.3480  176.3310  136.6570 C   0  0  0  0  0  3  0  0  0  0  0  0
  185.1220  175.7980  137.0620 C   0  0  0  0  0  3  0  0  0  0  0  0
  185.9210  178.3210  137.9630 C   0  0  0  0  0  3  0  0  0  0  0  0
  184.6940  177.7870  138.3690 C   0  0  0  0  0  3  0  0  0  0  0  0
  184.2860  176.5200  137.9260 C   0  0  0  0  0  0  0  0  0  0  0  0
  182.9940  175.9500  138.3570 C   0  0  0  0  0  0  0  0  0  0  0  0
  182.3600  175.1690  137.5980 O   0  0  0  0  0  0  0  0  0  0  0  0
  182.4010  176.3100  139.6820 C   0  0  0  0  0  2  0  0  0  0  0  0
  181.2470  177.2720  139.4810 C   0  0  0  0  0  2  0  0  0  0  0  0
  181.0160  178.0600  140.7540 C   0  0  0  0  0  2  0  0  0  0  0  0
  182.3430  178.5720  141.2720 C   0  0  0  0  0  1  0  0  0  0  0  0
  1  4  1  0  0  0  0
  2  1  1  0  0  0  0
  3  6  2  0  0  0  0
  4  7  2  0  0  0  0
  5  1  2  0  0  0  0
  5  3  1  0  0  0  0
  6  7  1  0  0  0  0
  7 13  1  0  0  0  0
  8  3  1  0  0  0  0
  8 10  1  0  0  0  0
  9  8  2  0  0  0  0
 12 10  1  0  0  0  0
 12 11  1  0  0  0  0
 14 13  1  6  0  0  0
 14 15  1  0  0  0  0
 14 19  1  0  0  0  0
 15 17  1  0  0  0  0
 16 18  1  0  0  0  0
 17 18  1  0  0  0  0
 18 20  1  1  0  0  0
 19 16  1  0  0  0  0
 20 21  1  0  0  0  0
 21 22  1  0  0  0  0
 23 24  2  0  0  0  0
 24 22  1  0  0  0  0
 26 25  1  0  0  0  0
 28 23  1  1  0  0  0
 28 25  1  0  0  0  0
 29 27  1  6  0  0  0
 29 26  1  0  0  0  0
 29 28  1  0  0  0  0
 30  4  1  0  0  0  0
 30 31  1  0  0  0  0
 31 34  1  0  0  0  0
 32 33  1  0  0  0  0
 32 31  2  0  0  0  0
 33 36  2  0  0  0  0
 34 35  2  0  0  0  0
 36 37  1  0  0  0  0
 36 35  1  0  0  0  0
 37 39  1  0  0  0  0
 38 37  2  0  0  0  0
 40 39  1  0  0  0  0
 40 41  1  0  0  0  0
 41 42  1  0  0  0  0
M  END
>  <MODEL>
4

>  <REMARK>
 VINA RESULT:      -7.2      3.582      9.499
  Name = 
  15 active torsions:
  status: ('A' for Active; 'I' for Inactive)
    1  A    between atoms: C_1  and  O_14
    2  A    between atoms: C_2  and  O_29
    3  A    between atoms: C_3  and  C_25
    4  A    between atoms: C_4  and  C_40
    5  A    between atoms: C_4  and  C_42
    6  A    between atoms: C_9  and  C_28
    7  A    between atoms: C_11  and  C_12
    8  A    between atoms: C_11  and  C_42
    9  A    between atoms: O_14  and  C_39
   10  A    between atoms: C_17  and  C_34
   11  A    between atoms: C_24  and  O_37
   12  A    between atoms: C_26  and  O_29
   13  A    between atoms: C_31  and  N_41
   14  A    between atoms: C_34  and  N_35
   15  A    between atoms: N_35  and  O_37
                            x       y       z     vdW  Elec       q    Type
                         _______ _______ _______ _____ _____    ______ ____

>  <TORSDO>
F 15

$$$$
=
 OpenBabel10232411013D

 42 45  0  0  1  0  0  0  0  0999 V2000
  185.2750  178.5010  143.1320 C   0  0  0  0  0  0  0  0  0  0  0  0
  183.8910  178.7300  143.3790 N   0  0  0  0  0  1  0  0  0  0  0  0
  187.4000  177.8310  143.9660 C   0  0  0  0  0  0  0  0  0  0  0  0
  185.8140  178.7320  141.8580 C   0  0  0  0  0  0  0  0  0  0  0  0
  186.0730  178.0690  144.1440 N   0  0  0  0  0  0  0  0  0  0  0  0
  187.9700  178.0180  142.7030 C   0  0  0  0  0  3  0  0  0  0  0  0
  187.1780  178.4600  141.6360 C   0  0  0  0  0  0  0  0  0  0  0  0
  188.2210  177.3700  145.0960 C   0  0  0  0  0  0  0  0  0  0  0  0
  189.3840  176.9210  144.8950 O   0  0  0  0  0  0  0  0  0  0  0  0
  187.6950  177.4270  146.4240 N   0  0  0  0  0  2  0  0  0  0  0  0
  188.9040  178.4090  148.5930 S   0  0  0  0  0  1  0  0  0  0  0  0
  188.4550  176.9780  147.5780 C   0  0  0  0  0  2  0  0  0  0  0  0
  187.7170  178.6000  140.3520 O   0  0  0  0  0  0  0  0  0  0  0  0
  188.5510  177.6270  139.7370 C   0  0  1  0  0  3  0  0  0  0  0  0
  188.1600  177.4960  138.2580 C   0  0  0  0  0  2  0  0  0  0  0  0
  190.9370  176.9460  139.3140 C   0  0  0  0  0  2  0  0  0  0  0  0
  189.3430  177.2540  137.3150 C   0  0  0  0  0  2  0  0  0  0  0  0
  190.4160  176.3820  137.9780 C   0  0  1  0  0  3  0  0  0  0  0  0
  190.0210  178.0200  139.9030 C   0  0  0  0  0  2  0  0  0  0  0  0
  191.4580  176.0460  137.0890 O   0  0  0  0  0  0  0  0  0  0  0  0
  191.7750  174.7430  137.3240 N   0  0  0  0  0  2  0  0  0  0  0  0
  192.8600  174.4010  136.4170 C   0  0  0  0  0  2  0  0  0  0  0  0
  194.7000  173.2530  137.6650 C   0  0  0  0  0  3  0  0  0  0  0  0
  193.5850  173.1930  136.9230 C   0  0  0  0  0  3  0  0  0  0  0  0
  196.4140  174.8780  137.1390 N   0  0  0  0  0  2  0  0  0  0  0  0
  197.3910  174.6610  138.2000 C   0  0  0  0  0  2  0  0  0  0  0  0
  196.2170  175.3310  140.1480 O   0  0  0  0  0  1  0  0  0  0  0  0
  195.3560  174.5380  138.0830 C   0  0  2  0  0  3  0  0  0  0  0  0
  196.3310  174.3000  139.2140 C   0  0  1  0  0  3  0  0  0  0  0  0
  184.9750  179.1970  140.8320 O   0  0  0  0  0  0  0  0  0  0  0  0
  184.3620  178.3790  139.8720 C   0  0  0  0  0  0  0  0  0  0  0  0
  183.3650  177.4530  140.2210 C   0  0  0  0  0  3  0  0  0  0  0  0
  182.7710  176.6520  139.2420 C   0  0  0  0  0  3  0  0  0  0  0  0
  184.7740  178.4710  138.5400 C   0  0  0  0  0  3  0  0  0  0  0  0
  184.1800  177.6690  137.5600 C   0  0  0  0  0  3  0  0  0  0  0  0
  183.1700  176.7570  137.9020 C   0  0  0  0  0  0  0  0  0  0  0  0
  182.5350  175.9130  136.8700 C   0  0  0  0  0  0  0  0  0  0  0  0
  182.1210  176.4280  135.7970 O   0  0  0  0  0  0  0  0  0  0  0  0
  182.3430  174.4470  137.0890 C   0  0  0  0  0  2  0  0  0  0  0  0
  183.5570  173.6900  136.5880 C   0  0  0  0  0  2  0  0  0  0  0  0
  184.5440  173.5050  137.7210 C   0  0  0  0  0  2  0  0  0  0  0  0
  185.8630  174.1450  137.3460 C   0  0  0  0  0  1  0  0  0  0  0  0
  1  2  1  0  0  0  0
  1  5  1  0  0  0  0
  3  5  2  0  0  0  0
  3  8  1  0  0  0  0
  4  1  2  0  0  0  0
  6  3  1  0  0  0  0
  7  4  1  0  0  0  0
  7  6  2  0  0  0  0
  8 10  1  0  0  0  0
  9  8  2  0  0  0  0
 10 12  1  0  0  0  0
 12 11  1  0  0  0  0
 13  7  1  0  0  0  0
 14 19  1  0  0  0  0
 14 13  1  6  0  0  0
 15 14  1  0  0  0  0
 16 19  1  0  0  0  0
 17 18  1  0  0  0  0
 17 15  1  0  0  0  0
 18 20  1  6  0  0  0
 18 16  1  0  0  0  0
 20 21  1  0  0  0  0
 22 24  1  0  0  0  0
 22 21  1  0  0  0  0
 24 23  2  0  0  0  0
 25 28  1  0  0  0  0
 25 26  1  0  0  0  0
 26 29  1  0  0  0  0
 28 23  1  6  0  0  0
 28 29  1  0  0  0  0
 29 27  1  1  0  0  0
 30  4  1  0  0  0  0
 31 32  1  0  0  0  0
 31 30  1  0  0  0  0
 33 32  2  0  0  0  0
 34 31  2  0  0  0  0
 35 36  2  0  0  0  0
 35 34  1  0  0  0  0
 36 33  1  0  0  0  0
 37 39  1  0  0  0  0
 37 36  1  0  0  0  0
 38 37  2  0  0  0  0
 40 39  1  0  0  0  0
 40 41  1  0  0  0  0
 42 41  1  0  0  0  0
M  END
>  <MODEL>
5

>  <REMARK>
 VINA RESULT:      -6.9      3.141      6.720
  Name = 
  15 active torsions:
  status: ('A' for Active; 'I' for Inactive)
    1  A    between atoms: C_1  and  O_14
    2  A    between atoms: C_2  and  O_29
    3  A    between atoms: C_3  and  C_25
    4  A    between atoms: C_4  and  C_40
    5  A    between atoms: C_4  and  C_42
    6  A    between atoms: C_9  and  C_28
    7  A    between atoms: C_11  and  C_12
    8  A    between atoms: C_11  and  C_42
    9  A    between atoms: O_14  and  C_39
   10  A    between atoms: C_17  and  C_34
   11  A    between atoms: C_24  and  O_37
   12  A    between atoms: C_26  and  O_29
   13  A    between atoms: C_31  and  N_41
   14  A    between atoms: C_34  and  N_35
   15  A    between atoms: N_35  and  O_37
                            x       y       z     vdW  Elec       q    Type
                         _______ _______ _______ _____ _____    ______ ____

>  <TORSDO>
F 15

$$$$
=
 OpenBabel10232411013D

 42 45  0  0  1  0  0  0  0  0999 V2000
  192.6660  176.5160  138.7320 C   0  0  0  0  0  0  0  0  0  0  0  0
  193.4700  177.4740  139.4130 N   0  0  0  0  0  1  0  0  0  0  0  0
  192.5490  174.5610  137.3790 C   0  0  0  0  0  0  0  0  0  0  0  0
  191.2680  176.6190  138.7560 C   0  0  0  0  0  0  0  0  0  0  0  0
  193.2650  175.5060  138.0460 N   0  0  0  0  0  0  0  0  0  0  0  0
  191.1520  174.6100  137.4060 C   0  0  0  0  0  3  0  0  0  0  0  0
  190.5010  175.6340  138.1050 C   0  0  0  0  0  0  0  0  0  0  0  0
  193.2460  173.4920  136.6480 C   0  0  0  0  0  0  0  0  0  0  0  0
  192.5930  172.5380  136.1430 O   0  0  0  0  0  0  0  0  0  0  0  0
  194.6690  173.5370  136.5130 N   0  0  0  0  0  2  0  0  0  0  0  0
  197.1650  172.9630  135.7590 S   0  0  0  0  0  1  0  0  0  0  0  0
  195.4130  172.5070  135.8100 C   0  0  0  0  0  2  0  0  0  0  0  0
  189.1040  175.6690  138.1900 O   0  0  0  0  0  0  0  0  0  0  0  0
  188.2670  176.2320  137.1880 C   0  0  1  0  0  3  0  0  0  0  0  0
  187.4840  175.1040  136.5000 C   0  0  0  0  0  2  0  0  0  0  0  0
  186.4790  177.9450  136.7360 C   0  0  0  0  0  2  0  0  0  0  0  0
  186.0510  175.4830  136.1100 C   0  0  0  0  0  2  0  0  0  0  0  0
  185.9590  176.9510  135.6780 C   0  0  1  0  0  3  0  0  0  0  0  0
  187.3350  177.2730  137.8110 C   0  0  0  0  0  2  0  0  0  0  0  0
  184.6770  177.2900  135.2010 O   0  0  0  0  0  0  0  0  0  0  0  0
  183.9110  176.1690  135.2900 N   0  0  0  0  0  2  0  0  0  0  0  0
  183.1640  176.2650  136.5350 C   0  0  0  0  0  2  0  0  0  0  0  0
  182.6110  178.4480  137.6280 C   0  0  0  0  0  3  0  0  0  0  0  0
  182.4660  177.5880  136.6100 C   0  0  0  0  0  3  0  0  0  0  0  0
  182.7120  177.5790  139.8840 N   0  0  0  0  0  2  0  0  0  0  0  0
  182.9040  178.7870  140.6790 C   0  0  0  0  0  2  0  0  0  0  0  0
  185.0520  179.5300  140.0060 O   0  0  0  0  0  1  0  0  0  0  0  0
  183.4930  178.1920  138.8160 C   0  0  2  0  0  3  0  0  0  0  0  0
  183.7180  179.4650  139.6020 C   0  0  1  0  0  3  0  0  0  0  0  0
  190.6710  177.6800  139.4550 O   0  0  0  0  0  0  0  0  0  0  0  0
  190.0510  177.5610  140.7070 C   0  0  0  0  0  0  0  0  0  0  0  0
  188.7630  178.0710  140.9450 C   0  0  0  0  0  3  0  0  0  0  0  0
  188.1710  177.9360  142.2030 C   0  0  0  0  0  3  0  0  0  0  0  0
  190.7440  176.9420  141.7500 C   0  0  0  0  0  3  0  0  0  0  0  0
  190.1510  176.8070  143.0100 C   0  0  0  0  0  3  0  0  0  0  0  0
  188.8580  177.2990  143.2450 C   0  0  0  0  0  0  0  0  0  0  0  0
  188.2260  177.1520  144.5720 C   0  0  0  0  0  0  0  0  0  0  0  0
  188.9320  176.9140  145.5880 O   0  0  0  0  0  0  0  0  0  0  0  0
  186.7420  177.2510  144.7290 C   0  0  0  0  0  2  0  0  0  0  0  0
  186.4110  178.1320  145.9180 C   0  0  0  0  0  2  0  0  0  0  0  0
  185.0620  178.7870  145.7030 C   0  0  0  0  0  2  0  0  0  0  0  0
  184.8180  178.9530  144.2180 C   0  0  0  0  0  1  0  0  0  0  0  0
  1  4  1  0  0  0  0
  1  2  1  0  0  0  0
  3  6  2  0  0  0  0
  3  5  1  0  0  0  0
  4 30  1  0  0  0  0
  5  1  2  0  0  0  0
  6  7  1  0  0  0  0
  7 13  1  0  0  0  0
  7  4  2  0  0  0  0
  8  3  1  0  0  0  0
  9  8  2  0  0  0  0
 10  8  1  0  0  0  0
 11 12  1  0  0  0  0
 12 10  1  0  0  0  0
 14 19  1  0  0  0  0
 14 13  1  1  0  0  0
 15 14  1  0  0  0  0
 16 19  1  0  0  0  0
 17 15  1  0  0  0  0
 18 20  1  1  0  0  0
 18 17  1  0  0  0  0
 18 16  1  0  0  0  0
 20 21  1  0  0  0  0
 21 22  1  0  0  0  0
 22 24  1  0  0  0  0
 24 23  2  0  0  0  0
 25 26  1  0  0  0  0
 28 23  1  6  0  0  0
 28 29  1  0  0  0  0
 28 25  1  0  0  0  0
 29 27  1  1  0  0  0
 29 26  1  0  0  0  0
 30 31  1  0  0  0  0
 31 32  2  0  0  0  0
 31 34  1  0  0  0  0
 32 33  1  0  0  0  0
 33 36  2  0  0  0  0
 34 35  2  0  0  0  0
 35 36  1  0  0  0  0
 36 37  1  0  0  0  0
 37 39  1  0  0  0  0
 37 38  2  0  0  0  0
 39 40  1  0  0  0  0
 41 40  1  0  0  0  0
 42 41  1  0  0  0  0
M  END
>  <MODEL>
6

>  <REMARK>
 VINA RESULT:      -6.8      3.345      8.941
  Name = 
  15 active torsions:
  status: ('A' for Active; 'I' for Inactive)
    1  A    between atoms: C_1  and  O_14
    2  A    between atoms: C_2  and  O_29
    3  A    between atoms: C_3  and  C_25
    4  A    between atoms: C_4  and  C_40
    5  A    between atoms: C_4  and  C_42
    6  A    between atoms: C_9  and  C_28
    7  A    between atoms: C_11  and  C_12
    8  A    between atoms: C_11  and  C_42
    9  A    between atoms: O_14  and  C_39
   10  A    between atoms: C_17  and  C_34
   11  A    between atoms: C_24  and  O_37
   12  A    between atoms: C_26  and  O_29
   13  A    between atoms: C_31  and  N_41
   14  A    between atoms: C_34  and  N_35
   15  A    between atoms: N_35  and  O_37
                            x       y       z     vdW  Elec       q    Type
                         _______ _______ _______ _____ _____    ______ ____

>  <TORSDO>
F 15

$$$$
=
 OpenBabel10232411013D

 42 45  0  0  1  0  0  0  0  0999 V2000
  182.0080  174.7800  136.9510 C   0  0  0  0  0  0  0  0  0  0  0  0
  180.8590  174.9970  137.7640 N   0  0  0  0  0  1  0  0  0  0  0  0
  183.3290  173.2750  135.6670 C   0  0  0  0  0  0  0  0  0  0  0  0
  182.8900  175.8350  136.6770 C   0  0  0  0  0  0  0  0  0  0  0  0
  182.2500  173.5390  136.4510 N   0  0  0  0  0  0  0  0  0  0  0  0
  184.2150  174.3070  135.3430 C   0  0  0  0  0  3  0  0  0  0  0  0
  183.9960  175.5980  135.8380 C   0  0  0  0  0  0  0  0  0  0  0  0
  183.5490  171.9130  135.1560 C   0  0  0  0  0  0  0  0  0  0  0  0
  182.7260  171.3960  134.3510 O   0  0  0  0  0  0  0  0  0  0  0  0
  184.6980  171.1750  135.5780 N   0  0  0  0  0  2  0  0  0  0  0  0
  183.7420  168.6940  135.8300 S   0  0  0  0  0  1  0  0  0  0  0  0
  184.9640  169.8240  135.1150 C   0  0  0  0  0  2  0  0  0  0  0  0
  184.8390  176.6570  135.4810 O   0  0  0  0  0  0  0  0  0  0  0  0
  186.2380  176.6690  135.7350 C   0  0  1  0  0  3  0  0  0  0  0  0
  186.7490  178.1150  135.6430 C   0  0  0  0  0  2  0  0  0  0  0  0
  188.0320  175.9880  137.3640 C   0  0  0  0  0  2  0  0  0  0  0  0
  187.8520  178.4560  136.6510 C   0  0  0  0  0  2  0  0  0  0  0  0
  188.7730  177.2560  136.8980 C   0  0  1  0  0  3  0  0  0  0  0  0
  186.5250  176.0520  137.1060 C   0  0  0  0  0  2  0  0  0  0  0  0
  189.8650  177.5810  137.7290 O   0  0  0  0  0  0  0  0  0  0  0  0
  189.3930  178.4130  138.6970 N   0  0  0  0  0  2  0  0  0  0  0  0
  189.7440  177.8170  139.9760 C   0  0  0  0  0  2  0  0  0  0  0  0
  188.7020  177.8280  142.2520 C   0  0  0  0  0  3  0  0  0  0  0  0
  188.5850  177.9130  140.9190 C   0  0  0  0  0  3  0  0  0  0  0  0
  189.8470  176.6400  144.0220 N   0  0  0  0  0  2  0  0  0  0  0  0
  190.0910  177.6930  145.0010 C   0  0  0  0  0  2  0  0  0  0  0  0
  191.6110  179.1220  143.8780 O   0  0  0  0  0  1  0  0  0  0  0  0
  190.0100  177.6280  142.9620 C   0  0  2  0  0  3  0  0  0  0  0  0
  190.2670  178.7520  143.9400 C   0  0  1  0  0  3  0  0  0  0  0  0
  182.6300  177.1050  137.2180 O   0  0  0  0  0  0  0  0  0  0  0  0
  183.1740  177.5870  138.4170 C   0  0  0  0  0  0  0  0  0  0  0  0
  184.3090  178.4150  138.4320 C   0  0  0  0  0  3  0  0  0  0  0  0
  184.8280  178.8800  139.6430 C   0  0  0  0  0  3  0  0  0  0  0  0
  182.5860  177.2110  139.6280 C   0  0  0  0  0  3  0  0  0  0  0  0
  183.1060  177.6770  140.8400 C   0  0  0  0  0  3  0  0  0  0  0  0
  184.2280  178.5190  140.8570 C   0  0  0  0  0  0  0  0  0  0  0  0
  184.7760  179.0190  142.1340 C   0  0  0  0  0  0  0  0  0  0  0  0
  185.7890  179.7680  142.1390 O   0  0  0  0  0  0  0  0  0  0  0  0
  184.1640  178.6220  143.4390 C   0  0  0  0  0  2  0  0  0  0  0  0
  184.8700  179.3360  144.5750 C   0  0  0  0  0  2  0  0  0  0  0  0
  185.1120  178.3650  145.7110 C   0  0  0  0  0  2  0  0  0  0  0  0
  186.5270  177.8350  145.6230 C   0  0  0  0  0  1  0  0  0  0  0  0
  1  2  1  0  0  0  0
  3  5  1  0  0  0  0
  4  1  1  0  0  0  0
  4 30  1  0  0  0  0
  5  1  2  0  0  0  0
  6  3  2  0  0  0  0
  6  7  1  0  0  0  0
  7  4  2  0  0  0  0
  8 10  1  0  0  0  0
  8  3  1  0  0  0  0
  9  8  2  0  0  0  0
 12 10  1  0  0  0  0
 12 11  1  0  0  0  0
 13  7  1  0  0  0  0
 14 13  1  1  0  0  0
 14 19  1  0  0  0  0
 15 14  1  0  0  0  0
 15 17  1  0  0  0  0
 17 18  1  0  0  0  0
 18 16  1  0  0  0  0
 18 20  1  1  0  0  0
 19 16  1  0  0  0  0
 20 21  1  0  0  0  0
 21 22  1  0  0  0  0
 22 24  1  0  0  0  0
 24 23  2  0  0  0  0
 25 26  1  0  0  0  0
 28 23  1  1  0  0  0
 28 29  1  0  0  0  0
 28 25  1  0  0  0  0
 29 27  1  6  0  0  0
 29 26  1  0  0  0  0
 30 31  1  0  0  0  0
 31 32  2  0  0  0  0
 31 34  1  0  0  0  0
 32 33  1  0  0  0  0
 33 36  2  0  0  0  0
 34 35  2  0  0  0  0
 35 36  1  0  0  0  0
 36 37  1  0  0  0  0
 37 38  2  0  0  0  0
 37 39  1  0  0  0  0
 39 40  1  0  0  0  0
 40 41  1  0  0  0  0
 42 41  1  0  0  0  0
M  END
>  <MODEL>
7

>  <REMARK>
 VINA RESULT:      -6.8      3.625      5.511
  Name = 
  15 active torsions:
  status: ('A' for Active; 'I' for Inactive)
    1  A    between atoms: C_1  and  O_14
    2  A    between atoms: C_2  and  O_29
    3  A    between atoms: C_3  and  C_25
    4  A    between atoms: C_4  and  C_40
    5  A    between atoms: C_4  and  C_42
    6  A    between atoms: C_9  and  C_28
    7  A    between atoms: C_11  and  C_12
    8  A    between atoms: C_11  and  C_42
    9  A    between atoms: O_14  and  C_39
   10  A    between atoms: C_17  and  C_34
   11  A    between atoms: C_24  and  O_37
   12  A    between atoms: C_26  and  O_29
   13  A    between atoms: C_31  and  N_41
   14  A    between atoms: C_34  and  N_35
   15  A    between atoms: N_35  and  O_37
                            x       y       z     vdW  Elec       q    Type
                         _______ _______ _______ _____ _____    ______ ____

>  <TORSDO>
F 15

$$$$
=
 OpenBabel10232411013D

 42 45  0  0  1  0  0  0  0  0999 V2000
  188.9790  178.1440  139.0990 C   0  0  0  0  0  0  0  0  0  0  0  0
  188.9080  179.2430  140.0030 N   0  0  0  0  0  1  0  0  0  0  0  0
  188.1530  177.0700  137.1440 C   0  0  0  0  0  0  0  0  0  0  0  0
  189.9110  177.1170  139.3060 C   0  0  0  0  0  0  0  0  0  0  0  0
  188.1280  178.0920  138.0400 N   0  0  0  0  0  0  0  0  0  0  0  0
  189.0880  176.0420  137.2960 C   0  0  0  0  0  3  0  0  0  0  0  0
  189.9820  176.0640  138.3740 C   0  0  0  0  0  0  0  0  0  0  0  0
  187.2070  177.0580  136.0180 C   0  0  0  0  0  0  0  0  0  0  0  0
  187.0950  178.0700  135.2720 O   0  0  0  0  0  0  0  0  0  0  0  0
  186.4110  175.8960  135.7730 N   0  0  0  0  0  2  0  0  0  0  0  0
  183.8660  176.5010  135.2370 S   0  0  0  0  0  1  0  0  0  0  0  0
  185.4530  175.8280  134.6820 C   0  0  0  0  0  2  0  0  0  0  0  0
  190.9630  175.0750  138.5140 O   0  0  0  0  0  0  0  0  0  0  0  0
  192.2510  175.1530  137.9180 C   0  0  1  0  0  3  0  0  0  0  0  0
  192.5120  173.8630  137.1240 C   0  0  0  0  0  2  0  0  0  0  0  0
  193.7440  176.5360  136.4370 C   0  0  0  0  0  2  0  0  0  0  0  0
  193.2980  174.0750  135.8250 C   0  0  0  0  0  2  0  0  0  0  0  0
  194.3380  175.1900  135.9770 C   0  0  1  0  0  3  0  0  0  0  0  0
  192.3400  176.3940  137.0280 C   0  0  0  0  0  2  0  0  0  0  0  0
  195.1540  175.3210  134.8340 O   0  0  0  0  0  0  0  0  0  0  0  0
  195.9750  174.2360  134.8060 N   0  0  0  0  0  2  0  0  0  0  0  0
  197.2540  174.6590  135.3540 C   0  0  0  0  0  2  0  0  0  0  0  0
  197.8170  173.7380  137.6120 C   0  0  0  0  0  3  0  0  0  0  0  0
  197.7860  173.6080  136.2780 C   0  0  0  0  0  3  0  0  0  0  0  0
  198.3760  175.4750  139.2000 N   0  0  0  0  0  2  0  0  0  0  0  0
  197.5740  175.1110  140.3620 C   0  0  0  0  0  2  0  0  0  0  0  0
  195.3530  175.4110  139.5910 O   0  0  0  0  0  1  0  0  0  0  0  0
  197.3200  174.9530  138.3430 C   0  0  2  0  0  3  0  0  0  0  0  0
  196.4530  174.5550  139.5170 C   0  0  1  0  0  3  0  0  0  0  0  0
  190.7680  177.1820  140.4180 O   0  0  0  0  0  0  0  0  0  0  0  0
  190.3400  177.2150  141.7520 C   0  0  0  0  0  0  0  0  0  0  0  0
  191.0670  177.8950  142.7430 C   0  0  0  0  0  3  0  0  0  0  0  0
  190.6150  177.9110  144.0650 C   0  0  0  0  0  3  0  0  0  0  0  0
  189.1750  176.5310  142.1080 C   0  0  0  0  0  3  0  0  0  0  0  0
  188.7220  176.5470  143.4310 C   0  0  0  0  0  3  0  0  0  0  0  0
  189.4360  177.2410  144.4200 C   0  0  0  0  0  0  0  0  0  0  0  0
  188.9590  177.2660  145.8170 C   0  0  0  0  0  0  0  0  0  0  0  0
  189.7840  177.2700  146.7690 O   0  0  0  0  0  0  0  0  0  0  0  0
  187.4960  177.2550  146.1280 C   0  0  0  0  0  2  0  0  0  0  0  0
  187.2120  178.1880  147.2880 C   0  0  0  0  0  2  0  0  0  0  0  0
  185.8800  178.8750  147.0710 C   0  0  0  0  0  2  0  0  0  0  0  0
  185.4990  178.7790  145.6100 C   0  0  0  0  0  1  0  0  0  0  0  0
  1  4  1  0  0  0  0
  1  2  1  0  0  0  0
  3  6  2  0  0  0  0
  3  5  1  0  0  0  0
  4 30  1  0  0  0  0
  5  1  2  0  0  0  0
  6  7  1  0  0  0  0
  7 13  1  0  0  0  0
  7  4  2  0  0  0  0
  8  3  1  0  0  0  0
  9  8  2  0  0  0  0
 10  8  1  0  0  0  0
 12 11  1  0  0  0  0
 12 10  1  0  0  0  0
 14 13  1  6  0  0  0
 15 14  1  0  0  0  0
 16 19  1  0  0  0  0
 17 18  1  0  0  0  0
 17 15  1  0  0  0  0
 18 20  1  6  0  0  0
 18 16  1  0  0  0  0
 19 14  1  0  0  0  0
 21 20  1  0  0  0  0
 21 22  1  0  0  0  0
 22 24  1  0  0  0  0
 24 23  2  0  0  0  0
 25 26  1  0  0  0  0
 28 23  1  1  0  0  0
 28 25  1  0  0  0  0
 28 29  1  0  0  0  0
 29 27  1  6  0  0  0
 29 26  1  0  0  0  0
 30 31  1  0  0  0  0
 31 34  2  0  0  0  0
 31 32  1  0  0  0  0
 32 33  2  0  0  0  0
 33 36  1  0  0  0  0
 34 35  1  0  0  0  0
 35 36  2  0  0  0  0
 36 37  1  0  0  0  0
 37 39  1  0  0  0  0
 37 38  2  0  0  0  0
 39 40  1  0  0  0  0
 41 40  1  0  0  0  0
 42 41  1  0  0  0  0
M  END
>  <MODEL>
8

>  <REMARK>
 VINA RESULT:      -6.7      3.468      5.032
  Name = 
  15 active torsions:
  status: ('A' for Active; 'I' for Inactive)
    1  A    between atoms: C_1  and  O_14
    2  A    between atoms: C_2  and  O_29
    3  A    between atoms: C_3  and  C_25
    4  A    between atoms: C_4  and  C_40
    5  A    between atoms: C_4  and  C_42
    6  A    between atoms: C_9  and  C_28
    7  A    between atoms: C_11  and  C_12
    8  A    between atoms: C_11  and  C_42
    9  A    between atoms: O_14  and  C_39
   10  A    between atoms: C_17  and  C_34
   11  A    between atoms: C_24  and  O_37
   12  A    between atoms: C_26  and  O_29
   13  A    between atoms: C_31  and  N_41
   14  A    between atoms: C_34  and  N_35
   15  A    between atoms: N_35  and  O_37
                            x       y       z     vdW  Elec       q    Type
                         _______ _______ _______ _____ _____    ______ ____

>  <TORSDO>
F 15

$$$$
=
 OpenBabel10232411013D

 42 45  0  0  1  0  0  0  0  0999 V2000
  192.4210  173.0110  135.8770 C   0  0  0  0  0  0  0  0  0  0  0  0
  192.1310  171.9650  134.9550 N   0  0  0  0  0  1  0  0  0  0  0  0
  193.8210  173.8660  137.6000 C   0  0  0  0  0  0  0  0  0  0  0  0
  191.5980  174.1450  135.9420 C   0  0  0  0  0  0  0  0  0  0  0  0
  193.4950  172.8980  136.7030 N   0  0  0  0  0  0  0  0  0  0  0  0
  193.0460  175.0260  137.6740 C   0  0  0  0  0  3  0  0  0  0  0  0
  191.9330  175.1790  136.8370 C   0  0  0  0  0  0  0  0  0  0  0  0
  194.9910  173.6920  138.4750 C   0  0  0  0  0  0  0  0  0  0  0  0
  195.3610  172.5350  138.8170 O   0  0  0  0  0  0  0  0  0  0  0  0
  195.7060  174.8390  138.9390 N   0  0  0  0  0  2  0  0  0  0  0  0
  198.3680  174.6690  138.8050 S   0  0  0  0  0  1  0  0  0  0  0  0
  196.8630  174.7310  139.8110 C   0  0  0  0  0  2  0  0  0  0  0  0
  191.1760  176.3560  136.8560 O   0  0  0  0  0  0  0  0  0  0  0  0
  190.0580  176.5600  137.7110 C   0  0  1  0  0  3  0  0  0  0  0  0
  190.5640  176.9360  139.1120 C   0  0  0  0  0  2  0  0  0  0  0  0
  187.8990  177.8210  137.9960 C   0  0  0  0  0  2  0  0  0  0  0  0
  189.6930  177.9680  139.8370 C   0  0  0  0  0  2  0  0  0  0  0  0
  188.2090  177.7780  139.5050 C   0  0  1  0  0  3  0  0  0  0  0  0
  189.1450  177.6410  137.1280 C   0  0  0  0  0  2  0  0  0  0  0  0
  187.3780  178.6380  140.2530 O   0  0  0  0  0  0  0  0  0  0  0  0
  187.9540  178.7800  141.4780 N   0  0  0  0  0  2  0  0  0  0  0  0
  187.1060  178.0760  142.4280 C   0  0  0  0  0  2  0  0  0  0  0  0
  188.3120  176.8490  144.2460 C   0  0  0  0  0  3  0  0  0  0  0  0
  187.8400  176.8990  142.9920 C   0  0  0  0  0  3  0  0  0  0  0  0
  189.3560  178.0510  146.0690 N   0  0  0  0  0  2  0  0  0  0  0  0
  188.5530  177.6430  147.2160 C   0  0  0  0  0  2  0  0  0  0  0  0
  186.4310  178.5870  146.7420 O   0  0  0  0  0  1  0  0  0  0  0  0
  188.1610  177.9670  145.2380 C   0  0  2  0  0  3  0  0  0  0  0  0
  187.2880  177.5400  146.3980 C   0  0  1  0  0  3  0  0  0  0  0  0
  190.4830  174.2330  135.0920 O   0  0  0  0  0  0  0  0  0  0  0  0
  189.1600  173.9890  135.4860 C   0  0  0  0  0  0  0  0  0  0  0  0
  188.8580  173.2360  136.6340 C   0  0  0  0  0  3  0  0  0  0  0  0
  187.5300  173.0110  137.0020 C   0  0  0  0  0  3  0  0  0  0  0  0
  188.1160  174.4850  134.7010 C   0  0  0  0  0  3  0  0  0  0  0  0
  186.7860  174.2600  135.0690 C   0  0  0  0  0  3  0  0  0  0  0  0
  186.4820  173.5250  136.2250 C   0  0  0  0  0  0  0  0  0  0  0  0
  185.0790  173.2890  136.6210 C   0  0  0  0  0  0  0  0  0  0  0  0
  184.7230  172.1600  137.0510 O   0  0  0  0  0  0  0  0  0  0  0  0
  184.0530  174.3690  136.4910 C   0  0  0  0  0  2  0  0  0  0  0  0
  184.1950  175.3520  137.6360 C   0  0  0  0  0  2  0  0  0  0  0  0
  184.4930  176.7320  137.0870 C   0  0  0  0  0  2  0  0  0  0  0  0
  184.0150  176.8130  135.6530 C   0  0  0  0  0  1  0  0  0  0  0  0
  1  4  2  0  0  0  0
  1  5  1  0  0  0  0
  2  1  1  0  0  0  0
  3  6  1  0  0  0  0
  3  8  1  0  0  0  0
  4  7  1  0  0  0  0
  5  3  2  0  0  0  0
  7 13  1  0  0  0  0
  7  6  2  0  0  0  0
  8  9  2  0  0  0  0
  8 10  1  0  0  0  0
 10 12  1  0  0  0  0
 11 12  1  0  0  0  0
 14 13  1  6  0  0  0
 14 15  1  0  0  0  0
 15 17  1  0  0  0  0
 16 18  1  0  0  0  0
 18 17  1  0  0  0  0
 18 20  1  1  0  0  0
 19 14  1  0  0  0  0
 19 16  1  0  0  0  0
 20 21  1  0  0  0  0
 21 22  1  0  0  0  0
 22 24  1  0  0  0  0
 24 23  2  0  0  0  0
 25 26  1  0  0  0  0
 28 23  1  6  0  0  0
 28 25  1  0  0  0  0
 28 29  1  0  0  0  0
 29 27  1  1  0  0  0
 29 26  1  0  0  0  0
 30 31  1  0  0  0  0
 30  4  1  0  0  0  0
 31 32  1  0  0  0  0
 32 33  2  0  0  0  0
 34 35  1  0  0  0  0
 34 31  2  0  0  0  0
 35 36  2  0  0  0  0
 36 37  1  0  0  0  0
 36 33  1  0  0  0  0
 37 38  2  0  0  0  0
 39 37  1  0  0  0  0
 39 40  1  0  0  0  0
 41 40  1  0  0  0  0
 42 41  1  0  0  0  0
M  END
>  <MODEL>
9

>  <REMARK>
 VINA RESULT:      -6.6      4.055     10.436
  Name = 
  15 active torsions:
  status: ('A' for Active; 'I' for Inactive)
    1  A    between atoms: C_1  and  O_14
    2  A    between atoms: C_2  and  O_29
    3  A    between atoms: C_3  and  C_25
    4  A    between atoms: C_4  and  C_40
    5  A    between atoms: C_4  and  C_42
    6  A    between atoms: C_9  and  C_28
    7  A    between atoms: C_11  and  C_12
    8  A    between atoms: C_11  and  C_42
    9  A    between atoms: O_14  and  C_39
   10  A    between atoms: C_17  and  C_34
   11  A    between atoms: C_24  and  O_37
   12  A    between atoms: C_26  and  O_29
   13  A    between atoms: C_31  and  N_41
   14  A    between atoms: C_34  and  N_35
   15  A    between atoms: N_35  and  O_37
                            x       y       z     vdW  Elec       q    Type
                         _______ _______ _______ _____ _____    ______ ____

>  <TORSDO>
F 15

$$$$
