=
 OpenBabel10232408373D

 28 31  0  0  1  0  0  0  0  0999 V2000
  183.2330  179.0840  143.5080 C   0  0  0  0  0  3  0  0  0  0  0  0
  184.4770  178.9770  141.4110 N   0  0  0  0  0  2  0  0  0  0  0  0
  184.3530  178.6190  145.5960 C   0  0  0  0  0  3  0  0  0  0  0  0
  185.5460  178.3920  144.8940 C   0  0  0  0  0  0  0  0  0  0  0  0
  183.1970  178.9650  144.8980 C   0  0  0  0  0  3  0  0  0  0  0  0
  184.4340  178.8540  142.8350 C   0  0  0  0  0  0  0  0  0  0  0  0
  185.5520  178.5150  143.5360 N   0  0  0  0  0  0  0  0  0  0  0  0
  187.9330  177.6260  144.8990 C   0  0  0  0  0  3  0  0  0  0  0  0
  186.7890  178.0270  145.6060 C   0  0  0  0  0  0  0  0  0  0  0  0
  188.0090  177.7320  147.6880 C   0  0  0  0  0  3  0  0  0  0  0  0
  190.3010  176.9850  147.6770 O   0  0  0  0  0  0  0  0  0  0  0  0
  192.4740  176.2550  147.7330 O   0  0  0  0  0  0  0  0  0  0  0  0
  189.1100  177.2820  145.5760 C   0  0  0  0  0  0  0  0  0  0  0  0
  189.1450  177.3340  146.9770 C   0  0  0  0  0  0  0  0  0  0  0  0
  190.3120  176.8630  144.8340 C   0  0  0  0  0  0  0  0  0  0  0  0
  186.8390  178.0780  147.0070 C   0  0  0  0  0  3  0  0  0  0  0  0
  191.6030  176.5730  145.5410 C   0  0  0  0  0  2  0  0  0  0  0  0
  190.2760  176.7610  143.5790 O   0  0  0  0  0  0  0  0  0  0  0  0
  191.4800  176.5890  147.0370 C   0  0  0  0  0  0  0  0  0  0  0  0
  185.6940  178.7880  140.6340 C   0  0  0  0  0  2  0  0  0  0  0  0
  187.7310  177.7850  138.6660 C   0  0  0  0  0  2  0  0  0  0  0  0
  187.4110  177.3690  136.2860 C   0  0  0  0  0  2  0  0  0  0  0  0
  185.3620  178.5280  139.1990 C   0  0  0  0  0  0  0  0  0  0  0  0
  189.6960  177.8440  137.1500 C   0  0  0  0  0  1  0  0  0  0  0  0
  186.0750  177.7390  136.9020 C   0  0  0  0  0  2  0  0  0  0  0  0
  188.3770  177.1610  137.4450 C   0  0  1  0  0  3  0  0  0  0  0  0
  186.3540  178.0350  138.2910 N   0  0  0  0  0  0  0  0  0  0  0  0
  184.1840  178.7300  138.7990 O   0  0  0  0  0  0  0  0  0  0  0  0
  1  5  2  0  0  0  0
  2  6  1  0  0  0  0
  4  3  2  0  0  0  0
  4  9  1  0  0  0  0
  5  3  1  0  0  0  0
  6  1  1  0  0  0  0
  6  7  2  0  0  0  0
  7  4  1  0  0  0  0
  8 13  2  0  0  0  0
  8  9  1  0  0  0  0
  9 16  2  0  0  0  0
 13 14  1  0  0  0  0
 14 11  1  0  0  0  0
 14 10  2  0  0  0  0
 15 17  1  0  0  0  0
 15 13  1  0  0  0  0
 16 10  1  0  0  0  0
 17 19  1  0  0  0  0
 18 15  2  0  0  0  0
 19 11  1  0  0  0  0
 19 12  2  0  0  0  0
 20  2  1  0  0  0  0
 22 25  1  0  0  0  0
 22 26  1  0  0  0  0
 23 20  1  0  0  0  0
 25 27  1  0  0  0  0
 26 24  1  6  0  0  0
 26 21  1  0  0  0  0
 27 21  1  0  0  0  0
 27 23  1  0  0  0  0
 28 23  2  0  0  0  0
M  END
>  <MODEL>
1

>  <REMARK>
 VINA RESULT:     -10.7      0.000      0.000
  Name = 
  3 active torsions:
  status: ('A' for Active; 'I' for Inactive)
    1  A    between atoms: N_5  and  C_24
    2  A    between atoms: C_6  and  C_14
    3  A    between atoms: C_7  and  C_24
                            x       y       z     vdW  Elec       q    Type
                         _______ _______ _______ _____ _____    ______ ____

>  <TORSDO>
F 3

$$$$
=
 OpenBabel10232408373D

 28 31  0  0  1  0  0  0  0  0999 V2000
  184.5540  178.7450  141.3550 C   0  0  0  0  0  3  0  0  0  0  0  0
  186.3530  178.5990  139.7130 N   0  0  0  0  0  2  0  0  0  0  0  0
  185.0260  178.3720  143.6930 C   0  0  0  0  0  3  0  0  0  0  0  0
  186.3740  178.1500  143.3750 C   0  0  0  0  0  0  0  0  0  0  0  0
  184.1180  178.6700  142.6780 C   0  0  0  0  0  3  0  0  0  0  0  0
  185.9010  178.5210  141.0660 C   0  0  0  0  0  0  0  0  0  0  0  0
  186.7710  178.2290  142.0740 N   0  0  0  0  0  0  0  0  0  0  0  0
  188.6530  177.3970  144.0990 C   0  0  0  0  0  3  0  0  0  0  0  0
  187.3610  177.8350  144.4290 C   0  0  0  0  0  0  0  0  0  0  0  0
  187.9420  177.6750  146.7840 C   0  0  0  0  0  3  0  0  0  0  0  0
  190.1350  176.9400  147.4650 O   0  0  0  0  0  0  0  0  0  0  0  0
  192.1940  176.2250  148.1750 O   0  0  0  0  0  0  0  0  0  0  0  0
  189.5870  177.1010  145.0990 C   0  0  0  0  0  0  0  0  0  0  0  0
  189.2270  177.2400  146.4480 C   0  0  0  0  0  0  0  0  0  0  0  0
  190.9440  176.6430  144.7530 C   0  0  0  0  0  0  0  0  0  0  0  0
  187.0160  177.9720  145.7810 C   0  0  0  0  0  3  0  0  0  0  0  0
  191.9800  176.4030  145.8110 C   0  0  0  0  0  2  0  0  0  0  0  0
  191.2620  176.4640  143.5470 O   0  0  0  0  0  0  0  0  0  0  0  0
  191.4420  176.5110  147.2080 C   0  0  0  0  0  0  0  0  0  0  0  0
  187.7460  178.4120  139.3290 C   0  0  0  0  0  2  0  0  0  0  0  0
  190.3060  176.9090  138.8690 C   0  0  0  0  0  2  0  0  0  0  0  0
  190.7230  175.1620  137.2220 C   0  0  0  0  0  2  0  0  0  0  0  0
  187.8640  177.3240  138.3100 C   0  0  0  0  0  0  0  0  0  0  0  0
  192.6310  176.4950  138.1030 C   0  0  0  0  0  1  0  0  0  0  0  0
  189.2540  175.5360  137.1780 C   0  0  0  0  0  2  0  0  0  0  0  0
  191.3060  175.8490  138.4500 C   0  0  1  0  0  3  0  0  0  0  0  0
  189.0970  176.6170  138.1280 N   0  0  0  0  0  0  0  0  0  0  0  0
  186.8530  177.0200  137.6210 O   0  0  0  0  0  0  0  0  0  0  0  0
  1  5  2  0  0  0  0
  2  6  1  0  0  0  0
  4  3  2  0  0  0  0
  4  9  1  0  0  0  0
  5  3  1  0  0  0  0
  6  1  1  0  0  0  0
  6  7  2  0  0  0  0
  7  4  1  0  0  0  0
  8  9  2  0  0  0  0
  8 13  1  0  0  0  0
  9 16  1  0  0  0  0
 13 14  2  0  0  0  0
 14 10  1  0  0  0  0
 14 11  1  0  0  0  0
 15 13  1  0  0  0  0
 15 17  1  0  0  0  0
 16 10  2  0  0  0  0
 17 19  1  0  0  0  0
 18 15  2  0  0  0  0
 19 11  1  0  0  0  0
 19 12  2  0  0  0  0
 20  2  1  0  0  0  0
 22 26  1  0  0  0  0
 23 20  1  0  0  0  0
 25 22  1  0  0  0  0
 25 27  1  0  0  0  0
 26 24  1  6  0  0  0
 26 21  1  0  0  0  0
 27 23  1  0  0  0  0
 27 21  1  0  0  0  0
 28 23  2  0  0  0  0
M  END
>  <MODEL>
2

>  <REMARK>
 VINA RESULT:      -9.9      1.648      2.243
  Name = 
  3 active torsions:
  status: ('A' for Active; 'I' for Inactive)
    1  A    between atoms: N_5  and  C_24
    2  A    between atoms: C_6  and  C_14
    3  A    between atoms: C_7  and  C_24
                            x       y       z     vdW  Elec       q    Type
                         _______ _______ _______ _____ _____    ______ ____

>  <TORSDO>
F 3

$$$$
=
 OpenBabel10232408373D

 28 31  0  0  1  0  0  0  0  0999 V2000
  190.0030  177.2110  146.6140 C   0  0  0  0  0  3  0  0  0  0  0  0
  190.8510  178.0070  144.4690 N   0  0  0  0  0  2  0  0  0  0  0  0
  187.6330  177.2780  147.0710 C   0  0  0  0  0  3  0  0  0  0  0  0
  187.4140  177.8290  145.8000 C   0  0  0  0  0  0  0  0  0  0  0  0
  188.9320  176.9700  147.4750 C   0  0  0  0  0  3  0  0  0  0  0  0
  189.7570  177.7600  145.3550 C   0  0  0  0  0  0  0  0  0  0  0  0
  188.4800  178.0550  144.9810 N   0  0  0  0  0  0  0  0  0  0  0  0
  185.7330  178.1850  143.9750 C   0  0  0  0  0  3  0  0  0  0  0  0
  186.0490  178.1630  145.3420 C   0  0  0  0  0  0  0  0  0  0  0  0
  183.7540  178.7830  145.8510 C   0  0  0  0  0  3  0  0  0  0  0  0
  182.1510  179.1320  144.0850 O   0  0  0  0  0  0  0  0  0  0  0  0
  180.5880  179.5010  142.4480 O   0  0  0  0  0  0  0  0  0  0  0  0
  184.4380  178.5010  143.5430 C   0  0  0  0  0  0  0  0  0  0  0  0
  183.4460  178.8030  144.4880 C   0  0  0  0  0  0  0  0  0  0  0  0
  184.1050  178.5220  142.1080 C   0  0  0  0  0  0  0  0  0  0  0  0
  185.0460  178.4640  146.2760 C   0  0  0  0  0  3  0  0  0  0  0  0
  182.7040  178.7760  141.6360 C   0  0  0  0  0  2  0  0  0  0  0  0
  185.0010  178.3050  141.2490 O   0  0  0  0  0  0  0  0  0  0  0  0
  181.7640  179.1610  142.7410 C   0  0  0  0  0  0  0  0  0  0  0  0
  190.6790  178.5440  143.1260 C   0  0  0  0  0  2  0  0  0  0  0  0
  189.3540  178.4040  140.4330 C   0  0  0  0  0  2  0  0  0  0  0  0
  189.7600  176.7780  138.6640 C   0  0  0  0  0  2  0  0  0  0  0  0
  191.0490  177.5180  142.1020 C   0  0  0  0  0  0  0  0  0  0  0  0
  187.5740  177.9630  138.7590 C   0  0  0  0  0  1  0  0  0  0  0  0
  190.7510  176.5380  139.7870 C   0  0  0  0  0  2  0  0  0  0  0  0
  189.0660  178.0980  138.9760 C   0  0  1  0  0  3  0  0  0  0  0  0
  190.4080  177.4900  140.8220 N   0  0  0  0  0  0  0  0  0  0  0  0
  191.9540  176.6840  142.3740 O   0  0  0  0  0  0  0  0  0  0  0  0
  1  5  2  0  0  0  0
  2  6  1  0  0  0  0
  3  5  1  0  0  0  0
  4  3  2  0  0  0  0
  6  1  1  0  0  0  0
  7  6  2  0  0  0  0
  7  4  1  0  0  0  0
  8  9  1  0  0  0  0
  9  4  1  0  0  0  0
  9 16  2  0  0  0  0
 10 16  1  0  0  0  0
 11 14  1  0  0  0  0
 12 19  2  0  0  0  0
 13  8  2  0  0  0  0
 13 14  1  0  0  0  0
 14 10  2  0  0  0  0
 15 13  1  0  0  0  0
 17 15  1  0  0  0  0
 17 19  1  0  0  0  0
 18 15  2  0  0  0  0
 19 11  1  0  0  0  0
 20  2  1  0  0  0  0
 21 27  1  0  0  0  0
 22 26  1  0  0  0  0
 22 25  1  0  0  0  0
 23 28  2  0  0  0  0
 23 20  1  0  0  0  0
 25 27  1  0  0  0  0
 26 24  1  1  0  0  0
 26 21  1  0  0  0  0
 27 23  1  0  0  0  0
M  END
>  <MODEL>
3

>  <REMARK>
 VINA RESULT:      -9.8      2.559      6.328
  Name = 
  3 active torsions:
  status: ('A' for Active; 'I' for Inactive)
    1  A    between atoms: N_5  and  C_24
    2  A    between atoms: C_6  and  C_14
    3  A    between atoms: C_7  and  C_24
                            x       y       z     vdW  Elec       q    Type
                         _______ _______ _______ _____ _____    ______ ____

>  <TORSDO>
F 3

$$$$
=
 OpenBabel10232408373D

 28 31  0  0  1  0  0  0  0  0999 V2000
  191.3230  176.9590  145.2720 C   0  0  0  0  0  3  0  0  0  0  0  0
  191.4890  177.3120  142.8630 N   0  0  0  0  0  2  0  0  0  0  0  0
  189.2030  177.2550  146.3890 C   0  0  0  0  0  3  0  0  0  0  0  0
  188.6140  177.5890  145.1600 C   0  0  0  0  0  0  0  0  0  0  0  0
  190.5610  176.9410  146.4400 C   0  0  0  0  0  3  0  0  0  0  0  0
  190.7120  177.2940  144.0620 C   0  0  0  0  0  0  0  0  0  0  0  0
  189.3840  177.6000  144.0350 N   0  0  0  0  0  0  0  0  0  0  0  0
  186.5310  178.0040  143.8300 C   0  0  0  0  0  3  0  0  0  0  0  0
  187.1780  177.9250  145.0720 C   0  0  0  0  0  0  0  0  0  0  0  0
  185.0820  178.4890  146.1660 C   0  0  0  0  0  3  0  0  0  0  0  0
  183.0870  178.8950  144.8730 O   0  0  0  0  0  0  0  0  0  0  0  0
  181.1650  179.3150  143.6970 O   0  0  0  0  0  0  0  0  0  0  0  0
  185.1680  178.3210  143.7490 C   0  0  0  0  0  0  0  0  0  0  0  0
  184.4430  178.5660  144.9250 C   0  0  0  0  0  0  0  0  0  0  0  0
  184.4880  178.4020  142.4450 C   0  0  0  0  0  0  0  0  0  0  0  0
  186.4390  178.1690  146.2400 C   0  0  0  0  0  3  0  0  0  0  0  0
  183.0130  178.6570  142.3500 C   0  0  0  0  0  2  0  0  0  0  0  0
  185.1410  178.2360  141.3810 O   0  0  0  0  0  0  0  0  0  0  0  0
  182.3770  178.9790  143.6710 C   0  0  0  0  0  0  0  0  0  0  0  0
  190.9230  177.6170  141.5550 C   0  0  0  0  0  2  0  0  0  0  0  0
  190.0350  176.7180  138.8290 C   0  0  0  0  0  2  0  0  0  0  0  0
  191.4450  176.0340  136.9630 C   0  0  0  0  0  2  0  0  0  0  0  0
  191.8930  177.2630  140.4730 C   0  0  0  0  0  0  0  0  0  0  0  0
  189.0980  175.2170  137.0880 C   0  0  0  0  0  1  0  0  0  0  0  0
  192.3310  176.5310  138.0890 C   0  0  0  0  0  2  0  0  0  0  0  0
  190.0160  176.3930  137.3490 C   0  0  1  0  0  3  0  0  0  0  0  0
  191.4340  176.8530  139.1790 N   0  0  0  0  0  0  0  0  0  0  0  0
  193.1280  177.3500  140.7070 O   0  0  0  0  0  0  0  0  0  0  0  0
  1  5  2  0  0  0  0
  2  6  1  0  0  0  0
  3  5  1  0  0  0  0
  4  3  2  0  0  0  0
  6  1  1  0  0  0  0
  7  6  2  0  0  0  0
  7  4  1  0  0  0  0
  8  9  1  0  0  0  0
  9  4  1  0  0  0  0
  9 16  2  0  0  0  0
 10 16  1  0  0  0  0
 11 14  1  0  0  0  0
 13  8  2  0  0  0  0
 13 14  1  0  0  0  0
 14 10  2  0  0  0  0
 15 13  1  0  0  0  0
 17 15  1  0  0  0  0
 17 19  1  0  0  0  0
 18 15  2  0  0  0  0
 19 12  2  0  0  0  0
 19 11  1  0  0  0  0
 20  2  1  0  0  0  0
 21 27  1  0  0  0  0
 22 26  1  0  0  0  0
 22 25  1  0  0  0  0
 23 28  2  0  0  0  0
 23 20  1  0  0  0  0
 25 27  1  0  0  0  0
 26 24  1  1  0  0  0
 26 21  1  0  0  0  0
 27 23  1  0  0  0  0
M  END
>  <MODEL>
4

>  <REMARK>
 VINA RESULT:      -9.6      3.127      6.251
  Name = 
  3 active torsions:
  status: ('A' for Active; 'I' for Inactive)
    1  A    between atoms: N_5  and  C_24
    2  A    between atoms: C_6  and  C_14
    3  A    between atoms: C_7  and  C_24
                            x       y       z     vdW  Elec       q    Type
                         _______ _______ _______ _____ _____    ______ ____

>  <TORSDO>
F 3

$$$$
=
 OpenBabel10232408373D

 28 31  0  0  1  0  0  0  0  0999 V2000
  182.7860  179.0180  143.2530 C   0  0  0  0  0  3  0  0  0  0  0  0
  183.4910  178.9810  140.9170 N   0  0  0  0  0  2  0  0  0  0  0  0
  184.3560  178.4380  144.9930 C   0  0  0  0  0  3  0  0  0  0  0  0
  185.3410  178.2200  144.0180 C   0  0  0  0  0  0  0  0  0  0  0  0
  183.0780  178.8370  144.6050 C   0  0  0  0  0  3  0  0  0  0  0  0
  183.7840  178.7950  142.3030 C   0  0  0  0  0  0  0  0  0  0  0  0
  185.0270  178.4040  142.7040 N   0  0  0  0  0  0  0  0  0  0  0  0
  187.1710  177.9620  145.7110 C   0  0  0  0  0  3  0  0  0  0  0  0
  186.7060  177.8000  144.3970 C   0  0  0  0  0  0  0  0  0  0  0  0
  188.8510  176.8310  143.7890 C   0  0  0  0  0  3  0  0  0  0  0  0
  190.6060  176.5980  145.4260 O   0  0  0  0  0  0  0  0  0  0  0  0
  192.3210  176.3720  146.9310 O   0  0  0  0  0  0  0  0  0  0  0  0
  188.4650  177.5620  146.0680 C   0  0  0  0  0  0  0  0  0  0  0  0
  189.3080  176.9950  145.0990 C   0  0  0  0  0  0  0  0  0  0  0  0
  188.9540  177.7300  147.4480 C   0  0  0  0  0  0  0  0  0  0  0  0
  187.5580  177.2290  143.4400 C   0  0  0  0  0  3  0  0  0  0  0  0
  190.3060  177.2290  147.8630 C   0  0  0  0  0  2  0  0  0  0  0  0
  188.2250  178.2860  148.3120 O   0  0  0  0  0  0  0  0  0  0  0  0
  191.1300  176.7180  146.7170 C   0  0  0  0  0  0  0  0  0  0  0  0
  184.4820  178.8040  139.8640 C   0  0  0  0  0  2  0  0  0  0  0  0
  186.1270  177.8460  137.5390 C   0  0  0  0  0  2  0  0  0  0  0  0
  185.3320  176.7450  135.5160 C   0  0  0  0  0  2  0  0  0  0  0  0
  183.8790  178.0970  138.6930 C   0  0  0  0  0  0  0  0  0  0  0  0
  187.4910  177.9810  135.4690 C   0  0  0  0  0  1  0  0  0  0  0  0
  184.1640  176.9240  136.4670 C   0  0  0  0  0  2  0  0  0  0  0  0
  186.5870  177.0980  136.3040 C   0  0  1  0  0  3  0  0  0  0  0  0
  184.6950  177.6400  137.6080 N   0  0  0  0  0  0  0  0  0  0  0  0
  182.6360  177.8880  138.6800 O   0  0  0  0  0  0  0  0  0  0  0  0
  1  5  2  0  0  0  0
  2  6  1  0  0  0  0
  4  9  1  0  0  0  0
  4  3  2  0  0  0  0
  5  3  1  0  0  0  0
  6  7  2  0  0  0  0
  6  1  1  0  0  0  0
  7  4  1  0  0  0  0
  8 13  1  0  0  0  0
  9  8  2  0  0  0  0
 10 14  1  0  0  0  0
 11 19  1  0  0  0  0
 13 15  1  0  0  0  0
 14 11  1  0  0  0  0
 14 13  2  0  0  0  0
 15 17  1  0  0  0  0
 15 18  2  0  0  0  0
 16 10  2  0  0  0  0
 16  9  1  0  0  0  0
 19 12  2  0  0  0  0
 19 17  1  0  0  0  0
 20  2  1  0  0  0  0
 21 27  1  0  0  0  0
 22 26  1  0  0  0  0
 22 25  1  0  0  0  0
 23 20  1  0  0  0  0
 25 27  1  0  0  0  0
 26 24  1  6  0  0  0
 26 21  1  0  0  0  0
 27 23  1  0  0  0  0
 28 23  2  0  0  0  0
M  END
>  <MODEL>
5

>  <REMARK>
 VINA RESULT:      -9.6      1.321      2.168
  Name = 
  3 active torsions:
  status: ('A' for Active; 'I' for Inactive)
    1  A    between atoms: N_5  and  C_24
    2  A    between atoms: C_6  and  C_14
    3  A    between atoms: C_7  and  C_24
                            x       y       z     vdW  Elec       q    Type
                         _______ _______ _______ _____ _____    ______ ____

>  <TORSDO>
F 3

$$$$
=
 OpenBabel10232408373D

 28 31  0  0  1  0  0  0  0  0999 V2000
  187.2840  178.0380  146.8490 C   0  0  0  0  0  3  0  0  0  0  0  0
  188.8060  177.0220  145.2350 N   0  0  0  0  0  2  0  0  0  0  0  0
  185.1120  178.8130  146.1320 C   0  0  0  0  0  3  0  0  0  0  0  0
  185.4060  178.3970  144.8260 C   0  0  0  0  0  0  0  0  0  0  0  0
  186.0560  178.6320  147.1430 C   0  0  0  0  0  3  0  0  0  0  0  0
  187.5500  177.6320  145.5410 C   0  0  0  0  0  0  0  0  0  0  0  0
  186.6150  177.8210  144.5680 N   0  0  0  0  0  0  0  0  0  0  0  0
  184.8410  178.6240  142.3940 C   0  0  0  0  0  3  0  0  0  0  0  0
  184.4260  178.5730  143.7340 C   0  0  0  0  0  0  0  0  0  0  0  0
  182.1260  178.8590  143.0010 C   0  0  0  0  0  3  0  0  0  0  0  0
  181.5980  179.0860  140.6590 O   0  0  0  0  0  0  0  0  0  0  0  0
  181.0360  179.3320  138.4500 O   0  0  0  0  0  0  0  0  0  0  0  0
  183.9100  178.7900  141.3610 C   0  0  0  0  0  0  0  0  0  0  0  0
  182.5460  178.9090  141.6690 C   0  0  0  0  0  0  0  0  0  0  0  0
  184.3440  178.8420  139.9540 C   0  0  0  0  0  0  0  0  0  0  0  0
  183.0590  178.6900  144.0260 C   0  0  0  0  0  3  0  0  0  0  0  0
  183.3510  178.9340  138.8340 C   0  0  0  0  0  2  0  0  0  0  0  0
  185.5700  178.7890  139.6700 O   0  0  0  0  0  0  0  0  0  0  0  0
  181.9400  179.1340  139.3030 C   0  0  0  0  0  0  0  0  0  0  0  0
  189.1510  176.5380  143.9050 C   0  0  0  0  0  2  0  0  0  0  0  0
  190.0200  176.8650  141.0470 C   0  0  0  0  0  2  0  0  0  0  0  0
  192.2270  177.5000  140.2330 C   0  0  0  0  0  2  0  0  0  0  0  0
  190.5310  176.9790  143.5320 C   0  0  0  0  0  0  0  0  0  0  0  0
  190.7040  176.2010  138.7550 C   0  0  0  0  0  1  0  0  0  0  0  0
  192.2180  177.5920  141.7470 C   0  0  0  0  0  2  0  0  0  0  0  0
  190.7800  177.2880  139.8060 C   0  0  1  0  0  3  0  0  0  0  0  0
  190.9070  177.1390  142.1590 N   0  0  0  0  0  0  0  0  0  0  0  0
  191.3600  177.2280  144.4470 O   0  0  0  0  0  0  0  0  0  0  0  0
  1  5  2  0  0  0  0
  2  6  1  0  0  0  0
  3  5  1  0  0  0  0
  4  3  2  0  0  0  0
  6  1  1  0  0  0  0
  7  4  1  0  0  0  0
  7  6  2  0  0  0  0
  8  9  1  0  0  0  0
  9 16  2  0  0  0  0
  9  4  1  0  0  0  0
 10 16  1  0  0  0  0
 11 14  1  0  0  0  0
 12 19  2  0  0  0  0
 13 14  1  0  0  0  0
 13  8  2  0  0  0  0
 14 10  2  0  0  0  0
 15 13  1  0  0  0  0
 17 19  1  0  0  0  0
 17 15  1  0  0  0  0
 18 15  2  0  0  0  0
 19 11  1  0  0  0  0
 20  2  1  0  0  0  0
 21 27  1  0  0  0  0
 22 25  1  0  0  0  0
 23 20  1  0  0  0  0
 23 28  2  0  0  0  0
 25 27  1  0  0  0  0
 26 24  1  6  0  0  0
 26 22  1  0  0  0  0
 26 21  1  0  0  0  0
 27 23  1  0  0  0  0
M  END
>  <MODEL>
6

>  <REMARK>
 VINA RESULT:      -9.5      2.514      7.056
  Name = 
  3 active torsions:
  status: ('A' for Active; 'I' for Inactive)
    1  A    between atoms: N_5  and  C_24
    2  A    between atoms: C_6  and  C_14
    3  A    between atoms: C_7  and  C_24
                            x       y       z     vdW  Elec       q    Type
                         _______ _______ _______ _____ _____    ______ ____

>  <TORSDO>
F 3

$$$$
=
 OpenBabel10232408373D

 28 31  0  0  1  0  0  0  0  0999 V2000
  191.6070  176.7280  143.2000 C   0  0  0  0  0  3  0  0  0  0  0  0
  191.2520  177.2870  140.8520 N   0  0  0  0  0  2  0  0  0  0  0  0
  189.7900  176.9430  144.7760 C   0  0  0  0  0  3  0  0  0  0  0  0
  188.9560  177.3870  143.7390 C   0  0  0  0  0  0  0  0  0  0  0  0
  191.1170  176.6140  144.5020 C   0  0  0  0  0  3  0  0  0  0  0  0
  190.7560  177.1710  142.1870 C   0  0  0  0  0  0  0  0  0  0  0  0
  189.4630  177.4890  142.4770 N   0  0  0  0  0  0  0  0  0  0  0  0
  186.6500  177.9560  142.9370 C   0  0  0  0  0  3  0  0  0  0  0  0
  187.5450  177.7400  143.9970 C   0  0  0  0  0  0  0  0  0  0  0  0
  185.7470  178.1990  145.5670 C   0  0  0  0  0  3  0  0  0  0  0  0
  183.5370  178.7550  144.7820 O   0  0  0  0  0  0  0  0  0  0  0  0
  181.4210  179.3120  144.0960 O   0  0  0  0  0  0  0  0  0  0  0  0
  185.3120  178.2890  143.1840 C   0  0  0  0  0  0  0  0  0  0  0  0
  184.8620  178.4130  144.5070 C   0  0  0  0  0  0  0  0  0  0  0  0
  184.3720  178.5140  142.0720 C   0  0  0  0  0  0  0  0  0  0  0  0
  187.0790  177.8640  145.3140 C   0  0  0  0  0  3  0  0  0  0  0  0
  182.9190  178.7880  142.3230 C   0  0  0  0  0  2  0  0  0  0  0  0
  184.7790  178.4580  140.8810 O   0  0  0  0  0  0  0  0  0  0  0  0
  182.5890  178.9720  143.7750 C   0  0  0  0  0  0  0  0  0  0  0  0
  190.4230  177.7090  139.7300 C   0  0  0  0  0  2  0  0  0  0  0  0
  187.9500  177.6350  138.0260 C   0  0  0  0  0  2  0  0  0  0  0  0
  187.1790  175.8060  136.6120 C   0  0  0  0  0  2  0  0  0  0  0  0
  190.0800  176.5370  138.8670 C   0  0  0  0  0  0  0  0  0  0  0  0
  185.5360  177.4660  137.4720 C   0  0  0  0  0  1  0  0  0  0  0  0
  188.5390  175.4470  137.1790 C   0  0  0  0  0  2  0  0  0  0  0  0
  186.9440  177.2720  136.9510 C   0  0  1  0  0  3  0  0  0  0  0  0
  188.9000  176.5420  138.0540 N   0  0  0  0  0  0  0  0  0  0  0  0
  190.8570  175.5450  138.8460 O   0  0  0  0  0  0  0  0  0  0  0  0
  1  5  2  0  0  0  0
  2  6  1  0  0  0  0
  4  9  1  0  0  0  0
  4  3  2  0  0  0  0
  5  3  1  0  0  0  0
  6  7  2  0  0  0  0
  6  1  1  0  0  0  0
  7  4  1  0  0  0  0
  8 13  2  0  0  0  0
  8  9  1  0  0  0  0
  9 16  2  0  0  0  0
 13 14  1  0  0  0  0
 14 11  1  0  0  0  0
 14 10  2  0  0  0  0
 15 17  1  0  0  0  0
 15 13  1  0  0  0  0
 16 10  1  0  0  0  0
 17 19  1  0  0  0  0
 18 15  2  0  0  0  0
 19 12  2  0  0  0  0
 19 11  1  0  0  0  0
 20  2  1  0  0  0  0
 21 27  1  0  0  0  0
 22 26  1  0  0  0  0
 22 25  1  0  0  0  0
 23 20  1  0  0  0  0
 25 27  1  0  0  0  0
 26 24  1  1  0  0  0
 26 21  1  0  0  0  0
 27 23  1  0  0  0  0
 28 23  2  0  0  0  0
M  END
>  <MODEL>
7

>  <REMARK>
 VINA RESULT:      -9.4      3.091      5.952
  Name = 
  3 active torsions:
  status: ('A' for Active; 'I' for Inactive)
    1  A    between atoms: N_5  and  C_24
    2  A    between atoms: C_6  and  C_14
    3  A    between atoms: C_7  and  C_24
                            x       y       z     vdW  Elec       q    Type
                         _______ _______ _______ _____ _____    ______ ____

>  <TORSDO>
F 3

$$$$
=
 OpenBabel10232408373D

 28 31  0  0  1  0  0  0  0  0999 V2000
  185.4360  178.5330  146.7360 C   0  0  0  0  0  3  0  0  0  0  0  0
  183.8190  179.2100  145.0390 N   0  0  0  0  0  2  0  0  0  0  0  0
  187.5760  177.6350  146.0690 C   0  0  0  0  0  3  0  0  0  0  0  0
  187.2080  177.7860  144.7230 C   0  0  0  0  0  0  0  0  0  0  0  0
  186.6850  178.0100  147.0730 C   0  0  0  0  0  3  0  0  0  0  0  0
  185.0960  178.6730  145.3900 C   0  0  0  0  0  0  0  0  0  0  0  0
  185.9800  178.2980  144.4230 N   0  0  0  0  0  0  0  0  0  0  0  0
  187.9490  177.8840  142.3310 C   0  0  0  0  0  3  0  0  0  0  0  0
  188.1300  177.4000  143.6360 C   0  0  0  0  0  0  0  0  0  0  0  0
  190.0830  176.1670  142.8750 C   0  0  0  0  0  3  0  0  0  0  0  0
  190.7780  176.2630  140.5680 O   0  0  0  0  0  0  0  0  0  0  0  0
  191.4750  176.2950  138.3840 O   0  0  0  0  0  0  0  0  0  0  0  0
  188.8260  177.5170  141.3020 C   0  0  0  0  0  0  0  0  0  0  0  0
  189.8960  176.6530  141.5770 C   0  0  0  0  0  0  0  0  0  0  0  0
  188.6370  178.0270  139.9320 C   0  0  0  0  0  0  0  0  0  0  0  0
  189.2070  176.5390  143.8970 C   0  0  0  0  0  3  0  0  0  0  0  0
  189.6160  177.7100  138.8400 C   0  0  0  0  0  2  0  0  0  0  0  0
  187.6500  178.7600  139.6620 O   0  0  0  0  0  0  0  0  0  0  0  0
  190.6650  176.7170  139.2490 C   0  0  0  0  0  0  0  0  0  0  0  0
  183.3970  179.4220  143.6600 C   0  0  0  0  0  2  0  0  0  0  0  0
  182.2820  178.7840  140.9440 C   0  0  0  0  0  2  0  0  0  0  0  0
  180.0210  178.0520  140.4050 C   0  0  0  0  0  2  0  0  0  0  0  0
  181.9970  178.9360  143.4630 C   0  0  0  0  0  0  0  0  0  0  0  0
  181.3860  179.1940  138.6650 C   0  0  0  0  0  1  0  0  0  0  0  0
  180.1670  178.1240  141.9140 C   0  0  0  0  0  2  0  0  0  0  0  0
  181.4210  178.2260  139.8290 C   0  0  1  0  0  3  0  0  0  0  0  0
  181.5020  178.6260  142.1540 N   0  0  0  0  0  0  0  0  0  0  0  0
  181.2560  178.7810  144.4710 O   0  0  0  0  0  0  0  0  0  0  0  0
  1  5  2  0  0  0  0
  2  6  1  0  0  0  0
  3  5  1  0  0  0  0
  4  3  2  0  0  0  0
  6  1  1  0  0  0  0
  7  4  1  0  0  0  0
  7  6  2  0  0  0  0
  8  9  1  0  0  0  0
  9 16  2  0  0  0  0
  9  4  1  0  0  0  0
 10 16  1  0  0  0  0
 11 14  1  0  0  0  0
 12 19  2  0  0  0  0
 13 14  1  0  0  0  0
 13  8  2  0  0  0  0
 14 10  2  0  0  0  0
 15 13  1  0  0  0  0
 17 19  1  0  0  0  0
 17 15  1  0  0  0  0
 18 15  2  0  0  0  0
 19 11  1  0  0  0  0
 20  2  1  0  0  0  0
 21 27  1  0  0  0  0
 22 25  1  0  0  0  0
 23 20  1  0  0  0  0
 23 28  2  0  0  0  0
 25 27  1  0  0  0  0
 26 24  1  6  0  0  0
 26 22  1  0  0  0  0
 26 21  1  0  0  0  0
 27 23  1  0  0  0  0
M  END
>  <MODEL>
8

>  <REMARK>
 VINA RESULT:      -9.4      3.126      5.685
  Name = 
  3 active torsions:
  status: ('A' for Active; 'I' for Inactive)
    1  A    between atoms: N_5  and  C_24
    2  A    between atoms: C_6  and  C_14
    3  A    between atoms: C_7  and  C_24
                            x       y       z     vdW  Elec       q    Type
                         _______ _______ _______ _____ _____    ______ ____

>  <TORSDO>
F 3

$$$$
=
 OpenBabel10232408373D

 28 31  0  0  1  0  0  0  0  0999 V2000
  185.3070  178.7510  140.5030 C   0  0  0  0  0  3  0  0  0  0  0  0
  186.8580  178.5280  138.6330 N   0  0  0  0  0  2  0  0  0  0  0  0
  186.0670  178.3200  142.7540 C   0  0  0  0  0  3  0  0  0  0  0  0
  187.3450  178.0270  142.2560 C   0  0  0  0  0  0  0  0  0  0  0  0
  185.0490  178.6820  141.8720 C   0  0  0  0  0  3  0  0  0  0  0  0
  186.5880  178.4560  140.0340 C   0  0  0  0  0  0  0  0  0  0  0  0
  187.5680  178.1020  140.9130 N   0  0  0  0  0  0  0  0  0  0  0  0
  188.2700  177.6640  144.5570 C   0  0  0  0  0  3  0  0  0  0  0  0
  188.4450  177.6430  143.1650 C   0  0  0  0  0  0  0  0  0  0  0  0
  190.7320  176.8870  143.4930 C   0  0  0  0  0  3  0  0  0  0  0  0
  191.6120  176.5520  145.7130 O   0  0  0  0  0  0  0  0  0  0  0  0
  192.5120  176.2380  147.7980 O   0  0  0  0  0  0  0  0  0  0  0  0
  189.3140  177.2980  145.4160 C   0  0  0  0  0  0  0  0  0  0  0  0
  190.5510  176.9100  144.8790 C   0  0  0  0  0  0  0  0  0  0  0  0
  189.1310  177.3170  146.8780 C   0  0  0  0  0  0  0  0  0  0  0  0
  189.6860  177.2500  142.6420 C   0  0  0  0  0  3  0  0  0  0  0  0
  190.2120  176.8480  147.8060 C   0  0  0  0  0  2  0  0  0  0  0  0
  188.0430  177.7150  147.3720 O   0  0  0  0  0  0  0  0  0  0  0  0
  191.5040  176.5370  147.1080 C   0  0  0  0  0  0  0  0  0  0  0  0
  188.1740  178.2690  138.0630 C   0  0  0  0  0  2  0  0  0  0  0  0
  190.8030  176.8150  138.0400 C   0  0  0  0  0  2  0  0  0  0  0  0
  191.2180  174.5160  137.3470 C   0  0  0  0  0  2  0  0  0  0  0  0
  188.2930  176.8350  137.6560 C   0  0  0  0  0  0  0  0  0  0  0  0
  193.0750  176.1710  137.2730 C   0  0  0  0  0  1  0  0  0  0  0  0
  189.7240  174.7740  137.3160 C   0  0  0  0  0  2  0  0  0  0  0  0
  191.8490  175.7180  138.0380 C   0  0  1  0  0  3  0  0  0  0  0  0
  189.5610  176.1680  137.6710 N   0  0  0  0  0  0  0  0  0  0  0  0
  187.2540  176.2090  137.3150 O   0  0  0  0  0  0  0  0  0  0  0  0
  1  5  2  0  0  0  0
  2  6  1  0  0  0  0
  4  3  2  0  0  0  0
  4  9  1  0  0  0  0
  5  3  1  0  0  0  0
  6  1  1  0  0  0  0
  6  7  2  0  0  0  0
  7  4  1  0  0  0  0
  8 13  1  0  0  0  0
  9  8  2  0  0  0  0
 10 14  1  0  0  0  0
 11 19  1  0  0  0  0
 13 15  1  0  0  0  0
 14 13  2  0  0  0  0
 14 11  1  0  0  0  0
 15 18  2  0  0  0  0
 15 17  1  0  0  0  0
 16  9  1  0  0  0  0
 16 10  2  0  0  0  0
 19 12  2  0  0  0  0
 19 17  1  0  0  0  0
 20  2  1  0  0  0  0
 22 26  1  0  0  0  0
 23 27  1  0  0  0  0
 23 20  1  0  0  0  0
 25 22  1  0  0  0  0
 25 27  1  0  0  0  0
 26 24  1  6  0  0  0
 26 21  1  0  0  0  0
 27 21  1  0  0  0  0
 28 23  2  0  0  0  0
M  END
>  <MODEL>
9

>  <REMARK>
 VINA RESULT:      -9.1      2.118      3.473
  Name = 
  3 active torsions:
  status: ('A' for Active; 'I' for Inactive)
    1  A    between atoms: N_5  and  C_24
    2  A    between atoms: C_6  and  C_14
    3  A    between atoms: C_7  and  C_24
                            x       y       z     vdW  Elec       q    Type
                         _______ _______ _______ _____ _____    ______ ____

>  <TORSDO>
F 3

$$$$
