=
 OpenBabel10222422023D

 44 48  0  0  1  0  0  0  0  0999 V2000
  186.6780  178.1560  144.5070 C   0  0  1  0  0  3  0  0  0  0  0  0
  187.6080  178.0250  142.1370 N   0  0  0  0  0  0  0  0  0  0  0  0
  184.9910  179.5490  143.2750 C   0  0  0  0  0  2  0  0  0  0  0  0
  186.9310  177.5330  145.8230 N   0  0  0  0  0  0  0  0  0  0  0  0
  185.1480  178.9950  146.4600 O   0  0  0  0  0  0  0  0  0  0  0  0
  185.9470  177.9100  146.8540 C   0  0  0  0  0  2  0  0  0  0  0  0
  185.5480  179.3810  141.8580 C   0  0  1  0  0  3  0  0  0  0  0  0
  184.3510  178.4940  145.4250 C   0  0  0  0  0  2  0  0  0  0  0  0
  187.6710  176.1840  143.5740 O   0  0  0  0  0  0  0  0  0  0  0  0
  187.3620  177.3960  143.4030 C   0  0  0  0  0  0  0  0  0  0  0  0
  187.0780  179.3590  141.8410 C   0  0  0  0  0  2  0  0  0  0  0  0
  185.1870  178.3210  144.1620 C   0  0  2  0  0  3  0  0  0  0  0  0
  189.9480  177.4660  141.5920 C   0  0  0  0  0  2  0  0  0  0  0  0
  188.2740  177.9030  139.7770 C   0  0  0  0  0  3  0  0  0  0  0  0
  190.8430  176.9530  140.4980 C   0  0  0  0  0  3  0  0  0  0  0  0
  190.5220  177.1240  139.2040 C   0  0  0  0  0  0  0  0  0  0  0  0
  188.4790  177.3630  141.1690 C   0  0  2  0  0  3  0  0  0  0  0  0
  189.2300  177.7500  138.8560 C   0  0  0  0  0  3  0  0  0  0  0  0
  191.3710  176.7250  138.1580 O   0  0  0  0  0  0  0  0  0  0  0  0
  191.7140  175.4070  137.8240 C   0  0  0  0  0  0  0  0  0  0  0  0
  192.9610  175.1770  137.4250 C   0  0  0  0  0  2  0  0  0  0  0  0
  190.7620  174.3750  137.9150 O   0  0  0  0  0  0  0  0  0  0  0  0
  188.9970  173.0850  137.1170 O   0  0  0  0  0  0  0  0  0  0  0  0
  189.7240  174.1080  137.0090 C   0  0  0  0  0  0  0  0  0  0  0  0
  189.5000  175.0420  135.8730 C   0  0  0  0  0  2  0  0  0  0  0  0
  188.1040  175.6260  135.9540 C   0  0  0  0  0  1  0  0  0  0  0  0
  185.0060  178.2310  141.2090 O   0  0  0  0  0  0  0  0  0  0  0  0
  182.6700  179.4250  138.5400 C   0  0  0  0  0  3  0  0  0  0  0  0
  183.9310  178.2850  140.3180 C   0  0  0  0  0  0  0  0  0  0  0  0
  183.0120  177.2160  140.3040 C   0  0  0  0  0  3  0  0  0  0  0  0
  180.9640  176.3920  139.2260 N   0  0  0  0  0  0  0  0  0  0  0  0
  181.7880  178.3500  138.5640 C   0  0  0  0  0  0  0  0  0  0  0  0
  180.0280  178.8930  136.7880 C   0  0  0  0  0  1  0  0  0  0  0  0
  183.7550  179.3840  139.4340 C   0  0  0  0  0  2  0  0  0  0  0  0
  181.9490  177.2890  139.4080 C   0  0  0  0  0  0  0  0  0  0  0  0
  180.1690  176.8670  138.2690 N   0  0  0  0  0  0  0  0  0  0  0  0
  180.6520  178.0590  137.8510 C   0  0  0  0  0  0  0  0  0  0  0  0
  188.2190  178.0270  146.2860 C   0  0  0  0  0  2  0  0  0  0  0  0
  189.1470  176.8560  146.5540 C   0  0  0  0  0  2  0  0  0  0  0  0
  190.2920  177.2910  147.4520 C   0  0  0  0  0  2  0  0  0  0  0  0
  191.5690  176.9970  146.8190 N   0  0  0  0  0  0  0  0  0  0  0  0
  192.0170  175.7290  147.3640 C   0  0  0  0  0  1  0  0  0  0  0  0
  191.7590  177.9200  144.6360 N   0  0  0  0  0  1  0  0  0  0  0  0
  191.3130  176.7710  145.4050 C   0  0  0  0  0  2  0  0  0  0  0  0
  1 10  1  6  0  0  0
  1  4  1  0  0  0  0
  2 10  1  0  0  0  0
  4 38  1  0  0  0  0
  4  6  1  0  0  0  0
  5  6  1  0  0  0  0
  7 27  1  1  0  0  0
  7  3  1  0  0  0  0
  8  5  1  0  0  0  0
 10  9  2  0  0  0  0
 11  7  1  0  0  0  0
 11  2  1  0  0  0  0
 12  3  1  6  0  0  0
 12  1  1  0  0  0  0
 12  8  1  0  0  0  0
 15 13  1  0  0  0  0
 16 15  2  0  0  0  0
 17 14  1  6  0  0  0
 17 13  1  0  0  0  0
 17  2  1  0  0  0  0
 18 16  1  0  0  0  0
 18 14  2  0  0  0  0
 19 16  1  0  0  0  0
 20 22  1  0  0  0  0
 20 19  1  0  0  0  0
 21 20  2  0  0  0  0
 24 23  2  0  0  0  0
 24 22  1  0  0  0  0
 25 26  1  0  0  0  0
 25 24  1  0  0  0  0
 28 32  2  0  0  0  0
 28 34  1  0  0  0  0
 29 27  1  0  0  0  0
 30 29  2  0  0  0  0
 31 35  2  0  0  0  0
 32 35  1  0  0  0  0
 33 37  1  0  0  0  0
 34 29  1  0  0  0  0
 35 30  1  0  0  0  0
 36 31  1  0  0  0  0
 37 36  2  0  0  0  0
 37 32  1  0  0  0  0
 38 39  1  0  0  0  0
 39 40  1  0  0  0  0
 41 42  1  0  0  0  0
 41 40  1  0  0  0  0
 43 44  1  0  0  0  0
 44 41  1  0  0  0  0
M  END
>  <MODEL>
1

>  <REMARK>
 VINA RESULT:      -8.0      0.000      0.000
  Name = 
  13 active torsions:
  status: ('A' for Active; 'I' for Inactive)
    1  A    between atoms: O_3  and  C_12
    2  A    between atoms: O_3  and  C_29
    3  A    between atoms: N_6  and  C_30
    4  A    between atoms: C_9  and  C_16
    5  A    between atoms: C_9  and  C_19
    6  A    between atoms: N_13  and  C_16
    7  A    between atoms: N_15  and  C_19
    8  A    between atoms: N_15  and  C_40
    9  A    between atoms: C_17  and  C_22
   10  A    between atoms: C_21  and  O_32
   11  A    between atoms: C_22  and  O_39
   12  A    between atoms: C_31  and  O_32
   13  A    between atoms: C_31  and  O_39
                            x       y       z     vdW  Elec       q    Type
                         _______ _______ _______ _____ _____    ______ ____

>  <TORSDO>
F 13

$$$$
=
 OpenBabel10222422023D

 44 48  0  0  1  0  0  0  0  0999 V2000
  186.7460  178.2700  144.6590 C   0  0  1  0  0  3  0  0  0  0  0  0
  187.4890  178.0360  142.2320 N   0  0  0  0  0  0  0  0  0  0  0  0
  184.9180  179.5380  143.4950 C   0  0  0  0  0  2  0  0  0  0  0  0
  187.1230  177.7300  145.9820 N   0  0  0  0  0  0  0  0  0  0  0  0
  185.3460  179.1680  146.6820 O   0  0  0  0  0  0  0  0  0  0  0  0
  186.2120  178.1330  147.0680 C   0  0  0  0  0  2  0  0  0  0  0  0
  185.3670  179.3090  142.0480 C   0  0  1  0  0  3  0  0  0  0  0  0
  184.4880  178.5860  145.7430 C   0  0  0  0  0  2  0  0  0  0  0  0
  187.7320  176.2810  143.7560 O   0  0  0  0  0  0  0  0  0  0  0  0
  187.3670  177.4710  143.5460 C   0  0  0  0  0  0  0  0  0  0  0  0
  186.8910  179.3340  141.9090 C   0  0  0  0  0  2  0  0  0  0  0  0
  185.2270  178.3680  144.4280 C   0  0  2  0  0  3  0  0  0  0  0  0
  189.7790  177.3240  141.6520 C   0  0  0  0  0  2  0  0  0  0  0  0
  188.1360  177.9550  139.8650 C   0  0  0  0  0  3  0  0  0  0  0  0
  190.6290  176.7880  140.5320 C   0  0  0  0  0  3  0  0  0  0  0  0
  190.3170  177.0320  139.2480 C   0  0  0  0  0  0  0  0  0  0  0  0
  188.3050  177.3480  141.2340 C   0  0  2  0  0  3  0  0  0  0  0  0
  189.0750  177.7670  138.9330 C   0  0  0  0  0  3  0  0  0  0  0  0
  191.1290  176.6120  138.1820 O   0  0  0  0  0  0  0  0  0  0  0  0
  191.1940  175.3170  137.6480 C   0  0  0  0  0  0  0  0  0  0  0  0
  190.0620  174.7710  137.2160 C   0  0  0  0  0  2  0  0  0  0  0  0
  192.4220  174.6330  137.5770 O   0  0  0  0  0  0  0  0  0  0  0  0
  193.8400  176.2980  138.3720 O   0  0  0  0  0  0  0  0  0  0  0  0
  193.6720  175.1040  138.0070 C   0  0  0  0  0  0  0  0  0  0  0  0
  194.8340  174.1760  137.9970 C   0  0  0  0  0  2  0  0  0  0  0  0
  195.7120  174.4380  139.2040 C   0  0  0  0  0  1  0  0  0  0  0  0
  184.8170  178.1070  141.5080 O   0  0  0  0  0  0  0  0  0  0  0  0
  183.7500  178.3160  137.9260 C   0  0  0  0  0  3  0  0  0  0  0  0
  184.0220  178.0740  140.3590 C   0  0  0  0  0  0  0  0  0  0  0  0
  182.6570  177.7460  140.4930 C   0  0  0  0  0  3  0  0  0  0  0  0
  180.5730  177.4320  139.2310 N   0  0  0  0  0  0  0  0  0  0  0  0
  182.4100  177.9910  138.1080 C   0  0  0  0  0  0  0  0  0  0  0  0
  181.3880  178.0500  135.7630 C   0  0  0  0  0  1  0  0  0  0  0  0
  184.5610  178.3550  139.0750 C   0  0  0  0  0  2  0  0  0  0  0  0
  181.8830  177.7170  139.3370 C   0  0  0  0  0  0  0  0  0  0  0  0
  180.2520  177.5200  137.9420 N   0  0  0  0  0  0  0  0  0  0  0  0
  181.3570  177.8600  137.2390 C   0  0  0  0  0  0  0  0  0  0  0  0
  188.4260  178.2890  146.3120 C   0  0  0  0  0  2  0  0  0  0  0  0
  189.0540  177.4890  147.4390 C   0  0  0  0  0  2  0  0  0  0  0  0
  189.9980  176.4420  146.8740 C   0  0  0  0  0  2  0  0  0  0  0  0
  191.3570  176.9620  146.8300 N   0  0  0  0  0  0  0  0  0  0  0  0
  192.2270  175.8770  147.2450 C   0  0  0  0  0  1  0  0  0  0  0  0
  191.4190  176.0550  144.6340 N   0  0  0  0  0  1  0  0  0  0  0  0
  191.6740  177.2380  145.4380 C   0  0  0  0  0  2  0  0  0  0  0  0
  1 10  1  6  0  0  0
  1  4  1  0  0  0  0
  2 10  1  0  0  0  0
  4 38  1  0  0  0  0
  4  6  1  0  0  0  0
  5  6  1  0  0  0  0
  7 27  1  1  0  0  0
  7  3  1  0  0  0  0
  8  5  1  0  0  0  0
 10  9  2  0  0  0  0
 11  7  1  0  0  0  0
 11  2  1  0  0  0  0
 12  3  1  6  0  0  0
 12  1  1  0  0  0  0
 12  8  1  0  0  0  0
 15 13  1  0  0  0  0
 16 15  2  0  0  0  0
 17 14  1  6  0  0  0
 17 13  1  0  0  0  0
 17  2  1  0  0  0  0
 18 16  1  0  0  0  0
 18 14  2  0  0  0  0
 19 16  1  0  0  0  0
 20 19  1  0  0  0  0
 21 20  2  0  0  0  0
 22 20  1  0  0  0  0
 22 24  1  0  0  0  0
 24 23  2  0  0  0  0
 25 24  1  0  0  0  0
 25 26  1  0  0  0  0
 28 32  2  0  0  0  0
 28 34  1  0  0  0  0
 29 30  2  0  0  0  0
 29 27  1  0  0  0  0
 31 35  2  0  0  0  0
 32 35  1  0  0  0  0
 33 37  1  0  0  0  0
 34 29  1  0  0  0  0
 35 30  1  0  0  0  0
 36 31  1  0  0  0  0
 37 36  2  0  0  0  0
 37 32  1  0  0  0  0
 38 39  1  0  0  0  0
 40 39  1  0  0  0  0
 41 40  1  0  0  0  0
 41 42  1  0  0  0  0
 43 44  1  0  0  0  0
 44 41  1  0  0  0  0
M  END
>  <MODEL>
2

>  <REMARK>
 VINA RESULT:      -7.6      1.036      2.070
  Name = 
  13 active torsions:
  status: ('A' for Active; 'I' for Inactive)
    1  A    between atoms: O_3  and  C_12
    2  A    between atoms: O_3  and  C_29
    3  A    between atoms: N_6  and  C_30
    4  A    between atoms: C_9  and  C_16
    5  A    between atoms: C_9  and  C_19
    6  A    between atoms: N_13  and  C_16
    7  A    between atoms: N_15  and  C_19
    8  A    between atoms: N_15  and  C_40
    9  A    between atoms: C_17  and  C_22
   10  A    between atoms: C_21  and  O_32
   11  A    between atoms: C_22  and  O_39
   12  A    between atoms: C_31  and  O_32
   13  A    between atoms: C_31  and  O_39
                            x       y       z     vdW  Elec       q    Type
                         _______ _______ _______ _____ _____    ______ ____

>  <TORSDO>
F 13

$$$$
=
 OpenBabel10222422023D

 44 48  0  0  1  0  0  0  0  0999 V2000
  189.8190  176.5480  137.4390 C   0  0  1  0  0  3  0  0  0  0  0  0
  187.9400  177.5940  138.8080 N   0  0  0  0  0  0  0  0  0  0  0  0
  191.1000  177.3350  139.4490 C   0  0  0  0  0  2  0  0  0  0  0  0
  189.9650  175.7320  136.2150 N   0  0  0  0  0  0  0  0  0  0  0  0
  192.2800  175.9540  136.7710 O   0  0  0  0  0  0  0  0  0  0  0  0
  191.3460  175.2840  135.9650 C   0  0  0  0  0  2  0  0  0  0  0  0
  189.9270  177.8860  140.2670 C   0  0  1  0  0  3  0  0  0  0  0  0
  192.0250  175.4960  138.0680 C   0  0  0  0  0  2  0  0  0  0  0  0
  187.6070  175.6360  137.5770 O   0  0  0  0  0  0  0  0  0  0  0  0
  188.3920  176.5630  137.9170 C   0  0  0  0  0  0  0  0  0  0  0  0
  188.8780  178.5630  139.3810 C   0  0  0  0  0  2  0  0  0  0  0  0
  190.7390  176.1200  138.5960 C   0  0  2  0  0  3  0  0  0  0  0  0
  185.7810  178.3000  137.8450 C   0  0  0  0  0  2  0  0  0  0  0  0
  186.2460  178.5690  140.2940 C   0  0  0  0  0  3  0  0  0  0  0  0
  184.3520  178.6170  138.1890 C   0  0  0  0  0  3  0  0  0  0  0  0
  184.0170  179.0610  139.4120 C   0  0  0  0  0  0  0  0  0  0  0  0
  186.5090  177.7330  139.0680 C   0  0  2  0  0  3  0  0  0  0  0  0
  185.0580  179.1580  140.4570 C   0  0  0  0  0  3  0  0  0  0  0  0
  182.7060  179.4390  139.7440 O   0  0  0  0  0  0  0  0  0  0  0  0
  181.9260  178.9070  140.7820 C   0  0  0  0  0  0  0  0  0  0  0  0
  181.1880  177.8340  140.5110 C   0  0  0  0  0  2  0  0  0  0  0  0
  181.9350  179.4970  142.0580 O   0  0  0  0  0  0  0  0  0  0  0  0
  180.4750  178.2640  143.3850 O   0  0  0  0  0  0  0  0  0  0  0  0
  181.5600  178.8900  143.2670 C   0  0  0  0  0  0  0  0  0  0  0  0
  182.4550  179.0230  144.4480 C   0  0  0  0  0  2  0  0  0  0  0  0
  183.8510  179.4040  143.9960 C   0  0  0  0  0  1  0  0  0  0  0  0
  189.3380  176.8800  141.0900 O   0  0  0  0  0  0  0  0  0  0  0  0
  190.0450  177.2400  144.7480 C   0  0  0  0  0  3  0  0  0  0  0  0
  189.1490  177.0270  142.4680 C   0  0  0  0  0  0  0  0  0  0  0  0
  187.8320  177.1180  142.9620 C   0  0  0  0  0  3  0  0  0  0  0  0
  186.5120  177.3700  145.0180 N   0  0  0  0  0  0  0  0  0  0  0  0
  188.7290  177.3230  145.1890 C   0  0  0  0  0  0  0  0  0  0  0  0
  188.8940  177.5850  147.7290 C   0  0  0  0  0  1  0  0  0  0  0  0
  190.2490  177.0900  143.3640 C   0  0  0  0  0  3  0  0  0  0  0  0
  187.6650  177.2640  144.3360 C   0  0  0  0  0  0  0  0  0  0  0  0
  186.8240  177.4960  146.3060 N   0  0  0  0  0  2  0  0  0  0  0  0
  188.1700  177.4700  146.4340 C   0  0  0  0  0  0  0  0  0  0  0  0
  189.6000  176.5830  135.0920 C   0  0  0  0  0  2  0  0  0  0  0  0
  188.4080  175.9870  134.3670 C   0  0  0  0  0  2  0  0  0  0  0  0
  188.3040  174.5010  134.6650 C   0  0  0  0  0  2  0  0  0  0  0  0
  186.9680  174.0170  134.3470 N   0  0  0  0  0  0  0  0  0  0  0  0
  186.6260  173.0490  135.3730 C   0  0  0  0  0  1  0  0  0  0  0  0
  185.1390  174.8630  135.6080 N   0  0  0  0  0  1  0  0  0  0  0  0
  186.0490  175.1330  134.5090 C   0  0  0  0  0  2  0  0  0  0  0  0
  1 10  1  1  0  0  0
  1 12  1  0  0  0  0
  2 17  1  0  0  0  0
  2 11  1  0  0  0  0
  3  7  1  0  0  0  0
  4  1  1  0  0  0  0
  5  8  1  0  0  0  0
  6  4  1  0  0  0  0
  6  5  1  0  0  0  0
  7 27  1  6  0  0  0
  9 10  2  0  0  0  0
 10  2  1  0  0  0  0
 11  7  1  0  0  0  0
 12  8  1  6  0  0  0
 12  3  1  0  0  0  0
 13 15  1  0  0  0  0
 14 18  2  0  0  0  0
 15 16  2  0  0  0  0
 16 19  1  0  0  0  0
 16 18  1  0  0  0  0
 17 13  1  6  0  0  0
 17 14  1  0  0  0  0
 19 20  1  0  0  0  0
 20 22  1  0  0  0  0
 21 20  2  0  0  0  0
 22 24  1  0  0  0  0
 24 23  2  0  0  0  0
 24 25  1  0  0  0  0
 26 25  1  0  0  0  0
 27 29  1  0  0  0  0
 28 32  1  0  0  0  0
 29 30  2  0  0  0  0
 29 34  1  0  0  0  0
 30 35  1  0  0  0  0
 31 36  1  0  0  0  0
 32 37  2  0  0  0  0
 34 28  2  0  0  0  0
 35 31  2  0  0  0  0
 35 32  1  0  0  0  0
 36 37  1  0  0  0  0
 37 33  1  0  0  0  0
 38  4  1  0  0  0  0
 39 40  1  0  0  0  0
 39 38  1  0  0  0  0
 41 44  1  0  0  0  0
 41 40  1  0  0  0  0
 41 42  1  0  0  0  0
 44 43  1  0  0  0  0
M  END
>  <MODEL>
3

>  <REMARK>
 VINA RESULT:      -6.9      2.703      9.515
  Name = 
  13 active torsions:
  status: ('A' for Active; 'I' for Inactive)
    1  A    between atoms: O_3  and  C_12
    2  A    between atoms: O_3  and  C_29
    3  A    between atoms: N_6  and  C_30
    4  A    between atoms: C_9  and  C_16
    5  A    between atoms: C_9  and  C_19
    6  A    between atoms: N_13  and  C_16
    7  A    between atoms: N_15  and  C_19
    8  A    between atoms: N_15  and  C_40
    9  A    between atoms: C_17  and  C_22
   10  A    between atoms: C_21  and  O_32
   11  A    between atoms: C_22  and  O_39
   12  A    between atoms: C_31  and  O_32
   13  A    between atoms: C_31  and  O_39
                            x       y       z     vdW  Elec       q    Type
                         _______ _______ _______ _____ _____    ______ ____

>  <TORSDO>
F 13

$$$$
=
 OpenBabel10222422023D

 44 48  0  0  1  0  0  0  0  0999 V2000
  189.9800  176.8580  145.5230 C   0  0  1  0  0  3  0  0  0  0  0  0
  188.5630  177.3890  143.4710 N   0  0  0  0  0  0  0  0  0  0  0  0
  191.0560  175.3580  143.8230 C   0  0  0  0  0  2  0  0  0  0  0  0
  190.1560  177.3680  146.8990 N   0  0  0  0  0  0  0  0  0  0  0  0
  191.7450  175.5830  146.9760 O   0  0  0  0  0  0  0  0  0  0  0  0
  191.2680  176.7310  147.6270 C   0  0  0  0  0  2  0  0  0  0  0  0
  190.2240  175.7620  142.6010 C   0  0  1  0  0  3  0  0  0  0  0  0
  192.3570  176.0600  145.8120 C   0  0  0  0  0  2  0  0  0  0  0  0
  189.1670  179.0510  144.9980 O   0  0  0  0  0  0  0  0  0  0  0  0
  189.2060  177.8320  144.6760 C   0  0  0  0  0  0  0  0  0  0  0  0
  188.7610  176.0280  142.9650 C   0  0  0  0  0  2  0  0  0  0  0  0
  191.2950  176.4980  144.8090 C   0  0  2  0  0  3  0  0  0  0  0  0
  186.1770  177.8420  143.0400 C   0  0  0  0  0  2  0  0  0  0  0  0
  187.9200  178.3860  141.3220 C   0  0  0  0  0  3  0  0  0  0  0  0
  185.2360  178.6490  142.1870 C   0  0  0  0  0  3  0  0  0  0  0  0
  185.5960  179.0610  140.9590 C   0  0  0  0  0  0  0  0  0  0  0  0
  187.6240  178.2820  142.7960 C   0  0  2  0  0  3  0  0  0  0  0  0
  186.9660  178.7880  140.4770 C   0  0  0  0  0  3  0  0  0  0  0  0
  184.7160  179.7490  140.1080 O   0  0  0  0  0  0  0  0  0  0  0  0
  183.8460  179.1740  139.1710 C   0  0  0  0  0  0  0  0  0  0  0  0
  182.7600  179.8630  138.8350 C   0  0  0  0  0  2  0  0  0  0  0  0
  184.1280  177.9140  138.6120 O   0  0  0  0  0  0  0  0  0  0  0  0
  184.0270  177.1270  136.4250 O   0  0  0  0  0  0  0  0  0  0  0  0
  184.6910  177.6610  137.3520 C   0  0  0  0  0  0  0  0  0  0  0  0
  186.1210  178.0000  137.1200 C   0  0  0  0  0  2  0  0  0  0  0  0
  186.9840  176.7750  137.3470 C   0  0  0  0  0  1  0  0  0  0  0  0
  190.7970  176.8760  141.9170 O   0  0  0  0  0  0  0  0  0  0  0  0
  193.3690  176.9140  139.1980 C   0  0  0  0  0  3  0  0  0  0  0  0
  191.3930  176.7800  140.6560 C   0  0  0  0  0  0  0  0  0  0  0  0
  190.5850  176.4340  139.5530 C   0  0  0  0  0  3  0  0  0  0  0  0
  190.6270  176.0320  137.1300 N   0  0  0  0  0  0  0  0  0  0  0  0
  192.5330  176.5740  138.1400 C   0  0  0  0  0  0  0  0  0  0  0  0
  194.0530  176.5170  136.0820 C   0  0  0  0  0  1  0  0  0  0  0  0
  192.7810  177.0170  140.4710 C   0  0  0  0  0  2  0  0  0  0  0  0
  191.1980  176.3430  138.3070 C   0  0  0  0  0  0  0  0  0  0  0  0
  191.5840  176.0600  136.2060 N   0  0  0  0  0  0  0  0  0  0  0  0
  192.7550  176.3880  136.7990 C   0  0  0  0  0  0  0  0  0  0  0  0
  188.9440  177.0370  147.6330 C   0  0  0  0  0  2  0  0  0  0  0  0
  188.4090  178.2800  148.3200 C   0  0  0  0  0  2  0  0  0  0  0  0
  186.9060  178.3800  148.1250 C   0  0  0  0  0  2  0  0  0  0  0  0
  186.5880  178.4760  146.7070 N   0  0  0  0  0  0  0  0  0  0  0  0
  185.9150  177.2410  146.3500 C   0  0  0  0  0  1  0  0  0  0  0  0
  184.3900  179.0040  145.9690 N   0  0  0  0  0  1  0  0  0  0  0  0
  185.6090  179.5400  146.5510 C   0  0  0  0  0  2  0  0  0  0  0  0
  1 10  1  6  0  0  0
  1  4  1  0  0  0  0
  2 10  1  0  0  0  0
  4  6  1  0  0  0  0
  4 38  1  0  0  0  0
  5  6  1  0  0  0  0
  7 27  1  1  0  0  0
  7 11  1  0  0  0  0
  7  3  1  0  0  0  0
  8  5  1  0  0  0  0
 10  9  2  0  0  0  0
 11  2  1  0  0  0  0
 12  3  1  6  0  0  0
 12  1  1  0  0  0  0
 12  8  1  0  0  0  0
 15 13  1  0  0  0  0
 16 15  2  0  0  0  0
 17 14  1  6  0  0  0
 17 13  1  0  0  0  0
 17  2  1  0  0  0  0
 18 16  1  0  0  0  0
 18 14  2  0  0  0  0
 19 16  1  0  0  0  0
 20 19  1  0  0  0  0
 21 20  2  0  0  0  0
 22 20  1  0  0  0  0
 23 24  2  0  0  0  0
 24 22  1  0  0  0  0
 25 26  1  0  0  0  0
 25 24  1  0  0  0  0
 28 34  1  0  0  0  0
 29 27  1  0  0  0  0
 30 29  2  0  0  0  0
 31 35  2  0  0  0  0
 32 35  1  0  0  0  0
 32 28  2  0  0  0  0
 33 37  1  0  0  0  0
 34 29  1  0  0  0  0
 35 30  1  0  0  0  0
 36 37  2  0  0  0  0
 36 31  1  0  0  0  0
 37 32  1  0  0  0  0
 38 39  1  0  0  0  0
 40 39  1  0  0  0  0
 41 40  1  0  0  0  0
 42 41  1  0  0  0  0
 43 44  1  0  0  0  0
 44 41  1  0  0  0  0
M  END
>  <MODEL>
4

>  <REMARK>
 VINA RESULT:      -6.8      2.923      7.100
  Name = 
  13 active torsions:
  status: ('A' for Active; 'I' for Inactive)
    1  A    between atoms: O_3  and  C_12
    2  A    between atoms: O_3  and  C_29
    3  A    between atoms: N_6  and  C_30
    4  A    between atoms: C_9  and  C_16
    5  A    between atoms: C_9  and  C_19
    6  A    between atoms: N_13  and  C_16
    7  A    between atoms: N_15  and  C_19
    8  A    between atoms: N_15  and  C_40
    9  A    between atoms: C_17  and  C_22
   10  A    between atoms: C_21  and  O_32
   11  A    between atoms: C_22  and  O_39
   12  A    between atoms: C_31  and  O_32
   13  A    between atoms: C_31  and  O_39
                            x       y       z     vdW  Elec       q    Type
                         _______ _______ _______ _____ _____    ______ ____

>  <TORSDO>
F 13

$$$$
=
 OpenBabel10222422023D

 44 48  0  0  1  0  0  0  0  0999 V2000
  189.9740  176.9040  145.4990 C   0  0  1  0  0  3  0  0  0  0  0  0
  188.5220  177.4130  143.4660 N   0  0  0  0  0  0  0  0  0  0  0  0
  191.0220  175.3870  143.7960 C   0  0  0  0  0  2  0  0  0  0  0  0
  190.1740  177.4280  146.8660 N   0  0  0  0  0  0  0  0  0  0  0  0
  191.7660  175.6450  146.9340 O   0  0  0  0  0  0  0  0  0  0  0  0
  191.2990  176.8000  147.5820 C   0  0  0  0  0  2  0  0  0  0  0  0
  190.1690  175.7790  142.5850 C   0  0  1  0  0  3  0  0  0  0  0  0
  192.3570  176.1110  145.7550 C   0  0  0  0  0  2  0  0  0  0  0  0
  189.1500  179.0910  144.9660 O   0  0  0  0  0  0  0  0  0  0  0  0
  189.1840  177.8680  144.6560 C   0  0  0  0  0  0  0  0  0  0  0  0
  188.7120  176.0460  142.9710 C   0  0  0  0  0  2  0  0  0  0  0  0
  191.2770  176.5380  144.7660 C   0  0  2  0  0  3  0  0  0  0  0  0
  186.1280  177.8560  143.0670 C   0  0  0  0  0  2  0  0  0  0  0  0
  187.8440  178.3910  141.3190 C   0  0  0  0  0  3  0  0  0  0  0  0
  185.1720  178.6530  142.2220 C   0  0  0  0  0  3  0  0  0  0  0  0
  185.5120  179.0560  140.9860 C   0  0  0  0  0  0  0  0  0  0  0  0
  187.5700  178.2970  142.7990 C   0  0  2  0  0  3  0  0  0  0  0  0
  186.8760  178.7840  140.4860 C   0  0  0  0  0  3  0  0  0  0  0  0
  184.6190  179.7360  140.1430 O   0  0  0  0  0  0  0  0  0  0  0  0
  183.5110  179.1810  139.4850 C   0  0  0  0  0  0  0  0  0  0  0  0
  183.7470  178.3790  138.4520 C   0  0  0  0  0  2  0  0  0  0  0  0
  182.2040  179.4700  139.9170 O   0  0  0  0  0  0  0  0  0  0  0  0
  181.1380  177.4690  140.4410 O   0  0  0  0  0  0  0  0  0  0  0  0
  181.3920  178.6670  140.7330 C   0  0  0  0  0  0  0  0  0  0  0  0
  180.7890  179.2600  141.9560 C   0  0  0  0  0  2  0  0  0  0  0  0
  181.7630  179.1600  143.1120 C   0  0  0  0  0  1  0  0  0  0  0  0
  190.7290  176.8850  141.8790 O   0  0  0  0  0  0  0  0  0  0  0  0
  193.2660  176.9090  139.1260 C   0  0  0  0  0  3  0  0  0  0  0  0
  191.3100  176.7760  140.6120 C   0  0  0  0  0  0  0  0  0  0  0  0
  190.4920  176.4040  139.5250 C   0  0  0  0  0  3  0  0  0  0  0  0
  190.5070  175.9630  137.1090 N   0  0  0  0  0  0  0  0  0  0  0  0
  192.4200  176.5430  138.0850 C   0  0  0  0  0  0  0  0  0  0  0  0
  193.9130  176.4690  136.0090 C   0  0  0  0  0  1  0  0  0  0  0  0
  192.6930  177.0250  140.4060 C   0  0  0  0  0  2  0  0  0  0  0  0
  191.0900  176.3000  138.2730 C   0  0  0  0  0  0  0  0  0  0  0  0
  191.4520  175.9860  136.1720 N   0  0  0  0  0  0  0  0  0  0  0  0
  192.6260  176.3370  136.7440 C   0  0  0  0  0  0  0  0  0  0  0  0
  188.9740  177.1030  147.6240 C   0  0  0  0  0  2  0  0  0  0  0  0
  188.3830  178.3720  148.2100 C   0  0  0  0  0  2  0  0  0  0  0  0
  186.8810  178.4020  147.9830 C   0  0  0  0  0  2  0  0  0  0  0  0
  186.5890  178.4250  146.5570 N   0  0  0  0  0  0  0  0  0  0  0  0
  185.9240  177.1710  146.2530 C   0  0  0  0  0  1  0  0  0  0  0  0
  184.3080  178.8880  146.0680 N   0  0  0  0  0  1  0  0  0  0  0  0
  185.6110  179.4770  146.3290 C   0  0  0  0  0  2  0  0  0  0  0  0
  1 10  1  6  0  0  0
  1  4  1  0  0  0  0
  2 10  1  0  0  0  0
  4  6  1  0  0  0  0
  4 38  1  0  0  0  0
  5  6  1  0  0  0  0
  7 27  1  1  0  0  0
  7 11  1  0  0  0  0
  7  3  1  0  0  0  0
  8  5  1  0  0  0  0
 10  9  2  0  0  0  0
 11  2  1  0  0  0  0
 12  3  1  6  0  0  0
 12  1  1  0  0  0  0
 12  8  1  0  0  0  0
 15 13  1  0  0  0  0
 16 15  2  0  0  0  0
 17 14  1  6  0  0  0
 17 13  1  0  0  0  0
 17  2  1  0  0  0  0
 18 16  1  0  0  0  0
 18 14  2  0  0  0  0
 19 16  1  0  0  0  0
 20 22  1  0  0  0  0
 20 19  1  0  0  0  0
 21 20  2  0  0  0  0
 22 24  1  0  0  0  0
 23 24  2  0  0  0  0
 24 25  1  0  0  0  0
 25 26  1  0  0  0  0
 28 34  1  0  0  0  0
 29 27  1  0  0  0  0
 30 29  2  0  0  0  0
 31 35  2  0  0  0  0
 32 35  1  0  0  0  0
 32 28  2  0  0  0  0
 33 37  1  0  0  0  0
 34 29  1  0  0  0  0
 35 30  1  0  0  0  0
 36 37  2  0  0  0  0
 36 31  1  0  0  0  0
 37 32  1  0  0  0  0
 38 39  1  0  0  0  0
 40 39  1  0  0  0  0
 41 40  1  0  0  0  0
 42 41  1  0  0  0  0
 43 44  1  0  0  0  0
 44 41  1  0  0  0  0
M  END
>  <MODEL>
5

>  <REMARK>
 VINA RESULT:      -6.7      2.957      7.601
  Name = 
  13 active torsions:
  status: ('A' for Active; 'I' for Inactive)
    1  A    between atoms: O_3  and  C_12
    2  A    between atoms: O_3  and  C_29
    3  A    between atoms: N_6  and  C_30
    4  A    between atoms: C_9  and  C_16
    5  A    between atoms: C_9  and  C_19
    6  A    between atoms: N_13  and  C_16
    7  A    between atoms: N_15  and  C_19
    8  A    between atoms: N_15  and  C_40
    9  A    between atoms: C_17  and  C_22
   10  A    between atoms: C_21  and  O_32
   11  A    between atoms: C_22  and  O_39
   12  A    between atoms: C_31  and  O_32
   13  A    between atoms: C_31  and  O_39
                            x       y       z     vdW  Elec       q    Type
                         _______ _______ _______ _____ _____    ______ ____

>  <TORSDO>
F 13

$$$$
=
 OpenBabel10222422023D

 44 48  0  0  1  0  0  0  0  0999 V2000
  191.1300  176.4770  138.0780 C   0  0  1  0  0  3  0  0  0  0  0  0
  188.6020  176.6740  137.8210 N   0  0  0  0  0  0  0  0  0  0  0  0
  190.6110  178.1200  139.9030 C   0  0  0  0  0  2  0  0  0  0  0  0
  192.2280  175.6460  137.5410 N   0  0  0  0  0  0  0  0  0  0  0  0
  193.5230  177.0710  138.9600 O   0  0  0  0  0  0  0  0  0  0  0  0
  193.5310  175.9020  138.1820 C   0  0  0  0  0  2  0  0  0  0  0  0
  189.0860  178.1500  139.7570 C   0  0  1  0  0  3  0  0  0  0  0  0
  192.6880  176.7740  140.0420 C   0  0  0  0  0  2  0  0  0  0  0  0
  189.7000  174.6310  137.5390 O   0  0  0  0  0  0  0  0  0  0  0  0
  189.7880  175.8670  137.7770 C   0  0  0  0  0  0  0  0  0  0  0  0
  188.6480  178.0610  138.2930 C   0  0  0  0  0  2  0  0  0  0  0  0
  191.2330  176.7620  139.5870 C   0  0  2  0  0  3  0  0  0  0  0  0
  187.4040  176.0090  135.7700 C   0  0  0  0  0  2  0  0  0  0  0  0
  186.1640  176.9480  137.7360 C   0  0  0  0  0  3  0  0  0  0  0  0
  186.0500  175.6340  135.2300 C   0  0  0  0  0  3  0  0  0  0  0  0
  184.9250  176.0830  135.8110 C   0  0  0  0  0  0  0  0  0  0  0  0
  187.3510  176.1310  137.2960 C   0  0  2  0  0  3  0  0  0  0  0  0
  185.0200  176.8860  137.0480 C   0  0  0  0  0  3  0  0  0  0  0  0
  183.6490  175.8140  135.2900 O   0  0  0  0  0  0  0  0  0  0  0  0
  182.6860  174.9620  135.8480 C   0  0  0  0  0  0  0  0  0  0  0  0
  181.6750  175.5210  136.5070 C   0  0  0  0  0  2  0  0  0  0  0  0
  182.7970  173.5670  135.7070 O   0  0  0  0  0  0  0  0  0  0  0  0
  183.9630  171.5680  135.9510 O   0  0  0  0  0  0  0  0  0  0  0  0
  183.6980  172.7240  136.3750 C   0  0  0  0  0  0  0  0  0  0  0  0
  184.3280  173.1970  137.6370 C   0  0  0  0  0  2  0  0  0  0  0  0
  185.8080  172.8700  137.6270 C   0  0  0  0  0  1  0  0  0  0  0  0
  188.4600  177.1410  140.5470 O   0  0  0  0  0  0  0  0  0  0  0  0
  189.2740  176.8590  144.1900 C   0  0  0  0  0  3  0  0  0  0  0  0
  188.3470  177.2120  141.9390 C   0  0  0  0  0  0  0  0  0  0  0  0
  187.1610  177.7330  142.4940 C   0  0  0  0  0  3  0  0  0  0  0  0
  186.0410  178.2520  144.6180 N   0  0  0  0  0  0  0  0  0  0  0  0
  188.0840  177.3760  144.6910 C   0  0  0  0  0  0  0  0  0  0  0  0
  188.3510  177.3130  147.2350 C   0  0  0  0  0  1  0  0  0  0  0  0
  189.3980  176.7790  142.7910 C   0  0  0  0  0  3  0  0  0  0  0  0
  187.0690  177.7970  143.8810 C   0  0  0  0  0  0  0  0  0  0  0  0
  186.3860  178.1300  145.8970 N   0  0  0  0  0  2  0  0  0  0  0  0
  187.6280  177.5980  145.9660 C   0  0  0  0  0  0  0  0  0  0  0  0
  192.3840  176.0020  136.1390 C   0  0  0  0  0  2  0  0  0  0  0  0
  193.7160  175.4840  135.6260 C   0  0  0  0  0  2  0  0  0  0  0  0
  194.3070  176.4630  134.6270 C   0  0  0  0  0  2  0  0  0  0  0  0
  195.7480  176.2780  134.5350 N   0  0  0  0  0  0  0  0  0  0  0  0
  196.3390  177.6030  134.5950 C   0  0  0  0  0  1  0  0  0  0  0  0
  197.5070  176.0250  136.1140 N   0  0  0  0  0  1  0  0  0  0  0  0
  196.1760  175.5800  135.7360 C   0  0  0  0  0  2  0  0  0  0  0  0
  1 10  1  1  0  0  0
  1 12  1  0  0  0  0
  2 11  1  0  0  0  0
  4  1  1  0  0  0  0
  4  6  1  0  0  0  0
  5  8  1  0  0  0  0
  6  5  1  0  0  0  0
  7  3  1  0  0  0  0
  7 27  1  1  0  0  0
  9 10  2  0  0  0  0
 10  2  1  0  0  0  0
 11  7  1  0  0  0  0
 12  3  1  6  0  0  0
 12  8  1  0  0  0  0
 15 13  1  0  0  0  0
 15 16  2  0  0  0  0
 16 18  1  0  0  0  0
 17 13  1  6  0  0  0
 17 14  1  0  0  0  0
 17  2  1  0  0  0  0
 18 14  2  0  0  0  0
 19 16  1  0  0  0  0
 19 20  1  0  0  0  0
 20 21  2  0  0  0  0
 22 20  1  0  0  0  0
 22 24  1  0  0  0  0
 23 24  2  0  0  0  0
 24 25  1  0  0  0  0
 26 25  1  0  0  0  0
 27 29  1  0  0  0  0
 28 32  1  0  0  0  0
 29 30  2  0  0  0  0
 29 34  1  0  0  0  0
 30 35  1  0  0  0  0
 31 36  1  0  0  0  0
 32 37  2  0  0  0  0
 34 28  2  0  0  0  0
 35 31  2  0  0  0  0
 35 32  1  0  0  0  0
 36 37  1  0  0  0  0
 37 33  1  0  0  0  0
 38  4  1  0  0  0  0
 39 38  1  0  0  0  0
 40 39  1  0  0  0  0
 41 42  1  0  0  0  0
 41 40  1  0  0  0  0
 41 44  1  0  0  0  0
 44 43  1  0  0  0  0
M  END
>  <MODEL>
6

>  <REMARK>
 VINA RESULT:      -6.6      3.832      8.569
  Name = 
  13 active torsions:
  status: ('A' for Active; 'I' for Inactive)
    1  A    between atoms: O_3  and  C_12
    2  A    between atoms: O_3  and  C_29
    3  A    between atoms: N_6  and  C_30
    4  A    between atoms: C_9  and  C_16
    5  A    between atoms: C_9  and  C_19
    6  A    between atoms: N_13  and  C_16
    7  A    between atoms: N_15  and  C_19
    8  A    between atoms: N_15  and  C_40
    9  A    between atoms: C_17  and  C_22
   10  A    between atoms: C_21  and  O_32
   11  A    between atoms: C_22  and  O_39
   12  A    between atoms: C_31  and  O_32
   13  A    between atoms: C_31  and  O_39
                            x       y       z     vdW  Elec       q    Type
                         _______ _______ _______ _____ _____    ______ ____

>  <TORSDO>
F 13

$$$$
=
 OpenBabel10222422023D

 44 48  0  0  1  0  0  0  0  0999 V2000
  185.1950  178.3780  143.2780 C   0  0  1  0  0  3  0  0  0  0  0  0
  187.5440  177.6190  142.6410 N   0  0  0  0  0  0  0  0  0  0  0  0
  185.8460  177.1180  145.3490 C   0  0  0  0  0  2  0  0  0  0  0  0
  184.1460  179.2710  142.7440 N   0  0  0  0  0  0  0  0  0  0  0  0
  182.9930  178.4960  144.6910 O   0  0  0  0  0  0  0  0  0  0  0  0
  182.9930  179.4360  143.6480 C   0  0  0  0  0  2  0  0  0  0  0  0
  187.2790  176.7470  144.9500 C   0  0  1  0  0  3  0  0  0  0  0  0
  184.0820  178.8530  145.4930 C   0  0  0  0  0  2  0  0  0  0  0  0
  186.7360  179.7250  142.0320 O   0  0  0  0  0  0  0  0  0  0  0  0
  186.5150  178.6190  142.5970 C   0  0  0  0  0  0  0  0  0  0  0  0
  187.3910  176.4130  143.4600 C   0  0  0  0  0  2  0  0  0  0  0  0
  185.3860  178.4670  144.8020 C   0  0  2  0  0  3  0  0  0  0  0  0
  188.3260  177.6700  140.3020 C   0  0  0  0  0  2  0  0  0  0  0  0
  189.7860  176.7620  142.1270 C   0  0  0  0  0  3  0  0  0  0  0  0
  189.5580  177.6270  139.4400 C   0  0  0  0  0  3  0  0  0  0  0  0
  190.6770  177.0130  139.8620 C   0  0  0  0  0  0  0  0  0  0  0  0
  188.7150  177.7640  141.7810 C   0  0  2  0  0  3  0  0  0  0  0  0
  190.7210  176.4470  141.2260 C   0  0  0  0  0  3  0  0  0  0  0  0
  191.8190  176.8890  139.0540 O   0  0  0  0  0  0  0  0  0  0  0  0
  192.1610  175.7830  138.2630 C   0  0  0  0  0  0  0  0  0  0  0  0
  193.3560  175.7880  137.6800 C   0  0  0  0  0  2  0  0  0  0  0  0
  191.2620  174.7130  138.1030 O   0  0  0  0  0  0  0  0  0  0  0  0
  190.6740  173.3120  136.3400 O   0  0  0  0  0  0  0  0  0  0  0  0
  190.5220  174.4020  136.9520 C   0  0  0  0  0  0  0  0  0  0  0  0
  189.5590  175.4040  136.4220 C   0  0  0  0  0  2  0  0  0  0  0  0
  188.1770  175.1370  136.9840 C   0  0  0  0  0  1  0  0  0  0  0  0
  188.2110  177.7600  145.3250 O   0  0  0  0  0  0  0  0  0  0  0  0
  190.4420  177.9660  148.3250 C   0  0  0  0  0  3  0  0  0  0  0  0
  189.2790  177.5370  146.2000 C   0  0  0  0  0  0  0  0  0  0  0  0
  190.2840  176.6250  145.8180 C   0  0  0  0  0  3  0  0  0  0  0  0
  192.3940  175.5990  146.5460 N   0  0  0  0  0  0  0  0  0  0  0  0
  191.4100  177.0610  147.9040 C   0  0  0  0  0  0  0  0  0  0  0  0
  193.1200  176.9850  149.8060 C   0  0  0  0  0  1  0  0  0  0  0  0
  189.3630  178.2020  147.4520 C   0  0  0  0  0  3  0  0  0  0  0  0
  191.3370  176.4160  146.7030 C   0  0  0  0  0  0  0  0  0  0  0  0
  193.1470  175.7130  147.6380 N   0  0  0  0  0  2  0  0  0  0  0  0
  192.5660  176.5990  148.4790 C   0  0  0  0  0  0  0  0  0  0  0  0
  183.6320  178.6470  141.5340 C   0  0  0  0  0  2  0  0  0  0  0  0
  182.1270  178.8350  141.4630 C   0  0  0  0  0  2  0  0  0  0  0  0
  181.6020  178.3510  140.1230 C   0  0  0  0  0  2  0  0  0  0  0  0
  182.4520  177.2890  139.6040 N   0  0  0  0  0  0  0  0  0  0  0  0
  181.6700  176.0670  139.6660 C   0  0  0  0  0  1  0  0  0  0  0  0
  184.0360  178.0480  138.0010 N   0  0  0  0  0  1  0  0  0  0  0  0
  182.6800  177.5620  138.1940 C   0  0  0  0  0  2  0  0  0  0  0  0
  1 10  1  6  0  0  0
  1 12  1  0  0  0  0
  2 11  1  0  0  0  0
  4  1  1  0  0  0  0
  4  6  1  0  0  0  0
  5  8  1  0  0  0  0
  6  5  1  0  0  0  0
  7 27  1  6  0  0  0
  7  3  1  0  0  0  0
  9 10  2  0  0  0  0
 10  2  1  0  0  0  0
 11  7  1  0  0  0  0
 12  3  1  1  0  0  0
 12  8  1  0  0  0  0
 15 16  2  0  0  0  0
 15 13  1  0  0  0  0
 16 18  1  0  0  0  0
 17 13  1  6  0  0  0
 17 14  1  0  0  0  0
 17  2  1  0  0  0  0
 18 14  2  0  0  0  0
 19 16  1  0  0  0  0
 20 19  1  0  0  0  0
 21 20  2  0  0  0  0
 22 20  1  0  0  0  0
 23 24  2  0  0  0  0
 24 22  1  0  0  0  0
 25 24  1  0  0  0  0
 25 26  1  0  0  0  0
 27 29  1  0  0  0  0
 29 34  1  0  0  0  0
 30 29  2  0  0  0  0
 30 35  1  0  0  0  0
 31 35  2  0  0  0  0
 31 36  1  0  0  0  0
 32 28  1  0  0  0  0
 32 37  2  0  0  0  0
 34 28  2  0  0  0  0
 35 32  1  0  0  0  0
 36 37  1  0  0  0  0
 37 33  1  0  0  0  0
 38  4  1  0  0  0  0
 39 38  1  0  0  0  0
 40 39  1  0  0  0  0
 41 42  1  0  0  0  0
 41 40  1  0  0  0  0
 43 44  1  0  0  0  0
 44 41  1  0  0  0  0
M  END
>  <MODEL>
7

>  <REMARK>
 VINA RESULT:      -6.5      1.609      7.883
  Name = 
  13 active torsions:
  status: ('A' for Active; 'I' for Inactive)
    1  A    between atoms: O_3  and  C_12
    2  A    between atoms: O_3  and  C_29
    3  A    between atoms: N_6  and  C_30
    4  A    between atoms: C_9  and  C_16
    5  A    between atoms: C_9  and  C_19
    6  A    between atoms: N_13  and  C_16
    7  A    between atoms: N_15  and  C_19
    8  A    between atoms: N_15  and  C_40
    9  A    between atoms: C_17  and  C_22
   10  A    between atoms: C_21  and  O_32
   11  A    between atoms: C_22  and  O_39
   12  A    between atoms: C_31  and  O_32
   13  A    between atoms: C_31  and  O_39
                            x       y       z     vdW  Elec       q    Type
                         _______ _______ _______ _____ _____    ______ ____

>  <TORSDO>
F 13

$$$$
=
 OpenBabel10222422023D

 44 48  0  0  1  0  0  0  0  0999 V2000
  191.0080  176.5880  138.1620 C   0  0  1  0  0  3  0  0  0  0  0  0
  188.4990  177.0160  138.0130 N   0  0  0  0  0  0  0  0  0  0  0  0
  190.6860  178.1160  140.1270 C   0  0  0  0  0  2  0  0  0  0  0  0
  192.0130  175.7140  137.5230 N   0  0  0  0  0  0  0  0  0  0  0  0
  193.4680  176.9070  138.9990 O   0  0  0  0  0  0  0  0  0  0  0  0
  193.3520  175.8090  138.1330 C   0  0  0  0  0  2  0  0  0  0  0  0
  189.1660  178.2850  140.0390 C   0  0  1  0  0  3  0  0  0  0  0  0
  192.6430  176.5950  140.0850 C   0  0  0  0  0  2  0  0  0  0  0  0
  189.4080  174.9170  137.5340 O   0  0  0  0  0  0  0  0  0  0  0  0
  189.6100  176.1190  137.8640 C   0  0  0  0  0  0  0  0  0  0  0  0
  188.6780  178.3510  138.5900 C   0  0  0  0  0  2  0  0  0  0  0  0
  191.1790  176.7410  139.6830 C   0  0  2  0  0  3  0  0  0  0  0  0
  187.2100  176.5410  135.9640 C   0  0  0  0  0  2  0  0  0  0  0  0
  186.1020  177.5460  137.9760 C   0  0  0  0  0  3  0  0  0  0  0  0
  185.8180  176.3260  135.4360 C   0  0  0  0  0  3  0  0  0  0  0  0
  184.7540  176.8730  136.0480 C   0  0  0  0  0  0  0  0  0  0  0  0
  187.1910  176.6230  137.4930 C   0  0  2  0  0  3  0  0  0  0  0  0
  184.9500  177.6250  137.3050 C   0  0  0  0  0  3  0  0  0  0  0  0
  183.4500  176.7560  135.5390 O   0  0  0  0  0  0  0  0  0  0  0  0
  182.2660  177.1180  136.1980 C   0  0  0  0  0  0  0  0  0  0  0  0
  181.7430  178.3080  135.9170 C   0  0  0  0  0  2  0  0  0  0  0  0
  181.6630  176.2430  137.1190 O   0  0  0  0  0  0  0  0  0  0  0  0
  182.9520  174.3800  137.6520 O   0  0  0  0  0  0  0  0  0  0  0  0
  182.3200  175.4010  138.0310 C   0  0  0  0  0  0  0  0  0  0  0  0
  182.2330  175.7050  139.4840 C   0  0  0  0  0  2  0  0  0  0  0  0
  182.1810  177.2050  139.6940 C   0  0  0  0  0  1  0  0  0  0  0  0
  188.4780  177.2710  140.7710 O   0  0  0  0  0  0  0  0  0  0  0  0
  186.0490  178.1770  143.4710 C   0  0  0  0  0  3  0  0  0  0  0  0
  187.9210  177.4790  142.0360 C   0  0  0  0  0  0  0  0  0  0  0  0
  188.7000  177.1810  143.1730 C   0  0  0  0  0  3  0  0  0  0  0  0
  188.6810  177.1810  145.6290 N   0  0  0  0  0  0  0  0  0  0  0  0
  186.8560  177.8720  144.5620 C   0  0  0  0  0  0  0  0  0  0  0  0
  185.4240  178.4020  146.6160 C   0  0  0  0  0  1  0  0  0  0  0  0
  186.5990  177.9750  142.1920 C   0  0  0  0  0  3  0  0  0  0  0  0
  188.1270  177.3950  144.4230 C   0  0  0  0  0  0  0  0  0  0  0  0
  187.7760  177.5180  146.5450 N   0  0  0  0  0  2  0  0  0  0  0  0
  186.6560  177.9420  145.9180 C   0  0  0  0  0  0  0  0  0  0  0  0
  192.1580  176.1680  136.1470 C   0  0  0  0  0  2  0  0  0  0  0  0
  193.3840  175.5260  135.5240 C   0  0  0  0  0  2  0  0  0  0  0  0
  194.1720  176.5590  134.7370 C   0  0  0  0  0  2  0  0  0  0  0  0
  195.3760  176.9340  135.4650 N   0  0  0  0  0  0  0  0  0  0  0  0
  196.1880  175.7350  135.5630 C   0  0  0  0  0  1  0  0  0  0  0  0
  196.0820  179.1920  135.2280 N   0  0  0  0  0  1  0  0  0  0  0  0
  196.1160  177.8680  134.6310 C   0  0  0  0  0  2  0  0  0  0  0  0
  1 10  1  1  0  0  0
  1 12  1  0  0  0  0
  2 11  1  0  0  0  0
  4  6  1  0  0  0  0
  4  1  1  0  0  0  0
  5  8  1  0  0  0  0
  6  5  1  0  0  0  0
  7  3  1  0  0  0  0
  7 27  1  6  0  0  0
  9 10  2  0  0  0  0
 10  2  1  0  0  0  0
 11  7  1  0  0  0  0
 12  8  1  6  0  0  0
 12  3  1  0  0  0  0
 15 13  1  0  0  0  0
 15 16  2  0  0  0  0
 16 18  1  0  0  0  0
 17 13  1  6  0  0  0
 17 14  1  0  0  0  0
 17  2  1  0  0  0  0
 18 14  2  0  0  0  0
 19 16  1  0  0  0  0
 19 20  1  0  0  0  0
 20 22  1  0  0  0  0
 21 20  2  0  0  0  0
 22 24  1  0  0  0  0
 23 24  2  0  0  0  0
 24 25  1  0  0  0  0
 25 26  1  0  0  0  0
 27 29  1  0  0  0  0
 28 32  1  0  0  0  0
 29 34  1  0  0  0  0
 29 30  2  0  0  0  0
 30 35  1  0  0  0  0
 31 36  1  0  0  0  0
 32 37  2  0  0  0  0
 34 28  2  0  0  0  0
 35 32  1  0  0  0  0
 35 31  2  0  0  0  0
 37 36  1  0  0  0  0
 37 33  1  0  0  0  0
 38  4  1  0  0  0  0
 39 38  1  0  0  0  0
 40 41  1  0  0  0  0
 40 39  1  0  0  0  0
 41 42  1  0  0  0  0
 44 43  1  0  0  0  0
 44 41  1  0  0  0  0
M  END
>  <MODEL>
8

>  <REMARK>
 VINA RESULT:      -6.4      3.487      8.577
  Name = 
  13 active torsions:
  status: ('A' for Active; 'I' for Inactive)
    1  A    between atoms: O_3  and  C_12
    2  A    between atoms: O_3  and  C_29
    3  A    between atoms: N_6  and  C_30
    4  A    between atoms: C_9  and  C_16
    5  A    between atoms: C_9  and  C_19
    6  A    between atoms: N_13  and  C_16
    7  A    between atoms: N_15  and  C_19
    8  A    between atoms: N_15  and  C_40
    9  A    between atoms: C_17  and  C_22
   10  A    between atoms: C_21  and  O_32
   11  A    between atoms: C_22  and  O_39
   12  A    between atoms: C_31  and  O_32
   13  A    between atoms: C_31  and  O_39
                            x       y       z     vdW  Elec       q    Type
                         _______ _______ _______ _____ _____    ______ ____

>  <TORSDO>
F 13

$$$$
=
 OpenBabel10222422023D

 44 48  0  0  1  0  0  0  0  0999 V2000
  182.5320  179.3240  139.4330 C   0  0  1  0  0  3  0  0  0  0  0  0
  184.9530  178.5530  139.6360 N   0  0  0  0  0  0  0  0  0  0  0  0
  182.4390  178.0920  141.6180 C   0  0  0  0  0  2  0  0  0  0  0  0
  181.7290  180.2110  138.5650 N   0  0  0  0  0  0  0  0  0  0  0  0
  179.9830  179.4640  140.0190 O   0  0  0  0  0  0  0  0  0  0  0  0
  180.3400  180.3890  139.0250 C   0  0  0  0  0  2  0  0  0  0  0  0
  183.9200  177.7140  141.7300 C   0  0  1  0  0  3  0  0  0  0  0  0
  180.7400  179.8310  141.1370 C   0  0  0  0  0  2  0  0  0  0  0  0
  184.4110  180.6520  138.7630 O   0  0  0  0  0  0  0  0  0  0  0  0
  184.0050  179.5540  139.2340 C   0  0  0  0  0  0  0  0  0  0  0  0
  184.5260  177.3590  140.3700 C   0  0  0  0  0  2  0  0  0  0  0  0
  182.1970  179.4340  140.9310 C   0  0  2  0  0  3  0  0  0  0  0  0
  186.6320  177.8390  137.9750 C   0  0  0  0  0  2  0  0  0  0  0  0
  187.2960  178.3430  140.3400 C   0  0  0  0  0  3  0  0  0  0  0  0
  188.1060  177.8320  137.6740 C   0  0  0  0  0  3  0  0  0  0  0  0
  189.0140  177.8640  138.6640 C   0  0  0  0  0  0  0  0  0  0  0  0
  186.3470  178.6860  139.2190 C   0  0  2  0  0  3  0  0  0  0  0  0
  188.5550  177.9930  140.0630 C   0  0  0  0  0  3  0  0  0  0  0  0
  190.3950  177.7830  138.4220 O   0  0  0  0  0  0  0  0  0  0  0  0
  191.2780  176.8350  138.9580 C   0  0  0  0  0  0  0  0  0  0  0  0
  192.2790  177.2820  139.7110 C   0  0  0  0  0  2  0  0  0  0  0  0
  191.0970  175.4640  138.7020 O   0  0  0  0  0  0  0  0  0  0  0  0
  189.7570  174.4320  137.1040 O   0  0  0  0  0  0  0  0  0  0  0  0
  190.8880  174.8640  137.4510 C   0  0  0  0  0  0  0  0  0  0  0  0
  192.0420  174.7030  136.5260 C   0  0  0  0  0  2  0  0  0  0  0  0
  192.2780  173.2330  136.2470 C   0  0  0  0  0  1  0  0  0  0  0  0
  184.6770  178.7300  142.3860 O   0  0  0  0  0  0  0  0  0  0  0  0
  185.6840  178.7750  145.9910 C   0  0  0  0  0  3  0  0  0  0  0  0
  185.4020  178.5130  143.5610 C   0  0  0  0  0  0  0  0  0  0  0  0
  186.6060  177.7850  143.4850 C   0  0  0  0  0  3  0  0  0  0  0  0
  188.4730  176.9180  144.8270 N   0  0  0  0  0  0  0  0  0  0  0  0
  186.8670  178.0550  145.8660 C   0  0  0  0  0  0  0  0  0  0  0  0
  187.8130  177.9130  148.2390 C   0  0  0  0  0  1  0  0  0  0  0  0
  184.9470  179.0030  144.8140 C   0  0  0  0  0  3  0  0  0  0  0  0
  187.3120  177.5780  144.6670 C   0  0  0  0  0  0  0  0  0  0  0  0
  188.7790  176.9660  146.1220 N   0  0  0  0  0  2  0  0  0  0  0  0
  187.8140  177.6540  146.7740 C   0  0  0  0  0  0  0  0  0  0  0  0
  181.6500  179.5710  137.2600 C   0  0  0  0  0  2  0  0  0  0  0  0
  181.1990  178.1310  137.4250 C   0  0  0  0  0  2  0  0  0  0  0  0
  182.2070  177.1920  136.7860 C   0  0  0  0  0  2  0  0  0  0  0  0
  181.7760  175.8100  136.9440 N   0  0  0  0  0  0  0  0  0  0  0  0
  182.3750  175.0640  135.8520 C   0  0  0  0  0  1  0  0  0  0  0  0
  183.5470  174.5050  137.8460 N   0  0  0  0  0  1  0  0  0  0  0  0
  182.3760  175.3030  138.1680 C   0  0  0  0  0  2  0  0  0  0  0  0
  1 10  1  1  0  0  0
  1 12  1  0  0  0  0
  2 11  1  0  0  0  0
  3  7  1  0  0  0  0
  4  6  1  0  0  0  0
  4  1  1  0  0  0  0
  5  8  1  0  0  0  0
  6  5  1  0  0  0  0
  7 27  1  6  0  0  0
  9 10  2  0  0  0  0
 10  2  1  0  0  0  0
 11  7  1  0  0  0  0
 12  8  1  6  0  0  0
 12  3  1  0  0  0  0
 15 13  1  0  0  0  0
 15 16  2  0  0  0  0
 16 18  1  0  0  0  0
 17 13  1  6  0  0  0
 17  2  1  0  0  0  0
 17 14  1  0  0  0  0
 18 14  2  0  0  0  0
 19 16  1  0  0  0  0
 19 20  1  0  0  0  0
 20 21  2  0  0  0  0
 22 20  1  0  0  0  0
 23 24  2  0  0  0  0
 24 22  1  0  0  0  0
 25 24  1  0  0  0  0
 26 25  1  0  0  0  0
 27 29  1  0  0  0  0
 29 34  1  0  0  0  0
 30 29  2  0  0  0  0
 30 35  1  0  0  0  0
 31 36  1  0  0  0  0
 32 28  1  0  0  0  0
 32 37  2  0  0  0  0
 34 28  2  0  0  0  0
 35 31  2  0  0  0  0
 35 32  1  0  0  0  0
 36 37  1  0  0  0  0
 37 33  1  0  0  0  0
 38 39  1  0  0  0  0
 38  4  1  0  0  0  0
 40 41  1  0  0  0  0
 40 39  1  0  0  0  0
 41 44  1  0  0  0  0
 42 41  1  0  0  0  0
 43 44  1  0  0  0  0
M  END
>  <MODEL>
9

>  <REMARK>
 VINA RESULT:      -6.3      2.109      7.603
  Name = 
  13 active torsions:
  status: ('A' for Active; 'I' for Inactive)
    1  A    between atoms: O_3  and  C_12
    2  A    between atoms: O_3  and  C_29
    3  A    between atoms: N_6  and  C_30
    4  A    between atoms: C_9  and  C_16
    5  A    between atoms: C_9  and  C_19
    6  A    between atoms: N_13  and  C_16
    7  A    between atoms: N_15  and  C_19
    8  A    between atoms: N_15  and  C_40
    9  A    between atoms: C_17  and  C_22
   10  A    between atoms: C_21  and  O_32
   11  A    between atoms: C_22  and  O_39
   12  A    between atoms: C_31  and  O_32
   13  A    between atoms: C_31  and  O_39
                            x       y       z     vdW  Elec       q    Type
                         _______ _______ _______ _____ _____    ______ ____

>  <TORSDO>
F 13

$$$$
