=
 OpenBabel10232409443D

 25 28  0  0  1  0  0  0  0  0999 V2000
  190.5210  177.1740  143.8470 C   0  0  2  0  0  3  0  0  0  0  0  0
  191.7500  178.0430  143.6730 C   0  0  0  0  0  2  0  0  0  0  0  0
  190.6980  178.0000  142.5860 C   0  0  1  0  0  3  0  0  0  0  0  0
  189.6700  177.3750  146.0910 C   0  0  0  0  0  3  0  0  0  0  0  0
  184.6810  179.5370  145.3020 C   0  0  0  0  0  2  0  0  0  0  0  0
  186.6920  178.4510  146.3620 C   0  0  0  0  0  0  0  0  0  0  0  0
  184.5290  178.1900  144.6030 C   0  0  0  0  0  2  0  0  0  0  0  0
  187.1290  178.0380  147.5850 C   0  0  0  0  0  3  0  0  0  0  0  0
  185.6090  179.3900  146.4200 N   0  0  0  0  0  2  0  0  0  0  0  0
  188.1910  177.5030  144.3690 O   0  0  0  0  0  0  0  0  0  0  0  0
  185.8900  177.7220  144.1810 C   0  0  0  0  0  3  0  0  0  0  0  0
  186.9540  177.8370  144.9860 C   0  0  0  0  0  0  0  0  0  0  0  0
  189.5230  177.8640  144.7590 C   0  0  2  0  0  3  0  0  0  0  0  0
  189.1930  177.0620  147.1240 C   0  0  0  0  0  3  0  0  0  0  0  0
  188.0760  176.9400  148.0050 C   0  0  0  0  0  2  0  0  0  0  0  0
  190.2210  175.9370  138.0920 C   0  0  0  0  0  2  0  0  0  0  0  0
  190.4450  177.0310  140.2670 C   0  0  0  0  0  0  0  0  0  0  0  0
  190.8590  176.1630  139.3890 N   0  0  0  0  0  0  0  0  0  0  0  0
  191.1370  177.1260  141.5120 N   0  0  0  0  0  2  0  0  0  0  0  0
  189.5400  177.2070  137.5830 C   0  0  2  0  0  3  0  0  0  0  0  0
  188.5730  177.6500  138.6730 C   0  0  0  0  0  2  0  0  0  0  0  0
  189.3390  178.0090  139.9440 C   0  0  0  0  0  2  0  0  0  0  0  0
  187.7320  178.0080  136.0390 C   0  0  0  0  0  1  0  0  0  0  0  0
  189.7290  176.9280  135.0860 C   0  0  0  0  0  1  0  0  0  0  0  0
  188.7850  176.9380  136.2780 C   0  0  0  0  0  3  0  0  0  0  0  0
  1  2  1  1  0  0  0
  1 13  1  0  0  0  0
  3 19  1  6  0  0  0
  3  2  1  0  0  0  0
  3  1  1  0  0  0  0
  4 14  2  0  0  0  0
  5  9  1  0  0  0  0
  6  9  1  0  0  0  0
  6  8  2  0  0  0  0
  7  5  1  0  0  0  0
  8 15  1  0  0  0  0
 10 13  1  0  0  0  0
 10 12  1  0  0  0  0
 11  7  1  0  0  0  0
 11 12  2  0  0  0  0
 12  6  1  0  0  0  0
 13  4  1  1  0  0  0
 14 15  1  0  0  0  0
 16 18  1  0  0  0  0
 17 19  1  0  0  0  0
 18 17  2  0  0  0  0
 20 25  1  6  0  0  0
 20 16  1  0  0  0  0
 20 21  1  0  0  0  0
 21 22  1  0  0  0  0
 22 17  1  0  0  0  0
 23 25  1  0  0  0  0
 24 25  1  0  0  0  0
M  END
>  <MODEL>
1

>  <REMARK>
 VINA RESULT:      -8.5      0.000      0.000
  Name = 
  3 active torsions:
  status: ('A' for Active; 'I' for Inactive)
    1  A    between atoms: C_3  and  C_19
    2  A    between atoms: C_12  and  N_21
    3  A    between atoms: C_18  and  C_23
                            x       y       z     vdW  Elec       q    Type
                         _______ _______ _______ _____ _____    ______ ____

>  <TORSDO>
F 3

$$$$
=
 OpenBabel10232409443D

 25 28  0  0  1  0  0  0  0  0999 V2000
  189.3570  178.0320  140.0520 C   0  0  2  0  0  3  0  0  0  0  0  0
  190.6560  177.3140  139.7500 C   0  0  0  0  0  2  0  0  0  0  0  0
  189.8250  176.8960  140.9430 C   0  0  1  0  0  3  0  0  0  0  0  0
  188.6540  177.6960  137.7740 C   0  0  0  0  0  3  0  0  0  0  0  0
  183.1900  177.3460  138.2350 C   0  0  0  0  0  2  0  0  0  0  0  0
  185.5170  177.5520  137.2890 C   0  0  0  0  0  0  0  0  0  0  0  0
  183.4310  178.7790  138.6990 C   0  0  0  0  0  2  0  0  0  0  0  0
  186.1520  177.5800  136.0840 C   0  0  0  0  0  3  0  0  0  0  0  0
  184.1950  176.9950  137.2350 N   0  0  0  0  0  2  0  0  0  0  0  0
  187.0900  178.3430  139.2930 O   0  0  0  0  0  0  0  0  0  0  0  0
  184.8360  178.8760  139.2160 C   0  0  0  0  0  3  0  0  0  0  0  0
  185.8610  178.2970  138.5800 C   0  0  0  0  0  0  0  0  0  0  0  0
  188.2590  177.5260  139.1340 C   0  0  2  0  0  3  0  0  0  0  0  0
  188.3810  177.9460  136.6530 C   0  0  0  0  0  3  0  0  0  0  0  0
  187.4310  178.2410  135.6290 C   0  0  0  0  0  2  0  0  0  0  0  0
  189.5640  178.3170  145.6970 C   0  0  0  0  0  2  0  0  0  0  0  0
  189.6590  177.5400  143.3810 C   0  0  0  0  0  0  0  0  0  0  0  0
  190.2150  178.1300  144.4000 N   0  0  0  0  0  0  0  0  0  0  0  0
  190.3910  177.4570  142.1580 N   0  0  0  0  0  2  0  0  0  0  0  0
  188.5530  177.2040  145.9730 C   0  0  2  0  0  3  0  0  0  0  0  0
  187.5850  177.1930  144.7960 C   0  0  0  0  0  2  0  0  0  0  0  0
  188.3240  176.8430  143.5080 C   0  0  0  0  0  2  0  0  0  0  0  0
  188.6800  178.2150  148.2650 C   0  0  0  0  0  1  0  0  0  0  0  0
  186.5420  178.2790  147.0440 C   0  0  0  0  0  1  0  0  0  0  0  0
  187.8000  177.4600  147.2810 C   0  0  0  0  0  3  0  0  0  0  0  0
  1  2  1  6  0  0  0
  1  3  1  0  0  0  0
  2  3  1  0  0  0  0
  3 19  1  1  0  0  0
  5  7  1  0  0  0  0
  6 12  1  0  0  0  0
  7 11  1  0  0  0  0
  8  6  2  0  0  0  0
  9  6  1  0  0  0  0
  9  5  1  0  0  0  0
 12 11  2  0  0  0  0
 12 10  1  0  0  0  0
 13  4  1  6  0  0  0
 13 10  1  0  0  0  0
 13  1  1  0  0  0  0
 14  4  2  0  0  0  0
 15  8  1  0  0  0  0
 15 14  1  0  0  0  0
 16 20  1  0  0  0  0
 17 22  1  0  0  0  0
 17 18  2  0  0  0  0
 18 16  1  0  0  0  0
 19 17  1  0  0  0  0
 20 25  1  1  0  0  0
 21 20  1  0  0  0  0
 22 21  1  0  0  0  0
 24 25  1  0  0  0  0
 25 23  1  0  0  0  0
M  END
>  <MODEL>
2

>  <REMARK>
 VINA RESULT:      -8.3      2.749      7.916
  Name = 
  3 active torsions:
  status: ('A' for Active; 'I' for Inactive)
    1  A    between atoms: C_3  and  C_19
    2  A    between atoms: C_12  and  N_21
    3  A    between atoms: C_18  and  C_23
                            x       y       z     vdW  Elec       q    Type
                         _______ _______ _______ _____ _____    ______ ____

>  <TORSDO>
F 3

$$$$
=
 OpenBabel10232409443D

 25 28  0  0  1  0  0  0  0  0999 V2000
  188.3430  177.5900  141.9670 C   0  0  2  0  0  3  0  0  0  0  0  0
  189.0420  178.2690  140.8070 C   0  0  0  0  0  2  0  0  0  0  0  0
  187.8390  178.9250  141.4500 C   0  0  1  0  0  3  0  0  0  0  0  0
  190.3360  177.0620  143.2110 C   0  0  0  0  0  3  0  0  0  0  0  0
  188.8890  178.2570  148.3750 C   0  0  0  0  0  2  0  0  0  0  0  0
  190.1390  177.3930  146.3660 C   0  0  0  0  0  0  0  0  0  0  0  0
  187.9260  177.1170  148.0590 C   0  0  0  0  0  2  0  0  0  0  0  0
  191.3250  176.7990  146.0540 C   0  0  0  0  0  3  0  0  0  0  0  0
  190.1350  178.0420  147.6460 N   0  0  0  0  0  2  0  0  0  0  0  0
  188.3850  177.2890  144.3580 O   0  0  0  0  0  0  0  0  0  0  0  0
  187.7360  177.0600  146.5720 C   0  0  0  0  0  3  0  0  0  0  0  0
  188.7640  177.1970  145.7260 C   0  0  0  0  0  0  0  0  0  0  0  0
  189.1250  177.8160  143.2480 C   0  0  2  0  0  3  0  0  0  0  0  0
  191.1560  176.4160  143.7630 C   0  0  0  0  0  3  0  0  0  0  0  0
  191.7250  175.8550  144.9460 C   0  0  0  0  0  2  0  0  0  0  0  0
  182.9690  178.1520  140.8350 C   0  0  0  0  0  2  0  0  0  0  0  0
  185.3470  178.6020  141.1870 C   0  0  0  0  0  0  0  0  0  0  0  0
  184.3560  178.3140  140.3940 N   0  0  0  0  0  0  0  0  0  0  0  0
  186.6600  178.6940  140.6330 N   0  0  0  0  0  2  0  0  0  0  0  0
  182.6800  179.0060  142.0680 C   0  0  2  0  0  3  0  0  0  0  0  0
  183.7090  178.6160  143.1210 C   0  0  0  0  0  2  0  0  0  0  0  0
  185.1150  178.9570  142.6380 C   0  0  0  0  0  2  0  0  0  0  0  0
  181.2400  178.7630  144.1080 C   0  0  0  0  0  1  0  0  0  0  0  0
  180.2950  179.8190  142.0940 C   0  0  0  0  0  1  0  0  0  0  0  0
  181.2620  178.7550  142.5880 C   0  0  0  0  0  3  0  0  0  0  0  0
  1  2  1  6  0  0  0
  1 13  1  0  0  0  0
  2  3  1  0  0  0  0
  3 19  1  6  0  0  0
  3  1  1  0  0  0  0
  4 14  2  0  0  0  0
  6  9  1  0  0  0  0
  7  5  1  0  0  0  0
  8  6  2  0  0  0  0
  9  5  1  0  0  0  0
 10 12  1  0  0  0  0
 11  7  1  0  0  0  0
 12  6  1  0  0  0  0
 12 11  2  0  0  0  0
 13  4  1  6  0  0  0
 13 10  1  0  0  0  0
 14 15  1  0  0  0  0
 15  8  1  0  0  0  0
 16 20  1  0  0  0  0
 17 22  1  0  0  0  0
 18 16  1  0  0  0  0
 18 17  2  0  0  0  0
 19 17  1  0  0  0  0
 20 25  1  1  0  0  0
 20 21  1  0  0  0  0
 22 21  1  0  0  0  0
 24 25  1  0  0  0  0
 25 23  1  0  0  0  0
M  END
>  <MODEL>
3

>  <REMARK>
 VINA RESULT:      -8.0      2.979      5.902
  Name = 
  3 active torsions:
  status: ('A' for Active; 'I' for Inactive)
    1  A    between atoms: C_3  and  C_19
    2  A    between atoms: C_12  and  N_21
    3  A    between atoms: C_18  and  C_23
                            x       y       z     vdW  Elec       q    Type
                         _______ _______ _______ _____ _____    ______ ____

>  <TORSDO>
F 3

$$$$
=
 OpenBabel10232409443D

 25 28  0  0  1  0  0  0  0  0999 V2000
  188.9460  177.9070  143.4980 C   0  0  2  0  0  3  0  0  0  0  0  0
  189.4860  177.2090  144.7300 C   0  0  0  0  0  2  0  0  0  0  0  0
  188.0880  176.8990  144.2410 C   0  0  1  0  0  3  0  0  0  0  0  0
  190.9330  177.3270  142.2670 C   0  0  0  0  0  3  0  0  0  0  0  0
  189.0390  176.6980  137.1470 C   0  0  0  0  0  2  0  0  0  0  0  0
  190.5710  176.9560  139.1310 C   0  0  0  0  0  0  0  0  0  0  0  0
  188.7570  178.1780  137.3830 C   0  0  0  0  0  2  0  0  0  0  0  0
  191.8990  176.9140  139.4340 C   0  0  0  0  0  3  0  0  0  0  0  0
  190.2400  176.3200  137.8880 N   0  0  0  0  0  2  0  0  0  0  0  0
  189.1090  178.0140  141.0960 O   0  0  0  0  0  0  0  0  0  0  0  0
  188.6330  178.4040  138.8600 C   0  0  0  0  0  3  0  0  0  0  0  0
  189.4710  177.8320  139.7330 C   0  0  0  0  0  0  0  0  0  0  0  0
  189.5080  177.2570  142.2470 C   0  0  2  0  0  3  0  0  0  0  0  0
  191.9580  177.4600  141.6970 C   0  0  0  0  0  3  0  0  0  0  0  0
  192.7180  177.6050  140.4970 C   0  0  0  0  0  2  0  0  0  0  0  0
  183.8190  179.3640  144.8590 C   0  0  0  0  0  2  0  0  0  0  0  0
  185.8750  178.0870  144.5160 C   0  0  0  0  0  0  0  0  0  0  0  0
  185.0970  178.7910  145.2850 N   0  0  0  0  0  0  0  0  0  0  0  0
  187.1150  177.6170  145.0460 N   0  0  0  0  0  2  0  0  0  0  0  0
  183.1740  178.5200  143.7620 C   0  0  2  0  0  3  0  0  0  0  0  0
  184.1990  178.4040  142.6410 C   0  0  0  0  0  2  0  0  0  0  0  0
  185.4380  177.6610  143.1330 C   0  0  0  0  0  2  0  0  0  0  0  0
  181.6330  178.7870  141.8010 C   0  0  0  0  0  1  0  0  0  0  0  0
  180.6860  178.7620  144.0740 C   0  0  0  0  0  1  0  0  0  0  0  0
  181.8920  179.1790  143.2460 C   0  0  0  0  0  3  0  0  0  0  0  0
  1  3  1  0  0  0  0
  1  2  1  1  0  0  0
  3  2  1  0  0  0  0
  3 19  1  1  0  0  0
  5  7  1  0  0  0  0
  5  9  1  0  0  0  0
  6  8  2  0  0  0  0
  6 12  1  0  0  0  0
  7 11  1  0  0  0  0
  8 15  1  0  0  0  0
  9  6  1  0  0  0  0
 10 13  1  0  0  0  0
 11 12  2  0  0  0  0
 12 10  1  0  0  0  0
 13  4  1  1  0  0  0
 13  1  1  0  0  0  0
 14  4  2  0  0  0  0
 15 14  1  0  0  0  0
 16 18  1  0  0  0  0
 17 19  1  0  0  0  0
 17 18  2  0  0  0  0
 20 25  1  6  0  0  0
 20 16  1  0  0  0  0
 21 22  1  0  0  0  0
 21 20  1  0  0  0  0
 22 17  1  0  0  0  0
 23 25  1  0  0  0  0
 25 24  1  0  0  0  0
M  END
>  <MODEL>
4

>  <REMARK>
 VINA RESULT:      -7.9      1.977      7.458
  Name = 
  3 active torsions:
  status: ('A' for Active; 'I' for Inactive)
    1  A    between atoms: C_3  and  C_19
    2  A    between atoms: C_12  and  N_21
    3  A    between atoms: C_18  and  C_23
                            x       y       z     vdW  Elec       q    Type
                         _______ _______ _______ _____ _____    ______ ____

>  <TORSDO>
F 3

$$$$
=
 OpenBabel10232409443D

 25 28  0  0  1  0  0  0  0  0999 V2000
  189.2900  177.9240  139.0950 C   0  0  2  0  0  3  0  0  0  0  0  0
  190.4040  177.0740  138.5190 C   0  0  0  0  0  2  0  0  0  0  0  0
  189.9690  176.8730  139.9540 C   0  0  1  0  0  3  0  0  0  0  0  0
  187.9550  177.2270  137.2160 C   0  0  0  0  0  3  0  0  0  0  0  0
  182.8270  177.7330  139.1240 C   0  0  0  0  0  2  0  0  0  0  0  0
  184.8050  177.4190  137.5950 C   0  0  0  0  0  0  0  0  0  0  0  0
  183.2970  179.1840  139.1610 C   0  0  0  0  0  2  0  0  0  0  0  0
  185.0790  177.1120  136.2960 C   0  0  0  0  0  3  0  0  0  0  0  0
  183.4830  177.0500  138.0120 N   0  0  0  0  0  2  0  0  0  0  0  0
  186.9320  178.3800  138.8880 O   0  0  0  0  0  0  0  0  0  0  0  0
  184.7930  179.1910  139.2650 C   0  0  0  0  0  3  0  0  0  0  0  0
  185.5530  178.3580  138.5430 C   0  0  0  0  0  0  0  0  0  0  0  0
  187.9440  177.3960  138.6330 C   0  0  2  0  0  3  0  0  0  0  0  0
  187.3990  177.2760  136.1760 C   0  0  0  0  0  3  0  0  0  0  0  0
  186.2270  177.4830  135.3880 C   0  0  0  0  0  2  0  0  0  0  0  0
  191.5740  178.2250  144.4580 C   0  0  0  0  0  2  0  0  0  0  0  0
  190.7780  177.4770  142.2700 C   0  0  0  0  0  0  0  0  0  0  0  0
  191.6130  178.1640  142.9960 N   0  0  0  0  0  0  0  0  0  0  0  0
  190.9040  177.5330  140.8490 N   0  0  0  0  0  2  0  0  0  0  0  0
  190.9920  176.9410  145.0490 C   0  0  2  0  0  3  0  0  0  0  0  0
  189.6260  176.7440  144.4060 C   0  0  0  0  0  2  0  0  0  0  0  0
  189.7740  176.5400  142.9000 C   0  0  0  0  0  2  0  0  0  0  0  0
  189.4100  176.8500  146.9930 C   0  0  0  0  0  1  0  0  0  0  0  0
  191.7070  176.0090  147.2770 C   0  0  0  0  0  1  0  0  0  0  0  0
  190.8560  177.0510  146.5700 C   0  0  0  0  0  3  0  0  0  0  0  0
  1  2  1  6  0  0  0
  1  3  1  0  0  0  0
  2  3  1  0  0  0  0
  3 19  1  1  0  0  0
  5  7  1  0  0  0  0
  6  9  1  0  0  0  0
  6 12  1  0  0  0  0
  7 11  1  0  0  0  0
  8  6  2  0  0  0  0
  9  5  1  0  0  0  0
 12 10  1  0  0  0  0
 12 11  2  0  0  0  0
 13  4  1  6  0  0  0
 13 10  1  0  0  0  0
 13  1  1  0  0  0  0
 14  4  2  0  0  0  0
 15 14  1  0  0  0  0
 15  8  1  0  0  0  0
 16 20  1  0  0  0  0
 17 22  1  0  0  0  0
 17 18  2  0  0  0  0
 18 16  1  0  0  0  0
 19 17  1  0  0  0  0
 20 25  1  1  0  0  0
 21 20  1  0  0  0  0
 22 21  1  0  0  0  0
 25 23  1  0  0  0  0
 25 24  1  0  0  0  0
M  END
>  <MODEL>
5

>  <REMARK>
 VINA RESULT:      -7.8      3.011      7.766
  Name = 
  3 active torsions:
  status: ('A' for Active; 'I' for Inactive)
    1  A    between atoms: C_3  and  C_19
    2  A    between atoms: C_12  and  N_21
    3  A    between atoms: C_18  and  C_23
                            x       y       z     vdW  Elec       q    Type
                         _______ _______ _______ _____ _____    ______ ____

>  <TORSDO>
F 3

$$$$
=
 OpenBabel10232409443D

 25 28  0  0  1  0  0  0  0  0999 V2000
  185.7100  178.9930  144.0520 C   0  0  2  0  0  3  0  0  0  0  0  0
  184.3120  178.4100  144.0170 C   0  0  0  0  0  2  0  0  0  0  0  0
  185.2360  178.2220  142.8340 C   0  0  1  0  0  3  0  0  0  0  0  0
  186.3760  178.3260  146.2680 C   0  0  0  0  0  3  0  0  0  0  0  0
  191.3780  176.2090  145.4400 C   0  0  0  0  0  2  0  0  0  0  0  0
  189.3050  177.1260  146.5420 C   0  0  0  0  0  0  0  0  0  0  0  0
  191.6060  177.6620  145.0380 C   0  0  0  0  0  2  0  0  0  0  0  0
  188.7790  177.3020  147.7860 C   0  0  0  0  0  3  0  0  0  0  0  0
  190.3660  176.1610  146.4920 N   0  0  0  0  0  2  0  0  0  0  0  0
  187.9860  178.4950  144.6710 O   0  0  0  0  0  0  0  0  0  0  0  0
  190.2900  178.2460  144.6170 C   0  0  0  0  0  3  0  0  0  0  0  0
  189.1640  178.0080  145.3000 C   0  0  0  0  0  0  0  0  0  0  0  0
  186.6210  178.1050  144.8800 C   0  0  2  0  0  3  0  0  0  0  0  0
  186.7740  178.4140  147.3760 C   0  0  0  0  0  3  0  0  0  0  0  0
  187.8190  178.3240  148.3440 C   0  0  0  0  0  2  0  0  0  0  0  0
  183.1450  179.4470  138.4960 C   0  0  0  0  0  2  0  0  0  0  0  0
  184.0980  178.8070  140.6550 C   0  0  0  0  0  0  0  0  0  0  0  0
  183.9040  179.6950  139.7230 N   0  0  0  0  0  0  0  0  0  0  0  0
  184.8910  179.1680  141.7860 N   0  0  0  0  0  2  0  0  0  0  0  0
  182.0640  178.3900  138.7200 C   0  0  2  0  0  3  0  0  0  0  0  0
  182.7690  177.1550  139.2670 C   0  0  0  0  0  2  0  0  0  0  0  0
  183.4060  177.4640  140.6180 C   0  0  0  0  0  2  0  0  0  0  0  0
  180.8950  179.3310  136.7100 C   0  0  0  0  0  1  0  0  0  0  0  0
  182.2460  177.2880  136.4630 C   0  0  0  0  0  1  0  0  0  0  0  0
  181.3430  178.0590  137.4110 C   0  0  0  0  0  3  0  0  0  0  0  0
  1  2  1  1  0  0  0
  1 13  1  0  0  0  0
  3 19  1  6  0  0  0
  3  2  1  0  0  0  0
  3  1  1  0  0  0  0
  4 14  2  0  0  0  0
  5  9  1  0  0  0  0
  6  8  2  0  0  0  0
  7  5  1  0  0  0  0
  8 15  1  0  0  0  0
  9  6  1  0  0  0  0
 10 13  1  0  0  0  0
 10 12  1  0  0  0  0
 11  7  1  0  0  0  0
 11 12  2  0  0  0  0
 12  6  1  0  0  0  0
 13  4  1  1  0  0  0
 14 15  1  0  0  0  0
 16 20  1  0  0  0  0
 16 18  1  0  0  0  0
 17 19  1  0  0  0  0
 18 17  2  0  0  0  0
 20 25  1  6  0  0  0
 20 21  1  0  0  0  0
 21 22  1  0  0  0  0
 22 17  1  0  0  0  0
 23 25  1  0  0  0  0
 24 25  1  0  0  0  0
M  END
>  <MODEL>
6

>  <REMARK>
 VINA RESULT:      -7.6      4.016      5.740
  Name = 
  3 active torsions:
  status: ('A' for Active; 'I' for Inactive)
    1  A    between atoms: C_3  and  C_19
    2  A    between atoms: C_12  and  N_21
    3  A    between atoms: C_18  and  C_23
                            x       y       z     vdW  Elec       q    Type
                         _______ _______ _______ _____ _____    ______ ____

>  <TORSDO>
F 3

$$$$
=
 OpenBabel10232409443D

 25 28  0  0  1  0  0  0  0  0999 V2000
  190.4930  176.7520  142.7850 C   0  0  2  0  0  3  0  0  0  0  0  0
  191.9820  177.0140  142.6850 C   0  0  0  0  0  2  0  0  0  0  0  0
  191.0190  177.7960  141.8180 C   0  0  1  0  0  3  0  0  0  0  0  0
  190.5840  176.9700  145.1820 C   0  0  0  0  0  3  0  0  0  0  0  0
  185.6690  179.1100  146.3880 C   0  0  0  0  0  2  0  0  0  0  0  0
  187.9410  178.0390  146.5860 C   0  0  0  0  0  0  0  0  0  0  0  0
  185.2650  177.7560  145.8130 C   0  0  0  0  0  2  0  0  0  0  0  0
  188.8230  177.6390  147.5450 C   0  0  0  0  0  3  0  0  0  0  0  0
  186.9610  178.9750  147.0560 N   0  0  0  0  0  2  0  0  0  0  0  0
  188.5490  177.0780  144.1730 O   0  0  0  0  0  0  0  0  0  0  0  0
  186.3570  177.2890  144.8970 C   0  0  0  0  0  3  0  0  0  0  0  0
  187.6490  177.4130  145.2220 C   0  0  0  0  0  0  0  0  0  0  0  0
  189.9260  177.4470  144.0100 C   0  0  2  0  0  3  0  0  0  0  0  0
  190.5500  176.6650  146.3220 C   0  0  0  0  0  3  0  0  0  0  0  0
  189.8660  176.5470  147.5690 C   0  0  0  0  0  2  0  0  0  0  0  0
  188.8000  176.7180  137.5050 C   0  0  0  0  0  2  0  0  0  0  0  0
  189.8640  177.3320  139.6190 C   0  0  0  0  0  0  0  0  0  0  0  0
  189.9070  176.7360  138.4620 N   0  0  0  0  0  0  0  0  0  0  0  0
  191.0030  177.2400  140.4760 N   0  0  0  0  0  2  0  0  0  0  0  0
  187.9340  177.9700  137.6390 C   0  0  2  0  0  3  0  0  0  0  0  0
  187.4870  178.0390  139.0940 C   0  0  0  0  0  2  0  0  0  0  0  0
  188.6960  178.2070  140.0110 C   0  0  0  0  0  2  0  0  0  0  0  0
  186.8290  176.7020  135.7780 C   0  0  0  0  0  1  0  0  0  0  0  0
  185.4270  177.7680  137.5000 C   0  0  0  0  0  1  0  0  0  0  0  0
  186.7190  177.8980  136.7100 C   0  0  0  0  0  3  0  0  0  0  0  0
  1  2  1  1  0  0  0
  1 13  1  0  0  0  0
  3 19  1  6  0  0  0
  3  2  1  0  0  0  0
  3  1  1  0  0  0  0
  4 14  2  0  0  0  0
  5  9  1  0  0  0  0
  6  9  1  0  0  0  0
  6  8  2  0  0  0  0
  7  5  1  0  0  0  0
  8 15  1  0  0  0  0
 10 12  1  0  0  0  0
 11 12  2  0  0  0  0
 11  7  1  0  0  0  0
 12  6  1  0  0  0  0
 13 10  1  0  0  0  0
 13  4  1  1  0  0  0
 14 15  1  0  0  0  0
 16 20  1  0  0  0  0
 16 18  1  0  0  0  0
 17 22  1  0  0  0  0
 17 19  1  0  0  0  0
 18 17  2  0  0  0  0
 20 25  1  6  0  0  0
 20 21  1  0  0  0  0
 21 22  1  0  0  0  0
 23 25  1  0  0  0  0
 25 24  1  0  0  0  0
M  END
>  <MODEL>
7

>  <REMARK>
 VINA RESULT:      -7.6      1.249      1.696
  Name = 
  3 active torsions:
  status: ('A' for Active; 'I' for Inactive)
    1  A    between atoms: C_3  and  C_19
    2  A    between atoms: C_12  and  N_21
    3  A    between atoms: C_18  and  C_23
                            x       y       z     vdW  Elec       q    Type
                         _______ _______ _______ _____ _____    ______ ____

>  <TORSDO>
F 3

$$$$
=
 OpenBabel10232409443D

 25 28  0  0  1  0  0  0  0  0999 V2000
  189.8770  176.0450  142.6030 C   0  0  2  0  0  3  0  0  0  0  0  0
  191.1950  176.6320  143.0660 C   0  0  0  0  0  2  0  0  0  0  0  0
  190.3160  177.4120  142.1130 C   0  0  1  0  0  3  0  0  0  0  0  0
  187.6910  176.8950  143.1460 C   0  0  0  0  0  3  0  0  0  0  0  0
  187.9170  177.4100  148.6110 C   0  0  0  0  0  2  0  0  0  0  0  0
  187.1790  177.5740  146.2080 C   0  0  0  0  0  0  0  0  0  0  0  0
  188.9820  178.4130  148.1790 C   0  0  0  0  0  2  0  0  0  0  0  0
  186.1210  178.0150  145.4720 C   0  0  0  0  0  3  0  0  0  0  0  0
  186.8720  177.3590  147.5930 N   0  0  0  0  0  2  0  0  0  0  0  0
  189.3310  177.0800  144.7100 O   0  0  0  0  0  0  0  0  0  0  0  0
  189.4940  178.0050  146.8300 C   0  0  0  0  0  3  0  0  0  0  0  0
  188.6690  177.5880  145.8610 C   0  0  0  0  0  0  0  0  0  0  0  0
  188.8250  176.2160  143.6830 C   0  0  2  0  0  3  0  0  0  0  0  0
  186.8040  177.6640  143.2730 C   0  0  0  0  0  3  0  0  0  0  0  0
  186.0200  178.5560  144.0650 C   0  0  0  0  0  2  0  0  0  0  0  0
  189.7680  177.3160  137.1750 C   0  0  0  0  0  2  0  0  0  0  0  0
  189.9940  177.4390  139.6070 C   0  0  0  0  0  0  0  0  0  0  0  0
  190.5130  177.2270  138.4320 N   0  0  0  0  0  0  0  0  0  0  0  0
  190.8240  177.2830  140.7580 N   0  0  0  0  0  2  0  0  0  0  0  0
  188.6190  178.3170  137.2850 C   0  0  2  0  0  3  0  0  0  0  0  0
  187.7710  177.8800  138.4720 C   0  0  0  0  0  2  0  0  0  0  0  0
  188.5840  177.9610  139.7610 C   0  0  0  0  0  2  0  0  0  0  0  0
  188.4980  177.5900  134.8870 C   0  0  0  0  0  1  0  0  0  0  0  0
  186.4300  177.6630  136.2220 C   0  0  0  0  0  1  0  0  0  0  0  0
  187.7790  178.3290  136.0040 C   0  0  0  0  0  3  0  0  0  0  0  0
  1  2  1  1  0  0  0
  1 13  1  0  0  0  0
  3 19  1  6  0  0  0
  3  1  1  0  0  0  0
  3  2  1  0  0  0  0
  4 14  2  0  0  0  0
  6  9  1  0  0  0  0
  7  5  1  0  0  0  0
  8  6  2  0  0  0  0
  9  5  1  0  0  0  0
 10 12  1  0  0  0  0
 11  7  1  0  0  0  0
 12  6  1  0  0  0  0
 12 11  2  0  0  0  0
 13  4  1  6  0  0  0
 13 10  1  0  0  0  0
 14 15  1  0  0  0  0
 15  8  1  0  0  0  0
 16 20  1  0  0  0  0
 16 18  1  0  0  0  0
 17 22  1  0  0  0  0
 17 19  1  0  0  0  0
 18 17  2  0  0  0  0
 20 25  1  6  0  0  0
 20 21  1  0  0  0  0
 21 22  1  0  0  0  0
 23 25  1  0  0  0  0
 25 24  1  0  0  0  0
M  END
>  <MODEL>
8

>  <REMARK>
 VINA RESULT:      -7.5      1.327      2.776
  Name = 
  3 active torsions:
  status: ('A' for Active; 'I' for Inactive)
    1  A    between atoms: C_3  and  C_19
    2  A    between atoms: C_12  and  N_21
    3  A    between atoms: C_18  and  C_23
                            x       y       z     vdW  Elec       q    Type
                         _______ _______ _______ _____ _____    ______ ____

>  <TORSDO>
F 3

$$$$
=
 OpenBabel10232409443D

 25 28  0  0  1  0  0  0  0  0999 V2000
  190.9250  175.9670  138.4240 C   0  0  2  0  0  3  0  0  0  0  0  0
  190.0370  177.0580  137.8640 C   0  0  0  0  0  2  0  0  0  0  0  0
  190.6570  177.2220  139.2340 C   0  0  1  0  0  3  0  0  0  0  0  0
  192.2000  176.1200  136.3860 C   0  0  0  0  0  3  0  0  0  0  0  0
  197.1590  174.3250  137.9260 C   0  0  0  0  0  2  0  0  0  0  0  0
  195.1960  175.0730  136.5340 C   0  0  0  0  0  0  0  0  0  0  0  0
  196.3150  173.0720  138.1430 C   0  0  0  0  0  2  0  0  0  0  0  0
  194.8860  175.3500  135.2370 C   0  0  0  0  0  3  0  0  0  0  0  0
  196.6050  175.0820  136.8070 N   0  0  0  0  0  2  0  0  0  0  0  0
  193.0330  174.8490  138.0780 O   0  0  0  0  0  0  0  0  0  0  0  0
  194.8930  173.4960  138.3640 C   0  0  0  0  0  3  0  0  0  0  0  0
  194.3220  174.4550  137.6250 C   0  0  0  0  0  0  0  0  0  0  0  0
  192.3090  176.0580  137.8080 C   0  0  2  0  0  3  0  0  0  0  0  0
  192.6100  175.8400  135.3160 C   0  0  0  0  0  3  0  0  0  0  0  0
  193.5930  175.2540  134.4620 C   0  0  0  0  0  2  0  0  0  0  0  0
  189.2480  176.5600  143.9520 C   0  0  0  0  0  2  0  0  0  0  0  0
  189.9760  176.9630  141.6530 C   0  0  0  0  0  0  0  0  0  0  0  0
  189.0590  176.5950  142.5010 N   0  0  0  0  0  0  0  0  0  0  0  0
  189.6740  176.9160  140.2580 N   0  0  0  0  0  2  0  0  0  0  0  0
  190.2680  177.6040  144.4020 C   0  0  2  0  0  3  0  0  0  0  0  0
  191.5420  177.3400  143.6100 C   0  0  0  0  0  2  0  0  0  0  0  0
  191.2900  177.5450  142.1190 C   0  0  0  0  0  2  0  0  0  0  0  0
  189.2990  177.0080  146.6380 C   0  0  0  0  0  1  0  0  0  0  0  0
  191.6710  176.5190  146.1910 C   0  0  0  0  0  1  0  0  0  0  0  0
  190.5400  177.4930  145.9050 C   0  0  0  0  0  3  0  0  0  0  0  0
  1  2  1  6  0  0  0
  1  3  1  0  0  0  0
  2  3  1  0  0  0  0
  3 19  1  1  0  0  0
  5  7  1  0  0  0  0
  6  9  1  0  0  0  0
  6 12  1  0  0  0  0
  7 11  1  0  0  0  0
  8  6  2  0  0  0  0
  9  5  1  0  0  0  0
 12 10  1  0  0  0  0
 12 11  2  0  0  0  0
 13  4  1  6  0  0  0
 13 10  1  0  0  0  0
 13  1  1  0  0  0  0
 14  4  2  0  0  0  0
 15  8  1  0  0  0  0
 15 14  1  0  0  0  0
 16 20  1  0  0  0  0
 17 22  1  0  0  0  0
 17 18  2  0  0  0  0
 18 16  1  0  0  0  0
 19 17  1  0  0  0  0
 20 25  1  1  0  0  0
 21 20  1  0  0  0  0
 22 21  1  0  0  0  0
 25 24  1  0  0  0  0
 25 23  1  0  0  0  0
M  END
>  <MODEL>
9

>  <REMARK>
 VINA RESULT:      -7.3      3.859      9.986
  Name = 
  3 active torsions:
  status: ('A' for Active; 'I' for Inactive)
    1  A    between atoms: C_3  and  C_19
    2  A    between atoms: C_12  and  N_21
    3  A    between atoms: C_18  and  C_23
                            x       y       z     vdW  Elec       q    Type
                         _______ _______ _______ _____ _____    ______ ____

>  <TORSDO>
F 3

$$$$
