=
 OpenBabel10232411143D

 33 36  0  0  1  0  0  0  0  0999 V2000
  187.7730  177.7180  142.9060 C   0  0  1  0  0  3  0  0  0  0  0  0
  189.4540  177.0890  144.6910 C   0  0  0  0  0  0  0  0  0  0  0  0
  189.3390  177.7680  147.2390 C   0  0  0  0  0  1  0  0  0  0  0  0
  191.1230  176.4510  146.0510 C   0  0  0  0  0  0  0  0  0  0  0  0
  188.2220  177.6940  144.2920 N   0  0  0  0  0  2  0  0  0  0  0  0
  191.3200  176.0160  144.6780 C   0  0  0  0  0  0  0  0  0  0  0  0
  192.1690  175.1150  144.3030 N   0  0  0  0  0  2  0  0  0  0  0  0
  189.9810  177.1220  146.0560 C   0  0  0  0  0  0  0  0  0  0  0  0
  190.2160  176.4250  143.8780 N   0  0  0  0  0  0  0  0  0  0  0  0
  192.6770  175.9890  148.0800 N   0  0  0  0  0  0  0  0  0  0  0  0
  191.9830  176.1950  147.1780 C   0  0  0  0  0  0  0  0  0  0  0  0
  186.3930  178.2840  142.8210 C   0  0  0  0  0  0  0  0  0  0  0  0
  183.3310  178.7190  142.9150 C   0  0  0  0  0  3  0  0  0  0  0  0
  182.4850  178.0020  140.6290 C   0  0  0  0  0  1  0  0  0  0  0  0
  183.6170  178.4310  141.4930 C   0  0  0  0  0  0  0  0  0  0  0  0
  184.8160  178.5820  140.9280 C   0  0  0  0  0  3  0  0  0  0  0  0
  186.0070  179.1290  141.6450 C   0  0  0  0  0  2  0  0  0  0  0  0
  185.5800  178.1200  143.8660 C   0  0  0  0  0  3  0  0  0  0  0  0
  184.1790  178.5820  143.9420 C   0  0  0  0  0  3  0  0  0  0  0  0
  188.6850  178.5180  142.0940 N   0  0  0  0  0  2  0  0  0  0  0  0
  188.9410  176.8580  137.9580 C   0  0  0  0  0  2  0  0  0  0  0  0
  189.5830  177.2100  140.1920 C   0  0  0  0  0  0  0  0  0  0  0  0
  189.6470  177.6520  141.5500 N   0  0  0  0  0  2  0  0  0  0  0  0
  190.3860  176.3200  139.7300 N   0  0  0  0  0  0  0  0  0  0  0  0
  188.7840  179.0370  138.9210 O   0  0  0  0  0  1  0  0  0  0  0  0
  188.5770  177.6840  139.1920 C   0  0  1  0  0  3  0  0  0  0  0  0
  190.0710  176.0570  138.4000 N   0  0  0  0  0  0  0  0  0  0  0  0
  192.1250  174.9390  137.6390 C   0  0  0  0  0  3  0  0  0  0  0  0
  192.0150  173.0760  136.0930 C   0  0  0  0  0  3  0  0  0  0  0  0
  190.7280  175.0530  137.6150 C   0  0  0  0  0  0  0  0  0  0  0  0
  192.7670  173.9550  136.8810 C   0  0  0  0  0  3  0  0  0  0  0  0
  189.9810  174.1700  136.8200 C   0  0  0  0  0  3  0  0  0  0  0  0
  190.6210  173.1830  136.0630 C   0  0  0  0  0  3  0  0  0  0  0  0
  1 20  1  6  0  0  0
  1  5  1  0  0  0  0
  2  8  1  0  0  0  0
  4  8  2  0  0  0  0
  4 11  1  0  0  0  0
  5  2  1  0  0  0  0
  6  4  1  0  0  0  0
  7  6  2  0  0  0  0
  8  3  1  0  0  0  0
  9  6  1  0  0  0  0
  9  2  2  0  0  0  0
 11 10  3  0  0  0  0
 12  1  1  0  0  0  0
 12 18  2  0  0  0  0
 13 19  2  0  0  0  0
 14 15  1  0  0  0  0
 15 13  1  0  0  0  0
 16 15  2  0  0  0  0
 16 17  1  0  0  0  0
 17 12  1  0  0  0  0
 18 19  1  0  0  0  0
 21 27  1  0  0  0  0
 21 26  1  0  0  0  0
 22 23  1  0  0  0  0
 23 20  1  0  0  0  0
 24 22  2  0  0  0  0
 26 25  1  6  0  0  0
 26 22  1  0  0  0  0
 27 24  1  0  0  0  0
 29 31  1  0  0  0  0
 30 28  1  0  0  0  0
 30 27  1  0  0  0  0
 31 28  2  0  0  0  0
 32 30  2  0  0  0  0
 33 29  2  0  0  0  0
 33 32  1  0  0  0  0
M  END
>  <MODEL>
1

>  <REMARK>
 VINA RESULT:      -9.7      0.000      0.000
  Name = 
  6 active torsions:
  status: ('A' for Active; 'I' for Inactive)
    1  A    between atoms: C_3  and  C_33
    2  A    between atoms: C_8  and  C_27
    3  A    between atoms: N_11  and  C_33
    4  A    between atoms: C_12  and  N_31
    5  A    between atoms: N_13  and  N_32
    6  A    between atoms: N_32  and  C_33
                            x       y       z     vdW  Elec       q    Type
                         _______ _______ _______ _____ _____    ______ ____

>  <TORSDO>
F 6

$$$$
=
 OpenBabel10232411143D

 33 36  0  0  1  0  0  0  0  0999 V2000
  184.9380  178.1350  141.4680 C   0  0  1  0  0  3  0  0  0  0  0  0
  185.9300  178.0220  143.7950 C   0  0  0  0  0  0  0  0  0  0  0  0
  184.7740  178.8530  146.0160 C   0  0  0  0  0  1  0  0  0  0  0  0
  187.0690  177.8640  145.7240 C   0  0  0  0  0  0  0  0  0  0  0  0
  184.8450  178.3150  142.9110 N   0  0  0  0  0  2  0  0  0  0  0  0
  187.8280  177.3780  144.5830 C   0  0  0  0  0  0  0  0  0  0  0  0
  188.8970  176.6540  144.6610 N   0  0  0  0  0  2  0  0  0  0  0  0
  185.9070  178.2730  145.2360 C   0  0  0  0  0  0  0  0  0  0  0  0
  187.0390  177.4770  143.4010 N   0  0  0  0  0  0  0  0  0  0  0  0
  187.8250  177.9010  148.2080 N   0  0  0  0  0  0  0  0  0  0  0  0
  187.4870  177.8860  147.1030 C   0  0  0  0  0  0  0  0  0  0  0  0
  183.5720  178.0430  140.8720 C   0  0  0  0  0  0  0  0  0  0  0  0
  180.5430  177.6320  140.3930 C   0  0  0  0  0  3  0  0  0  0  0  0
  180.2960  175.1910  139.7330 C   0  0  0  0  0  1  0  0  0  0  0  0
  181.1650  176.3880  139.8920 C   0  0  0  0  0  0  0  0  0  0  0  0
  182.4440  176.2880  139.5260 C   0  0  0  0  0  3  0  0  0  0  0  0
  183.3940  177.4420  139.5100 C   0  0  0  0  0  2  0  0  0  0  0  0
  182.5600  178.6170  141.5250 C   0  0  0  0  0  3  0  0  0  0  0  0
  181.1450  178.5960  141.1010 C   0  0  0  0  0  3  0  0  0  0  0  0
  185.6650  179.2490  140.8670 N   0  0  0  0  0  2  0  0  0  0  0  0
  187.7390  176.9860  137.6260 C   0  0  0  0  0  2  0  0  0  0  0  0
  187.5260  178.1500  139.6580 C   0  0  0  0  0  0  0  0  0  0  0  0
  187.0170  178.8810  140.7750 N   0  0  0  0  0  2  0  0  0  0  0  0
  188.7290  177.7010  139.6330 N   0  0  0  0  0  0  0  0  0  0  0  0
  186.3870  178.9510  137.7470 O   0  0  0  0  0  1  0  0  0  0  0  0
  186.7290  177.7910  138.4440 C   0  0  1  0  0  3  0  0  0  0  0  0
  188.9370  176.9980  138.4500 N   0  0  0  0  0  0  0  0  0  0  0  0
  190.1170  175.0630  137.4930 C   0  0  0  0  0  3  0  0  0  0  0  0
  192.5370  174.9520  137.5340 C   0  0  0  0  0  3  0  0  0  0  0  0
  190.1540  176.3040  138.1460 C   0  0  0  0  0  0  0  0  0  0  0  0
  191.3040  174.3890  137.1890 C   0  0  0  0  0  3  0  0  0  0  0  0
  191.3960  176.8600  138.4910 C   0  0  0  0  0  3  0  0  0  0  0  0
  192.5840  176.1880  138.1850 C   0  0  0  0  0  3  0  0  0  0  0  0
  1 20  1  6  0  0  0
  1  5  1  0  0  0  0
  2  8  1  0  0  0  0
  4 11  1  0  0  0  0
  5  2  1  0  0  0  0
  6  7  2  0  0  0  0
  6  4  1  0  0  0  0
  8  4  2  0  0  0  0
  8  3  1  0  0  0  0
  9  2  2  0  0  0  0
  9  6  1  0  0  0  0
 11 10  3  0  0  0  0
 12  1  1  0  0  0  0
 12 18  2  0  0  0  0
 13 19  2  0  0  0  0
 14 15  1  0  0  0  0
 15 13  1  0  0  0  0
 16 15  2  0  0  0  0
 17 16  1  0  0  0  0
 17 12  1  0  0  0  0
 19 18  1  0  0  0  0
 21 26  1  0  0  0  0
 21 27  1  0  0  0  0
 22 23  1  0  0  0  0
 23 20  1  0  0  0  0
 24 22  2  0  0  0  0
 26 25  1  6  0  0  0
 26 22  1  0  0  0  0
 27 24  1  0  0  0  0
 28 30  1  0  0  0  0
 29 33  2  0  0  0  0
 30 27  1  0  0  0  0
 30 32  2  0  0  0  0
 31 28  2  0  0  0  0
 31 29  1  0  0  0  0
 33 32  1  0  0  0  0
M  END
>  <MODEL>
2

>  <REMARK>
 VINA RESULT:      -9.2      2.226      3.435
  Name = 
  6 active torsions:
  status: ('A' for Active; 'I' for Inactive)
    1  A    between atoms: C_3  and  C_33
    2  A    between atoms: C_8  and  C_27
    3  A    between atoms: N_11  and  C_33
    4  A    between atoms: C_12  and  N_31
    5  A    between atoms: N_13  and  N_32
    6  A    between atoms: N_32  and  C_33
                            x       y       z     vdW  Elec       q    Type
                         _______ _______ _______ _____ _____    ______ ____

>  <TORSDO>
F 6

$$$$
=
 OpenBabel10232411143D

 33 36  0  0  1  0  0  0  0  0999 V2000
  187.1480  177.6560  143.7970 C   0  0  1  0  0  3  0  0  0  0  0  0
  189.0650  177.1070  145.3560 C   0  0  0  0  0  0  0  0  0  0  0  0
  189.1030  177.4920  147.9660 C   0  0  0  0  0  1  0  0  0  0  0  0
  190.9310  176.5900  146.4930 C   0  0  0  0  0  0  0  0  0  0  0  0
  187.7280  177.5570  145.1300 N   0  0  0  0  0  2  0  0  0  0  0  0
  191.0550  176.3350  145.0670 C   0  0  0  0  0  0  0  0  0  0  0  0
  191.9820  175.6160  144.5230 N   0  0  0  0  0  2  0  0  0  0  0  0
  189.7130  177.0780  146.6680 C   0  0  0  0  0  0  0  0  0  0  0  0
  189.8310  176.6530  144.4120 N   0  0  0  0  0  0  0  0  0  0  0  0
  192.7230  176.1570  148.3240 N   0  0  0  0  0  0  0  0  0  0  0  0
  191.9240  176.3510  147.5100 C   0  0  0  0  0  0  0  0  0  0  0  0
  185.8390  178.3730  143.8570 C   0  0  0  0  0  0  0  0  0  0  0  0
  182.8800  179.1570  144.3090 C   0  0  0  0  0  3  0  0  0  0  0  0
  181.6730  178.4620  142.1840 C   0  0  0  0  0  1  0  0  0  0  0  0
  182.9470  178.7890  142.8780 C   0  0  0  0  0  0  0  0  0  0  0  0
  184.0720  178.7820  142.1610 C   0  0  0  0  0  3  0  0  0  0  0  0
  185.3980  179.2150  142.6970 C   0  0  0  0  0  2  0  0  0  0  0  0
  185.1550  178.3390  145.0010 C   0  0  0  0  0  3  0  0  0  0  0  0
  183.8340  178.9610  145.2280 C   0  0  0  0  0  3  0  0  0  0  0  0
  188.0580  178.3650  142.9020 N   0  0  0  0  0  2  0  0  0  0  0  0
  190.5840  177.2540  139.3930 C   0  0  0  0  0  2  0  0  0  0  0  0
  188.6080  177.7490  140.5680 C   0  0  0  0  0  0  0  0  0  0  0  0
  187.6630  178.0930  141.5830 N   0  0  0  0  0  2  0  0  0  0  0  0
  188.2650  177.6260  139.3360 N   0  0  0  0  0  0  0  0  0  0  0  0
  190.2610  176.4130  141.6050 O   0  0  0  0  0  1  0  0  0  0  0  0
  190.0700  177.5400  140.8040 C   0  0  1  0  0  3  0  0  0  0  0  0
  189.3880  177.3270  138.5700 N   0  0  0  0  0  0  0  0  0  0  0  0
  190.3770  176.5060  136.4730 C   0  0  0  0  0  3  0  0  0  0  0  0
  189.2990  176.9470  134.3470 C   0  0  0  0  0  3  0  0  0  0  0  0
  189.3610  177.2040  137.1420 C   0  0  0  0  0  0  0  0  0  0  0  0
  190.3470  176.3780  135.0800 C   0  0  0  0  0  3  0  0  0  0  0  0
  188.3150  177.7730  136.3980 C   0  0  0  0  0  3  0  0  0  0  0  0
  188.2830  177.6440  135.0060 C   0  0  0  0  0  3  0  0  0  0  0  0
  1 20  1  6  0  0  0
  1 12  1  0  0  0  0
  1  5  1  0  0  0  0
  2  8  1  0  0  0  0
  4  8  2  0  0  0  0
  4 11  1  0  0  0  0
  5  2  1  0  0  0  0
  6  4  1  0  0  0  0
  7  6  2  0  0  0  0
  8  3  1  0  0  0  0
  9  6  1  0  0  0  0
  9  2  2  0  0  0  0
 11 10  3  0  0  0  0
 12 18  2  0  0  0  0
 13 19  2  0  0  0  0
 14 15  1  0  0  0  0
 15 13  1  0  0  0  0
 16 17  1  0  0  0  0
 16 15  2  0  0  0  0
 17 12  1  0  0  0  0
 18 19  1  0  0  0  0
 21 26  1  0  0  0  0
 22 26  1  0  0  0  0
 22 23  1  0  0  0  0
 23 20  1  0  0  0  0
 24 22  2  0  0  0  0
 26 25  1  1  0  0  0
 27 24  1  0  0  0  0
 27 21  1  0  0  0  0
 28 30  1  0  0  0  0
 29 33  2  0  0  0  0
 29 31  1  0  0  0  0
 30 27  1  0  0  0  0
 31 28  2  0  0  0  0
 32 30  2  0  0  0  0
 33 32  1  0  0  0  0
M  END
>  <MODEL>
3

>  <REMARK>
 VINA RESULT:      -9.2      1.755      2.198
  Name = 
  6 active torsions:
  status: ('A' for Active; 'I' for Inactive)
    1  A    between atoms: C_3  and  C_33
    2  A    between atoms: C_8  and  C_27
    3  A    between atoms: N_11  and  C_33
    4  A    between atoms: C_12  and  N_31
    5  A    between atoms: N_13  and  N_32
    6  A    between atoms: N_32  and  C_33
                            x       y       z     vdW  Elec       q    Type
                         _______ _______ _______ _____ _____    ______ ____

>  <TORSDO>
F 6

$$$$
=
 OpenBabel10232411143D

 33 36  0  0  1  0  0  0  0  0999 V2000
  183.0030  179.3030  139.0370 C   0  0  1  0  0  3  0  0  0  0  0  0
  184.8520  177.9430  137.9690 C   0  0  0  0  0  0  0  0  0  0  0  0
  184.5670  175.6110  136.7670 C   0  0  0  0  0  1  0  0  0  0  0  0
  186.6800  176.9160  137.1660 C   0  0  0  0  0  0  0  0  0  0  0  0
  183.4710  178.1580  138.2670 N   0  0  0  0  0  2  0  0  0  0  0  0
  186.9860  178.1840  137.8080 C   0  0  0  0  0  0  0  0  0  0  0  0
  188.1020  178.8250  137.6820 N   0  0  0  0  0  2  0  0  0  0  0  0
  185.3700  176.7610  137.2770 C   0  0  0  0  0  0  0  0  0  0  0  0
  185.7840  178.7950  138.2650 N   0  0  0  0  0  0  0  0  0  0  0  0
  188.3550  175.2950  136.0190 N   0  0  0  0  0  0  0  0  0  0  0  0
  187.6080  176.0170  136.5280 C   0  0  0  0  0  0  0  0  0  0  0  0
  181.9000  179.9980  138.3090 C   0  0  0  0  0  0  0  0  0  0  0  0
  180.0950  181.3000  136.1590 C   0  0  0  0  0  3  0  0  0  0  0  0
  180.8280  183.7300  136.0540 C   0  0  0  0  0  1  0  0  0  0  0  0
  180.7900  182.4400  136.7940 C   0  0  0  0  0  0  0  0  0  0  0  0
  181.3380  182.3970  138.0090 C   0  0  0  0  0  3  0  0  0  0  0  0
  181.2570  181.2090  138.9130 C   0  0  0  0  0  2  0  0  0  0  0  0
  181.4350  179.4390  137.1900 C   0  0  0  0  0  3  0  0  0  0  0  0
  180.3750  180.0010  136.3280 C   0  0  0  0  0  3  0  0  0  0  0  0
  182.5320  178.8700  140.3490 N   0  0  0  0  0  2  0  0  0  0  0  0
  183.6720  179.2480  144.6490 C   0  0  0  0  0  2  0  0  0  0  0  0
  183.8430  178.5170  142.4200 C   0  0  0  0  0  0  0  0  0  0  0  0
  183.6180  178.2940  141.0270 N   0  0  0  0  0  2  0  0  0  0  0  0
  184.9030  178.0980  143.0120 N   0  0  0  0  0  0  0  0  0  0  0  0
  181.7150  178.5930  143.4480 O   0  0  0  0  0  1  0  0  0  0  0  0
  182.9220  179.2810  143.3170 C   0  0  1  0  0  3  0  0  0  0  0  0
  184.8750  178.4900  144.3470 N   0  0  0  0  0  0  0  0  0  0  0  0
  185.8200  178.6050  146.6150 C   0  0  0  0  0  3  0  0  0  0  0  0
  188.0450  177.7570  147.0680 C   0  0  0  0  0  3  0  0  0  0  0  0
  185.9490  178.2480  145.2660 C   0  0  0  0  0  0  0  0  0  0  0  0
  186.8640  178.3610  147.5130 C   0  0  0  0  0  3  0  0  0  0  0  0
  187.1380  177.6440  144.8260 C   0  0  0  0  0  3  0  0  0  0  0  0
  188.1820  177.3980  145.7240 C   0  0  0  0  0  3  0  0  0  0  0  0
  1  5  1  6  0  0  0
  1 20  1  0  0  0  0
  2  9  2  0  0  0  0
  2  5  1  0  0  0  0
  3  8  1  0  0  0  0
  4  8  2  0  0  0  0
  4  6  1  0  0  0  0
  6  9  1  0  0  0  0
  7  6  2  0  0  0  0
  8  2  1  0  0  0  0
 10 11  3  0  0  0  0
 11  4  1  0  0  0  0
 12 17  1  0  0  0  0
 12  1  1  0  0  0  0
 13 19  2  0  0  0  0
 13 15  1  0  0  0  0
 14 15  1  0  0  0  0
 15 16  2  0  0  0  0
 16 17  1  0  0  0  0
 18 12  2  0  0  0  0
 19 18  1  0  0  0  0
 20 23  1  0  0  0  0
 22 24  2  0  0  0  0
 22 26  1  0  0  0  0
 23 22  1  0  0  0  0
 24 27  1  0  0  0  0
 26 25  1  1  0  0  0
 26 21  1  0  0  0  0
 27 21  1  0  0  0  0
 27 30  1  0  0  0  0
 28 31  1  0  0  0  0
 29 31  2  0  0  0  0
 30 28  2  0  0  0  0
 32 30  1  0  0  0  0
 32 33  2  0  0  0  0
 33 29  1  0  0  0  0
M  END
>  <MODEL>
4

>  <REMARK>
 VINA RESULT:      -9.2      4.137      8.874
  Name = 
  6 active torsions:
  status: ('A' for Active; 'I' for Inactive)
    1  A    between atoms: C_3  and  C_33
    2  A    between atoms: C_8  and  C_27
    3  A    between atoms: N_11  and  C_33
    4  A    between atoms: C_12  and  N_31
    5  A    between atoms: N_13  and  N_32
    6  A    between atoms: N_32  and  C_33
                            x       y       z     vdW  Elec       q    Type
                         _______ _______ _______ _____ _____    ______ ____

>  <TORSDO>
F 6

$$$$
=
 OpenBabel10232411143D

 33 36  0  0  1  0  0  0  0  0999 V2000
  188.5730  177.3940  140.8140 C   0  0  1  0  0  3  0  0  0  0  0  0
  190.6820  176.6790  139.6100 C   0  0  0  0  0  0  0  0  0  0  0  0
  193.1080  177.6290  140.0300 C   0  0  0  0  0  1  0  0  0  0  0  0
  192.3730  175.9120  138.3460 C   0  0  0  0  0  0  0  0  0  0  0  0
  190.0170  177.4400  140.6210 N   0  0  0  0  0  2  0  0  0  0  0  0
  191.0950  175.3090  138.0010 C   0  0  0  0  0  0  0  0  0  0  0  0
  190.9520  174.2420  137.2830 N   0  0  0  0  0  2  0  0  0  0  0  0
  192.1160  176.7640  139.3260 C   0  0  0  0  0  0  0  0  0  0  0  0
  190.0760  175.8140  138.8570 N   0  0  0  0  0  0  0  0  0  0  0  0
  194.6850  175.4060  137.2760 N   0  0  0  0  0  0  0  0  0  0  0  0
  193.6560  175.6320  137.7540 C   0  0  0  0  0  0  0  0  0  0  0  0
  188.2540  177.1600  142.2540 C   0  0  0  0  0  0  0  0  0  0  0  0
  187.5110  177.4830  145.2400 C   0  0  0  0  0  3  0  0  0  0  0  0
  189.7240  177.8040  146.4470 C   0  0  0  0  0  1  0  0  0  0  0  0
  188.9840  177.3450  145.2410 C   0  0  0  0  0  0  0  0  0  0  0  0
  189.6820  176.7890  144.2500 C   0  0  0  0  0  3  0  0  0  0  0  0
  189.0570  176.1700  143.0420 C   0  0  0  0  0  2  0  0  0  0  0  0
  187.1740  177.7540  142.7640 C   0  0  0  0  0  3  0  0  0  0  0  0
  186.7280  177.6620  144.1690 C   0  0  0  0  0  3  0  0  0  0  0  0
  187.9660  178.6460  140.3710 N   0  0  0  0  0  2  0  0  0  0  0  0
  183.7500  178.1160  139.0020 C   0  0  0  0  0  2  0  0  0  0  0  0
  186.0860  178.2970  138.7980 C   0  0  0  0  0  0  0  0  0  0  0  0
  187.4810  178.4510  139.0690 N   0  0  0  0  0  2  0  0  0  0  0  0
  185.6520  177.9910  137.6280 N   0  0  0  0  0  0  0  0  0  0  0  0
  184.9440  179.7420  140.2800 O   0  0  0  0  0  1  0  0  0  0  0  0
  185.0030  178.4260  139.8220 C   0  0  1  0  0  3  0  0  0  0  0  0
  184.2660  177.8690  137.6660 N   0  0  0  0  0  0  0  0  0  0  0  0
  184.0780  176.7970  135.4600 C   0  0  0  0  0  3  0  0  0  0  0  0
  181.9310  176.6370  134.3460 C   0  0  0  0  0  3  0  0  0  0  0  0
  183.4780  177.4580  136.5410 C   0  0  0  0  0  0  0  0  0  0  0  0
  183.3080  176.3880  134.3660 C   0  0  0  0  0  3  0  0  0  0  0  0
  182.0960  177.7060  136.5120 C   0  0  0  0  0  3  0  0  0  0  0  0
  181.3250  177.2960  135.4190 C   0  0  0  0  0  3  0  0  0  0  0  0
  1 20  1  1  0  0  0
  1 12  1  0  0  0  0
  2  5  1  0  0  0  0
  4  8  2  0  0  0  0
  5  1  1  0  0  0  0
  6  4  1  0  0  0  0
  6  9  1  0  0  0  0
  7  6  2  0  0  0  0
  8  2  1  0  0  0  0
  8  3  1  0  0  0  0
  9  2  2  0  0  0  0
 10 11  3  0  0  0  0
 11  4  1  0  0  0  0
 12 18  2  0  0  0  0
 12 17  1  0  0  0  0
 13 15  1  0  0  0  0
 15 14  1  0  0  0  0
 16 15  2  0  0  0  0
 17 16  1  0  0  0  0
 18 19  1  0  0  0  0
 19 13  2  0  0  0  0
 21 26  1  0  0  0  0
 22 23  1  0  0  0  0
 22 26  1  0  0  0  0
 23 20  1  0  0  0  0
 24 27  1  0  0  0  0
 24 22  2  0  0  0  0
 26 25  1  6  0  0  0
 27 21  1  0  0  0  0
 28 30  1  0  0  0  0
 29 31  1  0  0  0  0
 29 33  2  0  0  0  0
 30 27  1  0  0  0  0
 31 28  2  0  0  0  0
 32 30  2  0  0  0  0
 33 32  1  0  0  0  0
M  END
>  <MODEL>
5

>  <REMARK>
 VINA RESULT:      -9.0      3.264      6.695
  Name = 
  6 active torsions:
  status: ('A' for Active; 'I' for Inactive)
    1  A    between atoms: C_3  and  C_33
    2  A    between atoms: C_8  and  C_27
    3  A    between atoms: N_11  and  C_33
    4  A    between atoms: C_12  and  N_31
    5  A    between atoms: N_13  and  N_32
    6  A    between atoms: N_32  and  C_33
                            x       y       z     vdW  Elec       q    Type
                         _______ _______ _______ _____ _____    ______ ____

>  <TORSDO>
F 6

$$$$
=
 OpenBabel10232411143D

 33 36  0  0  1  0  0  0  0  0999 V2000
  185.6110  179.1800  141.3690 C   0  0  1  0  0  3  0  0  0  0  0  0
  184.0190  178.7750  139.4440 C   0  0  0  0  0  0  0  0  0  0  0  0
  183.9470  176.6250  137.9140 C   0  0  0  0  0  1  0  0  0  0  0  0
  182.5410  178.7050  137.7540 C   0  0  0  0  0  0  0  0  0  0  0  0
  185.0590  178.3350  140.3190 N   0  0  0  0  0  2  0  0  0  0  0  0
  182.4750  179.9480  138.5060 C   0  0  0  0  0  0  0  0  0  0  0  0
  181.5020  180.7970  138.4440 N   0  0  0  0  0  2  0  0  0  0  0  0
  183.5000  177.9900  138.3220 C   0  0  0  0  0  0  0  0  0  0  0  0
  183.4120  179.9140  139.5770 N   0  0  0  0  0  0  0  0  0  0  0  0
  181.0730  178.0130  135.7260 N   0  0  0  0  0  0  0  0  0  0  0  0
  181.7250  178.3220  136.6300 C   0  0  0  0  0  0  0  0  0  0  0  0
  185.1420  178.7130  142.7070 C   0  0  0  0  0  0  0  0  0  0  0  0
  184.0320  178.5370  145.5900 C   0  0  0  0  0  3  0  0  0  0  0  0
  186.0590  178.7890  147.1020 C   0  0  0  0  0  1  0  0  0  0  0  0
  185.5010  178.4800  145.7580 C   0  0  0  0  0  0  0  0  0  0  0  0
  186.3490  178.1190  144.7940 C   0  0  0  0  0  3  0  0  0  0  0  0
  185.9160  177.6590  143.4400 C   0  0  0  0  0  2  0  0  0  0  0  0
  183.9700  179.1640  143.1560 C   0  0  0  0  0  3  0  0  0  0  0  0
  183.3700  178.8350  144.4660 C   0  0  0  0  0  3  0  0  0  0  0  0
  187.0700  179.1550  141.3210 N   0  0  0  0  0  2  0  0  0  0  0  0
  190.8540  176.9080  140.5700 C   0  0  0  0  0  2  0  0  0  0  0  0
  188.7110  177.7570  140.1030 C   0  0  0  0  0  0  0  0  0  0  0  0
  187.4510  178.4250  140.1840 N   0  0  0  0  0  2  0  0  0  0  0  0
  189.1140  177.1980  139.0190 N   0  0  0  0  0  0  0  0  0  0  0  0
  189.1680  176.9050  142.2610 O   0  0  0  0  0  1  0  0  0  0  0  0
  189.7000  177.6700  141.2220 C   0  0  1  0  0  3  0  0  0  0  0  0
  190.3840  176.6640  139.2160 N   0  0  0  0  0  0  0  0  0  0  0  0
  192.4450  176.4890  137.8860 C   0  0  0  0  0  3  0  0  0  0  0  0
  192.6570  174.8060  136.1560 C   0  0  0  0  0  3  0  0  0  0  0  0
  191.1500  176.0390  138.1770 C   0  0  0  0  0  0  0  0  0  0  0  0
  193.1970  175.8750  136.8790 C   0  0  0  0  0  3  0  0  0  0  0  0
  190.6150  174.9670  137.4450 C   0  0  0  0  0  3  0  0  0  0  0  0
  191.3660  174.3510  136.4390 C   0  0  0  0  0  3  0  0  0  0  0  0
  1  5  1  6  0  0  0
  1 12  1  0  0  0  0
  2  9  2  0  0  0  0
  2  5  1  0  0  0  0
  3  8  1  0  0  0  0
  4  8  2  0  0  0  0
  4  6  1  0  0  0  0
  6  9  1  0  0  0  0
  7  6  2  0  0  0  0
  8  2  1  0  0  0  0
 10 11  3  0  0  0  0
 11  4  1  0  0  0  0
 12 18  2  0  0  0  0
 12 17  1  0  0  0  0
 13 15  1  0  0  0  0
 15 14  1  0  0  0  0
 16 15  2  0  0  0  0
 17 16  1  0  0  0  0
 18 19  1  0  0  0  0
 19 13  2  0  0  0  0
 20  1  1  0  0  0  0
 21 26  1  0  0  0  0
 22 23  1  0  0  0  0
 22 26  1  0  0  0  0
 23 20  1  0  0  0  0
 24 27  1  0  0  0  0
 24 22  2  0  0  0  0
 26 25  1  1  0  0  0
 27 21  1  0  0  0  0
 28 30  1  0  0  0  0
 29 33  2  0  0  0  0
 29 31  1  0  0  0  0
 30 27  1  0  0  0  0
 31 28  2  0  0  0  0
 32 30  2  0  0  0  0
 33 32  1  0  0  0  0
M  END
>  <MODEL>
6

>  <REMARK>
 VINA RESULT:      -9.0      3.182      6.834
  Name = 
  6 active torsions:
  status: ('A' for Active; 'I' for Inactive)
    1  A    between atoms: C_3  and  C_33
    2  A    between atoms: C_8  and  C_27
    3  A    between atoms: N_11  and  C_33
    4  A    between atoms: C_12  and  N_31
    5  A    between atoms: N_13  and  N_32
    6  A    between atoms: N_32  and  C_33
                            x       y       z     vdW  Elec       q    Type
                         _______ _______ _______ _____ _____    ______ ____

>  <TORSDO>
F 6

$$$$
=
 OpenBabel10232411143D

 33 36  0  0  1  0  0  0  0  0999 V2000
  189.9750  176.1280  138.7140 C   0  0  1  0  0  3  0  0  0  0  0  0
  187.9210  176.4980  137.2810 C   0  0  0  0  0  0  0  0  0  0  0  0
  187.1680  178.7900  136.2110 C   0  0  0  0  0  1  0  0  0  0  0  0
  186.0100  176.5590  136.1040 C   0  0  0  0  0  0  0  0  0  0  0  0
  189.1310  176.9710  137.8780 N   0  0  0  0  0  2  0  0  0  0  0  0
  186.2960  175.2390  136.6410 C   0  0  0  0  0  0  0  0  0  0  0  0
  185.7210  174.1450  136.2570 N   0  0  0  0  0  2  0  0  0  0  0  0
  187.0020  177.3370  136.5100 C   0  0  0  0  0  0  0  0  0  0  0  0
  187.5330  175.2620  137.3460 N   0  0  0  0  0  0  0  0  0  0  0  0
  183.9810  177.2480  134.6350 N   0  0  0  0  0  0  0  0  0  0  0  0
  184.8850  176.9430  135.2890 C   0  0  0  0  0  0  0  0  0  0  0  0
  191.1340  175.6140  137.9240 C   0  0  0  0  0  0  0  0  0  0  0  0
  193.3950  173.8770  136.7210 C   0  0  0  0  0  3  0  0  0  0  0  0
  195.4140  174.2880  138.2080 C   0  0  0  0  0  1  0  0  0  0  0  0
  194.0770  174.7240  137.7250 C   0  0  0  0  0  0  0  0  0  0  0  0
  193.5890  175.8770  138.1830 C   0  0  0  0  0  3  0  0  0  0  0  0
  192.3220  176.4960  137.6870 C   0  0  0  0  0  2  0  0  0  0  0  0
  191.0200  174.4180  137.3450 C   0  0  0  0  0  3  0  0  0  0  0  0
  192.0730  173.7430  136.5580 C   0  0  0  0  0  3  0  0  0  0  0  0
  190.4590  176.8830  139.8660 N   0  0  0  0  0  2  0  0  0  0  0  0
  188.2280  176.5380  143.7160 C   0  0  0  0  0  2  0  0  0  0  0  0
  188.7870  177.4220  141.6100 C   0  0  0  0  0  0  0  0  0  0  0  0
  189.3970  177.6680  140.3420 N   0  0  0  0  0  2  0  0  0  0  0  0
  187.7350  178.0540  141.9910 N   0  0  0  0  0  0  0  0  0  0  0  0
  190.5180  176.7600  143.0790 O   0  0  0  0  0  1  0  0  0  0  0  0
  189.2590  176.4010  142.5960 C   0  0  1  0  0  3  0  0  0  0  0  0
  187.3410  177.5860  143.2410 N   0  0  0  0  0  0  0  0  0  0  0  0
  186.1190  178.1020  145.3130 C   0  0  0  0  0  3  0  0  0  0  0  0
  183.8380  178.9170  145.2290 C   0  0  0  0  0  3  0  0  0  0  0  0
  186.1540  178.0300  143.9130 C   0  0  0  0  0  0  0  0  0  0  0  0
  184.9650  178.5440  145.9690 C   0  0  0  0  0  3  0  0  0  0  0  0
  185.0180  178.4040  143.1780 C   0  0  0  0  0  3  0  0  0  0  0  0
  183.8640  178.8470  143.8330 C   0  0  0  0  0  3  0  0  0  0  0  0
  1  5  1  6  0  0  0
  1 20  1  0  0  0  0
  2  9  2  0  0  0  0
  2  5  1  0  0  0  0
  3  8  1  0  0  0  0
  4  8  2  0  0  0  0
  4  6  1  0  0  0  0
  6  9  1  0  0  0  0
  7  6  2  0  0  0  0
  8  2  1  0  0  0  0
 10 11  3  0  0  0  0
 11  4  1  0  0  0  0
 12  1  1  0  0  0  0
 13 15  1  0  0  0  0
 15 16  2  0  0  0  0
 15 14  1  0  0  0  0
 17 12  1  0  0  0  0
 17 16  1  0  0  0  0
 18 12  2  0  0  0  0
 19 13  2  0  0  0  0
 19 18  1  0  0  0  0
 20 23  1  0  0  0  0
 22 24  2  0  0  0  0
 22 26  1  0  0  0  0
 23 22  1  0  0  0  0
 24 27  1  0  0  0  0
 26 25  1  1  0  0  0
 26 21  1  0  0  0  0
 27 21  1  0  0  0  0
 27 30  1  0  0  0  0
 28 31  1  0  0  0  0
 29 31  2  0  0  0  0
 30 28  2  0  0  0  0
 32 33  2  0  0  0  0
 32 30  1  0  0  0  0
 33 29  1  0  0  0  0
M  END
>  <MODEL>
7

>  <REMARK>
 VINA RESULT:      -8.9      2.726      9.501
  Name = 
  6 active torsions:
  status: ('A' for Active; 'I' for Inactive)
    1  A    between atoms: C_3  and  C_33
    2  A    between atoms: C_8  and  C_27
    3  A    between atoms: N_11  and  C_33
    4  A    between atoms: C_12  and  N_31
    5  A    between atoms: N_13  and  N_32
    6  A    between atoms: N_32  and  C_33
                            x       y       z     vdW  Elec       q    Type
                         _______ _______ _______ _____ _____    ______ ____

>  <TORSDO>
F 6

$$$$
=
 OpenBabel10232411143D

 33 36  0  0  1  0  0  0  0  0999 V2000
  188.1420  177.5840  141.4470 C   0  0  1  0  0  3  0  0  0  0  0  0
  188.8010  177.4780  139.0050 C   0  0  0  0  0  0  0  0  0  0  0  0
  189.0650  179.5390  137.3790 C   0  0  0  0  0  1  0  0  0  0  0  0
  189.3310  177.0930  136.8570 C   0  0  0  0  0  0  0  0  0  0  0  0
  188.4880  178.2230  140.1840 N   0  0  0  0  0  2  0  0  0  0  0  0
  189.2110  175.8700  137.6340 C   0  0  0  0  0  0  0  0  0  0  0  0
  189.6480  174.7110  137.2590 N   0  0  0  0  0  2  0  0  0  0  0  0
  189.0660  178.0810  137.6980 C   0  0  0  0  0  0  0  0  0  0  0  0
  188.9060  176.1850  138.9880 N   0  0  0  0  0  0  0  0  0  0  0  0
  189.9580  177.3070  134.3460 N   0  0  0  0  0  0  0  0  0  0  0  0
  189.6800  177.2100  135.4640 C   0  0  0  0  0  0  0  0  0  0  0  0
  189.3400  177.5230  142.3380 C   0  0  0  0  0  0  0  0  0  0  0  0
  191.6070  176.6130  144.2370 C   0  0  0  0  0  3  0  0  0  0  0  0
  190.6760  176.9150  146.5820 C   0  0  0  0  0  1  0  0  0  0  0  0
  190.6080  177.2380  145.1310 C   0  0  0  0  0  0  0  0  0  0  0  0
  189.6860  178.1120  144.7250 C   0  0  0  0  0  3  0  0  0  0  0  0
  189.5900  178.6230  143.3240 C   0  0  0  0  0  2  0  0  0  0  0  0
  190.2220  176.5420  142.1400 C   0  0  0  0  0  3  0  0  0  0  0  0
  191.4390  176.3100  142.9440 C   0  0  0  0  0  3  0  0  0  0  0  0
  187.0720  178.3230  142.1100 N   0  0  0  0  0  2  0  0  0  0  0  0
  182.8360  178.2510  140.7030 C   0  0  0  0  0  2  0  0  0  0  0  0
  185.0700  178.9790  140.8090 C   0  0  0  0  0  0  0  0  0  0  0  0
  186.4490  179.1330  141.1470 N   0  0  0  0  0  2  0  0  0  0  0  0
  184.5320  179.6290  139.8410 N   0  0  0  0  0  0  0  0  0  0  0  0
  183.9360  178.4420  142.8130 O   0  0  0  0  0  1  0  0  0  0  0  0
  184.1280  178.0380  141.4920 C   0  0  1  0  0  3  0  0  0  0  0  0
  183.1970  179.2540  139.7150 N   0  0  0  0  0  0  0  0  0  0  0  0
  181.9240  181.0790  138.6660 C   0  0  0  0  0  3  0  0  0  0  0  0
  180.6590  180.6910  136.6350 C   0  0  0  0  0  3  0  0  0  0  0  0
  182.3340  179.7380  138.6770 C   0  0  0  0  0  0  0  0  0  0  0  0
  181.0890  181.5540  137.6490 C   0  0  0  0  0  3  0  0  0  0  0  0
  181.8960  178.8780  137.6570 C   0  0  0  0  0  3  0  0  0  0  0  0
  181.0630  179.3530  136.6390 C   0  0  0  0  0  3  0  0  0  0  0  0
  1  5  1  6  0  0  0
  1 20  1  0  0  0  0
  1 12  1  0  0  0  0
  2  5  1  0  0  0  0
  3  8  1  0  0  0  0
  4  6  1  0  0  0  0
  4  8  2  0  0  0  0
  6  9  1  0  0  0  0
  7  6  2  0  0  0  0
  8  2  1  0  0  0  0
  9  2  2  0  0  0  0
 10 11  3  0  0  0  0
 11  4  1  0  0  0  0
 12 17  1  0  0  0  0
 13 15  1  0  0  0  0
 15 14  1  0  0  0  0
 16 15  2  0  0  0  0
 17 16  1  0  0  0  0
 18 12  2  0  0  0  0
 18 19  1  0  0  0  0
 19 13  2  0  0  0  0
 21 26  1  0  0  0  0
 22 23  1  0  0  0  0
 22 26  1  0  0  0  0
 23 20  1  0  0  0  0
 24 22  2  0  0  0  0
 26 25  1  1  0  0  0
 27 24  1  0  0  0  0
 27 21  1  0  0  0  0
 28 30  1  0  0  0  0
 29 33  2  0  0  0  0
 29 31  1  0  0  0  0
 30 27  1  0  0  0  0
 31 28  2  0  0  0  0
 32 30  2  0  0  0  0
 33 32  1  0  0  0  0
M  END
>  <MODEL>
8

>  <REMARK>
 VINA RESULT:      -8.6      2.953      8.298
  Name = 
  6 active torsions:
  status: ('A' for Active; 'I' for Inactive)
    1  A    between atoms: C_3  and  C_33
    2  A    between atoms: C_8  and  C_27
    3  A    between atoms: N_11  and  C_33
    4  A    between atoms: C_12  and  N_31
    5  A    between atoms: N_13  and  N_32
    6  A    between atoms: N_32  and  C_33
                            x       y       z     vdW  Elec       q    Type
                         _______ _______ _______ _____ _____    ______ ____

>  <TORSDO>
F 6

$$$$
=
 OpenBabel10232411143D

 33 36  0  0  1  0  0  0  0  0999 V2000
  184.9130  178.9640  139.1550 C   0  0  1  0  0  3  0  0  0  0  0  0
  186.8040  178.0780  137.7230 C   0  0  0  0  0  0  0  0  0  0  0  0
  189.0020  176.9130  138.6030 C   0  0  0  0  0  1  0  0  0  0  0  0
  188.3570  177.4450  136.2300 C   0  0  0  0  0  0  0  0  0  0  0  0
  186.1800  178.2610  138.9960 N   0  0  0  0  0  2  0  0  0  0  0  0
  187.2060  178.0780  135.6080 C   0  0  0  0  0  0  0  0  0  0  0  0
  186.9260  178.0250  134.3460 N   0  0  0  0  0  2  0  0  0  0  0  0
  188.1150  177.4570  137.5320 C   0  0  0  0  0  0  0  0  0  0  0  0
  186.2490  178.4250  136.6030 N   0  0  0  0  0  0  0  0  0  0  0  0
  190.4500  176.4720  135.0380 N   0  0  0  0  0  0  0  0  0  0  0  0
  189.5170  176.9030  135.5690 C   0  0  0  0  0  0  0  0  0  0  0  0
  183.7720  178.0270  138.9290 C   0  0  0  0  0  0  0  0  0  0  0  0
  181.9030  175.5620  138.8390 C   0  0  0  0  0  3  0  0  0  0  0  0
  182.4730  174.3720  136.6680 C   0  0  0  0  0  1  0  0  0  0  0  0
  182.5150  175.6090  137.4930 C   0  0  0  0  0  0  0  0  0  0  0  0
  183.0540  176.7040  136.9560 C   0  0  0  0  0  3  0  0  0  0  0  0
  183.0450  178.0430  137.6190 C   0  0  0  0  0  2  0  0  0  0  0  0
  183.3550  177.2850  139.9560 C   0  0  0  0  0  3  0  0  0  0  0  0
  182.2680  176.2860  139.9050 C   0  0  0  0  0  3  0  0  0  0  0  0
  184.8210  179.5410  140.4930 N   0  0  0  0  0  2  0  0  0  0  0  0
  184.8660  178.9560  144.9180 C   0  0  0  0  0  2  0  0  0  0  0  0
  185.6620  178.8250  142.7090 C   0  0  0  0  0  0  0  0  0  0  0  0
  185.8020  178.9320  141.2910 N   0  0  0  0  0  2  0  0  0  0  0  0
  186.6120  178.3860  143.4540 N   0  0  0  0  0  0  0  0  0  0  0  0
  183.3720  178.4170  143.1350 O   0  0  0  0  0  1  0  0  0  0  0  0
  184.4460  179.2400  143.4760 C   0  0  1  0  0  3  0  0  0  0  0  0
  186.2140  178.4290  144.7870 N   0  0  0  0  0  0  0  0  0  0  0  0
  188.2610  177.3720  145.6490 C   0  0  0  0  0  3  0  0  0  0  0  0
  188.7670  177.4160  148.0190 C   0  0  0  0  0  3  0  0  0  0  0  0
  187.0740  178.0810  145.8800 C   0  0  0  0  0  0  0  0  0  0  0  0
  189.1050  177.0400  146.7140 C   0  0  0  0  0  3  0  0  0  0  0  0
  186.7410  178.4520  147.1930 C   0  0  0  0  0  3  0  0  0  0  0  0
  187.5850  178.1230  148.2590 C   0  0  0  0  0  3  0  0  0  0  0  0
  1  5  1  1  0  0  0
  1 20  1  0  0  0  0
  2  5  1  0  0  0  0
  4  8  2  0  0  0  0
  6  4  1  0  0  0  0
  6  9  1  0  0  0  0
  7  6  2  0  0  0  0
  8  2  1  0  0  0  0
  8  3  1  0  0  0  0
  9  2  2  0  0  0  0
 10 11  3  0  0  0  0
 11  4  1  0  0  0  0
 12  1  1  0  0  0  0
 12 18  2  0  0  0  0
 13 19  2  0  0  0  0
 14 15  1  0  0  0  0
 15 13  1  0  0  0  0
 16 15  2  0  0  0  0
 16 17  1  0  0  0  0
 17 12  1  0  0  0  0
 19 18  1  0  0  0  0
 20 23  1  0  0  0  0
 22 24  2  0  0  0  0
 22 26  1  0  0  0  0
 23 22  1  0  0  0  0
 24 27  1  0  0  0  0
 26 25  1  6  0  0  0
 26 21  1  0  0  0  0
 27 21  1  0  0  0  0
 27 30  1  0  0  0  0
 28 30  2  0  0  0  0
 28 31  1  0  0  0  0
 29 33  1  0  0  0  0
 30 32  1  0  0  0  0
 31 29  2  0  0  0  0
 32 33  2  0  0  0  0
M  END
>  <MODEL>
9

>  <REMARK>
 VINA RESULT:      -8.6      3.326      8.331
  Name = 
  6 active torsions:
  status: ('A' for Active; 'I' for Inactive)
    1  A    between atoms: C_3  and  C_33
    2  A    between atoms: C_8  and  C_27
    3  A    between atoms: N_11  and  C_33
    4  A    between atoms: C_12  and  N_31
    5  A    between atoms: N_13  and  N_32
    6  A    between atoms: N_32  and  C_33
                            x       y       z     vdW  Elec       q    Type
                         _______ _______ _______ _____ _____    ______ ____

>  <TORSDO>
F 6

$$$$
