=
 OpenBabel10232408143D

 32 36  0  0  1  0  0  0  0  0999 V2000
  184.3250  175.6190  135.0030 C   0  0  0  0  0  2  0  0  0  0  0  0
  184.5500  178.1850  137.5720 C   0  0  1  0  0  3  0  0  0  0  0  0
  186.7790  178.8260  138.2280 O   0  0  0  0  0  0  0  0  0  0  0  0
  184.8300  179.2130  142.3520 C   0  0  0  0  0  0  0  0  0  0  0  0
  181.0520  175.7630  137.6350 O   0  0  0  0  0  1  0  0  0  0  0  0
  181.8540  174.9830  135.4750 C   0  0  0  0  0  2  0  0  0  0  0  0
  181.1100  176.0660  136.2730 C   0  0  2  0  0  3  0  0  0  0  0  0
  183.3380  174.7550  135.8020 C   0  0  2  0  0  3  0  0  0  0  0  0
  184.2930  177.0250  135.3870 N   0  0  0  0  0  2  0  0  0  0  0  0
  185.1380  177.1910  136.5580 C   0  0  1  0  0  3  0  0  0  0  0  0
  181.4260  177.9490  134.7610 C   0  0  0  0  0  3  0  0  0  0  0  0
  186.2570  179.0110  141.2960 S   0  0  0  0  0  0  0  0  0  0  0  0
  182.0630  178.3860  137.1050 C   0  0  0  0  0  2  0  0  0  0  0  0
  182.7480  178.3700  139.4260 C   0  0  0  0  0  2  0  0  0  0  0  0
  185.0730  178.9710  139.9210 C   0  0  2  0  0  3  0  0  0  0  0  0
  186.5380  177.6400  136.1350 C   0  0  0  0  0  2  0  0  0  0  0  0
  181.5900  177.4700  136.0040 C   0  0  0  0  0  0  0  0  0  0  0  0
  183.5320  178.7390  141.7970 C   0  0  1  0  0  3  0  0  0  0  0  0
  183.1140  177.8000  138.0460 C   0  0  2  0  0  3  0  0  0  0  0  0
  188.7640  178.3540  136.9860 C   0  0  0  0  0  1  0  0  0  0  0  0
  184.8970  179.8080  143.4150 O   0  0  0  0  0  0  0  0  0  0  0  0
  187.3870  177.8700  137.3900 C   0  0  1  0  0  3  0  0  0  0  0  0
  183.8740  178.1990  140.4230 C   0  0  1  0  0  3  0  0  0  0  0  0
  183.0200  177.7120  142.5900 O   0  0  0  0  0  1  0  0  0  0  0  0
  185.5990  178.2320  138.7090 C   0  0  1  0  0  3  0  0  0  0  0  0
  183.6690  174.6040  137.2920 C   0  0  2  0  0  3  0  0  0  0  0  0
  185.0850  174.2340  137.4550 N   0  0  0  0  0  2  0  0  0  0  0  0
  184.0340  173.2450  137.7430 C   0  0  2  0  0  3  0  0  0  0  0  0
  183.0860  171.1320  137.0020 N   0  0  0  0  0  1  0  0  0  0  0  0
  184.0470  172.1670  136.6660 C   0  0  0  0  0  2  0  0  0  0  0  0
  181.7830  179.3480  134.3670 C   0  0  0  0  0  2  0  0  0  0  0  0
  180.5310  180.1990  134.3460 C   0  0  0  0  0  1  0  0  0  0  0  0
  1  9  1  0  0  0  0
  1  8  1  0  0  0  0
  2 19  1  0  0  0  0
  2 25  1  0  0  0  0
  3 25  1  0  0  0  0
  4 21  2  0  0  0  0
  6  8  1  0  0  0  0
  6  7  1  0  0  0  0
  7  5  1  0  0  0  0
  8 26  1  0  0  0  0
  9 10  1  0  0  0  0
 10  2  1  0  0  0  0
 11 17  2  0  0  0  0
 12  4  1  0  0  0  0
 13 19  1  0  0  0  0
 14 23  1  0  0  0  0
 15 23  1  0  0  0  0
 15 12  1  0  0  0  0
 16 10  1  0  0  0  0
 16 22  1  0  0  0  0
 17  7  1  0  0  0  0
 17 13  1  0  0  0  0
 18  4  1  0  0  0  0
 18 24  1  0  0  0  0
 19 14  1  0  0  0  0
 20 22  1  0  0  0  0
 22  3  1  0  0  0  0
 23 18  1  0  0  0  0
 25 15  1  0  0  0  0
 26 27  1  0  0  0  0
 26 28  1  0  0  0  0
 27 28  1  0  0  0  0
 30 29  1  0  0  0  0
 30 28  1  0  0  0  0
 31 11  1  0  0  0  0
 32 31  1  0  0  0  0
M  END
>  <MODEL>
1

>  <REMARK>
 VINA RESULT:      -4.9      0.000      0.000
  Name = 
  3 active torsions:
  status: ('A' for Active; 'I' for Inactive)
    1  A    between atoms: C_7  and  C_11
    2  A    between atoms: C_9  and  C_27
    3  A    between atoms: C_14  and  C_18
                            x       y       z     vdW  Elec       q    Type
                         _______ _______ _______ _____ _____    ______ ____

>  <TORSDO>
F 3

$$$$
=
 OpenBabel10232408143D

 32 36  0  0  1  0  0  0  0  0999 V2000
  182.6460  177.5370  136.6860 C   0  0  0  0  0  2  0  0  0  0  0  0
  184.0850  179.1480  139.6140 C   0  0  1  0  0  3  0  0  0  0  0  0
  186.4560  178.8450  139.9230 O   0  0  0  0  0  0  0  0  0  0  0  0
  185.2820  178.7750  144.3480 C   0  0  0  0  0  0  0  0  0  0  0  0
  179.9820  178.0540  139.8960 O   0  0  0  0  0  1  0  0  0  0  0  0
  180.1860  177.6350  137.5080 C   0  0  0  0  0  2  0  0  0  0  0  0
  179.9840  178.6590  138.6370 C   0  0  2  0  0  3  0  0  0  0  0  0
  181.5160  176.8640  137.4800 C   0  0  2  0  0  3  0  0  0  0  0  0
  183.1690  178.7310  137.3400 N   0  0  0  0  0  2  0  0  0  0  0  0
  184.1500  178.3110  138.3260 C   0  0  1  0  0  3  0  0  0  0  0  0
  180.7760  180.6590  137.4950 C   0  0  0  0  0  3  0  0  0  0  0  0
  186.4030  178.4000  143.0090 S   0  0  0  0  0  0  0  0  0  0  0  0
  181.8010  180.2530  139.7030 C   0  0  0  0  0  2  0  0  0  0  0  0
  182.7040  179.4260  141.7900 C   0  0  0  0  0  2  0  0  0  0  0  0
  185.1310  179.0970  141.9190 C   0  0  2  0  0  3  0  0  0  0  0  0
  185.5560  178.3760  137.7290 C   0  0  0  0  0  2  0  0  0  0  0  0
  180.9020  179.8520  138.5600 C   0  0  0  0  0  0  0  0  0  0  0  0
  183.8440  178.9040  143.9810 C   0  0  1  0  0  3  0  0  0  0  0  0
  182.6740  179.1400  140.2800 C   0  0  2  0  0  3  0  0  0  0  0  0
  187.9730  178.0910  138.2410 C   0  0  0  0  0  1  0  0  0  0  0  0
  185.6850  179.0250  145.4720 O   0  0  0  0  0  0  0  0  0  0  0  0
  186.5730  177.9920  138.8090 C   0  0  1  0  0  3  0  0  0  0  0  0
  183.8030  178.6520  142.4870 C   0  0  1  0  0  3  0  0  0  0  0  0
  183.0930  177.9320  144.6420 O   0  0  0  0  0  1  0  0  0  0  0  0
  185.2070  178.5630  140.5050 C   0  0  1  0  0  3  0  0  0  0  0  0
  181.9440  176.2400  138.8130 C   0  0  2  0  0  3  0  0  0  0  0  0
  182.8900  175.1390  138.5690 N   0  0  0  0  0  2  0  0  0  0  0  0
  181.5280  174.8400  139.0400 C   0  0  2  0  0  3  0  0  0  0  0  0
  180.4540  172.8070  138.2510 N   0  0  0  0  0  1  0  0  0  0  0  0
  180.7350  174.1900  137.9120 C   0  0  0  0  0  2  0  0  0  0  0  0
  181.5640  181.9190  137.3220 C   0  0  0  0  0  2  0  0  0  0  0  0
  180.6420  183.0300  136.8670 C   0  0  0  0  0  1  0  0  0  0  0  0
  1  9  1  0  0  0  0
  1  8  1  0  0  0  0
  2 19  1  0  0  0  0
  2 25  1  0  0  0  0
  3 25  1  0  0  0  0
  4 21  2  0  0  0  0
  6  7  1  0  0  0  0
  7  5  1  0  0  0  0
  8  6  1  0  0  0  0
  8 26  1  0  0  0  0
  9 10  1  0  0  0  0
 10  2  1  0  0  0  0
 11 17  2  0  0  0  0
 12  4  1  0  0  0  0
 13 19  1  0  0  0  0
 14 23  1  0  0  0  0
 15 23  1  0  0  0  0
 15 12  1  0  0  0  0
 16 10  1  0  0  0  0
 16 22  1  0  0  0  0
 17  7  1  0  0  0  0
 17 13  1  0  0  0  0
 18  4  1  0  0  0  0
 18 24  1  0  0  0  0
 19 14  1  0  0  0  0
 20 22  1  0  0  0  0
 22  3  1  0  0  0  0
 23 18  1  0  0  0  0
 25 15  1  0  0  0  0
 26 28  1  0  0  0  0
 27 26  1  0  0  0  0
 27 28  1  0  0  0  0
 30 29  1  0  0  0  0
 30 28  1  0  0  0  0
 31 11  1  0  0  0  0
 32 31  1  0  0  0  0
M  END
>  <MODEL>
2

>  <REMARK>
 VINA RESULT:      -4.1      2.253      2.844
  Name = 
  3 active torsions:
  status: ('A' for Active; 'I' for Inactive)
    1  A    between atoms: C_7  and  C_11
    2  A    between atoms: C_9  and  C_27
    3  A    between atoms: C_14  and  C_18
                            x       y       z     vdW  Elec       q    Type
                         _______ _______ _______ _____ _____    ______ ____

>  <TORSDO>
F 3

$$$$
=
 OpenBabel10232408143D

 32 36  0  0  1  0  0  0  0  0999 V2000
  183.4900  177.4860  136.5490 C   0  0  0  0  0  2  0  0  0  0  0  0
  185.6070  178.7540  139.2220 C   0  0  1  0  0  3  0  0  0  0  0  0
  187.9720  178.7880  138.7650 O   0  0  0  0  0  0  0  0  0  0  0  0
  188.2580  177.7320  143.2110 C   0  0  0  0  0  0  0  0  0  0  0  0
  181.9290  176.9760  140.4180 O   0  0  0  0  0  1  0  0  0  0  0  0
  181.4150  177.0340  138.0410 C   0  0  0  0  0  2  0  0  0  0  0  0
  181.4760  177.7900  139.3770 C   0  0  2  0  0  3  0  0  0  0  0  0
  182.7380  176.5070  137.4630 C   0  0  2  0  0  3  0  0  0  0  0  0
  184.0700  178.6110  137.2720 N   0  0  0  0  0  2  0  0  0  0  0  0
  185.3470  178.1840  137.8180 C   0  0  1  0  0  3  0  0  0  0  0  0
  181.6680  180.0650  138.5290 C   0  0  0  0  0  3  0  0  0  0  0  0
  188.9350  177.7920  141.5590 S   0  0  0  0  0  0  0  0  0  0  0  0
  183.3680  179.4390  140.2040 C   0  0  0  0  0  2  0  0  0  0  0  0
  184.9580  178.4070  141.7080 C   0  0  0  0  0  2  0  0  0  0  0  0
  187.3220  178.4570  141.0610 C   0  0  2  0  0  3  0  0  0  0  0  0
  186.4820  178.5830  136.8730 C   0  0  0  0  0  2  0  0  0  0  0  0
  182.2000  179.1100  139.3070 C   0  0  0  0  0  0  0  0  0  0  0  0
  186.7730  177.6900  143.3090 C   0  0  1  0  0  3  0  0  0  0  0  0
  184.4840  178.3970  140.2450 C   0  0  2  0  0  3  0  0  0  0  0  0
  188.9530  178.6060  136.5960 C   0  0  0  0  0  1  0  0  0  0  0  0
  188.9660  177.8370  144.1990 O   0  0  0  0  0  0  0  0  0  0  0  0
  187.8190  178.1810  137.5040 C   0  0  1  0  0  3  0  0  0  0  0  0
  186.2900  177.7080  141.8730 C   0  0  1  0  0  3  0  0  0  0  0  0
  186.3680  176.5060  143.9250 O   0  0  0  0  0  1  0  0  0  0  0  0
  187.0040  178.2070  139.6020 C   0  0  1  0  0  3  0  0  0  0  0  0
  183.6240  175.7300  138.4460 C   0  0  2  0  0  3  0  0  0  0  0  0
  184.7850  175.1680  137.7370 N   0  0  0  0  0  2  0  0  0  0  0  0
  183.7230  174.2730  138.2200 C   0  0  2  0  0  3  0  0  0  0  0  0
  183.1310  172.2920  136.9410 N   0  0  0  0  0  1  0  0  0  0  0  0
  182.9420  173.7280  137.0300 C   0  0  0  0  0  2  0  0  0  0  0  0
  182.2320  181.4460  138.4200 C   0  0  0  0  0  2  0  0  0  0  0  0
  181.1500  182.3960  137.9530 C   0  0  0  0  0  1  0  0  0  0  0  0
  1  9  1  0  0  0  0
  1  8  1  0  0  0  0
  2 25  1  0  0  0  0
  2 19  1  0  0  0  0
  3 25  1  0  0  0  0
  4 18  1  0  0  0  0
  4 21  2  0  0  0  0
  6  7  1  0  0  0  0
  7  5  1  0  0  0  0
  8  6  1  0  0  0  0
  8 26  1  0  0  0  0
  9 10  1  0  0  0  0
 10  2  1  0  0  0  0
 11 17  2  0  0  0  0
 12  4  1  0  0  0  0
 13 19  1  0  0  0  0
 14 23  1  0  0  0  0
 15 12  1  0  0  0  0
 15 23  1  0  0  0  0
 16 22  1  0  0  0  0
 16 10  1  0  0  0  0
 17  7  1  0  0  0  0
 17 13  1  0  0  0  0
 18 24  1  0  0  0  0
 19 14  1  0  0  0  0
 20 22  1  0  0  0  0
 22  3  1  0  0  0  0
 23 18  1  0  0  0  0
 25 15  1  0  0  0  0
 27 28  1  0  0  0  0
 27 26  1  0  0  0  0
 28 26  1  0  0  0  0
 29 30  1  0  0  0  0
 30 28  1  0  0  0  0
 31 11  1  0  0  0  0
 32 31  1  0  0  0  0
M  END
>  <MODEL>
3

>  <REMARK>
 VINA RESULT:      -4.1      2.171      2.879
  Name = 
  3 active torsions:
  status: ('A' for Active; 'I' for Inactive)
    1  A    between atoms: C_7  and  C_11
    2  A    between atoms: C_9  and  C_27
    3  A    between atoms: C_14  and  C_18
                            x       y       z     vdW  Elec       q    Type
                         _______ _______ _______ _____ _____    ______ ____

>  <TORSDO>
F 3

$$$$
=
 OpenBabel10232408143D

 32 36  0  0  1  0  0  0  0  0999 V2000
  183.7000  175.9970  134.3460 C   0  0  0  0  0  2  0  0  0  0  0  0
  181.3600  177.2490  136.8340 C   0  0  1  0  0  3  0  0  0  0  0  0
  180.4810  179.4570  136.4360 O   0  0  0  0  0  0  0  0  0  0  0  0
  180.7220  179.7450  140.9990 C   0  0  0  0  0  0  0  0  0  0  0  0
  184.2320  174.4240  138.2070 O   0  0  0  0  0  1  0  0  0  0  0  0
  184.7050  174.1280  135.8390 C   0  0  0  0  0  2  0  0  0  0  0  0
  183.8070  173.7870  137.0390 C   0  0  2  0  0  3  0  0  0  0  0  0
  184.7570  175.5960  135.3860 C   0  0  2  0  0  3  0  0  0  0  0  0
  182.3500  176.0490  134.8950 N   0  0  0  0  0  2  0  0  0  0  0  0
  182.1730  177.3420  135.5330 C   0  0  1  0  0  3  0  0  0  0  0  0
  181.7750  173.1790  135.8430 C   0  0  0  0  0  3  0  0  0  0  0  0
  180.6350  180.4860  139.3760 S   0  0  0  0  0  0  0  0  0  0  0  0
  181.4600  174.8430  137.6390 C   0  0  0  0  0  2  0  0  0  0  0  0
  181.5830  176.5720  139.3270 C   0  0  0  0  0  2  0  0  0  0  0  0
  180.7160  178.7890  138.7380 C   0  0  2  0  0  3  0  0  0  0  0  0
  181.5030  178.3170  134.5650 C   0  0  0  0  0  2  0  0  0  0  0  0
  182.3330  173.9650  136.7770 C   0  0  0  0  0  0  0  0  0  0  0  0
  181.3180  178.3820  141.0660 C   0  0  1  0  0  3  0  0  0  0  0  0
  181.9770  176.2610  137.8730 C   0  0  2  0  0  3  0  0  0  0  0  0
  180.5690  180.6130  134.3480 C   0  0  0  0  0  1  0  0  0  0  0  0
  180.2170  180.2770  141.9750 O   0  0  0  0  0  0  0  0  0  0  0  0
  181.2680  179.6500  135.2840 C   0  0  1  0  0  3  0  0  0  0  0  0
  181.6850  178.0510  139.6330 C   0  0  1  0  0  3  0  0  0  0  0  0
  182.4700  178.4030  141.8520 O   0  0  0  0  0  1  0  0  0  0  0  0
  181.2690  178.7120  137.3310 C   0  0  1  0  0  3  0  0  0  0  0  0
  184.9900  176.6220  136.5020 C   0  0  2  0  0  3  0  0  0  0  0  0
  185.6770  177.8050  135.9580 N   0  0  0  0  0  2  0  0  0  0  0  0
  186.3990  176.8910  136.8550 C   0  0  2  0  0  3  0  0  0  0  0  0
  188.3410  175.4320  136.9670 N   0  0  0  0  0  1  0  0  0  0  0  0
  187.4440  176.1210  136.0570 C   0  0  0  0  0  2  0  0  0  0  0  0
  180.3120  173.1890  135.5300 C   0  0  0  0  0  2  0  0  0  0  0  0
  179.9820  172.0160  134.6310 C   0  0  0  0  0  1  0  0  0  0  0  0
  1  9  1  0  0  0  0
  1  8  1  0  0  0  0
  2 25  1  0  0  0  0
  2 19  1  0  0  0  0
  3 25  1  0  0  0  0
  4 18  1  0  0  0  0
  4 21  2  0  0  0  0
  6  7  1  0  0  0  0
  7  5  1  0  0  0  0
  8  6  1  0  0  0  0
  8 26  1  0  0  0  0
  9 10  1  0  0  0  0
 10  2  1  0  0  0  0
 11 17  2  0  0  0  0
 12  4  1  0  0  0  0
 13 19  1  0  0  0  0
 14 23  1  0  0  0  0
 15 12  1  0  0  0  0
 15 23  1  0  0  0  0
 16 22  1  0  0  0  0
 16 10  1  0  0  0  0
 17  7  1  0  0  0  0
 17 13  1  0  0  0  0
 18 24  1  0  0  0  0
 19 14  1  0  0  0  0
 20 22  1  0  0  0  0
 22  3  1  0  0  0  0
 23 18  1  0  0  0  0
 25 15  1  0  0  0  0
 26 28  1  0  0  0  0
 27 26  1  0  0  0  0
 27 28  1  0  0  0  0
 30 28  1  0  0  0  0
 30 29  1  0  0  0  0
 31 11  1  0  0  0  0
 32 31  1  0  0  0  0
M  END
>  <MODEL>
4

>  <REMARK>
 VINA RESULT:      -4.0      2.562      4.601
  Name = 
  3 active torsions:
  status: ('A' for Active; 'I' for Inactive)
    1  A    between atoms: C_7  and  C_11
    2  A    between atoms: C_9  and  C_27
    3  A    between atoms: C_14  and  C_18
                            x       y       z     vdW  Elec       q    Type
                         _______ _______ _______ _____ _____    ______ ____

>  <TORSDO>
F 3

$$$$
=
 OpenBabel10232408143D

 32 36  0  0  1  0  0  0  0  0999 V2000
  182.8250  176.2590  135.8790 C   0  0  0  0  0  2  0  0  0  0  0  0
  185.1740  178.2650  137.8010 C   0  0  1  0  0  3  0  0  0  0  0  0
  187.4360  178.3190  136.9730 O   0  0  0  0  0  0  0  0  0  0  0  0
  188.4520  178.4140  141.4360 C   0  0  0  0  0  0  0  0  0  0  0  0
  181.8880  176.6350  139.9590 O   0  0  0  0  0  1  0  0  0  0  0  0
  181.0360  176.0740  137.7510 C   0  0  0  0  0  2  0  0  0  0  0  0
  181.2170  177.1400  138.8430 C   0  0  2  0  0  3  0  0  0  0  0  0
  182.3070  175.4960  137.1080 C   0  0  2  0  0  3  0  0  0  0  0  0
  183.3950  177.5580  136.2130 N   0  0  0  0  0  2  0  0  0  0  0  0
  184.7710  177.3520  136.6310 C   0  0  1  0  0  3  0  0  0  0  0  0
  181.0710  179.1410  137.4630 C   0  0  0  0  0  3  0  0  0  0  0  0
  188.8770  178.1000  139.7290 S   0  0  0  0  0  0  0  0  0  0  0  0
  183.0440  179.0460  138.9410 C   0  0  0  0  0  2  0  0  0  0  0  0
  184.9220  178.5090  140.3690 C   0  0  0  0  0  2  0  0  0  0  0  0
  187.1540  178.5300  139.3550 C   0  0  2  0  0  3  0  0  0  0  0  0
  185.7160  177.5680  135.4480 C   0  0  0  0  0  2  0  0  0  0  0  0
  181.7960  178.4400  138.3470 C   0  0  0  0  0  0  0  0  0  0  0  0
  187.0060  178.3140  141.7800 C   0  0  1  0  0  3  0  0  0  0  0  0
  184.2470  178.1100  139.0460 C   0  0  2  0  0  3  0  0  0  0  0  0
  188.1100  177.6610  134.7780 C   0  0  0  0  0  1  0  0  0  0  0  0
  189.2810  178.7990  142.2430 O   0  0  0  0  0  0  0  0  0  0  0  0
  187.1620  177.4100  135.9320 C   0  0  1  0  0  3  0  0  0  0  0  0
  186.3240  177.9490  140.4760 C   0  0  1  0  0  3  0  0  0  0  0  0
  186.8070  177.2980  142.7140 O   0  0  0  0  0  1  0  0  0  0  0  0
  186.6560  177.9090  138.0680 C   0  0  1  0  0  3  0  0  0  0  0  0
  183.3930  175.0370  138.0900 C   0  0  2  0  0  3  0  0  0  0  0  0
  184.5840  174.5940  137.3470 N   0  0  0  0  0  2  0  0  0  0  0  0
  183.7480  173.6030  138.0440 C   0  0  2  0  0  3  0  0  0  0  0  0
  183.6040  171.4480  136.9290 N   0  0  0  0  0  1  0  0  0  0  0  0
  182.9990  172.7640  137.0160 C   0  0  0  0  0  2  0  0  0  0  0  0
  181.4810  180.4820  136.9420 C   0  0  0  0  0  2  0  0  0  0  0  0
  180.6550  181.5570  137.6140 C   0  0  0  0  0  1  0  0  0  0  0  0
  1  9  1  0  0  0  0
  1  8  1  0  0  0  0
  2 25  1  0  0  0  0
  2 19  1  0  0  0  0
  3 25  1  0  0  0  0
  4 18  1  0  0  0  0
  4 21  2  0  0  0  0
  6  7  1  0  0  0  0
  7  5  1  0  0  0  0
  8  6  1  0  0  0  0
  8 26  1  0  0  0  0
  9 10  1  0  0  0  0
 10  2  1  0  0  0  0
 11 17  2  0  0  0  0
 12  4  1  0  0  0  0
 13 19  1  0  0  0  0
 14 23  1  0  0  0  0
 15 12  1  0  0  0  0
 15 23  1  0  0  0  0
 16 22  1  0  0  0  0
 16 10  1  0  0  0  0
 17  7  1  0  0  0  0
 17 13  1  0  0  0  0
 18 24  1  0  0  0  0
 19 14  1  0  0  0  0
 20 22  1  0  0  0  0
 22  3  1  0  0  0  0
 23 18  1  0  0  0  0
 25 15  1  0  0  0  0
 27 28  1  0  0  0  0
 27 26  1  0  0  0  0
 28 26  1  0  0  0  0
 29 30  1  0  0  0  0
 30 28  1  0  0  0  0
 31 11  1  0  0  0  0
 31 32  1  0  0  0  0
M  END
>  <MODEL>
5

>  <REMARK>
 VINA RESULT:      -3.8      1.975      2.374
  Name = 
  3 active torsions:
  status: ('A' for Active; 'I' for Inactive)
    1  A    between atoms: C_7  and  C_11
    2  A    between atoms: C_9  and  C_27
    3  A    between atoms: C_14  and  C_18
                            x       y       z     vdW  Elec       q    Type
                         _______ _______ _______ _____ _____    ______ ____

>  <TORSDO>
F 3

$$$$
=
 OpenBabel10232408143D

 32 36  0  0  1  0  0  0  0  0999 V2000
  187.5990  174.5660  135.2020 C   0  0  0  0  0  2  0  0  0  0  0  0
  188.9920  176.7440  137.7610 C   0  0  1  0  0  3  0  0  0  0  0  0
  191.1790  176.1450  138.5780 O   0  0  0  0  0  0  0  0  0  0  0  0
  189.4860  177.6900  142.5410 C   0  0  0  0  0  0  0  0  0  0  0  0
  184.7450  176.5330  137.5800 O   0  0  0  0  0  1  0  0  0  0  0  0
  185.1420  175.3490  135.4910 C   0  0  0  0  0  2  0  0  0  0  0  0
  185.0370  176.6970  136.2230 C   0  0  2  0  0  3  0  0  0  0  0  0
  186.2580  174.3890  135.9310 C   0  0  2  0  0  3  0  0  0  0  0  0
  188.2920  175.7940  135.5730 N   0  0  0  0  0  2  0  0  0  0  0  0
  189.0250  175.5440  136.8020 C   0  0  1  0  0  3  0  0  0  0  0  0
  186.3900  178.0600  134.7260 C   0  0  0  0  0  3  0  0  0  0  0  0
  190.6510  176.7190  141.5970 S   0  0  0  0  0  0  0  0  0  0  0  0
  187.0200  178.2030  137.1080 C   0  0  0  0  0  2  0  0  0  0  0  0
  187.4530  177.9360  139.4740 C   0  0  0  0  0  2  0  0  0  0  0  0
  189.7090  177.2450  140.1370 C   0  0  2  0  0  3  0  0  0  0  0  0
  190.4730  175.1680  136.4820 C   0  0  0  0  0  2  0  0  0  0  0  0
  186.2010  177.6230  135.9810 C   0  0  0  0  0  0  0  0  0  0  0  0
  188.1690  177.9450  141.8940 C   0  0  1  0  0  3  0  0  0  0  0  0
  187.5440  177.1950  138.1290 C   0  0  2  0  0  3  0  0  0  0  0  0
  192.6840  174.6420  137.4920 C   0  0  0  0  0  1  0  0  0  0  0  0
  189.7940  178.2080  143.6020 O   0  0  0  0  0  0  0  0  0  0  0  0
  191.2380  174.9750  137.7950 C   0  0  1  0  0  3  0  0  0  0  0  0
  188.2560  177.2430  140.5530 C   0  0  1  0  0  3  0  0  0  0  0  0
  187.1460  177.3800  142.6530 O   0  0  0  0  0  1  0  0  0  0  0  0
  189.8370  176.2850  138.9740 C   0  0  1  0  0  3  0  0  0  0  0  0
  186.3700  174.1550  137.4430 C   0  0  2  0  0  3  0  0  0  0  0  0
  187.1240  172.9180  137.7040 N   0  0  0  0  0  2  0  0  0  0  0  0
  185.6770  172.9610  137.9700 C   0  0  2  0  0  3  0  0  0  0  0  0
  183.5200  172.3330  137.0420 N   0  0  0  0  0  1  0  0  0  0  0  0
  184.9490  172.1050  136.9400 C   0  0  0  0  0  2  0  0  0  0  0  0
  187.4540  179.0410  134.3490 C   0  0  0  0  0  2  0  0  0  0  0  0
  188.8000  178.3470  134.3480 C   0  0  0  0  0  1  0  0  0  0  0  0
  1  9  1  0  0  0  0
  1  8  1  0  0  0  0
  2 19  1  0  0  0  0
  2 25  1  0  0  0  0
  3 25  1  0  0  0  0
  4 21  2  0  0  0  0
  6  8  1  0  0  0  0
  6  7  1  0  0  0  0
  7  5  1  0  0  0  0
  8 26  1  0  0  0  0
  9 10  1  0  0  0  0
 10  2  1  0  0  0  0
 11 17  2  0  0  0  0
 12  4  1  0  0  0  0
 13 19  1  0  0  0  0
 14 23  1  0  0  0  0
 15 23  1  0  0  0  0
 15 12  1  0  0  0  0
 16 10  1  0  0  0  0
 16 22  1  0  0  0  0
 17  7  1  0  0  0  0
 17 13  1  0  0  0  0
 18  4  1  0  0  0  0
 18 24  1  0  0  0  0
 19 14  1  0  0  0  0
 20 22  1  0  0  0  0
 22  3  1  0  0  0  0
 23 18  1  0  0  0  0
 25 15  1  0  0  0  0
 26 27  1  0  0  0  0
 26 28  1  0  0  0  0
 27 28  1  0  0  0  0
 30 29  1  0  0  0  0
 30 28  1  0  0  0  0
 31 11  1  0  0  0  0
 32 31  1  0  0  0  0
M  END
>  <MODEL>
6

>  <REMARK>
 VINA RESULT:      -3.5      3.242      4.461
  Name = 
  3 active torsions:
  status: ('A' for Active; 'I' for Inactive)
    1  A    between atoms: C_7  and  C_11
    2  A    between atoms: C_9  and  C_27
    3  A    between atoms: C_14  and  C_18
                            x       y       z     vdW  Elec       q    Type
                         _______ _______ _______ _____ _____    ______ ____

>  <TORSDO>
F 3

$$$$
