=
 OpenBabel10232409583D

 34 37  0  0  1  0  0  0  0  0999 V2000
  189.5800  176.9730  141.0470 C   0  0  1  0  0  3  0  0  0  0  0  0
  189.6030  178.1330  137.7010 N   0  0  0  0  0  0  0  0  0  0  0  0
  188.6310  178.7960  138.3180 N   0  0  0  0  0  0  0  0  0  0  0  0
  188.2210  177.4760  141.5000 C   0  0  0  0  0  3  0  0  0  0  0  0
  187.8080  178.4290  140.6610 C   0  0  0  0  0  0  0  0  0  0  0  0
  188.8200  178.5910  139.6350 C   0  0  0  0  0  0  0  0  0  0  0  0
  190.3140  177.4920  138.6550 C   0  0  0  0  0  0  0  0  0  0  0  0
  189.8530  177.8010  139.8790 N   0  0  0  0  0  0  0  0  0  0  0  0
  192.8380  176.7490  138.5480 C   0  0  0  0  0  2  0  0  0  0  0  0
  195.3020  173.8680  137.5890 C   0  0  0  0  0  0  0  0  0  0  0  0
  191.3760  176.5090  138.3790 C   0  0  0  0  0  0  0  0  0  0  0  0
  192.4270  174.6020  137.7270 N   0  0  0  0  0  0  0  0  0  0  0  0
  194.7520  175.1130  138.0320 N   0  0  0  0  0  2  0  0  0  0  0  0
  196.7770  173.6960  137.5500 C   0  0  0  0  0  1  0  0  0  0  0  0
  193.3560  175.4270  138.0860 C   0  0  0  0  0  0  0  0  0  0  0  0
  191.1980  175.2830  137.9110 C   0  0  0  0  0  0  0  0  0  0  0  0
  189.9940  174.7280  137.6260 F   0  0  0  0  0  0  0  0  0  0  0  0
  194.5580  172.9220  137.2180 O   0  0  0  0  0  0  0  0  0  0  0  0
  186.5240  179.0540  140.7380 N   0  0  0  0  0  2  0  0  0  0  0  0
  184.1550  179.3880  140.1490 N   0  0  0  0  0  1  0  0  0  0  0  0
  185.4210  178.8050  139.8610 C   0  0  0  0  0  0  0  0  0  0  0  0
  185.5600  178.1060  138.8230 O   0  0  0  0  0  0  0  0  0  0  0  0
  190.6500  177.1610  142.1240 C   0  0  0  0  0  2  0  0  0  0  0  0
  190.2450  178.1670  143.1890 C   0  0  0  0  0  2  0  0  0  0  0  0
  190.4510  177.5610  144.5610 C   0  0  0  0  0  2  0  0  0  0  0  0
  189.1560  176.9260  145.0250 C   0  0  0  0  0  2  0  0  0  0  0  0
  188.5010  177.7830  146.0130 N   0  0  0  0  0  0  0  0  0  0  0  0
  186.6300  177.2450  144.4230 C   0  0  0  0  0  1  0  0  0  0  0  0
  187.1290  178.1040  145.5820 C   0  0  1  0  0  3  0  0  0  0  0  0
  185.6840  179.4150  147.0520 N   0  0  0  0  0  2  0  0  0  0  0  0
  186.1560  178.0540  146.7530 C   0  0  1  0  0  3  0  0  0  0  0  0
  184.8290  178.4710  146.3150 C   0  0  0  0  0  2  0  0  0  0  0  0
  188.5760  177.2310  147.3800 C   0  0  0  0  0  2  0  0  0  0  0  0
  189.2980  178.1370  148.3780 C   0  0  0  0  0  1  0  0  0  0  0  0
  1  4  1  0  0  0  0
  1 23  1  1  0  0  0
  2  3  1  0  0  0  0
  2  7  2  0  0  0  0
  3  6  2  0  0  0  0
  5 19  1  0  0  0  0
  5  4  2  0  0  0  0
  6  8  1  0  0  0  0
  6  5  1  0  0  0  0
  7  8  1  0  0  0  0
  8  1  1  0  0  0  0
 10 13  1  0  0  0  0
 11  9  1  0  0  0  0
 11  7  1  0  0  0  0
 12 16  1  0  0  0  0
 12 15  2  0  0  0  0
 13 15  1  0  0  0  0
 14 10  1  0  0  0  0
 15  9  1  0  0  0  0
 16 11  2  0  0  0  0
 17 16  1  0  0  0  0
 18 10  2  0  0  0  0
 21 20  1  0  0  0  0
 21 19  1  0  0  0  0
 22 21  2  0  0  0  0
 23 24  1  0  0  0  0
 24 25  1  0  0  0  0
 25 26  1  0  0  0  0
 26 27  1  0  0  0  0
 27 33  1  0  0  0  0
 29 28  1  6  0  0  0
 29 27  1  0  0  0  0
 31 29  1  6  0  0  0
 31 30  1  0  0  0  0
 32 31  1  0  0  0  0
 32 30  1  0  0  0  0
 33 34  1  0  0  0  0
M  END
>  <MODEL>
1

>  <REMARK>
 VINA RESULT:      -8.2      0.000      0.000
  Name = 
  10 active torsions:
  status: ('A' for Active; 'I' for Inactive)
    1  A    between atoms: C_1  and  C_2
    2  A    between atoms: C_1  and  C_24
    3  A    between atoms: C_6  and  C_11
    4  A    between atoms: C_6  and  N_15
    5  A    between atoms: N_8  and  C_17
    6  A    between atoms: C_9  and  C_31
    7  A    between atoms: C_11  and  C_24
    8  A    between atoms: N_15  and  C_16
    9  A    between atoms: N_15  and  C_30
   10  A    between atoms: C_27  and  C_30
                            x       y       z     vdW  Elec       q    Type
                         _______ _______ _______ _____ _____    ______ ____

>  <TORSDO>
F 10

$$$$
=
 OpenBabel10232409583D

 34 37  0  0  1  0  0  0  0  0999 V2000
  188.6830  176.6770  142.1610 C   0  0  1  0  0  3  0  0  0  0  0  0
  187.7700  178.4670  139.2440 N   0  0  0  0  0  0  0  0  0  0  0  0
  187.0030  178.9350  140.2230 N   0  0  0  0  0  0  0  0  0  0  0  0
  187.5000  176.9970  143.0570 C   0  0  0  0  0  3  0  0  0  0  0  0
  186.8650  178.0670  142.5750 C   0  0  0  0  0  0  0  0  0  0  0  0
  187.5520  178.4900  141.3690 C   0  0  0  0  0  0  0  0  0  0  0  0
  188.7210  177.6970  139.8180 C   0  0  0  0  0  0  0  0  0  0  0  0
  188.6160  177.7330  141.1570 N   0  0  0  0  0  0  0  0  0  0  0  0
  189.2990  175.8490  138.0340 C   0  0  0  0  0  2  0  0  0  0  0  0
  192.1630  173.7640  136.3780 C   0  0  0  0  0  0  0  0  0  0  0  0
  189.6700  176.8550  139.0700 C   0  0  0  0  0  0  0  0  0  0  0  0
  191.6090  175.8940  138.3740 N   0  0  0  0  0  0  0  0  0  0  0  0
  190.8840  174.3010  136.7310 N   0  0  0  0  0  2  0  0  0  0  0  0
  192.2430  172.6650  135.3810 C   0  0  0  0  0  1  0  0  0  0  0  0
  190.6600  175.3330  137.6980 C   0  0  0  0  0  0  0  0  0  0  0  0
  190.9850  176.8400  139.2260 C   0  0  0  0  0  0  0  0  0  0  0  0
  191.6740  177.6180  140.0970 F   0  0  0  0  0  0  0  0  0  0  0  0
  193.2200  174.1960  136.9100 O   0  0  0  0  0  0  0  0  0  0  0  0
  185.6490  178.5850  143.1220 N   0  0  0  0  0  2  0  0  0  0  0  0
  183.2050  178.8010  143.3440 N   0  0  0  0  0  1  0  0  0  0  0  0
  184.3350  178.3470  142.6090 C   0  0  0  0  0  0  0  0  0  0  0  0
  184.1640  177.7700  141.5030 O   0  0  0  0  0  0  0  0  0  0  0  0
  190.0080  176.7170  142.9230 C   0  0  0  0  0  2  0  0  0  0  0  0
  190.5140  178.1320  143.1530 C   0  0  0  0  0  2  0  0  0  0  0  0
  190.8590  178.3140  144.6160 C   0  0  0  0  0  2  0  0  0  0  0  0
  190.2200  177.1990  145.4190 C   0  0  0  0  0  2  0  0  0  0  0  0
  190.1440  177.5740  146.8300 N   0  0  0  0  0  0  0  0  0  0  0  0
  188.5480  177.9940  148.7270 C   0  0  0  0  0  1  0  0  0  0  0  0
  188.7610  177.4380  147.3210 C   0  0  1  0  0  3  0  0  0  0  0  0
  186.5740  177.1830  146.2640 N   0  0  0  0  0  2  0  0  0  0  0  0
  187.7650  178.0430  146.3410 C   0  0  1  0  0  3  0  0  0  0  0  0
  186.5470  178.4300  147.0450 C   0  0  0  0  0  2  0  0  0  0  0  0
  191.1370  176.8660  147.6600 C   0  0  0  0  0  2  0  0  0  0  0  0
  191.9430  175.8100  146.9010 C   0  0  0  0  0  1  0  0  0  0  0  0
  1 23  1  1  0  0  0
  1  4  1  0  0  0  0
  2  7  2  0  0  0  0
  2  3  1  0  0  0  0
  3  6  2  0  0  0  0
  5  4  2  0  0  0  0
  5 19  1  0  0  0  0
  6  5  1  0  0  0  0
  7  8  1  0  0  0  0
  8  6  1  0  0  0  0
  8  1  1  0  0  0  0
  9 11  1  0  0  0  0
 10 13  1  0  0  0  0
 10 18  2  0  0  0  0
 11 16  2  0  0  0  0
 11  7  1  0  0  0  0
 12 16  1  0  0  0  0
 13 15  1  0  0  0  0
 14 10  1  0  0  0  0
 15  9  1  0  0  0  0
 15 12  2  0  0  0  0
 16 17  1  0  0  0  0
 21 19  1  0  0  0  0
 21 20  1  0  0  0  0
 22 21  2  0  0  0  0
 23 24  1  0  0  0  0
 24 25  1  0  0  0  0
 25 26  1  0  0  0  0
 26 27  1  0  0  0  0
 27 29  1  0  0  0  0
 27 33  1  0  0  0  0
 29 28  1  1  0  0  0
 30 31  1  0  0  0  0
 30 32  1  0  0  0  0
 31 32  1  0  0  0  0
 31 29  1  1  0  0  0
 34 33  1  0  0  0  0
M  END
>  <MODEL>
2

>  <REMARK>
 VINA RESULT:      -8.2      2.055      2.696
  Name = 
  10 active torsions:
  status: ('A' for Active; 'I' for Inactive)
    1  A    between atoms: C_1  and  C_2
    2  A    between atoms: C_1  and  C_24
    3  A    between atoms: C_6  and  C_11
    4  A    between atoms: C_6  and  N_15
    5  A    between atoms: N_8  and  C_17
    6  A    between atoms: C_9  and  C_31
    7  A    between atoms: C_11  and  C_24
    8  A    between atoms: N_15  and  C_16
    9  A    between atoms: N_15  and  C_30
   10  A    between atoms: C_27  and  C_30
                            x       y       z     vdW  Elec       q    Type
                         _______ _______ _______ _____ _____    ______ ____

>  <TORSDO>
F 10

$$$$
=
 OpenBabel10232409583D

 34 37  0  0  1  0  0  0  0  0999 V2000
  189.8890  176.9880  141.0110 C   0  0  1  0  0  3  0  0  0  0  0  0
  189.6350  178.0060  137.6290 N   0  0  0  0  0  0  0  0  0  0  0  0
  188.7060  178.6860  138.2920 N   0  0  0  0  0  0  0  0  0  0  0  0
  188.5630  177.4990  141.5480 C   0  0  0  0  0  3  0  0  0  0  0  0
  188.0750  178.4110  140.7060 C   0  0  0  0  0  0  0  0  0  0  0  0
  189.0010  178.5390  139.5980 C   0  0  0  0  0  0  0  0  0  0  0  0
  190.4260  177.4120  138.5490 C   0  0  0  0  0  0  0  0  0  0  0  0
  190.0590  177.7680  139.7920 N   0  0  0  0  0  0  0  0  0  0  0  0
  192.9420  176.6830  138.2850 C   0  0  0  0  0  2  0  0  0  0  0  0
  195.3580  173.7880  137.2510 C   0  0  0  0  0  0  0  0  0  0  0  0
  191.4740  176.4270  138.2310 C   0  0  0  0  0  0  0  0  0  0  0  0
  192.4930  174.5060  137.5700 N   0  0  0  0  0  0  0  0  0  0  0  0
  194.8300  175.0440  137.6890 N   0  0  0  0  0  2  0  0  0  0  0  0
  196.8280  173.6240  137.1110 C   0  0  0  0  0  1  0  0  0  0  0  0
  193.4380  175.3490  137.8330 C   0  0  0  0  0  0  0  0  0  0  0  0
  191.2740  175.1840  137.8200 C   0  0  0  0  0  0  0  0  0  0  0  0
  190.0590  174.6110  137.6410 F   0  0  0  0  0  0  0  0  0  0  0  0
  194.5980  172.8240  136.9670 O   0  0  0  0  0  0  0  0  0  0  0  0
  186.7930  179.0290  140.8580 N   0  0  0  0  0  2  0  0  0  0  0  0
  184.3940  179.3530  140.4010 N   0  0  0  0  0  1  0  0  0  0  0  0
  185.6450  178.7810  140.0400 C   0  0  0  0  0  0  0  0  0  0  0  0
  185.7320  178.0930  138.9900 O   0  0  0  0  0  0  0  0  0  0  0  0
  191.0370  177.2300  141.9920 C   0  0  0  0  0  2  0  0  0  0  0  0
  190.7040  178.2740  143.0460 C   0  0  0  0  0  2  0  0  0  0  0  0
  191.5070  178.0000  144.2990 C   0  0  0  0  0  2  0  0  0  0  0  0
  190.8640  176.8610  145.0640 C   0  0  0  0  0  2  0  0  0  0  0  0
  190.3410  177.3440  146.3410 N   0  0  0  0  0  0  0  0  0  0  0  0
  188.3830  177.0650  147.8920 C   0  0  0  0  0  1  0  0  0  0  0  0
  188.9070  177.0210  146.4600 C   0  0  1  0  0  3  0  0  0  0  0  0
  187.1200  177.0620  144.7950 N   0  0  0  0  0  2  0  0  0  0  0  0
  188.0660  177.9030  145.5460 C   0  0  1  0  0  3  0  0  0  0  0  0
  186.6660  177.8480  145.9540 C   0  0  0  0  0  2  0  0  0  0  0  0
  191.1450  176.8900  147.4920 C   0  0  0  0  0  2  0  0  0  0  0  0
  192.0880  175.7290  147.1730 C   0  0  0  0  0  1  0  0  0  0  0  0
  1  4  1  0  0  0  0
  1 23  1  1  0  0  0
  2  3  1  0  0  0  0
  2  7  2  0  0  0  0
  3  6  2  0  0  0  0
  5 19  1  0  0  0  0
  5  4  2  0  0  0  0
  6  8  1  0  0  0  0
  6  5  1  0  0  0  0
  7  8  1  0  0  0  0
  8  1  1  0  0  0  0
 10 13  1  0  0  0  0
 11  9  1  0  0  0  0
 11  7  1  0  0  0  0
 12 16  1  0  0  0  0
 12 15  2  0  0  0  0
 13 15  1  0  0  0  0
 14 10  1  0  0  0  0
 15  9  1  0  0  0  0
 16 11  2  0  0  0  0
 17 16  1  0  0  0  0
 18 10  2  0  0  0  0
 21 20  1  0  0  0  0
 21 19  1  0  0  0  0
 22 21  2  0  0  0  0
 23 24  1  0  0  0  0
 24 25  1  0  0  0  0
 25 26  1  0  0  0  0
 26 27  1  0  0  0  0
 27 29  1  0  0  0  0
 27 33  1  0  0  0  0
 29 28  1  1  0  0  0
 30 31  1  0  0  0  0
 30 32  1  0  0  0  0
 31 32  1  0  0  0  0
 31 29  1  1  0  0  0
 34 33  1  0  0  0  0
M  END
>  <MODEL>
3

>  <REMARK>
 VINA RESULT:      -8.2      0.988      1.472
  Name = 
  10 active torsions:
  status: ('A' for Active; 'I' for Inactive)
    1  A    between atoms: C_1  and  C_2
    2  A    between atoms: C_1  and  C_24
    3  A    between atoms: C_6  and  C_11
    4  A    between atoms: C_6  and  N_15
    5  A    between atoms: N_8  and  C_17
    6  A    between atoms: C_9  and  C_31
    7  A    between atoms: C_11  and  C_24
    8  A    between atoms: N_15  and  C_16
    9  A    between atoms: N_15  and  C_30
   10  A    between atoms: C_27  and  C_30
                            x       y       z     vdW  Elec       q    Type
                         _______ _______ _______ _____ _____    ______ ____

>  <TORSDO>
F 10

$$$$
=
 OpenBabel10232409583D

 34 37  0  0  1  0  0  0  0  0999 V2000
  188.2520  177.4230  142.0570 C   0  0  1  0  0  3  0  0  0  0  0  0
  187.1250  178.3190  138.8210 N   0  0  0  0  0  0  0  0  0  0  0  0
  186.2680  178.8640  139.6770 N   0  0  0  0  0  0  0  0  0  0  0  0
  187.0110  177.7390  142.8730 C   0  0  0  0  0  3  0  0  0  0  0  0
  186.2190  178.5490  142.1670 C   0  0  0  0  0  0  0  0  0  0  0  0
  186.8550  178.7920  140.8870 C   0  0  0  0  0  0  0  0  0  0  0  0
  188.1770  177.8710  139.5420 C   0  0  0  0  0  0  0  0  0  0  0  0
  188.0350  178.1950  140.8390 N   0  0  0  0  0  0  0  0  0  0  0  0
  190.7200  177.2380  139.2870 C   0  0  0  0  0  2  0  0  0  0  0  0
  193.2810  174.8750  137.5150 C   0  0  0  0  0  0  0  0  0  0  0  0
  189.2700  177.0500  138.9940 C   0  0  0  0  0  0  0  0  0  0  0  0
  190.3860  175.4850  137.7820 N   0  0  0  0  0  0  0  0  0  0  0  0
  192.6880  175.8930  138.3270 N   0  0  0  0  0  2  0  0  0  0  0  0
  194.7610  174.7430  137.4760 C   0  0  0  0  0  1  0  0  0  0  0  0
  191.2840  176.1530  138.4310 C   0  0  0  0  0  0  0  0  0  0  0  0
  189.1360  176.0490  138.1380 C   0  0  0  0  0  0  0  0  0  0  0  0
  187.9550  175.6060  137.6390 F   0  0  0  0  0  0  0  0  0  0  0  0
  192.5720  174.0970  136.8220 O   0  0  0  0  0  0  0  0  0  0  0  0
  184.9210  178.9680  142.5990 N   0  0  0  0  0  2  0  0  0  0  0  0
  182.4650  178.8480  142.7580 N   0  0  0  0  0  1  0  0  0  0  0  0
  183.6760  178.4420  142.1300 C   0  0  0  0  0  0  0  0  0  0  0  0
  183.6310  177.6530  141.1500 O   0  0  0  0  0  0  0  0  0  0  0  0
  189.5330  177.8580  142.7700 C   0  0  0  0  0  2  0  0  0  0  0  0
  190.5160  176.7150  142.9670 C   0  0  0  0  0  2  0  0  0  0  0  0
  190.9820  176.6930  144.4080 C   0  0  0  0  0  2  0  0  0  0  0  0
  190.1160  177.6310  145.2250 C   0  0  0  0  0  2  0  0  0  0  0  0
  190.2340  177.3140  146.6470 N   0  0  0  0  0  0  0  0  0  0  0  0
  188.9560  178.1930  148.6260 C   0  0  0  0  0  1  0  0  0  0  0  0
  188.9200  177.4270  147.3060 C   0  0  1  0  0  3  0  0  0  0  0  0
  186.7140  177.1210  146.3010 N   0  0  0  0  0  2  0  0  0  0  0  0
  187.8790  178.0180  146.3640 C   0  0  1  0  0  3  0  0  0  0  0  0
  186.6690  178.3520  147.1060 C   0  0  0  0  0  2  0  0  0  0  0  0
  190.9050  176.0220  146.8870 C   0  0  0  0  0  2  0  0  0  0  0  0
  192.1280  176.1160  147.8000 C   0  0  0  0  0  1  0  0  0  0  0  0
  1 23  1  1  0  0  0
  1  4  1  0  0  0  0
  2  7  2  0  0  0  0
  2  3  1  0  0  0  0
  3  6  2  0  0  0  0
  5 19  1  0  0  0  0
  5  4  2  0  0  0  0
  6  5  1  0  0  0  0
  7  8  1  0  0  0  0
  8  6  1  0  0  0  0
  8  1  1  0  0  0  0
 10 13  1  0  0  0  0
 11  9  1  0  0  0  0
 11  7  1  0  0  0  0
 12 16  1  0  0  0  0
 12 15  2  0  0  0  0
 13 15  1  0  0  0  0
 14 10  1  0  0  0  0
 15  9  1  0  0  0  0
 16 11  2  0  0  0  0
 17 16  1  0  0  0  0
 18 10  2  0  0  0  0
 21 19  1  0  0  0  0
 21 20  1  0  0  0  0
 22 21  2  0  0  0  0
 23 24  1  0  0  0  0
 24 25  1  0  0  0  0
 25 26  1  0  0  0  0
 26 27  1  0  0  0  0
 27 33  1  0  0  0  0
 27 29  1  0  0  0  0
 29 28  1  1  0  0  0
 30 31  1  0  0  0  0
 30 32  1  0  0  0  0
 31 32  1  0  0  0  0
 31 29  1  1  0  0  0
 33 34  1  0  0  0  0
M  END
>  <MODEL>
4

>  <REMARK>
 VINA RESULT:      -8.0      1.781      2.429
  Name = 
  10 active torsions:
  status: ('A' for Active; 'I' for Inactive)
    1  A    between atoms: C_1  and  C_2
    2  A    between atoms: C_1  and  C_24
    3  A    between atoms: C_6  and  C_11
    4  A    between atoms: C_6  and  N_15
    5  A    between atoms: N_8  and  C_17
    6  A    between atoms: C_9  and  C_31
    7  A    between atoms: C_11  and  C_24
    8  A    between atoms: N_15  and  C_16
    9  A    between atoms: N_15  and  C_30
   10  A    between atoms: C_27  and  C_30
                            x       y       z     vdW  Elec       q    Type
                         _______ _______ _______ _____ _____    ______ ____

>  <TORSDO>
F 10

$$$$
=
 OpenBabel10232409583D

 34 37  0  0  1  0  0  0  0  0999 V2000
  188.8370  177.2160  144.3690 C   0  0  1  0  0  3  0  0  0  0  0  0
  186.6710  178.1640  147.0060 N   0  0  0  0  0  0  0  0  0  0  0  0
  187.8530  177.9230  147.5640 N   0  0  0  0  0  0  0  0  0  0  0  0
  189.9740  176.5960  145.1610 C   0  0  0  0  0  3  0  0  0  0  0  0
  189.8960  177.0050  146.4290 C   0  0  0  0  0  0  0  0  0  0  0  0
  188.7370  177.8690  146.5500 C   0  0  0  0  0  0  0  0  0  0  0  0
  186.8590  178.1810  145.6680 C   0  0  0  0  0  0  0  0  0  0  0  0
  188.1620  178.0330  145.3700 N   0  0  0  0  0  0  0  0  0  0  0  0
  185.9280  178.0410  143.2090 C   0  0  0  0  0  2  0  0  0  0  0  0
  182.7610  178.4150  140.9460 C   0  0  0  0  0  0  0  0  0  0  0  0
  185.7710  178.2470  144.6780 C   0  0  0  0  0  0  0  0  0  0  0  0
  183.7140  178.5430  143.7570 N   0  0  0  0  0  0  0  0  0  0  0  0
  184.0970  178.1980  141.4130 N   0  0  0  0  0  2  0  0  0  0  0  0
  182.4780  178.3490  139.4890 C   0  0  0  0  0  1  0  0  0  0  0  0
  184.5150  178.2660  142.7800 C   0  0  0  0  0  0  0  0  0  0  0  0
  184.5030  178.5290  144.9340 C   0  0  0  0  0  0  0  0  0  0  0  0
  183.9990  178.7890  146.1660 F   0  0  0  0  0  0  0  0  0  0  0  0
  181.8250  178.6750  141.7480 O   0  0  0  0  0  0  0  0  0  0  0  0
  190.7570  176.5360  147.4720 N   0  0  0  0  0  2  0  0  0  0  0  0
  192.8230  175.5770  148.4100 N   0  0  0  0  0  1  0  0  0  0  0  0
  191.9980  175.8500  147.2830 C   0  0  0  0  0  0  0  0  0  0  0  0
  192.3570  175.4570  146.1420 O   0  0  0  0  0  0  0  0  0  0  0  0
  189.3460  178.0690  143.2060 C   0  0  0  0  0  2  0  0  0  0  0  0
  190.7550  177.6970  142.7730 C   0  0  0  0  0  2  0  0  0  0  0  0
  190.7320  177.2210  141.3360 C   0  0  0  0  0  2  0  0  0  0  0  0
  189.4010  177.5880  140.7120 C   0  0  0  0  0  2  0  0  0  0  0  0
  189.3720  177.1770  139.3090 N   0  0  0  0  0  0  0  0  0  0  0  0
  189.3470  178.7190  137.3240 C   0  0  0  0  0  1  0  0  0  0  0  0
  188.5870  178.1360  138.5120 C   0  0  1  0  0  3  0  0  0  0  0  0
  186.1600  178.4170  138.4620 N   0  0  0  0  0  2  0  0  0  0  0  0
  187.2630  177.5280  138.0640 C   0  0  1  0  0  3  0  0  0  0  0  0
  186.6330  178.3880  137.0690 C   0  0  0  0  0  2  0  0  0  0  0  0
  190.7200  176.9230  138.7640 C   0  0  0  0  0  2  0  0  0  0  0  0
  190.8580  175.5800  138.0460 C   0  0  0  0  0  1  0  0  0  0  0  0
  1 23  1  6  0  0  0
  1  4  1  0  0  0  0
  1  8  1  0  0  0  0
  2  3  1  0  0  0  0
  4  5  2  0  0  0  0
  5  6  1  0  0  0  0
  5 19  1  0  0  0  0
  6  3  2  0  0  0  0
  7  2  2  0  0  0  0
  8  7  1  0  0  0  0
  8  6  1  0  0  0  0
  9 11  1  0  0  0  0
 10 13  1  0  0  0  0
 10 18  2  0  0  0  0
 11 16  2  0  0  0  0
 11  7  1  0  0  0  0
 12 16  1  0  0  0  0
 13 15  1  0  0  0  0
 14 10  1  0  0  0  0
 15  9  1  0  0  0  0
 15 12  2  0  0  0  0
 16 17  1  0  0  0  0
 21 19  1  0  0  0  0
 21 20  1  0  0  0  0
 22 21  2  0  0  0  0
 24 23  1  0  0  0  0
 25 24  1  0  0  0  0
 26 25  1  0  0  0  0
 27 26  1  0  0  0  0
 29 28  1  6  0  0  0
 29 27  1  0  0  0  0
 31 30  1  0  0  0  0
 31 29  1  1  0  0  0
 32 31  1  0  0  0  0
 32 30  1  0  0  0  0
 33 27  1  0  0  0  0
 34 33  1  0  0  0  0
M  END
>  <MODEL>
5

>  <REMARK>
 VINA RESULT:      -7.9      3.499      9.145
  Name = 
  10 active torsions:
  status: ('A' for Active; 'I' for Inactive)
    1  A    between atoms: C_1  and  C_2
    2  A    between atoms: C_1  and  C_24
    3  A    between atoms: C_6  and  C_11
    4  A    between atoms: C_6  and  N_15
    5  A    between atoms: N_8  and  C_17
    6  A    between atoms: C_9  and  C_31
    7  A    between atoms: C_11  and  C_24
    8  A    between atoms: N_15  and  C_16
    9  A    between atoms: N_15  and  C_30
   10  A    between atoms: C_27  and  C_30
                            x       y       z     vdW  Elec       q    Type
                         _______ _______ _______ _____ _____    ______ ____

>  <TORSDO>
F 10

$$$$
=
 OpenBabel10232409583D

 34 37  0  0  1  0  0  0  0  0999 V2000
  188.7240  177.7080  143.5530 C   0  0  1  0  0  3  0  0  0  0  0  0
  191.6440  176.9770  141.6860 N   0  0  0  0  0  0  0  0  0  0  0  0
  191.9720  176.8250  142.9650 N   0  0  0  0  0  0  0  0  0  0  0  0
  189.3250  177.8970  144.9340 C   0  0  0  0  0  3  0  0  0  0  0  0
  190.5390  177.3450  144.9600 C   0  0  0  0  0  0  0  0  0  0  0  0
  190.8100  176.7960  143.6450 C   0  0  0  0  0  0  0  0  0  0  0  0
  190.3000  177.1040  141.6340 C   0  0  0  0  0  0  0  0  0  0  0  0
  189.7610  176.9560  142.8560 N   0  0  0  0  0  0  0  0  0  0  0  0
  189.6430  176.7570  139.1070 C   0  0  0  0  0  2  0  0  0  0  0  0
  187.5230  178.1270  136.1210 C   0  0  0  0  0  0  0  0  0  0  0  0
  189.5470  177.4610  140.4190 C   0  0  0  0  0  0  0  0  0  0  0  0
  188.1660  178.5620  138.9890 N   0  0  0  0  0  0  0  0  0  0  0  0
  188.4140  177.3530  136.9300 N   0  0  0  0  0  2  0  0  0  0  0  0
  187.3570  177.7840  134.6850 C   0  0  0  0  0  1  0  0  0  0  0  0
  188.6940  177.5930  138.3130 C   0  0  0  0  0  0  0  0  0  0  0  0
  188.7020  178.4730  140.2980 C   0  0  0  0  0  0  0  0  0  0  0  0
  188.3800  179.3390  141.2900 F   0  0  0  0  0  0  0  0  0  0  0  0
  186.8890  179.1040  136.6020 O   0  0  0  0  0  0  0  0  0  0  0  0
  191.4260  177.4240  146.0810 N   0  0  0  0  0  2  0  0  0  0  0  0
  192.3340  176.7560  148.2710 N   0  0  0  0  0  1  0  0  0  0  0  0
  191.2950  176.6910  147.3020 C   0  0  0  0  0  0  0  0  0  0  0  0
  190.2600  176.0160  147.5470 O   0  0  0  0  0  0  0  0  0  0  0  0
  187.4090  176.9280  143.6010 C   0  0  0  0  0  2  0  0  0  0  0  0
  186.2340  177.7790  144.0570 C   0  0  0  0  0  2  0  0  0  0  0  0
  185.4220  178.2060  142.8530 C   0  0  0  0  0  2  0  0  0  0  0  0
  183.9660  178.3260  143.2520 C   0  0  0  0  0  2  0  0  0  0  0  0
  183.1890  178.9040  142.1550 N   0  0  0  0  0  0  0  0  0  0  0  0
  182.8870  177.0400  140.4960 C   0  0  0  0  0  1  0  0  0  0  0  0
  183.6170  178.3280  140.8680 C   0  0  1  0  0  3  0  0  0  0  0  0
  184.8720  179.7060  139.2890 N   0  0  0  0  0  2  0  0  0  0  0  0
  183.5190  179.3520  139.7450 C   0  0  1  0  0  3  0  0  0  0  0  0
  184.0360  178.7820  138.5060 C   0  0  0  0  0  2  0  0  0  0  0  0
  181.7340  178.8190  142.3840 C   0  0  0  0  0  2  0  0  0  0  0  0
  181.3350  178.8310  143.8610 C   0  0  0  0  0  1  0  0  0  0  0  0
  1 23  1  1  0  0  0
  1  4  1  0  0  0  0
  2  3  1  0  0  0  0
  3  6  2  0  0  0  0
  4  5  2  0  0  0  0
  5 19  1  0  0  0  0
  6  5  1  0  0  0  0
  7  2  2  0  0  0  0
  7  8  1  0  0  0  0
  8  1  1  0  0  0  0
  8  6  1  0  0  0  0
  9 11  1  0  0  0  0
 10 18  2  0  0  0  0
 10 13  1  0  0  0  0
 11  7  1  0  0  0  0
 12 16  1  0  0  0  0
 13 15  1  0  0  0  0
 14 10  1  0  0  0  0
 15 12  2  0  0  0  0
 15  9  1  0  0  0  0
 16 11  2  0  0  0  0
 16 17  1  0  0  0  0
 19 21  1  0  0  0  0
 21 22  2  0  0  0  0
 21 20  1  0  0  0  0
 23 24  1  0  0  0  0
 25 26  1  0  0  0  0
 25 24  1  0  0  0  0
 27 33  1  0  0  0  0
 27 26  1  0  0  0  0
 29 28  1  6  0  0  0
 29 27  1  0  0  0  0
 30 31  1  0  0  0  0
 31 29  1  1  0  0  0
 32 30  1  0  0  0  0
 32 31  1  0  0  0  0
 33 34  1  0  0  0  0
M  END
>  <MODEL>
6

>  <REMARK>
 VINA RESULT:      -7.8      3.568      6.765
  Name = 
  10 active torsions:
  status: ('A' for Active; 'I' for Inactive)
    1  A    between atoms: C_1  and  C_2
    2  A    between atoms: C_1  and  C_24
    3  A    between atoms: C_6  and  C_11
    4  A    between atoms: C_6  and  N_15
    5  A    between atoms: N_8  and  C_17
    6  A    between atoms: C_9  and  C_31
    7  A    between atoms: C_11  and  C_24
    8  A    between atoms: N_15  and  C_16
    9  A    between atoms: N_15  and  C_30
   10  A    between atoms: C_27  and  C_30
                            x       y       z     vdW  Elec       q    Type
                         _______ _______ _______ _____ _____    ______ ____

>  <TORSDO>
F 10

$$$$
=
 OpenBabel10232409583D

 34 37  0  0  1  0  0  0  0  0999 V2000
  187.9640  177.4130  143.6500 C   0  0  1  0  0  3  0  0  0  0  0  0
  185.8550  178.2330  146.3750 N   0  0  0  0  0  0  0  0  0  0  0  0
  187.0510  177.9770  146.8940 N   0  0  0  0  0  0  0  0  0  0  0  0
  189.1220  176.7660  144.3880 C   0  0  0  0  0  3  0  0  0  0  0  0
  189.0710  177.1200  145.6730 C   0  0  0  0  0  0  0  0  0  0  0  0
  187.9120  177.9710  145.8580 C   0  0  0  0  0  0  0  0  0  0  0  0
  186.0120  178.3100  145.0350 C   0  0  0  0  0  0  0  0  0  0  0  0
  187.3080  178.1820  144.7000 N   0  0  0  0  0  0  0  0  0  0  0  0
  184.9930  178.1210  142.6140 C   0  0  0  0  0  2  0  0  0  0  0  0
  181.7930  178.6290  140.4250 C   0  0  0  0  0  0  0  0  0  0  0  0
  184.9000  178.4110  144.0740 C   0  0  0  0  0  0  0  0  0  0  0  0
  182.8440  178.8220  143.1970 N   0  0  0  0  0  0  0  0  0  0  0  0
  183.1230  178.3320  140.8640 N   0  0  0  0  0  2  0  0  0  0  0  0
  181.4590  178.5140  138.9820 C   0  0  0  0  0  1  0  0  0  0  0  0
  183.5890  178.4340  142.2140 C   0  0  0  0  0  0  0  0  0  0  0  0
  183.6670  178.8050  144.3510 C   0  0  0  0  0  0  0  0  0  0  0  0
  183.2240  179.1640  145.5810 F   0  0  0  0  0  0  0  0  0  0  0  0
  180.9060  179.0010  141.2390 O   0  0  0  0  0  0  0  0  0  0  0  0
  189.9580  176.6110  146.6750 N   0  0  0  0  0  2  0  0  0  0  0  0
  192.1150  176.3600  147.8380 N   0  0  0  0  0  1  0  0  0  0  0  0
  191.3770  176.7920  146.7010 C   0  0  0  0  0  0  0  0  0  0  0  0
  191.9870  177.2960  145.7210 O   0  0  0  0  0  0  0  0  0  0  0  0
  188.4410  178.3180  142.5130 C   0  0  0  0  0  2  0  0  0  0  0  0
  188.7910  177.5470  141.2510 C   0  0  0  0  0  2  0  0  0  0  0  0
  188.0170  178.1160  140.0810 C   0  0  0  0  0  2  0  0  0  0  0  0
  188.9850  178.4810  138.9740 C   0  0  0  0  0  2  0  0  0  0  0  0
  188.4980  177.9740  137.6910 N   0  0  0  0  0  0  0  0  0  0  0  0
  189.7320  177.0490  135.7070 C   0  0  0  0  0  1  0  0  0  0  0  0
  189.3910  176.9160  137.1880 C   0  0  1  0  0  3  0  0  0  0  0  0
  190.8440  175.4230  138.4660 N   0  0  0  0  0  2  0  0  0  0  0  0
  190.6570  176.8160  138.0300 C   0  0  1  0  0  3  0  0  0  0  0  0
  191.6370  175.9720  137.3550 C   0  0  0  0  0  2  0  0  0  0  0  0
  187.0790  177.5730  137.7420 C   0  0  0  0  0  2  0  0  0  0  0  0
  186.4630  177.2890  136.3710 C   0  0  0  0  0  1  0  0  0  0  0  0
  1 23  1  6  0  0  0
  1  4  1  0  0  0  0
  1  8  1  0  0  0  0
  2  3  1  0  0  0  0
  4  5  2  0  0  0  0
  5  6  1  0  0  0  0
  5 19  1  0  0  0  0
  6  3  2  0  0  0  0
  7  2  2  0  0  0  0
  8  7  1  0  0  0  0
  8  6  1  0  0  0  0
  9 11  1  0  0  0  0
 10 13  1  0  0  0  0
 10 18  2  0  0  0  0
 11 16  2  0  0  0  0
 11  7  1  0  0  0  0
 12 16  1  0  0  0  0
 13 15  1  0  0  0  0
 14 10  1  0  0  0  0
 15  9  1  0  0  0  0
 15 12  2  0  0  0  0
 16 17  1  0  0  0  0
 19 21  1  0  0  0  0
 21 20  1  0  0  0  0
 22 21  2  0  0  0  0
 24 23  1  0  0  0  0
 25 24  1  0  0  0  0
 26 25  1  0  0  0  0
 27 33  1  0  0  0  0
 27 26  1  0  0  0  0
 29 28  1  6  0  0  0
 29 27  1  0  0  0  0
 31 29  1  6  0  0  0
 31 30  1  0  0  0  0
 32 31  1  0  0  0  0
 32 30  1  0  0  0  0
 34 33  1  0  0  0  0
M  END
>  <MODEL>
7

>  <REMARK>
 VINA RESULT:      -7.7      3.446      9.600
  Name = 
  10 active torsions:
  status: ('A' for Active; 'I' for Inactive)
    1  A    between atoms: C_1  and  C_2
    2  A    between atoms: C_1  and  C_24
    3  A    between atoms: C_6  and  C_11
    4  A    between atoms: C_6  and  N_15
    5  A    between atoms: N_8  and  C_17
    6  A    between atoms: C_9  and  C_31
    7  A    between atoms: C_11  and  C_24
    8  A    between atoms: N_15  and  C_16
    9  A    between atoms: N_15  and  C_30
   10  A    between atoms: C_27  and  C_30
                            x       y       z     vdW  Elec       q    Type
                         _______ _______ _______ _____ _____    ______ ____

>  <TORSDO>
F 10

$$$$
=
 OpenBabel10232409583D

 34 37  0  0  1  0  0  0  0  0999 V2000
  188.4530  177.6380  144.0740 C   0  0  1  0  0  3  0  0  0  0  0  0
  191.4820  176.8500  142.4150 N   0  0  0  0  0  0  0  0  0  0  0  0
  191.7090  176.6660  143.7120 N   0  0  0  0  0  0  0  0  0  0  0  0
  188.9550  177.7850  145.5000 C   0  0  0  0  0  3  0  0  0  0  0  0
  190.1470  177.1950  145.6050 C   0  0  0  0  0  0  0  0  0  0  0  0
  190.4990  176.6610  144.3030 C   0  0  0  0  0  0  0  0  0  0  0  0
  190.1500  177.0190  142.2660 C   0  0  0  0  0  0  0  0  0  0  0  0
  189.5170  176.8660  143.4420 N   0  0  0  0  0  0  0  0  0  0  0  0
  189.6140  176.6930  139.7080 C   0  0  0  0  0  2  0  0  0  0  0  0
  187.7900  178.1910  136.5900 C   0  0  0  0  0  0  0  0  0  0  0  0
  189.5010  177.4190  141.0060 C   0  0  0  0  0  0  0  0  0  0  0  0
  188.3000  178.6100  139.4870 N   0  0  0  0  0  0  0  0  0  0  0  0
  188.5660  177.3570  137.4580 N   0  0  0  0  0  2  0  0  0  0  0  0
  187.6800  177.8420  135.1500 C   0  0  0  0  0  1  0  0  0  0  0  0
  188.7850  177.5930  138.8530 C   0  0  0  0  0  0  0  0  0  0  0  0
  188.7500  178.4950  140.8260 C   0  0  0  0  0  0  0  0  0  0  0  0
  188.4440  179.3990  141.7900 F   0  0  0  0  0  0  0  0  0  0  0  0
  187.2130  179.2230  137.0240 O   0  0  0  0  0  0  0  0  0  0  0  0
  190.9500  177.2270  146.7890 N   0  0  0  0  0  2  0  0  0  0  0  0
  192.7250  176.4600  148.3150 N   0  0  0  0  0  1  0  0  0  0  0  0
  191.8860  176.2230  147.1910 C   0  0  0  0  0  0  0  0  0  0  0  0
  191.9570  175.1210  146.5860 O   0  0  0  0  0  0  0  0  0  0  0  0
  187.1160  176.8990  144.0090 C   0  0  0  0  0  2  0  0  0  0  0  0
  185.9230  177.8400  143.9680 C   0  0  0  0  0  2  0  0  0  0  0  0
  185.5120  178.0700  142.5290 C   0  0  0  0  0  2  0  0  0  0  0  0
  184.1470  178.7270  142.5000 C   0  0  0  0  0  2  0  0  0  0  0  0
  183.4930  178.4740  141.2170 N   0  0  0  0  0  0  0  0  0  0  0  0
  181.1850  177.6920  140.6030 C   0  0  0  0  0  1  0  0  0  0  0  0
  182.0450  178.7270  141.3230 C   0  0  1  0  0  3  0  0  0  0  0  0
  180.7150  180.0310  142.9040 N   0  0  0  0  0  2  0  0  0  0  0  0
  181.6160  178.8740  142.7770 C   0  0  1  0  0  3  0  0  0  0  0  0
  180.1780  178.6610  142.8940 C   0  0  0  0  0  2  0  0  0  0  0  0
  184.1370  179.1940  140.1000 C   0  0  0  0  0  2  0  0  0  0  0  0
  184.4530  178.3120  138.8910 C   0  0  0  0  0  1  0  0  0  0  0  0
  1 23  1  1  0  0  0
  1  4  1  0  0  0  0
  2  3  1  0  0  0  0
  3  6  2  0  0  0  0
  4  5  2  0  0  0  0
  5 19  1  0  0  0  0
  6  5  1  0  0  0  0
  7  2  2  0  0  0  0
  7  8  1  0  0  0  0
  8  1  1  0  0  0  0
  8  6  1  0  0  0  0
  9 11  1  0  0  0  0
 10 18  2  0  0  0  0
 10 13  1  0  0  0  0
 11  7  1  0  0  0  0
 12 16  1  0  0  0  0
 13 15  1  0  0  0  0
 14 10  1  0  0  0  0
 15 12  2  0  0  0  0
 15  9  1  0  0  0  0
 16 11  2  0  0  0  0
 16 17  1  0  0  0  0
 19 21  1  0  0  0  0
 21 20  1  0  0  0  0
 22 21  2  0  0  0  0
 24 23  1  0  0  0  0
 25 24  1  0  0  0  0
 26 25  1  0  0  0  0
 27 29  1  0  0  0  0
 27 26  1  0  0  0  0
 29 28  1  1  0  0  0
 31 29  1  6  0  0  0
 31 32  1  0  0  0  0
 31 30  1  0  0  0  0
 32 30  1  0  0  0  0
 33 27  1  0  0  0  0
 34 33  1  0  0  0  0
M  END
>  <MODEL>
8

>  <REMARK>
 VINA RESULT:      -7.7      3.629      6.893
  Name = 
  10 active torsions:
  status: ('A' for Active; 'I' for Inactive)
    1  A    between atoms: C_1  and  C_2
    2  A    between atoms: C_1  and  C_24
    3  A    between atoms: C_6  and  C_11
    4  A    between atoms: C_6  and  N_15
    5  A    between atoms: N_8  and  C_17
    6  A    between atoms: C_9  and  C_31
    7  A    between atoms: C_11  and  C_24
    8  A    between atoms: N_15  and  C_16
    9  A    between atoms: N_15  and  C_30
   10  A    between atoms: C_27  and  C_30
                            x       y       z     vdW  Elec       q    Type
                         _______ _______ _______ _____ _____    ______ ____

>  <TORSDO>
F 10

$$$$
=
 OpenBabel10232409583D

 34 37  0  0  1  0  0  0  0  0999 V2000
  188.9860  177.2630  140.9230 C   0  0  1  0  0  3  0  0  0  0  0  0
  192.5050  177.2880  140.5260 N   0  0  0  0  0  0  0  0  0  0  0  0
  191.9920  177.3540  139.3020 N   0  0  0  0  0  0  0  0  0  0  0  0
  188.5550  176.9320  139.5050 C   0  0  0  0  0  3  0  0  0  0  0  0
  189.5680  177.1820  138.6730 C   0  0  0  0  0  0  0  0  0  0  0  0
  190.6890  177.6550  139.4620 C   0  0  0  0  0  0  0  0  0  0  0  0
  191.4880  177.4830  141.3940 C   0  0  0  0  0  0  0  0  0  0  0  0
  190.3470  177.7510  140.7360 N   0  0  0  0  0  0  0  0  0  0  0  0
  191.8360  176.0270  143.5600 C   0  0  0  0  0  2  0  0  0  0  0  0
  191.9570  176.0570  147.4680 C   0  0  0  0  0  0  0  0  0  0  0  0
  191.6000  177.3190  142.8530 C   0  0  0  0  0  0  0  0  0  0  0  0
  191.6060  177.7860  145.0770 N   0  0  0  0  0  0  0  0  0  0  0  0
  191.9820  175.6460  146.0970 N   0  0  0  0  0  2  0  0  0  0  0  0
  192.1110  175.0390  148.5380 C   0  0  0  0  0  1  0  0  0  0  0  0
  191.8120  176.5140  144.9710 C   0  0  0  0  0  0  0  0  0  0  0  0
  191.4750  178.2800  143.7560 C   0  0  0  0  0  0  0  0  0  0  0  0
  191.2380  179.5850  143.4730 F   0  0  0  0  0  0  0  0  0  0  0  0
  191.7920  177.2660  147.7830 O   0  0  0  0  0  0  0  0  0  0  0  0
  189.5370  176.8910  137.2720 N   0  0  0  0  0  2  0  0  0  0  0  0
  189.1340  177.3780  134.8910 N   0  0  0  0  0  1  0  0  0  0  0  0
  188.9580  177.7210  136.2610 C   0  0  0  0  0  0  0  0  0  0  0  0
  188.2680  178.7300  136.5630 O   0  0  0  0  0  0  0  0  0  0  0  0
  188.0950  178.3310  141.5600 C   0  0  0  0  0  2  0  0  0  0  0  0
  187.9880  178.1870  143.0690 C   0  0  0  0  0  2  0  0  0  0  0  0
  187.5660  176.7750  143.4130 C   0  0  0  0  0  2  0  0  0  0  0  0
  187.1690  176.7150  144.8740 C   0  0  0  0  0  2  0  0  0  0  0  0
  186.7570  178.0390  145.3390 N   0  0  0  0  0  0  0  0  0  0  0  0
  184.6920  178.4140  146.7210 C   0  0  0  0  0  1  0  0  0  0  0  0
  185.2870  178.1450  145.3420 C   0  0  1  0  0  3  0  0  0  0  0  0
  184.2350  178.4890  143.1640 N   0  0  0  0  0  2  0  0  0  0  0  0
  184.8060  179.1780  144.3310 C   0  0  1  0  0  3  0  0  0  0  0  0
  183.3580  179.0900  144.1810 C   0  0  0  0  0  2  0  0  0  0  0  0
  187.3780  178.4080  146.6260 C   0  0  0  0  0  2  0  0  0  0  0  0
  188.5320  177.4960  147.0440 C   0  0  0  0  0  1  0  0  0  0  0  0
  1 23  1  6  0  0  0
  2  7  2  0  0  0  0
  3  6  2  0  0  0  0
  3  2  1  0  0  0  0
  4  1  1  0  0  0  0
  5  6  1  0  0  0  0
  5  4  2  0  0  0  0
  6  8  1  0  0  0  0
  7 11  1  0  0  0  0
  8  1  1  0  0  0  0
  8  7  1  0  0  0  0
  9 15  1  0  0  0  0
 10 18  2  0  0  0  0
 10 14  1  0  0  0  0
 11  9  1  0  0  0  0
 11 16  2  0  0  0  0
 13 10  1  0  0  0  0
 15 12  2  0  0  0  0
 15 13  1  0  0  0  0
 16 12  1  0  0  0  0
 17 16  1  0  0  0  0
 19  5  1  0  0  0  0
 20 21  1  0  0  0  0
 21 22  2  0  0  0  0
 21 19  1  0  0  0  0
 23 24  1  0  0  0  0
 24 25  1  0  0  0  0
 25 26  1  0  0  0  0
 26 27  1  0  0  0  0
 27 29  1  0  0  0  0
 27 33  1  0  0  0  0
 29 28  1  1  0  0  0
 30 32  1  0  0  0  0
 30 31  1  0  0  0  0
 31 29  1  1  0  0  0
 32 31  1  0  0  0  0
 33 34  1  0  0  0  0
M  END
>  <MODEL>
9

>  <REMARK>
 VINA RESULT:      -7.6      3.286      5.426
  Name = 
  10 active torsions:
  status: ('A' for Active; 'I' for Inactive)
    1  A    between atoms: C_1  and  C_2
    2  A    between atoms: C_1  and  C_24
    3  A    between atoms: C_6  and  C_11
    4  A    between atoms: C_6  and  N_15
    5  A    between atoms: N_8  and  C_17
    6  A    between atoms: C_9  and  C_31
    7  A    between atoms: C_11  and  C_24
    8  A    between atoms: N_15  and  C_16
    9  A    between atoms: N_15  and  C_30
   10  A    between atoms: C_27  and  C_30
                            x       y       z     vdW  Elec       q    Type
                         _______ _______ _______ _____ _____    ______ ____

>  <TORSDO>
F 10

$$$$
