=
 OpenBabel10232411443D

 27 30  0  0  1  0  0  0  0  0999 V2000
  190.0400  176.1860  142.7210 C   0  0  0  0  0  3  0  0  0  0  0  0
  186.6420  178.2840  142.0590 O   0  0  0  0  0  0  0  0  0  0  0  0
  187.7920  177.6680  142.1130 C   0  0  0  0  0  0  0  0  0  0  0  0
  188.8430  177.3740  138.7030 C   0  0  0  0  0  2  0  0  0  0  0  0
  190.3170  177.2800  138.2950 C   0  0  1  0  0  3  0  0  0  0  0  0
  188.6250  178.3410  139.8570 C   0  0  0  0  0  2  0  0  0  0  0  0
  189.9750  176.8710  141.4860 C   0  0  0  0  0  0  0  0  0  0  0  0
  186.7600  177.2110  144.0220 N   0  0  0  0  0  0  0  0  0  0  0  0
  187.8750  177.0130  143.3020 C   0  0  0  0  0  0  0  0  0  0  0  0
  188.9850  176.2500  143.6490 C   0  0  0  0  0  3  0  0  0  0  0  0
  191.3230  177.5750  139.4140 C   0  0  0  0  0  2  0  0  0  0  0  0
  191.0930  176.7500  140.5960 N   0  0  0  0  0  2  0  0  0  0  0  0
  188.8120  177.6290  141.1620 C   0  0  0  0  0  0  0  0  0  0  0  0
  186.0300  178.0090  143.2000 C   0  0  0  0  0  0  0  0  0  0  0  0
  191.1180  173.5640  136.2670 C   0  0  0  0  0  0  0  0  0  0  0  0
  189.8280  173.8600  136.7390 C   0  0  0  0  0  0  0  0  0  0  0  0
  191.9010  175.7010  137.1220 C   0  0  0  0  0  3  0  0  0  0  0  0
  188.7060  172.8990  136.5480 C   0  0  0  0  0  1  0  0  0  0  0  0
  190.6130  175.9910  137.5940 C   0  0  0  0  0  0  0  0  0  0  0  0
  192.1520  174.4940  136.4640 C   0  0  0  0  0  3  0  0  0  0  0  0
  189.5820  175.0680  137.3980 C   0  0  0  0  0  3  0  0  0  0  0  0
  191.3540  172.3500  135.6090 O   0  0  0  0  0  0  0  0  0  0  0  0
  192.6510  171.7830  135.4820 C   0  0  0  0  0  1  0  0  0  0  0  0
  184.6910  178.5030  143.5710 C   0  0  0  0  0  3  0  0  0  0  0  0
  184.3940  179.0530  144.7100 N   0  0  0  0  0  0  0  0  0  0  0  0
  185.3350  179.2680  145.7990 C   0  0  0  0  0  2  0  0  0  0  0  0
  184.8870  178.5470  146.9750 N   0  0  0  0  0  1  0  0  0  0  0  0
  1 10  1  0  0  0  0
  2  3  1  0  0  0  0
  2 14  1  0  0  0  0
  3  9  1  0  0  0  0
  4  6  1  0  0  0  0
  5 19  1  1  0  0  0
  5  4  1  0  0  0  0
  5 11  1  0  0  0  0
  6 13  1  0  0  0  0
  7  1  2  0  0  0  0
  9 10  2  0  0  0  0
  9  8  1  0  0  0  0
 11 12  1  0  0  0  0
 12  7  1  0  0  0  0
 13  7  1  0  0  0  0
 13  3  2  0  0  0  0
 14 24  1  0  0  0  0
 14  8  2  0  0  0  0
 15 20  2  0  0  0  0
 15 16  1  0  0  0  0
 16 21  2  0  0  0  0
 17 19  2  0  0  0  0
 18 16  1  0  0  0  0
 20 17  1  0  0  0  0
 21 19  1  0  0  0  0
 22 15  1  0  0  0  0
 23 22  1  0  0  0  0
 24 25  2  0  0  0  0
 25 26  1  0  0  0  0
 26 27  1  0  0  0  0
M  END
>  <MODEL>
1

>  <REMARK>
 VINA RESULT:      -7.0      0.000      0.000
  Name = 
  4 active torsions:
  status: ('A' for Active; 'I' for Inactive)
    1  A    between atoms: C_3  and  C_26
    2  A    between atoms: O_6  and  C_7
    3  A    between atoms: C_8  and  C_15
    4  A    between atoms: C_17  and  N_20
                            x       y       z     vdW  Elec       q    Type
                         _______ _______ _______ _____ _____    ______ ____

>  <TORSDO>
F 4

$$$$
=
 OpenBabel10232411443D

 27 30  0  0  1  0  0  0  0  0999 V2000
  187.7430  178.3810  140.4350 C   0  0  0  0  0  3  0  0  0  0  0  0
  186.3120  177.9500  144.1970 O   0  0  0  0  0  0  0  0  0  0  0  0
  186.6060  178.1330  142.9380 C   0  0  0  0  0  0  0  0  0  0  0  0
  183.4990  177.7550  141.2000 C   0  0  0  0  0  2  0  0  0  0  0  0
  183.2120  178.4350  139.8570 C   0  0  1  0  0  3  0  0  0  0  0  0
  184.2970  178.6480  142.1380 C   0  0  0  0  0  2  0  0  0  0  0  0
  186.3580  178.6140  140.5930 C   0  0  0  0  0  0  0  0  0  0  0  0
  188.5100  177.5990  143.9430 N   0  0  0  0  0  0  0  0  0  0  0  0
  187.9400  177.9230  142.7720 C   0  0  0  0  0  0  0  0  0  0  0  0
  188.5540  178.0310  141.5290 C   0  0  0  0  0  3  0  0  0  0  0  0
  184.2410  179.4890  139.4280 C   0  0  0  0  0  2  0  0  0  0  0  0
  185.6020  178.9640  139.4250 N   0  0  0  0  0  2  0  0  0  0  0  0
  185.7630  178.4780  141.8810 C   0  0  0  0  0  0  0  0  0  0  0  0
  187.4500  177.6320  144.7930 C   0  0  0  0  0  0  0  0  0  0  0  0
  182.4630  175.5860  136.7130 C   0  0  0  0  0  0  0  0  0  0  0  0
  182.5860  176.9560  136.4260 C   0  0  0  0  0  0  0  0  0  0  0  0
  182.8260  176.0670  139.0690 C   0  0  0  0  0  3  0  0  0  0  0  0
  182.4640  177.4560  135.0280 C   0  0  0  0  0  1  0  0  0  0  0  0
  182.9460  177.4330  138.7770 C   0  0  0  0  0  0  0  0  0  0  0  0
  182.5850  175.1500  138.0430 C   0  0  0  0  0  3  0  0  0  0  0  0
  182.8270  177.8700  137.4550 C   0  0  0  0  0  3  0  0  0  0  0  0
  182.2210  174.6780  135.6740 O   0  0  0  0  0  0  0  0  0  0  0  0
  181.7700  173.3500  135.9020 C   0  0  0  0  0  1  0  0  0  0  0  0
  187.5880  177.3370  146.2310 C   0  0  0  0  0  3  0  0  0  0  0  0
  186.9510  177.9580  147.1780 N   0  0  0  0  0  0  0  0  0  0  0  0
  186.0030  179.0420  146.9690 C   0  0  0  0  0  2  0  0  0  0  0  0
  184.6530  178.5110  146.9730 N   0  0  0  0  0  1  0  0  0  0  0  0
  1  7  2  0  0  0  0
  1 10  1  0  0  0  0
  2 14  1  0  0  0  0
  3  2  1  0  0  0  0
  4  6  1  0  0  0  0
  5 19  1  6  0  0  0
  5  4  1  0  0  0  0
  7 13  1  0  0  0  0
  8 14  2  0  0  0  0
  9  3  1  0  0  0  0
  9  8  1  0  0  0  0
 10  9  2  0  0  0  0
 11  5  1  0  0  0  0
 12 11  1  0  0  0  0
 12  7  1  0  0  0  0
 13  6  1  0  0  0  0
 13  3  2  0  0  0  0
 14 24  1  0  0  0  0
 15 20  1  0  0  0  0
 16 15  2  0  0  0  0
 16 21  1  0  0  0  0
 18 16  1  0  0  0  0
 19 17  1  0  0  0  0
 20 17  2  0  0  0  0
 21 19  2  0  0  0  0
 22 23  1  0  0  0  0
 22 15  1  0  0  0  0
 24 25  2  0  0  0  0
 26 27  1  0  0  0  0
 26 25  1  0  0  0  0
M  END
>  <MODEL>
2

>  <REMARK>
 VINA RESULT:      -7.0      4.440      6.124
  Name = 
  4 active torsions:
  status: ('A' for Active; 'I' for Inactive)
    1  A    between atoms: C_3  and  C_26
    2  A    between atoms: O_6  and  C_7
    3  A    between atoms: C_8  and  C_15
    4  A    between atoms: C_17  and  N_20
                            x       y       z     vdW  Elec       q    Type
                         _______ _______ _______ _____ _____    ______ ____

>  <TORSDO>
F 4

$$$$
=
 OpenBabel10232411443D

 27 30  0  0  1  0  0  0  0  0999 V2000
  188.9470  174.3980  137.0720 C   0  0  0  0  0  3  0  0  0  0  0  0
  192.9880  174.6320  137.0840 O   0  0  0  0  0  0  0  0  0  0  0  0
  191.6870  174.7180  137.1570 C   0  0  0  0  0  0  0  0  0  0  0  0
  191.0640  177.0870  139.7680 C   0  0  0  0  0  2  0  0  0  0  0  0
  189.7930  177.9410  139.8270 C   0  0  1  0  0  3  0  0  0  0  0  0
  191.5750  176.9110  138.3460 C   0  0  0  0  0  2  0  0  0  0  0  0
  189.4900  175.5680  137.6480 C   0  0  0  0  0  0  0  0  0  0  0  0
  192.1200  172.7870  136.1550 N   0  0  0  0  0  0  0  0  0  0  0  0
  191.1480  173.6020  136.5950 C   0  0  0  0  0  0  0  0  0  0  0  0
  189.7740  173.3960  136.5350 C   0  0  0  0  0  3  0  0  0  0  0  0
  188.9230  177.9020  138.5650 C   0  0  0  0  0  2  0  0  0  0  0  0
  188.5740  176.5390  138.1750 N   0  0  0  0  0  2  0  0  0  0  0  0
  190.9040  175.7350  137.7050 C   0  0  0  0  0  0  0  0  0  0  0  0
  193.2420  173.4790  136.4850 C   0  0  0  0  0  0  0  0  0  0  0  0
  187.4710  177.1720  143.3740 C   0  0  0  0  0  0  0  0  0  0  0  0
  187.0210  178.0850  142.4060 C   0  0  0  0  0  0  0  0  0  0  0  0
  189.4530  176.7520  142.0300 C   0  0  0  0  0  3  0  0  0  0  0  0
  185.7300  178.8080  142.5800 C   0  0  0  0  0  1  0  0  0  0  0  0
  189.0020  177.6660  141.0680 C   0  0  0  0  0  0  0  0  0  0  0  0
  188.6930  176.5080  143.1760 C   0  0  0  0  0  3  0  0  0  0  0  0
  187.7860  178.3270  141.2610 C   0  0  0  0  0  3  0  0  0  0  0  0
  186.6980  176.9370  144.5180 O   0  0  0  0  0  0  0  0  0  0  0  0
  186.9640  177.5580  145.7680 C   0  0  0  0  0  1  0  0  0  0  0  0
  194.5930  172.9680  136.1920 C   0  0  0  0  0  3  0  0  0  0  0  0
  195.4530  172.5900  137.0900 N   0  0  0  0  0  0  0  0  0  0  0  0
  195.2170  172.6100  138.5260 C   0  0  0  0  0  2  0  0  0  0  0  0
  195.9250  173.7300  139.1170 N   0  0  0  0  0  1  0  0  0  0  0  0
  1  7  1  0  0  0  0
  2  3  1  0  0  0  0
  3 13  1  0  0  0  0
  4  5  1  0  0  0  0
  5 19  1  1  0  0  0
  6  4  1  0  0  0  0
  7 13  2  0  0  0  0
  7 12  1  0  0  0  0
  8 14  2  0  0  0  0
  8  9  1  0  0  0  0
  9  3  2  0  0  0  0
 10  9  1  0  0  0  0
 10  1  2  0  0  0  0
 11  5  1  0  0  0  0
 12 11  1  0  0  0  0
 13  6  1  0  0  0  0
 14  2  1  0  0  0  0
 15 22  1  0  0  0  0
 16 18  1  0  0  0  0
 16 15  2  0  0  0  0
 17 20  2  0  0  0  0
 19 21  2  0  0  0  0
 19 17  1  0  0  0  0
 20 15  1  0  0  0  0
 21 16  1  0  0  0  0
 22 23  1  0  0  0  0
 24 14  1  0  0  0  0
 24 25  2  0  0  0  0
 25 26  1  0  0  0  0
 26 27  1  0  0  0  0
M  END
>  <MODEL>
3

>  <REMARK>
 VINA RESULT:      -7.0      3.067      8.712
  Name = 
  4 active torsions:
  status: ('A' for Active; 'I' for Inactive)
    1  A    between atoms: C_3  and  C_26
    2  A    between atoms: O_6  and  C_7
    3  A    between atoms: C_8  and  C_15
    4  A    between atoms: C_17  and  N_20
                            x       y       z     vdW  Elec       q    Type
                         _______ _______ _______ _____ _____    ______ ____

>  <TORSDO>
F 4

$$$$
=
 OpenBabel10232411443D

 27 30  0  0  1  0  0  0  0  0999 V2000
  188.5350  178.4130  139.2050 C   0  0  0  0  0  3  0  0  0  0  0  0
  190.8220  175.1230  138.6270 O   0  0  0  0  0  0  0  0  0  0  0  0
  190.1630  176.1960  138.9740 C   0  0  0  0  0  0  0  0  0  0  0  0
  190.2630  176.2240  142.5530 C   0  0  0  0  0  2  0  0  0  0  0  0
  190.1670  177.5130  143.3750 C   0  0  1  0  0  3  0  0  0  0  0  0
  191.0840  176.4080  141.2860 C   0  0  0  0  0  2  0  0  0  0  0  0
  189.3720  178.0530  140.2850 C   0  0  0  0  0  0  0  0  0  0  0  0
  189.5060  175.7110  136.9120 N   0  0  0  0  0  0  0  0  0  0  0  0
  189.3600  176.5630  137.9390 C   0  0  0  0  0  0  0  0  0  0  0  0
  188.5200  177.6690  138.0120 C   0  0  0  0  0  3  0  0  0  0  0  0
  190.2820  178.8120  142.5660 C   0  0  0  0  0  2  0  0  0  0  0  0
  189.3230  178.8650  141.4670 N   0  0  0  0  0  2  0  0  0  0  0  0
  190.2070  176.9030  140.1760 C   0  0  0  0  0  0  0  0  0  0  0  0
  190.4280  174.8380  137.3960 C   0  0  0  0  0  0  0  0  0  0  0  0
  186.7420  177.5270  145.9880 C   0  0  0  0  0  0  0  0  0  0  0  0
  188.0360  177.7200  146.5000 C   0  0  0  0  0  0  0  0  0  0  0  0
  187.6780  177.3190  143.7540 C   0  0  0  0  0  3  0  0  0  0  0  0
  188.2560  177.9370  147.9580 C   0  0  0  0  0  1  0  0  0  0  0  0
  188.9670  177.5100  144.2700 C   0  0  0  0  0  0  0  0  0  0  0  0
  186.5730  177.3270  144.6080 C   0  0  0  0  0  3  0  0  0  0  0  0
  189.1390  177.7110  145.6420 C   0  0  0  0  0  3  0  0  0  0  0  0
  185.6440  177.5370  146.8580 O   0  0  0  0  0  0  0  0  0  0  0  0
  184.5940  178.4900  146.7600 C   0  0  0  0  0  1  0  0  0  0  0  0
  190.9190  173.6960  136.6050 C   0  0  0  0  0  3  0  0  0  0  0  0
  192.1590  173.5080  136.2670 N   0  0  0  0  0  0  0  0  0  0  0  0
  193.2590  174.3940  136.6170 C   0  0  0  0  0  2  0  0  0  0  0  0
  194.0500  173.7920  137.6720 N   0  0  0  0  0  1  0  0  0  0  0  0
  1  7  1  0  0  0  0
  2  3  1  0  0  0  0
  3 13  1  0  0  0  0
  4  5  1  0  0  0  0
  5 19  1  6  0  0  0
  6  4  1  0  0  0  0
  7 12  1  0  0  0  0
  8 14  2  0  0  0  0
  8  9  1  0  0  0  0
  9 10  1  0  0  0  0
  9  3  2  0  0  0  0
 10  1  2  0  0  0  0
 11  5  1  0  0  0  0
 12 11  1  0  0  0  0
 13  7  2  0  0  0  0
 13  6  1  0  0  0  0
 14  2  1  0  0  0  0
 15 16  1  0  0  0  0
 15 22  1  0  0  0  0
 16 18  1  0  0  0  0
 17 19  2  0  0  0  0
 17 20  1  0  0  0  0
 19 21  1  0  0  0  0
 20 15  2  0  0  0  0
 21 16  2  0  0  0  0
 23 22  1  0  0  0  0
 24 14  1  0  0  0  0
 25 24  2  0  0  0  0
 25 26  1  0  0  0  0
 26 27  1  0  0  0  0
M  END
>  <MODEL>
4

>  <REMARK>
 VINA RESULT:      -6.9      2.693      8.822
  Name = 
  4 active torsions:
  status: ('A' for Active; 'I' for Inactive)
    1  A    between atoms: C_3  and  C_26
    2  A    between atoms: O_6  and  C_7
    3  A    between atoms: C_8  and  C_15
    4  A    between atoms: C_17  and  N_20
                            x       y       z     vdW  Elec       q    Type
                         _______ _______ _______ _____ _____    ______ ____

>  <TORSDO>
F 4

$$$$
=
 OpenBabel10232411443D

 27 30  0  0  1  0  0  0  0  0999 V2000
  189.3630  176.3040  143.1010 C   0  0  0  0  0  3  0  0  0  0  0  0
  186.3310  178.7430  141.9870 O   0  0  0  0  0  0  0  0  0  0  0  0
  187.3950  178.0170  142.2010 C   0  0  0  0  0  0  0  0  0  0  0  0
  188.9730  177.7260  139.0000 C   0  0  0  0  0  2  0  0  0  0  0  0
  190.4800  177.5000  138.8370 C   0  0  1  0  0  3  0  0  0  0  0  0
  188.6530  178.6730  140.1460 C   0  0  0  0  0  2  0  0  0  0  0  0
  189.5690  177.0290  141.9060 C   0  0  0  0  0  0  0  0  0  0  0  0
  186.0180  177.6040  143.8910 N   0  0  0  0  0  0  0  0  0  0  0  0
  187.2160  177.3200  143.3560 C   0  0  0  0  0  0  0  0  0  0  0  0
  188.1780  176.4420  143.8450 C   0  0  0  0  0  3  0  0  0  0  0  0
  191.3060  177.6610  140.1190 C   0  0  0  0  0  2  0  0  0  0  0  0
  190.8060  176.8270  141.2070 N   0  0  0  0  0  2  0  0  0  0  0  0
  188.5520  177.9070  141.4300 C   0  0  0  0  0  0  0  0  0  0  0  0
  185.5130  178.4940  142.9980 C   0  0  0  0  0  0  0  0  0  0  0  0
  191.3680  173.7880  136.8390 C   0  0  0  0  0  0  0  0  0  0  0  0
  192.4000  174.5880  137.3590 C   0  0  0  0  0  0  0  0  0  0  0  0
  189.7390  175.4150  137.6200 C   0  0  0  0  0  3  0  0  0  0  0  0
  193.8250  174.1710  137.2360 C   0  0  0  0  0  1  0  0  0  0  0  0
  190.7710  176.2110  138.1350 C   0  0  0  0  0  0  0  0  0  0  0  0
  190.0360  174.2120  136.9750 C   0  0  0  0  0  3  0  0  0  0  0  0
  192.0980  175.7910  138.0030 C   0  0  0  0  0  3  0  0  0  0  0  0
  191.6820  172.5840  136.1950 O   0  0  0  0  0  0  0  0  0  0  0  0
  191.6500  172.4360  134.7830 C   0  0  0  0  0  1  0  0  0  0  0  0
  184.1810  179.1050  143.1650 C   0  0  0  0  0  3  0  0  0  0  0  0
  183.1970  178.9760  142.3270 N   0  0  0  0  0  0  0  0  0  0  0  0
  183.2530  178.2090  141.0920 C   0  0  0  0  0  2  0  0  0  0  0  0
  183.5200  179.1010  139.9800 N   0  0  0  0  0  1  0  0  0  0  0  0
  1 10  1  0  0  0  0
  2  3  1  0  0  0  0
  2 14  1  0  0  0  0
  3  9  1  0  0  0  0
  4  6  1  0  0  0  0
  5 19  1  1  0  0  0
  5  4  1  0  0  0  0
  5 11  1  0  0  0  0
  6 13  1  0  0  0  0
  7  1  2  0  0  0  0
  9 10  2  0  0  0  0
  9  8  1  0  0  0  0
 11 12  1  0  0  0  0
 12  7  1  0  0  0  0
 13  7  1  0  0  0  0
 13  3  2  0  0  0  0
 14 24  1  0  0  0  0
 14  8  2  0  0  0  0
 15 20  2  0  0  0  0
 15 16  1  0  0  0  0
 16 21  2  0  0  0  0
 17 19  2  0  0  0  0
 18 16  1  0  0  0  0
 20 17  1  0  0  0  0
 21 19  1  0  0  0  0
 22 15  1  0  0  0  0
 23 22  1  0  0  0  0
 25 24  2  0  0  0  0
 26 25  1  0  0  0  0
 27 26  1  0  0  0  0
M  END
>  <MODEL>
5

>  <REMARK>
 VINA RESULT:      -6.8      1.415      2.348
  Name = 
  4 active torsions:
  status: ('A' for Active; 'I' for Inactive)
    1  A    between atoms: C_3  and  C_26
    2  A    between atoms: O_6  and  C_7
    3  A    between atoms: C_8  and  C_15
    4  A    between atoms: C_17  and  N_20
                            x       y       z     vdW  Elec       q    Type
                         _______ _______ _______ _____ _____    ______ ____

>  <TORSDO>
F 4

$$$$
=
 OpenBabel10232411443D

 27 30  0  0  1  0  0  0  0  0999 V2000
  188.3460  178.2620  140.2650 C   0  0  0  0  0  3  0  0  0  0  0  0
  191.0440  175.6150  138.8140 O   0  0  0  0  0  0  0  0  0  0  0  0
  190.2920  176.5000  139.4120 C   0  0  0  0  0  0  0  0  0  0  0  0
  191.4730  176.5810  142.7910 C   0  0  0  0  0  2  0  0  0  0  0  0
  191.3370  177.8170  143.6880 C   0  0  1  0  0  3  0  0  0  0  0  0
  191.8010  176.9470  141.3520 C   0  0  0  0  0  2  0  0  0  0  0  0
  189.5330  178.1230  141.0190 C   0  0  0  0  0  0  0  0  0  0  0  0
  189.1680  175.8540  137.6130 N   0  0  0  0  0  0  0  0  0  0  0  0
  189.1490  176.6540  138.6910 C   0  0  0  0  0  0  0  0  0  0  0  0
  188.1390  177.5260  139.0840 C   0  0  0  0  0  3  0  0  0  0  0  0
  190.8940  179.0970  142.9690 C   0  0  0  0  0  2  0  0  0  0  0  0
  189.6610  178.9090  142.2130 N   0  0  0  0  0  2  0  0  0  0  0  0
  190.5370  177.2070  140.5900 C   0  0  0  0  0  0  0  0  0  0  0  0
  190.3690  175.2330  137.7410 C   0  0  0  0  0  0  0  0  0  0  0  0
  188.8940  176.9920  147.1400 C   0  0  0  0  0  0  0  0  0  0  0  0
  188.3130  177.4280  145.9370 C   0  0  0  0  0  0  0  0  0  0  0  0
  191.0870  177.0940  146.0950 C   0  0  0  0  0  3  0  0  0  0  0  0
  186.8390  177.6140  145.8250 C   0  0  0  0  0  1  0  0  0  0  0  0
  190.5030  177.5310  144.8980 C   0  0  0  0  0  0  0  0  0  0  0  0
  190.2870  176.8270  147.2080 C   0  0  0  0  0  3  0  0  0  0  0  0
  189.1170  177.6950  144.8250 C   0  0  0  0  0  3  0  0  0  0  0  0
  188.0790  176.7280  148.2480 O   0  0  0  0  0  0  0  0  0  0  0  0
  187.7450  177.7190  149.2100 C   0  0  0  0  0  1  0  0  0  0  0  0
  190.8460  174.2360  136.7660 C   0  0  0  0  0  3  0  0  0  0  0  0
  191.6610  174.4890  135.7860 N   0  0  0  0  0  0  0  0  0  0  0  0
  192.2330  175.7960  135.4990 C   0  0  0  0  0  2  0  0  0  0  0  0
  193.5520  175.8900  136.0940 N   0  0  0  0  0  1  0  0  0  0  0  0
  1  7  1  0  0  0  0
  2  3  1  0  0  0  0
  3 13  1  0  0  0  0
  4  5  1  0  0  0  0
  5 19  1  1  0  0  0
  6  4  1  0  0  0  0
  7 12  1  0  0  0  0
  8 14  2  0  0  0  0
  8  9  1  0  0  0  0
  9 10  1  0  0  0  0
  9  3  2  0  0  0  0
 10  1  2  0  0  0  0
 11  5  1  0  0  0  0
 12 11  1  0  0  0  0
 13  7  2  0  0  0  0
 13  6  1  0  0  0  0
 14  2  1  0  0  0  0
 15 20  1  0  0  0  0
 15 22  1  0  0  0  0
 16 15  2  0  0  0  0
 17 20  2  0  0  0  0
 18 16  1  0  0  0  0
 19 17  1  0  0  0  0
 21 19  2  0  0  0  0
 21 16  1  0  0  0  0
 22 23  1  0  0  0  0
 24 14  1  0  0  0  0
 25 24  2  0  0  0  0
 26 25  1  0  0  0  0
 26 27  1  0  0  0  0
M  END
>  <MODEL>
6

>  <REMARK>
 VINA RESULT:      -6.8      3.043      8.706
  Name = 
  4 active torsions:
  status: ('A' for Active; 'I' for Inactive)
    1  A    between atoms: C_3  and  C_26
    2  A    between atoms: O_6  and  C_7
    3  A    between atoms: C_8  and  C_15
    4  A    between atoms: C_17  and  N_20
                            x       y       z     vdW  Elec       q    Type
                         _______ _______ _______ _____ _____    ______ ____

>  <TORSDO>
F 4

$$$$
=
 OpenBabel10232411443D

 27 30  0  0  1  0  0  0  0  0999 V2000
  185.5920  178.2710  138.4210 C   0  0  0  0  0  3  0  0  0  0  0  0
  186.4000  175.1960  135.9150 O   0  0  0  0  0  0  0  0  0  0  0  0
  186.3160  176.2030  136.7430 C   0  0  0  0  0  0  0  0  0  0  0  0
  189.4040  176.1640  138.5560 C   0  0  0  0  0  2  0  0  0  0  0  0
  190.0160  177.4230  139.1770 C   0  0  1  0  0  3  0  0  0  0  0  0
  188.7590  176.4420  137.2070 C   0  0  0  0  0  2  0  0  0  0  0  0
  186.9610  177.9590  138.2570 C   0  0  0  0  0  0  0  0  0  0  0  0
  184.2330  175.7080  136.1650 N   0  0  0  0  0  0  0  0  0  0  0  0
  185.0040  176.5230  136.9030 C   0  0  0  0  0  0  0  0  0  0  0  0
  184.5920  177.5530  137.7420 C   0  0  0  0  0  3  0  0  0  0  0  0
  189.3560  178.7430  138.7590 C   0  0  0  0  0  2  0  0  0  0  0  0
  187.9160  178.7390  138.9910 N   0  0  0  0  0  2  0  0  0  0  0  0
  187.3410  176.8850  137.4000 C   0  0  0  0  0  0  0  0  0  0  0  0
  185.1550  174.9050  135.5720 C   0  0  0  0  0  0  0  0  0  0  0  0
  190.3260  177.0430  143.4580 C   0  0  0  0  0  0  0  0  0  0  0  0
  189.0920  176.8660  142.8090 C   0  0  0  0  0  0  0  0  0  0  0  0
  191.3730  177.4750  141.3070 C   0  0  0  0  0  3  0  0  0  0  0  0
  187.8620  176.5400  143.5840 C   0  0  0  0  0  1  0  0  0  0  0  0
  190.1400  177.3000  140.6640 C   0  0  0  0  0  0  0  0  0  0  0  0
  191.4650  177.3480  142.6950 C   0  0  0  0  0  3  0  0  0  0  0  0
  189.0050  176.9940  141.4200 C   0  0  0  0  0  3  0  0  0  0  0  0
  190.4020  176.9120  144.8500 O   0  0  0  0  0  0  0  0  0  0  0  0
  191.6050  176.5750  145.5270 C   0  0  0  0  0  1  0  0  0  0  0  0
  184.7740  173.8250  134.6450 C   0  0  0  0  0  3  0  0  0  0  0  0
  184.6460  172.5750  134.9760 N   0  0  0  0  0  0  0  0  0  0  0  0
  184.8580  172.0450  136.3140 C   0  0  0  0  0  2  0  0  0  0  0  0
  183.5770  171.8510  136.9670 N   0  0  0  0  0  1  0  0  0  0  0  0
  2  3  1  0  0  0  0
  3  9  2  0  0  0  0
  3 13  1  0  0  0  0
  4  5  1  0  0  0  0
  5 19  1  1  0  0  0
  6 13  1  0  0  0  0
  6  4  1  0  0  0  0
  7  1  1  0  0  0  0
  7 12  1  0  0  0  0
  8  9  1  0  0  0  0
  9 10  1  0  0  0  0
 10  1  2  0  0  0  0
 11 12  1  0  0  0  0
 11  5  1  0  0  0  0
 13  7  2  0  0  0  0
 14  2  1  0  0  0  0
 14  8  2  0  0  0  0
 15 22  1  0  0  0  0
 16 15  1  0  0  0  0
 16 18  1  0  0  0  0
 17 20  1  0  0  0  0
 19 17  2  0  0  0  0
 19 21  1  0  0  0  0
 20 15  2  0  0  0  0
 21 16  2  0  0  0  0
 22 23  1  0  0  0  0
 24 25  2  0  0  0  0
 24 14  1  0  0  0  0
 25 26  1  0  0  0  0
 26 27  1  0  0  0  0
M  END
>  <MODEL>
7

>  <REMARK>
 VINA RESULT:      -6.6      4.171      7.390
  Name = 
  4 active torsions:
  status: ('A' for Active; 'I' for Inactive)
    1  A    between atoms: C_3  and  C_26
    2  A    between atoms: O_6  and  C_7
    3  A    between atoms: C_8  and  C_15
    4  A    between atoms: C_17  and  N_20
                            x       y       z     vdW  Elec       q    Type
                         _______ _______ _______ _____ _____    ______ ____

>  <TORSDO>
F 4

$$$$
=
 OpenBabel10232411443D

 27 30  0  0  1  0  0  0  0  0999 V2000
  188.3010  178.0030  140.7860 C   0  0  0  0  0  3  0  0  0  0  0  0
  187.1020  177.8900  144.6500 O   0  0  0  0  0  0  0  0  0  0  0  0
  187.3250  177.9870  143.3670 C   0  0  0  0  0  0  0  0  0  0  0  0
  184.0800  177.8800  141.8570 C   0  0  0  0  0  2  0  0  0  0  0  0
  183.7730  178.5310  140.5040 C   0  0  1  0  0  3  0  0  0  0  0  0
  185.0330  178.7180  142.6960 C   0  0  0  0  0  2  0  0  0  0  0  0
  186.9640  178.3940  141.0230 C   0  0  0  0  0  0  0  0  0  0  0  0
  189.2260  177.2890  144.2700 N   0  0  0  0  0  0  0  0  0  0  0  0
  188.6130  177.6240  143.1240 C   0  0  0  0  0  0  0  0  0  0  0  0
  189.1460  177.6120  141.8390 C   0  0  0  0  0  3  0  0  0  0  0  0
  184.8750  179.4460  139.9570 C   0  0  0  0  0  2  0  0  0  0  0  0
  186.1690  178.7750  139.8900 N   0  0  0  0  0  2  0  0  0  0  0  0
  186.4500  178.3780  142.3520 C   0  0  0  0  0  0  0  0  0  0  0  0
  188.2390  177.4740  145.1840 C   0  0  0  0  0  0  0  0  0  0  0  0
  182.5240  175.6370  137.5660 C   0  0  0  0  0  0  0  0  0  0  0  0
  183.3150  176.7390  137.1970 C   0  0  0  0  0  0  0  0  0  0  0  0
  182.5390  176.4210  139.8670 C   0  0  0  0  0  3  0  0  0  0  0  0
  183.7430  176.9320  135.7830 C   0  0  0  0  0  1  0  0  0  0  0  0
  183.3260  177.5200  139.4950 C   0  0  0  0  0  0  0  0  0  0  0  0
  182.1410  175.4870  138.9090 C   0  0  0  0  0  3  0  0  0  0  0  0
  183.7110  177.6720  138.1600 C   0  0  0  0  0  3  0  0  0  0  0  0
  182.1320  174.7090  136.5930 O   0  0  0  0  0  0  0  0  0  0  0  0
  182.6840  173.4020  136.5100 C   0  0  0  0  0  1  0  0  0  0  0  0
  188.4460  177.2260  146.6230 C   0  0  0  0  0  3  0  0  0  0  0  0
  189.5970  176.9870  147.1750 N   0  0  0  0  0  0  0  0  0  0  0  0
  190.8640  176.9250  146.4620 C   0  0  0  0  0  2  0  0  0  0  0  0
  191.9210  176.5530  147.3830 N   0  0  0  0  0  1  0  0  0  0  0  0
  1  7  2  0  0  0  0
  1 10  1  0  0  0  0
  2 14  1  0  0  0  0
  3  2  1  0  0  0  0
  4  6  1  0  0  0  0
  5 19  1  6  0  0  0
  5  4  1  0  0  0  0
  7 13  1  0  0  0  0
  8 14  2  0  0  0  0
  9  3  1  0  0  0  0
  9  8  1  0  0  0  0
 10  9  2  0  0  0  0
 11  5  1  0  0  0  0
 12 11  1  0  0  0  0
 12  7  1  0  0  0  0
 13  6  1  0  0  0  0
 13  3  2  0  0  0  0
 14 24  1  0  0  0  0
 15 20  1  0  0  0  0
 16 15  2  0  0  0  0
 16 21  1  0  0  0  0
 18 16  1  0  0  0  0
 19 17  1  0  0  0  0
 20 17  2  0  0  0  0
 21 19  2  0  0  0  0
 22 15  1  0  0  0  0
 23 22  1  0  0  0  0
 24 25  2  0  0  0  0
 26 25  1  0  0  0  0
 26 27  1  0  0  0  0
M  END
>  <MODEL>
8

>  <REMARK>
 VINA RESULT:      -6.6      4.506      6.266
  Name = 
  4 active torsions:
  status: ('A' for Active; 'I' for Inactive)
    1  A    between atoms: C_3  and  C_26
    2  A    between atoms: O_6  and  C_7
    3  A    between atoms: C_8  and  C_15
    4  A    between atoms: C_17  and  N_20
                            x       y       z     vdW  Elec       q    Type
                         _______ _______ _______ _____ _____    ______ ____

>  <TORSDO>
F 4

$$$$
=
 OpenBabel10232411443D

 27 30  0  0  1  0  0  0  0  0999 V2000
  187.8370  175.6020  137.3800 C   0  0  0  0  0  3  0  0  0  0  0  0
  191.7400  174.5300  137.3820 O   0  0  0  0  0  0  0  0  0  0  0  0
  190.5310  175.0120  137.4850 C   0  0  0  0  0  0  0  0  0  0  0  0
  190.5750  176.9750  140.4790 C   0  0  0  0  0  2  0  0  0  0  0  0
  189.6380  178.1670  140.7030 C   0  0  1  0  0  3  0  0  0  0  0  0
  191.0660  176.8910  139.0420 C   0  0  0  0  0  2  0  0  0  0  0  0
  188.6970  176.4230  138.1460 C   0  0  0  0  0  0  0  0  0  0  0  0
  190.3760  173.2440  136.1550 N   0  0  0  0  0  0  0  0  0  0  0  0
  189.6930  174.2390  136.7430 C   0  0  0  0  0  0  0  0  0  0  0  0
  188.3280  174.4960  136.6650 C   0  0  0  0  0  3  0  0  0  0  0  0
  188.8570  178.6230  139.4650 C   0  0  0  0  0  2  0  0  0  0  0  0
  188.1130  177.5300  138.8470 N   0  0  0  0  0  2  0  0  0  0  0  0
  190.0870  176.1170  138.2120 C   0  0  0  0  0  0  0  0  0  0  0  0
  191.6430  173.4760  136.5870 C   0  0  0  0  0  0  0  0  0  0  0  0
  187.1140  177.5560  144.1410 C   0  0  0  0  0  0  0  0  0  0  0  0
  188.5080  177.4170  144.2410 C   0  0  0  0  0  0  0  0  0  0  0  0
  187.3560  178.0950  141.7820 C   0  0  0  0  0  3  0  0  0  0  0  0
  189.1490  177.0570  145.5370 C   0  0  0  0  0  1  0  0  0  0  0  0
  188.7460  177.9520  141.8860 C   0  0  0  0  0  0  0  0  0  0  0  0
  186.5450  177.8970  142.9020 C   0  0  0  0  0  3  0  0  0  0  0  0
  189.3160  177.6150  143.1170 C   0  0  0  0  0  3  0  0  0  0  0  0
  186.3140  177.3540  145.2730 O   0  0  0  0  0  0  0  0  0  0  0  0
  185.6580  178.4170  145.9510 C   0  0  0  0  0  1  0  0  0  0  0  0
  192.7750  172.6190  136.1920 C   0  0  0  0  0  3  0  0  0  0  0  0
  193.7820  173.0080  135.4690 N   0  0  0  0  0  0  0  0  0  0  0  0
  193.9500  174.3520  134.9350 C   0  0  0  0  0  2  0  0  0  0  0  0
  194.9790  175.0460  135.6860 N   0  0  0  0  0  1  0  0  0  0  0  0
  1  7  1  0  0  0  0
  2  3  1  0  0  0  0
  3 13  1  0  0  0  0
  4  5  1  0  0  0  0
  5 19  1  1  0  0  0
  6  4  1  0  0  0  0
  7 13  2  0  0  0  0
  7 12  1  0  0  0  0
  8 14  2  0  0  0  0
  8  9  1  0  0  0  0
  9  3  2  0  0  0  0
 10  9  1  0  0  0  0
 10  1  2  0  0  0  0
 11  5  1  0  0  0  0
 12 11  1  0  0  0  0
 13  6  1  0  0  0  0
 14  2  1  0  0  0  0
 15 16  1  0  0  0  0
 15 22  1  0  0  0  0
 16 18  1  0  0  0  0
 17 19  2  0  0  0  0
 17 20  1  0  0  0  0
 19 21  1  0  0  0  0
 20 15  2  0  0  0  0
 21 16  2  0  0  0  0
 22 23  1  0  0  0  0
 24 14  1  0  0  0  0
 25 24  2  0  0  0  0
 26 25  1  0  0  0  0
 26 27  1  0  0  0  0
M  END
>  <MODEL>
9

>  <REMARK>
 VINA RESULT:      -6.5      2.829      8.864
  Name = 
  4 active torsions:
  status: ('A' for Active; 'I' for Inactive)
    1  A    between atoms: C_3  and  C_26
    2  A    between atoms: O_6  and  C_7
    3  A    between atoms: C_8  and  C_15
    4  A    between atoms: C_17  and  N_20
                            x       y       z     vdW  Elec       q    Type
                         _______ _______ _______ _____ _____    ______ ____

>  <TORSDO>
F 4

$$$$
