=
 OpenBabel10232408393D

 28 30  0  0  1  0  0  0  0  0999 V2000
  188.7540  177.1090  145.2500 C   0  0  0  0  0  0  0  0  0  0  0  0
  188.1790  177.9250  147.4450 C   0  0  0  0  0  3  0  0  0  0  0  0
  187.0590  177.1430  143.4270 N   0  0  0  0  0  0  0  0  0  0  0  0
  183.9660  178.7710  144.4410 C   0  0  0  0  0  0  0  0  0  0  0  0
  187.8460  177.7870  146.0890 C   0  0  0  0  0  0  0  0  0  0  0  0
  185.6160  178.9880  146.1850 C   0  0  0  0  0  0  0  0  0  0  0  0
  184.3280  179.2440  145.5960 N   0  0  0  0  0  0  0  0  0  0  0  0
  184.8730  177.9800  143.6740 N   0  0  0  0  0  2  0  0  0  0  0  0
  185.8710  179.6000  147.5220 C   0  0  0  0  0  1  0  0  0  0  0  0
  189.3780  177.4180  147.9410 C   0  0  0  0  0  3  0  0  0  0  0  0
  188.4740  176.9460  143.7700 C   0  0  1  0  0  3  0  0  0  0  0  0
  191.4690  176.2260  147.5610 N   0  0  0  0  0  1  0  0  0  0  0  0
  186.1850  177.7410  144.1790 C   0  0  0  0  0  0  0  0  0  0  0  0
  190.2410  176.7550  147.0740 C   0  0  0  0  0  0  0  0  0  0  0  0
  189.9140  176.6140  145.7640 N   0  0  0  0  0  0  0  0  0  0  0  0
  182.6700  179.0580  143.9310 N   0  0  0  0  0  1  0  0  0  0  0  0
  186.5350  178.2290  145.5320 C   0  0  0  0  0  0  0  0  0  0  0  0
  190.4240  176.8080  142.2310 C   0  0  0  0  0  1  0  0  0  0  0  0
  189.4160  177.7670  142.8480 C   0  0  2  0  0  0  0  0  0  0  0  0
  192.0120  178.2840  143.6230 C   0  0  0  0  0  1  0  0  0  0  0  0
  190.3650  179.0370  143.7960 S   0  0  0  0  0  0  0  0  0  0  0  0
  188.5980  178.3950  141.7030 C   0  0  0  0  0  2  0  0  0  0  0  0
  188.7460  177.6800  140.3620 C   0  0  0  0  0  2  0  0  0  0  0  0
  188.8540  179.6220  137.2180 N   0  0  0  0  0  2  0  0  0  0  0  0
  189.0850  178.6230  138.0020 C   0  0  0  0  0  0  0  0  0  0  0  0
  188.4190  178.5840  139.2720 N   0  0  0  0  0  2  0  0  0  0  0  0
  189.8360  176.8990  136.3640 C   0  0  0  0  0  1  0  0  0  0  0  0
  189.9760  177.6310  137.5710 O   0  0  0  0  0  0  0  0  0  0  0  0
  1 15  2  0  0  0  0
  1  5  1  0  0  0  0
  2 10  1  0  0  0  0
  3 11  1  0  0  0  0
  3 13  2  0  0  0  0
  4  7  2  0  0  0  0
  5  2  2  0  0  0  0
  6  9  1  0  0  0  0
  7  6  1  0  0  0  0
  8 13  1  0  0  0  0
  8  4  1  0  0  0  0
 11 19  1  6  0  0  0
 11  1  1  0  0  0  0
 13 17  1  0  0  0  0
 14 12  1  0  0  0  0
 14 10  2  0  0  0  0
 15 14  1  0  0  0  0
 16  4  1  0  0  0  0
 17  5  1  0  0  0  0
 17  6  2  0  0  0  0
 19 18  1  6  0  0  0
 19 21  1  0  0  0  0
 20 21  1  0  0  0  0
 22 19  1  0  0  0  0
 23 22  1  0  0  0  0
 24 25  2  0  0  0  0
 25 26  1  0  0  0  0
 26 23  1  0  0  0  0
 27 28  1  0  0  0  0
 28 25  1  0  0  0  0
M  END
>  <MODEL>
1

>  <REMARK>
 VINA RESULT:      -8.8      0.000      0.000
  Name = 
  6 active torsions:
  status: ('A' for Active; 'I' for Inactive)
    1  A    between atoms: C_5  and  C_12
    2  A    between atoms: C_5  and  C_26
    3  A    between atoms: C_12  and  N_22
    4  A    between atoms: S_13  and  C_26
    5  A    between atoms: C_17  and  C_26
    6  A    between atoms: C_21  and  O_28
                            x       y       z     vdW  Elec       q    Type
                         _______ _______ _______ _____ _____    ______ ____

>  <TORSDO>
F 6

$$$$
=
 OpenBabel10232408393D

 28 30  0  0  1  0  0  0  0  0999 V2000
  189.0630  177.0680  144.8920 C   0  0  0  0  0  0  0  0  0  0  0  0
  188.6760  177.8060  147.1550 C   0  0  0  0  0  3  0  0  0  0  0  0
  187.2040  177.1010  143.2390 N   0  0  0  0  0  0  0  0  0  0  0  0
  184.1760  178.6070  144.5870 C   0  0  0  0  0  0  0  0  0  0  0  0
  188.2210  177.6950  145.8330 C   0  0  0  0  0  0  0  0  0  0  0  0
  185.9770  178.8250  146.1740 C   0  0  0  0  0  0  0  0  0  0  0  0
  184.6330  179.0580  145.7160 N   0  0  0  0  0  0  0  0  0  0  0  0
  185.0280  177.8640  143.7150 N   0  0  0  0  0  2  0  0  0  0  0  0
  186.3410  179.4070  147.4990 C   0  0  0  0  0  1  0  0  0  0  0  0
  189.9300  177.3230  147.5210 C   0  0  0  0  0  3  0  0  0  0  0  0
  188.6490  176.9380  143.4410 C   0  0  1  0  0  3  0  0  0  0  0  0
  192.0080  176.2050  146.9110 N   0  0  0  0  0  1  0  0  0  0  0  0
  186.3880  177.6520  144.0870 C   0  0  0  0  0  0  0  0  0  0  0  0
  190.7260  176.7090  146.5580 C   0  0  0  0  0  0  0  0  0  0  0  0
  190.2800  176.5950  145.2810 N   0  0  0  0  0  0  0  0  0  0  0  0
  182.8310  178.8680  144.2100 N   0  0  0  0  0  1  0  0  0  0  0  0
  186.8510  178.1130  145.4150 C   0  0  0  0  0  0  0  0  0  0  0  0
  190.3290  178.7670  143.2840 C   0  0  0  0  0  1  0  0  0  0  0  0
  189.4770  177.8120  142.4600 C   0  0  2  0  0  0  0  0  0  0  0  0
  188.2250  177.6410  140.0080 C   0  0  0  0  0  1  0  0  0  0  0  0
  188.3900  178.8350  141.3710 S   0  0  0  0  0  0  0  0  0  0  0  0
  190.4270  176.9130  141.6440 C   0  0  0  0  0  2  0  0  0  0  0  0
  191.5010  177.6750  140.8730 C   0  0  0  0  0  2  0  0  0  0  0  0
  192.2660  175.5530  137.9430 N   0  0  0  0  0  2  0  0  0  0  0  0
  191.7230  176.5290  138.5890 C   0  0  0  0  0  0  0  0  0  0  0  0
  192.1640  176.7910  139.9290 N   0  0  0  0  0  2  0  0  0  0  0  0
  190.0470  176.8700  136.7730 C   0  0  0  0  0  1  0  0  0  0  0  0
  190.7290  177.2820  137.9480 O   0  0  0  0  0  0  0  0  0  0  0  0
  1 15  2  0  0  0  0
  1  5  1  0  0  0  0
  2 10  1  0  0  0  0
  3 11  1  0  0  0  0
  3 13  2  0  0  0  0
  4  7  2  0  0  0  0
  5  2  2  0  0  0  0
  6  9  1  0  0  0  0
  7  6  1  0  0  0  0
  8 13  1  0  0  0  0
  8  4  1  0  0  0  0
 11 19  1  6  0  0  0
 11  1  1  0  0  0  0
 13 17  1  0  0  0  0
 14 12  1  0  0  0  0
 14 10  2  0  0  0  0
 15 14  1  0  0  0  0
 16  4  1  0  0  0  0
 17  5  1  0  0  0  0
 17  6  2  0  0  0  0
 19 18  1  1  0  0  0
 20 21  1  0  0  0  0
 21 19  1  0  0  0  0
 22 19  1  0  0  0  0
 23 22  1  0  0  0  0
 24 25  2  0  0  0  0
 25 26  1  0  0  0  0
 26 23  1  0  0  0  0
 27 28  1  0  0  0  0
 28 25  1  0  0  0  0
M  END
>  <MODEL>
2

>  <REMARK>
 VINA RESULT:      -7.7      1.622      2.065
  Name = 
  6 active torsions:
  status: ('A' for Active; 'I' for Inactive)
    1  A    between atoms: C_5  and  C_12
    2  A    between atoms: C_5  and  C_26
    3  A    between atoms: C_12  and  N_22
    4  A    between atoms: S_13  and  C_26
    5  A    between atoms: C_17  and  C_26
    6  A    between atoms: C_21  and  O_28
                            x       y       z     vdW  Elec       q    Type
                         _______ _______ _______ _____ _____    ______ ____

>  <TORSDO>
F 6

$$$$
=
 OpenBabel10232408393D

 28 30  0  0  1  0  0  0  0  0999 V2000
  190.5020  177.7160  140.4910 C   0  0  0  0  0  0  0  0  0  0  0  0
  190.8450  176.6390  138.3610 C   0  0  0  0  0  3  0  0  0  0  0  0
  188.2870  178.7090  141.0400 N   0  0  0  0  0  0  0  0  0  0  0  0
  185.7950  178.0440  138.4720 C   0  0  0  0  0  0  0  0  0  0  0  0
  189.9630  177.2070  139.2920 C   0  0  0  0  0  0  0  0  0  0  0  0
  187.8310  176.8580  137.9640 C   0  0  0  0  0  0  0  0  0  0  0  0
  186.4560  177.2100  137.7270 N   0  0  0  0  0  0  0  0  0  0  0  0
  186.4180  178.6380  139.6100 N   0  0  0  0  0  2  0  0  0  0  0  0
  188.4460  175.8900  137.0100 C   0  0  0  0  0  1  0  0  0  0  0  0
  192.2110  176.5670  138.6240 C   0  0  0  0  0  3  0  0  0  0  0  0
  189.6070  178.3190  141.5540 C   0  0  1  0  0  3  0  0  0  0  0  0
  194.0890  177.0250  140.1070 N   0  0  0  0  0  1  0  0  0  0  0  0
  187.7620  178.2820  139.9310 C   0  0  0  0  0  0  0  0  0  0  0  0
  192.6970  177.0840  139.8210 C   0  0  0  0  0  0  0  0  0  0  0  0
  191.8430  177.6420  140.7160 N   0  0  0  0  0  0  0  0  0  0  0  0
  184.4410  178.3520  138.1640 N   0  0  0  0  0  1  0  0  0  0  0  0
  188.5080  177.3910  139.0160 C   0  0  0  0  0  0  0  0  0  0  0  0
  190.2580  178.2070  143.9520 C   0  0  0  0  0  1  0  0  0  0  0  0
  189.5010  177.4760  142.8530 C   0  0  2  0  0  0  0  0  0  0  0  0
  191.5680  175.9970  143.9240 C   0  0  0  0  0  1  0  0  0  0  0  0
  190.2770  175.8120  142.6540 S   0  0  0  0  0  0  0  0  0  0  0  0
  188.0240  177.3750  143.2830 C   0  0  0  0  0  2  0  0  0  0  0  0
  187.8210  177.1510  144.7790 C   0  0  0  0  0  2  0  0  0  0  0  0
  185.5570  179.0380  147.0110 N   0  0  0  0  0  2  0  0  0  0  0  0
  186.5660  178.2960  146.7000 C   0  0  0  0  0  0  0  0  0  0  0  0
  186.8890  178.1310  145.3120 N   0  0  0  0  0  2  0  0  0  0  0  0
  188.4670  178.2400  148.3140 C   0  0  0  0  0  1  0  0  0  0  0  0
  187.2930  177.6920  147.7350 O   0  0  0  0  0  0  0  0  0  0  0  0
  1 15  1  0  0  0  0
  1 11  1  0  0  0  0
  2 10  2  0  0  0  0
  2  5  1  0  0  0  0
  3 11  1  0  0  0  0
  4  8  1  0  0  0  0
  5  1  2  0  0  0  0
  6 17  2  0  0  0  0
  7  6  1  0  0  0  0
  7  4  2  0  0  0  0
  8 13  1  0  0  0  0
  9  6  1  0  0  0  0
 10 14  1  0  0  0  0
 11 19  1  1  0  0  0
 13  3  2  0  0  0  0
 14 12  1  0  0  0  0
 14 15  2  0  0  0  0
 16  4  1  0  0  0  0
 17  5  1  0  0  0  0
 17 13  1  0  0  0  0
 19 22  1  0  0  0  0
 19 18  1  1  0  0  0
 21 19  1  0  0  0  0
 21 20  1  0  0  0  0
 22 23  1  0  0  0  0
 23 26  1  0  0  0  0
 25 24  2  0  0  0  0
 25 28  1  0  0  0  0
 26 25  1  0  0  0  0
 28 27  1  0  0  0  0
M  END
>  <MODEL>
3

>  <REMARK>
 VINA RESULT:      -7.4      3.167      7.091
  Name = 
  6 active torsions:
  status: ('A' for Active; 'I' for Inactive)
    1  A    between atoms: C_5  and  C_12
    2  A    between atoms: C_5  and  C_26
    3  A    between atoms: C_12  and  N_22
    4  A    between atoms: S_13  and  C_26
    5  A    between atoms: C_17  and  C_26
    6  A    between atoms: C_21  and  O_28
                            x       y       z     vdW  Elec       q    Type
                         _______ _______ _______ _____ _____    ______ ____

>  <TORSDO>
F 6

$$$$
=
 OpenBabel10232408393D

 28 30  0  0  1  0  0  0  0  0999 V2000
  189.1780  178.2480  142.2940 C   0  0  0  0  0  0  0  0  0  0  0  0
  191.0490  177.1950  141.1950 C   0  0  0  0  0  3  0  0  0  0  0  0
  187.1500  178.8550  140.9870 N   0  0  0  0  0  0  0  0  0  0  0  0
  187.3280  177.7070  137.5380 C   0  0  0  0  0  0  0  0  0  0  0  0
  189.7150  177.6250  141.1480 C   0  0  0  0  0  0  0  0  0  0  0  0
  189.2230  176.8800  138.7760 C   0  0  0  0  0  0  0  0  0  0  0  0
  188.4040  176.9830  137.5960 N   0  0  0  0  0  0  0  0  0  0  0  0
  186.8850  178.4280  138.6870 N   0  0  0  0  0  2  0  0  0  0  0  0
  190.4320  176.0100  138.6750 C   0  0  0  0  0  1  0  0  0  0  0  0
  191.8150  177.3670  142.3460 C   0  0  0  0  0  3  0  0  0  0  0  0
  187.7370  178.7130  142.3260 C   0  0  1  0  0  3  0  0  0  0  0  0
  192.0080  178.1800  144.6350 N   0  0  0  0  0  1  0  0  0  0  0  0
  187.6220  178.3170  139.9030 C   0  0  0  0  0  0  0  0  0  0  0  0
  191.2420  177.9900  143.4520 C   0  0  0  0  0  0  0  0  0  0  0  0
  189.9540  178.4130  143.4020 N   0  0  0  0  0  0  0  0  0  0  0  0
  186.5780  177.7680  136.3310 N   0  0  0  0  0  1  0  0  0  0  0  0
  188.8850  177.5470  139.9110 C   0  0  0  0  0  0  0  0  0  0  0  0
  187.3510  176.4690  143.3280 C   0  0  0  0  0  1  0  0  0  0  0  0
  186.8240  177.8960  143.2790 C   0  0  2  0  0  0  0  0  0  0  0  0
  184.4710  179.3180  143.5040 C   0  0  0  0  0  1  0  0  0  0  0  0
  185.0830  177.8240  142.6640 S   0  0  0  0  0  0  0  0  0  0  0  0
  186.9080  178.4810  144.7020 C   0  0  0  0  0  2  0  0  0  0  0  0
  186.6830  177.4590  145.8140 C   0  0  0  0  0  2  0  0  0  0  0  0
  188.7220  178.0950  148.8320 N   0  0  0  0  0  2  0  0  0  0  0  0
  188.4940  177.7820  147.6010 C   0  0  0  0  0  0  0  0  0  0  0  0
  187.1720  177.9790  147.0800 N   0  0  0  0  0  2  0  0  0  0  0  0
  190.6740  176.5900  147.3810 C   0  0  0  0  0  1  0  0  0  0  0  0
  189.5500  177.2650  146.8380 O   0  0  0  0  0  0  0  0  0  0  0  0
  1 11  1  0  0  0  0
  1 15  1  0  0  0  0
  2 10  2  0  0  0  0
  3 11  1  0  0  0  0
  4  7  2  0  0  0  0
  4  8  1  0  0  0  0
  5  2  1  0  0  0  0
  5  1  2  0  0  0  0
  6 17  2  0  0  0  0
  7  6  1  0  0  0  0
  8 13  1  0  0  0  0
  9  6  1  0  0  0  0
 10 14  1  0  0  0  0
 11 19  1  1  0  0  0
 13 17  1  0  0  0  0
 13  3  2  0  0  0  0
 14 12  1  0  0  0  0
 15 14  2  0  0  0  0
 16  4  1  0  0  0  0
 17  5  1  0  0  0  0
 19 18  1  1  0  0  0
 19 22  1  0  0  0  0
 21 19  1  0  0  0  0
 21 20  1  0  0  0  0
 22 23  1  0  0  0  0
 23 26  1  0  0  0  0
 25 24  2  0  0  0  0
 26 25  1  0  0  0  0
 28 27  1  0  0  0  0
 28 25  1  0  0  0  0
M  END
>  <MODEL>
4

>  <REMARK>
 VINA RESULT:      -7.2      2.980      6.869
  Name = 
  6 active torsions:
  status: ('A' for Active; 'I' for Inactive)
    1  A    between atoms: C_5  and  C_12
    2  A    between atoms: C_5  and  C_26
    3  A    between atoms: C_12  and  N_22
    4  A    between atoms: S_13  and  C_26
    5  A    between atoms: C_17  and  C_26
    6  A    between atoms: C_21  and  O_28
                            x       y       z     vdW  Elec       q    Type
                         _______ _______ _______ _____ _____    ______ ____

>  <TORSDO>
F 6

$$$$
=
 OpenBabel10232408393D

 28 30  0  0  1  0  0  0  0  0999 V2000
  190.5450  177.6220  140.6400 C   0  0  0  0  0  0  0  0  0  0  0  0
  190.8540  176.8710  138.3690 C   0  0  0  0  0  3  0  0  0  0  0  0
  188.3440  178.5370  141.3580 N   0  0  0  0  0  0  0  0  0  0  0  0
  185.8180  178.2770  138.7510 C   0  0  0  0  0  0  0  0  0  0  0  0
  189.9880  177.3010  139.3850 C   0  0  0  0  0  0  0  0  0  0  0  0
  187.8390  177.1670  138.0480 C   0  0  0  0  0  0  0  0  0  0  0  0
  186.4640  177.5590  137.8820 N   0  0  0  0  0  0  0  0  0  0  0  0
  186.4590  178.6920  139.9570 N   0  0  0  0  0  2  0  0  0  0  0  0
  188.4350  176.3470  136.9520 C   0  0  0  0  0  1  0  0  0  0  0  0
  192.2230  176.7520  138.6010 C   0  0  0  0  0  3  0  0  0  0  0  0
  189.6670  178.0670  141.7920 C   0  0  1  0  0  3  0  0  0  0  0  0
  194.1220  176.9730  140.1130 N   0  0  0  0  0  1  0  0  0  0  0  0
  187.8030  178.2830  140.2040 C   0  0  0  0  0  0  0  0  0  0  0  0
  192.7270  177.0830  139.8560 C   0  0  0  0  0  0  0  0  0  0  0  0
  191.8880  177.5070  140.8350 N   0  0  0  0  0  0  0  0  0  0  0  0
  184.4640  178.6360  138.5090 N   0  0  0  0  0  1  0  0  0  0  0  0
  188.5320  177.5330  139.1580 C   0  0  0  0  0  0  0  0  0  0  0  0
  190.1510  175.7220  142.4660 C   0  0  0  0  0  1  0  0  0  0  0  0
  189.5680  177.0410  142.9520 C   0  0  2  0  0  0  0  0  0  0  0  0
  187.7200  177.9470  144.7890 C   0  0  0  0  0  1  0  0  0  0  0  0
  187.8150  176.7270  143.4420 S   0  0  0  0  0  0  0  0  0  0  0  0
  190.4200  177.5250  144.1420 C   0  0  0  0  0  2  0  0  0  0  0  0
  191.4100  176.4880  144.6670 C   0  0  0  0  0  2  0  0  0  0  0  0
  191.4950  177.4760  148.2290 N   0  0  0  0  0  2  0  0  0  0  0  0
  191.0220  176.9190  147.1650 C   0  0  0  0  0  0  0  0  0  0  0  0
  191.8580  176.8510  146.0020 N   0  0  0  0  0  2  0  0  0  0  0  0
  188.6620  176.9690  147.9700 C   0  0  0  0  0  1  0  0  0  0  0  0
  189.7170  176.4090  147.2040 O   0  0  0  0  0  0  0  0  0  0  0  0
  1 15  1  0  0  0  0
  1 11  1  0  0  0  0
  2 10  2  0  0  0  0
  2  5  1  0  0  0  0
  3 11  1  0  0  0  0
  4  8  1  0  0  0  0
  5  1  2  0  0  0  0
  6 17  2  0  0  0  0
  7  6  1  0  0  0  0
  7  4  2  0  0  0  0
  8 13  1  0  0  0  0
  9  6  1  0  0  0  0
 10 14  1  0  0  0  0
 11 19  1  1  0  0  0
 13  3  2  0  0  0  0
 14 12  1  0  0  0  0
 14 15  2  0  0  0  0
 16  4  1  0  0  0  0
 17  5  1  0  0  0  0
 17 13  1  0  0  0  0
 19 18  1  6  0  0  0
 19 21  1  0  0  0  0
 19 22  1  0  0  0  0
 21 20  1  0  0  0  0
 22 23  1  0  0  0  0
 23 26  1  0  0  0  0
 25 28  1  0  0  0  0
 25 24  2  0  0  0  0
 26 25  1  0  0  0  0
 28 27  1  0  0  0  0
M  END
>  <MODEL>
5

>  <REMARK>
 VINA RESULT:      -7.2      3.156      7.147
  Name = 
  6 active torsions:
  status: ('A' for Active; 'I' for Inactive)
    1  A    between atoms: C_5  and  C_12
    2  A    between atoms: C_5  and  C_26
    3  A    between atoms: C_12  and  N_22
    4  A    between atoms: S_13  and  C_26
    5  A    between atoms: C_17  and  C_26
    6  A    between atoms: C_21  and  O_28
                            x       y       z     vdW  Elec       q    Type
                         _______ _______ _______ _____ _____    ______ ____

>  <TORSDO>
F 6

$$$$
=
 OpenBabel10232408393D

 28 30  0  0  1  0  0  0  0  0999 V2000
  187.6750  178.3160  142.5670 C   0  0  0  0  0  0  0  0  0  0  0  0
  185.3740  178.3970  143.2860 C   0  0  0  0  0  3  0  0  0  0  0  0
  189.5030  178.2600  144.2540 N   0  0  0  0  0  0  0  0  0  0  0  0
  188.2400  178.0160  147.6590 C   0  0  0  0  0  0  0  0  0  0  0  0
  186.7280  178.2230  143.6080 C   0  0  0  0  0  0  0  0  0  0  0  0
  186.4170  177.8360  146.0930 C   0  0  0  0  0  0  0  0  0  0  0  0
  186.9790  177.8190  147.4180 N   0  0  0  0  0  0  0  0  0  0  0  0
  189.1510  178.2340  146.5810 N   0  0  0  0  0  2  0  0  0  0  0  0
  184.9470  177.5980  145.9900 C   0  0  0  0  0  1  0  0  0  0  0  0
  184.9790  178.6410  141.9720 C   0  0  0  0  0  3  0  0  0  0  0  0
  189.1520  178.1120  142.8360 C   0  0  1  0  0  3  0  0  0  0  0  0
  185.5670  178.9790  139.6320 N   0  0  0  0  0  1  0  0  0  0  0  0
  188.6620  178.2030  145.2420 C   0  0  0  0  0  0  0  0  0  0  0  0
  185.9500  178.7260  140.9780 C   0  0  0  0  0  0  0  0  0  0  0  0
  187.2600  178.5660  141.2940 N   0  0  0  0  0  0  0  0  0  0  0  0
  188.7190  177.9970  148.9980 N   0  0  0  0  0  1  0  0  0  0  0  0
  187.2080  178.0540  145.0100 C   0  0  0  0  0  0  0  0  0  0  0  0
  189.1960  175.6310  143.0150 C   0  0  0  0  0  1  0  0  0  0  0  0
  189.7380  176.8120  142.2220 C   0  0  2  0  0  0  0  0  0  0  0  0
  191.6960  175.6760  143.7990 C   0  0  0  0  0  1  0  0  0  0  0  0
  191.5810  176.7670  142.3470 S   0  0  0  0  0  0  0  0  0  0  0  0
  189.2560  176.6650  140.7660 C   0  0  0  0  0  2  0  0  0  0  0  0
  190.2940  177.0620  139.7200 C   0  0  0  0  0  2  0  0  0  0  0  0
  188.8080  179.4870  137.3570 N   0  0  0  0  0  2  0  0  0  0  0  0
  188.9000  178.3840  138.0210 C   0  0  0  0  0  0  0  0  0  0  0  0
  189.8920  178.2900  139.0530 N   0  0  0  0  0  2  0  0  0  0  0  0
  187.9960  176.6780  136.4420 C   0  0  0  0  0  1  0  0  0  0  0  0
  188.0260  177.3370  137.6990 O   0  0  0  0  0  0  0  0  0  0  0  0
  1 11  1  0  0  0  0
  1  5  1  0  0  0  0
  2  5  2  0  0  0  0
  3 13  2  0  0  0  0
  4 16  1  0  0  0  0
  5 17  1  0  0  0  0
  6  7  1  0  0  0  0
  7  4  2  0  0  0  0
  8  4  1  0  0  0  0
  9  6  1  0  0  0  0
 10  2  1  0  0  0  0
 11 19  1  1  0  0  0
 11  3  1  0  0  0  0
 12 14  1  0  0  0  0
 13  8  1  0  0  0  0
 14 15  1  0  0  0  0
 14 10  2  0  0  0  0
 15  1  2  0  0  0  0
 17 13  1  0  0  0  0
 17  6  2  0  0  0  0
 19 21  1  0  0  0  0
 19 18  1  1  0  0  0
 21 20  1  0  0  0  0
 22 19  1  0  0  0  0
 23 22  1  0  0  0  0
 24 25  2  0  0  0  0
 25 26  1  0  0  0  0
 26 23  1  0  0  0  0
 27 28  1  0  0  0  0
 28 25  1  0  0  0  0
M  END
>  <MODEL>
6

>  <REMARK>
 VINA RESULT:      -7.0      2.125      4.194
  Name = 
  6 active torsions:
  status: ('A' for Active; 'I' for Inactive)
    1  A    between atoms: C_5  and  C_12
    2  A    between atoms: C_5  and  C_26
    3  A    between atoms: C_12  and  N_22
    4  A    between atoms: S_13  and  C_26
    5  A    between atoms: C_17  and  C_26
    6  A    between atoms: C_21  and  O_28
                            x       y       z     vdW  Elec       q    Type
                         _______ _______ _______ _____ _____    ______ ____

>  <TORSDO>
F 6

$$$$
=
 OpenBabel10232408393D

 28 30  0  0  1  0  0  0  0  0999 V2000
  188.1060  177.4030  142.0010 C   0  0  0  0  0  0  0  0  0  0  0  0
  186.8940  178.6720  140.3470 C   0  0  0  0  0  3  0  0  0  0  0  0
  190.1150  176.0930  141.3370 N   0  0  0  0  0  0  0  0  0  0  0  0
  191.0230  176.6200  137.8520 C   0  0  0  0  0  0  0  0  0  0  0  0
  188.0300  177.9260  140.6940 C   0  0  0  0  0  0  0  0  0  0  0  0
  189.2150  178.0940  138.4600 C   0  0  0  0  0  0  0  0  0  0  0  0
  190.2090  177.5860  137.5500 N   0  0  0  0  0  0  0  0  0  0  0  0
  190.9840  176.0280  139.1500 N   0  0  0  0  0  2  0  0  0  0  0  0
  188.3540  179.2020  137.9540 C   0  0  0  0  0  1  0  0  0  0  0  0
  185.8800  178.9000  141.2740 C   0  0  0  0  0  3  0  0  0  0  0  0
  189.3150  176.6110  142.4550 C   0  0  1  0  0  3  0  0  0  0  0  0
  184.9710  178.5790  143.5120 N   0  0  0  0  0  1  0  0  0  0  0  0
  190.0610  176.5300  140.1150 C   0  0  0  0  0  0  0  0  0  0  0  0
  185.9980  178.3620  142.5520 C   0  0  0  0  0  0  0  0  0  0  0  0
  187.0940  177.6330  142.8830 N   0  0  0  0  0  0  0  0  0  0  0  0
  191.9690  176.1630  136.8940 N   0  0  0  0  0  1  0  0  0  0  0  0
  189.0960  177.5760  139.7100 C   0  0  0  0  0  0  0  0  0  0  0  0
  190.0450  178.8340  143.3000 C   0  0  0  0  0  1  0  0  0  0  0  0
  190.1910  177.3340  143.5130 C   0  0  2  0  0  0  0  0  0  0  0  0
  191.9820  175.3960  144.3200 C   0  0  0  0  0  1  0  0  0  0  0  0
  191.9810  176.9170  143.3200 S   0  0  0  0  0  0  0  0  0  0  0  0
  189.6720  177.0030  144.9260 C   0  0  0  0  0  2  0  0  0  0  0  0
  189.8750  178.1200  145.9450 C   0  0  0  0  0  2  0  0  0  0  0  0
  187.7300  177.6020  148.9120 N   0  0  0  0  0  2  0  0  0  0  0  0
  188.0020  177.7750  147.6620 C   0  0  0  0  0  0  0  0  0  0  0  0
  189.3730  177.7110  147.2470 N   0  0  0  0  0  2  0  0  0  0  0  0
  185.7940  178.7880  147.0960 C   0  0  0  0  0  1  0  0  0  0  0  0
  186.9420  178.0160  146.7780 O   0  0  0  0  0  0  0  0  0  0  0  0
  1 11  1  0  0  0  0
  1 15  1  0  0  0  0
  2  5  1  0  0  0  0
  2 10  2  0  0  0  0
  3 11  1  0  0  0  0
  4  8  1  0  0  0  0
  5  1  2  0  0  0  0
  6 17  2  0  0  0  0
  7  4  2  0  0  0  0
  7  6  1  0  0  0  0
  8 13  1  0  0  0  0
  9  6  1  0  0  0  0
 10 14  1  0  0  0  0
 11 19  1  1  0  0  0
 13  3  2  0  0  0  0
 14 15  2  0  0  0  0
 14 12  1  0  0  0  0
 16  4  1  0  0  0  0
 17 13  1  0  0  0  0
 17  5  1  0  0  0  0
 19 18  1  6  0  0  0
 19 22  1  0  0  0  0
 21 19  1  0  0  0  0
 21 20  1  0  0  0  0
 22 23  1  0  0  0  0
 23 26  1  0  0  0  0
 25 24  2  0  0  0  0
 26 25  1  0  0  0  0
 28 27  1  0  0  0  0
 28 25  1  0  0  0  0
M  END
>  <MODEL>
7

>  <REMARK>
 VINA RESULT:      -6.6      2.802      7.424
  Name = 
  6 active torsions:
  status: ('A' for Active; 'I' for Inactive)
    1  A    between atoms: C_5  and  C_12
    2  A    between atoms: C_5  and  C_26
    3  A    between atoms: C_12  and  N_22
    4  A    between atoms: S_13  and  C_26
    5  A    between atoms: C_17  and  C_26
    6  A    between atoms: C_21  and  O_28
                            x       y       z     vdW  Elec       q    Type
                         _______ _______ _______ _____ _____    ______ ____

>  <TORSDO>
F 6

$$$$
=
 OpenBabel10232408393D

 28 30  0  0  1  0  0  0  0  0999 V2000
  183.9320  178.9610  141.6250 C   0  0  0  0  0  0  0  0  0  0  0  0
  183.9520  178.4140  143.9740 C   0  0  0  0  0  3  0  0  0  0  0  0
  186.0720  179.0980  140.3620 N   0  0  0  0  0  0  0  0  0  0  0  0
  188.9380  178.1130  142.3790 C   0  0  0  0  0  0  0  0  0  0  0  0
  184.6440  178.5140  142.7570 C   0  0  0  0  0  0  0  0  0  0  0  0
  186.9000  177.7330  143.6090 C   0  0  0  0  0  0  0  0  0  0  0  0
  188.3270  177.6660  143.4350 N   0  0  0  0  0  0  0  0  0  0  0  0
  188.1890  178.6780  141.3030 N   0  0  0  0  0  2  0  0  0  0  0  0
  186.3570  177.1800  144.8840 C   0  0  0  0  0  1  0  0  0  0  0  0
  182.6000  178.7350  144.0540 C   0  0  0  0  0  3  0  0  0  0  0  0
  184.6070  179.0670  140.2730 C   0  0  1  0  0  3  0  0  0  0  0  0
  180.5590  179.5130  142.9710 N   0  0  0  0  0  1  0  0  0  0  0  0
  186.7660  178.7170  141.3920 C   0  0  0  0  0  0  0  0  0  0  0  0
  181.9400  179.1750  142.9100 C   0  0  0  0  0  0  0  0  0  0  0  0
  182.6130  179.2790  141.7360 N   0  0  0  0  0  0  0  0  0  0  0  0
  190.3540  178.0240  142.2860 N   0  0  0  0  0  1  0  0  0  0  0  0
  186.1110  178.2710  142.6420 C   0  0  0  0  0  0  0  0  0  0  0  0
  183.3310  178.7810  138.1560 C   0  0  0  0  0  1  0  0  0  0  0  0
  184.1090  178.0320  139.2290 C   0  0  2  0  0  0  0  0  0  0  0  0
  182.7860  175.7140  138.5300 C   0  0  0  0  0  1  0  0  0  0  0  0
  182.9630  176.7950  139.9840 S   0  0  0  0  0  0  0  0  0  0  0  0
  185.3190  177.3580  138.5530 C   0  0  0  0  0  2  0  0  0  0  0  0
  185.6210  177.8760  137.1490 C   0  0  0  0  0  2  0  0  0  0  0  0
  188.9800  179.3370  137.6480 N   0  0  0  0  0  2  0  0  0  0  0  0
  188.1160  178.4090  137.4130 C   0  0  0  0  0  0  0  0  0  0  0  0
  186.7520  178.7890  137.1820 N   0  0  0  0  0  2  0  0  0  0  0  0
  189.8940  176.6750  137.6350 C   0  0  0  0  0  1  0  0  0  0  0  0
  188.5550  177.0780  137.3950 O   0  0  0  0  0  0  0  0  0  0  0  0
  1 15  2  0  0  0  0
  1  5  1  0  0  0  0
  2 10  1  0  0  0  0
  3 13  2  0  0  0  0
  4  7  2  0  0  0  0
  5  2  2  0  0  0  0
  6  9  1  0  0  0  0
  7  6  1  0  0  0  0
  8 13  1  0  0  0  0
  8  4  1  0  0  0  0
 11 19  1  6  0  0  0
 11  3  1  0  0  0  0
 11  1  1  0  0  0  0
 13 17  1  0  0  0  0
 14 12  1  0  0  0  0
 14 10  2  0  0  0  0
 15 14  1  0  0  0  0
 16  4  1  0  0  0  0
 17  5  1  0  0  0  0
 17  6  2  0  0  0  0
 19 18  1  6  0  0  0
 19 21  1  0  0  0  0
 20 21  1  0  0  0  0
 22 19  1  0  0  0  0
 23 26  1  0  0  0  0
 23 22  1  0  0  0  0
 25 24  2  0  0  0  0
 26 25  1  0  0  0  0
 28 25  1  0  0  0  0
 28 27  1  0  0  0  0
M  END
>  <MODEL>
8

>  <REMARK>
 VINA RESULT:      -6.5      3.248      6.130
  Name = 
  6 active torsions:
  status: ('A' for Active; 'I' for Inactive)
    1  A    between atoms: C_5  and  C_12
    2  A    between atoms: C_5  and  C_26
    3  A    between atoms: C_12  and  N_22
    4  A    between atoms: S_13  and  C_26
    5  A    between atoms: C_17  and  C_26
    6  A    between atoms: C_21  and  O_28
                            x       y       z     vdW  Elec       q    Type
                         _______ _______ _______ _____ _____    ______ ____

>  <TORSDO>
F 6

$$$$
=
 OpenBabel10232408393D

 28 30  0  0  1  0  0  0  0  0999 V2000
  183.4980  178.8930  141.3330 C   0  0  0  0  0  0  0  0  0  0  0  0
  183.8690  178.5120  143.6850 C   0  0  0  0  0  3  0  0  0  0  0  0
  185.4270  178.9340  139.7610 N   0  0  0  0  0  0  0  0  0  0  0  0
  188.5650  178.0840  141.3950 C   0  0  0  0  0  0  0  0  0  0  0  0
  184.3720  178.5240  142.3760 C   0  0  0  0  0  0  0  0  0  0  0  0
  186.7350  177.7970  142.9370 C   0  0  0  0  0  0  0  0  0  0  0  0
  188.1210  177.7140  142.5590 N   0  0  0  0  0  0  0  0  0  0  0  0
  187.6620  178.5740  140.4050 N   0  0  0  0  0  2  0  0  0  0  0  0
  186.3910  177.3370  144.3140 C   0  0  0  0  0  1  0  0  0  0  0  0
  182.5400  178.8430  143.9420 C   0  0  0  0  0  3  0  0  0  0  0  0
  183.9640  178.9010  139.8910 C   0  0  1  0  0  3  0  0  0  0  0  0
  180.3570  179.5490  143.1210 N   0  0  0  0  0  1  0  0  0  0  0  0
  186.2680  178.6240  140.7010 C   0  0  0  0  0  0  0  0  0  0  0  0
  181.7150  179.2030  142.8800 C   0  0  0  0  0  0  0  0  0  0  0  0
  182.2070  179.2220  141.6150 N   0  0  0  0  0  0  0  0  0  0  0  0
  189.9530  177.9840  141.1000 N   0  0  0  0  0  1  0  0  0  0  0  0
  185.8080  178.2690  142.0620 C   0  0  0  0  0  0  0  0  0  0  0  0
  182.1920  178.4280  138.2110 C   0  0  0  0  0  1  0  0  0  0  0  0
  183.3250  177.7970  139.0070 C   0  0  2  0  0  0  0  0  0  0  0  0
  180.8780  176.6040  139.4560 C   0  0  0  0  0  1  0  0  0  0  0  0
  182.5980  176.4390  140.0280 S   0  0  0  0  0  0  0  0  0  0  0  0
  184.3710  177.2680  138.0060 C   0  0  0  0  0  2  0  0  0  0  0  0
  184.0970  175.8520  137.5050 C   0  0  0  0  0  2  0  0  0  0  0  0
  186.9690  173.5810  136.9920 N   0  0  0  0  0  2  0  0  0  0  0  0
  185.7590  173.9110  137.2960 C   0  0  0  0  0  0  0  0  0  0  0  0
  185.3240  175.2480  137.0120 N   0  0  0  0  0  2  0  0  0  0  0  0
  184.0600  172.0890  137.1670 C   0  0  0  0  0  1  0  0  0  0  0  0
  184.9340  172.9440  137.8880 O   0  0  0  0  0  0  0  0  0  0  0  0
  1 15  2  0  0  0  0
  1  5  1  0  0  0  0
  2 10  1  0  0  0  0
  3 11  1  0  0  0  0
  3 13  2  0  0  0  0
  4  7  2  0  0  0  0
  5  2  2  0  0  0  0
  6  9  1  0  0  0  0
  7  6  1  0  0  0  0
  8 13  1  0  0  0  0
  8  4  1  0  0  0  0
 11 19  1  1  0  0  0
 11  1  1  0  0  0  0
 13 17  1  0  0  0  0
 14 12  1  0  0  0  0
 14 10  2  0  0  0  0
 15 14  1  0  0  0  0
 16  4  1  0  0  0  0
 17  5  1  0  0  0  0
 17  6  2  0  0  0  0
 19 18  1  6  0  0  0
 19 21  1  0  0  0  0
 20 21  1  0  0  0  0
 22 19  1  0  0  0  0
 23 22  1  0  0  0  0
 24 25  2  0  0  0  0
 25 28  1  0  0  0  0
 26 25  1  0  0  0  0
 26 23  1  0  0  0  0
 27 28  1  0  0  0  0
M  END
>  <MODEL>
9

>  <REMARK>
 VINA RESULT:      -6.5      4.351      7.044
  Name = 
  6 active torsions:
  status: ('A' for Active; 'I' for Inactive)
    1  A    between atoms: C_5  and  C_12
    2  A    between atoms: C_5  and  C_26
    3  A    between atoms: C_12  and  N_22
    4  A    between atoms: S_13  and  C_26
    5  A    between atoms: C_17  and  C_26
    6  A    between atoms: C_21  and  O_28
                            x       y       z     vdW  Elec       q    Type
                         _______ _______ _______ _____ _____    ______ ____

>  <TORSDO>
F 6

$$$$
