=
 OpenBabel10232412373D

 37 40  0  0  0  0  0  0  0  0999 V2000
  192.1990  176.2520  137.6220 C   0  0  0  0  0  0  0  0  0  0  0  0
  191.2870  176.6230  136.6050 C   0  0  0  0  0  3  0  0  0  0  0  0
  189.7580  177.4310  138.2650 C   0  0  0  0  0  0  0  0  0  0  0  0
  188.8740  178.0730  140.1360 C   0  0  0  0  0  0  0  0  0  0  0  0
  188.6620  178.0070  138.8020 N   0  0  0  0  0  0  0  0  0  0  0  0
  191.8780  176.5040  138.9730 C   0  0  0  0  0  3  0  0  0  0  0  0
  190.6500  177.0970  139.2550 C   0  0  0  0  0  0  0  0  0  0  0  0
  190.0550  177.2240  136.9180 C   0  0  0  0  0  3  0  0  0  0  0  0
  190.1020  177.5030  140.4560 C   0  0  0  0  0  0  0  0  0  0  0  0
  187.9150  178.6730  141.1090 C   0  0  0  0  0  1  0  0  0  0  0  0
  194.3230  176.2370  136.5620 O   0  0  0  0  0  0  0  0  0  0  0  0
  193.4830  175.6140  137.2650 C   0  0  0  0  0  0  0  0  0  0  0  0
  193.8010  174.2200  137.7020 C   0  0  0  0  0  2  0  0  0  0  0  0
  195.2630  175.2720  139.2620 O   0  0  0  0  0  1  0  0  0  0  0  0
  195.6890  173.0580  138.8450 O   0  0  0  0  0  0  0  0  0  0  0  0
  194.9610  174.2230  138.6370 C   0  0  0  0  0  0  0  0  0  0  0  0
  190.6920  177.3360  141.8160 C   0  0  0  0  0  2  0  0  0  0  0  0
  190.1480  176.0750  142.4620 C   0  0  0  0  0  2  0  0  0  0  0  0
  190.0570  176.2460  143.8730 O   0  0  0  0  0  0  0  0  0  0  0  0
  189.0410  176.9790  144.5010 C   0  0  0  0  0  0  0  0  0  0  0  0
  187.5460  177.6640  147.1000 C   0  0  0  0  0  3  0  0  0  0  0  0
  188.8590  177.6810  146.8710 C   0  0  0  0  0  3  0  0  0  0  0  0
  189.4460  177.9800  145.5320 C   0  0  0  0  0  2  0  0  0  0  0  0
  187.7580  176.8210  144.1480 C   0  0  0  0  0  3  0  0  0  0  0  0
  186.5980  177.4720  144.7870 C   0  0  0  0  0  3  0  0  0  0  0  0
  186.5040  177.8370  146.0720 C   0  0  0  0  0  3  0  0  0  0  0  0
  187.5700  178.5780  138.1240 N   0  0  0  0  0  2  0  0  0  0  0  0
  185.1560  178.3650  138.4160 C   0  0  0  0  0  3  0  0  0  0  0  0
  183.9540  177.6870  138.2020 C   0  0  0  0  0  3  0  0  0  0  0  0
  186.3270  176.7050  137.1040 C   0  0  0  0  0  3  0  0  0  0  0  0
  183.9270  176.5150  137.4330 C   0  0  0  0  0  0  0  0  0  0  0  0
  185.1250  176.0260  136.8890 C   0  0  0  0  0  3  0  0  0  0  0  0
  186.3450  177.8870  137.8560 C   0  0  0  0  0  0  0  0  0  0  0  0
  182.1440  174.9170  138.2020 N   0  0  0  0  0  2  0  0  0  0  0  0
  182.6590  175.8010  137.2050 C   0  0  0  0  0  0  0  0  0  0  0  0
  182.0240  175.9690  136.1280 O   0  0  0  0  0  0  0  0  0  0  0  0
  180.9410  174.2280  138.0060 N   0  0  0  0  0  1  0  0  0  0  0  0
  1  6  1  0  0  0  0
  2  8  1  0  0  0  0
  2  1  2  0  0  0  0
  3  5  1  0  0  0  0
  3  7  1  0  0  0  0
  4  9  2  0  0  0  0
  4 10  1  0  0  0  0
  5  4  1  0  0  0  0
  6  7  2  0  0  0  0
  7  9  1  0  0  0  0
  8  3  2  0  0  0  0
  9 17  1  0  0  0  0
 11 12  2  0  0  0  0
 12  1  1  0  0  0  0
 12 13  1  0  0  0  0
 13 16  1  0  0  0  0
 16 15  2  0  0  0  0
 16 14  1  0  0  0  0
 17 18  1  0  0  0  0
 18 19  1  0  0  0  0
 19 20  1  0  0  0  0
 20 23  1  0  0  0  0
 22 21  2  0  0  0  0
 23 22  1  0  0  0  0
 24 20  2  0  0  0  0
 24 25  1  0  0  0  0
 25 26  2  0  0  0  0
 26 21  1  0  0  0  0
 27  5  1  0  0  0  0
 29 28  1  0  0  0  0
 30 33  1  0  0  0  0
 31 29  2  0  0  0  0
 32 30  2  0  0  0  0
 32 31  1  0  0  0  0
 33 27  1  0  0  0  0
 33 28  2  0  0  0  0
 35 31  1  0  0  0  0
 35 34  1  0  0  0  0
 36 35  2  0  0  0  0
 37 34  1  0  0  0  0
M  END
>  <MODEL>
1

>  <REMARK>
 VINA RESULT:      -8.4      0.000      0.000
  Name = 
  10 active torsions:
  status: ('A' for Active; 'I' for Inactive)
    1  A    between atoms: C_5  and  C_37
    2  A    between atoms: C_10  and  C_22
    3  A    between atoms: C_10  and  C_33
    4  A    between atoms: C_12  and  O_35
    5  A    between atoms: C_14  and  C_21
    6  A    between atoms: N_16  and  N_34
    7  A    between atoms: C_22  and  O_35
    8  A    between atoms: C_29  and  C_31
    9  A    between atoms: C_29  and  C_37
   10  A    between atoms: C_32  and  N_34
                            x       y       z     vdW  Elec       q    Type
                         _______ _______ _______ _____ _____    ______ ____

>  <TORSDO>
F 10

$$$$
=
 OpenBabel10232412373D

 37 40  0  0  0  0  0  0  0  0999 V2000
  185.4680  178.6770  142.7460 C   0  0  0  0  0  0  0  0  0  0  0  0
  184.6100  178.8490  141.6330 C   0  0  0  0  0  3  0  0  0  0  0  0
  186.4630  178.5260  140.1480 C   0  0  0  0  0  0  0  0  0  0  0  0
  188.4190  178.0610  139.3390 C   0  0  0  0  0  0  0  0  0  0  0  0
  187.1510  178.3830  138.9960 N   0  0  0  0  0  0  0  0  0  0  0  0
  186.8360  178.4020  142.5360 C   0  0  0  0  0  3  0  0  0  0  0  0
  187.2960  178.3320  141.2230 C   0  0  0  0  0  0  0  0  0  0  0  0
  185.1010  178.7690  140.3190 C   0  0  0  0  0  3  0  0  0  0  0  0
  188.5490  178.0310  140.7240 C   0  0  0  0  0  0  0  0  0  0  0  0
  189.5090  177.7830  138.3590 C   0  0  0  0  0  1  0  0  0  0  0  0
  183.9510  179.5350  144.3580 O   0  0  0  0  0  0  0  0  0  0  0  0
  184.9280  178.7750  144.1170 C   0  0  0  0  0  0  0  0  0  0  0  0
  185.5360  178.0050  145.2450 C   0  0  0  0  0  2  0  0  0  0  0  0
  184.2940  178.1550  147.2720 O   0  0  0  0  0  1  0  0  0  0  0  0
  185.9110  179.7550  146.9820 O   0  0  0  0  0  0  0  0  0  0  0  0
  185.2010  178.6430  146.5490 C   0  0  0  0  0  0  0  0  0  0  0  0
  189.7880  177.7610  141.5090 C   0  0  0  0  0  2  0  0  0  0  0  0
  189.7880  176.3220  141.9920 C   0  0  0  0  0  2  0  0  0  0  0  0
  190.6660  176.1770  143.1040 O   0  0  0  0  0  0  0  0  0  0  0  0
  190.4330  176.7600  144.3570 C   0  0  0  0  0  0  0  0  0  0  0  0
  190.7930  176.6150  147.4080 C   0  0  0  0  0  3  0  0  0  0  0  0
  191.7230  176.5130  146.4580 C   0  0  0  0  0  3  0  0  0  0  0  0
  191.6200  177.2110  145.1420 C   0  0  0  0  0  2  0  0  0  0  0  0
  189.1850  176.9530  144.8060 C   0  0  0  0  0  3  0  0  0  0  0  0
  188.8140  177.4810  146.1340 C   0  0  0  0  0  3  0  0  0  0  0  0
  189.5120  177.3310  147.2670 C   0  0  0  0  0  3  0  0  0  0  0  0
  186.6460  178.4040  137.6840 N   0  0  0  0  0  2  0  0  0  0  0  0
  184.5820  177.3860  136.8710 C   0  0  0  0  0  3  0  0  0  0  0  0
  183.8870  176.3110  136.3110 C   0  0  0  0  0  3  0  0  0  0  0  0
  186.6420  176.1260  136.7340 C   0  0  0  0  0  3  0  0  0  0  0  0
  184.5640  175.1370  135.9530 C   0  0  0  0  0  0  0  0  0  0  0  0
  185.9470  175.0500  136.1730 C   0  0  0  0  0  3  0  0  0  0  0  0
  185.9630  177.3040  137.0700 C   0  0  0  0  0  0  0  0  0  0  0  0
  184.1850  172.6630  135.7010 N   0  0  0  0  0  2  0  0  0  0  0  0
  183.8310  174.0050  135.3610 C   0  0  0  0  0  0  0  0  0  0  0  0
  182.8880  174.2170  134.5500 O   0  0  0  0  0  0  0  0  0  0  0  0
  183.5020  171.5730  135.1480 N   0  0  0  0  0  1  0  0  0  0  0  0
  1 12  1  0  0  0  0
  2  1  2  0  0  0  0
  3  8  2  0  0  0  0
  3  7  1  0  0  0  0
  4  9  2  0  0  0  0
  5  4  1  0  0  0  0
  5  3  1  0  0  0  0
  6  1  1  0  0  0  0
  7  6  2  0  0  0  0
  8  2  1  0  0  0  0
  9  7  1  0  0  0  0
  9 17  1  0  0  0  0
 10  4  1  0  0  0  0
 12 11  2  0  0  0  0
 12 13  1  0  0  0  0
 13 16  1  0  0  0  0
 16 15  2  0  0  0  0
 16 14  1  0  0  0  0
 17 18  1  0  0  0  0
 18 19  1  0  0  0  0
 19 20  1  0  0  0  0
 20 24  2  0  0  0  0
 20 23  1  0  0  0  0
 22 21  2  0  0  0  0
 23 22  1  0  0  0  0
 24 25  1  0  0  0  0
 25 26  2  0  0  0  0
 26 21  1  0  0  0  0
 27  5  1  0  0  0  0
 28 33  1  0  0  0  0
 29 28  2  0  0  0  0
 30 33  2  0  0  0  0
 31 32  2  0  0  0  0
 31 29  1  0  0  0  0
 32 30  1  0  0  0  0
 33 27  1  0  0  0  0
 35 34  1  0  0  0  0
 35 31  1  0  0  0  0
 36 35  2  0  0  0  0
 37 34  1  0  0  0  0
M  END
>  <MODEL>
2

>  <REMARK>
 VINA RESULT:      -8.4      3.049      6.214
  Name = 
  10 active torsions:
  status: ('A' for Active; 'I' for Inactive)
    1  A    between atoms: C_5  and  C_37
    2  A    between atoms: C_10  and  C_22
    3  A    between atoms: C_10  and  C_33
    4  A    between atoms: C_12  and  O_35
    5  A    between atoms: C_14  and  C_21
    6  A    between atoms: N_16  and  N_34
    7  A    between atoms: C_22  and  O_35
    8  A    between atoms: C_29  and  C_31
    9  A    between atoms: C_29  and  C_37
   10  A    between atoms: C_32  and  N_34
                            x       y       z     vdW  Elec       q    Type
                         _______ _______ _______ _____ _____    ______ ____

>  <TORSDO>
F 10

$$$$
=
 OpenBabel10232412373D

 37 40  0  0  0  0  0  0  0  0999 V2000
  186.2430  178.4770  140.3830 C   0  0  0  0  0  0  0  0  0  0  0  0
  186.3690  178.3410  138.9790 C   0  0  0  0  0  3  0  0  0  0  0  0
  188.7170  177.9280  139.2250 C   0  0  0  0  0  0  0  0  0  0  0  0
  190.6780  177.5170  140.0520 C   0  0  0  0  0  0  0  0  0  0  0  0
  189.9910  177.6350  138.8920 N   0  0  0  0  0  0  0  0  0  0  0  0
  187.3780  178.3080  141.2040 C   0  0  0  0  0  3  0  0  0  0  0  0
  188.5960  178.0320  140.5890 C   0  0  0  0  0  0  0  0  0  0  0  0
  187.6110  178.0580  138.3850 C   0  0  0  0  0  3  0  0  0  0  0  0
  189.8390  177.7700  141.1330 C   0  0  0  0  0  0  0  0  0  0  0  0
  192.1250  177.1680  140.1380 C   0  0  0  0  0  1  0  0  0  0  0  0
  184.1780  179.6460  140.4490 O   0  0  0  0  0  0  0  0  0  0  0  0
  184.9270  178.7820  140.9800 C   0  0  0  0  0  0  0  0  0  0  0  0
  184.4680  178.1020  142.2300 C   0  0  0  0  0  2  0  0  0  0  0  0
  184.8260  180.0000  143.6250 O   0  0  0  0  0  0  0  0  0  0  0  0
  182.7260  179.0860  143.7200 O   0  0  0  0  0  1  0  0  0  0  0  0
  184.0280  179.1090  143.2360 C   0  0  0  0  0  0  0  0  0  0  0  0
  190.2100  177.7860  142.5780 C   0  0  0  0  0  2  0  0  0  0  0  0
  189.9850  176.4110  143.1810 C   0  0  0  0  0  2  0  0  0  0  0  0
  188.7020  176.3490  143.7960 O   0  0  0  0  0  0  0  0  0  0  0  0
  188.3370  177.1220  144.9070 C   0  0  0  0  0  0  0  0  0  0  0  0
  188.1230  177.3520  147.9670 C   0  0  0  0  0  3  0  0  0  0  0  0
  189.1820  177.0090  147.2340 C   0  0  0  0  0  3  0  0  0  0  0  0
  189.4180  177.5280  145.8540 C   0  0  0  0  0  2  0  0  0  0  0  0
  187.0700  177.5250  145.0800 C   0  0  0  0  0  3  0  0  0  0  0  0
  186.5500  178.2700  146.2430 C   0  0  0  0  0  3  0  0  0  0  0  0
  187.0060  178.1930  147.5000 C   0  0  0  0  0  3  0  0  0  0  0  0
  190.5030  177.3500  137.6130 N   0  0  0  0  0  2  0  0  0  0  0  0
  192.3700  175.9970  136.8110 C   0  0  0  0  0  3  0  0  0  0  0  0
  192.9040  174.7750  136.3950 C   0  0  0  0  0  3  0  0  0  0  0  0
  190.2340  174.9310  137.2010 C   0  0  0  0  0  3  0  0  0  0  0  0
  192.1090  173.6200  136.3840 C   0  0  0  0  0  0  0  0  0  0  0  0
  190.7670  173.7080  136.7860 C   0  0  0  0  0  3  0  0  0  0  0  0
  191.0380  176.0780  137.2310 C   0  0  0  0  0  0  0  0  0  0  0  0
  194.0310  172.0040  136.2460 N   0  0  0  0  0  2  0  0  0  0  0  0
  192.6730  172.3310  135.9470 C   0  0  0  0  0  0  0  0  0  0  0  0
  191.9580  171.5120  135.3080 O   0  0  0  0  0  0  0  0  0  0  0  0
  194.5880  170.7850  135.8390 N   0  0  0  0  0  1  0  0  0  0  0  0
  1 12  1  0  0  0  0
  1  6  1  0  0  0  0
  2  1  2  0  0  0  0
  3  7  1  0  0  0  0
  4 10  1  0  0  0  0
  4  9  2  0  0  0  0
  5  3  1  0  0  0  0
  5  4  1  0  0  0  0
  7  9  1  0  0  0  0
  7  6  2  0  0  0  0
  8  2  1  0  0  0  0
  8  3  2  0  0  0  0
  9 17  1  0  0  0  0
 11 12  2  0  0  0  0
 12 13  1  0  0  0  0
 13 16  1  0  0  0  0
 16 14  2  0  0  0  0
 16 15  1  0  0  0  0
 17 18  1  0  0  0  0
 18 19  1  0  0  0  0
 19 20  1  0  0  0  0
 20 24  2  0  0  0  0
 20 23  1  0  0  0  0
 22 21  2  0  0  0  0
 23 22  1  0  0  0  0
 24 25  1  0  0  0  0
 25 26  2  0  0  0  0
 26 21  1  0  0  0  0
 27  5  1  0  0  0  0
 28 33  1  0  0  0  0
 29 28  2  0  0  0  0
 30 33  2  0  0  0  0
 31 29  1  0  0  0  0
 31 32  2  0  0  0  0
 32 30  1  0  0  0  0
 33 27  1  0  0  0  0
 35 34  1  0  0  0  0
 35 31  1  0  0  0  0
 36 35  2  0  0  0  0
 37 34  1  0  0  0  0
M  END
>  <MODEL>
3

>  <REMARK>
 VINA RESULT:      -8.3      3.376      7.296
  Name = 
  10 active torsions:
  status: ('A' for Active; 'I' for Inactive)
    1  A    between atoms: C_5  and  C_37
    2  A    between atoms: C_10  and  C_22
    3  A    between atoms: C_10  and  C_33
    4  A    between atoms: C_12  and  O_35
    5  A    between atoms: C_14  and  C_21
    6  A    between atoms: N_16  and  N_34
    7  A    between atoms: C_22  and  O_35
    8  A    between atoms: C_29  and  C_31
    9  A    between atoms: C_29  and  C_37
   10  A    between atoms: C_32  and  N_34
                            x       y       z     vdW  Elec       q    Type
                         _______ _______ _______ _____ _____    ______ ____

>  <TORSDO>
F 10

$$$$
=
 OpenBabel10232412373D

 37 40  0  0  0  0  0  0  0  0999 V2000
  189.9600  177.7020  140.7430 C   0  0  0  0  0  0  0  0  0  0  0  0
  189.8900  177.4180  139.3580 C   0  0  0  0  0  3  0  0  0  0  0  0
  187.5670  178.0070  139.3490 C   0  0  0  0  0  0  0  0  0  0  0  0
  185.6100  178.7470  139.9160 C   0  0  0  0  0  0  0  0  0  0  0  0
  186.3260  178.2520  138.8800 N   0  0  0  0  0  0  0  0  0  0  0  0
  188.8120  178.1670  141.4180 C   0  0  0  0  0  3  0  0  0  0  0  0
  187.6350  178.3100  140.6880 C   0  0  0  0  0  0  0  0  0  0  0  0
  188.6900  177.5740  138.6440 C   0  0  0  0  0  3  0  0  0  0  0  0
  186.3940  178.7860  141.0650 C   0  0  0  0  0  0  0  0  0  0  0  0
  184.1870  179.1820  139.8210 C   0  0  0  0  0  1  0  0  0  0  0  0
  192.3200  177.4580  140.8340 O   0  0  0  0  0  0  0  0  0  0  0  0
  191.2330  177.5210  141.4700 C   0  0  0  0  0  0  0  0  0  0  0  0
  191.2600  177.3830  142.9580 C   0  0  0  0  0  2  0  0  0  0  0  0
  192.0060  175.4400  144.1180 O   0  0  0  0  0  1  0  0  0  0  0  0
  190.0900  175.1820  142.8870 O   0  0  0  0  0  0  0  0  0  0  0  0
  191.1520  175.9490  143.3470 C   0  0  0  0  0  0  0  0  0  0  0  0
  185.9750  179.2240  142.4280 C   0  0  0  0  0  2  0  0  0  0  0  0
  185.3890  178.0470  143.1880 C   0  0  0  0  0  2  0  0  0  0  0  0
  186.4170  177.3520  143.8850 O   0  0  0  0  0  0  0  0  0  0  0  0
  186.9680  177.7930  145.0960 C   0  0  0  0  0  0  0  0  0  0  0  0
  188.7580  177.1830  147.5220 C   0  0  0  0  0  3  0  0  0  0  0  0
  189.0460  177.0550  146.2270 C   0  0  0  0  0  3  0  0  0  0  0  0
  188.4530  177.9290  145.1720 C   0  0  0  0  0  2  0  0  0  0  0  0
  186.1830  178.1310  146.1280 C   0  0  0  0  0  3  0  0  0  0  0  0
  186.6440  178.5310  147.4720 C   0  0  0  0  0  3  0  0  0  0  0  0
  187.7620  178.1170  148.0800 C   0  0  0  0  0  3  0  0  0  0  0  0
  185.8760  178.1680  137.5500 N   0  0  0  0  0  2  0  0  0  0  0  0
  183.9490  176.7840  136.9800 C   0  0  0  0  0  3  0  0  0  0  0  0
  183.3970  175.6150  136.4490 C   0  0  0  0  0  3  0  0  0  0  0  0
  186.1660  175.9850  136.4340 C   0  0  0  0  0  3  0  0  0  0  0  0
  184.2250  174.6250  135.9010 C   0  0  0  0  0  0  0  0  0  0  0  0
  185.6150  174.8170  135.9020 C   0  0  0  0  0  3  0  0  0  0  0  0
  185.3330  176.9810  136.9620 C   0  0  0  0  0  0  0  0  0  0  0  0
  184.3270  172.1480  135.4750 N   0  0  0  0  0  2  0  0  0  0  0  0
  183.6420  173.3950  135.3380 C   0  0  0  0  0  0  0  0  0  0  0  0
  182.5360  173.4380  134.7320 O   0  0  0  0  0  0  0  0  0  0  0  0
  183.7920  170.9670  134.9460 N   0  0  0  0  0  1  0  0  0  0  0  0
  1  6  1  0  0  0  0
  1 12  1  0  0  0  0
  2  1  2  0  0  0  0
  3  7  1  0  0  0  0
  4  9  2  0  0  0  0
  5  3  1  0  0  0  0
  5  4  1  0  0  0  0
  7  9  1  0  0  0  0
  7  6  2  0  0  0  0
  8  3  2  0  0  0  0
  8  2  1  0  0  0  0
  9 17  1  0  0  0  0
 10  4  1  0  0  0  0
 11 12  2  0  0  0  0
 12 13  1  0  0  0  0
 13 16  1  0  0  0  0
 15 16  2  0  0  0  0
 16 14  1  0  0  0  0
 17 18  1  0  0  0  0
 18 19  1  0  0  0  0
 19 20  1  0  0  0  0
 20 23  1  0  0  0  0
 20 24  2  0  0  0  0
 21 26  1  0  0  0  0
 22 21  2  0  0  0  0
 23 22  1  0  0  0  0
 24 25  1  0  0  0  0
 25 26  2  0  0  0  0
 27  5  1  0  0  0  0
 29 28  2  0  0  0  0
 30 33  2  0  0  0  0
 31 32  2  0  0  0  0
 31 29  1  0  0  0  0
 32 30  1  0  0  0  0
 33 28  1  0  0  0  0
 33 27  1  0  0  0  0
 35 34  1  0  0  0  0
 35 31  1  0  0  0  0
 36 35  2  0  0  0  0
 37 34  1  0  0  0  0
M  END
>  <MODEL>
4

>  <REMARK>
 VINA RESULT:      -8.3      2.707      3.795
  Name = 
  10 active torsions:
  status: ('A' for Active; 'I' for Inactive)
    1  A    between atoms: C_5  and  C_37
    2  A    between atoms: C_10  and  C_22
    3  A    between atoms: C_10  and  C_33
    4  A    between atoms: C_12  and  O_35
    5  A    between atoms: C_14  and  C_21
    6  A    between atoms: N_16  and  N_34
    7  A    between atoms: C_22  and  O_35
    8  A    between atoms: C_29  and  C_31
    9  A    between atoms: C_29  and  C_37
   10  A    between atoms: C_32  and  N_34
                            x       y       z     vdW  Elec       q    Type
                         _______ _______ _______ _____ _____    ______ ____

>  <TORSDO>
F 10

$$$$
=
 OpenBabel10232412373D

 37 40  0  0  0  0  0  0  0  0999 V2000
  184.3370  178.8370  142.2060 C   0  0  0  0  0  0  0  0  0  0  0  0
  183.8430  178.8140  140.8790 C   0  0  0  0  0  3  0  0  0  0  0  0
  186.0770  178.5730  140.0460 C   0  0  0  0  0  0  0  0  0  0  0  0
  188.2170  178.2610  139.9020 C   0  0  0  0  0  0  0  0  0  0  0  0
  187.0900  178.4080  139.1700 N   0  0  0  0  0  0  0  0  0  0  0  0
  185.7220  178.7010  142.4370 C   0  0  0  0  0  3  0  0  0  0  0  0
  186.5600  178.5680  141.3330 C   0  0  0  0  0  0  0  0  0  0  0  0
  184.7120  178.6750  139.7830 C   0  0  0  0  0  3  0  0  0  0  0  0
  187.9250  178.3680  141.2580 C   0  0  0  0  0  0  0  0  0  0  0  0
  189.5700  178.0230  139.3210 C   0  0  0  0  0  1  0  0  0  0  0  0
  183.6850  179.7710  144.2880 O   0  0  0  0  0  0  0  0  0  0  0  0
  183.4020  178.9930  143.3380 C   0  0  0  0  0  0  0  0  0  0  0  0
  182.1240  178.2180  143.3990 C   0  0  0  0  0  2  0  0  0  0  0  0
  180.8420  180.0530  142.5830 O   0  0  0  0  0  0  0  0  0  0  0  0
  179.9820  178.9850  144.4200 O   0  0  0  0  0  1  0  0  0  0  0  0
  180.9580  179.1450  143.4460 C   0  0  0  0  0  0  0  0  0  0  0  0
  188.8880  178.3080  142.3960 C   0  0  0  0  0  2  0  0  0  0  0  0
  189.0840  176.8660  142.8290 C   0  0  0  0  0  2  0  0  0  0  0  0
  188.1710  176.5390  143.8730 O   0  0  0  0  0  0  0  0  0  0  0  0
  188.0710  177.2600  145.0700 C   0  0  0  0  0  0  0  0  0  0  0  0
  188.4810  177.3250  148.1170 C   0  0  0  0  0  3  0  0  0  0  0  0
  189.3560  176.9850  147.1710 C   0  0  0  0  0  3  0  0  0  0  0  0
  189.3370  177.5710  145.7980 C   0  0  0  0  0  2  0  0  0  0  0  0
  186.8850  177.7000  145.5130 C   0  0  0  0  0  3  0  0  0  0  0  0
  186.6430  178.3970  146.7910 C   0  0  0  0  0  3  0  0  0  0  0  0
  187.3340  178.2320  147.9250 C   0  0  0  0  0  3  0  0  0  0  0  0
  187.0040  178.2580  137.7740 N   0  0  0  0  0  2  0  0  0  0  0  0
  185.4680  177.0560  136.3060 C   0  0  0  0  0  3  0  0  0  0  0  0
  185.0340  175.8790  135.6910 C   0  0  0  0  0  3  0  0  0  0  0  0
  187.2860  175.8440  137.3430 C   0  0  0  0  0  3  0  0  0  0  0  0
  185.7260  174.6760  135.8920 C   0  0  0  0  0  0  0  0  0  0  0  0
  186.8530  174.6660  136.7270 C   0  0  0  0  0  3  0  0  0  0  0  0
  186.6040  177.0470  137.1220 C   0  0  0  0  0  0  0  0  0  0  0  0
  186.1600  172.3270  135.1040 N   0  0  0  0  0  2  0  0  0  0  0  0
  185.2690  173.4360  135.2410 C   0  0  0  0  0  0  0  0  0  0  0  0
  184.0900  173.3500  134.8010 O   0  0  0  0  0  0  0  0  0  0  0  0
  185.7470  171.1400  134.4870 N   0  0  0  0  0  1  0  0  0  0  0  0
  1  6  1  0  0  0  0
  1 12  1  0  0  0  0
  2  1  2  0  0  0  0
  3  7  1  0  0  0  0
  4  9  2  0  0  0  0
  5  4  1  0  0  0  0
  5  3  1  0  0  0  0
  7  6  2  0  0  0  0
  8  3  2  0  0  0  0
  8  2  1  0  0  0  0
  9  7  1  0  0  0  0
  9 17  1  0  0  0  0
 10  4  1  0  0  0  0
 12 13  1  0  0  0  0
 12 11  2  0  0  0  0
 13 16  1  0  0  0  0
 14 16  2  0  0  0  0
 16 15  1  0  0  0  0
 17 18  1  0  0  0  0
 18 19  1  0  0  0  0
 19 20  1  0  0  0  0
 20 24  2  0  0  0  0
 20 23  1  0  0  0  0
 22 21  2  0  0  0  0
 23 22  1  0  0  0  0
 24 25  1  0  0  0  0
 25 26  2  0  0  0  0
 26 21  1  0  0  0  0
 27  5  1  0  0  0  0
 28 33  1  0  0  0  0
 29 31  1  0  0  0  0
 29 28  2  0  0  0  0
 31 32  2  0  0  0  0
 32 30  1  0  0  0  0
 33 30  2  0  0  0  0
 33 27  1  0  0  0  0
 34 35  1  0  0  0  0
 35 31  1  0  0  0  0
 36 35  2  0  0  0  0
 37 34  1  0  0  0  0
M  END
>  <MODEL>
5

>  <REMARK>
 VINA RESULT:      -8.2      3.793      6.984
  Name = 
  10 active torsions:
  status: ('A' for Active; 'I' for Inactive)
    1  A    between atoms: C_5  and  C_37
    2  A    between atoms: C_10  and  C_22
    3  A    between atoms: C_10  and  C_33
    4  A    between atoms: C_12  and  O_35
    5  A    between atoms: C_14  and  C_21
    6  A    between atoms: N_16  and  N_34
    7  A    between atoms: C_22  and  O_35
    8  A    between atoms: C_29  and  C_31
    9  A    between atoms: C_29  and  C_37
   10  A    between atoms: C_32  and  N_34
                            x       y       z     vdW  Elec       q    Type
                         _______ _______ _______ _____ _____    ______ ____

>  <TORSDO>
F 10

$$$$
=
 OpenBabel10232412373D

 37 40  0  0  0  0  0  0  0  0999 V2000
  190.4690  177.1440  144.8710 C   0  0  0  0  0  0  0  0  0  0  0  0
  191.6430  177.1470  144.0800 C   0  0  0  0  0  3  0  0  0  0  0  0
  190.3180  177.4550  142.1070 C   0  0  0  0  0  0  0  0  0  0  0  0
  188.6720  177.8330  140.7490 C   0  0  0  0  0  0  0  0  0  0  0  0
  190.0100  177.6480  140.8070 N   0  0  0  0  0  0  0  0  0  0  0  0
  189.2120  177.3250  144.2550 C   0  0  0  0  0  3  0  0  0  0  0  0
  189.1770  177.4800  142.8720 C   0  0  0  0  0  0  0  0  0  0  0  0
  191.5790  177.3090  142.6850 C   0  0  0  0  0  3  0  0  0  0  0  0
  188.1170  177.7220  142.0200 C   0  0  0  0  0  0  0  0  0  0  0  0
  187.9170  178.1110  139.4930 C   0  0  0  0  0  1  0  0  0  0  0  0
  191.6730  177.1070  146.9160 O   0  0  0  0  0  0  0  0  0  0  0  0
  190.5650  176.9640  146.3340 C   0  0  0  0  0  0  0  0  0  0  0  0
  189.3690  176.5840  147.1460 C   0  0  0  0  0  2  0  0  0  0  0  0
  189.3740  178.4680  148.6040 O   0  0  0  0  0  1  0  0  0  0  0  0
  187.4820  178.2040  147.3380 O   0  0  0  0  0  0  0  0  0  0  0  0
  188.7450  177.7960  147.7480 C   0  0  0  0  0  0  0  0  0  0  0  0
  186.6740  177.8170  142.3860 C   0  0  0  0  0  2  0  0  0  0  0  0
  186.2090  179.2580  142.2770 C   0  0  0  0  0  2  0  0  0  0  0  0
  184.9710  179.3230  141.5760 O   0  0  0  0  0  0  0  0  0  0  0  0
  183.7480  178.9090  142.1220 C   0  0  0  0  0  0  0  0  0  0  0  0
  180.6840  179.1740  142.1530 C   0  0  0  0  0  3  0  0  0  0  0  0
  181.4870  178.9680  141.1090 C   0  0  0  0  0  3  0  0  0  0  0  0
  182.7800  178.2280  141.2110 C   0  0  0  0  0  2  0  0  0  0  0  0
  183.4850  179.0710  143.4260 C   0  0  0  0  0  3  0  0  0  0  0  0
  182.2100  178.7510  144.0980 C   0  0  0  0  0  3  0  0  0  0  0  0
  180.9910  178.7980  143.5460 C   0  0  0  0  0  3  0  0  0  0  0  0
  190.8970  177.7900  139.7240 N   0  0  0  0  0  2  0  0  0  0  0  0
  192.7710  176.5960  138.7150 C   0  0  0  0  0  3  0  0  0  0  0  0
  193.2780  175.5590  137.9280 C   0  0  0  0  0  3  0  0  0  0  0  0
  190.5270  175.7650  138.3630 C   0  0  0  0  0  3  0  0  0  0  0  0
  192.4150  174.6130  137.3570 C   0  0  0  0  0  0  0  0  0  0  0  0
  191.0340  174.7270  137.5770 C   0  0  0  0  0  3  0  0  0  0  0  0
  191.3960  176.6950  138.9480 C   0  0  0  0  0  0  0  0  0  0  0  0
  192.0630  172.5880  135.9070 N   0  0  0  0  0  2  0  0  0  0  0  0
  192.9510  173.5180  136.5300 C   0  0  0  0  0  0  0  0  0  0  0  0
  194.1970  173.3990  136.3690 O   0  0  0  0  0  0  0  0  0  0  0  0
  192.5510  171.5390  135.1180 N   0  0  0  0  0  1  0  0  0  0  0  0
  1 12  1  0  0  0  0
  2  1  2  0  0  0  0
  3  8  2  0  0  0  0
  3  7  1  0  0  0  0
  4  5  1  0  0  0  0
  4  9  2  0  0  0  0
  5  3  1  0  0  0  0
  6  1  1  0  0  0  0
  7  6  2  0  0  0  0
  8  2  1  0  0  0  0
  9 17  1  0  0  0  0
  9  7  1  0  0  0  0
 10  4  1  0  0  0  0
 12 11  2  0  0  0  0
 12 13  1  0  0  0  0
 13 16  1  0  0  0  0
 15 16  2  0  0  0  0
 16 14  1  0  0  0  0
 18 17  1  0  0  0  0
 19 20  1  0  0  0  0
 19 18  1  0  0  0  0
 20 24  2  0  0  0  0
 21 26  1  0  0  0  0
 22 23  1  0  0  0  0
 22 21  2  0  0  0  0
 23 20  1  0  0  0  0
 24 25  1  0  0  0  0
 26 25  2  0  0  0  0
 27  5  1  0  0  0  0
 28 33  1  0  0  0  0
 29 28  2  0  0  0  0
 30 33  2  0  0  0  0
 31 32  2  0  0  0  0
 31 29  1  0  0  0  0
 32 30  1  0  0  0  0
 33 27  1  0  0  0  0
 34 35  1  0  0  0  0
 35 31  1  0  0  0  0
 36 35  2  0  0  0  0
 37 34  1  0  0  0  0
M  END
>  <MODEL>
6

>  <REMARK>
 VINA RESULT:      -8.1      3.426      7.829
  Name = 
  10 active torsions:
  status: ('A' for Active; 'I' for Inactive)
    1  A    between atoms: C_5  and  C_37
    2  A    between atoms: C_10  and  C_22
    3  A    between atoms: C_10  and  C_33
    4  A    between atoms: C_12  and  O_35
    5  A    between atoms: C_14  and  C_21
    6  A    between atoms: N_16  and  N_34
    7  A    between atoms: C_22  and  O_35
    8  A    between atoms: C_29  and  C_31
    9  A    between atoms: C_29  and  C_37
   10  A    between atoms: C_32  and  N_34
                            x       y       z     vdW  Elec       q    Type
                         _______ _______ _______ _____ _____    ______ ____

>  <TORSDO>
F 10

$$$$
=
 OpenBabel10232412373D

 37 40  0  0  0  0  0  0  0  0999 V2000
  190.5200  177.7020  142.9960 C   0  0  0  0  0  0  0  0  0  0  0  0
  191.3200  177.1900  141.9460 C   0  0  0  0  0  3  0  0  0  0  0  0
  189.5190  177.5280  140.4010 C   0  0  0  0  0  0  0  0  0  0  0  0
  187.6510  178.1460  139.4930 C   0  0  0  0  0  0  0  0  0  0  0  0
  188.8440  177.5650  139.2330 N   0  0  0  0  0  0  0  0  0  0  0  0
  189.2110  178.1500  142.7200 C   0  0  0  0  0  3  0  0  0  0  0  0
  188.7460  178.0500  141.4100 C   0  0  0  0  0  0  0  0  0  0  0  0
  190.8270  177.1040  140.6330 C   0  0  0  0  0  3  0  0  0  0  0  0
  187.5510  178.4510  140.8470 C   0  0  0  0  0  0  0  0  0  0  0  0
  186.6040  178.4100  138.4630 C   0  0  0  0  0  1  0  0  0  0  0  0
  192.0150  178.5540  144.6310 O   0  0  0  0  0  0  0  0  0  0  0  0
  191.0600  177.7740  144.3680 C   0  0  0  0  0  0  0  0  0  0  0  0
  190.5120  176.9130  145.4610 C   0  0  0  0  0  2  0  0  0  0  0  0
  192.3130  175.4380  145.9680 O   0  0  0  0  0  0  0  0  0  0  0  0
  191.8940  177.0610  147.5320 O   0  0  0  0  0  1  0  0  0  0  0  0
  191.6150  176.4180  146.3330 C   0  0  0  0  0  0  0  0  0  0  0  0
  186.3840  179.0590  141.5500 C   0  0  0  0  0  2  0  0  0  0  0  0
  185.5730  177.9730  142.2350 C   0  0  0  0  0  2  0  0  0  0  0  0
  185.0600  178.4520  143.4740 O   0  0  0  0  0  0  0  0  0  0  0  0
  185.5800  178.0860  144.7220 C   0  0  0  0  0  0  0  0  0  0  0  0
  186.7380  178.9800  147.4280 C   0  0  0  0  0  3  0  0  0  0  0  0
  185.6080  179.3730  146.8400 C   0  0  0  0  0  3  0  0  0  0  0  0
  184.8120  178.4890  145.9380 C   0  0  0  0  0  2  0  0  0  0  0  0
  186.6990  177.3550  144.8150 C   0  0  0  0  0  3  0  0  0  0  0  0
  187.3860  176.9770  146.0660 C   0  0  0  0  0  3  0  0  0  0  0  0
  187.4050  177.6850  147.2020 C   0  0  0  0  0  3  0  0  0  0  0  0
  189.3180  177.2200  137.9540 N   0  0  0  0  0  2  0  0  0  0  0  0
  187.9260  175.7000  136.6470 C   0  0  0  0  0  3  0  0  0  0  0  0
  187.6860  174.4480  136.0750 C   0  0  0  0  0  3  0  0  0  0  0  0
  190.0490  174.9080  137.4920 C   0  0  0  0  0  3  0  0  0  0  0  0
  188.6270  173.4170  136.2030 C   0  0  0  0  0  0  0  0  0  0  0  0
  189.8100  173.6550  136.9200 C   0  0  0  0  0  3  0  0  0  0  0  0
  189.1140  175.9410  137.3430 C   0  0  0  0  0  0  0  0  0  0  0  0
  189.4270  171.4020  134.9290 N   0  0  0  0  0  2  0  0  0  0  0  0
  188.3750  172.0980  135.5980 C   0  0  0  0  0  0  0  0  0  0  0  0
  187.2270  171.5790  135.6690 O   0  0  0  0  0  0  0  0  0  0  0  0
  189.2090  170.1470  134.3460 N   0  0  0  0  0  1  0  0  0  0  0  0
  1 12  1  0  0  0  0
  2  1  2  0  0  0  0
  3  8  2  0  0  0  0
  3  7  1  0  0  0  0
  4  9  2  0  0  0  0
  5  4  1  0  0  0  0
  5  3  1  0  0  0  0
  6  1  1  0  0  0  0
  7  6  2  0  0  0  0
  8  2  1  0  0  0  0
  9  7  1  0  0  0  0
  9 17  1  0  0  0  0
 10  4  1  0  0  0  0
 12 11  2  0  0  0  0
 12 13  1  0  0  0  0
 13 16  1  0  0  0  0
 14 16  2  0  0  0  0
 16 15  1  0  0  0  0
 17 18  1  0  0  0  0
 18 19  1  0  0  0  0
 19 20  1  0  0  0  0
 20 24  2  0  0  0  0
 20 23  1  0  0  0  0
 22 21  2  0  0  0  0
 23 22  1  0  0  0  0
 24 25  1  0  0  0  0
 25 26  2  0  0  0  0
 26 21  1  0  0  0  0
 27  5  1  0  0  0  0
 28 33  1  0  0  0  0
 29 31  1  0  0  0  0
 29 28  2  0  0  0  0
 31 32  2  0  0  0  0
 32 30  1  0  0  0  0
 33 30  2  0  0  0  0
 33 27  1  0  0  0  0
 34 35  1  0  0  0  0
 35 36  2  0  0  0  0
 35 31  1  0  0  0  0
 37 34  1  0  0  0  0
M  END
>  <MODEL>
7

>  <REMARK>
 VINA RESULT:      -8.0      3.785      5.523
  Name = 
  10 active torsions:
  status: ('A' for Active; 'I' for Inactive)
    1  A    between atoms: C_5  and  C_37
    2  A    between atoms: C_10  and  C_22
    3  A    between atoms: C_10  and  C_33
    4  A    between atoms: C_12  and  O_35
    5  A    between atoms: C_14  and  C_21
    6  A    between atoms: N_16  and  N_34
    7  A    between atoms: C_22  and  O_35
    8  A    between atoms: C_29  and  C_31
    9  A    between atoms: C_29  and  C_37
   10  A    between atoms: C_32  and  N_34
                            x       y       z     vdW  Elec       q    Type
                         _______ _______ _______ _____ _____    ______ ____

>  <TORSDO>
F 10

$$$$
=
 OpenBabel10232412373D

 37 40  0  0  0  0  0  0  0  0999 V2000
  184.5890  178.8550  143.0290 C   0  0  0  0  0  0  0  0  0  0  0  0
  183.4370  178.6550  142.2300 C   0  0  0  0  0  3  0  0  0  0  0  0
  184.8180  178.4570  140.2810 C   0  0  0  0  0  0  0  0  0  0  0  0
  186.5190  178.2600  138.9530 C   0  0  0  0  0  0  0  0  0  0  0  0
  185.1680  178.2560  138.9930 N   0  0  0  0  0  0  0  0  0  0  0  0
  185.8660  178.8290  142.4310 C   0  0  0  0  0  3  0  0  0  0  0  0
  185.9410  178.6240  141.0550 C   0  0  0  0  0  0  0  0  0  0  0  0
  183.5420  178.4460  140.8440 C   0  0  0  0  0  3  0  0  0  0  0  0
  187.0360  178.4990  140.2220 C   0  0  0  0  0  0  0  0  0  0  0  0
  187.3230  178.0400  137.7150 C   0  0  0  0  0  1  0  0  0  0  0  0
  183.3340  178.9070  145.0430 O   0  0  0  0  0  0  0  0  0  0  0  0
  184.4490  179.0800  144.4820 C   0  0  0  0  0  0  0  0  0  0  0  0
  185.6070  179.5390  145.3080 C   0  0  0  0  0  2  0  0  0  0  0  0
  185.6070  179.4030  147.6870 O   0  0  0  0  0  1  0  0  0  0  0  0
  185.7300  177.3980  146.5820 O   0  0  0  0  0  0  0  0  0  0  0  0
  185.6590  178.7850  146.5920 C   0  0  0  0  0  0  0  0  0  0  0  0
  188.4740  178.6250  140.6020 C   0  0  0  0  0  2  0  0  0  0  0  0
  189.1310  177.2560  140.5870 C   0  0  0  0  0  2  0  0  0  0  0  0
  190.3040  177.2660  141.3950 O   0  0  0  0  0  0  0  0  0  0  0  0
  190.2990  177.0150  142.7730 C   0  0  0  0  0  0  0  0  0  0  0  0
  188.9990  177.5320  145.5130 C   0  0  0  0  0  3  0  0  0  0  0  0
  188.4150  177.1490  144.3780 C   0  0  0  0  0  3  0  0  0  0  0  0
  189.1070  176.3220  143.3460 C   0  0  0  0  0  2  0  0  0  0  0  0
  191.3510  177.3390  143.5370 C   0  0  0  0  0  3  0  0  0  0  0  0
  191.4320  177.1990  145.0040 C   0  0  0  0  0  3  0  0  0  0  0  0
  190.4100  177.2850  145.8640 C   0  0  0  0  0  3  0  0  0  0  0  0
  184.3240  177.9460  137.9110 N   0  0  0  0  0  2  0  0  0  0  0  0
  184.6220  176.0380  136.4190 C   0  0  0  0  0  3  0  0  0  0  0  0
  184.2760  174.7530  135.9930 C   0  0  0  0  0  3  0  0  0  0  0  0
  182.9660  175.9020  138.1760 C   0  0  0  0  0  3  0  0  0  0  0  0
  183.2760  174.0300  136.6590 C   0  0  0  0  0  0  0  0  0  0  0  0
  182.6200  174.6170  137.7520 C   0  0  0  0  0  3  0  0  0  0  0  0
  183.9800  176.6120  137.5200 C   0  0  0  0  0  0  0  0  0  0  0  0
  183.6840  171.5480  136.6370 N   0  0  0  0  0  2  0  0  0  0  0  0
  182.9140  172.6740  136.2120 C   0  0  0  0  0  0  0  0  0  0  0  0
  181.9220  172.5030  135.4500 O   0  0  0  0  0  0  0  0  0  0  0  0
  183.3580  170.2510  136.2220 N   0  0  0  0  0  1  0  0  0  0  0  0
  1 12  1  0  0  0  0
  2  1  2  0  0  0  0
  3  8  2  0  0  0  0
  3  7  1  0  0  0  0
  4  5  1  0  0  0  0
  4  9  2  0  0  0  0
  5  3  1  0  0  0  0
  6  1  1  0  0  0  0
  7  6  2  0  0  0  0
  8  2  1  0  0  0  0
  9 17  1  0  0  0  0
  9  7  1  0  0  0  0
 10  4  1  0  0  0  0
 12 11  2  0  0  0  0
 12 13  1  0  0  0  0
 13 16  1  0  0  0  0
 15 16  2  0  0  0  0
 16 14  1  0  0  0  0
 18 17  1  0  0  0  0
 18 19  1  0  0  0  0
 19 20  1  0  0  0  0
 20 23  1  0  0  0  0
 20 24  2  0  0  0  0
 21 26  1  0  0  0  0
 22 21  2  0  0  0  0
 23 22  1  0  0  0  0
 24 25  1  0  0  0  0
 25 26  2  0  0  0  0
 27  5  1  0  0  0  0
 28 33  1  0  0  0  0
 29 28  2  0  0  0  0
 29 31  1  0  0  0  0
 31 32  2  0  0  0  0
 32 30  1  0  0  0  0
 33 27  1  0  0  0  0
 33 30  2  0  0  0  0
 35 34  1  0  0  0  0
 35 31  1  0  0  0  0
 36 35  2  0  0  0  0
 37 34  1  0  0  0  0
M  END
>  <MODEL>
8

>  <REMARK>
 VINA RESULT:      -7.9      3.328      6.708
  Name = 
  10 active torsions:
  status: ('A' for Active; 'I' for Inactive)
    1  A    between atoms: C_5  and  C_37
    2  A    between atoms: C_10  and  C_22
    3  A    between atoms: C_10  and  C_33
    4  A    between atoms: C_12  and  O_35
    5  A    between atoms: C_14  and  C_21
    6  A    between atoms: N_16  and  N_34
    7  A    between atoms: C_22  and  O_35
    8  A    between atoms: C_29  and  C_31
    9  A    between atoms: C_29  and  C_37
   10  A    between atoms: C_32  and  N_34
                            x       y       z     vdW  Elec       q    Type
                         _______ _______ _______ _____ _____    ______ ____

>  <TORSDO>
F 10

$$$$
=
 OpenBabel10232412373D

 37 40  0  0  0  0  0  0  0  0999 V2000
  184.7660  178.7280  144.8710 C   0  0  0  0  0  0  0  0  0  0  0  0
  183.4420  178.7390  144.3690 C   0  0  0  0  0  3  0  0  0  0  0  0
  184.2870  178.8300  142.1280 C   0  0  0  0  0  0  0  0  0  0  0  0
  185.5910  178.7920  140.3970 C   0  0  0  0  0  0  0  0  0  0  0  0
  184.2950  178.8510  140.7790 N   0  0  0  0  0  0  0  0  0  0  0  0
  185.8530  178.7450  143.9710 C   0  0  0  0  0  3  0  0  0  0  0  0
  185.5740  178.7930  142.6080 C   0  0  0  0  0  0  0  0  0  0  0  0
  183.1900  178.7830  142.9870 C   0  0  0  0  0  3  0  0  0  0  0  0
  186.4190  178.7660  141.5150 C   0  0  0  0  0  0  0  0  0  0  0  0
  186.0480  178.7610  138.9780 C   0  0  0  0  0  1  0  0  0  0  0  0
  184.1550  178.1520  147.0910 O   0  0  0  0  0  0  0  0  0  0  0  0
  185.0020  178.6890  146.3280 C   0  0  0  0  0  0  0  0  0  0  0  0
  186.2260  179.3030  146.9300 C   0  0  0  0  0  2  0  0  0  0  0  0
  187.9450  178.4820  148.3600 O   0  0  0  0  0  1  0  0  0  0  0  0
  187.1210  176.9770  146.8410 O   0  0  0  0  0  0  0  0  0  0  0  0
  187.1540  178.2420  147.4130 C   0  0  0  0  0  0  0  0  0  0  0  0
  187.9110  178.7440  141.5330 C   0  0  0  0  0  2  0  0  0  0  0  0
  188.4080  177.3370  141.2500 C   0  0  0  0  0  2  0  0  0  0  0  0
  188.5800  176.6240  142.4710 O   0  0  0  0  0  0  0  0  0  0  0  0
  189.6070  176.8890  143.3860 C   0  0  0  0  0  0  0  0  0  0  0  0
  191.8720  175.7930  145.1550 C   0  0  0  0  0  3  0  0  0  0  0  0
  191.6570  175.5780  143.8570 C   0  0  0  0  0  3  0  0  0  0  0  0
  191.0060  176.5820  142.9650 C   0  0  0  0  0  2  0  0  0  0  0  0
  189.3440  177.4490  144.5750 C   0  0  0  0  0  3  0  0  0  0  0  0
  190.3240  177.7030  145.6490 C   0  0  0  0  0  3  0  0  0  0  0  0
  191.4220  176.9810  145.9040 C   0  0  0  0  0  3  0  0  0  0  0  0
  183.1900  178.7900  139.9100 N   0  0  0  0  0  2  0  0  0  0  0  0
  181.2570  177.3090  139.7450 C   0  0  0  0  0  3  0  0  0  0  0  0
  180.6690  176.1080  139.3420 C   0  0  0  0  0  3  0  0  0  0  0  0
  183.3590  176.6040  138.7760 C   0  0  0  0  0  3  0  0  0  0  0  0
  181.4180  175.1470  138.6490 C   0  0  0  0  0  0  0  0  0  0  0  0
  182.7700  175.4030  138.3720 C   0  0  0  0  0  3  0  0  0  0  0  0
  182.5990  177.5690  139.4510 C   0  0  0  0  0  0  0  0  0  0  0  0
  181.1000  173.3290  136.9400 N   0  0  0  0  0  2  0  0  0  0  0  0
  180.7960  173.8820  138.2220 C   0  0  0  0  0  0  0  0  0  0  0  0
  179.9930  173.2820  138.9880 O   0  0  0  0  0  0  0  0  0  0  0  0
  180.5190  172.1290  136.5140 N   0  0  0  0  0  1  0  0  0  0  0  0
  1 12  1  0  0  0  0
  2  1  1  0  0  0  0
  3  7  2  0  0  0  0
  3  8  1  0  0  0  0
  4  5  1  0  0  0  0
  4  9  2  0  0  0  0
  5  3  1  0  0  0  0
  6  1  2  0  0  0  0
  7  6  1  0  0  0  0
  8  2  2  0  0  0  0
  9 17  1  0  0  0  0
  9  7  1  0  0  0  0
 10  4  1  0  0  0  0
 12 13  1  0  0  0  0
 12 11  2  0  0  0  0
 13 16  1  0  0  0  0
 15 16  2  0  0  0  0
 16 14  1  0  0  0  0
 18 17  1  0  0  0  0
 18 19  1  0  0  0  0
 19 20  1  0  0  0  0
 20 24  2  0  0  0  0
 21 26  1  0  0  0  0
 22 21  2  0  0  0  0
 23 20  1  0  0  0  0
 23 22  1  0  0  0  0
 24 25  1  0  0  0  0
 25 26  2  0  0  0  0
 27  5  1  0  0  0  0
 29 28  2  0  0  0  0
 30 33  2  0  0  0  0
 31 29  1  0  0  0  0
 32 31  2  0  0  0  0
 32 30  1  0  0  0  0
 33 28  1  0  0  0  0
 33 27  1  0  0  0  0
 34 35  1  0  0  0  0
 35 31  1  0  0  0  0
 35 36  2  0  0  0  0
 37 34  1  0  0  0  0
M  END
>  <MODEL>
9

>  <REMARK>
 VINA RESULT:      -7.9      3.882      6.986
  Name = 
  10 active torsions:
  status: ('A' for Active; 'I' for Inactive)
    1  A    between atoms: C_5  and  C_37
    2  A    between atoms: C_10  and  C_22
    3  A    between atoms: C_10  and  C_33
    4  A    between atoms: C_12  and  O_35
    5  A    between atoms: C_14  and  C_21
    6  A    between atoms: N_16  and  N_34
    7  A    between atoms: C_22  and  O_35
    8  A    between atoms: C_29  and  C_31
    9  A    between atoms: C_29  and  C_37
   10  A    between atoms: C_32  and  N_34
                            x       y       z     vdW  Elec       q    Type
                         _______ _______ _______ _____ _____    ______ ____

>  <TORSDO>
F 10

$$$$
