=
 OpenBabel10232410413D

 50 57  0  0  1  0  0  0  0  0999 V2000
  191.2160  175.7980  143.7540 C   0  0  0  0  0  2  0  0  0  0  0  0
  191.7840  176.8850  142.8430 C   0  0  0  0  0  2  0  0  0  0  0  0
  189.3380  176.1060  141.0660 O   0  0  0  0  0  0  0  0  0  0  0  0
  189.8040  178.3120  143.1460 C   0  0  0  0  0  2  0  0  0  0  0  0
  190.1260  177.0900  141.0170 C   0  0  0  0  0  0  0  0  0  0  0  0
  190.6820  177.6080  142.2230 N   0  0  0  0  0  0  0  0  0  0  0  0
  189.2950  177.3760  144.2210 C   0  0  0  0  0  0  0  0  0  0  0  0
  189.9850  176.2560  144.5040 C   0  0  0  0  0  3  0  0  0  0  0  0
  186.7660  177.9000  144.3710 C   0  0  0  0  0  0  0  0  0  0  0  0
  188.1250  177.9530  146.3580 C   0  0  0  0  0  0  0  0  0  0  0  0
  185.8210  178.5040  146.5290 N   0  0  0  0  0  0  0  0  0  0  0  0
  189.1690  177.8820  147.1500 O   0  0  0  0  0  0  0  0  0  0  0  0
  187.4140  178.4840  148.3980 C   0  0  0  0  0  3  0  0  0  0  0  0
  188.0540  177.7280  144.9740 C   0  0  0  0  0  0  0  0  0  0  0  0
  185.6750  178.3060  145.1890 C   0  0  0  0  0  3  0  0  0  0  0  0
  187.0390  178.3160  147.0870 C   0  0  0  0  0  0  0  0  0  0  0  0
  188.7820  178.1890  148.3760 C   0  0  0  0  0  3  0  0  0  0  0  0
  186.9930  178.8590  142.0060 C   0  0  0  0  0  2  0  0  0  0  0  0
  185.5220  178.5260  142.1980 C   0  0  1  0  0  0  0  0  0  0  0  0
  186.5740  177.6630  142.8780 C   0  0  2  0  0  3  0  0  0  0  0  0
  184.8060  179.3940  143.0360 O   0  0  0  0  0  1  0  0  0  0  0  0
  184.8030  177.8730  141.0210 C   0  0  0  0  0  2  0  0  0  0  0  0
  185.1850  176.6760  136.7260 C   0  0  0  0  0  0  0  0  0  0  0  0
  186.7820  178.0830  135.4780 C   0  0  0  0  0  1  0  0  0  0  0  0
  186.5860  178.1430  137.9500 C   0  0  0  0  0  2  0  0  0  0  0  0
  184.3710  177.1380  137.8700 C   0  0  0  0  0  2  0  0  0  0  0  0
  184.7880  179.9420  139.8320 O   0  0  0  0  0  0  0  0  0  0  0  0
  184.7540  175.9560  135.8360 O   0  0  0  0  0  0  0  0  0  0  0  0
  186.5650  177.2430  136.7210 C   0  0  1  0  0  3  0  0  0  0  0  0
  185.2580  178.0670  138.5410 N   0  0  0  0  0  0  0  0  0  0  0  0
  184.9350  178.6920  139.7780 C   0  0  0  0  0  0  0  0  0  0  0  0
  190.5450  177.6640  139.6980 C   0  0  1  0  0  3  0  0  0  0  0  0
  191.9700  177.4650  139.5160 N   0  0  0  0  0  1  0  0  0  0  0  0
  189.7990  177.0150  138.5420 C   0  0  0  0  0  2  0  0  0  0  0  0
  190.7450  176.6600  137.4030 C   0  0  0  0  0  2  0  0  0  0  0  0
  190.3590  175.3290  136.7820 C   0  0  0  0  0  2  0  0  0  0  0  0
  191.3540  174.2600  137.2100 C   0  0  0  0  0  2  0  0  0  0  0  0
  192.4860  174.8310  137.8200 O   0  0  0  0  0  0  0  0  0  0  0  0
  194.2630  173.1550  135.2250 C   0  0  0  0  0  2  0  0  0  0  0  0
  194.4240  176.3740  136.5320 O   0  0  0  0  0  1  0  0  0  0  0  0
  196.4710  172.7990  136.9590 C   0  0  2  0  0  3  0  0  0  0  0  0
  196.5850  173.6840  135.8620 O   0  0  0  0  0  0  0  0  0  0  0  0
  195.3110  174.2290  135.5390 C   0  0  2  0  0  3  0  0  0  0  0  0
  194.9420  174.5070  138.1160 C   0  0  1  0  0  0  0  0  0  0  0  0
  196.1230  173.5320  138.2600 C   0  0  0  0  0  2  0  0  0  0  0  0
  197.7710  172.0360  137.1440 C   0  0  0  0  0  1  0  0  0  0  0  0
  193.5140  172.9010  136.5290 C   0  0  0  0  0  2  0  0  0  0  0  0
  194.7480  175.0280  136.7060 C   0  0  1  0  0  0  0  0  0  0  0  0
  193.6520  174.1840  137.3440 C   0  0  1  0  0  0  0  0  0  0  0  0
  194.8410  175.5080  139.0840 O   0  0  0  0  0  1  0  0  0  0  0  0
  1  8  1  0  0  0  0
  2  1  1  0  0  0  0
  4  7  1  0  0  0  0
  5  3  2  0  0  0  0
  5  6  1  0  0  0  0
  6  2  1  0  0  0  0
  6  4  1  0  0  0  0
  7  8  2  0  0  0  0
  7 14  1  0  0  0  0
  9 14  2  0  0  0  0
  9 15  1  0  0  0  0
 10 16  2  0  0  0  0
 10 12  1  0  0  0  0
 11 16  1  0  0  0  0
 12 17  1  0  0  0  0
 14 10  1  0  0  0  0
 15 11  2  0  0  0  0
 16 13  1  0  0  0  0
 17 13  2  0  0  0  0
 18 19  1  0  0  0  0
 18 20  1  0  0  0  0
 19 20  1  0  0  0  0
 19 21  1  1  0  0  0
 20  9  1  1  0  0  0
 22 19  1  0  0  0  0
 23 26  1  0  0  0  0
 25 30  1  0  0  0  0
 26 30  1  0  0  0  0
 28 23  2  0  0  0  0
 29 24  1  6  0  0  0
 29 23  1  0  0  0  0
 29 25  1  0  0  0  0
 30 31  1  0  0  0  0
 31 27  2  0  0  0  0
 31 22  1  0  0  0  0
 32 33  1  6  0  0  0
 32  5  1  0  0  0  0
 34 32  1  0  0  0  0
 35 34  1  0  0  0  0
 36 37  1  0  0  0  0
 36 35  1  0  0  0  0
 37 38  1  0  0  0  0
 39 47  1  0  0  0  0
 41 46  1  1  0  0  0
 41 45  1  0  0  0  0
 42 41  1  0  0  0  0
 43 39  1  1  0  0  0
 43 42  1  0  0  0  0
 43 48  1  0  0  0  0
 44 45  1  0  0  0  0
 44 50  1  1  0  0  0
 47 49  1  0  0  0  0
 48 40  1  6  0  0  0
 48 49  1  0  0  0  0
 48 44  1  0  0  0  0
 49 38  1  1  0  0  0
 49 44  1  0  0  0  0
M  END
>  <MODEL>
1

>  <REMARK>
 VINA RESULT:      -9.0      0.000      0.000
  Name = 
  11 active torsions:
  status: ('A' for Active; 'I' for Inactive)
    1  A    between atoms: C_1  and  C_25
    2  A    between atoms: C_3  and  C_43
    3  A    between atoms: C_3  and  C_44
    4  A    between atoms: C_9  and  C_33
    5  A    between atoms: C_12  and  C_28
    6  A    between atoms: C_12  and  C_34
    7  A    between atoms: C_24  and  C_49
    8  A    between atoms: C_28  and  C_43
    9  A    between atoms: C_33  and  C_48
   10  A    between atoms: C_34  and  O_36
   11  A    between atoms: O_36  and  C_40
                            x       y       z     vdW  Elec       q    Type
                         _______ _______ _______ _____ _____    ______ ____

>  <TORSDO>
F 11

$$$$
=
 OpenBabel10232410413D

 50 57  0  0  1  0  0  0  0  0999 V2000
  190.1170  175.5530  142.8310 C   0  0  0  0  0  2  0  0  0  0  0  0
  190.8710  176.6770  142.1220 C   0  0  0  0  0  2  0  0  0  0  0  0
  188.2580  176.8040  140.4170 O   0  0  0  0  0  0  0  0  0  0  0  0
  189.2470  178.3680  142.8640 C   0  0  0  0  0  2  0  0  0  0  0  0
  189.2330  177.5990  140.5110 C   0  0  0  0  0  0  0  0  0  0  0  0
  189.9260  177.7220  141.7510 N   0  0  0  0  0  0  0  0  0  0  0  0
  188.5890  177.3420  143.7600 C   0  0  0  0  0  0  0  0  0  0  0  0
  189.0360  176.0730  143.7520 C   0  0  0  0  0  3  0  0  0  0  0  0
  186.1370  178.0250  144.2240 C   0  0  0  0  0  0  0  0  0  0  0  0
  187.7300  177.9590  146.0300 C   0  0  0  0  0  0  0  0  0  0  0  0
  185.5050  178.6540  146.4880 N   0  0  0  0  0  0  0  0  0  0  0  0
  188.8560  177.8080  146.6860 O   0  0  0  0  0  0  0  0  0  0  0  0
  187.3100  178.5020  148.1460 C   0  0  0  0  0  3  0  0  0  0  0  0
  187.4750  177.7610  144.6630 C   0  0  0  0  0  0  0  0  0  0  0  0
  185.1830  178.4880  145.1740 C   0  0  0  0  0  3  0  0  0  0  0  0
  186.7680  178.3800  146.8890 C   0  0  0  0  0  0  0  0  0  0  0  0
  188.6430  178.1200  147.9520 C   0  0  0  0  0  3  0  0  0  0  0  0
  185.9910  179.0640  141.8870 C   0  0  0  0  0  2  0  0  0  0  0  0
  184.5770  178.6590  142.2690 C   0  0  1  0  0  0  0  0  0  0  0  0
  185.7490  177.8250  142.7640 C   0  0  2  0  0  3  0  0  0  0  0  0
  183.9490  179.4660  143.2280 O   0  0  0  0  0  1  0  0  0  0  0  0
  183.7280  178.0080  141.1790 C   0  0  0  0  0  2  0  0  0  0  0  0
  183.4590  176.4220  137.0040 C   0  0  0  0  0  0  0  0  0  0  0  0
  185.2170  177.3180  135.5230 C   0  0  0  0  0  1  0  0  0  0  0  0
  185.2550  177.6160  137.9860 C   0  0  0  0  0  2  0  0  0  0  0  0
  182.8710  177.1490  138.1490 C   0  0  0  0  0  2  0  0  0  0  0  0
  184.0760  179.9240  139.8000 O   0  0  0  0  0  0  0  0  0  0  0  0
  182.8020  175.7540  136.2170 O   0  0  0  0  0  0  0  0  0  0  0  0
  184.9250  176.6510  136.8530 C   0  0  1  0  0  3  0  0  0  0  0  0
  183.9990  177.8960  138.6670 N   0  0  0  0  0  0  0  0  0  0  0  0
  183.9330  178.6740  139.8570 C   0  0  0  0  0  0  0  0  0  0  0  0
  189.7200  178.3510  139.3100 C   0  0  1  0  0  3  0  0  0  0  0  0
  190.9040  177.7010  138.7810 N   0  0  0  0  0  1  0  0  0  0  0  0
  188.6590  178.4150  138.2210 C   0  0  0  0  0  2  0  0  0  0  0  0
  189.2880  178.5610  136.8430 C   0  0  0  0  0  2  0  0  0  0  0  0
  188.7950  177.4680  135.9110 C   0  0  0  0  0  2  0  0  0  0  0  0
  189.9800  176.8360  135.1960 C   0  0  0  0  0  2  0  0  0  0  0  0
  189.9340  175.4330  135.2710 O   0  0  0  0  0  0  0  0  0  0  0  0
  193.1690  175.9630  136.6680 C   0  0  0  0  0  2  0  0  0  0  0  0
  190.2530  174.5150  137.8890 O   0  0  0  0  0  1  0  0  0  0  0  0
  193.8200  173.2470  136.2090 C   0  0  2  0  0  3  0  0  0  0  0  0
  193.6550  173.7070  137.5360 O   0  0  0  0  0  0  0  0  0  0  0  0
  192.7400  174.7970  137.5660 C   0  0  2  0  0  3  0  0  0  0  0  0
  191.2780  173.4220  135.8850 C   0  0  1  0  0  0  0  0  0  0  0  0
  192.5480  172.5830  135.6660 C   0  0  0  0  0  2  0  0  0  0  0  0
  194.9700  172.2590  136.1440 C   0  0  0  0  0  1  0  0  0  0  0  0
  192.4520  175.7580  135.3380 C   0  0  0  0  0  2  0  0  0  0  0  0
  191.3680  174.3710  137.0640 C   0  0  1  0  0  0  0  0  0  0  0  0
  191.2040  174.9420  135.6610 C   0  0  1  0  0  0  0  0  0  0  0  0
  190.0630  172.7360  135.8320 O   0  0  0  0  0  1  0  0  0  0  0  0
  1  8  1  0  0  0  0
  2  1  1  0  0  0  0
  3  5  2  0  0  0  0
  4  7  1  0  0  0  0
  5  6  1  0  0  0  0
  6  2  1  0  0  0  0
  6  4  1  0  0  0  0
  7 14  1  0  0  0  0
  8  7  2  0  0  0  0
  9 14  2  0  0  0  0
  9 15  1  0  0  0  0
 10 12  1  0  0  0  0
 10 16  2  0  0  0  0
 11 16  1  0  0  0  0
 12 17  1  0  0  0  0
 14 10  1  0  0  0  0
 15 11  2  0  0  0  0
 16 13  1  0  0  0  0
 17 13  2  0  0  0  0
 18 19  1  0  0  0  0
 18 20  1  0  0  0  0
 19 20  1  0  0  0  0
 19 21  1  1  0  0  0
 20  9  1  1  0  0  0
 22 19  1  0  0  0  0
 23 26  1  0  0  0  0
 25 30  1  0  0  0  0
 26 30  1  0  0  0  0
 27 31  2  0  0  0  0
 28 23  2  0  0  0  0
 29 24  1  6  0  0  0
 29 23  1  0  0  0  0
 29 25  1  0  0  0  0
 30 31  1  0  0  0  0
 31 22  1  0  0  0  0
 32 33  1  6  0  0  0
 32  5  1  0  0  0  0
 34 32  1  0  0  0  0
 35 34  1  0  0  0  0
 36 35  1  0  0  0  0
 37 38  1  0  0  0  0
 37 36  1  0  0  0  0
 41 46  1  1  0  0  0
 41 42  1  0  0  0  0
 42 43  1  0  0  0  0
 43 39  1  6  0  0  0
 44 50  1  6  0  0  0
 44 48  1  0  0  0  0
 45 44  1  0  0  0  0
 45 41  1  0  0  0  0
 47 49  1  0  0  0  0
 47 39  1  0  0  0  0
 48 43  1  0  0  0  0
 48 40  1  1  0  0  0
 49 38  1  6  0  0  0
 49 44  1  0  0  0  0
 49 48  1  0  0  0  0
M  END
>  <MODEL>
2

>  <REMARK>
 VINA RESULT:      -9.0      1.487      2.325
  Name = 
  11 active torsions:
  status: ('A' for Active; 'I' for Inactive)
    1  A    between atoms: C_1  and  C_25
    2  A    between atoms: C_3  and  C_43
    3  A    between atoms: C_3  and  C_44
    4  A    between atoms: C_9  and  C_33
    5  A    between atoms: C_12  and  C_28
    6  A    between atoms: C_12  and  C_34
    7  A    between atoms: C_24  and  C_49
    8  A    between atoms: C_28  and  C_43
    9  A    between atoms: C_33  and  C_48
   10  A    between atoms: C_34  and  O_36
   11  A    between atoms: O_36  and  C_40
                            x       y       z     vdW  Elec       q    Type
                         _______ _______ _______ _____ _____    ______ ____

>  <TORSDO>
F 11

$$$$
=
 OpenBabel10232410413D

 50 57  0  0  1  0  0  0  0  0999 V2000
  184.1300  179.2830  144.9850 C   0  0  0  0  0  2  0  0  0  0  0  0
  183.6150  178.4550  143.8080 C   0  0  0  0  0  2  0  0  0  0  0  0
  185.6730  180.1820  142.2180 O   0  0  0  0  0  0  0  0  0  0  0  0
  185.8040  177.3860  143.4740 C   0  0  0  0  0  2  0  0  0  0  0  0
  185.0380  179.1390  141.9020 C   0  0  0  0  0  0  0  0  0  0  0  0
  184.7220  178.1750  142.9040 N   0  0  0  0  0  0  0  0  0  0  0  0
  186.3040  178.0100  144.7580 C   0  0  0  0  0  0  0  0  0  0  0  0
  185.4990  178.8400  145.4480 C   0  0  0  0  0  3  0  0  0  0  0  0
  188.7090  177.1080  144.4480 C   0  0  0  0  0  0  0  0  0  0  0  0
  187.9750  177.8540  146.6170 C   0  0  0  0  0  0  0  0  0  0  0  0
  190.1690  176.9730  146.3890 N   0  0  0  0  0  0  0  0  0  0  0  0
  187.2120  178.3280  147.5730 O   0  0  0  0  0  0  0  0  0  0  0  0
  189.1850  177.7970  148.4830 C   0  0  0  0  0  3  0  0  0  0  0  0
  187.6690  177.6680  145.2590 C   0  0  0  0  0  0  0  0  0  0  0  0
  189.9450  176.7590  145.0620 C   0  0  0  0  0  3  0  0  0  0  0  0
  189.1840  177.5220  147.1360 C   0  0  0  0  0  0  0  0  0  0  0  0
  187.9020  178.3120  148.7010 C   0  0  0  0  0  3  0  0  0  0  0  0
  189.6600  176.1680  142.2620 C   0  0  0  0  0  2  0  0  0  0  0  0
  189.4110  177.6480  142.0240 C   0  0  1  0  0  0  0  0  0  0  0  0
  188.4880  176.8800  142.9580 C   0  0  2  0  0  3  0  0  0  0  0  0
  190.3150  178.5250  142.6410 O   0  0  0  0  0  1  0  0  0  0  0  0
  188.8030  178.0380  140.6790 C   0  0  0  0  0  2  0  0  0  0  0  0
  188.0240  177.6160  136.2930 C   0  0  0  0  0  0  0  0  0  0  0  0
  189.2380  175.7200  135.2820 C   0  0  0  0  0  1  0  0  0  0  0  0
  189.0670  176.0520  137.7350 C   0  0  0  0  0  2  0  0  0  0  0  0
  188.5030  178.4020  137.4500 C   0  0  0  0  0  2  0  0  0  0  0  0
  190.9540  177.6100  139.7400 O   0  0  0  0  0  0  0  0  0  0  0  0
  187.4960  178.1140  135.3080 O   0  0  0  0  0  0  0  0  0  0  0  0
  188.3230  176.1590  136.4090 C   0  0  1  0  0  3  0  0  0  0  0  0
  189.1740  177.4060  138.2590 N   0  0  0  0  0  0  0  0  0  0  0  0
  189.7120  177.6870  139.5470 C   0  0  0  0  0  0  0  0  0  0  0  0
  184.5420  178.9450  140.5020 C   0  0  1  0  0  3  0  0  0  0  0  0
  185.6690  178.7050  139.6200 N   0  0  0  0  0  1  0  0  0  0  0  0
  183.5760  177.7740  140.4060 C   0  0  0  0  0  2  0  0  0  0  0  0
  182.3060  178.1630  139.6620 C   0  0  0  0  0  2  0  0  0  0  0  0
  182.2460  177.4750  138.3090 C   0  0  0  0  0  2  0  0  0  0  0  0
  182.6710  176.0210  138.4600 C   0  0  0  0  0  2  0  0  0  0  0  0
  183.7370  175.7080  137.5970 O   0  0  0  0  0  0  0  0  0  0  0  0
  181.8870  173.7930  135.2300 C   0  0  0  0  0  2  0  0  0  0  0  0
  185.0900  175.1460  135.2210 O   0  0  0  0  0  1  0  0  0  0  0  0
  183.3300  171.4730  135.9690 C   0  0  2  0  0  3  0  0  0  0  0  0
  183.5340  172.0400  134.6900 O   0  0  0  0  0  0  0  0  0  0  0  0
  183.2940  173.4420  134.7320 C   0  0  2  0  0  3  0  0  0  0  0  0
  184.6090  173.4490  136.9960 C   0  0  1  0  0  0  0  0  0  0  0  0
  184.3910  171.9270  136.9790 C   0  0  0  0  0  2  0  0  0  0  0  0
  183.3440  169.9580  135.8710 C   0  0  0  0  0  1  0  0  0  0  0  0
  182.0200  174.0520  136.7260 C   0  0  0  0  0  2  0  0  0  0  0  0
  184.2560  174.1320  135.6890 C   0  0  1  0  0  0  0  0  0  0  0  0
  183.4680  174.4800  136.9460 C   0  0  1  0  0  0  0  0  0  0  0  0
  185.8160  173.8990  137.5340 O   0  0  0  0  0  1  0  0  0  0  0  0
  1  8  1  0  0  0  0
  2  1  1  0  0  0  0
  4  7  1  0  0  0  0
  5  3  2  0  0  0  0
  5  6  1  0  0  0  0
  6  4  1  0  0  0  0
  6  2  1  0  0  0  0
  7 14  1  0  0  0  0
  7  8  2  0  0  0  0
  9 15  2  0  0  0  0
  9 14  1  0  0  0  0
 10 16  1  0  0  0  0
 10 12  1  0  0  0  0
 11 16  2  0  0  0  0
 12 17  1  0  0  0  0
 13 17  2  0  0  0  0
 14 10  2  0  0  0  0
 15 11  1  0  0  0  0
 16 13  1  0  0  0  0
 18 20  1  0  0  0  0
 19 18  1  0  0  0  0
 19 21  1  1  0  0  0
 19 20  1  0  0  0  0
 20  9  1  1  0  0  0
 22 19  1  0  0  0  0
 23 29  1  0  0  0  0
 23 26  1  0  0  0  0
 25 30  1  0  0  0  0
 26 30  1  0  0  0  0
 28 23  2  0  0  0  0
 29 24  1  6  0  0  0
 29 25  1  0  0  0  0
 30 31  1  0  0  0  0
 31 27  2  0  0  0  0
 31 22  1  0  0  0  0
 32 33  1  6  0  0  0
 32  5  1  0  0  0  0
 34 32  1  0  0  0  0
 35 34  1  0  0  0  0
 36 37  1  0  0  0  0
 36 35  1  0  0  0  0
 38 37  1  0  0  0  0
 39 47  1  0  0  0  0
 41 46  1  6  0  0  0
 41 45  1  0  0  0  0
 42 43  1  0  0  0  0
 42 41  1  0  0  0  0
 43 39  1  1  0  0  0
 43 48  1  0  0  0  0
 44 50  1  1  0  0  0
 45 44  1  0  0  0  0
 47 49  1  0  0  0  0
 48 40  1  6  0  0  0
 48 49  1  0  0  0  0
 48 44  1  0  0  0  0
 49 44  1  0  0  0  0
 49 38  1  1  0  0  0
M  END
>  <MODEL>
3

>  <REMARK>
 VINA RESULT:      -8.9      3.608      7.282
  Name = 
  11 active torsions:
  status: ('A' for Active; 'I' for Inactive)
    1  A    between atoms: C_1  and  C_25
    2  A    between atoms: C_3  and  C_43
    3  A    between atoms: C_3  and  C_44
    4  A    between atoms: C_9  and  C_33
    5  A    between atoms: C_12  and  C_28
    6  A    between atoms: C_12  and  C_34
    7  A    between atoms: C_24  and  C_49
    8  A    between atoms: C_28  and  C_43
    9  A    between atoms: C_33  and  C_48
   10  A    between atoms: C_34  and  O_36
   11  A    between atoms: O_36  and  C_40
                            x       y       z     vdW  Elec       q    Type
                         _______ _______ _______ _____ _____    ______ ____

>  <TORSDO>
F 11

$$$$
=
 OpenBabel10232410413D

 50 57  0  0  1  0  0  0  0  0999 V2000
  187.0290  175.8960  134.4140 C   0  0  0  0  0  2  0  0  0  0  0  0
  188.4530  175.3880  134.6300 C   0  0  0  0  0  2  0  0  0  0  0  0
  187.7710  175.9600  137.6220 O   0  0  0  0  0  0  0  0  0  0  0  0
  187.6680  173.4280  135.8930 C   0  0  0  0  0  2  0  0  0  0  0  0
  188.7200  175.3230  137.0900 C   0  0  0  0  0  0  0  0  0  0  0  0
  188.5020  174.6220  135.8680 N   0  0  0  0  0  0  0  0  0  0  0  0
  186.2400  173.7640  135.5240 C   0  0  0  0  0  0  0  0  0  0  0  0
  185.9840  174.8770  134.8120 C   0  0  0  0  0  3  0  0  0  0  0  0
  184.1090  173.1680  136.8640 C   0  0  0  0  0  0  0  0  0  0  0  0
  185.1070  171.5340  135.4020 C   0  0  0  0  0  0  0  0  0  0  0  0
  183.1890  170.9250  136.6640 N   0  0  0  0  0  0  0  0  0  0  0  0
  185.9280  170.9710  134.5480 O   0  0  0  0  0  0  0  0  0  0  0  0
  184.3880  169.4490  135.1100 C   0  0  0  0  0  3  0  0  0  0  0  0
  185.1400  172.8370  135.9260 C   0  0  0  0  0  0  0  0  0  0  0  0
  183.1580  172.1690  137.2180 C   0  0  0  0  0  3  0  0  0  0  0  0
  184.1560  170.6360  135.7630 C   0  0  0  0  0  0  0  0  0  0  0  0
  185.5290  169.7270  134.3470 C   0  0  0  0  0  3  0  0  0  0  0  0
  182.6870  174.8820  138.1310 C   0  0  0  0  0  2  0  0  0  0  0  0
  183.0810  175.5340  136.8160 C   0  0  1  0  0  0  0  0  0  0  0  0
  184.0420  174.5600  137.4790 C   0  0  2  0  0  3  0  0  0  0  0  0
  182.4150  175.0590  135.6770 O   0  0  0  0  0  1  0  0  0  0  0  0
  183.4970  177.0020  136.8710 C   0  0  0  0  0  2  0  0  0  0  0  0
  184.8120  178.9960  140.6550 C   0  0  0  0  0  0  0  0  0  0  0  0
  183.2210  178.6710  142.5130 C   0  0  0  0  0  1  0  0  0  0  0  0
  183.0790  177.4020  140.3860 C   0  0  0  0  0  2  0  0  0  0  0  0
  184.4370  179.0570  139.2270 C   0  0  0  0  0  2  0  0  0  0  0  0
  181.5160  178.0360  137.7090 O   0  0  0  0  0  0  0  0  0  0  0  0
  185.6330  179.7410  141.1720 O   0  0  0  0  0  0  0  0  0  0  0  0
  184.0270  177.9880  141.4250 C   0  0  1  0  0  3  0  0  0  0  0  0
  183.3460  178.1080  139.1410 N   0  0  0  0  0  0  0  0  0  0  0  0
  182.7250  177.7490  137.9100 C   0  0  0  0  0  0  0  0  0  0  0  0
  190.0940  175.3660  137.6870 C   0  0  1  0  0  3  0  0  0  0  0  0
  190.9470  174.4130  137.0030 N   0  0  0  0  0  1  0  0  0  0  0  0
  190.7090  176.7530  137.5770 C   0  0  0  0  0  2  0  0  0  0  0  0
  190.4170  177.5880  138.8160 C   0  0  0  0  0  2  0  0  0  0  0  0
  190.8400  176.8450  140.0720 C   0  0  0  0  0  2  0  0  0  0  0  0
  191.5210  177.8130  141.0300 C   0  0  0  0  0  2  0  0  0  0  0  0
  191.6590  177.2510  142.3110 O   0  0  0  0  0  0  0  0  0  0  0  0
  188.1110  177.5890  142.3070 C   0  0  0  0  0  2  0  0  0  0  0  0
  190.2500  174.9120  142.8950 O   0  0  0  0  0  1  0  0  0  0  0  0
  188.1080  177.6570  145.1360 C   0  0  2  0  0  3  0  0  0  0  0  0
  187.5610  176.5380  144.4670 O   0  0  0  0  0  0  0  0  0  0  0  0
  188.2040  176.3550  143.2120 C   0  0  2  0  0  3  0  0  0  0  0  0
  190.4510  176.8550  144.4590 C   0  0  1  0  0  0  0  0  0  0  0  0
  189.5570  177.4160  145.5770 C   0  0  0  0  0  2  0  0  0  0  0  0
  187.2630  177.9960  146.3510 C   0  0  0  0  0  1  0  0  0  0  0  0
  189.3950  178.3800  142.5370 C   0  0  0  0  0  2  0  0  0  0  0  0
  189.6920  176.0880  143.3950 C   0  0  1  0  0  0  0  0  0  0  0  0
  190.4300  177.3620  143.0070 C   0  0  1  0  0  0  0  0  0  0  0  0
  191.6210  176.2080  144.8640 O   0  0  0  0  0  1  0  0  0  0  0  0
  1  2  1  0  0  0  0
  1  8  1  0  0  0  0
  2  6  1  0  0  0  0
  5  3  2  0  0  0  0
  5 32  1  0  0  0  0
  6  4  1  0  0  0  0
  6  5  1  0  0  0  0
  7  4  1  0  0  0  0
  7 14  1  0  0  0  0
  8  7  2  0  0  0  0
  9 15  1  0  0  0  0
 10 16  2  0  0  0  0
 10 14  1  0  0  0  0
 11 15  2  0  0  0  0
 12 10  1  0  0  0  0
 13 16  1  0  0  0  0
 14  9  2  0  0  0  0
 16 11  1  0  0  0  0
 17 12  1  0  0  0  0
 17 13  2  0  0  0  0
 19 21  1  6  0  0  0
 19 22  1  0  0  0  0
 19 20  1  0  0  0  0
 19 18  1  0  0  0  0
 20  9  1  6  0  0  0
 20 18  1  0  0  0  0
 22 31  1  0  0  0  0
 23 28  2  0  0  0  0
 23 29  1  0  0  0  0
 25 29  1  0  0  0  0
 26 23  1  0  0  0  0
 27 31  2  0  0  0  0
 29 24  1  1  0  0  0
 30 26  1  0  0  0  0
 30 25  1  0  0  0  0
 31 30  1  0  0  0  0
 32 33  1  6  0  0  0
 34 32  1  0  0  0  0
 34 35  1  0  0  0  0
 35 36  1  0  0  0  0
 36 37  1  0  0  0  0
 37 38  1  0  0  0  0
 39 47  1  0  0  0  0
 41 45  1  0  0  0  0
 41 46  1  1  0  0  0
 42 41  1  0  0  0  0
 43 39  1  6  0  0  0
 43 48  1  0  0  0  0
 43 42  1  0  0  0  0
 44 50  1  1  0  0  0
 44 45  1  0  0  0  0
 47 49  1  0  0  0  0
 48 40  1  6  0  0  0
 48 44  1  0  0  0  0
 49 38  1  6  0  0  0
 49 48  1  0  0  0  0
 49 44  1  0  0  0  0
M  END
>  <MODEL>
4

>  <REMARK>
 VINA RESULT:      -8.8      3.688      8.919
  Name = 
  11 active torsions:
  status: ('A' for Active; 'I' for Inactive)
    1  A    between atoms: C_1  and  C_25
    2  A    between atoms: C_3  and  C_43
    3  A    between atoms: C_3  and  C_44
    4  A    between atoms: C_9  and  C_33
    5  A    between atoms: C_12  and  C_28
    6  A    between atoms: C_12  and  C_34
    7  A    between atoms: C_24  and  C_49
    8  A    between atoms: C_28  and  C_43
    9  A    between atoms: C_33  and  C_48
   10  A    between atoms: C_34  and  O_36
   11  A    between atoms: O_36  and  C_40
                            x       y       z     vdW  Elec       q    Type
                         _______ _______ _______ _____ _____    ______ ____

>  <TORSDO>
F 11

$$$$
=
 OpenBabel10232410413D

 50 57  0  0  1  0  0  0  0  0999 V2000
  186.2080  179.1800  146.9530 C   0  0  0  0  0  2  0  0  0  0  0  0
  185.1030  178.2510  146.4520 C   0  0  0  0  0  2  0  0  0  0  0  0
  185.6470  179.7250  143.7540 O   0  0  0  0  0  0  0  0  0  0  0  0
  186.6430  177.0750  144.9370 C   0  0  0  0  0  2  0  0  0  0  0  0
  184.9950  178.6770  144.0170 C   0  0  0  0  0  0  0  0  0  0  0  0
  185.4120  177.8380  145.0900 N   0  0  0  0  0  0  0  0  0  0  0  0
  187.8110  177.8140  145.5530 C   0  0  0  0  0  0  0  0  0  0  0  0
  187.5820  178.7410  146.5010 C   0  0  0  0  0  3  0  0  0  0  0  0
  189.6980  177.6560  143.7900 C   0  0  0  0  0  0  0  0  0  0  0  0
  190.0940  176.9120  146.0460 C   0  0  0  0  0  0  0  0  0  0  0  0
  191.8330  176.6890  144.4430 N   0  0  0  0  0  0  0  0  0  0  0  0
  189.8970  176.6290  147.3120 O   0  0  0  0  0  0  0  0  0  0  0  0
  191.9830  176.0090  146.7980 C   0  0  0  0  0  3  0  0  0  0  0  0
  189.2010  177.4790  145.1220 C   0  0  0  0  0  0  0  0  0  0  0  0
  191.0230  177.2290  143.4900 C   0  0  0  0  0  3  0  0  0  0  0  0
  191.3550  176.5490  145.7010 C   0  0  0  0  0  0  0  0  0  0  0  0
  191.0040  176.0910  147.7940 C   0  0  0  0  0  3  0  0  0  0  0  0
  187.8270  177.2880  142.0780 C   0  0  0  0  0  2  0  0  0  0  0  0
  189.0390  177.7690  141.2970 C   0  0  1  0  0  0  0  0  0  0  0  0
  188.8170  178.2780  142.7130 C   0  0  2  0  0  3  0  0  0  0  0  0
  190.0720  176.8330  141.1370 O   0  0  0  0  0  1  0  0  0  0  0  0
  188.7860  178.7880  140.1900 C   0  0  0  0  0  2  0  0  0  0  0  0
  189.7010  176.1180  136.7180 C   0  0  0  0  0  0  0  0  0  0  0  0
  188.4680  176.7450  134.6750 C   0  0  0  0  0  1  0  0  0  0  0  0
  188.5650  178.1970  136.6850 C   0  0  0  0  0  2  0  0  0  0  0  0
  189.2060  176.3200  138.0960 C   0  0  0  0  0  2  0  0  0  0  0  0
  186.6560  178.3580  139.2030 O   0  0  0  0  0  0  0  0  0  0  0  0
  190.2770  175.1040  136.3480 O   0  0  0  0  0  0  0  0  0  0  0  0
  189.3560  177.2410  135.7990 C   0  0  1  0  0  3  0  0  0  0  0  0
  188.4790  177.5690  137.9950 N   0  0  0  0  0  0  0  0  0  0  0  0
  187.9060  178.2260  139.1210 C   0  0  0  0  0  0  0  0  0  0  0  0
  183.7400  178.3530  143.2640 C   0  0  1  0  0  3  0  0  0  0  0  0
  182.6900  179.2720  143.6590 N   0  0  0  0  0  1  0  0  0  0  0  0
  183.9480  178.4510  141.7600 C   0  0  0  0  0  2  0  0  0  0  0  0
  182.6430  178.7600  141.0400 C   0  0  0  0  0  2  0  0  0  0  0  0
  182.9140  179.2720  139.6360 C   0  0  0  0  0  2  0  0  0  0  0  0
  182.3080  178.3150  138.6200 C   0  0  0  0  0  2  0  0  0  0  0  0
  183.1740  178.1100  137.5310 O   0  0  0  0  0  0  0  0  0  0  0  0
  182.2940  174.6640  137.7470 C   0  0  0  0  0  2  0  0  0  0  0  0
  182.9440  176.7960  135.0780 O   0  0  0  0  0  1  0  0  0  0  0  0
  184.9880  173.9390  137.2720 C   0  0  2  0  0  3  0  0  0  0  0  0
  184.0120  173.6720  136.2840 O   0  0  0  0  0  0  0  0  0  0  0  0
  182.9590  174.6250  136.3670 C   0  0  2  0  0  3  0  0  0  0  0  0
  184.8230  176.4350  136.6920 C   0  0  1  0  0  0  0  0  0  0  0  0
  185.7460  175.2440  136.9990 C   0  0  0  0  0  2  0  0  0  0  0  0
  185.9760  172.7890  137.3450 C   0  0  0  0  0  1  0  0  0  0  0  0
  182.9900  175.7780  138.5210 C   0  0  0  0  0  2  0  0  0  0  0  0
  183.4780  176.0350  136.1180 C   0  0  1  0  0  0  0  0  0  0  0  0
  183.5300  176.7410  137.4670 C   0  0  1  0  0  0  0  0  0  0  0  0
  185.4010  177.5130  136.0190 O   0  0  0  0  0  1  0  0  0  0  0  0
  2  1  1  0  0  0  0
  3  5  2  0  0  0  0
  4  6  1  0  0  0  0
  4  7  1  0  0  0  0
  5  6  1  0  0  0  0
  6  2  1  0  0  0  0
  7  8  2  0  0  0  0
  8  1  1  0  0  0  0
  9 14  1  0  0  0  0
 10 12  1  0  0  0  0
 11 16  2  0  0  0  0
 12 17  1  0  0  0  0
 13 17  2  0  0  0  0
 14  7  1  0  0  0  0
 14 10  2  0  0  0  0
 15  9  2  0  0  0  0
 15 11  1  0  0  0  0
 16 10  1  0  0  0  0
 16 13  1  0  0  0  0
 18 20  1  0  0  0  0
 19 21  1  6  0  0  0
 19 18  1  0  0  0  0
 19 20  1  0  0  0  0
 20  9  1  1  0  0  0
 22 19  1  0  0  0  0
 23 26  1  0  0  0  0
 25 30  1  0  0  0  0
 28 23  2  0  0  0  0
 29 24  1  6  0  0  0
 29 25  1  0  0  0  0
 29 23  1  0  0  0  0
 30 26  1  0  0  0  0
 30 31  1  0  0  0  0
 31 27  2  0  0  0  0
 31 22  1  0  0  0  0
 32 33  1  1  0  0  0
 32  5  1  0  0  0  0
 34 32  1  0  0  0  0
 35 34  1  0  0  0  0
 36 35  1  0  0  0  0
 37 36  1  0  0  0  0
 38 37  1  0  0  0  0
 39 47  1  0  0  0  0
 41 46  1  6  0  0  0
 42 43  1  0  0  0  0
 42 41  1  0  0  0  0
 43 39  1  1  0  0  0
 44 50  1  6  0  0  0
 44 45  1  0  0  0  0
 44 49  1  0  0  0  0
 45 41  1  0  0  0  0
 48 40  1  6  0  0  0
 48 43  1  0  0  0  0
 48 44  1  0  0  0  0
 48 49  1  0  0  0  0
 49 38  1  1  0  0  0
 49 47  1  0  0  0  0
M  END
>  <MODEL>
5

>  <REMARK>
 VINA RESULT:      -8.7      3.379      7.393
  Name = 
  11 active torsions:
  status: ('A' for Active; 'I' for Inactive)
    1  A    between atoms: C_1  and  C_25
    2  A    between atoms: C_3  and  C_43
    3  A    between atoms: C_3  and  C_44
    4  A    between atoms: C_9  and  C_33
    5  A    between atoms: C_12  and  C_28
    6  A    between atoms: C_12  and  C_34
    7  A    between atoms: C_24  and  C_49
    8  A    between atoms: C_28  and  C_43
    9  A    between atoms: C_33  and  C_48
   10  A    between atoms: C_34  and  O_36
   11  A    between atoms: O_36  and  C_40
                            x       y       z     vdW  Elec       q    Type
                         _______ _______ _______ _____ _____    ______ ____

>  <TORSDO>
F 11

$$$$
=
 OpenBabel10232410413D

 50 57  0  0  1  0  0  0  0  0999 V2000
  191.0430  175.7660  143.3470 C   0  0  0  0  0  2  0  0  0  0  0  0
  191.5560  176.9160  142.4820 C   0  0  0  0  0  2  0  0  0  0  0  0
  188.8970  176.3970  140.9300 O   0  0  0  0  0  0  0  0  0  0  0  0
  189.6870  178.3730  143.1390 C   0  0  0  0  0  2  0  0  0  0  0  0
  189.7180  177.3540  140.8830 C   0  0  0  0  0  0  0  0  0  0  0  0
  190.4260  177.7330  142.0600 N   0  0  0  0  0  0  0  0  0  0  0  0
  189.2580  177.3560  144.1730 C   0  0  0  0  0  0  0  0  0  0  0  0
  189.9250  176.1910  144.2710 C   0  0  0  0  0  3  0  0  0  0  0  0
  186.7680  177.8560  144.6670 C   0  0  0  0  0  0  0  0  0  0  0  0
  188.3750  177.8590  146.4620 C   0  0  0  0  0  0  0  0  0  0  0  0
  186.1100  178.3860  146.9480 N   0  0  0  0  0  0  0  0  0  0  0  0
  189.5130  177.7720  147.1080 O   0  0  0  0  0  0  0  0  0  0  0  0
  187.9330  178.3220  148.5920 C   0  0  0  0  0  3  0  0  0  0  0  0
  188.1250  177.6750  145.0920 C   0  0  0  0  0  0  0  0  0  0  0  0
  185.7910  178.2290  145.6330 C   0  0  0  0  0  3  0  0  0  0  0  0
  187.3910  178.1910  147.3360 C   0  0  0  0  0  0  0  0  0  0  0  0
  189.2880  178.0380  148.3830 C   0  0  0  0  0  3  0  0  0  0  0  0
  186.5070  178.9440  142.3620 C   0  0  0  0  0  2  0  0  0  0  0  0
  185.1380  178.4020  142.7420 C   0  0  1  0  0  0  0  0  0  0  0  0
  186.3850  177.6630  143.2050 C   0  0  2  0  0  3  0  0  0  0  0  0
  184.4510  179.1230  143.7300 O   0  0  0  0  0  1  0  0  0  0  0  0
  184.3400  177.7100  141.6410 C   0  0  0  0  0  2  0  0  0  0  0  0
  181.6950  177.7770  138.0320 C   0  0  0  0  0  0  0  0  0  0  0  0
  180.7450  180.0090  137.5810 C   0  0  0  0  0  1  0  0  0  0  0  0
  182.5680  179.6310  139.2210 C   0  0  0  0  0  2  0  0  0  0  0  0
  182.0330  177.2610  139.3760 C   0  0  0  0  0  2  0  0  0  0  0  0
  182.4520  179.0030  142.3200 O   0  0  0  0  0  0  0  0  0  0  0  0
  181.1480  177.1060  137.1680 O   0  0  0  0  0  0  0  0  0  0  0  0
  182.0120  179.2240  137.8620 C   0  0  1  0  0  3  0  0  0  0  0  0
  182.5040  178.4460  140.0640 N   0  0  0  0  0  0  0  0  0  0  0  0
  183.0470  178.4130  141.3800 C   0  0  0  0  0  0  0  0  0  0  0  0
  190.0140  178.0380  139.5840 C   0  0  1  0  0  3  0  0  0  0  0  0
  190.6780  177.1090  138.6900 N   0  0  0  0  0  1  0  0  0  0  0  0
  188.7450  178.5500  138.9180 C   0  0  0  0  0  2  0  0  0  0  0  0
  188.9820  178.8660  137.4470 C   0  0  0  0  0  2  0  0  0  0  0  0
  187.7670  178.4900  136.6170 C   0  0  0  0  0  2  0  0  0  0  0  0
  186.9360  177.4610  137.3710 C   0  0  0  0  0  2  0  0  0  0  0  0
  187.3510  176.1510  137.0710 O   0  0  0  0  0  0  0  0  0  0  0  0
  184.0640  175.7370  135.7590 C   0  0  0  0  0  2  0  0  0  0  0  0
  187.2120  174.7520  134.6580 O   0  0  0  0  0  1  0  0  0  0  0  0
  184.0210  173.0650  136.6900 C   0  0  2  0  0  3  0  0  0  0  0  0
  184.0690  173.3150  135.3000 O   0  0  0  0  0  0  0  0  0  0  0  0
  184.7250  174.5520  135.0470 C   0  0  2  0  0  3  0  0  0  0  0  0
  186.4680  173.8260  136.8620 C   0  0  1  0  0  0  0  0  0  0  0  0
  185.4120  172.7880  137.2760 C   0  0  0  0  0  2  0  0  0  0  0  0
  183.1130  171.8810  136.9710 C   0  0  0  0  0  1  0  0  0  0  0  0
  184.8220  175.9200  137.0690 C   0  0  0  0  0  2  0  0  0  0  0  0
  186.1630  174.5190  135.5480 C   0  0  1  0  0  0  0  0  0  0  0  0
  186.2130  175.3430  136.8280 C   0  0  1  0  0  0  0  0  0  0  0  0
  187.8030  173.4330  136.9700 O   0  0  0  0  0  1  0  0  0  0  0  0
  1  8  1  0  0  0  0
  2  1  1  0  0  0  0
  4  7  1  0  0  0  0
  5  3  2  0  0  0  0
  5  6  1  0  0  0  0
  6  2  1  0  0  0  0
  6  4  1  0  0  0  0
  7  8  2  0  0  0  0
  7 14  1  0  0  0  0
  9 14  2  0  0  0  0
  9 15  1  0  0  0  0
 10 12  1  0  0  0  0
 10 16  2  0  0  0  0
 11 16  1  0  0  0  0
 12 17  1  0  0  0  0
 14 10  1  0  0  0  0
 15 11  2  0  0  0  0
 16 13  1  0  0  0  0
 17 13  2  0  0  0  0
 18 19  1  0  0  0  0
 18 20  1  0  0  0  0
 19 20  1  0  0  0  0
 19 21  1  1  0  0  0
 20  9  1  1  0  0  0
 22 19  1  0  0  0  0
 23 26  1  0  0  0  0
 25 30  1  0  0  0  0
 26 30  1  0  0  0  0
 28 23  2  0  0  0  0
 29 24  1  1  0  0  0
 29 23  1  0  0  0  0
 29 25  1  0  0  0  0
 30 31  1  0  0  0  0
 31 22  1  0  0  0  0
 31 27  2  0  0  0  0
 32 33  1  6  0  0  0
 32  5  1  0  0  0  0
 34 32  1  0  0  0  0
 35 34  1  0  0  0  0
 36 37  1  0  0  0  0
 36 35  1  0  0  0  0
 38 37  1  0  0  0  0
 39 47  1  0  0  0  0
 41 46  1  6  0  0  0
 41 45  1  0  0  0  0
 42 41  1  0  0  0  0
 43 42  1  0  0  0  0
 43 48  1  0  0  0  0
 43 39  1  1  0  0  0
 44 50  1  1  0  0  0
 44 45  1  0  0  0  0
 48 40  1  6  0  0  0
 48 49  1  0  0  0  0
 48 44  1  0  0  0  0
 49 44  1  0  0  0  0
 49 47  1  0  0  0  0
 49 38  1  1  0  0  0
M  END
>  <MODEL>
6

>  <REMARK>
 VINA RESULT:      -8.6      3.945      5.527
  Name = 
  11 active torsions:
  status: ('A' for Active; 'I' for Inactive)
    1  A    between atoms: C_1  and  C_25
    2  A    between atoms: C_3  and  C_43
    3  A    between atoms: C_3  and  C_44
    4  A    between atoms: C_9  and  C_33
    5  A    between atoms: C_12  and  C_28
    6  A    between atoms: C_12  and  C_34
    7  A    between atoms: C_24  and  C_49
    8  A    between atoms: C_28  and  C_43
    9  A    between atoms: C_33  and  C_48
   10  A    between atoms: C_34  and  O_36
   11  A    between atoms: O_36  and  C_40
                            x       y       z     vdW  Elec       q    Type
                         _______ _______ _______ _____ _____    ______ ____

>  <TORSDO>
F 11

$$$$
=
 OpenBabel10232410413D

 50 57  0  0  1  0  0  0  0  0999 V2000
  189.3890  177.9840  136.1950 C   0  0  0  0  0  2  0  0  0  0  0  0
  188.8810  176.6540  135.6390 C   0  0  0  0  0  2  0  0  0  0  0  0
  190.3590  175.5080  138.1390 O   0  0  0  0  0  0  0  0  0  0  0  0
  187.4390  176.2750  137.5950 C   0  0  0  0  0  2  0  0  0  0  0  0
  189.5340  174.9820  137.3430 C   0  0  0  0  0  0  0  0  0  0  0  0
  188.5170  175.7840  136.7490 N   0  0  0  0  0  0  0  0  0  0  0  0
  187.7370  177.6750  138.0850 C   0  0  0  0  0  0  0  0  0  0  0  0
  188.6020  178.4460  137.4000 C   0  0  0  0  0  3  0  0  0  0  0  0
  187.6680  178.3530  140.5810 C   0  0  0  0  0  0  0  0  0  0  0  0
  185.6760  178.5090  139.2360 C   0  0  0  0  0  0  0  0  0  0  0  0
  185.5530  179.0790  141.5390 N   0  0  0  0  0  0  0  0  0  0  0  0
  184.8650  178.4380  138.2080 O   0  0  0  0  0  0  0  0  0  0  0  0
  183.6730  179.1530  139.9600 C   0  0  0  0  0  3  0  0  0  0  0  0
  187.0420  178.1910  139.3020 C   0  0  0  0  0  0  0  0  0  0  0  0
  186.8760  178.7870  141.6820 C   0  0  0  0  0  3  0  0  0  0  0  0
  184.9830  178.9420  140.3190 C   0  0  0  0  0  0  0  0  0  0  0  0
  183.6610  178.8180  138.6010 C   0  0  0  0  0  3  0  0  0  0  0  0
  189.5180  176.5820  140.4990 C   0  0  0  0  0  2  0  0  0  0  0  0
  189.5080  177.1320  141.9160 C   0  0  1  0  0  0  0  0  0  0  0  0
  189.1510  178.0530  140.7590 C   0  0  2  0  0  3  0  0  0  0  0  0
  188.4390  176.7190  142.7230 O   0  0  0  0  0  1  0  0  0  0  0  0
  190.8660  177.3940  142.5640 C   0  0  0  0  0  2  0  0  0  0  0  0
  190.9350  176.4960  146.9470 C   0  0  0  0  0  0  0  0  0  0  0  0
  189.2920  177.8240  148.2230 C   0  0  0  0  0  1  0  0  0  0  0  0
  189.2960  177.7140  145.7440 C   0  0  0  0  0  2  0  0  0  0  0  0
  191.6070  176.9510  145.7110 C   0  0  0  0  0  2  0  0  0  0  0  0
  190.7450  179.5390  143.6040 O   0  0  0  0  0  0  0  0  0  0  0  0
  191.5060  175.8940  147.8460 O   0  0  0  0  0  0  0  0  0  0  0  0
  189.5060  176.9170  147.0260 C   0  0  1  0  0  3  0  0  0  0  0  0
  190.5770  177.7290  145.0540 N   0  0  0  0  0  0  0  0  0  0  0  0
  190.7390  178.2880  143.7540 C   0  0  0  0  0  0  0  0  0  0  0  0
  189.6680  173.5410  136.9520 C   0  0  1  0  0  3  0  0  0  0  0  0
  188.3490  172.9510  136.8280 N   0  0  0  0  0  1  0  0  0  0  0  0
  190.4100  173.3840  135.6340 C   0  0  0  0  0  2  0  0  0  0  0  0
  191.9110  173.2510  135.8560 C   0  0  0  0  0  2  0  0  0  0  0  0
  192.6140  174.5650  135.5630 C   0  0  0  0  0  2  0  0  0  0  0  0
  193.7410  174.7730  136.5640 C   0  0  0  0  0  2  0  0  0  0  0  0
  194.1710  173.5500  137.1090 O   0  0  0  0  0  0  0  0  0  0  0  0
  197.3420  175.0380  136.4540 C   0  0  0  0  0  2  0  0  0  0  0  0
  195.7460  174.0120  139.3690 O   0  0  0  0  0  1  0  0  0  0  0  0
  198.5950  172.5190  136.7590 C   0  0  2  0  0  3  0  0  0  0  0  0
  198.8160  173.5270  137.7270 O   0  0  0  0  0  0  0  0  0  0  0  0
  197.6870  174.3910  137.8000 C   0  0  2  0  0  3  0  0  0  0  0  0
  196.2130  172.2310  137.6740 C   0  0  1  0  0  0  0  0  0  0  0  0
  197.4960  171.5380  137.1870 C   0  0  0  0  0  2  0  0  0  0  0  0
  199.8820  171.7550  136.5080 C   0  0  0  0  0  1  0  0  0  0  0  0
  196.2740  174.1530  135.8200 C   0  0  0  0  0  2  0  0  0  0  0  0
  196.4410  173.6250  138.2230 C   0  0  1  0  0  0  0  0  0  0  0  0
  195.5780  173.4480  136.9800 C   0  0  1  0  0  0  0  0  0  0  0  0
  195.3590  171.4670  138.4710 O   0  0  0  0  0  1  0  0  0  0  0  0
  1  8  1  0  0  0  0
  2  1  1  0  0  0  0
  2  6  1  0  0  0  0
  4  7  1  0  0  0  0
  5  3  2  0  0  0  0
  6  5  1  0  0  0  0
  6  4  1  0  0  0  0
  7 14  1  0  0  0  0
  8  7  2  0  0  0  0
  9 15  1  0  0  0  0
 10 14  1  0  0  0  0
 10 16  2  0  0  0  0
 11 15  2  0  0  0  0
 12 17  1  0  0  0  0
 12 10  1  0  0  0  0
 13 16  1  0  0  0  0
 14  9  2  0  0  0  0
 16 11  1  0  0  0  0
 17 13  2  0  0  0  0
 18 20  1  0  0  0  0
 18 19  1  0  0  0  0
 19 22  1  0  0  0  0
 19 21  1  1  0  0  0
 20  9  1  1  0  0  0
 20 19  1  0  0  0  0
 22 31  1  0  0  0  0
 23 29  1  0  0  0  0
 23 28  2  0  0  0  0
 25 29  1  0  0  0  0
 26 23  1  0  0  0  0
 27 31  2  0  0  0  0
 29 24  1  1  0  0  0
 30 26  1  0  0  0  0
 30 25  1  0  0  0  0
 31 30  1  0  0  0  0
 32 33  1  6  0  0  0
 32  5  1  0  0  0  0
 34 35  1  0  0  0  0
 34 32  1  0  0  0  0
 36 35  1  0  0  0  0
 36 37  1  0  0  0  0
 37 38  1  0  0  0  0
 41 46  1  1  0  0  0
 41 45  1  0  0  0  0
 41 42  1  0  0  0  0
 42 43  1  0  0  0  0
 43 39  1  6  0  0  0
 43 48  1  0  0  0  0
 44 48  1  0  0  0  0
 44 50  1  1  0  0  0
 45 44  1  0  0  0  0
 47 39  1  0  0  0  0
 47 49  1  0  0  0  0
 48 40  1  1  0  0  0
 49 38  1  1  0  0  0
 49 44  1  0  0  0  0
 49 48  1  0  0  0  0
M  END
>  <MODEL>
7

>  <REMARK>
 VINA RESULT:      -8.6      2.234      6.529
  Name = 
  11 active torsions:
  status: ('A' for Active; 'I' for Inactive)
    1  A    between atoms: C_1  and  C_25
    2  A    between atoms: C_3  and  C_43
    3  A    between atoms: C_3  and  C_44
    4  A    between atoms: C_9  and  C_33
    5  A    between atoms: C_12  and  C_28
    6  A    between atoms: C_12  and  C_34
    7  A    between atoms: C_24  and  C_49
    8  A    between atoms: C_28  and  C_43
    9  A    between atoms: C_33  and  C_48
   10  A    between atoms: C_34  and  O_36
   11  A    between atoms: O_36  and  C_40
                            x       y       z     vdW  Elec       q    Type
                         _______ _______ _______ _____ _____    ______ ____

>  <TORSDO>
F 11

$$$$
=
 OpenBabel10232410413D

 50 57  0  0  1  0  0  0  0  0999 V2000
  186.7540  177.3950  135.1020 C   0  0  0  0  0  2  0  0  0  0  0  0
  187.9670  177.0180  135.9510 C   0  0  0  0  0  2  0  0  0  0  0  0
  186.4740  178.7080  138.1090 O   0  0  0  0  0  0  0  0  0  0  0  0
  186.5910  175.7020  137.5090 C   0  0  0  0  0  2  0  0  0  0  0  0
  187.4530  177.9180  138.1980 C   0  0  0  0  0  0  0  0  0  0  0  0
  187.5350  176.7960  137.3240 N   0  0  0  0  0  0  0  0  0  0  0  0
  185.4000  175.8610  136.5890 C   0  0  0  0  0  0  0  0  0  0  0  0
  185.5190  176.6080  135.4750 C   0  0  0  0  0  3  0  0  0  0  0  0
  183.6080  174.0410  136.1820 C   0  0  0  0  0  0  0  0  0  0  0  0
  183.3260  175.6270  137.9720 C   0  0  0  0  0  0  0  0  0  0  0  0
  181.6250  174.0130  137.5910 N   0  0  0  0  0  0  0  0  0  0  0  0
  183.5470  176.6320  138.7850 O   0  0  0  0  0  0  0  0  0  0  0  0
  181.5770  175.7320  139.3430 C   0  0  0  0  0  3  0  0  0  0  0  0
  184.1220  175.1600  136.9130 C   0  0  0  0  0  0  0  0  0  0  0  0
  182.3400  173.5060  136.5480 C   0  0  0  0  0  3  0  0  0  0  0  0
  182.1350  175.0560  138.2850 C   0  0  0  0  0  0  0  0  0  0  0  0
  182.5260  176.7240  139.6190 C   0  0  0  0  0  3  0  0  0  0  0  0
  184.2470  171.9190  134.8940 C   0  0  0  0  0  2  0  0  0  0  0  0
  185.5450  172.5200  135.4110 C   0  0  1  0  0  0  0  0  0  0  0  0
  184.4000  173.4440  135.0250 C   0  0  2  0  0  3  0  0  0  0  0  0
  185.7780  172.3740  136.7860 O   0  0  0  0  0  1  0  0  0  0  0  0
  186.7340  172.5190  134.4540 C   0  0  0  0  0  2  0  0  0  0  0  0
  190.5170  173.5360  136.6180 C   0  0  0  0  0  0  0  0  0  0  0  0
  192.4430  172.1920  135.8640 C   0  0  0  0  0  1  0  0  0  0  0  0
  190.2790  172.2350  134.6530 C   0  0  0  0  0  2  0  0  0  0  0  0
  189.1140  173.0700  136.6200 C   0  0  0  0  0  2  0  0  0  0  0  0
  187.7180  170.4010  134.9450 O   0  0  0  0  0  0  0  0  0  0  0  0
  191.0170  174.1790  137.5310 O   0  0  0  0  0  0  0  0  0  0  0  0
  191.2880  173.0720  135.4290 C   0  0  1  0  0  3  0  0  0  0  0  0
  189.0500  172.2420  135.4330 N   0  0  0  0  0  0  0  0  0  0  0  0
  187.8420  171.6540  134.9610 C   0  0  0  0  0  0  0  0  0  0  0  0
  188.5700  178.1970  139.1570 C   0  0  1  0  0  3  0  0  0  0  0  0
  188.0170  178.5510  140.4510 N   0  0  0  0  0  1  0  0  0  0  0  0
  189.4830  176.9910  139.3190 C   0  0  0  0  0  2  0  0  0  0  0  0
  190.8630  177.2600  138.7340 C   0  0  0  0  0  2  0  0  0  0  0  0
  191.9310  177.1480  139.8080 C   0  0  0  0  0  2  0  0  0  0  0  0
  191.3440  177.5550  141.1530 C   0  0  0  0  0  2  0  0  0  0  0  0
  192.0960  177.0290  142.2180 O   0  0  0  0  0  0  0  0  0  0  0  0
  189.4260  178.5190  144.0480 C   0  0  0  0  0  2  0  0  0  0  0  0
  189.9690  175.3170  142.8070 O   0  0  0  0  0  1  0  0  0  0  0  0
  190.3620  177.2980  146.4230 C   0  0  2  0  0  3  0  0  0  0  0  0
  189.1430  176.8640  145.8520 O   0  0  0  0  0  0  0  0  0  0  0  0
  189.1640  177.0620  144.4430 C   0  0  2  0  0  3  0  0  0  0  0  0
  191.6150  176.1440  144.5010 C   0  0  1  0  0  0  0  0  0  0  0  0
  191.5410  176.4050  146.0150 C   0  0  0  0  0  2  0  0  0  0  0  0
  190.2450  177.3170  147.9360 C   0  0  0  0  0  1  0  0  0  0  0  0
  190.9270  178.6290  143.8060 C   0  0  0  0  0  2  0  0  0  0  0  0
  190.2780  176.2510  143.7950 C   0  0  1  0  0  0  0  0  0  0  0  0
  191.3910  177.2250  143.4310 C   0  0  1  0  0  0  0  0  0  0  0  0
  192.3530  175.0290  144.0990 O   0  0  0  0  0  1  0  0  0  0  0  0
  1  8  1  0  0  0  0
  1  2  1  0  0  0  0
  2  6  1  0  0  0  0
  3  5  2  0  0  0  0
  5 32  1  0  0  0  0
  6  4  1  0  0  0  0
  6  5  1  0  0  0  0
  7 14  1  0  0  0  0
  7  4  1  0  0  0  0
  8  7  2  0  0  0  0
  9 15  2  0  0  0  0
  9 14  1  0  0  0  0
 10 16  1  0  0  0  0
 10 12  1  0  0  0  0
 11 16  2  0  0  0  0
 12 17  1  0  0  0  0
 13 17  2  0  0  0  0
 14 10  2  0  0  0  0
 15 11  1  0  0  0  0
 16 13  1  0  0  0  0
 18 20  1  0  0  0  0
 18 19  1  0  0  0  0
 19 21  1  1  0  0  0
 20 19  1  0  0  0  0
 20  9  1  1  0  0  0
 22 31  1  0  0  0  0
 22 19  1  0  0  0  0
 23 26  1  0  0  0  0
 23 28  2  0  0  0  0
 25 29  1  0  0  0  0
 25 30  1  0  0  0  0
 27 31  2  0  0  0  0
 29 24  1  1  0  0  0
 29 23  1  0  0  0  0
 30 26  1  0  0  0  0
 31 30  1  0  0  0  0
 32 34  1  0  0  0  0
 32 33  1  1  0  0  0
 35 34  1  0  0  0  0
 35 36  1  0  0  0  0
 36 37  1  0  0  0  0
 37 38  1  0  0  0  0
 41 46  1  1  0  0  0
 42 41  1  0  0  0  0
 43 39  1  1  0  0  0
 43 42  1  0  0  0  0
 44 50  1  6  0  0  0
 44 45  1  0  0  0  0
 45 41  1  0  0  0  0
 47 39  1  0  0  0  0
 48 40  1  6  0  0  0
 48 43  1  0  0  0  0
 48 44  1  0  0  0  0
 49 38  1  6  0  0  0
 49 48  1  0  0  0  0
 49 47  1  0  0  0  0
 49 44  1  0  0  0  0
M  END
>  <MODEL>
8

>  <REMARK>
 VINA RESULT:      -8.5      3.038      8.630
  Name = 
  11 active torsions:
  status: ('A' for Active; 'I' for Inactive)
    1  A    between atoms: C_1  and  C_25
    2  A    between atoms: C_3  and  C_43
    3  A    between atoms: C_3  and  C_44
    4  A    between atoms: C_9  and  C_33
    5  A    between atoms: C_12  and  C_28
    6  A    between atoms: C_12  and  C_34
    7  A    between atoms: C_24  and  C_49
    8  A    between atoms: C_28  and  C_43
    9  A    between atoms: C_33  and  C_48
   10  A    between atoms: C_34  and  O_36
   11  A    between atoms: O_36  and  C_40
                            x       y       z     vdW  Elec       q    Type
                         _______ _______ _______ _____ _____    ______ ____

>  <TORSDO>
F 11

$$$$
=
 OpenBabel10232410413D

 50 57  0  0  1  0  0  0  0  0999 V2000
  186.0110  178.8740  147.0670 C   0  0  0  0  0  2  0  0  0  0  0  0
  184.9050  178.1480  146.3030 C   0  0  0  0  0  2  0  0  0  0  0  0
  185.6660  180.1920  144.0690 O   0  0  0  0  0  0  0  0  0  0  0  0
  186.4900  177.2910  144.6280 C   0  0  0  0  0  2  0  0  0  0  0  0
  184.9610  179.1460  144.0390 C   0  0  0  0  0  0  0  0  0  0  0  0
  185.2810  178.0550  144.8980 N   0  0  0  0  0  0  0  0  0  0  0  0
  187.6450  177.8020  145.4610 C   0  0  0  0  0  0  0  0  0  0  0  0
  187.3930  178.4860  146.5930 C   0  0  0  0  0  3  0  0  0  0  0  0
  189.5340  177.6830  143.6980 C   0  0  0  0  0  0  0  0  0  0  0  0
  189.9590  176.9890  145.9640 C   0  0  0  0  0  0  0  0  0  0  0  0
  191.7020  176.8020  144.3610 N   0  0  0  0  0  0  0  0  0  0  0  0
  189.7740  176.7180  147.2340 O   0  0  0  0  0  0  0  0  0  0  0  0
  191.8800  176.1650  146.7260 C   0  0  0  0  0  3  0  0  0  0  0  0
  189.0460  177.5090  145.0330 C   0  0  0  0  0  0  0  0  0  0  0  0
  190.8730  177.2990  143.4020 C   0  0  0  0  0  3  0  0  0  0  0  0
  191.2320  176.6650  145.6220 C   0  0  0  0  0  0  0  0  0  0  0  0
  190.9000  176.2280  147.7230 C   0  0  0  0  0  3  0  0  0  0  0  0
  187.7160  177.2100  141.9550 C   0  0  0  0  0  2  0  0  0  0  0  0
  188.9050  177.7760  141.1960 C   0  0  1  0  0  0  0  0  0  0  0  0
  188.6310  178.2570  142.6130 C   0  0  2  0  0  3  0  0  0  0  0  0
  189.9980  176.9110  141.0440 O   0  0  0  0  0  1  0  0  0  0  0  0
  188.6020  178.7880  140.0940 C   0  0  0  0  0  2  0  0  0  0  0  0
  188.0490  176.2620  136.4420 C   0  0  0  0  0  0  0  0  0  0  0  0
  186.3600  177.1750  134.8920 C   0  0  0  0  0  1  0  0  0  0  0  0
  187.2580  178.4640  136.8120 C   0  0  0  0  0  2  0  0  0  0  0  0
  188.0240  176.4320  137.9100 C   0  0  0  0  0  2  0  0  0  0  0  0
  186.2360  178.6950  139.7970 O   0  0  0  0  0  0  0  0  0  0  0  0
  188.3380  175.2100  135.8870 O   0  0  0  0  0  0  0  0  0  0  0  0
  187.6050  177.4780  135.7020 C   0  0  1  0  0  3  0  0  0  0  0  0
  187.4830  177.7660  138.0690 N   0  0  0  0  0  0  0  0  0  0  0  0
  187.3720  178.4130  139.3330 C   0  0  0  0  0  0  0  0  0  0  0  0
  183.7440  179.0740  143.1680 C   0  0  1  0  0  3  0  0  0  0  0  0
  183.9180  178.0260  142.1810 N   0  0  0  0  0  1  0  0  0  0  0  0
  182.4890  178.7900  143.9810 C   0  0  0  0  0  2  0  0  0  0  0  0
  181.2640  179.4360  143.3490 C   0  0  0  0  0  2  0  0  0  0  0  0
  180.2610  178.3780  142.9240 C   0  0  0  0  0  2  0  0  0  0  0  0
  180.0250  178.4750  141.4230 C   0  0  0  0  0  2  0  0  0  0  0  0
  180.4590  177.3130  140.7610 O   0  0  0  0  0  0  0  0  0  0  0  0
  182.8970  179.1260  138.8990 C   0  0  0  0  0  2  0  0  0  0  0  0
  182.6070  175.7890  139.8320 O   0  0  0  0  0  1  0  0  0  0  0  0
  181.8240  178.1040  136.4870 C   0  0  2  0  0  3  0  0  0  0  0  0
  183.1050  177.6820  136.9120 O   0  0  0  0  0  0  0  0  0  0  0  0
  183.1920  177.7330  138.3320 C   0  0  2  0  0  3  0  0  0  0  0  0
  180.7900  176.6930  138.3670 C   0  0  1  0  0  0  0  0  0  0  0  0
  180.7260  177.1110  136.8890 C   0  0  0  0  0  2  0  0  0  0  0  0
  181.8140  178.2840  134.9800 C   0  0  0  0  0  1  0  0  0  0  0  0
  181.4170  179.1280  139.2660 C   0  0  0  0  0  2  0  0  0  0  0  0
  182.1740  176.8010  138.9740 C   0  0  1  0  0  0  0  0  0  0  0  0
  181.0510  177.6700  139.5260 C   0  0  1  0  0  0  0  0  0  0  0  0
  180.1400  175.5040  138.7050 O   0  0  0  0  0  1  0  0  0  0  0  0
  2  1  1  0  0  0  0
  4  6  1  0  0  0  0
  4  7  1  0  0  0  0
  5  3  2  0  0  0  0
  5  6  1  0  0  0  0
  6  2  1  0  0  0  0
  7  8  2  0  0  0  0
  8  1  1  0  0  0  0
  9 14  1  0  0  0  0
 10 12  1  0  0  0  0
 11 16  2  0  0  0  0
 12 17  1  0  0  0  0
 13 17  2  0  0  0  0
 14  7  1  0  0  0  0
 14 10  2  0  0  0  0
 15  9  2  0  0  0  0
 15 11  1  0  0  0  0
 16 10  1  0  0  0  0
 16 13  1  0  0  0  0
 18 20  1  0  0  0  0
 19 21  1  6  0  0  0
 19 18  1  0  0  0  0
 19 20  1  0  0  0  0
 20  9  1  1  0  0  0
 22 19  1  0  0  0  0
 23 26  1  0  0  0  0
 25 30  1  0  0  0  0
 26 30  1  0  0  0  0
 28 23  2  0  0  0  0
 29 24  1  1  0  0  0
 29 23  1  0  0  0  0
 29 25  1  0  0  0  0
 30 31  1  0  0  0  0
 31 27  2  0  0  0  0
 31 22  1  0  0  0  0
 32 33  1  6  0  0  0
 32 34  1  0  0  0  0
 32  5  1  0  0  0  0
 35 34  1  0  0  0  0
 36 35  1  0  0  0  0
 37 36  1  0  0  0  0
 38 37  1  0  0  0  0
 39 47  1  0  0  0  0
 41 46  1  6  0  0  0
 41 45  1  0  0  0  0
 41 42  1  0  0  0  0
 42 43  1  0  0  0  0
 43 39  1  1  0  0  0
 43 48  1  0  0  0  0
 44 50  1  1  0  0  0
 44 48  1  0  0  0  0
 44 49  1  0  0  0  0
 45 44  1  0  0  0  0
 47 49  1  0  0  0  0
 48 49  1  0  0  0  0
 48 40  1  1  0  0  0
 49 38  1  1  0  0  0
M  END
>  <MODEL>
9

>  <REMARK>
 VINA RESULT:      -8.4      4.133      8.724
  Name = 
  11 active torsions:
  status: ('A' for Active; 'I' for Inactive)
    1  A    between atoms: C_1  and  C_25
    2  A    between atoms: C_3  and  C_43
    3  A    between atoms: C_3  and  C_44
    4  A    between atoms: C_9  and  C_33
    5  A    between atoms: C_12  and  C_28
    6  A    between atoms: C_12  and  C_34
    7  A    between atoms: C_24  and  C_49
    8  A    between atoms: C_28  and  C_43
    9  A    between atoms: C_33  and  C_48
   10  A    between atoms: C_34  and  O_36
   11  A    between atoms: O_36  and  C_40
                            x       y       z     vdW  Elec       q    Type
                         _______ _______ _______ _____ _____    ______ ____

>  <TORSDO>
F 11

$$$$
