=
 OpenBabel10232410543D

 49 54  0  0  1  0  0  0  0  0999 V2000
  190.6660  177.5120  140.2780 C   0  0  2  0  0  3  0  0  0  0  0  0
  190.9930  177.2170  141.7440 C   0  0  0  0  0  2  0  0  0  0  0  0
  187.7500  177.6150  144.5340 C   0  0  1  0  0  3  0  0  0  0  0  0
  189.1320  177.9390  145.0960 C   0  0  0  0  0  2  0  0  0  0  0  0
  190.1550  178.1520  143.9750 C   0  0  0  0  0  2  0  0  0  0  0  0
  189.7980  177.4000  142.6830 C   0  0  2  0  0  3  0  0  0  0  0  0
  187.7570  176.3180  143.7090 C   0  0  0  0  0  2  0  0  0  0  0  0
  189.0780  176.0790  142.9600 C   0  0  0  0  0  2  0  0  0  0  0  0
  186.7110  177.5610  145.6450 C   0  0  0  0  0  2  0  0  0  0  0  0
  185.7280  178.6960  145.5810 C   0  0  0  0  0  0  0  0  0  0  0  0
  185.7170  179.5770  146.4860 O   0  0  0  0  0  0  0  0  0  0  0  0
  184.2500  178.7640  142.1640 C   0  0  0  0  0  3  0  0  0  0  0  0
  185.1380  178.7420  143.1930 N   0  0  0  0  0  0  0  0  0  0  0  0
  182.4390  178.8130  143.7450 C   0  0  0  0  0  3  0  0  0  0  0  0
  184.7350  178.7530  144.4940 C   0  0  0  0  0  0  0  0  0  0  0  0
  183.3650  178.7990  144.7890 C   0  0  0  0  0  3  0  0  0  0  0  0
  182.8710  178.7980  142.4110 C   0  0  0  0  0  0  0  0  0  0  0  0
  181.9220  178.8040  141.3290 N   0  0  0  0  0  0  0  0  0  0  0  0
  179.9820  178.5790  139.3900 O   0  0  0  0  0  0  0  0  0  0  0  0
  182.1390  177.9030  140.1790 C   0  0  0  0  0  2  0  0  0  0  0  0
  181.3000  178.3450  138.9800 C   0  0  0  0  0  2  0  0  0  0  0  0
  180.0260  179.8090  140.0660 C   0  0  0  0  0  2  0  0  0  0  0  0
  180.7060  179.6330  141.4300 C   0  0  0  0  0  2  0  0  0  0  0  0
  189.2200  177.6370  140.0750 N   0  0  0  0  0  2  0  0  0  0  0  0
  188.9950  178.6630  139.0620 C   0  0  0  0  0  2  0  0  0  0  0  0
  187.3800  176.9660  138.1470 C   0  0  0  0  0  3  0  0  0  0  0  0
  187.2490  178.3510  135.7620 N   0  0  0  0  0  0  0  0  0  0  0  0
  188.0610  178.8120  136.7500 C   0  0  0  0  0  3  0  0  0  0  0  0
  188.1450  178.1240  137.9650 C   0  0  0  0  0  0  0  0  0  0  0  0
  186.5540  176.5090  137.1190 C   0  0  0  0  0  3  0  0  0  0  0  0
  186.5000  177.2270  135.9200 C   0  0  0  0  0  0  0  0  0  0  0  0
  185.6570  176.7790  134.8640 N   0  0  0  0  0  1  0  0  0  0  0  0
  191.2250  176.4860  139.3840 N   0  0  0  0  0  2  0  0  0  0  0  0
  192.4370  176.9470  138.8320 N   0  0  0  0  0  2  0  0  0  0  0  0
  193.9960  176.8480  137.1130 O   0  0  0  0  0  0  0  0  0  0  0  0
  193.0230  176.2970  137.7010 C   0  0  0  0  0  0  0  0  0  0  0  0
  192.1870  174.7950  135.8400 N   0  0  0  0  0  0  0  0  0  0  0  0
  194.3330  173.7180  135.3270 C   0  0  0  0  0  2  0  0  0  0  0  0
  192.5170  174.9280  137.2760 C   0  0  1  0  0  3  0  0  0  0  0  0
  193.5180  173.8830  137.6730 C   0  0  0  0  0  3  0  0  0  0  0  0
  194.3880  173.3740  136.7960 C   0  0  0  0  0  0  0  0  0  0  0  0
  193.4030  174.9010  135.0310 C   0  0  0  0  0  2  0  0  0  0  0  0
  195.3620  172.4190  137.2460 C   0  0  0  0  0  0  0  0  0  0  0  0
  196.1730  171.6030  137.6160 C   0  0  0  0  0  3  0  0  0  0  0  0
  191.2430  175.8340  135.4290 C   0  0  0  0  0  2  0  0  0  0  0  0
  189.8320  175.4260  135.8320 C   0  0  0  0  0  2  0  0  0  0  0  0
  188.9680  173.2670  136.6540 C   0  0  0  0  0  2  0  0  0  0  0  0
  189.5640  173.9760  135.4530 C   0  0  0  0  0  3  0  0  0  0  0  0
  188.0710  173.7070  135.5170 C   0  0  0  0  0  2  0  0  0  0  0  0
  1  2  1  1  0  0  0
  3  4  1  0  0  0  0
  3  9  1  1  0  0  0
  5  4  1  0  0  0  0
  6  2  1  1  0  0  0
  6  8  1  0  0  0  0
  6  5  1  0  0  0  0
  7  3  1  0  0  0  0
  8  7  1  0  0  0  0
 10  9  1  0  0  0  0
 10 11  2  0  0  0  0
 12 17  2  0  0  0  0
 12 13  1  0  0  0  0
 13 15  2  0  0  0  0
 14 16  2  0  0  0  0
 15 16  1  0  0  0  0
 15 10  1  0  0  0  0
 17 14  1  0  0  0  0
 18 23  1  0  0  0  0
 18 17  1  0  0  0  0
 19 22  1  0  0  0  0
 20 18  1  0  0  0  0
 21 19  1  0  0  0  0
 21 20  1  0  0  0  0
 22 23  1  0  0  0  0
 24  1  1  0  0  0  0
 25 24  1  0  0  0  0
 27 31  2  0  0  0  0
 27 28  1  0  0  0  0
 28 29  2  0  0  0  0
 29 26  1  0  0  0  0
 29 25  1  0  0  0  0
 30 26  2  0  0  0  0
 31 30  1  0  0  0  0
 32 31  1  0  0  0  0
 33  1  1  0  0  0  0
 34 33  1  0  0  0  0
 35 36  2  0  0  0  0
 36 34  1  0  0  0  0
 37 39  1  0  0  0  0
 38 41  1  0  0  0  0
 39 40  1  0  0  0  0
 39 36  1  6  0  0  0
 41 43  1  0  0  0  0
 41 40  2  0  0  0  0
 42 38  1  0  0  0  0
 42 37  1  0  0  0  0
 43 44  3  0  0  0  0
 45 46  1  0  0  0  0
 45 37  1  0  0  0  0
 48 49  1  0  0  0  0
 48 46  1  0  0  0  0
 48 47  1  0  0  0  0
 49 47  1  0  0  0  0
M  END
>  <MODEL>
1

>  <REMARK>
 VINA RESULT:      -7.9      0.000      0.000
  Name = 
  16 active torsions:
  status: ('A' for Active; 'I' for Inactive)
    1  A    between atoms: C_1  and  C_46
    2  A    between atoms: N_3  and  C_44
    3  A    between atoms: N_6  and  N_16
    4  A    between atoms: N_6  and  C_18
    5  A    between atoms: N_7  and  C_25
    6  A    between atoms: C_11  and  C_23
    7  A    between atoms: C_11  and  N_28
    8  A    between atoms: C_12  and  C_45
    9  A    between atoms: C_18  and  C_22
   10  A    between atoms: C_18  and  N_28
   11  A    between atoms: C_20  and  C_48
   12  A    between atoms: C_22  and  C_40
   13  A    between atoms: C_24  and  C_37
   14  A    between atoms: C_25  and  C_48
   15  A    between atoms: C_29  and  C_33
   16  A    between atoms: C_33  and  C_46
                            x       y       z     vdW  Elec       q    Type
                         _______ _______ _______ _____ _____    ______ ____

>  <TORSDO>
F 16

$$$$
=
 OpenBabel10232410543D

 49 54  0  0  1  0  0  0  0  0999 V2000
  188.3390  178.4630  141.4950 C   0  0  2  0  0  3  0  0  0  0  0  0
  188.5190  177.1780  140.6820 C   0  0  0  0  0  2  0  0  0  0  0  0
  192.1450  176.9150  138.3950 C   0  0  1  0  0  3  0  0  0  0  0  0
  191.1500  175.7800  138.1650 C   0  0  0  0  0  2  0  0  0  0  0  0
  189.7590  176.1400  138.6990 C   0  0  0  0  0  2  0  0  0  0  0  0
  189.8000  177.1600  139.8480 C   0  0  2  0  0  3  0  0  0  0  0  0
  192.3270  177.2220  139.8900 C   0  0  0  0  0  2  0  0  0  0  0  0
  191.0500  177.0050  140.7170 C   0  0  0  0  0  2  0  0  0  0  0  0
  193.4770  176.6130  137.7240 C   0  0  0  0  0  2  0  0  0  0  0  0
  193.3890  175.4870  136.7310 C   0  0  0  0  0  0  0  0  0  0  0  0
  192.7410  175.6380  135.6580 O   0  0  0  0  0  0  0  0  0  0  0  0
  194.1870  171.8520  136.5990 C   0  0  0  0  0  3  0  0  0  0  0  0
  193.6170  173.0640  136.3660 N   0  0  0  0  0  0  0  0  0  0  0  0
  195.6250  172.8560  138.2430 C   0  0  0  0  0  3  0  0  0  0  0  0
  194.0090  174.1850  137.0340 C   0  0  0  0  0  0  0  0  0  0  0  0
  195.0230  174.0920  137.9990 C   0  0  0  0  0  3  0  0  0  0  0  0
  195.2110  171.7130  137.5450 C   0  0  0  0  0  0  0  0  0  0  0  0
  195.8330  170.4370  137.7860 N   0  0  0  0  0  0  0  0  0  0  0  0
  196.9100  167.9130  137.9850 O   0  0  0  0  0  0  0  0  0  0  0  0
  195.0250  169.3410  138.3550 C   0  0  0  0  0  2  0  0  0  0  0  0
  195.9250  168.2430  138.9230 C   0  0  0  0  0  2  0  0  0  0  0  0
  197.8300  168.9720  138.0380 C   0  0  0  0  0  2  0  0  0  0  0  0
  197.2320  170.2200  137.3730 C   0  0  0  0  0  2  0  0  0  0  0  0
  189.1890  178.4550  142.6890 N   0  0  0  0  0  2  0  0  0  0  0  0
  188.5230  177.6530  143.7100 C   0  0  0  0  0  2  0  0  0  0  0  0
  189.0460  177.3120  146.1470 C   0  0  0  0  0  3  0  0  0  0  0  0
  191.6530  176.6590  145.5130 N   0  0  0  0  0  0  0  0  0  0  0  0
  190.7940  176.9980  144.5140 C   0  0  0  0  0  3  0  0  0  0  0  0
  189.4710  177.3350  144.8130 C   0  0  0  0  0  0  0  0  0  0  0  0
  189.9440  176.9640  147.1570 C   0  0  0  0  0  3  0  0  0  0  0  0
  191.2580  176.6320  146.8140 C   0  0  0  0  0  0  0  0  0  0  0  0
  192.1840  176.2670  147.8320 N   0  0  0  0  0  1  0  0  0  0  0  0
  186.9320  178.6730  141.8670 N   0  0  0  0  0  2  0  0  0  0  0  0
  186.2490  179.3020  140.8060 N   0  0  0  0  0  2  0  0  0  0  0  0
  184.2300  179.8780  139.8140 O   0  0  0  0  0  0  0  0  0  0  0  0
  184.8350  179.1490  140.6500 C   0  0  0  0  0  0  0  0  0  0  0  0
  183.2420  178.5590  142.5280 N   0  0  0  0  0  0  0  0  0  0  0  0
  181.2090  178.3830  141.1610 C   0  0  0  0  0  2  0  0  0  0  0  0
  184.1050  178.0690  141.4300 C   0  0  1  0  0  3  0  0  0  0  0  0
  183.3050  177.2250  140.4820 C   0  0  0  0  0  3  0  0  0  0  0  0
  181.9930  177.4090  140.3150 C   0  0  0  0  0  0  0  0  0  0  0  0
  182.1120  179.3130  141.9810 C   0  0  0  0  0  2  0  0  0  0  0  0
  181.2890  176.6100  139.3500 C   0  0  0  0  0  0  0  0  0  0  0  0
  180.6900  175.9540  138.5310 C   0  0  0  0  0  3  0  0  0  0  0  0
  183.9990  179.4180  143.4370 C   0  0  0  0  0  2  0  0  0  0  0  0
  183.9000  178.8690  144.8550 C   0  0  0  0  0  2  0  0  0  0  0  0
  185.8560  179.3440  146.2810 C   0  0  0  0  0  2  0  0  0  0  0  0
  185.2500  178.3390  145.3200 C   0  0  0  0  0  3  0  0  0  0  0  0
  185.2030  178.0880  146.8160 C   0  0  0  0  0  2  0  0  0  0  0  0
  1  2  1  1  0  0  0
  1 33  1  0  0  0  0
  1 24  1  0  0  0  0
  3  9  1  1  0  0  0
  3  7  1  0  0  0  0
  4  3  1  0  0  0  0
  4  5  1  0  0  0  0
  5  6  1  0  0  0  0
  6  2  1  1  0  0  0
  6  8  1  0  0  0  0
  7  8  1  0  0  0  0
 10 15  1  0  0  0  0
 10  9  1  0  0  0  0
 11 10  2  0  0  0  0
 12 17  1  0  0  0  0
 13 12  2  0  0  0  0
 13 15  1  0  0  0  0
 15 16  2  0  0  0  0
 16 14  1  0  0  0  0
 17 18  1  0  0  0  0
 17 14  2  0  0  0  0
 18 20  1  0  0  0  0
 19 22  1  0  0  0  0
 19 21  1  0  0  0  0
 20 21  1  0  0  0  0
 23 18  1  0  0  0  0
 23 22  1  0  0  0  0
 24 25  1  0  0  0  0
 25 29  1  0  0  0  0
 26 30  1  0  0  0  0
 27 31  1  0  0  0  0
 28 29  1  0  0  0  0
 28 27  2  0  0  0  0
 29 26  2  0  0  0  0
 31 30  2  0  0  0  0
 31 32  1  0  0  0  0
 34 33  1  0  0  0  0
 35 36  2  0  0  0  0
 36 34  1  0  0  0  0
 37 45  1  0  0  0  0
 38 42  1  0  0  0  0
 39 36  1  6  0  0  0
 39 37  1  0  0  0  0
 40 39  1  0  0  0  0
 41 40  2  0  0  0  0
 41 38  1  0  0  0  0
 42 37  1  0  0  0  0
 43 41  1  0  0  0  0
 44 43  3  0  0  0  0
 45 46  1  0  0  0  0
 46 48  1  0  0  0  0
 47 49  1  0  0  0  0
 48 47  1  0  0  0  0
 48 49  1  0  0  0  0
M  END
>  <MODEL>
2

>  <REMARK>
 VINA RESULT:      -7.7      2.845     12.015
  Name = 
  16 active torsions:
  status: ('A' for Active; 'I' for Inactive)
    1  A    between atoms: C_1  and  C_46
    2  A    between atoms: N_3  and  C_44
    3  A    between atoms: N_6  and  N_16
    4  A    between atoms: N_6  and  C_18
    5  A    between atoms: N_7  and  C_25
    6  A    between atoms: C_11  and  C_23
    7  A    between atoms: C_11  and  N_28
    8  A    between atoms: C_12  and  C_45
    9  A    between atoms: C_18  and  C_22
   10  A    between atoms: C_18  and  N_28
   11  A    between atoms: C_20  and  C_48
   12  A    between atoms: C_22  and  C_40
   13  A    between atoms: C_24  and  C_37
   14  A    between atoms: C_25  and  C_48
   15  A    between atoms: C_29  and  C_33
   16  A    between atoms: C_33  and  C_46
                            x       y       z     vdW  Elec       q    Type
                         _______ _______ _______ _____ _____    ______ ____

>  <TORSDO>
F 16

$$$$
=
 OpenBabel10232410543D

 49 54  0  0  1  0  0  0  0  0999 V2000
  188.3700  178.3500  141.3530 C   0  0  2  0  0  3  0  0  0  0  0  0
  188.6580  178.5240  139.8600 C   0  0  0  0  0  2  0  0  0  0  0  0
  190.2510  175.0910  137.8270 C   0  0  1  0  0  3  0  0  0  0  0  0
  191.2560  176.2080  138.1000 C   0  0  0  0  0  2  0  0  0  0  0  0
  190.7250  177.1950  139.1450 C   0  0  0  0  0  2  0  0  0  0  0  0
  189.1900  177.2560  139.1900 C   0  0  2  0  0  3  0  0  0  0  0  0
  188.9280  175.6370  137.2660 C   0  0  0  0  0  2  0  0  0  0  0  0
  188.5590  177.0240  137.8150 C   0  0  0  0  0  2  0  0  0  0  0  0
  190.8490  174.0340  136.9100 C   0  0  0  0  0  2  0  0  0  0  0  0
  191.7090  174.6210  135.8250 C   0  0  0  0  0  0  0  0  0  0  0  0
  191.1760  175.1190  134.7940 O   0  0  0  0  0  0  0  0  0  0  0  0
  195.2710  175.6940  135.9810 C   0  0  0  0  0  3  0  0  0  0  0  0
  193.9180  175.7050  135.8550 N   0  0  0  0  0  0  0  0  0  0  0  0
  195.2120  173.3100  136.2840 C   0  0  0  0  0  3  0  0  0  0  0  0
  193.1770  174.5640  135.9350 C   0  0  0  0  0  0  0  0  0  0  0  0
  193.8240  173.3370  136.1430 C   0  0  0  0  0  3  0  0  0  0  0  0
  195.9590  174.4930  136.2020 C   0  0  0  0  0  0  0  0  0  0  0  0
  197.3900  174.4730  136.3540 N   0  0  0  0  0  0  0  0  0  0  0  0
  200.1200  174.7270  136.5900 O   0  0  0  0  0  0  0  0  0  0  0  0
  198.2400  174.3800  135.1500 C   0  0  0  0  0  2  0  0  0  0  0  0
  199.6590  173.9500  135.5210 C   0  0  0  0  0  2  0  0  0  0  0  0
  199.4570  174.2190  137.7190 C   0  0  0  0  0  2  0  0  0  0  0  0
  197.9820  174.6420  137.6940 C   0  0  0  0  0  2  0  0  0  0  0  0
  188.9350  177.0950  141.8550 N   0  0  0  0  0  2  0  0  0  0  0  0
  188.2950  176.7930  143.1320 C   0  0  0  0  0  2  0  0  0  0  0  0
  190.6430  176.3920  143.9410 C   0  0  0  0  0  3  0  0  0  0  0  0
  189.8930  177.0760  146.5090 N   0  0  0  0  0  0  0  0  0  0  0  0
  188.9560  177.0800  145.5230 C   0  0  0  0  0  3  0  0  0  0  0  0
  189.3140  176.7340  144.2170 C   0  0  0  0  0  0  0  0  0  0  0  0
  191.5880  176.3920  144.9670 C   0  0  0  0  0  3  0  0  0  0  0  0
  191.1890  176.7450  146.2600 C   0  0  0  0  0  0  0  0  0  0  0  0
  192.1420  176.7570  147.3170 N   0  0  0  0  0  1  0  0  0  0  0  0
  186.9280  178.4140  141.6350 N   0  0  0  0  0  2  0  0  0  0  0  0
  186.2710  179.1030  140.5950 N   0  0  0  0  0  2  0  0  0  0  0  0
  184.2770  179.8140  139.6400 O   0  0  0  0  0  0  0  0  0  0  0  0
  184.8490  179.0350  140.4540 C   0  0  0  0  0  0  0  0  0  0  0  0
  183.2300  178.5020  142.3280 N   0  0  0  0  0  0  0  0  0  0  0  0
  181.1890  178.4460  140.9640 C   0  0  0  0  0  2  0  0  0  0  0  0
  184.0670  177.9840  141.2230 C   0  0  1  0  0  3  0  0  0  0  0  0
  183.2240  177.1920  140.2670 C   0  0  0  0  0  3  0  0  0  0  0  0
  181.9220  177.4440  140.1050 C   0  0  0  0  0  0  0  0  0  0  0  0
  182.1390  179.3190  141.7930 C   0  0  0  0  0  2  0  0  0  0  0  0
  181.1780  176.6930  139.1310 C   0  0  0  0  0  0  0  0  0  0  0  0
  180.5450  176.0510  138.3260 C   0  0  0  0  0  3  0  0  0  0  0  0
  184.0320  179.3110  143.2460 C   0  0  0  0  0  2  0  0  0  0  0  0
  184.0730  178.6380  144.6120 C   0  0  0  0  0  2  0  0  0  0  0  0
  185.1910  178.7460  146.8080 C   0  0  0  0  0  2  0  0  0  0  0  0
  185.3900  178.9330  145.3170 C   0  0  0  0  0  3  0  0  0  0  0  0
  185.8890  177.6740  146.0000 C   0  0  0  0  0  2  0  0  0  0  0  0
  1  2  1  6  0  0  0
  1 33  1  0  0  0  0
  1 24  1  0  0  0  0
  3  9  1  6  0  0  0
  3  4  1  0  0  0  0
  4  5  1  0  0  0  0
  5  6  1  0  0  0  0
  6  2  1  6  0  0  0
  7  8  1  0  0  0  0
  7  3  1  0  0  0  0
  8  6  1  0  0  0  0
 10 15  1  0  0  0  0
 10  9  1  0  0  0  0
 11 10  2  0  0  0  0
 12 17  1  0  0  0  0
 13 15  1  0  0  0  0
 13 12  2  0  0  0  0
 15 16  2  0  0  0  0
 16 14  1  0  0  0  0
 17 14  2  0  0  0  0
 17 18  1  0  0  0  0
 18 23  1  0  0  0  0
 19 22  1  0  0  0  0
 20 21  1  0  0  0  0
 20 18  1  0  0  0  0
 21 19  1  0  0  0  0
 23 22  1  0  0  0  0
 24 25  1  0  0  0  0
 25 29  1  0  0  0  0
 26 29  2  0  0  0  0
 26 30  1  0  0  0  0
 28 27  2  0  0  0  0
 29 28  1  0  0  0  0
 30 31  2  0  0  0  0
 31 27  1  0  0  0  0
 31 32  1  0  0  0  0
 34 33  1  0  0  0  0
 35 36  2  0  0  0  0
 36 34  1  0  0  0  0
 37 45  1  0  0  0  0
 38 42  1  0  0  0  0
 39 36  1  6  0  0  0
 39 37  1  0  0  0  0
 40 39  1  0  0  0  0
 41 40  2  0  0  0  0
 41 38  1  0  0  0  0
 42 37  1  0  0  0  0
 43 41  1  0  0  0  0
 44 43  3  0  0  0  0
 45 46  1  0  0  0  0
 46 48  1  0  0  0  0
 48 49  1  0  0  0  0
 48 47  1  0  0  0  0
 49 47  1  0  0  0  0
M  END
>  <MODEL>
3

>  <REMARK>
 VINA RESULT:      -7.6      2.777     12.014
  Name = 
  16 active torsions:
  status: ('A' for Active; 'I' for Inactive)
    1  A    between atoms: C_1  and  C_46
    2  A    between atoms: N_3  and  C_44
    3  A    between atoms: N_6  and  N_16
    4  A    between atoms: N_6  and  C_18
    5  A    between atoms: N_7  and  C_25
    6  A    between atoms: C_11  and  C_23
    7  A    between atoms: C_11  and  N_28
    8  A    between atoms: C_12  and  C_45
    9  A    between atoms: C_18  and  C_22
   10  A    between atoms: C_18  and  N_28
   11  A    between atoms: C_20  and  C_48
   12  A    between atoms: C_22  and  C_40
   13  A    between atoms: C_24  and  C_37
   14  A    between atoms: C_25  and  C_48
   15  A    between atoms: C_29  and  C_33
   16  A    between atoms: C_33  and  C_46
                            x       y       z     vdW  Elec       q    Type
                         _______ _______ _______ _____ _____    ______ ____

>  <TORSDO>
F 16

$$$$
=
 OpenBabel10232410543D

 49 54  0  0  1  0  0  0  0  0999 V2000
  184.6590  178.2530  142.5840 C   0  0  2  0  0  3  0  0  0  0  0  0
  183.7020  178.7820  141.5120 C   0  0  0  0  0  2  0  0  0  0  0  0
  183.3220  176.4050  137.9530 C   0  0  1  0  0  3  0  0  0  0  0  0
  183.4260  177.9100  137.7200 C   0  0  0  0  0  2  0  0  0  0  0  0
  183.9430  178.6350  138.9680 C   0  0  0  0  0  2  0  0  0  0  0  0
  183.6240  177.8880  140.2730 C   0  0  2  0  0  3  0  0  0  0  0  0
  182.3340  176.0690  139.0820 C   0  0  0  0  0  2  0  0  0  0  0  0
  182.2990  177.1260  140.1970 C   0  0  0  0  0  2  0  0  0  0  0  0
  182.9610  175.6800  136.6650 C   0  0  0  0  0  2  0  0  0  0  0  0
  183.6950  174.3780  136.5030 C   0  0  0  0  0  0  0  0  0  0  0  0
  183.0600  173.2870  136.5140 O   0  0  0  0  0  0  0  0  0  0  0  0
  187.1430  175.1980  135.3580 C   0  0  0  0  0  3  0  0  0  0  0  0
  185.7880  175.1590  135.4720 N   0  0  0  0  0  0  0  0  0  0  0  0
  187.3260  173.5940  137.1390 C   0  0  0  0  0  3  0  0  0  0  0  0
  185.1640  174.3680  136.3890 C   0  0  0  0  0  0  0  0  0  0  0  0
  185.9340  173.5590  137.2370 C   0  0  0  0  0  3  0  0  0  0  0  0
  187.9520  174.4150  136.1920 C   0  0  0  0  0  0  0  0  0  0  0  0
  189.3880  174.4620  136.0910 N   0  0  0  0  0  0  0  0  0  0  0  0
  192.1150  174.2860  135.7700 O   0  0  0  0  0  0  0  0  0  0  0  0
  190.2030  173.7890  137.1210 C   0  0  0  0  0  2  0  0  0  0  0  0
  191.6440  174.2960  137.0890 C   0  0  0  0  0  2  0  0  0  0  0  0
  191.5020  175.3910  135.1580 C   0  0  0  0  0  2  0  0  0  0  0  0
  190.0150  175.0970  134.9160 C   0  0  0  0  0  2  0  0  0  0  0  0
  184.9920  179.2980  143.5550 N   0  0  0  0  0  2  0  0  0  0  0  0
  184.5420  178.8500  144.8700 C   0  0  0  0  0  2  0  0  0  0  0  0
  185.7710  179.0210  147.0580 C   0  0  0  0  0  3  0  0  0  0  0  0
  187.7980  177.4330  146.0630 N   0  0  0  0  0  0  0  0  0  0  0  0
  186.7490  177.7480  145.2570 C   0  0  0  0  0  3  0  0  0  0  0  0
  185.7140  178.5530  145.7400 C   0  0  0  0  0  0  0  0  0  0  0  0
  186.8570  178.6870  147.8680 C   0  0  0  0  0  3  0  0  0  0  0  0
  187.8720  177.8790  147.3460 C   0  0  0  0  0  0  0  0  0  0  0  0
  188.9830  177.5230  148.1610 N   0  0  0  0  0  1  0  0  0  0  0  0
  185.8820  177.6960  141.9880 N   0  0  0  0  0  2  0  0  0  0  0  0
  186.7950  178.7360  141.7170 N   0  0  0  0  0  2  0  0  0  0  0  0
  188.8890  179.3850  140.9510 O   0  0  0  0  0  0  0  0  0  0  0  0
  188.1550  178.4490  141.3770 C   0  0  0  0  0  0  0  0  0  0  0  0
  189.6810  176.5870  140.5920 N   0  0  0  0  0  0  0  0  0  0  0  0
  191.6040  177.1460  142.0140 C   0  0  0  0  0  2  0  0  0  0  0  0
  188.7080  177.0530  141.6050 C   0  0  1  0  0  3  0  0  0  0  0  0
  189.3140  176.9760  142.9760 C   0  0  0  0  0  3  0  0  0  0  0  0
  190.6320  177.0780  143.1670 C   0  0  0  0  0  0  0  0  0  0  0  0
  190.9070  177.3830  140.6680 C   0  0  0  0  0  2  0  0  0  0  0  0
  191.1510  177.0560  144.5070 C   0  0  0  0  0  0  0  0  0  0  0  0
  191.5820  177.0560  145.6360 C   0  0  0  0  0  3  0  0  0  0  0  0
  189.1180  176.6960  139.2470 C   0  0  0  0  0  2  0  0  0  0  0  0
  190.0900  177.4510  138.3490 C   0  0  0  0  0  2  0  0  0  0  0  0
  187.9620  178.2860  137.4210 C   0  0  0  0  0  2  0  0  0  0  0  0
  189.3930  177.9180  137.0780 C   0  0  0  0  0  3  0  0  0  0  0  0
  188.9960  179.3750  137.2280 C   0  0  0  0  0  2  0  0  0  0  0  0
  1  2  1  6  0  0  0
  1 24  1  0  0  0  0
  3  9  1  6  0  0  0
  3  7  1  0  0  0  0
  4  3  1  0  0  0  0
  4  5  1  0  0  0  0
  5  6  1  0  0  0  0
  6  2  1  1  0  0  0
  7  8  1  0  0  0  0
  8  6  1  0  0  0  0
 10 11  2  0  0  0  0
 10  9  1  0  0  0  0
 12 13  2  0  0  0  0
 12 17  1  0  0  0  0
 13 15  1  0  0  0  0
 14 16  1  0  0  0  0
 15 10  1  0  0  0  0
 15 16  2  0  0  0  0
 17 14  2  0  0  0  0
 18 17  1  0  0  0  0
 18 20  1  0  0  0  0
 19 21  1  0  0  0  0
 21 20  1  0  0  0  0
 22 19  1  0  0  0  0
 23 22  1  0  0  0  0
 23 18  1  0  0  0  0
 24 25  1  0  0  0  0
 25 29  1  0  0  0  0
 26 30  1  0  0  0  0
 27 31  1  0  0  0  0
 28 29  1  0  0  0  0
 28 27  2  0  0  0  0
 29 26  2  0  0  0  0
 31 30  2  0  0  0  0
 31 32  1  0  0  0  0
 33  1  1  0  0  0  0
 34 33  1  0  0  0  0
 35 36  2  0  0  0  0
 36 34  1  0  0  0  0
 37 42  1  0  0  0  0
 37 39  1  0  0  0  0
 38 41  1  0  0  0  0
 39 36  1  6  0  0  0
 39 40  1  0  0  0  0
 40 41  2  0  0  0  0
 41 43  1  0  0  0  0
 42 38  1  0  0  0  0
 43 44  3  0  0  0  0
 45 37  1  0  0  0  0
 46 45  1  0  0  0  0
 48 49  1  0  0  0  0
 48 47  1  0  0  0  0
 48 46  1  0  0  0  0
 49 47  1  0  0  0  0
M  END
>  <MODEL>
4

>  <REMARK>
 VINA RESULT:      -7.5      2.501      8.787
  Name = 
  16 active torsions:
  status: ('A' for Active; 'I' for Inactive)
    1  A    between atoms: C_1  and  C_46
    2  A    between atoms: N_3  and  C_44
    3  A    between atoms: N_6  and  N_16
    4  A    between atoms: N_6  and  C_18
    5  A    between atoms: N_7  and  C_25
    6  A    between atoms: C_11  and  C_23
    7  A    between atoms: C_11  and  N_28
    8  A    between atoms: C_12  and  C_45
    9  A    between atoms: C_18  and  C_22
   10  A    between atoms: C_18  and  N_28
   11  A    between atoms: C_20  and  C_48
   12  A    between atoms: C_22  and  C_40
   13  A    between atoms: C_24  and  C_37
   14  A    between atoms: C_25  and  C_48
   15  A    between atoms: C_29  and  C_33
   16  A    between atoms: C_33  and  C_46
                            x       y       z     vdW  Elec       q    Type
                         _______ _______ _______ _____ _____    ______ ____

>  <TORSDO>
F 16

$$$$
=
 OpenBabel10232410543D

 49 54  0  0  1  0  0  0  0  0999 V2000
  190.0820  177.6880  139.7400 C   0  0  2  0  0  3  0  0  0  0  0  0
  190.4380  176.9700  141.0440 C   0  0  0  0  0  2  0  0  0  0  0  0
  187.7630  177.5870  144.3490 C   0  0  1  0  0  3  0  0  0  0  0  0
  189.1950  178.0690  144.5740 C   0  0  0  0  0  2  0  0  0  0  0  0
  189.9640  178.1740  143.2520 C   0  0  0  0  0  2  0  0  0  0  0  0
  189.4330  177.2200  142.1700 C   0  0  2  0  0  3  0  0  0  0  0  0
  187.7250  176.1850  143.7200 C   0  0  0  0  0  2  0  0  0  0  0  0
  188.8940  175.9150  142.7600 C   0  0  0  0  0  2  0  0  0  0  0  0
  186.9640  177.6370  145.6420 C   0  0  0  0  0  2  0  0  0  0  0  0
  185.9260  178.7250  145.6460 C   0  0  0  0  0  0  0  0  0  0  0  0
  185.8990  179.5730  146.5800 O   0  0  0  0  0  0  0  0  0  0  0  0
  184.3430  178.7650  142.2750 C   0  0  0  0  0  3  0  0  0  0  0  0
  185.2630  178.7550  143.2760 N   0  0  0  0  0  0  0  0  0  0  0  0
  182.5810  178.8060  143.9100 C   0  0  0  0  0  3  0  0  0  0  0  0
  184.8990  178.7690  144.5890 C   0  0  0  0  0  0  0  0  0  0  0  0
  183.5390  178.8040  144.9260 C   0  0  0  0  0  3  0  0  0  0  0  0
  182.9720  178.7890  142.5650 C   0  0  0  0  0  0  0  0  0  0  0  0
  181.9900  178.7820  141.5120 N   0  0  0  0  0  0  0  0  0  0  0  0
  180.0100  178.5180  139.6200 O   0  0  0  0  0  0  0  0  0  0  0  0
  182.2350  177.9640  140.3070 C   0  0  0  0  0  2  0  0  0  0  0  0
  181.3270  178.4060  139.1590 C   0  0  0  0  0  2  0  0  0  0  0  0
  179.9850  179.7090  140.3620 C   0  0  0  0  0  2  0  0  0  0  0  0
  180.7210  179.5110  141.6950 C   0  0  0  0  0  2  0  0  0  0  0  0
  188.6460  177.5970  139.4620 N   0  0  0  0  0  2  0  0  0  0  0  0
  188.3180  178.6010  138.4550 C   0  0  0  0  0  2  0  0  0  0  0  0
  187.2050  178.0060  136.2790 C   0  0  0  0  0  3  0  0  0  0  0  0
  184.8600  177.4270  137.6170 N   0  0  0  0  0  0  0  0  0  0  0  0
  185.9340  177.8680  138.3250 C   0  0  0  0  0  3  0  0  0  0  0  0
  187.1300  178.1690  137.6670 C   0  0  0  0  0  0  0  0  0  0  0  0
  186.0900  177.5550  135.5710 C   0  0  0  0  0  3  0  0  0  0  0  0
  184.9140  177.2640  136.2680 C   0  0  0  0  0  0  0  0  0  0  0  0
  183.7700  176.7940  135.5620 N   0  0  0  0  0  1  0  0  0  0  0  0
  190.8600  177.1640  138.6060 N   0  0  0  0  0  2  0  0  0  0  0  0
  190.9830  175.7640  138.7210 N   0  0  0  0  0  2  0  0  0  0  0  0
  190.7260  173.6670  137.7570 O   0  0  0  0  0  0  0  0  0  0  0  0
  190.4300  174.8950  137.7290 C   0  0  0  0  0  0  0  0  0  0  0  0
  189.9200  175.4490  135.3100 N   0  0  0  0  0  0  0  0  0  0  0  0
  188.7040  173.3840  134.7730 C   0  0  0  0  0  2  0  0  0  0  0  0
  189.4450  175.4460  136.7120 C   0  0  1  0  0  3  0  0  0  0  0  0
  188.1510  174.6940  136.8160 C   0  0  0  0  0  3  0  0  0  0  0  0
  187.8390  173.7120  135.9660 C   0  0  0  0  0  0  0  0  0  0  0  0
  190.0730  174.0750  134.8280 C   0  0  0  0  0  2  0  0  0  0  0  0
  186.6120  172.9870  136.1500 C   0  0  0  0  0  0  0  0  0  0  0  0
  185.5700  172.3930  136.3010 C   0  0  0  0  0  3  0  0  0  0  0  0
  191.2030  176.1430  135.2010 C   0  0  0  0  0  2  0  0  0  0  0  0
  192.3050  175.1310  134.9160 C   0  0  0  0  0  2  0  0  0  0  0  0
  194.3890  175.9080  135.9830 C   0  0  0  0  0  2  0  0  0  0  0  0
  193.6310  175.8370  134.6710 C   0  0  0  0  0  3  0  0  0  0  0  0
  194.7720  174.8750  134.9450 C   0  0  0  0  0  2  0  0  0  0  0  0
  1  2  1  1  0  0  0
  3  4  1  0  0  0  0
  3  9  1  1  0  0  0
  5  4  1  0  0  0  0
  6  2  1  6  0  0  0
  6  8  1  0  0  0  0
  6  5  1  0  0  0  0
  7  3  1  0  0  0  0
  8  7  1  0  0  0  0
  9 10  1  0  0  0  0
 10 11  2  0  0  0  0
 12 17  2  0  0  0  0
 12 13  1  0  0  0  0
 13 15  2  0  0  0  0
 14 16  2  0  0  0  0
 15 16  1  0  0  0  0
 15 10  1  0  0  0  0
 17 14  1  0  0  0  0
 18 23  1  0  0  0  0
 18 17  1  0  0  0  0
 19 22  1  0  0  0  0
 20 18  1  0  0  0  0
 21 19  1  0  0  0  0
 21 20  1  0  0  0  0
 22 23  1  0  0  0  0
 24  1  1  0  0  0  0
 25 24  1  0  0  0  0
 26 29  1  0  0  0  0
 27 28  1  0  0  0  0
 29 28  2  0  0  0  0
 29 25  1  0  0  0  0
 30 31  1  0  0  0  0
 30 26  2  0  0  0  0
 31 27  2  0  0  0  0
 32 31  1  0  0  0  0
 33 34  1  0  0  0  0
 33  1  1  0  0  0  0
 36 35  2  0  0  0  0
 36 34  1  0  0  0  0
 37 39  1  0  0  0  0
 38 42  1  0  0  0  0
 38 41  1  0  0  0  0
 39 40  1  0  0  0  0
 39 36  1  1  0  0  0
 41 43  1  0  0  0  0
 41 40  2  0  0  0  0
 42 37  1  0  0  0  0
 43 44  3  0  0  0  0
 45 37  1  0  0  0  0
 46 45  1  0  0  0  0
 48 46  1  0  0  0  0
 48 49  1  0  0  0  0
 48 47  1  0  0  0  0
 49 47  1  0  0  0  0
M  END
>  <MODEL>
5

>  <REMARK>
 VINA RESULT:      -7.3      1.557      3.231
  Name = 
  16 active torsions:
  status: ('A' for Active; 'I' for Inactive)
    1  A    between atoms: C_1  and  C_46
    2  A    between atoms: N_3  and  C_44
    3  A    between atoms: N_6  and  N_16
    4  A    between atoms: N_6  and  C_18
    5  A    between atoms: N_7  and  C_25
    6  A    between atoms: C_11  and  C_23
    7  A    between atoms: C_11  and  N_28
    8  A    between atoms: C_12  and  C_45
    9  A    between atoms: C_18  and  C_22
   10  A    between atoms: C_18  and  N_28
   11  A    between atoms: C_20  and  C_48
   12  A    between atoms: C_22  and  C_40
   13  A    between atoms: C_24  and  C_37
   14  A    between atoms: C_25  and  C_48
   15  A    between atoms: C_29  and  C_33
   16  A    between atoms: C_33  and  C_46
                            x       y       z     vdW  Elec       q    Type
                         _______ _______ _______ _____ _____    ______ ____

>  <TORSDO>
F 16

$$$$
=
 OpenBabel10232410543D

 49 54  0  0  1  0  0  0  0  0999 V2000
  186.3270  174.7270  135.9980 C   0  0  2  0  0  3  0  0  0  0  0  0
  185.3130  175.8610  135.8320 C   0  0  0  0  0  2  0  0  0  0  0  0
  184.4680  178.1760  139.3510 C   0  0  1  0  0  3  0  0  0  0  0  0
  183.3620  178.1690  138.2980 C   0  0  0  0  0  2  0  0  0  0  0  0
  183.5640  177.0380  137.2830 C   0  0  0  0  0  2  0  0  0  0  0  0
  185.0360  176.6240  137.1290 C   0  0  2  0  0  3  0  0  0  0  0  0
  185.8520  178.4070  138.7240 C   0  0  0  0  0  2  0  0  0  0  0  0
  185.9940  177.8020  137.3180 C   0  0  0  0  0  2  0  0  0  0  0  0
  184.1750  179.1970  140.4400 C   0  0  0  0  0  2  0  0  0  0  0  0
  183.7400  178.5640  141.7330 C   0  0  0  0  0  0  0  0  0  0  0  0
  182.5410  178.2010  141.8880 O   0  0  0  0  0  0  0  0  0  0  0  0
  185.1700  178.5690  145.1710 C   0  0  0  0  0  3  0  0  0  0  0  0
  184.3220  178.7180  144.1180 N   0  0  0  0  0  0  0  0  0  0  0  0
  186.8780  177.7890  143.6700 C   0  0  0  0  0  3  0  0  0  0  0  0
  184.6980  178.4200  142.8430 C   0  0  0  0  0  0  0  0  0  0  0  0
  185.9980  177.9560  142.5990 C   0  0  0  0  0  3  0  0  0  0  0  0
  186.4750  178.0980  144.9760 C   0  0  0  0  0  0  0  0  0  0  0  0
  187.3740  177.9200  146.0870 N   0  0  0  0  0  0  0  0  0  0  0  0
  189.1990  177.8490  148.1450 O   0  0  0  0  0  0  0  0  0  0  0  0
  188.7490  177.4470  145.8290 C   0  0  0  0  0  2  0  0  0  0  0  0
  189.3910  176.9230  147.1130 C   0  0  0  0  0  2  0  0  0  0  0  0
  187.8540  177.7010  148.5200 C   0  0  0  0  0  2  0  0  0  0  0  0
  186.9410  178.3020  147.4430 C   0  0  0  0  0  2  0  0  0  0  0  0
  186.0810  173.9740  137.2300 N   0  0  0  0  0  2  0  0  0  0  0  0
  186.0900  172.5530  136.8990 C   0  0  0  0  0  2  0  0  0  0  0  0
  183.6130  172.5340  137.3330 C   0  0  0  0  0  3  0  0  0  0  0  0
  183.2300  170.8500  135.1790 N   0  0  0  0  0  0  0  0  0  0  0  0
  184.4930  171.2390  135.4990 C   0  0  0  0  0  3  0  0  0  0  0  0
  184.7100  172.0890  136.5870 C   0  0  0  0  0  0  0  0  0  0  0  0
  182.3240  172.1220  136.9900 C   0  0  0  0  0  3  0  0  0  0  0  0
  182.1520  171.2720  135.8940 C   0  0  0  0  0  0  0  0  0  0  0  0
  180.8440  170.8490  135.5250 N   0  0  0  0  0  1  0  0  0  0  0  0
  187.7090  175.2310  135.9700 N   0  0  0  0  0  2  0  0  0  0  0  0
  188.5640  174.3080  136.6070 N   0  0  0  0  0  2  0  0  0  0  0  0
  190.5600  173.9000  137.7220 O   0  0  0  0  0  0  0  0  0  0  0  0
  189.8930  174.6790  136.9840 C   0  0  0  0  0  0  0  0  0  0  0  0
  190.7650  177.0150  137.4310 N   0  0  0  0  0  0  0  0  0  0  0  0
  193.1440  176.4270  137.5990 C   0  0  0  0  0  2  0  0  0  0  0  0
  190.5030  175.9560  136.4310 C   0  0  1  0  0  3  0  0  0  0  0  0
  191.7640  175.6240  135.6890 C   0  0  0  0  0  3  0  0  0  0  0  0
  192.9680  175.7830  136.2450 C   0  0  0  0  0  0  0  0  0  0  0  0
  191.8180  176.5850  138.3540 C   0  0  0  0  0  2  0  0  0  0  0  0
  194.1390  175.3930  135.5080 C   0  0  0  0  0  0  0  0  0  0  0  0
  195.1270  175.0840  134.8850 C   0  0  0  0  0  3  0  0  0  0  0  0
  189.5540  177.3190  138.1910 C   0  0  0  0  0  2  0  0  0  0  0  0
  189.9310  178.0230  139.4880 C   0  0  0  0  0  2  0  0  0  0  0  0
  190.1070  176.5400  141.4510 C   0  0  0  0  0  2  0  0  0  0  0  0
  189.1650  177.4300  140.6630 C   0  0  0  0  0  3  0  0  0  0  0  0
  189.7730  177.9250  141.9620 C   0  0  0  0  0  2  0  0  0  0  0  0
  1  2  1  1  0  0  0
  1 24  1  0  0  0  0
  3  9  1  1  0  0  0
  4  3  1  0  0  0  0
  5  4  1  0  0  0  0
  6  2  1  6  0  0  0
  6  5  1  0  0  0  0
  6  8  1  0  0  0  0
  7  3  1  0  0  0  0
  8  7  1  0  0  0  0
  9 10  1  0  0  0  0
 10 11  2  0  0  0  0
 10 15  1  0  0  0  0
 13 12  2  0  0  0  0
 14 17  2  0  0  0  0
 15 13  1  0  0  0  0
 16 15  2  0  0  0  0
 16 14  1  0  0  0  0
 17 12  1  0  0  0  0
 17 18  1  0  0  0  0
 18 23  1  0  0  0  0
 19 22  1  0  0  0  0
 20 18  1  0  0  0  0
 20 21  1  0  0  0  0
 21 19  1  0  0  0  0
 23 22  1  0  0  0  0
 25 24  1  0  0  0  0
 27 28  2  0  0  0  0
 27 31  1  0  0  0  0
 28 29  1  0  0  0  0
 29 25  1  0  0  0  0
 29 26  2  0  0  0  0
 30 26  1  0  0  0  0
 31 30  2  0  0  0  0
 32 31  1  0  0  0  0
 33  1  1  0  0  0  0
 33 34  1  0  0  0  0
 34 36  1  0  0  0  0
 36 35  2  0  0  0  0
 37 45  1  0  0  0  0
 37 42  1  0  0  0  0
 38 42  1  0  0  0  0
 39 36  1  1  0  0  0
 39 37  1  0  0  0  0
 40 41  2  0  0  0  0
 40 39  1  0  0  0  0
 41 38  1  0  0  0  0
 43 41  1  0  0  0  0
 44 43  3  0  0  0  0
 45 46  1  0  0  0  0
 46 48  1  0  0  0  0
 47 49  1  0  0  0  0
 48 47  1  0  0  0  0
 48 49  1  0  0  0  0
M  END
>  <MODEL>
6

>  <REMARK>
 VINA RESULT:      -7.2      2.990      6.486
  Name = 
  16 active torsions:
  status: ('A' for Active; 'I' for Inactive)
    1  A    between atoms: C_1  and  C_46
    2  A    between atoms: N_3  and  C_44
    3  A    between atoms: N_6  and  N_16
    4  A    between atoms: N_6  and  C_18
    5  A    between atoms: N_7  and  C_25
    6  A    between atoms: C_11  and  C_23
    7  A    between atoms: C_11  and  N_28
    8  A    between atoms: C_12  and  C_45
    9  A    between atoms: C_18  and  C_22
   10  A    between atoms: C_18  and  N_28
   11  A    between atoms: C_20  and  C_48
   12  A    between atoms: C_22  and  C_40
   13  A    between atoms: C_24  and  C_37
   14  A    between atoms: C_25  and  C_48
   15  A    between atoms: C_29  and  C_33
   16  A    between atoms: C_33  and  C_46
                            x       y       z     vdW  Elec       q    Type
                         _______ _______ _______ _____ _____    ______ ____

>  <TORSDO>
F 16

$$$$
=
 OpenBabel10232410543D

 49 54  0  0  1  0  0  0  0  0999 V2000
  190.0490  176.6320  138.9860 C   0  0  2  0  0  3  0  0  0  0  0  0
  189.7810  177.5080  137.7600 C   0  0  0  0  0  2  0  0  0  0  0  0
  185.7120  177.3000  136.3970 C   0  0  1  0  0  3  0  0  0  0  0  0
  186.2720  175.9990  136.9690 C   0  0  0  0  0  2  0  0  0  0  0  0
  187.5530  176.2480  137.7730 C   0  0  0  0  0  2  0  0  0  0  0  0
  188.3170  177.5010  137.3150 C   0  0  2  0  0  3  0  0  0  0  0  0
  186.7000  177.9700  135.4290 C   0  0  0  0  0  2  0  0  0  0  0  0
  188.1730  177.7520  135.8120 C   0  0  0  0  0  2  0  0  0  0  0  0
  184.3610  177.0650  135.7370 C   0  0  0  0  0  2  0  0  0  0  0  0
  183.2110  177.5580  136.5710 C   0  0  0  0  0  0  0  0  0  0  0  0
  182.0990  177.8140  136.0290 O   0  0  0  0  0  0  0  0  0  0  0  0
  184.2830  179.1380  139.7680 C   0  0  0  0  0  3  0  0  0  0  0  0
  184.1180  178.8680  138.4450 N   0  0  0  0  0  0  0  0  0  0  0  0
  182.9590  177.2080  140.3140 C   0  0  0  0  0  3  0  0  0  0  0  0
  183.3940  177.7980  138.0130 C   0  0  0  0  0  0  0  0  0  0  0  0
  182.8060  176.9400  138.9530 C   0  0  0  0  0  3  0  0  0  0  0  0
  183.7050  178.3140  140.7420 C   0  0  0  0  0  0  0  0  0  0  0  0
  183.8600  178.6010  142.1450 N   0  0  0  0  0  0  0  0  0  0  0  0
  184.1940  179.4330  144.7460 O   0  0  0  0  0  0  0  0  0  0  0  0
  185.2190  178.6930  142.7140 C   0  0  0  0  0  2  0  0  0  0  0  0
  185.1770  178.5770  144.2370 C   0  0  0  0  0  2  0  0  0  0  0  0
  182.9760  178.7940  144.4650 C   0  0  0  0  0  2  0  0  0  0  0  0
  182.6680  178.8910  142.9640 C   0  0  0  0  0  2  0  0  0  0  0  0
  190.0350  177.4280  140.2160 N   0  0  0  0  0  2  0  0  0  0  0  0
  190.5340  176.5890  141.3010 C   0  0  0  0  0  2  0  0  0  0  0  0
  188.7180  176.2580  143.0080 C   0  0  0  0  0  3  0  0  0  0  0  0
  189.8160  178.2410  144.5860 N   0  0  0  0  0  0  0  0  0  0  0  0
  190.4000  177.9440  143.3940 C   0  0  0  0  0  3  0  0  0  0  0  0
  189.8590  176.9460  142.5790 C   0  0  0  0  0  0  0  0  0  0  0  0
  188.1320  176.5800  144.2340 C   0  0  0  0  0  3  0  0  0  0  0  0
  188.7050  177.5850  145.0190 C   0  0  0  0  0  0  0  0  0  0  0  0
  188.1250  177.9200  146.2750 N   0  0  0  0  0  1  0  0  0  0  0  0
  191.3190  175.9010  138.8600 N   0  0  0  0  0  2  0  0  0  0  0  0
  192.2940  176.7400  138.2810 N   0  0  0  0  0  2  0  0  0  0  0  0
  194.0680  176.9890  136.8050 O   0  0  0  0  0  0  0  0  0  0  0  0
  193.3350  176.1990  137.4630 C   0  0  0  0  0  0  0  0  0  0  0  0
  193.3500  174.0240  136.1640 N   0  0  0  0  0  0  0  0  0  0  0  0
  195.7400  174.0210  135.5990 C   0  0  0  0  0  2  0  0  0  0  0  0
  193.5860  174.7000  137.4590 C   0  0  1  0  0  3  0  0  0  0  0  0
  194.9820  174.4290  137.9360 C   0  0  0  0  0  3  0  0  0  0  0  0
  195.9790  174.1780  137.0820 C   0  0  0  0  0  0  0  0  0  0  0  0
  194.3360  174.4700  135.1770 C   0  0  0  0  0  2  0  0  0  0  0  0
  197.3080  173.9830  137.5930 C   0  0  0  0  0  0  0  0  0  0  0  0
  198.4270  173.8030  138.0130 C   0  0  0  0  0  3  0  0  0  0  0  0
  192.0060  174.3150  135.6670 C   0  0  0  0  0  2  0  0  0  0  0  0
  191.0700  173.1710  136.0360 C   0  0  0  0  0  2  0  0  0  0  0  0
  188.8060  173.8550  135.3360 C   0  0  0  0  0  2  0  0  0  0  0  0
  189.7330  173.7100  136.5270 C   0  0  0  0  0  3  0  0  0  0  0  0
  188.6510  172.6770  136.2730 C   0  0  0  0  0  2  0  0  0  0  0  0
  1  2  1  6  0  0  0
  1 24  1  0  0  0  0
  3  9  1  6  0  0  0
  3  4  1  0  0  0  0
  4  5  1  0  0  0  0
  6  2  1  6  0  0  0
  6  5  1  0  0  0  0
  7  8  1  0  0  0  0
  7  3  1  0  0  0  0
  8  6  1  0  0  0  0
  9 10  1  0  0  0  0
 10 15  1  0  0  0  0
 11 10  2  0  0  0  0
 12 17  1  0  0  0  0
 13 12  2  0  0  0  0
 14 17  2  0  0  0  0
 15 13  1  0  0  0  0
 15 16  2  0  0  0  0
 16 14  1  0  0  0  0
 17 18  1  0  0  0  0
 18 20  1  0  0  0  0
 18 23  1  0  0  0  0
 20 21  1  0  0  0  0
 21 19  1  0  0  0  0
 22 19  1  0  0  0  0
 23 22  1  0  0  0  0
 24 25  1  0  0  0  0
 25 29  1  0  0  0  0
 26 30  1  0  0  0  0
 27 31  1  0  0  0  0
 28 27  2  0  0  0  0
 29 26  2  0  0  0  0
 29 28  1  0  0  0  0
 30 31  2  0  0  0  0
 31 32  1  0  0  0  0
 33  1  1  0  0  0  0
 34 33  1  0  0  0  0
 35 36  2  0  0  0  0
 36 34  1  0  0  0  0
 37 39  1  0  0  0  0
 38 41  1  0  0  0  0
 39 36  1  6  0  0  0
 39 40  1  0  0  0  0
 41 43  1  0  0  0  0
 41 40  2  0  0  0  0
 42 38  1  0  0  0  0
 42 37  1  0  0  0  0
 43 44  3  0  0  0  0
 45 46  1  0  0  0  0
 45 37  1  0  0  0  0
 46 48  1  0  0  0  0
 47 49  1  0  0  0  0
 47 48  1  0  0  0  0
 49 48  1  0  0  0  0
M  END
>  <MODEL>
7

>  <REMARK>
 VINA RESULT:      -7.2      1.831      5.520
  Name = 
  16 active torsions:
  status: ('A' for Active; 'I' for Inactive)
    1  A    between atoms: C_1  and  C_46
    2  A    between atoms: N_3  and  C_44
    3  A    between atoms: N_6  and  N_16
    4  A    between atoms: N_6  and  C_18
    5  A    between atoms: N_7  and  C_25
    6  A    between atoms: C_11  and  C_23
    7  A    between atoms: C_11  and  N_28
    8  A    between atoms: C_12  and  C_45
    9  A    between atoms: C_18  and  C_22
   10  A    between atoms: C_18  and  N_28
   11  A    between atoms: C_20  and  C_48
   12  A    between atoms: C_22  and  C_40
   13  A    between atoms: C_24  and  C_37
   14  A    between atoms: C_25  and  C_48
   15  A    between atoms: C_29  and  C_33
   16  A    between atoms: C_33  and  C_46
                            x       y       z     vdW  Elec       q    Type
                         _______ _______ _______ _____ _____    ______ ____

>  <TORSDO>
F 16

$$$$
=
 OpenBabel10232410543D

 49 54  0  0  1  0  0  0  0  0999 V2000
  188.0890  177.9380  139.2360 C   0  0  2  0  0  3  0  0  0  0  0  0
  188.8990  178.3820  138.0160 C   0  0  0  0  0  2  0  0  0  0  0  0
  190.8050  175.2520  135.7750 C   0  0  1  0  0  3  0  0  0  0  0  0
  191.7300  176.0490  136.6920 C   0  0  0  0  0  2  0  0  0  0  0  0
  190.9340  176.8590  137.7210 C   0  0  0  0  0  2  0  0  0  0  0  0
  189.5190  177.2190  137.2400 C   0  0  2  0  0  3  0  0  0  0  0  0
  189.8720  176.1690  134.9680 C   0  0  0  0  0  2  0  0  0  0  0  0
  189.4590  177.4400  135.7270 C   0  0  0  0  0  2  0  0  0  0  0  0
  191.6040  174.3330  134.8630 C   0  0  0  0  0  2  0  0  0  0  0  0
  191.5170  172.8870  135.2690 C   0  0  0  0  0  0  0  0  0  0  0  0
  190.4150  172.2760  135.2030 O   0  0  0  0  0  0  0  0  0  0  0  0
  194.0270  170.2240  135.9580 C   0  0  0  0  0  3  0  0  0  0  0  0
  192.9270  170.8850  135.5090 N   0  0  0  0  0  0  0  0  0  0  0  0
  194.7700  172.2290  137.0560 C   0  0  0  0  0  3  0  0  0  0  0  0
  192.7060  172.1970  135.8010 C   0  0  0  0  0  0  0  0  0  0  0  0
  193.6300  172.8910  136.5950 C   0  0  0  0  0  3  0  0  0  0  0  0
  194.9830  170.8800  136.7440 C   0  0  0  0  0  0  0  0  0  0  0  0
  196.1600  170.1930  137.2090 N   0  0  0  0  0  0  0  0  0  0  0  0
  198.4230  169.0830  138.3140 O   0  0  0  0  0  0  0  0  0  0  0  0
  197.4900  170.7010  136.8170 C   0  0  0  0  0  2  0  0  0  0  0  0
  198.5630  169.6350  137.0350 C   0  0  0  0  0  2  0  0  0  0  0  0
  197.3110  168.2300  138.2210 C   0  0  0  0  0  2  0  0  0  0  0  0
  196.0220  169.0580  138.1410 C   0  0  0  0  0  2  0  0  0  0  0  0
  186.8230  178.6700  139.3250 N   0  0  0  0  0  2  0  0  0  0  0  0
  185.9780  178.2440  138.2130 C   0  0  0  0  0  2  0  0  0  0  0  0
  183.9850  179.4500  139.1620 C   0  0  0  0  0  3  0  0  0  0  0  0
  182.4020  177.2350  138.6980 N   0  0  0  0  0  0  0  0  0  0  0  0
  183.7240  177.1820  138.3820 C   0  0  0  0  0  3  0  0  0  0  0  0
  184.5440  178.2910  138.6110 C   0  0  0  0  0  0  0  0  0  0  0  0
  182.6270  179.4830  139.4810 C   0  0  0  0  0  3  0  0  0  0  0  0
  181.8420  178.3530  139.2350 C   0  0  0  0  0  0  0  0  0  0  0  0
  180.4540  178.3730  139.5480 N   0  0  0  0  0  1  0  0  0  0  0  0
  188.8600  178.0900  140.4800 N   0  0  0  0  0  2  0  0  0  0  0  0
  188.9670  176.8430  141.1280 N   0  0  0  0  0  2  0  0  0  0  0  0
  188.5590  175.5470  143.0110 O   0  0  0  0  0  0  0  0  0  0  0  0
  188.6410  176.7050  142.5140 C   0  0  0  0  0  0  0  0  0  0  0  0
  187.0950  178.2130  143.8370 N   0  0  0  0  0  0  0  0  0  0  0  0
  187.5240  177.2290  146.0460 C   0  0  0  0  0  2  0  0  0  0  0  0
  188.4750  177.9460  143.3740 C   0  0  1  0  0  3  0  0  0  0  0  0
  189.4070  177.8670  144.5470 C   0  0  0  0  0  3  0  0  0  0  0  0
  188.9830  177.4810  145.7540 C   0  0  0  0  0  0  0  0  0  0  0  0
  186.6690  177.1720  144.7740 C   0  0  0  0  0  2  0  0  0  0  0  0
  189.9330  177.3660  146.8270 C   0  0  0  0  0  0  0  0  0  0  0  0
  190.7290  177.2510  147.7290 C   0  0  0  0  0  3  0  0  0  0  0  0
  186.1690  178.2520  142.7060 C   0  0  0  0  0  2  0  0  0  0  0  0
  185.0030  179.1760  143.0360 C   0  0  0  0  0  2  0  0  0  0  0  0
  183.0960  178.8210  144.5600 C   0  0  0  0  0  2  0  0  0  0  0  0
  183.7280  178.3730  143.2550 C   0  0  0  0  0  3  0  0  0  0  0  0
  182.5350  179.3110  143.2420 C   0  0  0  0  0  2  0  0  0  0  0  0
  1  2  1  6  0  0  0
  1 24  1  0  0  0  0
  1 33  1  0  0  0  0
  3  9  1  6  0  0  0
  3  4  1  0  0  0  0
  4  5  1  0  0  0  0
  6  5  1  0  0  0  0
  6  2  1  1  0  0  0
  7  8  1  0  0  0  0
  7  3  1  0  0  0  0
  8  6  1  0  0  0  0
  9 10  1  0  0  0  0
 10 15  1  0  0  0  0
 11 10  2  0  0  0  0
 12 17  1  0  0  0  0
 13 15  1  0  0  0  0
 13 12  2  0  0  0  0
 15 16  2  0  0  0  0
 16 14  1  0  0  0  0
 17 14  2  0  0  0  0
 17 18  1  0  0  0  0
 18 23  1  0  0  0  0
 20 21  1  0  0  0  0
 20 18  1  0  0  0  0
 21 19  1  0  0  0  0
 22 19  1  0  0  0  0
 23 22  1  0  0  0  0
 25 29  1  0  0  0  0
 25 24  1  0  0  0  0
 26 30  1  0  0  0  0
 27 31  1  0  0  0  0
 28 29  1  0  0  0  0
 28 27  2  0  0  0  0
 29 26  2  0  0  0  0
 31 30  2  0  0  0  0
 31 32  1  0  0  0  0
 33 34  1  0  0  0  0
 34 36  1  0  0  0  0
 36 35  2  0  0  0  0
 37 42  1  0  0  0  0
 39 36  1  1  0  0  0
 39 37  1  0  0  0  0
 39 40  1  0  0  0  0
 40 41  2  0  0  0  0
 41 38  1  0  0  0  0
 41 43  1  0  0  0  0
 42 38  1  0  0  0  0
 43 44  3  0  0  0  0
 45 46  1  0  0  0  0
 45 37  1  0  0  0  0
 46 48  1  0  0  0  0
 48 47  1  0  0  0  0
 49 48  1  0  0  0  0
 49 47  1  0  0  0  0
M  END
>  <MODEL>
8

>  <REMARK>
 VINA RESULT:      -7.1      2.754     11.323
  Name = 
  16 active torsions:
  status: ('A' for Active; 'I' for Inactive)
    1  A    between atoms: C_1  and  C_46
    2  A    between atoms: N_3  and  C_44
    3  A    between atoms: N_6  and  N_16
    4  A    between atoms: N_6  and  C_18
    5  A    between atoms: N_7  and  C_25
    6  A    between atoms: C_11  and  C_23
    7  A    between atoms: C_11  and  N_28
    8  A    between atoms: C_12  and  C_45
    9  A    between atoms: C_18  and  C_22
   10  A    between atoms: C_18  and  N_28
   11  A    between atoms: C_20  and  C_48
   12  A    between atoms: C_22  and  C_40
   13  A    between atoms: C_24  and  C_37
   14  A    between atoms: C_25  and  C_48
   15  A    between atoms: C_29  and  C_33
   16  A    between atoms: C_33  and  C_46
                            x       y       z     vdW  Elec       q    Type
                         _______ _______ _______ _____ _____    ______ ____

>  <TORSDO>
F 16

$$$$
=
 OpenBabel10232410543D

 49 54  0  0  1  0  0  0  0  0999 V2000
  183.4750  177.5510  137.7410 C   0  0  2  0  0  3  0  0  0  0  0  0
  182.8170  176.8280  138.9190 C   0  0  0  0  0  2  0  0  0  0  0  0
  183.6250  178.7930  142.6520 C   0  0  1  0  0  3  0  0  0  0  0  0
  182.2220  179.0140  142.0940 C   0  0  0  0  0  2  0  0  0  0  0  0
  181.8890  177.9930  140.9990 C   0  0  0  0  0  2  0  0  0  0  0  0
  183.1350  177.4590  140.2750 C   0  0  2  0  0  3  0  0  0  0  0  0
  184.7040  178.9600  141.5700 C   0  0  0  0  0  2  0  0  0  0  0  0
  184.2430  178.5100  140.1740 C   0  0  0  0  0  2  0  0  0  0  0  0
  183.8860  179.7060  143.8410 C   0  0  0  0  0  2  0  0  0  0  0  0
  184.1840  178.9480  145.1050 C   0  0  0  0  0  0  0  0  0  0  0  0
  183.2740  178.7570  145.9590 O   0  0  0  0  0  0  0  0  0  0  0  0
  187.6250  177.6290  144.5690 C   0  0  0  0  0  3  0  0  0  0  0  0
  186.3480  178.0430  144.3590 N   0  0  0  0  0  0  0  0  0  0  0  0
  187.3710  178.0760  146.9180 C   0  0  0  0  0  3  0  0  0  0  0  0
  185.5540  178.4760  145.3780 C   0  0  0  0  0  0  0  0  0  0  0  0
  186.0590  178.4890  146.6860 C   0  0  0  0  0  3  0  0  0  0  0  0
  188.1760  177.6350  145.8580 C   0  0  0  0  0  0  0  0  0  0  0  0
  189.5330  177.2150  146.0880 N   0  0  0  0  0  0  0  0  0  0  0  0
  192.1990  176.7000  146.5380 O   0  0  0  0  0  0  0  0  0  0  0  0
  190.4680  177.1480  144.9470 C   0  0  0  0  0  2  0  0  0  0  0  0
  191.6900  176.3000  145.2970 C   0  0  0  0  0  2  0  0  0  0  0  0
  191.3090  176.1660  147.4840 C   0  0  0  0  0  2  0  0  0  0  0  0
  189.9910  176.9530  147.4650 C   0  0  0  0  0  2  0  0  0  0  0  0
  182.6670  177.4250  136.5260 N   0  0  0  0  0  2  0  0  0  0  0  0
  181.7790  176.2780  136.6930 C   0  0  0  0  0  2  0  0  0  0  0  0
  183.3140  175.2020  135.0170 C   0  0  0  0  0  3  0  0  0  0  0  0
  182.5610  172.6990  135.9090 N   0  0  0  0  0  0  0  0  0  0  0  0
  181.9960  173.8000  136.4730 C   0  0  0  0  0  3  0  0  0  0  0  0
  182.3610  175.0760  136.0350 C   0  0  0  0  0  0  0  0  0  0  0  0
  183.8800  174.0590  134.4490 C   0  0  0  0  0  3  0  0  0  0  0  0
  183.4880  172.8020  134.9180 C   0  0  0  0  0  0  0  0  0  0  0  0
  184.0610  171.6260  134.3550 N   0  0  0  0  0  1  0  0  0  0  0  0
  184.8420  177.0620  137.5030 N   0  0  0  0  0  2  0  0  0  0  0  0
  185.7080  178.1560  137.2970 N   0  0  0  0  0  2  0  0  0  0  0  0
  187.8660  178.9310  136.9270 O   0  0  0  0  0  0  0  0  0  0  0  0
  187.1280  177.9790  137.3080 C   0  0  0  0  0  0  0  0  0  0  0  0
  188.4370  175.8600  136.8490 N   0  0  0  0  0  0  0  0  0  0  0  0
  190.6330  176.6940  137.5630 C   0  0  0  0  0  2  0  0  0  0  0  0
  187.7200  176.6870  137.8450 C   0  0  1  0  0  3  0  0  0  0  0  0
  188.6240  176.9980  139.0020 C   0  0  0  0  0  3  0  0  0  0  0  0
  189.9510  177.0600  138.8590 C   0  0  0  0  0  0  0  0  0  0  0  0
  189.6460  176.5500  136.3970 C   0  0  0  0  0  2  0  0  0  0  0  0
  190.7630  177.4200  139.9890 C   0  0  0  0  0  0  0  0  0  0  0  0
  191.4300  177.7310  140.9480 C   0  0  0  0  0  3  0  0  0  0  0  0
  187.5800  175.5840  135.6960 C   0  0  0  0  0  2  0  0  0  0  0  0
  187.3590  174.0820  135.5750 C   0  0  0  0  0  2  0  0  0  0  0  0
  186.2950  172.3350  136.9540 C   0  0  0  0  0  2  0  0  0  0  0  0
  187.3440  173.4300  136.9510 C   0  0  0  0  0  3  0  0  0  0  0  0
  187.7590  171.9760  136.8240 C   0  0  0  0  0  2  0  0  0  0  0  0
  1  2  1  1  0  0  0
  3  9  1  1  0  0  0
  4  3  1  0  0  0  0
  5  4  1  0  0  0  0
  6  2  1  6  0  0  0
  6  5  1  0  0  0  0
  7  3  1  0  0  0  0
  8  6  1  0  0  0  0
  8  7  1  0  0  0  0
  9 10  1  0  0  0  0
 10 15  1  0  0  0  0
 10 11  2  0  0  0  0
 12 17  1  0  0  0  0
 13 12  2  0  0  0  0
 13 15  1  0  0  0  0
 15 16  2  0  0  0  0
 16 14  1  0  0  0  0
 17 18  1  0  0  0  0
 17 14  2  0  0  0  0
 18 23  1  0  0  0  0
 19 22  1  0  0  0  0
 20 21  1  0  0  0  0
 20 18  1  0  0  0  0
 21 19  1  0  0  0  0
 23 22  1  0  0  0  0
 24 25  1  0  0  0  0
 24  1  1  0  0  0  0
 26 29  1  0  0  0  0
 27 28  1  0  0  0  0
 29 28  2  0  0  0  0
 29 25  1  0  0  0  0
 30 31  1  0  0  0  0
 30 26  2  0  0  0  0
 31 27  2  0  0  0  0
 32 31  1  0  0  0  0
 33  1  1  0  0  0  0
 34 36  1  0  0  0  0
 34 33  1  0  0  0  0
 35 36  2  0  0  0  0
 37 39  1  0  0  0  0
 38 41  1  0  0  0  0
 39 36  1  6  0  0  0
 39 40  1  0  0  0  0
 41 40  2  0  0  0  0
 41 43  1  0  0  0  0
 42 37  1  0  0  0  0
 42 38  1  0  0  0  0
 43 44  3  0  0  0  0
 45 37  1  0  0  0  0
 46 45  1  0  0  0  0
 46 48  1  0  0  0  0
 48 47  1  0  0  0  0
 49 48  1  0  0  0  0
 49 47  1  0  0  0  0
M  END
>  <MODEL>
9

>  <REMARK>
 VINA RESULT:      -7.1      3.116      6.827
  Name = 
  16 active torsions:
  status: ('A' for Active; 'I' for Inactive)
    1  A    between atoms: C_1  and  C_46
    2  A    between atoms: N_3  and  C_44
    3  A    between atoms: N_6  and  N_16
    4  A    between atoms: N_6  and  C_18
    5  A    between atoms: N_7  and  C_25
    6  A    between atoms: C_11  and  C_23
    7  A    between atoms: C_11  and  N_28
    8  A    between atoms: C_12  and  C_45
    9  A    between atoms: C_18  and  C_22
   10  A    between atoms: C_18  and  N_28
   11  A    between atoms: C_20  and  C_48
   12  A    between atoms: C_22  and  C_40
   13  A    between atoms: C_24  and  C_37
   14  A    between atoms: C_25  and  C_48
   15  A    between atoms: C_29  and  C_33
   16  A    between atoms: C_33  and  C_46
                            x       y       z     vdW  Elec       q    Type
                         _______ _______ _______ _____ _____    ______ ____

>  <TORSDO>
F 16

$$$$
