=
 OpenBabel10232410343D

 38 42  0  0  1  0  0  0  0  0999 V2000
  189.3420  177.2490  146.4440 C   0  0  0  0  0  0  0  0  0  0  0  0
  186.3220  177.7350  146.2230 C   0  0  0  0  0  3  0  0  0  0  0  0
  187.9770  177.5910  144.3270 C   0  0  0  0  0  0  0  0  0  0  0  0
  187.0750  177.8220  147.3140 C   0  0  0  0  0  3  0  0  0  0  0  0
  188.4880  177.9980  147.3150 N   0  0  0  0  0  0  0  0  0  0  0  0
  186.7330  177.8380  144.8130 C   0  0  0  0  0  0  0  0  0  0  0  0
  189.1090  177.1020  145.1430 C   0  0  0  0  0  3  0  0  0  0  0  0
  190.6170  176.6910  146.9740 C   0  0  0  0  0  1  0  0  0  0  0  0
  189.0340  178.5520  148.4250 O   0  0  0  0  0  1  0  0  0  0  0  0
  189.3910  177.0690  142.3230 C   0  0  0  0  0  3  0  0  0  0  0  0
  189.6620  177.2020  140.9590 C   0  0  0  0  0  0  0  0  0  0  0  0
  188.8270  177.9820  140.1590 C   0  0  0  0  0  3  0  0  0  0  0  0
  187.7260  178.6140  140.7380 C   0  0  0  0  0  3  0  0  0  0  0  0
  188.2700  177.7080  142.8730 C   0  0  0  0  0  0  0  0  0  0  0  0
  187.4760  178.4690  142.0670 N   0  0  0  0  0  0  0  0  0  0  0  0
  190.8560  176.5370  140.3690 C   0  0  0  0  0  2  0  0  0  0  0  0
  191.1770  177.1480  139.0190 C   0  0  0  0  0  2  0  0  0  0  0  0
  191.4310  176.0420  138.0120 C   0  0  0  0  0  2  0  0  0  0  0  0
  194.5670  174.8090  137.8950 C   0  0  0  0  0  0  0  0  0  0  0  0
  193.0290  175.1460  136.2990 C   0  0  1  0  0  3  0  0  0  0  0  0
  193.3690  175.8280  134.9880 C   0  0  0  0  0  1  0  0  0  0  0  0
  194.1680  174.3650  136.7560 N   0  0  0  0  0  0  0  0  0  0  0  0
  192.8080  176.2020  137.3900 C   0  0  2  0  0  3  0  0  0  0  0  0
  193.8250  175.9100  138.3860 N   0  0  0  0  0  2  0  0  0  0  0  0
  196.8620  174.9620  138.8090 O   0  0  0  0  0  0  0  0  0  0  0  0
  195.6990  174.2250  138.6190 C   0  0  0  0  0  0  0  0  0  0  0  0
  195.6230  173.0530  139.0720 O   0  0  0  0  0  1  0  0  0  0  0  0
  184.7170  178.3520  143.1720 C   0  0  0  0  0  0  0  0  0  0  0  0
  185.6360  178.1220  143.9180 C   0  0  0  0  0  0  0  0  0  0  0  0
  183.6190  178.6160  142.2790 C   0  0  0  0  0  0  0  0  0  0  0  0
  181.4320  178.9230  140.3800 C   0  0  0  0  0  3  0  0  0  0  0  0
  180.0400  179.0060  142.5410 C   0  0  0  0  0  3  0  0  0  0  0  0
  183.8820  178.7830  140.8380 C   0  0  0  0  0  3  0  0  0  0  0  0
  181.9050  178.6140  144.1260 C   0  0  0  0  0  3  0  0  0  0  0  0
  182.8830  178.9490  139.9600 C   0  0  0  0  0  3  0  0  0  0  0  0
  181.3020  179.0070  141.8330 N   0  0  0  0  0  0  0  0  0  0  0  0
  180.4000  178.8840  144.0290 C   0  0  0  0  0  3  0  0  0  0  0  0
  182.3640  178.7380  142.7240 C   0  0  0  0  0  0  0  0  0  0  0  0
  1  8  1  0  0  0  0
  1  5  1  0  0  0  0
  2  4  2  0  0  0  0
  3  6  2  0  0  0  0
  3  7  1  0  0  0  0
  4  5  1  0  0  0  0
  5  9  1  0  0  0  0
  6  2  1  0  0  0  0
  7  1  2  0  0  0  0
 10 14  1  0  0  0  0
 11 10  2  0  0  0  0
 12 13  2  0  0  0  0
 12 11  1  0  0  0  0
 13 15  1  0  0  0  0
 14  3  1  0  0  0  0
 15 14  2  0  0  0  0
 16 11  1  0  0  0  0
 17 16  1  0  0  0  0
 18 17  1  0  0  0  0
 19 24  1  0  0  0  0
 19 26  1  0  0  0  0
 20 21  1  6  0  0  0
 20 22  1  0  0  0  0
 20 23  1  0  0  0  0
 22 19  2  0  0  0  0
 23 18  1  1  0  0  0
 23 24  1  0  0  0  0
 26 25  2  0  0  0  0
 26 27  1  0  0  0  0
 28 29  3  0  0  0  0
 29  6  1  0  0  0  0
 30 38  1  0  0  0  0
 30 28  1  0  0  0  0
 31 36  1  0  0  0  0
 32 37  2  0  0  0  0
 33 30  2  0  0  0  0
 35 31  2  0  0  0  0
 35 33  1  0  0  0  0
 36 32  1  0  0  0  0
 36 38  1  0  0  0  0
 37 34  1  0  0  0  0
 38 34  2  0  0  0  0
M  END
>  <MODEL>
1

>  <REMARK>
 VINA RESULT:     -10.1      0.000      0.000
  Name = 
  8 active torsions:
  status: ('A' for Active; 'I' for Inactive)
    1  A    between atoms: C_2  and  C_22
    2  A    between atoms: C_3  and  C_5
    3  A    between atoms: C_8  and  C_14
    4  A    between atoms: C_8  and  C_16
    5  A    between atoms: C_9  and  C_26
    6  A    between atoms: C_16  and  C_19
    7  A    between atoms: C_19  and  C_28
    8  A    between atoms: C_24  and  C_31
                            x       y       z     vdW  Elec       q    Type
                         _______ _______ _______ _____ _____    ______ ____

>  <TORSDO>
F 8

$$$$
=
 OpenBabel10232410343D

 38 42  0  0  1  0  0  0  0  0999 V2000
  189.5370  177.1990  146.2550 C   0  0  0  0  0  0  0  0  0  0  0  0
  186.5010  177.5910  146.0690 C   0  0  0  0  0  3  0  0  0  0  0  0
  188.1480  177.5740  144.1610 C   0  0  0  0  0  0  0  0  0  0  0  0
  187.2580  177.6630  147.1590 C   0  0  0  0  0  3  0  0  0  0  0  0
  188.6650  177.8860  147.1590 N   0  0  0  0  0  0  0  0  0  0  0  0
  186.8990  177.7600  144.6610 C   0  0  0  0  0  0  0  0  0  0  0  0
  189.3010  177.0930  144.9510 C   0  0  0  0  0  3  0  0  0  0  0  0
  190.8340  176.6640  146.7580 C   0  0  0  0  0  1  0  0  0  0  0  0
  189.1990  178.4170  148.2850 O   0  0  0  0  0  1  0  0  0  0  0  0
  189.4890  177.0690  142.1030 C   0  0  0  0  0  3  0  0  0  0  0  0
  189.7490  177.2610  140.7440 C   0  0  0  0  0  0  0  0  0  0  0  0
  188.9620  178.1460  140.0060 C   0  0  0  0  0  3  0  0  0  0  0  0
  187.9200  178.8220  140.6420 C   0  0  0  0  0  3  0  0  0  0  0  0
  188.4270  177.7540  142.7100 C   0  0  0  0  0  0  0  0  0  0  0  0
  187.6790  178.6180  141.9640 N   0  0  0  0  0  0  0  0  0  0  0  0
  190.8810  176.5470  140.0940 C   0  0  0  0  0  2  0  0  0  0  0  0
  190.7950  176.6980  138.5870 C   0  0  0  0  0  2  0  0  0  0  0  0
  190.3260  175.3920  137.9750 C   0  0  0  0  0  2  0  0  0  0  0  0
  187.5440  177.0580  137.0530 C   0  0  0  0  0  0  0  0  0  0  0  0
  189.6250  177.0410  136.2200 C   0  0  1  0  0  3  0  0  0  0  0  0
  189.8940  176.8950  134.7350 C   0  0  0  0  0  1  0  0  0  0  0  0
  188.3950  177.7900  136.4250 N   0  0  0  0  0  0  0  0  0  0  0  0
  189.3570  175.6610  136.8360 C   0  0  2  0  0  3  0  0  0  0  0  0
  188.0070  175.7560  137.3620 N   0  0  0  0  0  2  0  0  0  0  0  0
  186.0140  178.8520  137.8060 O   0  0  0  0  0  1  0  0  0  0  0  0
  186.2050  177.5330  137.4120 C   0  0  0  0  0  0  0  0  0  0  0  0
  185.2220  176.7480  137.3650 O   0  0  0  0  0  0  0  0  0  0  0  0
  184.8630  178.2720  143.0450 C   0  0  0  0  0  0  0  0  0  0  0  0
  185.7870  178.0400  143.7840 C   0  0  0  0  0  0  0  0  0  0  0  0
  183.7660  178.5500  142.1550 C   0  0  0  0  0  0  0  0  0  0  0  0
  181.5780  178.8820  140.2630 C   0  0  0  0  0  3  0  0  0  0  0  0
  180.1990  179.0250  142.4300 C   0  0  0  0  0  3  0  0  0  0  0  0
  184.0250  178.6920  140.7100 C   0  0  0  0  0  3  0  0  0  0  0  0
  182.0630  178.6100  144.0090 C   0  0  0  0  0  3  0  0  0  0  0  0
  183.0260  178.8700  139.8350 C   0  0  0  0  0  3  0  0  0  0  0  0
  181.4560  178.9880  141.7150 N   0  0  0  0  0  0  0  0  0  0  0  0
  180.5640  178.9140  143.9170 C   0  0  0  0  0  3  0  0  0  0  0  0
  182.5170  178.7060  142.6040 C   0  0  0  0  0  0  0  0  0  0  0  0
  1  8  1  0  0  0  0
  1  5  1  0  0  0  0
  2  4  2  0  0  0  0
  3  6  2  0  0  0  0
  3  7  1  0  0  0  0
  5  4  1  0  0  0  0
  5  9  1  0  0  0  0
  6  2  1  0  0  0  0
  7  1  2  0  0  0  0
 10 14  1  0  0  0  0
 11 10  2  0  0  0  0
 12 13  2  0  0  0  0
 12 11  1  0  0  0  0
 13 15  1  0  0  0  0
 14  3  1  0  0  0  0
 15 14  2  0  0  0  0
 16 11  1  0  0  0  0
 17 16  1  0  0  0  0
 18 17  1  0  0  0  0
 19 24  1  0  0  0  0
 19 26  1  0  0  0  0
 20 21  1  6  0  0  0
 20 22  1  0  0  0  0
 20 23  1  0  0  0  0
 22 19  2  0  0  0  0
 23 24  1  0  0  0  0
 23 18  1  1  0  0  0
 26 25  1  0  0  0  0
 27 26  2  0  0  0  0
 28 29  3  0  0  0  0
 29  6  1  0  0  0  0
 30 38  1  0  0  0  0
 30 28  1  0  0  0  0
 31 36  1  0  0  0  0
 32 37  2  0  0  0  0
 33 30  2  0  0  0  0
 35 31  2  0  0  0  0
 35 33  1  0  0  0  0
 36 32  1  0  0  0  0
 36 38  1  0  0  0  0
 37 34  1  0  0  0  0
 38 34  2  0  0  0  0
M  END
>  <MODEL>
2

>  <REMARK>
 VINA RESULT:     -10.1      3.303      3.773
  Name = 
  8 active torsions:
  status: ('A' for Active; 'I' for Inactive)
    1  A    between atoms: C_2  and  C_22
    2  A    between atoms: C_3  and  C_5
    3  A    between atoms: C_8  and  C_14
    4  A    between atoms: C_8  and  C_16
    5  A    between atoms: C_9  and  C_26
    6  A    between atoms: C_16  and  C_19
    7  A    between atoms: C_19  and  C_28
    8  A    between atoms: C_24  and  C_31
                            x       y       z     vdW  Elec       q    Type
                         _______ _______ _______ _____ _____    ______ ____

>  <TORSDO>
F 8

$$$$
=
 OpenBabel10232410343D

 38 42  0  0  1  0  0  0  0  0999 V2000
  190.1230  177.4840  140.6820 C   0  0  0  0  0  0  0  0  0  0  0  0
  188.1100  177.9060  138.4070 C   0  0  0  0  0  3  0  0  0  0  0  0
  187.6880  178.1860  140.8770 C   0  0  0  0  0  0  0  0  0  0  0  0
  189.2850  177.2890  138.3400 C   0  0  0  0  0  3  0  0  0  0  0  0
  189.9880  176.7550  139.4580 N   0  0  0  0  0  0  0  0  0  0  0  0
  187.2610  178.1400  139.5880 C   0  0  0  0  0  0  0  0  0  0  0  0
  189.1030  178.0820  141.2910 C   0  0  0  0  0  3  0  0  0  0  0  0
  191.4360  177.4940  141.3860 C   0  0  0  0  0  1  0  0  0  0  0  0
  190.8740  175.7620  139.2040 O   0  0  0  0  0  1  0  0  0  0  0  0
  186.8640  177.7710  143.2080 C   0  0  0  0  0  3  0  0  0  0  0  0
  185.9540  178.0190  144.2380 C   0  0  0  0  0  0  0  0  0  0  0  0
  184.9150  178.9300  144.0410 C   0  0  0  0  0  3  0  0  0  0  0  0
  184.8090  179.5850  142.8130 C   0  0  0  0  0  3  0  0  0  0  0  0
  186.7370  178.4530  141.9900 C   0  0  0  0  0  0  0  0  0  0  0  0
  185.7080  179.3330  141.8240 N   0  0  0  0  0  0  0  0  0  0  0  0
  186.0740  177.2910  145.5310 C   0  0  0  0  0  2  0  0  0  0  0  0
  186.8320  178.1360  146.5360 C   0  0  0  0  0  2  0  0  0  0  0  0
  187.9070  177.2940  147.1950 C   0  0  0  0  0  2  0  0  0  0  0  0
  191.1970  176.6000  146.9510 C   0  0  0  0  0  0  0  0  0  0  0  0
  189.7390  177.4770  145.4920 C   0  0  1  0  0  3  0  0  0  0  0  0
  190.0580  178.7240  144.6900 C   0  0  0  0  0  1  0  0  0  0  0  0
  190.9520  176.6990  145.6930 N   0  0  0  0  0  0  0  0  0  0  0  0
  189.2820  177.8710  146.9030 C   0  0  2  0  0  3  0  0  0  0  0  0
  190.2610  177.2580  147.7840 N   0  0  0  0  0  2  0  0  0  0  0  0
  192.9730  176.2890  148.6470 O   0  0  0  0  0  1  0  0  0  0  0  0
  192.3540  175.8690  147.4760 C   0  0  0  0  0  0  0  0  0  0  0  0
  192.7910  174.8580  146.8680 O   0  0  0  0  0  0  0  0  0  0  0  0
  184.7430  178.6970  138.9790 C   0  0  0  0  0  0  0  0  0  0  0  0
  185.8910  178.4470  139.2540 C   0  0  0  0  0  0  0  0  0  0  0  0
  183.3710  178.9850  138.6520 C   0  0  0  0  0  0  0  0  0  0  0  0
  180.6810  179.6970  137.7940 C   0  0  0  0  0  3  0  0  0  0  0  0
  180.5100  177.1560  137.4290 C   0  0  0  0  0  3  0  0  0  0  0  0
  182.8670  180.3630  138.7970 C   0  0  0  0  0  3  0  0  0  0  0  0
  182.8460  176.5980  138.0400 C   0  0  0  0  0  3  0  0  0  0  0  0
  181.6210  180.6940  138.4280 C   0  0  0  0  0  3  0  0  0  0  0  0
  181.1860  178.3320  137.9320 N   0  0  0  0  0  0  0  0  0  0  0  0
  181.5050  175.9990  137.6030 C   0  0  0  0  0  3  0  0  0  0  0  0
  182.5310  178.0310  138.2390 C   0  0  0  0  0  0  0  0  0  0  0  0
  1  7  2  0  0  0  0
  1  8  1  0  0  0  0
  2  6  1  0  0  0  0
  3  7  1  0  0  0  0
  3 14  1  0  0  0  0
  4  2  2  0  0  0  0
  4  5  1  0  0  0  0
  5  1  1  0  0  0  0
  6  3  2  0  0  0  0
  9  5  1  0  0  0  0
 10 11  1  0  0  0  0
 11 16  1  0  0  0  0
 12 11  2  0  0  0  0
 13 12  1  0  0  0  0
 14 10  2  0  0  0  0
 15 14  1  0  0  0  0
 15 13  2  0  0  0  0
 16 17  1  0  0  0  0
 17 18  1  0  0  0  0
 19 26  1  0  0  0  0
 19 24  1  0  0  0  0
 20 21  1  6  0  0  0
 20 22  1  0  0  0  0
 20 23  1  0  0  0  0
 22 19  2  0  0  0  0
 23 18  1  1  0  0  0
 23 24  1  0  0  0  0
 26 25  1  0  0  0  0
 27 26  2  0  0  0  0
 28 29  3  0  0  0  0
 29  6  1  0  0  0  0
 30 33  2  0  0  0  0
 30 28  1  0  0  0  0
 31 36  1  0  0  0  0
 31 35  2  0  0  0  0
 32 37  2  0  0  0  0
 32 36  1  0  0  0  0
 34 38  2  0  0  0  0
 35 33  1  0  0  0  0
 36 38  1  0  0  0  0
 37 34  1  0  0  0  0
 38 30  1  0  0  0  0
M  END
>  <MODEL>
3

>  <REMARK>
 VINA RESULT:      -9.8      3.206      7.018
  Name = 
  8 active torsions:
  status: ('A' for Active; 'I' for Inactive)
    1  A    between atoms: C_2  and  C_22
    2  A    between atoms: C_3  and  C_5
    3  A    between atoms: C_8  and  C_14
    4  A    between atoms: C_8  and  C_16
    5  A    between atoms: C_9  and  C_26
    6  A    between atoms: C_16  and  C_19
    7  A    between atoms: C_19  and  C_28
    8  A    between atoms: C_24  and  C_31
                            x       y       z     vdW  Elec       q    Type
                         _______ _______ _______ _____ _____    ______ ____

>  <TORSDO>
F 8

$$$$
=
 OpenBabel10232410343D

 38 42  0  0  1  0  0  0  0  0999 V2000
  183.3980  179.0950  139.9990 C   0  0  0  0  0  0  0  0  0  0  0  0
  184.2510  178.5850  142.9000 C   0  0  0  0  0  3  0  0  0  0  0  0
  185.7370  178.6060  140.8640 C   0  0  0  0  0  0  0  0  0  0  0  0
  183.0170  178.5740  142.4080 C   0  0  0  0  0  3  0  0  0  0  0  0
  182.6900  178.4030  141.0330 N   0  0  0  0  0  0  0  0  0  0  0  0
  185.5250  178.3890  142.1880 C   0  0  0  0  0  0  0  0  0  0  0  0
  184.7250  179.1540  139.9360 C   0  0  0  0  0  3  0  0  0  0  0  0
  182.6360  179.6930  138.8660 C   0  0  0  0  0  1  0  0  0  0  0  0
  181.4530  177.9270  140.7530 O   0  0  0  0  0  1  0  0  0  0  0  0
  187.2410  178.4320  138.8650 C   0  0  0  0  0  3  0  0  0  0  0  0
  188.5040  178.2140  138.3090 C   0  0  0  0  0  0  0  0  0  0  0  0
  189.5900  177.9410  139.1420 C   0  0  0  0  0  3  0  0  0  0  0  0
  189.3940  177.8980  140.5230 C   0  0  0  0  0  3  0  0  0  0  0  0
  187.0790  178.3930  140.2570 C   0  0  0  0  0  0  0  0  0  0  0  0
  188.1580  178.1180  141.0450 N   0  0  0  0  0  0  0  0  0  0  0  0
  188.6830  178.2410  136.8320 C   0  0  0  0  0  2  0  0  0  0  0  0
  188.6060  176.8340  136.2720 C   0  0  0  0  0  2  0  0  0  0  0  0
  189.7490  176.6140  135.2990 C   0  0  0  0  0  2  0  0  0  0  0  0
  192.1480  175.6750  137.4730 C   0  0  0  0  0  0  0  0  0  0  0  0
  190.0890  174.8810  137.0790 C   0  0  1  0  0  3  0  0  0  0  0  0
  189.8190  173.3980  136.9100 C   0  0  0  0  0  1  0  0  0  0  0  0
  191.1610  175.0780  138.0430 N   0  0  0  0  0  0  0  0  0  0  0  0
  190.6240  175.4630  135.7650 C   0  0  2  0  0  3  0  0  0  0  0  0
  191.9440  175.9660  136.1030 N   0  0  0  0  0  2  0  0  0  0  0  0
  193.3550  176.9430  139.2230 O   0  0  0  0  0  1  0  0  0  0  0  0
  193.3810  176.0190  138.1860 C   0  0  0  0  0  0  0  0  0  0  0  0
  194.4700  175.4770  137.8620 O   0  0  0  0  0  0  0  0  0  0  0  0
  187.5340  177.7570  143.7960 C   0  0  0  0  0  0  0  0  0  0  0  0
  186.6200  178.0410  143.0620 C   0  0  0  0  0  0  0  0  0  0  0  0
  188.6280  177.4290  144.6730 C   0  0  0  0  0  0  0  0  0  0  0  0
  190.9610  176.9620  146.3510 C   0  0  0  0  0  3  0  0  0  0  0  0
  189.2860  177.5260  148.2200 C   0  0  0  0  0  3  0  0  0  0  0  0
  189.8850  176.9150  144.1000 C   0  0  0  0  0  3  0  0  0  0  0  0
  187.3530  178.0440  146.7570 C   0  0  0  0  0  3  0  0  0  0  0  0
  190.9560  176.6740  144.8690 C   0  0  0  0  0  3  0  0  0  0  0  0
  189.6090  177.2210  146.8440 N   0  0  0  0  0  0  0  0  0  0  0  0
  187.8050  177.9350  148.2170 C   0  0  0  0  0  3  0  0  0  0  0  0
  188.5280  177.5570  146.0000 C   0  0  0  0  0  0  0  0  0  0  0  0
  1  5  1  0  0  0  0
  3  6  2  0  0  0  0
  4  2  2  0  0  0  0
  5  4  1  0  0  0  0
  6  2  1  0  0  0  0
  6 29  1  0  0  0  0
  7  1  2  0  0  0  0
  7  3  1  0  0  0  0
  8  1  1  0  0  0  0
  9  5  1  0  0  0  0
 10 14  1  0  0  0  0
 11 10  2  0  0  0  0
 11 12  1  0  0  0  0
 12 13  2  0  0  0  0
 13 15  1  0  0  0  0
 14  3  1  0  0  0  0
 14 15  2  0  0  0  0
 16 11  1  0  0  0  0
 17 16  1  0  0  0  0
 18 17  1  0  0  0  0
 19 22  2  0  0  0  0
 19 26  1  0  0  0  0
 20 21  1  6  0  0  0
 20 22  1  0  0  0  0
 23 18  1  1  0  0  0
 23 24  1  0  0  0  0
 23 20  1  0  0  0  0
 24 19  1  0  0  0  0
 26 25  1  0  0  0  0
 27 26  2  0  0  0  0
 28 30  1  0  0  0  0
 29 28  3  0  0  0  0
 30 38  1  0  0  0  0
 31 36  1  0  0  0  0
 33 30  2  0  0  0  0
 33 35  1  0  0  0  0
 34 37  1  0  0  0  0
 35 31  2  0  0  0  0
 36 32  1  0  0  0  0
 37 32  2  0  0  0  0
 38 34  2  0  0  0  0
 38 36  1  0  0  0  0
M  END
>  <MODEL>
4

>  <REMARK>
 VINA RESULT:      -9.4      2.579      6.127
  Name = 
  8 active torsions:
  status: ('A' for Active; 'I' for Inactive)
    1  A    between atoms: C_2  and  C_22
    2  A    between atoms: C_3  and  C_5
    3  A    between atoms: C_8  and  C_14
    4  A    between atoms: C_8  and  C_16
    5  A    between atoms: C_9  and  C_26
    6  A    between atoms: C_16  and  C_19
    7  A    between atoms: C_19  and  C_28
    8  A    between atoms: C_24  and  C_31
                            x       y       z     vdW  Elec       q    Type
                         _______ _______ _______ _____ _____    ______ ____

>  <TORSDO>
F 8

$$$$
=
 OpenBabel10232410343D

 38 42  0  0  1  0  0  0  0  0999 V2000
  189.9600  177.0830  146.1670 C   0  0  0  0  0  0  0  0  0  0  0  0
  186.9200  177.4630  146.0340 C   0  0  0  0  0  3  0  0  0  0  0  0
  188.5370  177.4790  144.1000 C   0  0  0  0  0  0  0  0  0  0  0  0
  187.6940  177.5240  147.1130 C   0  0  0  0  0  3  0  0  0  0  0  0
  189.1000  177.7540  147.0940 N   0  0  0  0  0  0  0  0  0  0  0  0
  187.2950  177.6530  144.6230 C   0  0  0  0  0  0  0  0  0  0  0  0
  189.7040  176.9930  144.8660 C   0  0  0  0  0  3  0  0  0  0  0  0
  191.2670  176.5470  146.6420 C   0  0  0  0  0  1  0  0  0  0  0  0
  189.6490  178.2720  148.2180 O   0  0  0  0  0  1  0  0  0  0  0  0
  189.8500  177.0120  142.0160 C   0  0  0  0  0  3  0  0  0  0  0  0
  190.0880  177.2230  140.6560 C   0  0  0  0  0  0  0  0  0  0  0  0
  189.2820  178.1110  139.9410 C   0  0  0  0  0  3  0  0  0  0  0  0
  188.2440  178.7690  140.6010 C   0  0  0  0  0  3  0  0  0  0  0  0
  188.7920  177.6800  142.6470 C   0  0  0  0  0  0  0  0  0  0  0  0
  188.0260  178.5470  141.9250 N   0  0  0  0  0  0  0  0  0  0  0  0
  191.2160  176.5270  139.9790 C   0  0  0  0  0  2  0  0  0  0  0  0
  191.0780  176.6540  138.4750 C   0  0  0  0  0  2  0  0  0  0  0  0
  191.4000  175.3220  137.8240 C   0  0  0  0  0  2  0  0  0  0  0  0
  188.4860  173.9260  136.8630 C   0  0  0  0  0  0  0  0  0  0  0  0
  189.2670  176.0220  136.7060 C   0  0  1  0  0  3  0  0  0  0  0  0
  189.1820  176.8150  135.4160 C   0  0  0  0  0  1  0  0  0  0  0  0
  188.1050  175.1550  136.8260 N   0  0  0  0  0  0  0  0  0  0  0  0
  190.4690  175.0700  136.6500 C   0  0  2  0  0  3  0  0  0  0  0  0
  189.8870  173.7450  136.7720 N   0  0  0  0  0  2  0  0  0  0  0  0
  186.2750  173.0210  137.5100 O   0  0  0  0  0  1  0  0  0  0  0  0
  187.5450  172.8110  136.9850 C   0  0  0  0  0  0  0  0  0  0  0  0
  187.8810  171.6560  136.6140 O   0  0  0  0  0  0  0  0  0  0  0  0
  185.2230  178.1740  143.0550 C   0  0  0  0  0  0  0  0  0  0  0  0
  186.1680  177.9400  143.7670 C   0  0  0  0  0  0  0  0  0  0  0  0
  184.0920  178.4430  142.2070 C   0  0  0  0  0  0  0  0  0  0  0  0
  181.8300  178.7570  140.4000 C   0  0  0  0  0  3  0  0  0  0  0  0
  180.5360  178.9030  142.6180 C   0  0  0  0  0  3  0  0  0  0  0  0
  184.2940  178.5800  140.7530 C   0  0  0  0  0  3  0  0  0  0  0  0
  182.4610  178.5030  144.1260 C   0  0  0  0  0  3  0  0  0  0  0  0
  183.2600  178.7490  139.9170 C   0  0  0  0  0  3  0  0  0  0  0  0
  181.7640  178.8680  141.8560 N   0  0  0  0  0  0  0  0  0  0  0  0
  180.9580  178.7990  144.0910 C   0  0  0  0  0  3  0  0  0  0  0  0
  182.8600  178.5950  142.7040 C   0  0  0  0  0  0  0  0  0  0  0  0
  1  8  1  0  0  0  0
  1  5  1  0  0  0  0
  2  4  2  0  0  0  0
  3  6  2  0  0  0  0
  3  7  1  0  0  0  0
  5  4  1  0  0  0  0
  5  9  1  0  0  0  0
  6  2  1  0  0  0  0
  7  1  2  0  0  0  0
 10 14  1  0  0  0  0
 11 10  2  0  0  0  0
 12 13  2  0  0  0  0
 12 11  1  0  0  0  0
 13 15  1  0  0  0  0
 14  3  1  0  0  0  0
 15 14  2  0  0  0  0
 16 11  1  0  0  0  0
 17 16  1  0  0  0  0
 18 17  1  0  0  0  0
 19 26  1  0  0  0  0
 20 21  1  6  0  0  0
 20 22  1  0  0  0  0
 22 19  2  0  0  0  0
 23 20  1  0  0  0  0
 23 24  1  0  0  0  0
 23 18  1  1  0  0  0
 24 19  1  0  0  0  0
 26 25  1  0  0  0  0
 27 26  2  0  0  0  0
 28 29  3  0  0  0  0
 29  6  1  0  0  0  0
 30 38  1  0  0  0  0
 30 28  1  0  0  0  0
 31 36  1  0  0  0  0
 32 37  2  0  0  0  0
 33 30  2  0  0  0  0
 35 31  2  0  0  0  0
 35 33  1  0  0  0  0
 36 32  1  0  0  0  0
 36 38  1  0  0  0  0
 37 34  1  0  0  0  0
 38 34  2  0  0  0  0
M  END
>  <MODEL>
5

>  <REMARK>
 VINA RESULT:      -9.4      2.744      3.273
  Name = 
  8 active torsions:
  status: ('A' for Active; 'I' for Inactive)
    1  A    between atoms: C_2  and  C_22
    2  A    between atoms: C_3  and  C_5
    3  A    between atoms: C_8  and  C_14
    4  A    between atoms: C_8  and  C_16
    5  A    between atoms: C_9  and  C_26
    6  A    between atoms: C_16  and  C_19
    7  A    between atoms: C_19  and  C_28
    8  A    between atoms: C_24  and  C_31
                            x       y       z     vdW  Elec       q    Type
                         _______ _______ _______ _____ _____    ______ ____

>  <TORSDO>
F 8

$$$$
=
 OpenBabel10232410343D

 38 42  0  0  1  0  0  0  0  0999 V2000
  181.3410  179.1600  142.1060 C   0  0  0  0  0  0  0  0  0  0  0  0
  183.9970  179.1220  143.6380 C   0  0  0  0  0  3  0  0  0  0  0  0
  183.6360  178.5260  141.2160 C   0  0  0  0  0  0  0  0  0  0  0  0
  182.7720  179.1890  144.1490 C   0  0  0  0  0  3  0  0  0  0  0  0
  181.5850  178.7960  143.4680 N   0  0  0  0  0  0  0  0  0  0  0  0
  184.4180  178.6090  142.3240 C   0  0  0  0  0  0  0  0  0  0  0  0
  182.2430  179.0160  141.1390 C   0  0  0  0  0  3  0  0  0  0  0  0
  179.9830  179.6230  141.7050 C   0  0  0  0  0  1  0  0  0  0  0  0
  180.5240  178.4540  144.2380 O   0  0  0  0  0  1  0  0  0  0  0  0
  185.3690  178.5300  139.4040 C   0  0  0  0  0  3  0  0  0  0  0  0
  185.8580  178.0460  138.1890 C   0  0  0  0  0  0  0  0  0  0  0  0
  185.1500  177.0600  137.5000 C   0  0  0  0  0  3  0  0  0  0  0  0
  183.9630  176.5690  138.0450 C   0  0  0  0  0  3  0  0  0  0  0  0
  184.1790  178.0080  139.9310 C   0  0  0  0  0  0  0  0  0  0  0  0
  183.5060  177.0500  139.2320 N   0  0  0  0  0  0  0  0  0  0  0  0
  187.1150  178.6020  137.6160 C   0  0  0  0  0  2  0  0  0  0  0  0
  187.7980  177.5590  136.7520 C   0  0  0  0  0  2  0  0  0  0  0  0
  188.6090  176.6270  137.6320 C   0  0  0  0  0  2  0  0  0  0  0  0
  191.8840  175.8310  137.6580 C   0  0  0  0  0  0  0  0  0  0  0  0
  190.0430  174.5900  137.3460 C   0  0  1  0  0  3  0  0  0  0  0  0
  189.9270  173.6000  136.2040 C   0  0  0  0  0  1  0  0  0  0  0  0
  191.4200  174.6410  137.8130 N   0  0  0  0  0  0  0  0  0  0  0  0
  189.7450  176.0060  136.8360 C   0  0  2  0  0  3  0  0  0  0  0  0
  190.9700  176.7460  137.0840 N   0  0  0  0  0  2  0  0  0  0  0  0
  193.4680  177.0450  139.1220 O   0  0  0  0  0  1  0  0  0  0  0  0
  193.2490  176.2020  138.0390 C   0  0  0  0  0  0  0  0  0  0  0  0
  194.2310  175.7590  137.3870 O   0  0  0  0  0  0  0  0  0  0  0  0
  186.9990  178.0220  142.2120 C   0  0  0  0  0  0  0  0  0  0  0  0
  185.8240  178.2900  142.2590 C   0  0  0  0  0  0  0  0  0  0  0  0
  188.4020  177.7040  142.1660 C   0  0  0  0  0  0  0  0  0  0  0  0
  191.2790  177.2900  141.9860 C   0  0  0  0  0  3  0  0  0  0  0  0
  191.0580  177.1390  144.5440 C   0  0  0  0  0  3  0  0  0  0  0  0
  189.0680  177.5500  140.8600 C   0  0  0  0  0  3  0  0  0  0  0  0
  188.6310  177.6230  144.6740 C   0  0  0  0  0  3  0  0  0  0  0  0
  190.3870  177.3350  140.7680 C   0  0  0  0  0  3  0  0  0  0  0  0
  190.4920  177.2000  143.2140 N   0  0  0  0  0  0  0  0  0  0  0  0
  189.8700  177.2790  145.5070 C   0  0  0  0  0  3  0  0  0  0  0  0
  189.1190  177.5210  143.2800 C   0  0  0  0  0  0  0  0  0  0  0  0
  1  5  1  0  0  0  0
  2  4  2  0  0  0  0
  3  6  2  0  0  0  0
  5  4  1  0  0  0  0
  5  9  1  0  0  0  0
  6  2  1  0  0  0  0
  7  3  1  0  0  0  0
  7  1  2  0  0  0  0
  8  1  1  0  0  0  0
 10 14  1  0  0  0  0
 11 10  2  0  0  0  0
 12 13  2  0  0  0  0
 12 11  1  0  0  0  0
 13 15  1  0  0  0  0
 14  3  1  0  0  0  0
 15 14  2  0  0  0  0
 16 11  1  0  0  0  0
 17 16  1  0  0  0  0
 17 18  1  0  0  0  0
 19 22  2  0  0  0  0
 19 26  1  0  0  0  0
 20 21  1  6  0  0  0
 20 22  1  0  0  0  0
 23 24  1  0  0  0  0
 23 20  1  0  0  0  0
 23 18  1  1  0  0  0
 24 19  1  0  0  0  0
 26 25  1  0  0  0  0
 27 26  2  0  0  0  0
 28 29  3  0  0  0  0
 29  6  1  0  0  0  0
 30 28  1  0  0  0  0
 30 38  1  0  0  0  0
 31 36  1  0  0  0  0
 32 37  2  0  0  0  0
 33 30  2  0  0  0  0
 34 37  1  0  0  0  0
 35 33  1  0  0  0  0
 35 31  2  0  0  0  0
 36 38  1  0  0  0  0
 36 32  1  0  0  0  0
 38 34  2  0  0  0  0
M  END
>  <MODEL>
6

>  <REMARK>
 VINA RESULT:      -9.4      2.716      6.230
  Name = 
  8 active torsions:
  status: ('A' for Active; 'I' for Inactive)
    1  A    between atoms: C_2  and  C_22
    2  A    between atoms: C_3  and  C_5
    3  A    between atoms: C_8  and  C_14
    4  A    between atoms: C_8  and  C_16
    5  A    between atoms: C_9  and  C_26
    6  A    between atoms: C_16  and  C_19
    7  A    between atoms: C_19  and  C_28
    8  A    between atoms: C_24  and  C_31
                            x       y       z     vdW  Elec       q    Type
                         _______ _______ _______ _____ _____    ______ ____

>  <TORSDO>
F 8

$$$$
=
 OpenBabel10232410343D

 38 42  0  0  1  0  0  0  0  0999 V2000
  182.7880  179.2750  140.0530 C   0  0  0  0  0  0  0  0  0  0  0  0
  183.8800  178.7310  142.8670 C   0  0  0  0  0  3  0  0  0  0  0  0
  185.1740  178.6900  140.7040 C   0  0  0  0  0  0  0  0  0  0  0  0
  182.6060  178.7710  142.4900 C   0  0  0  0  0  3  0  0  0  0  0  0
  182.1490  178.6140  141.1500 N   0  0  0  0  0  0  0  0  0  0  0  0
  185.0750  178.4820  142.0430 C   0  0  0  0  0  0  0  0  0  0  0  0
  184.1050  179.2780  139.8700 C   0  0  0  0  0  3  0  0  0  0  0  0
  181.9520  179.9030  138.9920 C   0  0  0  0  0  1  0  0  0  0  0  0
  180.8730  178.1890  140.9860 O   0  0  0  0  0  1  0  0  0  0  0  0
  187.6450  178.2630  140.6880 C   0  0  0  0  0  3  0  0  0  0  0  0
  188.8330  178.0280  139.9930 C   0  0  0  0  0  0  0  0  0  0  0  0
  188.8210  177.9690  138.5980 C   0  0  0  0  0  3  0  0  0  0  0  0
  187.6130  178.1420  137.9210 C   0  0  0  0  0  3  0  0  0  0  0  0
  186.4460  178.4210  139.9790 C   0  0  0  0  0  0  0  0  0  0  0  0
  186.4650  178.3650  138.6160 N   0  0  0  0  0  0  0  0  0  0  0  0
  190.1130  177.8700  140.7360 C   0  0  0  0  0  2  0  0  0  0  0  0
  190.9370  176.7550  140.1220 C   0  0  0  0  0  2  0  0  0  0  0  0
  192.3050  177.2890  139.7420 C   0  0  0  0  0  2  0  0  0  0  0  0
  193.7300  174.7220  138.0860 C   0  0  0  0  0  0  0  0  0  0  0  0
  191.7230  175.7000  137.8910 C   0  0  1  0  0  3  0  0  0  0  0  0
  191.1550  176.1050  136.5450 C   0  0  0  0  0  1  0  0  0  0  0  0
  192.5130  174.4870  137.7450 N   0  0  0  0  0  0  0  0  0  0  0  0
  192.7160  176.7640  138.3770 C   0  0  2  0  0  3  0  0  0  0  0  0
  193.9780  176.0550  138.4900 N   0  0  0  0  0  2  0  0  0  0  0  0
  195.6440  173.5430  139.1230 O   0  0  0  0  0  1  0  0  0  0  0  0
  194.7730  173.6930  138.0500 C   0  0  0  0  0  0  0  0  0  0  0  0
  194.8850  172.9400  137.0480 O   0  0  0  0  0  0  0  0  0  0  0  0
  187.1980  177.7680  143.4590 C   0  0  0  0  0  0  0  0  0  0  0  0
  186.2290  178.0890  142.8160 C   0  0  0  0  0  0  0  0  0  0  0  0
  188.3600  177.3890  144.2190 C   0  0  0  0  0  0  0  0  0  0  0  0
  190.8300  176.8130  145.6500 C   0  0  0  0  0  3  0  0  0  0  0  0
  189.3790  177.4330  147.6810 C   0  0  0  0  0  3  0  0  0  0  0  0
  189.5300  176.8270  143.5190 C   0  0  0  0  0  3  0  0  0  0  0  0
  187.3310  178.0400  146.4230 C   0  0  0  0  0  3  0  0  0  0  0  0
  190.6630  176.5370  144.1740 C   0  0  0  0  0  3  0  0  0  0  0  0
  189.5470  177.1240  146.2780 N   0  0  0  0  0  0  0  0  0  0  0  0
  187.9240  177.9030  147.8300 C   0  0  0  0  0  3  0  0  0  0  0  0
  188.4010  177.5110  145.5490 C   0  0  0  0  0  0  0  0  0  0  0  0
  1  5  1  0  0  0  0
  3  6  2  0  0  0  0
  4  2  2  0  0  0  0
  5  4  1  0  0  0  0
  6 29  1  0  0  0  0
  6  2  1  0  0  0  0
  7  1  2  0  0  0  0
  7  3  1  0  0  0  0
  8  1  1  0  0  0  0
  9  5  1  0  0  0  0
 11 10  1  0  0  0  0
 11 16  1  0  0  0  0
 12 11  2  0  0  0  0
 13 12  1  0  0  0  0
 13 15  2  0  0  0  0
 14 10  2  0  0  0  0
 14  3  1  0  0  0  0
 15 14  1  0  0  0  0
 17 16  1  0  0  0  0
 18 17  1  0  0  0  0
 19 24  1  0  0  0  0
 20 21  1  6  0  0  0
 20 23  1  0  0  0  0
 22 20  1  0  0  0  0
 22 19  2  0  0  0  0
 23 24  1  0  0  0  0
 23 18  1  1  0  0  0
 26 19  1  0  0  0  0
 26 25  1  0  0  0  0
 27 26  2  0  0  0  0
 28 30  1  0  0  0  0
 29 28  3  0  0  0  0
 30 38  1  0  0  0  0
 31 36  1  0  0  0  0
 32 37  2  0  0  0  0
 33 35  1  0  0  0  0
 33 30  2  0  0  0  0
 34 37  1  0  0  0  0
 35 31  2  0  0  0  0
 36 32  1  0  0  0  0
 38 36  1  0  0  0  0
 38 34  2  0  0  0  0
M  END
>  <MODEL>
7

>  <REMARK>
 VINA RESULT:      -9.3      2.291      5.886
  Name = 
  8 active torsions:
  status: ('A' for Active; 'I' for Inactive)
    1  A    between atoms: C_2  and  C_22
    2  A    between atoms: C_3  and  C_5
    3  A    between atoms: C_8  and  C_14
    4  A    between atoms: C_8  and  C_16
    5  A    between atoms: C_9  and  C_26
    6  A    between atoms: C_16  and  C_19
    7  A    between atoms: C_19  and  C_28
    8  A    between atoms: C_24  and  C_31
                            x       y       z     vdW  Elec       q    Type
                         _______ _______ _______ _____ _____    ______ ____

>  <TORSDO>
F 8

$$$$
=
 OpenBabel10232410343D

 38 42  0  0  1  0  0  0  0  0999 V2000
  192.0760  176.6500  138.8000 C   0  0  0  0  0  0  0  0  0  0  0  0
  190.8060  177.0940  141.5560 C   0  0  0  0  0  3  0  0  0  0  0  0
  189.6300  177.0930  139.3260 C   0  0  0  0  0  0  0  0  0  0  0  0
  192.0990  177.1300  141.2480 C   0  0  0  0  0  3  0  0  0  0  0  0
  192.6170  177.3310  139.9370 N   0  0  0  0  0  0  0  0  0  0  0  0
  189.6460  177.2880  140.6700 C   0  0  0  0  0  0  0  0  0  0  0  0
  190.7730  176.5760  138.5450 C   0  0  0  0  0  3  0  0  0  0  0  0
  193.0020  176.0830  137.7790 C   0  0  0  0  0  1  0  0  0  0  0  0
  193.8750  177.8280  139.8470 O   0  0  0  0  0  1  0  0  0  0  0  0
  187.6730  176.2020  138.0350 C   0  0  0  0  0  3  0  0  0  0  0  0
  186.5170  176.4130  137.2810 C   0  0  0  0  0  0  0  0  0  0  0  0
  186.0900  177.7150  137.0160 C   0  0  0  0  0  3  0  0  0  0  0  0
  186.8280  178.7880  137.5180 C   0  0  0  0  0  3  0  0  0  0  0  0
  188.3860  177.3010  138.5360 C   0  0  0  0  0  0  0  0  0  0  0  0
  187.9480  178.5620  138.2550 N   0  0  0  0  0  0  0  0  0  0  0  0
  185.7610  175.2530  136.7360 C   0  0  0  0  0  2  0  0  0  0  0  0
  184.2770  175.5650  136.7130 C   0  0  0  0  0  2  0  0  0  0  0  0
  183.6950  175.3540  138.0970 C   0  0  0  0  0  2  0  0  0  0  0  0
  182.7040  178.5670  138.3430 C   0  0  0  0  0  0  0  0  0  0  0  0
  182.0610  176.9000  136.9880 C   0  0  1  0  0  3  0  0  0  0  0  0
  180.5990  176.5860  136.7400 C   0  0  0  0  0  1  0  0  0  0  0  0
  182.2320  178.3340  137.1700 N   0  0  0  0  0  0  0  0  0  0  0  0
  182.5070  176.2760  138.3170 C   0  0  2  0  0  3  0  0  0  0  0  0
  182.9180  177.4090  139.1280 N   0  0  0  0  0  2  0  0  0  0  0  0
  184.2850  180.2780  139.1780 O   0  0  0  0  0  1  0  0  0  0  0  0
  182.9890  179.9200  138.8260 C   0  0  0  0  0  0  0  0  0  0  0  0
  182.0610  180.7650  138.9230 O   0  0  0  0  0  0  0  0  0  0  0  0
  187.4130  177.8740  141.9730 C   0  0  0  0  0  0  0  0  0  0  0  0
  188.4310  177.6060  141.3830 C   0  0  0  0  0  0  0  0  0  0  0  0
  186.1970  178.2020  142.6690 C   0  0  0  0  0  0  0  0  0  0  0  0
  183.6420  178.6540  143.9900 C   0  0  0  0  0  3  0  0  0  0  0  0
  185.0950  178.4140  146.0990 C   0  0  0  0  0  3  0  0  0  0  0  0
  184.9930  178.5560  141.8950 C   0  0  0  0  0  3  0  0  0  0  0  0
  187.2290  177.9030  144.9470 C   0  0  0  0  0  3  0  0  0  0  0  0
  183.8190  178.7900  142.4970 C   0  0  0  0  0  3  0  0  0  0  0  0
  184.9330  178.5520  144.6680 N   0  0  0  0  0  0  0  0  0  0  0  0
  186.5870  178.1230  146.3210 C   0  0  0  0  0  3  0  0  0  0  0  0
  186.1330  178.2180  144.0040 C   0  0  0  0  0  0  0  0  0  0  0  0
  1  5  1  0  0  0  0
  3  6  2  0  0  0  0
  4  2  2  0  0  0  0
  5  4  1  0  0  0  0
  6 29  1  0  0  0  0
  6  2  1  0  0  0  0
  7  1  2  0  0  0  0
  7  3  1  0  0  0  0
  8  1  1  0  0  0  0
  9  5  1  0  0  0  0
 10 14  1  0  0  0  0
 11 10  2  0  0  0  0
 12 11  1  0  0  0  0
 12 13  2  0  0  0  0
 13 15  1  0  0  0  0
 14  3  1  0  0  0  0
 15 14  2  0  0  0  0
 16 11  1  0  0  0  0
 17 16  1  0  0  0  0
 17 18  1  0  0  0  0
 19 26  1  0  0  0  0
 19 24  1  0  0  0  0
 20 21  1  1  0  0  0
 20 22  1  0  0  0  0
 20 23  1  0  0  0  0
 22 19  2  0  0  0  0
 23 18  1  6  0  0  0
 23 24  1  0  0  0  0
 26 27  2  0  0  0  0
 26 25  1  0  0  0  0
 28 30  1  0  0  0  0
 29 28  3  0  0  0  0
 30 38  1  0  0  0  0
 31 36  1  0  0  0  0
 32 37  2  0  0  0  0
 33 35  1  0  0  0  0
 33 30  2  0  0  0  0
 34 37  1  0  0  0  0
 35 31  2  0  0  0  0
 36 32  1  0  0  0  0
 38 36  1  0  0  0  0
 38 34  2  0  0  0  0
M  END
>  <MODEL>
8

>  <REMARK>
 VINA RESULT:      -9.3      3.761      8.048
  Name = 
  8 active torsions:
  status: ('A' for Active; 'I' for Inactive)
    1  A    between atoms: C_2  and  C_22
    2  A    between atoms: C_3  and  C_5
    3  A    between atoms: C_8  and  C_14
    4  A    between atoms: C_8  and  C_16
    5  A    between atoms: C_9  and  C_26
    6  A    between atoms: C_16  and  C_19
    7  A    between atoms: C_19  and  C_28
    8  A    between atoms: C_24  and  C_31
                            x       y       z     vdW  Elec       q    Type
                         _______ _______ _______ _____ _____    ______ ____

>  <TORSDO>
F 8

$$$$
=
 OpenBabel10232410343D

 38 42  0  0  1  0  0  0  0  0999 V2000
  186.9960  178.1440  146.7230 C   0  0  0  0  0  0  0  0  0  0  0  0
  184.4720  178.4880  145.0160 C   0  0  0  0  0  3  0  0  0  0  0  0
  186.7710  177.8420  144.2100 C   0  0  0  0  0  0  0  0  0  0  0  0
  184.6620  178.8980  146.2660 C   0  0  0  0  0  3  0  0  0  0  0  0
  185.9360  179.0940  146.8720 N   0  0  0  0  0  0  0  0  0  0  0  0
  185.4780  178.1920  143.9830 C   0  0  0  0  0  0  0  0  0  0  0  0
  187.3540  177.6270  145.5510 C   0  0  0  0  0  3  0  0  0  0  0  0
  187.8260  177.7840  147.9070 C   0  0  0  0  0  1  0  0  0  0  0  0
  185.9880  179.9520  147.9190 O   0  0  0  0  0  1  0  0  0  0  0  0
  187.5180  178.1690  141.8390 C   0  0  0  0  0  3  0  0  0  0  0  0
  188.3820  177.8670  140.7830 C   0  0  0  0  0  0  0  0  0  0  0  0
  189.4010  176.9320  140.9690 C   0  0  0  0  0  3  0  0  0  0  0  0
  189.5440  176.3180  142.2130 C   0  0  0  0  0  3  0  0  0  0  0  0
  187.6940  177.5440  143.0810 C   0  0  0  0  0  0  0  0  0  0  0  0
  188.6950  176.6290  143.2300 N   0  0  0  0  0  0  0  0  0  0  0  0
  188.1950  178.5180  139.4580 C   0  0  0  0  0  2  0  0  0  0  0  0
  189.3880  178.2310  138.5660 C   0  0  0  0  0  2  0  0  0  0  0  0
  188.9040  177.6820  137.2370 C   0  0  0  0  0  2  0  0  0  0  0  0
  191.8720  176.1560  137.7090 C   0  0  0  0  0  0  0  0  0  0  0  0
  189.7680  175.3830  137.7450 C   0  0  1  0  0  3  0  0  0  0  0  0
  189.3640  174.1210  137.0090 C   0  0  0  0  0  1  0  0  0  0  0  0
  191.1300  175.2490  138.2390 N   0  0  0  0  0  0  0  0  0  0  0  0
  189.8160  176.5630  136.7650 C   0  0  2  0  0  3  0  0  0  0  0  0
  191.1960  177.0130  136.8080 N   0  0  0  0  0  2  0  0  0  0  0  0
  193.7120  176.8110  139.2290 O   0  0  0  0  0  1  0  0  0  0  0  0
  193.3000  176.2850  138.0110 C   0  0  0  0  0  0  0  0  0  0  0  0
  194.1600  175.9190  137.1680 O   0  0  0  0  0  0  0  0  0  0  0  0
  184.4790  178.1860  141.5290 C   0  0  0  0  0  0  0  0  0  0  0  0
  184.9370  178.1880  142.6440 C   0  0  0  0  0  0  0  0  0  0  0  0
  183.9220  178.1810  140.2010 C   0  0  0  0  0  0  0  0  0  0  0  0
  182.8740  177.9360  137.4950 C   0  0  0  0  0  3  0  0  0  0  0  0
  180.6310  178.2200  138.7210 C   0  0  0  0  0  3  0  0  0  0  0  0
  184.8260  178.1380  139.0370 C   0  0  0  0  0  3  0  0  0  0  0  0
  181.5440  178.2950  141.0240 C   0  0  0  0  0  3  0  0  0  0  0  0
  184.3520  178.0500  137.7870 C   0  0  0  0  0  3  0  0  0  0  0  0
  182.0760  178.2420  138.6810 N   0  0  0  0  0  0  0  0  0  0  0  0
  180.2540  178.3810  140.2010 C   0  0  0  0  0  3  0  0  0  0  0  0
  182.6030  178.2380  139.9910 C   0  0  0  0  0  0  0  0  0  0  0  0
  1  5  1  0  0  0  0
  1  8  1  0  0  0  0
  2  4  2  0  0  0  0
  3  7  1  0  0  0  0
  4  5  1  0  0  0  0
  5  9  1  0  0  0  0
  6  3  2  0  0  0  0
  6  2  1  0  0  0  0
  7  1  2  0  0  0  0
 10 14  1  0  0  0  0
 11 12  1  0  0  0  0
 11 10  2  0  0  0  0
 12 13  2  0  0  0  0
 13 15  1  0  0  0  0
 14 15  2  0  0  0  0
 14  3  1  0  0  0  0
 16 11  1  0  0  0  0
 17 16  1  0  0  0  0
 18 17  1  0  0  0  0
 19 26  1  0  0  0  0
 19 22  2  0  0  0  0
 20 21  1  6  0  0  0
 20 22  1  0  0  0  0
 23 24  1  0  0  0  0
 23 18  1  1  0  0  0
 23 20  1  0  0  0  0
 24 19  1  0  0  0  0
 26 25  1  0  0  0  0
 27 26  2  0  0  0  0
 28 29  3  0  0  0  0
 29  6  1  0  0  0  0
 30 28  1  0  0  0  0
 31 35  2  0  0  0  0
 31 36  1  0  0  0  0
 32 37  2  0  0  0  0
 33 30  2  0  0  0  0
 35 33  1  0  0  0  0
 36 32  1  0  0  0  0
 36 38  1  0  0  0  0
 37 34  1  0  0  0  0
 38 30  1  0  0  0  0
 38 34  2  0  0  0  0
M  END
>  <MODEL>
9

>  <REMARK>
 VINA RESULT:      -9.3      2.122      2.887
  Name = 
  8 active torsions:
  status: ('A' for Active; 'I' for Inactive)
    1  A    between atoms: C_2  and  C_22
    2  A    between atoms: C_3  and  C_5
    3  A    between atoms: C_8  and  C_14
    4  A    between atoms: C_8  and  C_16
    5  A    between atoms: C_9  and  C_26
    6  A    between atoms: C_16  and  C_19
    7  A    between atoms: C_19  and  C_28
    8  A    between atoms: C_24  and  C_31
                            x       y       z     vdW  Elec       q    Type
                         _______ _______ _______ _____ _____    ______ ____

>  <TORSDO>
F 8

$$$$
