=
 OpenBabel10232410153D

 41 42  0  0  1  0  0  0  0  0999 V2000
  189.0900  177.8610  140.4110 C   0  0  0  0  0  0  0  0  0  0  0  0
  187.8870  178.4670  140.7870 C   0  0  0  0  0  3  0  0  0  0  0  0
  187.7760  177.0440  142.7400 C   0  0  0  0  0  3  0  0  0  0  0  0
  188.9780  176.4350  142.3640 C   0  0  0  0  0  3  0  0  0  0  0  0
  187.2220  178.0670  141.9550 C   0  0  0  0  0  0  0  0  0  0  0  0
  189.6330  176.8420  141.1990 C   0  0  0  0  0  3  0  0  0  0  0  0
  185.9510  178.7040  142.3480 C   0  0  0  0  0  0  0  0  0  0  0  0
  185.4340  179.5880  141.6110 O   0  0  0  0  0  0  0  0  0  0  0  0
  183.8770  178.8860  143.7120 C   0  0  0  0  0  1  0  0  0  0  0  0
  185.2900  178.3360  143.6410 C   0  0  2  0  0  3  0  0  0  0  0  0
  186.0780  178.8220  144.7620 N   0  0  0  0  0  2  0  0  0  0  0  0
  187.2970  178.5010  146.8790 N   0  0  0  0  0  2  0  0  0  0  0  0
  188.1280  178.0900  149.0050 O   0  0  0  0  0  0  0  0  0  0  0  0
  188.0830  177.7330  147.8000 C   0  0  0  0  0  0  0  0  0  0  0  0
  186.2990  176.7180  145.7460 O   0  0  0  0  0  0  0  0  0  0  0  0
  186.5540  177.9530  145.7890 C   0  0  0  0  0  0  0  0  0  0  0  0
  188.8360  176.6240  147.3960 O   0  0  0  0  0  0  0  0  0  0  0  0
  190.0740  176.7310  146.7040 C   0  0  2  0  0  3  0  0  0  0  0  0
  192.4080  175.7210  147.7210 S   0  0  0  0  0  1  0  0  0  0  0  0
  191.1710  177.0510  147.7020 C   0  0  0  0  0  2  0  0  0  0  0  0
  190.0050  177.8330  145.6550 C   0  0  0  0  0  2  0  0  0  0  0  0
  191.2020  177.7790  144.7260 C   0  0  0  0  0  2  0  0  0  0  0  0
  191.3290  179.0790  143.9580 C   0  0  0  0  0  1  0  0  0  0  0  0
  189.7650  178.2760  139.1480 C   0  0  0  0  0  2  0  0  0  0  0  0
  187.2860  178.3850  136.2830 C   0  0  0  0  0  2  0  0  0  0  0  0
  188.5380  178.8190  137.0320 C   0  0  0  0  0  2  0  0  0  0  0  0
  187.9830  176.0360  135.7250 C   0  0  0  0  0  2  0  0  0  0  0  0
  189.4250  175.9990  136.1400 C   0  0  0  0  0  3  0  0  0  0  0  0
  189.9340  176.7500  137.1280 C   0  0  0  0  0  0  0  0  0  0  0  0
  187.6070  177.4010  135.1650 C   0  0  0  0  0  2  0  0  0  0  0  0
  189.0560  177.6940  137.9250 C   0  0  1  0  0  3  0  0  0  0  0  0
  191.3890  176.5770  137.4460 C   0  0  0  0  0  2  0  0  0  0  0  0
  192.4620  174.3560  137.6080 N   0  0  0  0  0  0  0  0  0  0  0  0
  191.6240  175.2370  138.0700 C   0  0  0  0  0  3  0  0  0  0  0  0
  192.8040  174.6030  135.2960 O   0  0  0  0  0  0  0  0  0  0  0  0
  193.3010  174.4740  136.4470 C   0  0  0  0  0  0  0  0  0  0  0  0
  194.7220  174.4390  136.5850 N   0  0  0  0  0  2  0  0  0  0  0  0
  195.1140  172.7580  138.8070 O   0  0  0  0  0  1  0  0  0  0  0  0
  195.0070  175.4910  139.1750 O   0  0  0  0  0  1  0  0  0  0  0  0
  197.0120  174.3430  137.9530 O   0  0  0  0  0  0  0  0  0  0  0  0
  195.5150  174.2570  138.1380 P   0  0  0  0  0  0  0  0  0  0  0  0
  1  2  2  0  0  0  0
  1  6  1  0  0  0  0
  2  5  1  0  0  0  0
  4  3  1  0  0  0  0
  5  7  1  0  0  0  0
  5  3  2  0  0  0  0
  6  4  2  0  0  0  0
  7 10  1  0  0  0  0
  8  7  2  0  0  0  0
 10  9  1  6  0  0  0
 10 11  1  0  0  0  0
 11 16  1  0  0  0  0
 12 14  1  0  0  0  0
 14 13  2  0  0  0  0
 15 16  2  0  0  0  0
 16 12  1  0  0  0  0
 17 14  1  0  0  0  0
 18 21  1  6  0  0  0
 18 17  1  0  0  0  0
 18 20  1  0  0  0  0
 20 19  1  0  0  0  0
 22 21  1  0  0  0  0
 23 22  1  0  0  0  0
 24  1  1  0  0  0  0
 25 26  1  0  0  0  0
 26 31  1  0  0  0  0
 27 28  1  0  0  0  0
 28 29  2  0  0  0  0
 29 32  1  0  0  0  0
 29 31  1  0  0  0  0
 30 27  1  0  0  0  0
 30 25  1  0  0  0  0
 31 24  1  1  0  0  0
 32 34  1  0  0  0  0
 33 34  2  0  0  0  0
 35 36  2  0  0  0  0
 36 37  1  0  0  0  0
 36 33  1  0  0  0  0
 37 41  1  0  0  0  0
 40 41  2  0  0  0  0
 41 38  1  0  0  0  0
 41 39  1  0  0  0  0
M  END
>  <MODEL>
1

>  <REMARK>
 VINA RESULT:      -8.0      0.000      0.000
  Name = 
  14 active torsions:
  status: ('A' for Active; 'I' for Inactive)
    1  A    between atoms: N_1  and  C_30
    2  A    between atoms: C_3  and  C_29
    3  A    between atoms: C_3  and  C_30
    4  A    between atoms: O_5  and  C_24
    5  A    between atoms: O_5  and  C_25
    6  A    between atoms: C_12  and  C_19
    7  A    between atoms: C_13  and  C_18
    8  A    between atoms: C_13  and  C_25
    9  A    between atoms: C_19  and  C_36
   10  A    between atoms: C_22  and  C_32
   11  A    between atoms: C_23  and  C_25
   12  A    between atoms: C_26  and  N_27
   13  A    between atoms: C_31  and  C_32
   14  A    between atoms: N_34  and  P_40
                            x       y       z     vdW  Elec       q    Type
                         _______ _______ _______ _____ _____    ______ ____

>  <TORSDO>
F 14

$$$$
=
 OpenBabel10232410153D

 41 42  0  0  1  0  0  0  0  0999 V2000
  185.2220  178.3190  143.3090 C   0  0  0  0  0  0  0  0  0  0  0  0
  183.9750  178.3980  142.6820 C   0  0  0  0  0  3  0  0  0  0  0  0
  182.9620  179.0710  144.7730 C   0  0  0  0  0  3  0  0  0  0  0  0
  184.2080  178.9900  145.4020 C   0  0  0  0  0  3  0  0  0  0  0  0
  182.8360  178.7790  143.4060 C   0  0  0  0  0  0  0  0  0  0  0  0
  185.3370  178.6120  144.6710 C   0  0  0  0  0  3  0  0  0  0  0  0
  181.5200  178.8580  142.7440 C   0  0  0  0  0  0  0  0  0  0  0  0
  180.4630  178.7920  143.4300 O   0  0  0  0  0  0  0  0  0  0  0  0
  180.3950  180.0050  140.8430 C   0  0  0  0  0  1  0  0  0  0  0  0
  181.4320  178.9750  141.2530 C   0  0  2  0  0  3  0  0  0  0  0  0
  181.1180  177.6820  140.6670 N   0  0  0  0  0  2  0  0  0  0  0  0
  181.4460  175.9020  138.9950 N   0  0  0  0  0  2  0  0  0  0  0  0
  181.6640  174.4780  137.1780 O   0  0  0  0  0  0  0  0  0  0  0  0
  182.2410  175.1340  138.0820 C   0  0  0  0  0  0  0  0  0  0  0  0
  182.7600  177.8340  139.0170 O   0  0  0  0  0  0  0  0  0  0  0  0
  181.8260  177.1670  139.5400 C   0  0  0  0  0  0  0  0  0  0  0  0
  183.6340  175.0560  138.1870 O   0  0  0  0  0  0  0  0  0  0  0  0
  184.4630  174.4750  137.1870 C   0  0  2  0  0  3  0  0  0  0  0  0
  186.6660  172.8490  137.1330 S   0  0  0  0  0  1  0  0  0  0  0  0
  184.9560  173.1270  137.6790 C   0  0  0  0  0  2  0  0  0  0  0  0
  185.6550  175.3750  136.8940 C   0  0  0  0  0  2  0  0  0  0  0  0
  185.2080  176.7870  136.5710 C   0  0  0  0  0  2  0  0  0  0  0  0
  185.8780  177.7770  137.5020 C   0  0  0  0  0  1  0  0  0  0  0  0
  186.4160  177.8800  142.5300 C   0  0  0  0  0  2  0  0  0  0  0  0
  188.3890  177.3830  145.7280 C   0  0  0  0  0  2  0  0  0  0  0  0
  187.6090  176.9110  144.5100 C   0  0  0  0  0  2  0  0  0  0  0  0
  190.3690  178.3760  144.5410 C   0  0  0  0  0  2  0  0  0  0  0  0
  190.1570  177.9570  143.1150 C   0  0  0  0  0  3  0  0  0  0  0  0
  188.9490  177.7450  142.5730 C   0  0  0  0  0  0  0  0  0  0  0  0
  189.8940  177.2980  145.5060 C   0  0  0  0  0  2  0  0  0  0  0  0
  187.6830  177.9400  143.3830 C   0  0  1  0  0  3  0  0  0  0  0  0
  188.9010  177.3610  141.1240 C   0  0  0  0  0  2  0  0  0  0  0  0
  190.5780  177.6670  139.3340 N   0  0  0  0  0  0  0  0  0  0  0  0
  190.2840  177.3250  140.5550 C   0  0  0  0  0  3  0  0  0  0  0  0
  189.0050  179.1830  138.4680 O   0  0  0  0  0  0  0  0  0  0  0  0
  189.6740  178.1270  138.3160 C   0  0  0  0  0  0  0  0  0  0  0  0
  189.5160  177.3790  137.1090 N   0  0  0  0  0  2  0  0  0  0  0  0
  192.0540  176.2090  136.7780 O   0  0  0  0  0  1  0  0  0  0  0  0
  189.9210  175.2660  135.3020 O   0  0  0  0  0  0  0  0  0  0  0  0
  190.0840  174.8880  137.8830 O   0  0  0  0  0  1  0  0  0  0  0  0
  190.3940  175.8930  136.7980 P   0  0  0  0  0  0  0  0  0  0  0  0
  1  6  1  0  0  0  0
  2  1  2  0  0  0  0
  2  5  1  0  0  0  0
  3  4  1  0  0  0  0
  5  3  2  0  0  0  0
  6  4  2  0  0  0  0
  7  5  1  0  0  0  0
  7  8  2  0  0  0  0
 10  9  1  1  0  0  0
 10  7  1  0  0  0  0
 11 10  1  0  0  0  0
 12 16  1  0  0  0  0
 13 14  2  0  0  0  0
 14 17  1  0  0  0  0
 14 12  1  0  0  0  0
 15 16  2  0  0  0  0
 16 11  1  0  0  0  0
 18 21  1  1  0  0  0
 18 20  1  0  0  0  0
 18 17  1  0  0  0  0
 19 20  1  0  0  0  0
 22 21  1  0  0  0  0
 22 23  1  0  0  0  0
 24  1  1  0  0  0  0
 26 25  1  0  0  0  0
 27 30  1  0  0  0  0
 28 27  1  0  0  0  0
 29 28  2  0  0  0  0
 29 31  1  0  0  0  0
 30 25  1  0  0  0  0
 31 24  1  6  0  0  0
 31 26  1  0  0  0  0
 32 29  1  0  0  0  0
 33 34  2  0  0  0  0
 34 32  1  0  0  0  0
 36 35  2  0  0  0  0
 36 33  1  0  0  0  0
 37 36  1  0  0  0  0
 38 41  1  0  0  0  0
 39 41  2  0  0  0  0
 41 37  1  0  0  0  0
 41 40  1  0  0  0  0
M  END
>  <MODEL>
2

>  <REMARK>
 VINA RESULT:      -7.8      4.346      7.781
  Name = 
  14 active torsions:
  status: ('A' for Active; 'I' for Inactive)
    1  A    between atoms: N_1  and  C_30
    2  A    between atoms: C_3  and  C_29
    3  A    between atoms: C_3  and  C_30
    4  A    between atoms: O_5  and  C_24
    5  A    between atoms: O_5  and  C_25
    6  A    between atoms: C_12  and  C_19
    7  A    between atoms: C_13  and  C_18
    8  A    between atoms: C_13  and  C_25
    9  A    between atoms: C_19  and  C_36
   10  A    between atoms: C_22  and  C_32
   11  A    between atoms: C_23  and  C_25
   12  A    between atoms: C_26  and  N_27
   13  A    between atoms: C_31  and  C_32
   14  A    between atoms: N_34  and  P_40
                            x       y       z     vdW  Elec       q    Type
                         _______ _______ _______ _____ _____    ______ ____

>  <TORSDO>
F 14

$$$$
=
 OpenBabel10232410153D

 41 42  0  0  1  0  0  0  0  0999 V2000
  186.2970  177.5670  143.7940 C   0  0  0  0  0  0  0  0  0  0  0  0
  185.3060  177.7340  142.8220 C   0  0  0  0  0  3  0  0  0  0  0  0
  184.0490  179.1360  144.3400 C   0  0  0  0  0  3  0  0  0  0  0  0
  185.0380  178.9690  145.3140 C   0  0  0  0  0  3  0  0  0  0  0  0
  184.1760  178.5230  143.0850 C   0  0  0  0  0  0  0  0  0  0  0  0
  186.1600  178.1830  145.0420 C   0  0  0  0  0  3  0  0  0  0  0  0
  183.1300  178.6940  142.0600 C   0  0  0  0  0  0  0  0  0  0  0  0
  182.0020  179.1620  142.3800 O   0  0  0  0  0  0  0  0  0  0  0  0
  183.2850  179.4580  139.6950 C   0  0  0  0  0  1  0  0  0  0  0  0
  183.3850  178.2770  140.6440 C   0  0  2  0  0  3  0  0  0  0  0  0
  182.4500  177.2350  140.2520 N   0  0  0  0  0  2  0  0  0  0  0  0
  181.5680  175.5730  138.6600 N   0  0  0  0  0  2  0  0  0  0  0  0
  180.6810  174.2920  136.9430 O   0  0  0  0  0  0  0  0  0  0  0  0
  181.7040  174.6260  137.5930 C   0  0  0  0  0  0  0  0  0  0  0  0
  183.4510  176.8710  138.1770 O   0  0  0  0  0  0  0  0  0  0  0  0
  182.5390  176.5670  138.9940 C   0  0  0  0  0  0  0  0  0  0  0  0
  182.9290  174.0280  137.2760 O   0  0  0  0  0  0  0  0  0  0  0  0
  183.4600  173.9840  135.9560 C   0  0  2  0  0  3  0  0  0  0  0  0
  183.1270  171.3830  136.7450 S   0  0  0  0  0  1  0  0  0  0  0  0
  183.2690  172.5890  135.3930 C   0  0  0  0  0  2  0  0  0  0  0  0
  184.9430  174.3280  135.9680 C   0  0  0  0  0  2  0  0  0  0  0  0
  185.5380  174.1380  137.3500 C   0  0  0  0  0  2  0  0  0  0  0  0
  186.5260  172.9890  137.3430 C   0  0  0  0  0  1  0  0  0  0  0  0
  187.4750  176.6980  143.5100 C   0  0  0  0  0  2  0  0  0  0  0  0
  190.3960  177.4390  145.8090 C   0  0  0  0  0  2  0  0  0  0  0  0
  189.5580  176.5560  144.8960 C   0  0  0  0  0  2  0  0  0  0  0  0
  191.1930  179.0950  144.0950 C   0  0  0  0  0  2  0  0  0  0  0  0
  190.7340  178.4930  142.7990 C   0  0  0  0  0  3  0  0  0  0  0  0
  189.6490  177.7130  142.6840 C   0  0  0  0  0  0  0  0  0  0  0  0
  191.6070  178.0150  145.0860 C   0  0  0  0  0  2  0  0  0  0  0  0
  188.7810  177.3980  143.8860 C   0  0  1  0  0  3  0  0  0  0  0  0
  189.3010  177.2130  141.3130 C   0  0  0  0  0  2  0  0  0  0  0  0
  190.0970  177.6860  139.0210 N   0  0  0  0  0  0  0  0  0  0  0  0
  190.0070  178.0250  140.2740 C   0  0  0  0  0  3  0  0  0  0  0  0
  190.1860  175.4120  138.4360 O   0  0  0  0  0  0  0  0  0  0  0  0
  189.5630  176.5070  138.3970 C   0  0  0  0  0  0  0  0  0  0  0  0
  188.3120  176.5650  137.7110 N   0  0  0  0  0  2  0  0  0  0  0  0
  186.1240  177.8230  136.4690 O   0  0  0  0  0  0  0  0  0  0  0  0
  188.3680  179.3050  137.0920 O   0  0  0  0  0  1  0  0  0  0  0  0
  186.7770  178.3690  138.9430 O   0  0  0  0  0  1  0  0  0  0  0  0
  187.3690  178.0370  137.5920 P   0  0  0  0  0  0  0  0  0  0  0  0
  1  6  1  0  0  0  0
  2  5  1  0  0  0  0
  2  1  2  0  0  0  0
  3  4  1  0  0  0  0
  5  3  2  0  0  0  0
  6  4  2  0  0  0  0
  7  8  2  0  0  0  0
  7  5  1  0  0  0  0
 10  9  1  6  0  0  0
 10  7  1  0  0  0  0
 11 10  1  0  0  0  0
 12 16  1  0  0  0  0
 13 14  2  0  0  0  0
 14 12  1  0  0  0  0
 15 16  2  0  0  0  0
 16 11  1  0  0  0  0
 17 14  1  0  0  0  0
 18 20  1  1  0  0  0
 18 21  1  0  0  0  0
 18 17  1  0  0  0  0
 20 19  1  0  0  0  0
 21 22  1  0  0  0  0
 23 22  1  0  0  0  0
 24  1  1  0  0  0  0
 26 25  1  0  0  0  0
 27 30  1  0  0  0  0
 28 27  1  0  0  0  0
 29 28  2  0  0  0  0
 29 31  1  0  0  0  0
 30 25  1  0  0  0  0
 31 24  1  6  0  0  0
 31 26  1  0  0  0  0
 32 29  1  0  0  0  0
 33 34  2  0  0  0  0
 34 32  1  0  0  0  0
 36 35  2  0  0  0  0
 36 33  1  0  0  0  0
 37 36  1  0  0  0  0
 38 41  2  0  0  0  0
 39 41  1  0  0  0  0
 41 37  1  0  0  0  0
 41 40  1  0  0  0  0
M  END
>  <MODEL>
3

>  <REMARK>
 VINA RESULT:      -7.7      4.740      8.496
  Name = 
  14 active torsions:
  status: ('A' for Active; 'I' for Inactive)
    1  A    between atoms: N_1  and  C_30
    2  A    between atoms: C_3  and  C_29
    3  A    between atoms: C_3  and  C_30
    4  A    between atoms: O_5  and  C_24
    5  A    between atoms: O_5  and  C_25
    6  A    between atoms: C_12  and  C_19
    7  A    between atoms: C_13  and  C_18
    8  A    between atoms: C_13  and  C_25
    9  A    between atoms: C_19  and  C_36
   10  A    between atoms: C_22  and  C_32
   11  A    between atoms: C_23  and  C_25
   12  A    between atoms: C_26  and  N_27
   13  A    between atoms: C_31  and  C_32
   14  A    between atoms: N_34  and  P_40
                            x       y       z     vdW  Elec       q    Type
                         _______ _______ _______ _____ _____    ______ ____

>  <TORSDO>
F 14

$$$$
=
 OpenBabel10232410153D

 41 42  0  0  1  0  0  0  0  0999 V2000
  183.7870  178.5070  142.1260 C   0  0  0  0  0  0  0  0  0  0  0  0
  184.8370  178.4800  143.0500 C   0  0  0  0  0  3  0  0  0  0  0  0
  183.2780  178.9410  144.8410 C   0  0  0  0  0  3  0  0  0  0  0  0
  182.2270  178.9700  143.9190 C   0  0  0  0  0  3  0  0  0  0  0  0
  184.5920  178.6930  144.4140 C   0  0  0  0  0  0  0  0  0  0  0  0
  182.4820  178.7550  142.5630 C   0  0  0  0  0  3  0  0  0  0  0  0
  185.7010  178.6680  145.3860 C   0  0  0  0  0  0  0  0  0  0  0  0
  185.7840  179.5620  146.2730 O   0  0  0  0  0  0  0  0  0  0  0  0
  187.0980  177.0590  146.6730 C   0  0  0  0  0  1  0  0  0  0  0  0
  186.7560  177.6090  145.2990 C   0  0  2  0  0  3  0  0  0  0  0  0
  187.9480  178.1400  144.6580 N   0  0  0  0  0  2  0  0  0  0  0  0
  189.8600  177.9700  143.1120 N   0  0  0  0  0  2  0  0  0  0  0  0
  191.7640  177.5320  141.8630 O   0  0  0  0  0  0  0  0  0  0  0  0
  190.5090  177.4900  141.9280 C   0  0  0  0  0  0  0  0  0  0  0  0
  188.3000  176.2450  143.3440 O   0  0  0  0  0  0  0  0  0  0  0  0
  188.6790  177.4010  143.6810 C   0  0  0  0  0  0  0  0  0  0  0  0
  189.7930  177.0140  140.8240 O   0  0  0  0  0  0  0  0  0  0  0  0
  189.9820  177.5010  139.5000 C   0  0  2  0  0  3  0  0  0  0  0  0
  188.8920  178.8050  137.3530 S   0  0  0  0  0  1  0  0  0  0  0  0
  188.7730  178.3270  139.1010 C   0  0  0  0  0  2  0  0  0  0  0  0
  190.1490  176.3420  138.5260 C   0  0  0  0  0  2  0  0  0  0  0  0
  191.6140  176.0860  138.2270 C   0  0  0  0  0  2  0  0  0  0  0  0
  191.8010  174.6830  137.6870 C   0  0  0  0  0  1  0  0  0  0  0  0
  184.0710  178.3120  140.6760 C   0  0  0  0  0  2  0  0  0  0  0  0
  182.1820  180.8650  138.6070 C   0  0  0  0  0  2  0  0  0  0  0  0
  183.3410  179.9230  138.9010 C   0  0  0  0  0  2  0  0  0  0  0  0
  180.3690  179.1470  138.3270 C   0  0  0  0  0  2  0  0  0  0  0  0
  181.1230  177.8480  138.3420 C   0  0  0  0  0  3  0  0  0  0  0  0
  182.2760  177.6650  139.0020 C   0  0  0  0  0  0  0  0  0  0  0  0
  181.1770  180.2430  137.6450 C   0  0  0  0  0  2  0  0  0  0  0  0
  182.8980  178.7830  139.8160 C   0  0  1  0  0  3  0  0  0  0  0  0
  182.8930  176.3000  138.9470 C   0  0  0  0  0  2  0  0  0  0  0  0
  183.1050  175.2060  136.7400 N   0  0  0  0  0  0  0  0  0  0  0  0
  183.5290  176.0750  137.6110 C   0  0  0  0  0  3  0  0  0  0  0  0
  180.8150  174.7530  137.0100 O   0  0  0  0  0  0  0  0  0  0  0  0
  181.9880  174.3130  136.8720 C   0  0  0  0  0  0  0  0  0  0  0  0
  182.1970  172.9000  136.8570 N   0  0  0  0  0  2  0  0  0  0  0  0
  184.7930  172.7150  137.9260 O   0  0  0  0  0  1  0  0  0  0  0  0
  184.4430  172.6410  135.1890 O   0  0  0  0  0  0  0  0  0  0  0  0
  183.6700  170.6770  136.7300 O   0  0  0  0  0  1  0  0  0  0  0  0
  183.7860  172.1830  136.6770 P   0  0  0  0  0  0  0  0  0  0  0  0
  1  6  2  0  0  0  0
  1  2  1  0  0  0  0
  2  5  2  0  0  0  0
  4  3  2  0  0  0  0
  5  3  1  0  0  0  0
  5  7  1  0  0  0  0
  6  4  1  0  0  0  0
  7  8  2  0  0  0  0
 10  7  1  0  0  0  0
 10  9  1  1  0  0  0
 11 10  1  0  0  0  0
 12 16  1  0  0  0  0
 13 14  2  0  0  0  0
 14 12  1  0  0  0  0
 15 16  2  0  0  0  0
 16 11  1  0  0  0  0
 17 14  1  0  0  0  0
 18 21  1  6  0  0  0
 18 17  1  0  0  0  0
 19 20  1  0  0  0  0
 20 18  1  0  0  0  0
 22 21  1  0  0  0  0
 23 22  1  0  0  0  0
 24  1  1  0  0  0  0
 25 26  1  0  0  0  0
 26 31  1  0  0  0  0
 27 28  1  0  0  0  0
 28 29  2  0  0  0  0
 29 31  1  0  0  0  0
 30 27  1  0  0  0  0
 30 25  1  0  0  0  0
 31 24  1  6  0  0  0
 32 29  1  0  0  0  0
 33 36  1  0  0  0  0
 33 34  2  0  0  0  0
 34 32  1  0  0  0  0
 36 35  2  0  0  0  0
 37 36  1  0  0  0  0
 39 41  2  0  0  0  0
 41 40  1  0  0  0  0
 41 37  1  0  0  0  0
 41 38  1  0  0  0  0
M  END
>  <MODEL>
4

>  <REMARK>
 VINA RESULT:      -7.5      5.394      7.859
  Name = 
  14 active torsions:
  status: ('A' for Active; 'I' for Inactive)
    1  A    between atoms: N_1  and  C_30
    2  A    between atoms: C_3  and  C_29
    3  A    between atoms: C_3  and  C_30
    4  A    between atoms: O_5  and  C_24
    5  A    between atoms: O_5  and  C_25
    6  A    between atoms: C_12  and  C_19
    7  A    between atoms: C_13  and  C_18
    8  A    between atoms: C_13  and  C_25
    9  A    between atoms: C_19  and  C_36
   10  A    between atoms: C_22  and  C_32
   11  A    between atoms: C_23  and  C_25
   12  A    between atoms: C_26  and  N_27
   13  A    between atoms: C_31  and  C_32
   14  A    between atoms: N_34  and  P_40
                            x       y       z     vdW  Elec       q    Type
                         _______ _______ _______ _____ _____    ______ ____

>  <TORSDO>
F 14

$$$$
=
 OpenBabel10232410153D

 41 42  0  0  1  0  0  0  0  0999 V2000
  184.2730  178.6860  139.8410 C   0  0  0  0  0  0  0  0  0  0  0  0
  183.7570  177.4000  139.6550 C   0  0  0  0  0  3  0  0  0  0  0  0
  181.9590  178.3110  138.3170 C   0  0  0  0  0  3  0  0  0  0  0  0
  182.4720  179.5980  138.5040 C   0  0  0  0  0  3  0  0  0  0  0  0
  182.5990  177.2010  138.8890 C   0  0  0  0  0  0  0  0  0  0  0  0
  183.6270  179.7860  139.2670 C   0  0  0  0  0  3  0  0  0  0  0  0
  182.0550  175.8440  138.6970 C   0  0  0  0  0  0  0  0  0  0  0  0
  181.2600  175.3560  139.5470 O   0  0  0  0  0  0  0  0  0  0  0  0
  181.4170  173.9890  137.1620 C   0  0  0  0  0  1  0  0  0  0  0  0
  182.4730  175.0230  137.5160 C   0  0  2  0  0  3  0  0  0  0  0  0
  183.7450  174.3720  137.7830 N   0  0  0  0  0  2  0  0  0  0  0  0
  186.1450  174.0070  137.3600 N   0  0  0  0  0  2  0  0  0  0  0  0
  188.3020  173.5640  136.6310 O   0  0  0  0  0  0  0  0  0  0  0  0
  187.4520  174.4330  136.9530 C   0  0  0  0  0  0  0  0  0  0  0  0
  184.9080  175.5930  136.1710 O   0  0  0  0  0  0  0  0  0  0  0  0
  184.9340  174.7070  137.0680 C   0  0  0  0  0  0  0  0  0  0  0  0
  187.8300  175.7810  136.9430 O   0  0  0  0  0  0  0  0  0  0  0  0
  188.7300  176.3480  137.8880 C   0  0  2  0  0  3  0  0  0  0  0  0
  186.9860  178.3300  137.1600 S   0  0  0  0  0  1  0  0  0  0  0  0
  188.1670  177.6700  138.3730 C   0  0  0  0  0  2  0  0  0  0  0  0
  190.0940  176.5800  137.2520 C   0  0  0  0  0  2  0  0  0  0  0  0
  191.1490  175.6900  137.8800 C   0  0  0  0  0  2  0  0  0  0  0  0
  192.2080  176.5330  138.5610 C   0  0  0  0  0  1  0  0  0  0  0  0
  185.4860  178.8830  140.6860 C   0  0  0  0  0  2  0  0  0  0  0  0
  183.0430  179.0210  143.5800 C   0  0  0  0  0  2  0  0  0  0  0  0
  183.7450  178.3510  142.4090 C   0  0  0  0  0  2  0  0  0  0  0  0
  185.0230  179.2700  145.1080 C   0  0  0  0  0  2  0  0  0  0  0  0
  186.0970  178.4930  144.4040 C   0  0  0  0  0  3  0  0  0  0  0  0
  186.1530  178.3390  143.0720 C   0  0  0  0  0  0  0  0  0  0  0  0
  183.6590  178.6200  144.9150 C   0  0  0  0  0  2  0  0  0  0  0  0
  185.1180  178.9750  142.1670 C   0  0  1  0  0  3  0  0  0  0  0  0
  187.3080  177.5600  142.5160 C   0  0  0  0  0  2  0  0  0  0  0  0
  189.6760  178.1110  142.0710 N   0  0  0  0  0  0  0  0  0  0  0  0
  188.4330  178.4830  142.1710 C   0  0  0  0  0  3  0  0  0  0  0  0
  190.1080  175.9100  141.3740 O   0  0  0  0  0  0  0  0  0  0  0  0
  190.2100  176.7920  142.2680 C   0  0  0  0  0  0  0  0  0  0  0  0
  190.8620  176.4600  143.4950 N   0  0  0  0  0  2  0  0  0  0  0  0
  191.9250  176.8960  146.0620 O   0  0  0  0  0  1  0  0  0  0  0  0
  189.5280  178.0750  145.3670 O   0  0  0  0  0  1  0  0  0  0  0  0
  191.7930  178.8280  144.3030 O   0  0  0  0  0  0  0  0  0  0  0  0
  191.0520  177.6100  144.8040 P   0  0  0  0  0  0  0  0  0  0  0  0
  1 24  1  0  0  0  0
  2  1  1  0  0  0  0
  3  4  2  0  0  0  0
  3  5  1  0  0  0  0
  4  6  1  0  0  0  0
  5  2  2  0  0  0  0
  6  1  2  0  0  0  0
  7  5  1  0  0  0  0
  7  8  2  0  0  0  0
 10  9  1  1  0  0  0
 10 11  1  0  0  0  0
 10  7  1  0  0  0  0
 13 14  2  0  0  0  0
 14 12  1  0  0  0  0
 15 16  2  0  0  0  0
 16 12  1  0  0  0  0
 16 11  1  0  0  0  0
 17 14  1  0  0  0  0
 17 18  1  0  0  0  0
 18 21  1  6  0  0  0
 18 20  1  0  0  0  0
 19 20  1  0  0  0  0
 21 22  1  0  0  0  0
 22 23  1  0  0  0  0
 25 30  1  0  0  0  0
 26 25  1  0  0  0  0
 28 27  1  0  0  0  0
 29 28  2  0  0  0  0
 30 27  1  0  0  0  0
 31 24  1  6  0  0  0
 31 26  1  0  0  0  0
 31 29  1  0  0  0  0
 32 29  1  0  0  0  0
 33 34  2  0  0  0  0
 33 36  1  0  0  0  0
 34 32  1  0  0  0  0
 35 36  2  0  0  0  0
 36 37  1  0  0  0  0
 37 41  1  0  0  0  0
 40 41  2  0  0  0  0
 41 39  1  0  0  0  0
 41 38  1  0  0  0  0
M  END
>  <MODEL>
5

>  <REMARK>
 VINA RESULT:      -7.2      4.629      8.350
  Name = 
  14 active torsions:
  status: ('A' for Active; 'I' for Inactive)
    1  A    between atoms: N_1  and  C_30
    2  A    between atoms: C_3  and  C_29
    3  A    between atoms: C_3  and  C_30
    4  A    between atoms: O_5  and  C_24
    5  A    between atoms: O_5  and  C_25
    6  A    between atoms: C_12  and  C_19
    7  A    between atoms: C_13  and  C_18
    8  A    between atoms: C_13  and  C_25
    9  A    between atoms: C_19  and  C_36
   10  A    between atoms: C_22  and  C_32
   11  A    between atoms: C_23  and  C_25
   12  A    between atoms: C_26  and  N_27
   13  A    between atoms: C_31  and  C_32
   14  A    between atoms: N_34  and  P_40
                            x       y       z     vdW  Elec       q    Type
                         _______ _______ _______ _____ _____    ______ ____

>  <TORSDO>
F 14

$$$$
=
 OpenBabel10232410153D

 41 42  0  0  1  0  0  0  0  0999 V2000
  189.1530  176.8730  143.4930 C   0  0  0  0  0  0  0  0  0  0  0  0
  189.7950  176.7580  142.2560 C   0  0  0  0  0  3  0  0  0  0  0  0
  191.5560  178.2250  143.0280 C   0  0  0  0  0  3  0  0  0  0  0  0
  190.9150  178.3430  144.2660 C   0  0  0  0  0  3  0  0  0  0  0  0
  191.0030  177.4290  142.0140 C   0  0  0  0  0  0  0  0  0  0  0  0
  189.7140  177.6690  144.4970 C   0  0  0  0  0  3  0  0  0  0  0  0
  191.6750  177.3100  140.7070 C   0  0  0  0  0  0  0  0  0  0  0  0
  192.9360  177.2890  140.6450 O   0  0  0  0  0  0  0  0  0  0  0  0
  189.4590  177.7720  139.6710 C   0  0  0  0  0  1  0  0  0  0  0  0
  190.8690  177.2540  139.4460 C   0  0  2  0  0  3  0  0  0  0  0  0
  190.8300  175.8930  138.9360 N   0  0  0  0  0  2  0  0  0  0  0  0
  191.5730  174.1090  137.4060 N   0  0  0  0  0  2  0  0  0  0  0  0
  192.1510  172.6460  135.7020 O   0  0  0  0  0  0  0  0  0  0  0  0
  192.5460  173.4510  136.5840 C   0  0  0  0  0  0  0  0  0  0  0  0
  192.5080  176.2510  137.3550 O   0  0  0  0  0  0  0  0  0  0  0  0
  191.6830  175.4530  137.8800 C   0  0  0  0  0  0  0  0  0  0  0  0
  193.9210  173.6400  136.7580 O   0  0  0  0  0  0  0  0  0  0  0  0
  194.6390  173.1650  137.8900 C   0  0  2  0  0  3  0  0  0  0  0  0
  197.1450  174.2350  138.1690 S   0  0  0  0  0  1  0  0  0  0  0  0
  195.3680  174.3280  138.5360 C   0  0  0  0  0  2  0  0  0  0  0  0
  195.6480  172.1030  137.4740 C   0  0  0  0  0  2  0  0  0  0  0  0
  195.3190  170.7610  138.1000 C   0  0  0  0  0  2  0  0  0  0  0  0
  196.1190  169.6610  137.4330 C   0  0  0  0  0  1  0  0  0  0  0  0
  187.8530  176.1790  143.7210 C   0  0  0  0  0  2  0  0  0  0  0  0
  186.8760  178.0400  146.8750 C   0  0  0  0  0  2  0  0  0  0  0  0
  187.7130  177.8000  145.6270 C   0  0  0  0  0  2  0  0  0  0  0  0
  184.6890  178.5770  145.7580 C   0  0  0  0  0  2  0  0  0  0  0  0
  185.0610  178.6700  144.3060 C   0  0  0  0  0  3  0  0  0  0  0  0
  186.0720  177.9850  143.7520 C   0  0  0  0  0  0  0  0  0  0  0  0
  185.8090  179.1040  146.6460 C   0  0  0  0  0  2  0  0  0  0  0  0
  186.9150  177.0310  144.5750 C   0  0  1  0  0  3  0  0  0  0  0  0
  186.2980  178.1610  142.2800 C   0  0  0  0  0  2  0  0  0  0  0  0
  185.1220  179.5400  140.5990 N   0  0  0  0  0  0  0  0  0  0  0  0
  185.6100  179.3980  141.7970 C   0  0  0  0  0  3  0  0  0  0  0  0
  186.1960  178.3560  138.8770 O   0  0  0  0  0  0  0  0  0  0  0  0
  185.1420  178.5800  139.5300 C   0  0  0  0  0  0  0  0  0  0  0  0
  183.9530  177.8670  139.1870 N   0  0  0  0  0  2  0  0  0  0  0  0
  181.3660  176.8560  139.6350 O   0  0  0  0  0  1  0  0  0  0  0  0
  181.7620  179.5860  139.5620 O   0  0  0  0  0  0  0  0  0  0  0  0
  182.6760  178.1140  141.5180 O   0  0  0  0  0  1  0  0  0  0  0  0
  182.4330  178.1070  140.0270 P   0  0  0  0  0  0  0  0  0  0  0  0
  1 24  1  0  0  0  0
  1  6  1  0  0  0  0
  2  1  2  0  0  0  0
  3  4  1  0  0  0  0
  4  6  2  0  0  0  0
  5  2  1  0  0  0  0
  5  3  2  0  0  0  0
  7  5  1  0  0  0  0
  8  7  2  0  0  0  0
 10  9  1  1  0  0  0
 10  7  1  0  0  0  0
 11 10  1  0  0  0  0
 12 16  1  0  0  0  0
 13 14  2  0  0  0  0
 14 17  1  0  0  0  0
 14 12  1  0  0  0  0
 15 16  2  0  0  0  0
 16 11  1  0  0  0  0
 17 18  1  0  0  0  0
 18 21  1  6  0  0  0
 18 20  1  0  0  0  0
 19 20  1  0  0  0  0
 21 22  1  0  0  0  0
 23 22  1  0  0  0  0
 26 25  1  0  0  0  0
 27 30  1  0  0  0  0
 28 27  1  0  0  0  0
 29 28  2  0  0  0  0
 29 31  1  0  0  0  0
 30 25  1  0  0  0  0
 31 24  1  6  0  0  0
 31 26  1  0  0  0  0
 32 29  1  0  0  0  0
 33 34  2  0  0  0  0
 34 32  1  0  0  0  0
 35 36  2  0  0  0  0
 36 33  1  0  0  0  0
 37 36  1  0  0  0  0
 37 41  1  0  0  0  0
 38 41  1  0  0  0  0
 39 41  2  0  0  0  0
 41 40  1  0  0  0  0
M  END
>  <MODEL>
6

>  <REMARK>
 VINA RESULT:      -7.2      4.217      9.800
  Name = 
  14 active torsions:
  status: ('A' for Active; 'I' for Inactive)
    1  A    between atoms: N_1  and  C_30
    2  A    between atoms: C_3  and  C_29
    3  A    between atoms: C_3  and  C_30
    4  A    between atoms: O_5  and  C_24
    5  A    between atoms: O_5  and  C_25
    6  A    between atoms: C_12  and  C_19
    7  A    between atoms: C_13  and  C_18
    8  A    between atoms: C_13  and  C_25
    9  A    between atoms: C_19  and  C_36
   10  A    between atoms: C_22  and  C_32
   11  A    between atoms: C_23  and  C_25
   12  A    between atoms: C_26  and  N_27
   13  A    between atoms: C_31  and  C_32
   14  A    between atoms: N_34  and  P_40
                            x       y       z     vdW  Elec       q    Type
                         _______ _______ _______ _____ _____    ______ ____

>  <TORSDO>
F 14

$$$$
=
 OpenBabel10232410153D

 41 42  0  0  1  0  0  0  0  0999 V2000
  184.8360  178.3220  139.2080 C   0  0  0  0  0  0  0  0  0  0  0  0
  185.2360  178.8310  140.4480 C   0  0  0  0  0  3  0  0  0  0  0  0
  183.1390  178.1180  141.4220 C   0  0  0  0  0  3  0  0  0  0  0  0
  182.7360  177.6110  140.1820 C   0  0  0  0  0  3  0  0  0  0  0  0
  184.3940  178.7300  141.5650 C   0  0  0  0  0  0  0  0  0  0  0  0
  183.5830  177.7150  139.0760 C   0  0  0  0  0  3  0  0  0  0  0  0
  184.8160  179.2710  142.8700 C   0  0  0  0  0  0  0  0  0  0  0  0
  185.6140  180.2470  142.9210 O   0  0  0  0  0  0  0  0  0  0  0  0
  182.9140  179.0710  144.4640 C   0  0  0  0  0  1  0  0  0  0  0  0
  184.3340  178.6400  144.1400 C   0  0  2  0  0  3  0  0  0  0  0  0
  185.2250  178.9780  145.2380 N   0  0  0  0  0  2  0  0  0  0  0  0
  186.9290  178.4090  146.9250 N   0  0  0  0  0  2  0  0  0  0  0  0
  188.2850  177.6460  148.6440 O   0  0  0  0  0  0  0  0  0  0  0  0
  188.0500  177.6590  147.4090 C   0  0  0  0  0  0  0  0  0  0  0  0
  186.1200  176.8300  145.4050 O   0  0  0  0  0  0  0  0  0  0  0  0
  186.1000  178.0180  145.8290 C   0  0  0  0  0  0  0  0  0  0  0  0
  188.9190  176.9760  146.5500 O   0  0  0  0  0  0  0  0  0  0  0  0
  189.7790  177.6310  145.6250 C   0  0  2  0  0  3  0  0  0  0  0  0
  190.8910  176.2580  143.5320 S   0  0  0  0  0  1  0  0  0  0  0  0
  189.4620  177.1400  144.2250 C   0  0  0  0  0  2  0  0  0  0  0  0
  191.2370  177.3310  145.9500 C   0  0  0  0  0  2  0  0  0  0  0  0
  191.3740  176.7140  147.3280 C   0  0  0  0  0  2  0  0  0  0  0  0
  192.1480  175.4130  147.2450 C   0  0  0  0  0  1  0  0  0  0  0  0
  185.7300  178.4680  138.0240 C   0  0  0  0  0  2  0  0  0  0  0  0
  185.0710  175.9720  135.2480 C   0  0  0  0  0  2  0  0  0  0  0  0
  185.6020  177.2780  135.8220 C   0  0  0  0  0  2  0  0  0  0  0  0
  186.6100  174.3870  136.4470 C   0  0  0  0  0  2  0  0  0  0  0  0
  187.5990  175.3040  137.1060 C   0  0  0  0  0  3  0  0  0  0  0  0
  187.3100  176.5550  137.4950 C   0  0  0  0  0  0  0  0  0  0  0  0
  186.1730  174.9320  135.0930 C   0  0  0  0  0  2  0  0  0  0  0  0
  185.9200  177.1310  137.3080 C   0  0  1  0  0  3  0  0  0  0  0  0
  188.3980  177.3360  138.1690 C   0  0  0  0  0  2  0  0  0  0  0  0
  190.6900  176.8640  137.3730 N   0  0  0  0  0  0  0  0  0  0  0  0
  189.5620  177.5010  137.2440 C   0  0  0  0  0  3  0  0  0  0  0  0
  190.8410  176.1580  139.6090 O   0  0  0  0  0  0  0  0  0  0  0  0
  191.0430  175.9130  138.3890 C   0  0  0  0  0  0  0  0  0  0  0  0
  191.6410  174.6670  138.0260 N   0  0  0  0  0  2  0  0  0  0  0  0
  193.1730  175.2380  135.7370 O   0  0  0  0  0  1  0  0  0  0  0  0
  190.5600  174.3990  135.4470 O   0  0  0  0  0  0  0  0  0  0  0  0
  192.4350  172.7920  136.3010 O   0  0  0  0  0  1  0  0  0  0  0  0
  191.9700  174.2280  136.3620 P   0  0  0  0  0  0  0  0  0  0  0  0
  1  2  1  0  0  0  0
  2  5  2  0  0  0  0
  3  5  1  0  0  0  0
  4  3  2  0  0  0  0
  5  7  1  0  0  0  0
  6  1  2  0  0  0  0
  6  4  1  0  0  0  0
  7  8  2  0  0  0  0
  7 10  1  0  0  0  0
 10  9  1  1  0  0  0
 10 11  1  0  0  0  0
 11 16  1  0  0  0  0
 12 14  1  0  0  0  0
 14 13  2  0  0  0  0
 15 16  2  0  0  0  0
 16 12  1  0  0  0  0
 17 14  1  0  0  0  0
 18 20  1  6  0  0  0
 18 21  1  0  0  0  0
 18 17  1  0  0  0  0
 19 20  1  0  0  0  0
 21 22  1  0  0  0  0
 23 22  1  0  0  0  0
 24  1  1  0  0  0  0
 25 26  1  0  0  0  0
 26 31  1  0  0  0  0
 27 28  1  0  0  0  0
 28 29  2  0  0  0  0
 29 32  1  0  0  0  0
 30 25  1  0  0  0  0
 30 27  1  0  0  0  0
 31 29  1  0  0  0  0
 31 24  1  1  0  0  0
 33 36  1  0  0  0  0
 34 33  2  0  0  0  0
 34 32  1  0  0  0  0
 36 35  2  0  0  0  0
 37 36  1  0  0  0  0
 38 41  1  0  0  0  0
 39 41  2  0  0  0  0
 40 41  1  0  0  0  0
 41 37  1  0  0  0  0
M  END
>  <MODEL>
7

>  <REMARK>
 VINA RESULT:      -7.1      2.167      3.418
  Name = 
  14 active torsions:
  status: ('A' for Active; 'I' for Inactive)
    1  A    between atoms: N_1  and  C_30
    2  A    between atoms: C_3  and  C_29
    3  A    between atoms: C_3  and  C_30
    4  A    between atoms: O_5  and  C_24
    5  A    between atoms: O_5  and  C_25
    6  A    between atoms: C_12  and  C_19
    7  A    between atoms: C_13  and  C_18
    8  A    between atoms: C_13  and  C_25
    9  A    between atoms: C_19  and  C_36
   10  A    between atoms: C_22  and  C_32
   11  A    between atoms: C_23  and  C_25
   12  A    between atoms: C_26  and  N_27
   13  A    between atoms: C_31  and  C_32
   14  A    between atoms: N_34  and  P_40
                            x       y       z     vdW  Elec       q    Type
                         _______ _______ _______ _____ _____    ______ ____

>  <TORSDO>
F 14

$$$$
=
 OpenBabel10232410153D

 41 42  0  0  1  0  0  0  0  0999 V2000
  184.3170  178.7900  139.4400 C   0  0  0  0  0  0  0  0  0  0  0  0
  184.1060  177.6110  138.7180 C   0  0  0  0  0  3  0  0  0  0  0  0
  182.2050  178.6200  137.6160 C   0  0  0  0  0  3  0  0  0  0  0  0
  182.4120  179.7990  138.3390 C   0  0  0  0  0  3  0  0  0  0  0  0
  183.0530  177.5170  137.7980 C   0  0  0  0  0  0  0  0  0  0  0  0
  183.4660  179.8830  139.2520 C   0  0  0  0  0  3  0  0  0  0  0  0
  182.8300  176.2720  137.0400 C   0  0  0  0  0  0  0  0  0  0  0  0
  181.8560  175.5230  137.3270 O   0  0  0  0  0  0  0  0  0  0  0  0
  183.0730  175.0780  134.8680 C   0  0  0  0  0  1  0  0  0  0  0  0
  183.7810  175.8690  135.9550 C   0  0  2  0  0  3  0  0  0  0  0  0
  184.8760  175.0910  136.5110 N   0  0  0  0  0  2  0  0  0  0  0  0
  187.2710  174.6130  136.8440 N   0  0  0  0  0  2  0  0  0  0  0  0
  189.5370  174.1230  136.7990 O   0  0  0  0  0  0  0  0  0  0  0  0
  188.6470  174.9950  136.9650 C   0  0  0  0  0  0  0  0  0  0  0  0
  186.5380  176.4490  135.5980 O   0  0  0  0  0  0  0  0  0  0  0  0
  186.2420  175.4390  136.2930 C   0  0  0  0  0  0  0  0  0  0  0  0
  189.0340  176.2970  137.3050 O   0  0  0  0  0  0  0  0  0  0  0  0
  189.1030  176.7670  138.6460 C   0  0  2  0  0  3  0  0  0  0  0  0
  188.8140  178.9160  136.9730 S   0  0  0  0  0  1  0  0  0  0  0  0
  188.7920  178.2520  138.6640 C   0  0  0  0  0  2  0  0  0  0  0  0
  190.4930  176.5330  139.2220 C   0  0  0  0  0  2  0  0  0  0  0  0
  190.6800  177.2880  140.5230 C   0  0  0  0  0  2  0  0  0  0  0  0
  192.1450  177.6150  140.7340 C   0  0  0  0  0  1  0  0  0  0  0  0
  185.4220  178.8600  140.4390 C   0  0  0  0  0  2  0  0  0  0  0  0
  182.6660  178.7940  143.0400 C   0  0  0  0  0  2  0  0  0  0  0  0
  183.5940  178.1700  142.0080 C   0  0  0  0  0  2  0  0  0  0  0  0
  184.3930  179.4590  144.7400 C   0  0  0  0  0  2  0  0  0  0  0  0
  185.6480  178.8190  144.2190 C   0  0  0  0  0  3  0  0  0  0  0  0
  185.8820  178.5890  142.9190 C   0  0  0  0  0  0  0  0  0  0  0  0
  183.1770  178.5860  144.4600 C   0  0  0  0  0  2  0  0  0  0  0  0
  184.8740  178.9900  141.8600 C   0  0  1  0  0  3  0  0  0  0  0  0
  187.1990  177.9710  142.5540 C   0  0  0  0  0  2  0  0  0  0  0  0
  188.4830  176.8080  144.3170 N   0  0  0  0  0  0  0  0  0  0  0  0
  187.4990  176.8230  143.4650 C   0  0  0  0  0  3  0  0  0  0  0  0
  190.0760  178.3770  143.5940 O   0  0  0  0  0  0  0  0  0  0  0  0
  189.4510  177.8440  144.5490 C   0  0  0  0  0  0  0  0  0  0  0  0
  189.7250  178.2800  145.8820 N   0  0  0  0  0  2  0  0  0  0  0  0
  187.2440  177.6660  147.0570 O   0  0  0  0  0  0  0  0  0  0  0  0
  189.3360  178.4910  148.6560 O   0  0  0  0  0  1  0  0  0  0  0  0
  189.3470  176.1640  147.4660 O   0  0  0  0  0  1  0  0  0  0  0  0
  188.9180  177.6010  147.2820 P   0  0  0  0  0  0  0  0  0  0  0  0
  1 24  1  0  0  0  0
  2  1  2  0  0  0  0
  3  5  2  0  0  0  0
  3  4  1  0  0  0  0
  4  6  2  0  0  0  0
  5  2  1  0  0  0  0
  6  1  1  0  0  0  0
  7  8  2  0  0  0  0
  7  5  1  0  0  0  0
 10  9  1  6  0  0  0
 10 11  1  0  0  0  0
 10  7  1  0  0  0  0
 12 14  1  0  0  0  0
 13 14  2  0  0  0  0
 14 17  1  0  0  0  0
 15 16  2  0  0  0  0
 16 11  1  0  0  0  0
 16 12  1  0  0  0  0
 17 18  1  0  0  0  0
 18 20  1  6  0  0  0
 18 21  1  0  0  0  0
 19 20  1  0  0  0  0
 21 22  1  0  0  0  0
 22 23  1  0  0  0  0
 25 30  1  0  0  0  0
 26 25  1  0  0  0  0
 28 27  1  0  0  0  0
 29 28  2  0  0  0  0
 30 27  1  0  0  0  0
 31 24  1  6  0  0  0
 31 26  1  0  0  0  0
 31 29  1  0  0  0  0
 32 29  1  0  0  0  0
 32 34  1  0  0  0  0
 33 36  1  0  0  0  0
 34 33  2  0  0  0  0
 35 36  2  0  0  0  0
 36 37  1  0  0  0  0
 37 41  1  0  0  0  0
 38 41  2  0  0  0  0
 41 40  1  0  0  0  0
 41 39  1  0  0  0  0
M  END
>  <MODEL>
8

>  <REMARK>
 VINA RESULT:      -7.1      4.305      8.897
  Name = 
  14 active torsions:
  status: ('A' for Active; 'I' for Inactive)
    1  A    between atoms: N_1  and  C_30
    2  A    between atoms: C_3  and  C_29
    3  A    between atoms: C_3  and  C_30
    4  A    between atoms: O_5  and  C_24
    5  A    between atoms: O_5  and  C_25
    6  A    between atoms: C_12  and  C_19
    7  A    between atoms: C_13  and  C_18
    8  A    between atoms: C_13  and  C_25
    9  A    between atoms: C_19  and  C_36
   10  A    between atoms: C_22  and  C_32
   11  A    between atoms: C_23  and  C_25
   12  A    between atoms: C_26  and  N_27
   13  A    between atoms: C_31  and  C_32
   14  A    between atoms: N_34  and  P_40
                            x       y       z     vdW  Elec       q    Type
                         _______ _______ _______ _____ _____    ______ ____

>  <TORSDO>
F 14

$$$$
=
 OpenBabel10232410153D

 41 42  0  0  1  0  0  0  0  0999 V2000
  183.2590  178.3240  141.5670 C   0  0  0  0  0  0  0  0  0  0  0  0
  184.2280  178.6300  142.5270 C   0  0  0  0  0  3  0  0  0  0  0  0
  182.4900  179.0860  144.1450 C   0  0  0  0  0  3  0  0  0  0  0  0
  181.5180  178.7820  143.1870 C   0  0  0  0  0  3  0  0  0  0  0  0
  183.8540  179.0100  143.8230 C   0  0  0  0  0  0  0  0  0  0  0  0
  181.9020  178.4030  141.8980 C   0  0  0  0  0  3  0  0  0  0  0  0
  184.8780  179.3370  144.8320 C   0  0  0  0  0  0  0  0  0  0  0  0
  185.2110  180.5380  145.0280 O   0  0  0  0  0  0  0  0  0  0  0  0
  184.9860  178.1170  147.0000 C   0  0  0  0  0  1  0  0  0  0  0  0
  185.5580  178.2440  145.5990 C   0  0  2  0  0  3  0  0  0  0  0  0
  186.9900  178.4900  145.6600 N   0  0  0  0  0  2  0  0  0  0  0  0
  189.3390  177.8280  145.3180 N   0  0  0  0  0  2  0  0  0  0  0  0
  191.4780  176.9370  145.2270 O   0  0  0  0  0  0  0  0  0  0  0  0
  190.3820  177.1180  144.6380 C   0  0  0  0  0  0  0  0  0  0  0  0
  187.5610  176.4320  144.7220 O   0  0  0  0  0  0  0  0  0  0  0  0
  187.9450  177.5350  145.2010 C   0  0  0  0  0  0  0  0  0  0  0  0
  190.2390  176.6550  143.3250 O   0  0  0  0  0  0  0  0  0  0  0  0
  190.0980  177.5190  142.2030 C   0  0  2  0  0  3  0  0  0  0  0  0
  187.7410  178.7240  141.4990 S   0  0  0  0  0  1  0  0  0  0  0  0
  188.7740  177.2290  141.5210 C   0  0  0  0  0  2  0  0  0  0  0  0
  191.2360  177.2990  141.2150 C   0  0  0  0  0  2  0  0  0  0  0  0
  190.7050  176.9690  139.8340 C   0  0  0  0  0  2  0  0  0  0  0  0
  191.8330  176.9820  138.8220 C   0  0  0  0  0  1  0  0  0  0  0  0
  183.6750  177.9540  140.1840 C   0  0  0  0  0  2  0  0  0  0  0  0
  181.7420  180.7450  138.4980 C   0  0  0  0  0  2  0  0  0  0  0  0
  183.0050  179.9920  138.8880 C   0  0  0  0  0  2  0  0  0  0  0  0
  180.7110  178.9970  137.0150 C   0  0  0  0  0  2  0  0  0  0  0  0
  181.7970  177.9680  136.8950 C   0  0  0  0  0  3  0  0  0  0  0  0
  182.7160  177.7410  137.8440 C   0  0  0  0  0  0  0  0  0  0  0  0
  181.2920  180.4030  137.0830 C   0  0  0  0  0  2  0  0  0  0  0  0
  182.7040  178.5170  139.1460 C   0  0  1  0  0  3  0  0  0  0  0  0
  183.7180  176.6550  137.5890 C   0  0  0  0  0  2  0  0  0  0  0  0
  185.6960  177.4100  136.3130 N   0  0  0  0  0  0  0  0  0  0  0  0
  184.4810  176.9430  136.3350 C   0  0  0  0  0  3  0  0  0  0  0  0
  186.3280  178.7860  138.1090 O   0  0  0  0  0  0  0  0  0  0  0  0
  186.5250  177.7370  137.4390 C   0  0  0  0  0  0  0  0  0  0  0  0
  187.5990  176.8730  137.8110 N   0  0  0  0  0  2  0  0  0  0  0  0
  187.9500  175.6930  135.2820 O   0  0  0  0  0  0  0  0  0  0  0  0
  186.8020  174.2240  137.3170 O   0  0  0  0  0  1  0  0  0  0  0  0
  189.3280  174.8910  137.3560 O   0  0  0  0  0  1  0  0  0  0  0  0
  187.9640  175.3930  136.9450 P   0  0  0  0  0  0  0  0  0  0  0  0
  1  6  2  0  0  0  0
  1  2  1  0  0  0  0
  2  5  2  0  0  0  0
  4  3  2  0  0  0  0
  5  3  1  0  0  0  0
  5  7  1  0  0  0  0
  6  4  1  0  0  0  0
  7  8  2  0  0  0  0
  7 10  1  0  0  0  0
 10 11  1  0  0  0  0
 10  9  1  1  0  0  0
 14 13  2  0  0  0  0
 14 12  1  0  0  0  0
 15 16  2  0  0  0  0
 16 12  1  0  0  0  0
 16 11  1  0  0  0  0
 17 14  1  0  0  0  0
 18 21  1  6  0  0  0
 18 17  1  0  0  0  0
 19 20  1  0  0  0  0
 20 18  1  0  0  0  0
 22 21  1  0  0  0  0
 23 22  1  0  0  0  0
 24  1  1  0  0  0  0
 25 26  1  0  0  0  0
 26 31  1  0  0  0  0
 27 30  1  0  0  0  0
 28 27  1  0  0  0  0
 28 29  2  0  0  0  0
 29 31  1  0  0  0  0
 30 25  1  0  0  0  0
 31 24  1  1  0  0  0
 32 29  1  0  0  0  0
 33 34  2  0  0  0  0
 33 36  1  0  0  0  0
 34 32  1  0  0  0  0
 36 37  1  0  0  0  0
 36 35  2  0  0  0  0
 38 41  2  0  0  0  0
 41 39  1  0  0  0  0
 41 40  1  0  0  0  0
 41 37  1  0  0  0  0
M  END
>  <MODEL>
9

>  <REMARK>
 VINA RESULT:      -7.1      4.035      6.167
  Name = 
  14 active torsions:
  status: ('A' for Active; 'I' for Inactive)
    1  A    between atoms: N_1  and  C_30
    2  A    between atoms: C_3  and  C_29
    3  A    between atoms: C_3  and  C_30
    4  A    between atoms: O_5  and  C_24
    5  A    between atoms: O_5  and  C_25
    6  A    between atoms: C_12  and  C_19
    7  A    between atoms: C_13  and  C_18
    8  A    between atoms: C_13  and  C_25
    9  A    between atoms: C_19  and  C_36
   10  A    between atoms: C_22  and  C_32
   11  A    between atoms: C_23  and  C_25
   12  A    between atoms: C_26  and  N_27
   13  A    between atoms: C_31  and  C_32
   14  A    between atoms: N_34  and  P_40
                            x       y       z     vdW  Elec       q    Type
                         _______ _______ _______ _____ _____    ______ ____

>  <TORSDO>
F 14

$$$$
