=
 OpenBabel10232409473D

 25 27  0  0  1  0  0  0  0  0999 V2000
  183.9860  178.7580  140.1770 C   0  0  1  0  0  3  0  0  0  0  0  0
  185.0250  179.5180  139.1840 S   0  0  0  0  0  0  0  0  0  0  0  0
  182.1380  177.2030  139.3760 C   0  0  0  0  0  0  0  0  0  0  0  0
  182.9860  176.0620  139.5080 N   0  0  0  0  0  1  0  0  0  0  0  0
  182.5930  178.4970  139.7260 C   0  0  0  0  0  0  0  0  0  0  0  0
  181.6950  179.5690  139.6310 C   0  0  0  0  0  3  0  0  0  0  0  0
  179.9820  178.1070  138.8550 N   0  0  0  0  0  0  0  0  0  0  0  0
  180.8140  177.0360  138.9360 C   0  0  0  0  0  0  0  0  0  0  0  0
  180.3890  179.3570  139.1920 C   0  0  0  0  0  3  0  0  0  0  0  0
  180.2940  175.6900  138.5620 C   0  0  0  0  0  1  0  0  0  0  0  0
  183.3530  178.3230  142.5800 C   0  0  0  0  0  2  0  0  0  0  0  0
  186.5410  178.0780  142.9850 C   0  0  0  0  0  2  0  0  0  0  0  0
  183.4220  179.5390  143.2720 O   0  0  0  0  0  0  0  0  0  0  0  0
  185.7730  178.8840  141.9370 C   0  0  0  0  0  2  0  0  0  0  0  0
  185.2020  179.1570  144.8590 C   0  0  0  0  0  2  0  0  0  0  0  0
  184.4510  178.2380  141.5120 C   0  0  2  0  0  3  0  0  0  0  0  0
  185.7880  177.8660  144.2990 C   0  0  0  0  0  2  0  0  0  0  0  0
  183.6980  179.1970  144.6020 C   0  0  0  0  0  2  0  0  0  0  0  0
  188.1980  178.6370  139.3020 O   0  0  0  0  0  0  0  0  0  0  0  0
  185.9810  178.2240  138.4340 C   0  0  0  0  0  0  0  0  0  0  0  0
  187.3900  177.9770  138.5960 C   0  0  0  0  0  0  0  0  0  0  0  0
  187.7420  176.8560  137.8070 N   0  0  0  0  0  0  0  0  0  0  0  0
  185.4980  177.3520  137.6150 N   0  0  0  0  0  0  0  0  0  0  0  0
  186.4930  175.3750  136.3220 C   0  0  0  0  0  1  0  0  0  0  0  0
  186.6140  176.5250  137.2560 C   0  0  0  0  0  0  0  0  0  0  0  0
  1  2  1  6  0  0  0
  3  4  1  0  0  0  0
  3  5  1  0  0  0  0
  5  1  1  0  0  0  0
  6  5  2  0  0  0  0
  7  8  1  0  0  0  0
  7  9  2  0  0  0  0
  8  3  2  0  0  0  0
  9  6  1  0  0  0  0
 10  8  1  0  0  0  0
 11 13  1  0  0  0  0
 12 17  1  0  0  0  0
 13 18  1  0  0  0  0
 14 12  1  0  0  0  0
 16  1  1  6  0  0  0
 16 14  1  0  0  0  0
 16 11  1  0  0  0  0
 17 15  1  0  0  0  0
 18 15  1  0  0  0  0
 20 21  1  0  0  0  0
 20  2  1  0  0  0  0
 21 19  2  0  0  0  0
 22 21  1  0  0  0  0
 23 20  2  0  0  0  0
 24 25  1  0  0  0  0
 25 23  1  0  0  0  0
 25 22  2  0  0  0  0
M  END
>  <MODEL>
1

>  <REMARK>
 VINA RESULT:      -5.5      0.000      0.000
  Name = 
  3 active torsions:
  status: ('A' for Active; 'I' for Inactive)
    1  A    between atoms: C_6  and  S_20
    2  A    between atoms: C_7  and  C_19
    3  A    between atoms: C_16  and  C_19
                            x       y       z     vdW  Elec       q    Type
                         _______ _______ _______ _____ _____    ______ ____

>  <TORSDO>
F 3

$$$$
=
 OpenBabel10232409473D

 25 27  0  0  1  0  0  0  0  0999 V2000
  189.7490  177.3110  138.3940 C   0  0  1  0  0  3  0  0  0  0  0  0
  189.2040  178.5200  137.4530 S   0  0  0  0  0  0  0  0  0  0  0  0
  190.7900  177.4020  140.7140 C   0  0  0  0  0  0  0  0  0  0  0  0
  192.1080  177.3340  140.1690 N   0  0  0  0  0  1  0  0  0  0  0  0
  189.6520  177.4270  139.8730 C   0  0  0  0  0  0  0  0  0  0  0  0
  188.3870  177.5540  140.4650 C   0  0  0  0  0  3  0  0  0  0  0  0
  189.3720  177.6110  142.6330 N   0  0  0  0  0  0  0  0  0  0  0  0
  190.6190  177.4940  142.1060 C   0  0  0  0  0  0  0  0  0  0  0  0
  188.2650  177.6460  141.8500 C   0  0  0  0  0  3  0  0  0  0  0  0
  191.7920  177.4760  143.0260 C   0  0  0  0  0  1  0  0  0  0  0  0
  191.3370  176.3070  136.7100 C   0  0  0  0  0  2  0  0  0  0  0  0
  189.5140  173.6810  137.1130 C   0  0  0  0  0  2  0  0  0  0  0  0
  190.7590  176.4370  135.4400 O   0  0  0  0  0  0  0  0  0  0  0  0
  189.1210  175.1490  137.2830 C   0  0  0  0  0  2  0  0  0  0  0  0
  190.4000  174.1430  134.7740 C   0  0  0  0  0  2  0  0  0  0  0  0
  190.2660  176.0390  137.7750 C   0  0  2  0  0  3  0  0  0  0  0  0
  190.6370  173.4380  136.1050 C   0  0  0  0  0  2  0  0  0  0  0  0
  191.2840  175.3840  134.6810 C   0  0  0  0  0  2  0  0  0  0  0  0
  187.8430  177.7260  134.5600 O   0  0  0  0  0  0  0  0  0  0  0  0
  187.5800  178.0160  136.9450 C   0  0  0  0  0  0  0  0  0  0  0  0
  187.1450  177.7010  135.6080 C   0  0  0  0  0  0  0  0  0  0  0  0
  185.7720  177.3620  135.6520 N   0  0  0  0  0  0  0  0  0  0  0  0
  186.5760  177.9000  137.7460 N   0  0  0  0  0  0  0  0  0  0  0  0
  184.1200  177.2330  137.4450 C   0  0  0  0  0  1  0  0  0  0  0  0
  185.4830  177.4900  136.9120 C   0  0  0  0  0  0  0  0  0  0  0  0
  1  2  1  6  0  0  0
  1  5  1  0  0  0  0
  3  8  1  0  0  0  0
  4  3  1  0  0  0  0
  5  6  1  0  0  0  0
  5  3  2  0  0  0  0
  6  9  2  0  0  0  0
  8  7  2  0  0  0  0
  8 10  1  0  0  0  0
  9  7  1  0  0  0  0
 11 16  1  0  0  0  0
 12 14  1  0  0  0  0
 13 11  1  0  0  0  0
 14 16  1  0  0  0  0
 15 17  1  0  0  0  0
 16  1  1  6  0  0  0
 17 12  1  0  0  0  0
 18 15  1  0  0  0  0
 18 13  1  0  0  0  0
 19 21  2  0  0  0  0
 20  2  1  0  0  0  0
 20 23  2  0  0  0  0
 21 22  1  0  0  0  0
 21 20  1  0  0  0  0
 22 25  2  0  0  0  0
 25 24  1  0  0  0  0
 25 23  1  0  0  0  0
M  END
>  <MODEL>
2

>  <REMARK>
 VINA RESULT:      -5.3      4.181      8.107
  Name = 
  3 active torsions:
  status: ('A' for Active; 'I' for Inactive)
    1  A    between atoms: C_6  and  S_20
    2  A    between atoms: C_7  and  C_19
    3  A    between atoms: C_16  and  C_19
                            x       y       z     vdW  Elec       q    Type
                         _______ _______ _______ _____ _____    ______ ____

>  <TORSDO>
F 3

$$$$
=
 OpenBabel10232409473D

 25 27  0  0  1  0  0  0  0  0999 V2000
  190.1330  176.0300  137.1100 C   0  0  1  0  0  3  0  0  0  0  0  0
  189.4570  177.4990  137.2740 S   0  0  0  0  0  0  0  0  0  0  0  0
  192.2560  175.9300  135.7100 C   0  0  0  0  0  0  0  0  0  0  0  0
  191.5180  176.1390  134.5050 N   0  0  0  0  0  1  0  0  0  0  0  0
  191.6090  175.9100  136.9680 C   0  0  0  0  0  0  0  0  0  0  0  0
  192.3940  175.7600  138.1200 C   0  0  0  0  0  3  0  0  0  0  0  0
  194.3710  175.6410  136.7960 N   0  0  0  0  0  0  0  0  0  0  0  0
  193.6530  175.7890  135.6520 C   0  0  0  0  0  0  0  0  0  0  0  0
  193.7780  175.6260  138.0160 C   0  0  0  0  0  3  0  0  0  0  0  0
  194.3730  175.8090  134.3470 C   0  0  0  0  0  1  0  0  0  0  0  0
  190.0240  173.5480  136.6730 C   0  0  0  0  0  2  0  0  0  0  0  0
  186.8530  174.0030  137.0210 C   0  0  0  0  0  2  0  0  0  0  0  0
  189.7840  173.3600  135.3050 O   0  0  0  0  0  0  0  0  0  0  0  0
  187.9130  175.0010  136.5500 C   0  0  0  0  0  2  0  0  0  0  0  0
  187.6080  172.3110  135.2800 C   0  0  0  0  0  2  0  0  0  0  0  0
  189.2860  174.7880  137.1940 C   0  0  2  0  0  3  0  0  0  0  0  0
  187.1830  172.5400  136.7250 C   0  0  0  0  0  2  0  0  0  0  0  0
  189.1220  172.1300  135.2070 C   0  0  0  0  0  2  0  0  0  0  0  0
  186.9280  178.5220  139.1220 O   0  0  0  0  0  0  0  0  0  0  0  0
  189.1980  177.6990  139.0180 C   0  0  0  0  0  0  0  0  0  0  0  0
  188.0040  178.1690  139.6730 C   0  0  0  0  0  0  0  0  0  0  0  0
  188.2370  178.1880  141.0690 N   0  0  0  0  0  0  0  0  0  0  0  0
  190.0940  177.4590  139.9130 N   0  0  0  0  0  0  0  0  0  0  0  0
  190.1530  177.6210  142.4710 C   0  0  0  0  0  1  0  0  0  0  0  0
  189.4610  177.7680  141.1630 C   0  0  0  0  0  0  0  0  0  0  0  0
  1  2  1  1  0  0  0
  2 20  1  0  0  0  0
  3  5  1  0  0  0  0
  4  3  1  0  0  0  0
  5  1  1  0  0  0  0
  5  6  2  0  0  0  0
  7  9  2  0  0  0  0
  8  3  2  0  0  0  0
  8  7  1  0  0  0  0
  9  6  1  0  0  0  0
 10  8  1  0  0  0  0
 11 16  1  0  0  0  0
 13 11  1  0  0  0  0
 14 12  1  0  0  0  0
 14 16  1  0  0  0  0
 15 17  1  0  0  0  0
 16  1  1  6  0  0  0
 17 12  1  0  0  0  0
 18 15  1  0  0  0  0
 18 13  1  0  0  0  0
 19 21  2  0  0  0  0
 20 21  1  0  0  0  0
 20 23  2  0  0  0  0
 21 22  1  0  0  0  0
 22 25  2  0  0  0  0
 23 25  1  0  0  0  0
 25 24  1  0  0  0  0
M  END
>  <MODEL>
3

>  <REMARK>
 VINA RESULT:      -5.3      5.137      9.513
  Name = 
  3 active torsions:
  status: ('A' for Active; 'I' for Inactive)
    1  A    between atoms: C_6  and  S_20
    2  A    between atoms: C_7  and  C_19
    3  A    between atoms: C_16  and  C_19
                            x       y       z     vdW  Elec       q    Type
                         _______ _______ _______ _____ _____    ______ ____

>  <TORSDO>
F 3

$$$$
=
 OpenBabel10232409473D

 25 27  0  0  1  0  0  0  0  0999 V2000
  188.1340  177.2090  143.9530 C   0  0  1  0  0  3  0  0  0  0  0  0
  186.7430  176.3980  144.1800 S   0  0  0  0  0  0  0  0  0  0  0  0
  189.5490  176.7880  141.8810 C   0  0  0  0  0  0  0  0  0  0  0  0
  190.1130  175.6090  142.4560 N   0  0  0  0  0  1  0  0  0  0  0  0
  188.5750  177.5450  142.5730 C   0  0  0  0  0  0  0  0  0  0  0  0
  188.0160  178.6600  141.9320 C   0  0  0  0  0  3  0  0  0  0  0  0
  189.3660  178.2710  140.0080 N   0  0  0  0  0  0  0  0  0  0  0  0
  189.9330  177.1790  140.5860 C   0  0  0  0  0  0  0  0  0  0  0  0
  188.4240  179.0100  140.6460 C   0  0  0  0  0  3  0  0  0  0  0  0
  190.9530  176.4070  139.8210 C   0  0  0  0  0  1  0  0  0  0  0  0
  190.4310  177.7730  144.8300 C   0  0  0  0  0  2  0  0  0  0  0  0
  188.9620  177.6440  147.6950 C   0  0  0  0  0  2  0  0  0  0  0  0
  191.0690  176.5730  145.1730 O   0  0  0  0  0  0  0  0  0  0  0  0
  188.5970  176.9120  146.4030 C   0  0  0  0  0  2  0  0  0  0  0  0
  191.3490  176.7770  147.5640 C   0  0  0  0  0  2  0  0  0  0  0  0
  188.9290  177.7010  145.1340 C   0  0  2  0  0  3  0  0  0  0  0  0
  190.4480  177.9750  147.8380 C   0  0  0  0  0  2  0  0  0  0  0  0
  191.9820  176.9110  146.1810 C   0  0  0  0  0  2  0  0  0  0  0  0
  185.8620  177.9570  146.9450 O   0  0  0  0  0  0  0  0  0  0  0  0
  185.5390  177.6410  144.5710 C   0  0  0  0  0  0  0  0  0  0  0  0
  185.2790  178.2250  145.8620 C   0  0  0  0  0  0  0  0  0  0  0  0
  184.2280  179.1630  145.7250 N   0  0  0  0  0  0  0  0  0  0  0  0
  184.7240  178.1520  143.7130 N   0  0  0  0  0  0  0  0  0  0  0  0
  182.8660  179.9130  143.8440 C   0  0  0  0  0  1  0  0  0  0  0  0
  183.9370  179.0890  144.4620 C   0  0  0  0  0  0  0  0  0  0  0  0
  1  2  1  1  0  0  0
  2 20  1  0  0  0  0
  3  4  1  0  0  0  0
  3  5  1  0  0  0  0
  5  1  1  0  0  0  0
  6  5  2  0  0  0  0
  7  8  1  0  0  0  0
  7  9  2  0  0  0  0
  8  3  2  0  0  0  0
  9  6  1  0  0  0  0
 10  8  1  0  0  0  0
 11 16  1  0  0  0  0
 11 13  1  0  0  0  0
 12 17  1  0  0  0  0
 13 18  1  0  0  0  0
 14 12  1  0  0  0  0
 15 17  1  0  0  0  0
 16  1  1  6  0  0  0
 16 14  1  0  0  0  0
 18 15  1  0  0  0  0
 20 21  1  0  0  0  0
 21 19  2  0  0  0  0
 22 21  1  0  0  0  0
 23 25  1  0  0  0  0
 23 20  2  0  0  0  0
 24 25  1  0  0  0  0
 25 22  2  0  0  0  0
M  END
>  <MODEL>
4

>  <REMARK>
 VINA RESULT:      -5.2      4.493      7.634
  Name = 
  3 active torsions:
  status: ('A' for Active; 'I' for Inactive)
    1  A    between atoms: C_6  and  S_20
    2  A    between atoms: C_7  and  C_19
    3  A    between atoms: C_16  and  C_19
                            x       y       z     vdW  Elec       q    Type
                         _______ _______ _______ _____ _____    ______ ____

>  <TORSDO>
F 3

$$$$
=
 OpenBabel10232409473D

 25 27  0  0  1  0  0  0  0  0999 V2000
  188.4700  178.0940  141.7230 C   0  0  1  0  0  3  0  0  0  0  0  0
  187.7340  179.5090  141.4070 S   0  0  0  0  0  0  0  0  0  0  0  0
  189.9620  177.8060  143.7640 C   0  0  0  0  0  0  0  0  0  0  0  0
  191.0690  178.4040  143.0880 N   0  0  0  0  0  1  0  0  0  0  0  0
  188.7020  177.6830  143.1330 C   0  0  0  0  0  0  0  0  0  0  0  0
  187.6370  177.1410  143.8680 C   0  0  0  0  0  3  0  0  0  0  0  0
  189.0520  176.8510  145.7630 N   0  0  0  0  0  0  0  0  0  0  0  0
  190.1120  177.3750  145.0930 C   0  0  0  0  0  0  0  0  0  0  0  0
  187.8300  176.7290  145.1850 C   0  0  0  0  0  3  0  0  0  0  0  0
  191.4220  177.4910  145.7950 C   0  0  0  0  0  1  0  0  0  0  0  0
  190.2790  176.6530  140.7150 C   0  0  0  0  0  2  0  0  0  0  0  0
  188.3740  176.7280  138.1170 C   0  0  0  0  0  2  0  0  0  0  0  0
  191.1590  177.4900  140.0160 O   0  0  0  0  0  0  0  0  0  0  0  0
  188.5040  177.7650  139.2340 C   0  0  0  0  0  2  0  0  0  0  0  0
  190.8870  176.7680  137.7270 C   0  0  0  0  0  2  0  0  0  0  0  0
  188.8350  177.1580  140.6000 C   0  0  2  0  0  3  0  0  0  0  0  0
  189.6380  175.9050  137.8660 C   0  0  0  0  0  2  0  0  0  0  0  0
  191.7140  176.6910  139.0080 C   0  0  0  0  0  2  0  0  0  0  0  0
  185.0520  179.2390  143.3010 O   0  0  0  0  0  0  0  0  0  0  0  0
  186.0370  179.0900  141.1000 C   0  0  0  0  0  0  0  0  0  0  0  0
  184.9700  179.0180  142.0640 C   0  0  0  0  0  0  0  0  0  0  0  0
  183.7850  178.6340  141.3930 N   0  0  0  0  0  0  0  0  0  0  0  0
  185.5700  178.7720  139.9400 N   0  0  0  0  0  0  0  0  0  0  0  0
  183.2540  178.1030  139.0700 C   0  0  0  0  0  1  0  0  0  0  0  0
  184.1780  178.5040  140.1630 C   0  0  0  0  0  0  0  0  0  0  0  0
  1  2  1  1  0  0  0
  1  5  1  0  0  0  0
  3  8  1  0  0  0  0
  4  3  1  0  0  0  0
  5  3  2  0  0  0  0
  5  6  1  0  0  0  0
  6  9  2  0  0  0  0
  8  7  2  0  0  0  0
  8 10  1  0  0  0  0
  9  7  1  0  0  0  0
 12 14  1  0  0  0  0
 13 11  1  0  0  0  0
 14 16  1  0  0  0  0
 15 17  1  0  0  0  0
 15 18  1  0  0  0  0
 16 11  1  0  0  0  0
 16  1  1  1  0  0  0
 17 12  1  0  0  0  0
 18 13  1  0  0  0  0
 20  2  1  0  0  0  0
 20 21  1  0  0  0  0
 21 19  2  0  0  0  0
 22 21  1  0  0  0  0
 23 25  1  0  0  0  0
 23 20  2  0  0  0  0
 24 25  1  0  0  0  0
 25 22  2  0  0  0  0
M  END
>  <MODEL>
5

>  <REMARK>
 VINA RESULT:      -5.1      3.492      7.547
  Name = 
  3 active torsions:
  status: ('A' for Active; 'I' for Inactive)
    1  A    between atoms: C_6  and  S_20
    2  A    between atoms: C_7  and  C_19
    3  A    between atoms: C_16  and  C_19
                            x       y       z     vdW  Elec       q    Type
                         _______ _______ _______ _____ _____    ______ ____

>  <TORSDO>
F 3

$$$$
=
 OpenBabel10232409473D

 25 27  0  0  1  0  0  0  0  0999 V2000
  188.9190  178.3450  141.6590 C   0  0  1  0  0  3  0  0  0  0  0  0
  188.0160  179.6840  141.4730 S   0  0  0  0  0  0  0  0  0  0  0  0
  188.9820  177.4520  144.0410 C   0  0  0  0  0  0  0  0  0  0  0  0
  187.6550  176.9370  143.9260 N   0  0  0  0  0  1  0  0  0  0  0  0
  189.6130  178.0980  142.9510 C   0  0  0  0  0  0  0  0  0  0  0  0
  190.9380  178.5290  143.1060 C   0  0  0  0  0  3  0  0  0  0  0  0
  190.9760  177.7120  145.3430 N   0  0  0  0  0  0  0  0  0  0  0  0
  189.6940  177.2720  145.2400 C   0  0  0  0  0  0  0  0  0  0  0  0
  191.6070  178.3280  144.3120 C   0  0  0  0  0  3  0  0  0  0  0  0
  189.0690  176.5930  146.4100 C   0  0  0  0  0  1  0  0  0  0  0  0
  190.3060  176.5380  140.5760 C   0  0  0  0  0  2  0  0  0  0  0  0
  188.1920  176.8780  138.1670 C   0  0  0  0  0  2  0  0  0  0  0  0
  191.2530  177.1570  139.7490 O   0  0  0  0  0  0  0  0  0  0  0  0
  188.6320  177.9140  139.2020 C   0  0  0  0  0  2  0  0  0  0  0  0
  190.6130  176.4100  137.5430 C   0  0  0  0  0  2  0  0  0  0  0  0
  188.9810  177.3110  140.5660 C   0  0  2  0  0  3  0  0  0  0  0  0
  189.2430  175.8150  137.8490 C   0  0  0  0  0  2  0  0  0  0  0  0
  191.5380  176.2250  138.7430 C   0  0  0  0  0  2  0  0  0  0  0  0
  185.5210  178.7630  139.5290 O   0  0  0  0  0  0  0  0  0  0  0  0
  186.3450  179.1630  141.7650 C   0  0  0  0  0  0  0  0  0  0  0  0
  185.3650  178.7880  140.7780 C   0  0  0  0  0  0  0  0  0  0  0  0
  184.1620  178.4560  141.4460 N   0  0  0  0  0  0  0  0  0  0  0  0
  185.8070  179.0860  142.9340 N   0  0  0  0  0  0  0  0  0  0  0  0
  183.4860  178.4130  143.7910 C   0  0  0  0  0  1  0  0  0  0  0  0
  184.4630  178.6420  142.6940 C   0  0  0  0  0  0  0  0  0  0  0  0
  1  2  1  1  0  0  0
  1  5  1  0  0  0  0
  2 20  1  0  0  0  0
  3  8  1  0  0  0  0
  4  3  1  0  0  0  0
  5  6  1  0  0  0  0
  5  3  2  0  0  0  0
  6  9  2  0  0  0  0
  8  7  2  0  0  0  0
  8 10  1  0  0  0  0
  9  7  1  0  0  0  0
 12 14  1  0  0  0  0
 13 11  1  0  0  0  0
 14 16  1  0  0  0  0
 15 17  1  0  0  0  0
 15 18  1  0  0  0  0
 16 11  1  0  0  0  0
 16  1  1  1  0  0  0
 17 12  1  0  0  0  0
 18 13  1  0  0  0  0
 19 21  2  0  0  0  0
 20 23  2  0  0  0  0
 21 22  1  0  0  0  0
 21 20  1  0  0  0  0
 22 25  2  0  0  0  0
 25 23  1  0  0  0  0
 25 24  1  0  0  0  0
M  END
>  <MODEL>
6

>  <REMARK>
 VINA RESULT:      -5.1      3.764      7.848
  Name = 
  3 active torsions:
  status: ('A' for Active; 'I' for Inactive)
    1  A    between atoms: C_6  and  S_20
    2  A    between atoms: C_7  and  C_19
    3  A    between atoms: C_16  and  C_19
                            x       y       z     vdW  Elec       q    Type
                         _______ _______ _______ _____ _____    ______ ____

>  <TORSDO>
F 3

$$$$
=
 OpenBabel10232409473D

 25 27  0  0  1  0  0  0  0  0999 V2000
  195.1680  173.9260  137.3650 C   0  0  1  0  0  3  0  0  0  0  0  0
  194.3720  175.0600  136.5140 S   0  0  0  0  0  0  0  0  0  0  0  0
  197.6420  174.3130  137.8180 C   0  0  0  0  0  0  0  0  0  0  0  0
  197.9810  173.9800  136.4710 N   0  0  0  0  0  1  0  0  0  0  0  0
  196.2950  174.3250  138.2500 C   0  0  0  0  0  0  0  0  0  0  0  0
  196.0190  174.7170  139.5680 C   0  0  0  0  0  3  0  0  0  0  0  0
  198.3410  175.0490  139.9870 N   0  0  0  0  0  0  0  0  0  0  0  0
  198.6570  174.6810  138.7180 C   0  0  0  0  0  0  0  0  0  0  0  0
  197.0570  175.0770  140.4260 C   0  0  0  0  0  3  0  0  0  0  0  0
  200.0880  174.6860  138.3010 C   0  0  0  0  0  1  0  0  0  0  0  0
  195.7150  171.5510  138.0150 C   0  0  0  0  0  2  0  0  0  0  0  0
  193.4120  170.8310  135.8790 C   0  0  0  0  0  2  0  0  0  0  0  0
  196.6420  171.0520  137.0890 O   0  0  0  0  0  0  0  0  0  0  0  0
  194.3270  172.0560  135.9170 C   0  0  0  0  0  2  0  0  0  0  0  0
  195.4180  169.2730  136.0060 C   0  0  0  0  0  2  0  0  0  0  0  0
  194.7120  172.4910  137.3330 C   0  0  2  0  0  3  0  0  0  0  0  0
  194.0100  169.5720  136.5080 C   0  0  0  0  0  2  0  0  0  0  0  0
  196.4410  169.6660  137.0690 C   0  0  0  0  0  2  0  0  0  0  0  0
  191.4100  173.6480  136.8110 O   0  0  0  0  0  0  0  0  0  0  0  0
  192.9180  175.4200  137.4640 C   0  0  0  0  0  0  0  0  0  0  0  0
  191.6810  174.6830  137.4760 C   0  0  0  0  0  0  0  0  0  0  0  0
  190.7840  175.3250  138.3630 N   0  0  0  0  0  0  0  0  0  0  0  0
  192.8050  176.4320  138.2560 N   0  0  0  0  0  0  0  0  0  0  0  0
  190.9340  177.3150  139.7690 C   0  0  0  0  0  1  0  0  0  0  0  0
  191.4780  176.3340  138.7940 C   0  0  0  0  0  0  0  0  0  0  0  0
  1  2  1  1  0  0  0
  1  5  1  0  0  0  0
  2 20  1  0  0  0  0
  3  5  2  0  0  0  0
  3  8  1  0  0  0  0
  4  3  1  0  0  0  0
  5  6  1  0  0  0  0
  6  9  2  0  0  0  0
  7  9  1  0  0  0  0
  8  7  2  0  0  0  0
 10  8  1  0  0  0  0
 12 14  1  0  0  0  0
 12 17  1  0  0  0  0
 13 11  1  0  0  0  0
 14 16  1  0  0  0  0
 15 17  1  0  0  0  0
 15 18  1  0  0  0  0
 16  1  1  6  0  0  0
 16 11  1  0  0  0  0
 18 13  1  0  0  0  0
 19 21  2  0  0  0  0
 20 21  1  0  0  0  0
 20 23  2  0  0  0  0
 21 22  1  0  0  0  0
 22 25  2  0  0  0  0
 23 25  1  0  0  0  0
 25 24  1  0  0  0  0
M  END
>  <MODEL>
7

>  <REMARK>
 VINA RESULT:      -5.1      9.198     13.519
  Name = 
  3 active torsions:
  status: ('A' for Active; 'I' for Inactive)
    1  A    between atoms: C_6  and  S_20
    2  A    between atoms: C_7  and  C_19
    3  A    between atoms: C_16  and  C_19
                            x       y       z     vdW  Elec       q    Type
                         _______ _______ _______ _____ _____    ______ ____

>  <TORSDO>
F 3

$$$$
=
 OpenBabel10232409473D

 25 27  0  0  1  0  0  0  0  0999 V2000
  182.2000  177.9660  138.8010 C   0  0  1  0  0  3  0  0  0  0  0  0
  183.8060  178.0200  139.0460 S   0  0  0  0  0  0  0  0  0  0  0  0
  181.5300  175.7480  137.7500 C   0  0  0  0  0  0  0  0  0  0  0  0
  182.3150  176.0160  136.5880 N   0  0  0  0  0  1  0  0  0  0  0  0
  181.4930  176.6580  138.8320 C   0  0  0  0  0  0  0  0  0  0  0  0
  180.7510  176.3120  139.9710 C   0  0  0  0  0  3  0  0  0  0  0  0
  180.1090  174.2510  138.9640 N   0  0  0  0  0  0  0  0  0  0  0  0
  180.8180  174.5390  137.8420 C   0  0  0  0  0  0  0  0  0  0  0  0
  180.0620  175.1010  140.0200 C   0  0  0  0  0  3  0  0  0  0  0  0
  180.8350  173.5520  136.7260 C   0  0  0  0  0  1  0  0  0  0  0  0
  180.3480  179.1210  137.5360 C   0  0  0  0  0  2  0  0  0  0  0  0
  181.6560  181.7840  138.7940 C   0  0  0  0  0  2  0  0  0  0  0  0
  180.8610  179.5300  136.2970 O   0  0  0  0  0  0  0  0  0  0  0  0
  182.3330  180.4520  138.4710 C   0  0  0  0  0  2  0  0  0  0  0  0
  180.7320  181.9390  136.4300 C   0  0  0  0  0  2  0  0  0  0  0  0
  181.4120  179.2390  138.6350 C   0  0  2  0  0  3  0  0  0  0  0  0
  180.4470  182.1100  137.9170 C   0  0  0  0  0  2  0  0  0  0  0  0
  180.0970  180.6450  135.9270 C   0  0  0  0  0  2  0  0  0  0  0  0
  186.3090  179.1640  140.8570 O   0  0  0  0  0  0  0  0  0  0  0  0
  184.0010  178.4550  140.7550 C   0  0  0  0  0  0  0  0  0  0  0  0
  185.1910  178.9510  141.3970 C   0  0  0  0  0  0  0  0  0  0  0  0
  184.9090  179.1530  142.7690 N   0  0  0  0  0  0  0  0  0  0  0  0
  183.0680  178.3460  141.6390 N   0  0  0  0  0  0  0  0  0  0  0  0
  182.9230  178.8320  144.1520 C   0  0  0  0  0  1  0  0  0  0  0  0
  183.6660  178.7910  142.8650 C   0  0  0  0  0  0  0  0  0  0  0  0
  1  5  1  0  0  0  0
  1  2  1  1  0  0  0
  2 20  1  0  0  0  0
  3  8  2  0  0  0  0
  3  5  1  0  0  0  0
  4  3  1  0  0  0  0
  5  6  2  0  0  0  0
  6  9  1  0  0  0  0
  7  9  2  0  0  0  0
  8  7  1  0  0  0  0
 10  8  1  0  0  0  0
 11 16  1  0  0  0  0
 13 11  1  0  0  0  0
 14 16  1  0  0  0  0
 14 12  1  0  0  0  0
 15 17  1  0  0  0  0
 16  1  1  6  0  0  0
 17 12  1  0  0  0  0
 18 13  1  0  0  0  0
 18 15  1  0  0  0  0
 19 21  2  0  0  0  0
 20 21  1  0  0  0  0
 20 23  2  0  0  0  0
 21 22  1  0  0  0  0
 22 25  2  0  0  0  0
 23 25  1  0  0  0  0
 25 24  1  0  0  0  0
M  END
>  <MODEL>
8

>  <REMARK>
 VINA RESULT:      -5.0      2.789      5.579
  Name = 
  3 active torsions:
  status: ('A' for Active; 'I' for Inactive)
    1  A    between atoms: C_6  and  S_20
    2  A    between atoms: C_7  and  C_19
    3  A    between atoms: C_16  and  C_19
                            x       y       z     vdW  Elec       q    Type
                         _______ _______ _______ _____ _____    ______ ____

>  <TORSDO>
F 3

$$$$
=
 OpenBabel10232409473D

 25 27  0  0  1  0  0  0  0  0999 V2000
  185.6650  178.6390  142.6570 C   0  0  1  0  0  3  0  0  0  0  0  0
  186.6610  179.6570  141.8730 S   0  0  0  0  0  0  0  0  0  0  0  0
  183.1500  179.0040  142.7850 C   0  0  0  0  0  0  0  0  0  0  0  0
  183.2940  179.8780  143.9050 N   0  0  0  0  0  1  0  0  0  0  0  0
  184.2800  178.4300  142.1560 C   0  0  0  0  0  0  0  0  0  0  0  0
  184.0800  177.6270  141.0250 C   0  0  0  0  0  3  0  0  0  0  0  0
  181.7240  177.9540  141.1720 N   0  0  0  0  0  0  0  0  0  0  0  0
  181.8690  178.7440  142.2680 C   0  0  0  0  0  0  0  0  0  0  0  0
  182.7910  177.3980  140.5440 C   0  0  0  0  0  3  0  0  0  0  0  0
  180.6530  179.3320  142.8990 C   0  0  0  0  0  1  0  0  0  0  0  0
  185.3070  178.0490  145.0830 C   0  0  0  0  0  2  0  0  0  0  0  0
  188.3290  176.9510  144.8770 C   0  0  0  0  0  2  0  0  0  0  0  0
  185.8080  179.1000  145.8620 O   0  0  0  0  0  0  0  0  0  0  0  0
  187.6620  178.0630  144.0660 C   0  0  0  0  0  2  0  0  0  0  0  0
  187.6340  178.0630  147.0560 C   0  0  0  0  0  2  0  0  0  0  0  0
  186.1660  177.8370  143.8300 C   0  0  2  0  0  3  0  0  0  0  0  0
  187.7540  176.7570  146.2800 C   0  0  0  0  0  2  0  0  0  0  0  0
  186.1770  178.5190  147.0820 C   0  0  0  0  0  2  0  0  0  0  0  0
  186.3780  178.5190  138.7940 O   0  0  0  0  0  0  0  0  0  0  0  0
  187.6630  178.6210  140.8370 C   0  0  0  0  0  0  0  0  0  0  0  0
  187.3850  178.2120  139.4850 C   0  0  0  0  0  0  0  0  0  0  0  0
  188.4400  177.3780  139.0430 N   0  0  0  0  0  0  0  0  0  0  0  0
  188.7760  178.0870  141.2120 N   0  0  0  0  0  0  0  0  0  0  0  0
  190.4920  176.5560  140.0790 C   0  0  0  0  0  1  0  0  0  0  0  0
  189.2250  177.3330  140.0760 C   0  0  0  0  0  0  0  0  0  0  0  0
  1  2  1  6  0  0  0
  3  4  1  0  0  0  0
  5  1  1  0  0  0  0
  5  3  2  0  0  0  0
  6  5  1  0  0  0  0
  7  8  2  0  0  0  0
  8  3  1  0  0  0  0
  8 10  1  0  0  0  0
  9  6  2  0  0  0  0
  9  7  1  0  0  0  0
 11 13  1  0  0  0  0
 12 17  1  0  0  0  0
 13 18  1  0  0  0  0
 14 12  1  0  0  0  0
 15 18  1  0  0  0  0
 16  1  1  6  0  0  0
 16 14  1  0  0  0  0
 16 11  1  0  0  0  0
 17 15  1  0  0  0  0
 19 21  2  0  0  0  0
 20 23  2  0  0  0  0
 20  2  1  0  0  0  0
 21 20  1  0  0  0  0
 22 21  1  0  0  0  0
 22 25  2  0  0  0  0
 25 24  1  0  0  0  0
 25 23  1  0  0  0  0
M  END
>  <MODEL>
9

>  <REMARK>
 VINA RESULT:      -5.0      2.552      3.603
  Name = 
  3 active torsions:
  status: ('A' for Active; 'I' for Inactive)
    1  A    between atoms: C_6  and  S_20
    2  A    between atoms: C_7  and  C_19
    3  A    between atoms: C_16  and  C_19
                            x       y       z     vdW  Elec       q    Type
                         _______ _______ _______ _____ _____    ______ ____

>  <TORSDO>
F 3

$$$$
