=
 OpenBabel10232408033D

 46 49  0  0  1  0  0  0  0  0999 V2000
  180.7370  178.3590  138.3150 N   0  0  0  0  0  2  0  0  0  0  0  0
  181.7340  178.4860  137.3250 C   0  0  0  0  0  0  0  0  0  0  0  0
  182.9050  178.0450  139.3340 C   0  0  2  0  0  3  0  0  0  0  0  0
  183.1070  178.2590  137.8270 C   0  0  1  0  0  3  0  0  0  0  0  0
  181.4660  178.8040  136.1370 O   0  0  0  0  0  0  0  0  0  0  0  0
  181.3700  178.0340  139.5800 C   0  0  1  0  0  3  0  0  0  0  0  0
  180.9700  178.9540  140.5530 O   0  0  0  0  0  1  0  0  0  0  0  0
  183.6690  179.0890  140.1680 C   0  0  2  0  0  3  0  0  0  0  0  0
  184.3540  179.9950  139.3430 O   0  0  0  0  0  1  0  0  0  0  0  0
  185.8390  179.3110  141.4610 C   0  0  0  0  0  1  0  0  0  0  0  0
  184.6450  178.4090  141.1330 C   0  0  1  0  0  3  0  0  0  0  0  0
  183.9190  177.9940  142.4040 C   0  0  0  0  0  2  0  0  0  0  0  0
  182.3000  179.4580  143.4890 N   0  0  0  0  0  1  0  0  0  0  0  0
  183.7160  179.1790  143.3320 C   0  0  1  0  0  3  0  0  0  0  0  0
  187.8010  177.8340  145.8610 N   0  0  0  0  0  2  0  0  0  0  0  0
  183.6490  179.0530  145.7170 O   0  0  0  0  0  0  0  0  0  0  0  0
  186.4200  178.1810  145.9250 C   0  0  0  0  0  0  0  0  0  0  0  0
  185.6960  178.4800  144.7230 N   0  0  0  0  0  2  0  0  0  0  0  0
  185.8480  178.2160  147.0470 O   0  0  0  0  0  0  0  0  0  0  0  0
  184.3320  178.9100  144.6640 C   0  0  0  0  0  0  0  0  0  0  0  0
  189.3490  176.2510  142.9160 C   0  0  0  0  0  2  0  0  0  0  0  0
  188.5400  177.7740  144.6090 C   0  0  1  0  0  3  0  0  0  0  0  0
  190.3340  177.8060  144.9240 S   0  0  0  0  0  0  0  0  0  0  0  0
  191.6880  177.0330  142.6730 C   0  0  0  0  0  1  0  0  0  0  0  0
  190.6440  176.5360  143.6520 C   0  0  2  0  0  3  0  0  0  0  0  0
  188.2180  176.4850  143.8900 C   0  0  0  0  0  2  0  0  0  0  0  0
  183.7360  177.0750  137.2280 N   0  0  0  0  0  0  0  0  0  0  0  0
  186.7190  177.0890  134.9280 C   0  0  0  0  0  3  0  0  0  0  0  0
  187.4640  177.5320  137.1860 C   0  0  0  0  0  3  0  0  0  0  0  0
  185.4000  177.0060  135.3830 C   0  0  0  0  0  3  0  0  0  0  0  0
  185.0960  177.1830  136.7450 C   0  0  0  0  0  0  0  0  0  0  0  0
  187.7590  177.3520  135.8270 C   0  0  0  0  0  0  0  0  0  0  0  0
  186.1460  177.4470  137.6430 C   0  0  0  0  0  3  0  0  0  0  0  0
  189.0930  177.4360  135.4080 O   0  0  0  0  0  0  0  0  0  0  0  0
  190.1510  176.7520  136.0770 C   0  0  0  0  0  1  0  0  0  0  0  0
  183.0340  175.7820  137.3070 C   0  0  2  0  0  3  0  0  0  0  0  0
  183.8490  174.7530  138.0740 C   0  0  0  0  0  1  0  0  0  0  0  0
  182.6810  175.2510  135.9240 C   0  0  0  0  0  2  0  0  0  0  0  0
  180.5870  174.2220  136.3500 O   0  0  0  0  0  0  0  0  0  0  0  0
  183.4010  170.0680  135.8920 C   0  0  0  0  0  2  0  0  0  0  0  0
  182.2950  172.7300  135.7630 N   0  0  0  0  0  0  0  0  0  0  0  0
  182.0210  170.3240  135.2880 C   0  0  0  0  0  2  0  0  0  0  0  0
  181.3880  171.5810  135.8800 C   0  0  0  0  0  2  0  0  0  0  0  0
  183.6700  172.5390  135.3070 C   0  0  0  0  0  2  0  0  0  0  0  0
  181.7950  174.0520  136.0300 C   0  0  0  0  0  0  0  0  0  0  0  0
  184.2870  171.3120  135.9770 C   0  0  0  0  0  2  0  0  0  0  0  0
  1  6  1  0  0  0  0
  2  4  1  0  0  0  0
  2  1  1  0  0  0  0
  3  6  1  0  0  0  0
  3  8  1  1  0  0  0
  4 27  1  6  0  0  0
  4  3  1  0  0  0  0
  5  2  2  0  0  0  0
  6  7  1  1  0  0  0
  8  9  1  6  0  0  0
  8 11  1  0  0  0  0
 11 10  1  1  0  0  0
 11 12  1  0  0  0  0
 12 14  1  0  0  0  0
 14 13  1  1  0  0  0
 14 20  1  0  0  0  0
 15 17  1  0  0  0  0
 17 19  2  0  0  0  0
 18 17  1  0  0  0  0
 20 18  1  0  0  0  0
 20 16  2  0  0  0  0
 21 25  1  0  0  0  0
 21 26  1  0  0  0  0
 22 23  1  0  0  0  0
 22 15  1  1  0  0  0
 25 24  1  6  0  0  0
 25 23  1  0  0  0  0
 26 22  1  0  0  0  0
 27 36  1  0  0  0  0
 28 30  2  0  0  0  0
 28 32  1  0  0  0  0
 29 33  1  0  0  0  0
 30 31  1  0  0  0  0
 31 27  1  0  0  0  0
 31 33  2  0  0  0  0
 32 29  2  0  0  0  0
 34 32  1  0  0  0  0
 34 35  1  0  0  0  0
 36 37  1  6  0  0  0
 38 45  1  0  0  0  0
 38 36  1  0  0  0  0
 40 46  1  0  0  0  0
 41 43  1  0  0  0  0
 41 45  1  0  0  0  0
 42 43  1  0  0  0  0
 42 40  1  0  0  0  0
 44 41  1  0  0  0  0
 44 46  1  0  0  0  0
 45 39  2  0  0  0  0
M  END
>  <MODEL>
1

>  <REMARK>
 VINA RESULT:      -7.6      0.000      0.000
  Name = 
  12 active torsions:
  status: ('A' for Active; 'I' for Inactive)
    1  A    between atoms: N_4  and  C_6
    2  A    between atoms: N_4  and  C_25
    3  A    between atoms: N_4  and  C_30
    4  A    between atoms: C_6  and  C_13
    5  A    between atoms: C_7  and  C_17
    6  A    between atoms: C_7  and  C_40
    7  A    between atoms: N_10  and  C_11
    8  A    between atoms: O_12  and  C_35
    9  A    between atoms: C_13  and  C_31
   10  A    between atoms: C_32  and  C_37
   11  A    between atoms: C_32  and  C_40
   12  A    between atoms: C_37  and  C_46
                            x       y       z     vdW  Elec       q    Type
                         _______ _______ _______ _____ _____    ______ ____

>  <TORSDO>
F 12

$$$$
=
 OpenBabel10232408033D

 46 49  0  0  1  0  0  0  0  0999 V2000
  181.8230  177.2640  138.4320 N   0  0  0  0  0  2  0  0  0  0  0  0
  182.8220  177.7360  137.5540 C   0  0  0  0  0  0  0  0  0  0  0  0
  183.8430  177.6840  139.6890 C   0  0  2  0  0  3  0  0  0  0  0  0
  184.1270  177.9780  138.2090 C   0  0  1  0  0  3  0  0  0  0  0  0
  182.5960  177.9650  136.3370 O   0  0  0  0  0  0  0  0  0  0  0  0
  182.3850  177.1510  139.7660 C   0  0  1  0  0  3  0  0  0  0  0  0
  181.5920  177.8660  140.6680 O   0  0  0  0  0  1  0  0  0  0  0  0
  184.1130  178.9100  140.5780 C   0  0  2  0  0  3  0  0  0  0  0  0
  184.8150  179.9020  139.8760 O   0  0  0  0  0  1  0  0  0  0  0  0
  186.3070  178.0460  141.5130 C   0  0  0  0  0  1  0  0  0  0  0  0
  184.8840  178.5100  141.8410 C   0  0  1  0  0  3  0  0  0  0  0  0
  184.9110  179.6690  142.8270 C   0  0  0  0  0  2  0  0  0  0  0  0
  182.9960  178.4070  143.6540 N   0  0  0  0  0  1  0  0  0  0  0  0
  183.9860  179.4100  144.0030 C   0  0  1  0  0  3  0  0  0  0  0  0
  188.3060  177.6220  145.7420 N   0  0  0  0  0  2  0  0  0  0  0  0
  184.2470  179.0020  146.3430 O   0  0  0  0  0  0  0  0  0  0  0  0
  186.9690  178.0100  146.0440 C   0  0  0  0  0  0  0  0  0  0  0  0
  186.1000  178.4770  145.0030 N   0  0  0  0  0  2  0  0  0  0  0  0
  186.5620  177.9310  147.2340 O   0  0  0  0  0  0  0  0  0  0  0  0
  184.7670  178.9610  145.1920 C   0  0  0  0  0  0  0  0  0  0  0  0
  189.6510  176.3170  142.5690 C   0  0  0  0  0  2  0  0  0  0  0  0
  188.8580  177.6860  144.3960 C   0  0  1  0  0  3  0  0  0  0  0  0
  190.6500  178.0090  144.4560 S   0  0  0  0  0  0  0  0  0  0  0  0
  191.7740  177.4720  142.0180 C   0  0  0  0  0  1  0  0  0  0  0  0
  190.9750  176.8090  143.1210 C   0  0  2  0  0  3  0  0  0  0  0  0
  188.6490  176.3620  143.6980 C   0  0  0  0  0  2  0  0  0  0  0  0
  185.1800  177.0850  137.7090 N   0  0  0  0  0  0  0  0  0  0  0  0
  183.9620  173.5880  137.0170 C   0  0  0  0  0  3  0  0  0  0  0  0
  184.5470  174.6460  134.9220 C   0  0  0  0  0  3  0  0  0  0  0  0
  184.3150  174.7540  137.7000 C   0  0  0  0  0  3  0  0  0  0  0  0
  184.7900  175.8810  137.0060 C   0  0  0  0  0  0  0  0  0  0  0  0
  184.0770  173.5270  135.6230 C   0  0  0  0  0  0  0  0  0  0  0  0
  184.9030  175.8130  135.6050 C   0  0  0  0  0  3  0  0  0  0  0  0
  183.7390  172.3720  134.9050 O   0  0  0  0  0  0  0  0  0  0  0  0
  183.0920  171.2550  135.5110 C   0  0  0  0  0  1  0  0  0  0  0  0
  186.5820  177.5320  137.7760 C   0  0  2  0  0  3  0  0  0  0  0  0
  186.8830  178.5770  136.7130 C   0  0  0  0  0  1  0  0  0  0  0  0
  187.5500  176.3620  137.6550 C   0  0  0  0  0  2  0  0  0  0  0  0
  188.8600  177.3860  139.3460 O   0  0  0  0  0  0  0  0  0  0  0  0
  192.5800  175.9050  136.2870 C   0  0  0  0  0  2  0  0  0  0  0  0
  190.1010  176.2340  137.7270 N   0  0  0  0  0  0  0  0  0  0  0  0
  192.5240  175.7760  137.8090 C   0  0  0  0  0  2  0  0  0  0  0  0
  191.3660  176.5850  138.3860 C   0  0  0  0  0  2  0  0  0  0  0  0
  190.0990  175.3610  136.5550 C   0  0  0  0  0  2  0  0  0  0  0  0
  188.8610  176.6960  138.2900 C   0  0  0  0  0  0  0  0  0  0  0  0
  191.2230  175.7550  135.5970 C   0  0  0  0  0  2  0  0  0  0  0  0
  1  6  1  0  0  0  0
  2  4  1  0  0  0  0
  2  1  1  0  0  0  0
  3  6  1  0  0  0  0
  3  8  1  1  0  0  0
  4 27  1  6  0  0  0
  4  3  1  0  0  0  0
  5  2  2  0  0  0  0
  6  7  1  1  0  0  0
  8  9  1  6  0  0  0
  8 11  1  0  0  0  0
 11 10  1  6  0  0  0
 11 12  1  0  0  0  0
 12 14  1  0  0  0  0
 14 13  1  6  0  0  0
 14 20  1  0  0  0  0
 15 17  1  0  0  0  0
 17 19  2  0  0  0  0
 18 20  1  0  0  0  0
 18 17  1  0  0  0  0
 20 16  2  0  0  0  0
 21 25  1  0  0  0  0
 21 26  1  0  0  0  0
 22 23  1  0  0  0  0
 22 15  1  1  0  0  0
 25 24  1  6  0  0  0
 25 23  1  0  0  0  0
 26 22  1  0  0  0  0
 27 36  1  0  0  0  0
 28 30  1  0  0  0  0
 29 33  2  0  0  0  0
 29 32  1  0  0  0  0
 31 30  2  0  0  0  0
 31 27  1  0  0  0  0
 32 28  2  0  0  0  0
 33 31  1  0  0  0  0
 34 35  1  0  0  0  0
 34 32  1  0  0  0  0
 36 37  1  6  0  0  0
 38 36  1  0  0  0  0
 38 45  1  0  0  0  0
 40 42  1  0  0  0  0
 41 45  1  0  0  0  0
 41 43  1  0  0  0  0
 42 43  1  0  0  0  0
 44 41  1  0  0  0  0
 45 39  2  0  0  0  0
 46 40  1  0  0  0  0
 46 44  1  0  0  0  0
M  END
>  <MODEL>
2

>  <REMARK>
 VINA RESULT:      -7.5      1.783      4.824
  Name = 
  12 active torsions:
  status: ('A' for Active; 'I' for Inactive)
    1  A    between atoms: N_4  and  C_6
    2  A    between atoms: N_4  and  C_25
    3  A    between atoms: N_4  and  C_30
    4  A    between atoms: C_6  and  C_13
    5  A    between atoms: C_7  and  C_17
    6  A    between atoms: C_7  and  C_40
    7  A    between atoms: N_10  and  C_11
    8  A    between atoms: O_12  and  C_35
    9  A    between atoms: C_13  and  C_31
   10  A    between atoms: C_32  and  C_37
   11  A    between atoms: C_32  and  C_40
   12  A    between atoms: C_37  and  C_46
                            x       y       z     vdW  Elec       q    Type
                         _______ _______ _______ _____ _____    ______ ____

>  <TORSDO>
F 12

$$$$
=
 OpenBabel10232408033D

 46 49  0  0  1  0  0  0  0  0999 V2000
  191.6380  176.3070  139.1910 N   0  0  0  0  0  2  0  0  0  0  0  0
  191.4150  177.3130  140.1550 C   0  0  0  0  0  0  0  0  0  0  0  0
  189.3850  177.1440  138.9480 C   0  0  2  0  0  3  0  0  0  0  0  0
  190.0410  177.8640  140.1350 C   0  0  1  0  0  3  0  0  0  0  0  0
  192.3220  177.7200  140.9260 O   0  0  0  0  0  0  0  0  0  0  0  0
  190.4170  176.1010  138.4340 C   0  0  1  0  0  3  0  0  0  0  0  0
  190.6860  176.2310  137.0690 O   0  0  0  0  0  1  0  0  0  0  0  0
  188.9020  178.1350  137.8740 C   0  0  2  0  0  3  0  0  0  0  0  0
  189.0970  179.4630  138.2830 O   0  0  0  0  0  1  0  0  0  0  0  0
  187.0900  178.3560  136.1140 C   0  0  0  0  0  1  0  0  0  0  0  0
  187.4260  177.8960  137.5350 C   0  0  1  0  0  3  0  0  0  0  0  0
  187.0780  176.4270  137.7220 C   0  0  0  0  0  2  0  0  0  0  0  0
  187.7680  174.9910  135.8770 N   0  0  0  0  0  1  0  0  0  0  0  0
  186.6740  175.7870  136.4060 C   0  0  1  0  0  3  0  0  0  0  0  0
  182.0580  175.4070  138.2590 N   0  0  0  0  0  2  0  0  0  0  0  0
  185.4400  173.7620  136.1130 O   0  0  0  0  0  0  0  0  0  0  0  0
  183.1290  174.7530  137.5820 C   0  0  0  0  0  0  0  0  0  0  0  0
  184.3520  175.4550  137.3210 N   0  0  0  0  0  2  0  0  0  0  0  0
  182.9850  173.5540  137.2240 O   0  0  0  0  0  0  0  0  0  0  0  0
  185.4660  174.9320  136.5900 C   0  0  0  0  0  0  0  0  0  0  0  0
  182.5130  178.1750  140.6490 C   0  0  0  0  0  2  0  0  0  0  0  0
  182.1380  176.7910  138.7030 C   0  0  1  0  0  3  0  0  0  0  0  0
  180.4700  177.4660  138.9920 S   0  0  0  0  0  0  0  0  0  0  0  0
  180.6420  179.7870  140.4340 C   0  0  0  0  0  1  0  0  0  0  0  0
  181.0090  178.3190  140.5110 C   0  0  2  0  0  3  0  0  0  0  0  0
  182.8990  176.8630  140.0070 C   0  0  0  0  0  2  0  0  0  0  0  0
  189.3030  177.5780  141.3720 N   0  0  0  0  0  0  0  0  0  0  0  0
  191.1830  175.9310  144.1890 C   0  0  0  0  0  3  0  0  0  0  0  0
  191.0480  178.3070  144.6170 C   0  0  0  0  0  3  0  0  0  0  0  0
  190.4810  176.1090  142.9950 C   0  0  0  0  0  3  0  0  0  0  0  0
  190.0520  177.3880  142.5950 C   0  0  0  0  0  0  0  0  0  0  0  0
  191.4700  177.0290  145.0080 C   0  0  0  0  0  0  0  0  0  0  0  0
  190.3440  178.4870  143.4240 C   0  0  0  0  0  3  0  0  0  0  0  0
  192.1660  176.8870  146.2160 O   0  0  0  0  0  0  0  0  0  0  0  0
  191.8840  175.8410  147.1440 C   0  0  0  0  0  1  0  0  0  0  0  0
  187.8340  177.6760  141.3610 C   0  0  2  0  0  3  0  0  0  0  0  0
  187.3730  179.1260  141.3620 C   0  0  0  0  0  1  0  0  0  0  0  0
  187.2130  176.9240  142.5300 C   0  0  0  0  0  2  0  0  0  0  0  0
  185.4300  178.4810  142.6840 O   0  0  0  0  0  0  0  0  0  0  0  0
  187.0000  178.6450  147.4680 C   0  0  0  0  0  2  0  0  0  0  0  0
  186.4020  177.9200  144.7400 N   0  0  0  0  0  0  0  0  0  0  0  0
  185.5580  178.5640  146.9670 C   0  0  0  0  0  2  0  0  0  0  0  0
  185.4850  178.8120  145.4630 C   0  0  0  0  0  2  0  0  0  0  0  0
  187.3520  177.0880  145.4740 C   0  0  0  0  0  2  0  0  0  0  0  0
  186.3030  177.8190  143.3080 C   0  0  0  0  0  0  0  0  0  0  0  0
  188.0070  177.8930  146.5960 C   0  0  0  0  0  2  0  0  0  0  0  0
  1  2  1  0  0  0  0
  2  5  2  0  0  0  0
  3  8  1  6  0  0  0
  3  4  1  0  0  0  0
  4  2  1  0  0  0  0
  4 27  1  1  0  0  0
  6  7  1  6  0  0  0
  6  3  1  0  0  0  0
  6  1  1  0  0  0  0
  8  9  1  1  0  0  0
 11 10  1  6  0  0  0
 11 12  1  0  0  0  0
 11  8  1  0  0  0  0
 14 13  1  1  0  0  0
 14 20  1  0  0  0  0
 14 12  1  0  0  0  0
 16 20  2  0  0  0  0
 17 15  1  0  0  0  0
 18 17  1  0  0  0  0
 19 17  2  0  0  0  0
 20 18  1  0  0  0  0
 22 15  1  1  0  0  0
 22 23  1  0  0  0  0
 22 26  1  0  0  0  0
 23 25  1  0  0  0  0
 25 24  1  6  0  0  0
 25 21  1  0  0  0  0
 26 21  1  0  0  0  0
 27 31  1  0  0  0  0
 28 32  1  0  0  0  0
 29 32  2  0  0  0  0
 30 28  2  0  0  0  0
 31 30  1  0  0  0  0
 31 33  2  0  0  0  0
 32 34  1  0  0  0  0
 33 29  1  0  0  0  0
 34 35  1  0  0  0  0
 36 37  1  1  0  0  0
 36 27  1  0  0  0  0
 36 38  1  0  0  0  0
 38 45  1  0  0  0  0
 39 45  2  0  0  0  0
 41 43  1  0  0  0  0
 41 44  1  0  0  0  0
 42 40  1  0  0  0  0
 43 42  1  0  0  0  0
 44 46  1  0  0  0  0
 45 41  1  0  0  0  0
 46 40  1  0  0  0  0
M  END
>  <MODEL>
3

>  <REMARK>
 VINA RESULT:      -7.4      3.332      9.606
  Name = 
  12 active torsions:
  status: ('A' for Active; 'I' for Inactive)
    1  A    between atoms: N_4  and  C_6
    2  A    between atoms: N_4  and  C_25
    3  A    between atoms: N_4  and  C_30
    4  A    between atoms: C_6  and  C_13
    5  A    between atoms: C_7  and  C_17
    6  A    between atoms: C_7  and  C_40
    7  A    between atoms: N_10  and  C_11
    8  A    between atoms: O_12  and  C_35
    9  A    between atoms: C_13  and  C_31
   10  A    between atoms: C_32  and  C_37
   11  A    between atoms: C_32  and  C_40
   12  A    between atoms: C_37  and  C_46
                            x       y       z     vdW  Elec       q    Type
                         _______ _______ _______ _____ _____    ______ ____

>  <TORSDO>
F 12

$$$$
=
 OpenBabel10232408033D

 46 49  0  0  1  0  0  0  0  0999 V2000
  191.8270  176.1730  138.9200 N   0  0  0  0  0  2  0  0  0  0  0  0
  191.7000  177.2550  139.8160 C   0  0  0  0  0  0  0  0  0  0  0  0
  189.4960  176.7870  139.0880 C   0  0  2  0  0  3  0  0  0  0  0  0
  190.3010  177.6850  140.0390 C   0  0  1  0  0  3  0  0  0  0  0  0
  192.6970  177.8190  140.3380 O   0  0  0  0  0  0  0  0  0  0  0  0
  190.5060  175.7850  138.4620 C   0  0  1  0  0  3  0  0  0  0  0  0
  190.4770  175.7870  137.0640 O   0  0  0  0  0  1  0  0  0  0  0  0
  188.7050  177.6110  138.0570 C   0  0  2  0  0  3  0  0  0  0  0  0
  188.8600  178.9880  138.2790 O   0  0  0  0  0  1  0  0  0  0  0  0
  186.3320  178.4040  137.6430 C   0  0  0  0  0  1  0  0  0  0  0  0
  187.2190  177.2350  138.0820 C   0  0  1  0  0  3  0  0  0  0  0  0
  186.9740  176.0150  137.2080 C   0  0  0  0  0  2  0  0  0  0  0  0
  186.2570  175.9210  134.8790 N   0  0  0  0  0  1  0  0  0  0  0  0
  185.8390  176.2600  136.2280 C   0  0  1  0  0  3  0  0  0  0  0  0
  181.5600  176.0790  138.7850 N   0  0  0  0  0  2  0  0  0  0  0  0
  184.4910  174.2900  136.1490 O   0  0  0  0  0  0  0  0  0  0  0  0
  182.4820  175.3790  137.9540 C   0  0  0  0  0  0  0  0  0  0  0  0
  183.6780  176.0280  137.4990 N   0  0  0  0  0  2  0  0  0  0  0  0
  182.2350  174.1860  137.6320 O   0  0  0  0  0  0  0  0  0  0  0  0
  184.6410  175.4580  136.6060 C   0  0  0  0  0  0  0  0  0  0  0  0
  180.9150  179.1790  140.6690 C   0  0  0  0  0  2  0  0  0  0  0  0
  181.7650  177.4590  139.2000 C   0  0  1  0  0  3  0  0  0  0  0  0
  181.0010  178.6040  138.0070 S   0  0  0  0  0  0  0  0  0  0  0  0
  180.8080  181.1030  139.1100 C   0  0  0  0  0  1  0  0  0  0  0  0
  180.3670  179.6730  139.3440 C   0  0  2  0  0  3  0  0  0  0  0  0
  181.1150  177.6870  140.5450 C   0  0  0  0  0  2  0  0  0  0  0  0
  189.8630  177.4740  141.4250 N   0  0  0  0  0  0  0  0  0  0  0  0
  186.4380  177.2750  142.9800 C   0  0  0  0  0  3  0  0  0  0  0  0
  186.5260  179.1970  141.5140 C   0  0  0  0  0  3  0  0  0  0  0  0
  187.7670  176.9800  142.6670 C   0  0  0  0  0  3  0  0  0  0  0  0
  188.4930  177.7870  141.7730 C   0  0  0  0  0  0  0  0  0  0  0  0
  185.8090  178.3860  142.4040 C   0  0  0  0  0  0  0  0  0  0  0  0
  187.8550  178.9010  141.1980 C   0  0  0  0  0  3  0  0  0  0  0  0
  184.4760  178.7080  142.6900 O   0  0  0  0  0  0  0  0  0  0  0  0
  183.9870  178.8340  144.0240 C   0  0  0  0  0  1  0  0  0  0  0  0
  190.7690  176.7840  142.3590 C   0  0  2  0  0  3  0  0  0  0  0  0
  190.1260  175.5320  142.9360 C   0  0  0  0  0  1  0  0  0  0  0  0
  191.2270  177.7070  143.4810 C   0  0  0  0  0  2  0  0  0  0  0  0
  192.0510  176.1190  145.0370 O   0  0  0  0  0  0  0  0  0  0  0  0
  187.8390  177.4500  147.4610 C   0  0  0  0  0  2  0  0  0  0  0  0
  190.1800  177.3180  145.7800 N   0  0  0  0  0  0  0  0  0  0  0  0
  189.2350  177.2680  148.0580 C   0  0  0  0  0  2  0  0  0  0  0  0
  190.1750  176.5980  147.0600 C   0  0  0  0  0  2  0  0  0  0  0  0
  189.2270  178.3990  145.5380 C   0  0  0  0  0  2  0  0  0  0  0  0
  191.1810  177.0000  144.7960 C   0  0  0  0  0  0  0  0  0  0  0  0
  187.8370  178.0020  146.0350 C   0  0  0  0  0  2  0  0  0  0  0  0
  1  2  1  0  0  0  0
  2  4  1  0  0  0  0
  2  5  2  0  0  0  0
  3  8  1  6  0  0  0
  3  4  1  0  0  0  0
  4 27  1  1  0  0  0
  6  7  1  6  0  0  0
  6  1  1  0  0  0  0
  6  3  1  0  0  0  0
  8 11  1  0  0  0  0
  8  9  1  1  0  0  0
 11 10  1  6  0  0  0
 12 11  1  0  0  0  0
 14 13  1  6  0  0  0
 14 20  1  0  0  0  0
 14 12  1  0  0  0  0
 16 20  2  0  0  0  0
 17 15  1  0  0  0  0
 18 17  1  0  0  0  0
 19 17  2  0  0  0  0
 20 18  1  0  0  0  0
 22 15  1  6  0  0  0
 22 26  1  0  0  0  0
 23 22  1  0  0  0  0
 23 25  1  0  0  0  0
 25 24  1  6  0  0  0
 25 21  1  0  0  0  0
 26 21  1  0  0  0  0
 27 31  1  0  0  0  0
 27 36  1  0  0  0  0
 29 32  1  0  0  0  0
 30 28  1  0  0  0  0
 31 30  2  0  0  0  0
 32 34  1  0  0  0  0
 32 28  2  0  0  0  0
 33 29  2  0  0  0  0
 33 31  1  0  0  0  0
 34 35  1  0  0  0  0
 36 37  1  1  0  0  0
 36 38  1  0  0  0  0
 38 45  1  0  0  0  0
 40 42  1  0  0  0  0
 41 43  1  0  0  0  0
 43 42  1  0  0  0  0
 44 41  1  0  0  0  0
 44 46  1  0  0  0  0
 45 39  2  0  0  0  0
 45 41  1  0  0  0  0
 46 40  1  0  0  0  0
M  END
>  <MODEL>
4

>  <REMARK>
 VINA RESULT:      -7.1      3.307      9.930
  Name = 
  12 active torsions:
  status: ('A' for Active; 'I' for Inactive)
    1  A    between atoms: N_4  and  C_6
    2  A    between atoms: N_4  and  C_25
    3  A    between atoms: N_4  and  C_30
    4  A    between atoms: C_6  and  C_13
    5  A    between atoms: C_7  and  C_17
    6  A    between atoms: C_7  and  C_40
    7  A    between atoms: N_10  and  C_11
    8  A    between atoms: O_12  and  C_35
    9  A    between atoms: C_13  and  C_31
   10  A    between atoms: C_32  and  C_37
   11  A    between atoms: C_32  and  C_40
   12  A    between atoms: C_37  and  C_46
                            x       y       z     vdW  Elec       q    Type
                         _______ _______ _______ _____ _____    ______ ____

>  <TORSDO>
F 12

$$$$
=
 OpenBabel10232408033D

 46 49  0  0  1  0  0  0  0  0999 V2000
  191.1940  176.1900  139.3110 N   0  0  0  0  0  2  0  0  0  0  0  0
  191.0870  177.2890  140.1890 C   0  0  0  0  0  0  0  0  0  0  0  0
  189.0360  177.2330  139.0090 C   0  0  2  0  0  3  0  0  0  0  0  0
  189.7770  177.9760  140.1290 C   0  0  1  0  0  3  0  0  0  0  0  0
  192.0410  177.6630  140.9210 O   0  0  0  0  0  0  0  0  0  0  0  0
  189.9490  176.0500  138.5790 C   0  0  1  0  0  3  0  0  0  0  0  0
  190.2120  176.0390  137.2060 O   0  0  0  0  0  1  0  0  0  0  0  0
  188.6440  178.1760  137.8580 C   0  0  2  0  0  3  0  0  0  0  0  0
  189.0200  179.5000  138.1350 O   0  0  0  0  0  1  0  0  0  0  0  0
  186.7390  178.9800  136.3900 C   0  0  0  0  0  1  0  0  0  0  0  0
  187.1380  178.1020  137.5790 C   0  0  1  0  0  3  0  0  0  0  0  0
  186.7210  176.6570  137.3460 C   0  0  0  0  0  2  0  0  0  0  0  0
  185.6020  175.5130  135.5070 N   0  0  0  0  0  1  0  0  0  0  0  0
  185.4730  176.5780  136.4850 C   0  0  1  0  0  3  0  0  0  0  0  0
  181.3670  178.5220  138.5470 N   0  0  0  0  0  2  0  0  0  0  0  0
  184.0390  175.1970  137.8050 O   0  0  0  0  0  0  0  0  0  0  0  0
  182.2020  177.3750  138.4060 C   0  0  0  0  0  0  0  0  0  0  0  0
  183.3920  177.4430  137.6080 N   0  0  0  0  0  2  0  0  0  0  0  0
  181.8820  176.3080  138.9960 O   0  0  0  0  0  0  0  0  0  0  0  0
  184.2680  176.3460  137.3330 C   0  0  0  0  0  0  0  0  0  0  0  0
  181.1150  182.1460  137.9320 C   0  0  0  0  0  2  0  0  0  0  0  0
  181.6580  179.7910  137.8970 C   0  0  1  0  0  3  0  0  0  0  0  0
  180.6910  179.9600  136.3620 S   0  0  0  0  0  0  0  0  0  0  0  0
  180.7310  182.5640  135.5190 C   0  0  0  0  0  1  0  0  0  0  0  0
  180.3310  181.7140  136.7070 C   0  0  2  0  0  3  0  0  0  0  0  0
  181.2750  180.9300  138.8140 C   0  0  0  0  0  2  0  0  0  0  0  0
  189.0290  177.8700  141.3880 N   0  0  0  0  0  0  0  0  0  0  0  0
  191.0160  178.5630  144.5120 C   0  0  0  0  0  3  0  0  0  0  0  0
  190.7340  176.1730  144.2730 C   0  0  0  0  0  3  0  0  0  0  0  0
  190.2840  178.7630  143.3390 C   0  0  0  0  0  3  0  0  0  0  0  0
  189.7680  177.6720  142.6170 C   0  0  0  0  0  0  0  0  0  0  0  0
  191.2460  177.2650  144.9860 C   0  0  0  0  0  0  0  0  0  0  0  0
  190.0040  176.3710  143.0980 C   0  0  0  0  0  3  0  0  0  0  0  0
  191.9820  177.0270  146.1540 O   0  0  0  0  0  0  0  0  0  0  0  0
  191.9880  175.7600  146.8100 C   0  0  0  0  0  1  0  0  0  0  0  0
  187.5830  178.1510  141.3810 C   0  0  2  0  0  3  0  0  0  0  0  0
  187.2970  179.6040  141.7280 C   0  0  0  0  0  1  0  0  0  0  0  0
  186.8280  177.2250  142.3250 C   0  0  0  0  0  2  0  0  0  0  0  0
  184.9390  178.6250  142.6280 O   0  0  0  0  0  0  0  0  0  0  0  0
  186.6840  178.6620  147.3540 C   0  0  0  0  0  2  0  0  0  0  0  0
  186.0330  178.0360  144.6140 N   0  0  0  0  0  0  0  0  0  0  0  0
  185.2330  178.4950  146.9020 C   0  0  0  0  0  2  0  0  0  0  0  0
  185.0800  178.8140  145.4180 C   0  0  0  0  0  2  0  0  0  0  0  0
  187.0730  177.2440  145.2660 C   0  0  0  0  0  2  0  0  0  0  0  0
  185.8840  178.0020  143.1830 C   0  0  0  0  0  0  0  0  0  0  0  0
  187.7090  178.0390  146.4060 C   0  0  0  0  0  2  0  0  0  0  0  0
  1  2  1  0  0  0  0
  2  5  2  0  0  0  0
  3  8  1  6  0  0  0
  3  4  1  0  0  0  0
  4  2  1  0  0  0  0
  4 27  1  1  0  0  0
  6  7  1  6  0  0  0
  6  3  1  0  0  0  0
  6  1  1  0  0  0  0
  8  9  1  1  0  0  0
 11 10  1  6  0  0  0
 11  8  1  0  0  0  0
 12 11  1  0  0  0  0
 14 13  1  6  0  0  0
 14 20  1  0  0  0  0
 14 12  1  0  0  0  0
 17 15  1  0  0  0  0
 17 19  2  0  0  0  0
 18 17  1  0  0  0  0
 20 18  1  0  0  0  0
 20 16  2  0  0  0  0
 21 26  1  0  0  0  0
 22 15  1  1  0  0  0
 22 26  1  0  0  0  0
 23 25  1  0  0  0  0
 23 22  1  0  0  0  0
 25 24  1  6  0  0  0
 25 21  1  0  0  0  0
 27 31  1  0  0  0  0
 28 32  1  0  0  0  0
 29 32  2  0  0  0  0
 30 28  2  0  0  0  0
 31 33  2  0  0  0  0
 31 30  1  0  0  0  0
 32 34  1  0  0  0  0
 33 29  1  0  0  0  0
 34 35  1  0  0  0  0
 36 27  1  0  0  0  0
 36 37  1  1  0  0  0
 36 38  1  0  0  0  0
 38 45  1  0  0  0  0
 39 45  2  0  0  0  0
 41 44  1  0  0  0  0
 41 43  1  0  0  0  0
 42 40  1  0  0  0  0
 43 42  1  0  0  0  0
 44 46  1  0  0  0  0
 45 41  1  0  0  0  0
 46 40  1  0  0  0  0
M  END
>  <MODEL>
5

>  <REMARK>
 VINA RESULT:      -7.0      3.491      9.664
  Name = 
  12 active torsions:
  status: ('A' for Active; 'I' for Inactive)
    1  A    between atoms: N_4  and  C_6
    2  A    between atoms: N_4  and  C_25
    3  A    between atoms: N_4  and  C_30
    4  A    between atoms: C_6  and  C_13
    5  A    between atoms: C_7  and  C_17
    6  A    between atoms: C_7  and  C_40
    7  A    between atoms: N_10  and  C_11
    8  A    between atoms: O_12  and  C_35
    9  A    between atoms: C_13  and  C_31
   10  A    between atoms: C_32  and  C_37
   11  A    between atoms: C_32  and  C_40
   12  A    between atoms: C_37  and  C_46
                            x       y       z     vdW  Elec       q    Type
                         _______ _______ _______ _____ _____    ______ ____

>  <TORSDO>
F 12

$$$$
=
 OpenBabel10232408033D

 46 49  0  0  1  0  0  0  0  0999 V2000
  187.7260  178.7980  138.1880 N   0  0  0  0  0  2  0  0  0  0  0  0
  188.9800  178.5410  137.5950 C   0  0  0  0  0  0  0  0  0  0  0  0
  188.9550  177.2540  139.5820 C   0  0  2  0  0  3  0  0  0  0  0  0
  189.8030  177.5610  138.3400 C   0  0  1  0  0  3  0  0  0  0  0  0
  189.3660  179.1300  136.5520 O   0  0  0  0  0  0  0  0  0  0  0  0
  187.6040  178.0020  139.3960 C   0  0  1  0  0  3  0  0  0  0  0  0
  187.2910  178.8340  140.4740 O   0  0  0  0  0  1  0  0  0  0  0  0
  189.6960  177.6080  140.8830 C   0  0  2  0  0  3  0  0  0  0  0  0
  191.0740  177.3700  140.7630 O   0  0  0  0  0  1  0  0  0  0  0  0
  190.1700  175.8910  142.6870 C   0  0  0  0  0  1  0  0  0  0  0  0
  189.1240  176.8230  142.0680 C   0  0  1  0  0  3  0  0  0  0  0  0
  188.5730  177.7820  143.1130 C   0  0  0  0  0  2  0  0  0  0  0  0
  188.4590  176.9710  145.4090 N   0  0  0  0  0  1  0  0  0  0  0  0
  187.7420  177.0460  144.1490 C   0  0  1  0  0  3  0  0  0  0  0  0
  183.5160  178.6940  142.0720 N   0  0  0  0  0  2  0  0  0  0  0  0
  186.0910  178.1170  145.5040 O   0  0  0  0  0  0  0  0  0  0  0  0
  184.3050  178.5990  143.2550 C   0  0  0  0  0  0  0  0  0  0  0  0
  185.5850  177.9530  143.2190 N   0  0  0  0  0  2  0  0  0  0  0  0
  183.8630  179.0930  144.3270 O   0  0  0  0  0  0  0  0  0  0  0  0
  186.4330  177.7320  144.3510 C   0  0  0  0  0  0  0  0  0  0  0  0
  184.0340  178.6150  138.4240 C   0  0  0  0  0  2  0  0  0  0  0  0
  183.9480  178.1470  140.7940 C   0  0  1  0  0  3  0  0  0  0  0  0
  182.7090  176.9760  140.1510 S   0  0  0  0  0  0  0  0  0  0  0  0
  183.1890  176.4750  137.5020 C   0  0  0  0  0  1  0  0  0  0  0  0
  182.8920  177.6170  138.4520 C   0  0  2  0  0  3  0  0  0  0  0  0
  184.0960  179.2640  139.7870 C   0  0  0  0  0  2  0  0  0  0  0  0
  190.0410  176.3310  137.5730 N   0  0  0  0  0  0  0  0  0  0  0  0
  193.7530  175.7780  137.2590 C   0  0  0  0  0  3  0  0  0  0  0  0
  192.7860  175.8950  135.0460 C   0  0  0  0  0  3  0  0  0  0  0  0
  192.4870  175.9620  137.8190 C   0  0  0  0  0  3  0  0  0  0  0  0
  191.3530  176.1160  137.0010 C   0  0  0  0  0  0  0  0  0  0  0  0
  193.9110  175.7450  135.8680 C   0  0  0  0  0  0  0  0  0  0  0  0
  191.5180  176.0820  135.6040 C   0  0  0  0  0  3  0  0  0  0  0  0
  195.1660  175.5690  135.2720 O   0  0  0  0  0  0  0  0  0  0  0  0
  195.7130  176.5070  134.3460 C   0  0  0  0  0  1  0  0  0  0  0  0
  189.0050  175.2850  137.5690 C   0  0  2  0  0  3  0  0  0  0  0  0
  189.5910  173.9230  137.2300 C   0  0  0  0  0  1  0  0  0  0  0  0
  187.8690  175.6230  136.6120 C   0  0  0  0  0  2  0  0  0  0  0  0
  188.2670  174.4640  134.5830 O   0  0  0  0  0  0  0  0  0  0  0  0
  184.3700  171.7480  136.2620 C   0  0  0  0  0  2  0  0  0  0  0  0
  186.6820  173.4500  135.9790 N   0  0  0  0  0  0  0  0  0  0  0  0
  185.6690  171.2250  135.6480 C   0  0  0  0  0  2  0  0  0  0  0  0
  186.4730  172.3590  135.0180 C   0  0  0  0  0  2  0  0  0  0  0  0
  186.0000  173.4350  137.2710 C   0  0  0  0  0  2  0  0  0  0  0  0
  187.6230  174.4940  135.6660 C   0  0  0  0  0  0  0  0  0  0  0  0
  184.5400  173.0180  137.0960 C   0  0  0  0  0  2  0  0  0  0  0  0
  1  6  1  0  0  0  0
  2  1  1  0  0  0  0
  2  4  1  0  0  0  0
  3  8  1  1  0  0  0
  4 27  1  6  0  0  0
  4  3  1  0  0  0  0
  5  2  2  0  0  0  0
  6  3  1  0  0  0  0
  6  7  1  1  0  0  0
  8  9  1  6  0  0  0
  8 11  1  0  0  0  0
 11 10  1  1  0  0  0
 11 12  1  0  0  0  0
 12 14  1  0  0  0  0
 14 20  1  0  0  0  0
 14 13  1  1  0  0  0
 15 17  1  0  0  0  0
 17 19  2  0  0  0  0
 18 17  1  0  0  0  0
 18 20  1  0  0  0  0
 20 16  2  0  0  0  0
 21 25  1  0  0  0  0
 21 26  1  0  0  0  0
 22 15  1  1  0  0  0
 23 22  1  0  0  0  0
 25 24  1  6  0  0  0
 25 23  1  0  0  0  0
 26 22  1  0  0  0  0
 28 30  1  0  0  0  0
 29 33  2  0  0  0  0
 29 32  1  0  0  0  0
 31 27  1  0  0  0  0
 31 30  2  0  0  0  0
 32 28  2  0  0  0  0
 33 31  1  0  0  0  0
 34 32  1  0  0  0  0
 35 34  1  0  0  0  0
 36 37  1  6  0  0  0
 36 27  1  0  0  0  0
 38 36  1  0  0  0  0
 39 45  2  0  0  0  0
 40 46  1  0  0  0  0
 41 44  1  0  0  0  0
 42 40  1  0  0  0  0
 43 42  1  0  0  0  0
 43 41  1  0  0  0  0
 45 41  1  0  0  0  0
 45 38  1  0  0  0  0
 46 44  1  0  0  0  0
M  END
>  <MODEL>
6

>  <REMARK>
 VINA RESULT:      -7.0      3.122      6.067
  Name = 
  12 active torsions:
  status: ('A' for Active; 'I' for Inactive)
    1  A    between atoms: N_4  and  C_6
    2  A    between atoms: N_4  and  C_25
    3  A    between atoms: N_4  and  C_30
    4  A    between atoms: C_6  and  C_13
    5  A    between atoms: C_7  and  C_17
    6  A    between atoms: C_7  and  C_40
    7  A    between atoms: N_10  and  C_11
    8  A    between atoms: O_12  and  C_35
    9  A    between atoms: C_13  and  C_31
   10  A    between atoms: C_32  and  C_37
   11  A    between atoms: C_32  and  C_40
   12  A    between atoms: C_37  and  C_46
                            x       y       z     vdW  Elec       q    Type
                         _______ _______ _______ _____ _____    ______ ____

>  <TORSDO>
F 12

$$$$
=
 OpenBabel10232408033D

 46 49  0  0  1  0  0  0  0  0999 V2000
  186.1140  177.8460  136.2520 N   0  0  0  0  0  2  0  0  0  0  0  0
  187.2940  177.3960  135.6230 C   0  0  0  0  0  0  0  0  0  0  0  0
  187.6770  177.1110  137.9420 C   0  0  2  0  0  3  0  0  0  0  0  0
  188.3090  176.8700  136.5640 C   0  0  1  0  0  3  0  0  0  0  0  0
  187.4690  177.4800  134.3800 O   0  0  0  0  0  0  0  0  0  0  0  0
  186.2440  177.6570  137.6850 C   0  0  1  0  0  3  0  0  0  0  0  0
  185.9990  178.8670  138.3410 O   0  0  0  0  0  1  0  0  0  0  0  0
  188.5510  178.0240  138.8200 C   0  0  2  0  0  3  0  0  0  0  0  0
  189.6740  178.4840  138.1150 O   0  0  0  0  0  1  0  0  0  0  0  0
  190.4970  177.0330  140.1090 C   0  0  0  0  0  1  0  0  0  0  0  0
  188.9880  177.2980  140.0970 C   0  0  1  0  0  3  0  0  0  0  0  0
  188.5720  178.0980  141.3220 C   0  0  0  0  0  2  0  0  0  0  0  0
  189.1910  177.0800  143.4490 N   0  0  0  0  0  1  0  0  0  0  0  0
  188.1390  177.1840  142.4540 C   0  0  1  0  0  3  0  0  0  0  0  0
  183.4600  178.7820  141.7920 N   0  0  0  0  0  2  0  0  0  0  0  0
  186.8250  177.8270  144.3430 O   0  0  0  0  0  0  0  0  0  0  0  0
  184.5190  178.5450  142.7150 C   0  0  0  0  0  0  0  0  0  0  0  0
  185.7790  178.0390  142.2530 N   0  0  0  0  0  2  0  0  0  0  0  0
  184.3330  178.7900  143.9370 O   0  0  0  0  0  0  0  0  0  0  0  0
  186.8890  177.6950  143.0880 C   0  0  0  0  0  0  0  0  0  0  0  0
  182.5470  178.9450  138.2250 C   0  0  0  0  0  2  0  0  0  0  0  0
  183.5880  178.5220  140.3650 C   0  0  1  0  0  3  0  0  0  0  0  0
  182.9260  176.8740  139.9550 S   0  0  0  0  0  0  0  0  0  0  0  0
  182.5590  176.6660  137.2500 C   0  0  0  0  0  1  0  0  0  0  0  0
  182.1300  177.5020  138.4380 C   0  0  2  0  0  3  0  0  0  0  0  0
  182.7940  179.5470  139.5890 C   0  0  0  0  0  2  0  0  0  0  0  0
  188.5650  175.4370  136.3680 N   0  0  0  0  0  0  0  0  0  0  0  0
  185.6100  173.2600  137.2180 C   0  0  0  0  0  3  0  0  0  0  0  0
  185.9960  173.1660  134.8330 C   0  0  0  0  0  3  0  0  0  0  0  0
  186.6870  174.1400  137.3540 C   0  0  0  0  0  3  0  0  0  0  0  0
  187.4330  174.5440  136.2330 C   0  0  0  0  0  0  0  0  0  0  0  0
  185.2590  172.7670  135.9560 C   0  0  0  0  0  0  0  0  0  0  0  0
  187.0750  174.0440  134.9680 C   0  0  0  0  0  3  0  0  0  0  0  0
  184.1900  171.8780  135.7830 O   0  0  0  0  0  0  0  0  0  0  0  0
  184.3830  170.4910  135.5100 C   0  0  0  0  0  1  0  0  0  0  0  0
  189.9480  174.9880  136.1340 C   0  0  2  0  0  3  0  0  0  0  0  0
  190.2720  173.7410  136.9430 C   0  0  0  0  0  1  0  0  0  0  0  0
  190.9540  176.0900  136.4380 C   0  0  0  0  0  2  0  0  0  0  0  0
  192.1200  176.1090  134.3730 O   0  0  0  0  0  0  0  0  0  0  0  0
  195.7550  174.1880  137.2850 C   0  0  0  0  0  2  0  0  0  0  0  0
  193.4420  175.5480  136.2240 N   0  0  0  0  0  0  0  0  0  0  0  0
  195.8950  175.2820  136.2270 C   0  0  0  0  0  2  0  0  0  0  0  0
  194.6320  175.3890  135.3770 C   0  0  0  0  0  2  0  0  0  0  0  0
  193.5460  175.4100  137.6750 C   0  0  0  0  0  2  0  0  0  0  0  0
  192.1900  175.9160  135.6170 C   0  0  0  0  0  0  0  0  0  0  0  0
  194.4210  174.2090  138.0320 C   0  0  0  0  0  2  0  0  0  0  0  0
  1  6  1  0  0  0  0
  2  1  1  0  0  0  0
  2  4  1  0  0  0  0
  3  8  1  6  0  0  0
  4 27  1  6  0  0  0
  4  3  1  0  0  0  0
  5  2  2  0  0  0  0
  6  3  1  0  0  0  0
  6  7  1  1  0  0  0
  8  9  1  6  0  0  0
  8 11  1  0  0  0  0
 11 10  1  6  0  0  0
 11 12  1  0  0  0  0
 12 14  1  0  0  0  0
 14 20  1  0  0  0  0
 14 13  1  1  0  0  0
 15 17  1  0  0  0  0
 17 19  2  0  0  0  0
 18 17  1  0  0  0  0
 18 20  1  0  0  0  0
 20 16  2  0  0  0  0
 21 25  1  0  0  0  0
 21 26  1  0  0  0  0
 22 15  1  1  0  0  0
 23 22  1  0  0  0  0
 25 24  1  6  0  0  0
 25 23  1  0  0  0  0
 26 22  1  0  0  0  0
 28 30  1  0  0  0  0
 29 33  2  0  0  0  0
 29 32  1  0  0  0  0
 31 27  1  0  0  0  0
 31 30  2  0  0  0  0
 32 28  2  0  0  0  0
 33 31  1  0  0  0  0
 34 32  1  0  0  0  0
 35 34  1  0  0  0  0
 36 27  1  0  0  0  0
 36 38  1  0  0  0  0
 36 37  1  1  0  0  0
 39 45  2  0  0  0  0
 40 46  1  0  0  0  0
 41 44  1  0  0  0  0
 42 40  1  0  0  0  0
 43 41  1  0  0  0  0
 43 42  1  0  0  0  0
 44 46  1  0  0  0  0
 45 41  1  0  0  0  0
 45 38  1  0  0  0  0
M  END
>  <MODEL>
7

>  <REMARK>
 VINA RESULT:      -6.8      3.418      7.553
  Name = 
  12 active torsions:
  status: ('A' for Active; 'I' for Inactive)
    1  A    between atoms: N_4  and  C_6
    2  A    between atoms: N_4  and  C_25
    3  A    between atoms: N_4  and  C_30
    4  A    between atoms: C_6  and  C_13
    5  A    between atoms: C_7  and  C_17
    6  A    between atoms: C_7  and  C_40
    7  A    between atoms: N_10  and  C_11
    8  A    between atoms: O_12  and  C_35
    9  A    between atoms: C_13  and  C_31
   10  A    between atoms: C_32  and  C_37
   11  A    between atoms: C_32  and  C_40
   12  A    between atoms: C_37  and  C_46
                            x       y       z     vdW  Elec       q    Type
                         _______ _______ _______ _____ _____    ______ ____

>  <TORSDO>
F 12

$$$$
=
 OpenBabel10232408033D

 46 49  0  0  1  0  0  0  0  0999 V2000
  186.1860  177.9980  136.4050 N   0  0  0  0  0  2  0  0  0  0  0  0
  187.3640  177.7260  135.6760 C   0  0  0  0  0  0  0  0  0  0  0  0
  187.8280  177.0330  137.8920 C   0  0  2  0  0  3  0  0  0  0  0  0
  188.4270  177.0800  136.4790 C   0  0  1  0  0  3  0  0  0  0  0  0
  187.4960  178.0470  134.4670 O   0  0  0  0  0  0  0  0  0  0  0  0
  186.3670  177.5520  137.7740 C   0  0  1  0  0  3  0  0  0  0  0  0
  186.0940  178.6080  138.6490 O   0  0  0  0  0  1  0  0  0  0  0  0
  188.6910  177.8060  138.9050 C   0  0  2  0  0  3  0  0  0  0  0  0
  189.2740  178.9390  138.3160 O   0  0  0  0  0  1  0  0  0  0  0  0
  191.1710  177.5170  139.3500 C   0  0  0  0  0  1  0  0  0  0  0  0
  189.7760  176.9020  139.5000 C   0  0  1  0  0  3  0  0  0  0  0  0
  189.4710  176.6120  140.9620 C   0  0  0  0  0  2  0  0  0  0  0  0
  189.0770  178.5600  142.3730 N   0  0  0  0  0  1  0  0  0  0  0  0
  190.0960  177.6560  141.8710 C   0  0  1  0  0  3  0  0  0  0  0  0
  190.4710  177.1380  146.8180 N   0  0  0  0  0  2  0  0  0  0  0  0
  191.7320  176.1770  142.7890 O   0  0  0  0  0  0  0  0  0  0  0  0
  190.9960  176.7890  145.5400 C   0  0  0  0  0  0  0  0  0  0  0  0
  190.4110  177.3310  144.3480 N   0  0  0  0  0  2  0  0  0  0  0  0
  191.9790  176.0040  145.4750 O   0  0  0  0  0  0  0  0  0  0  0  0
  190.8000  177.0010  143.0110 C   0  0  0  0  0  0  0  0  0  0  0  0
  187.3990  178.4590  148.3670 C   0  0  0  0  0  2  0  0  0  0  0  0
  189.3350  178.0330  146.9840 C   0  0  1  0  0  3  0  0  0  0  0  0
  187.9800  177.5590  145.8620 S   0  0  0  0  0  0  0  0  0  0  0  0
  185.6600  178.7910  146.6330 C   0  0  0  0  0  1  0  0  0  0  0  0
  186.7250  177.8480  147.1540 C   0  0  2  0  0  3  0  0  0  0  0  0
  188.8180  177.9410  148.4010 C   0  0  0  0  0  2  0  0  0  0  0  0
  188.7330  175.7210  136.0140 N   0  0  0  0  0  0  0  0  0  0  0  0
  186.6190  172.8780  137.2900 C   0  0  0  0  0  3  0  0  0  0  0  0
  185.8000  173.5530  135.1170 C   0  0  0  0  0  3  0  0  0  0  0  0
  187.6030  173.8660  137.2230 C   0  0  0  0  0  3  0  0  0  0  0  0
  187.7010  174.7110  136.1020 C   0  0  0  0  0  0  0  0  0  0  0  0
  185.7110  172.7140  136.2370 C   0  0  0  0  0  0  0  0  0  0  0  0
  186.7860  174.5400  135.0470 C   0  0  0  0  0  3  0  0  0  0  0  0
  184.7150  171.7290  136.2670 O   0  0  0  0  0  0  0  0  0  0  0  0
  183.3510  172.0090  135.9580 C   0  0  0  0  0  1  0  0  0  0  0  0
  190.0050  175.4820  135.3110 C   0  0  2  0  0  3  0  0  0  0  0  0
  190.2020  174.0050  135.0050 C   0  0  0  0  0  1  0  0  0  0  0  0
  191.1920  176.0200  136.0990 C   0  0  0  0  0  2  0  0  0  0  0  0
  191.2650  174.2970  137.7250 O   0  0  0  0  0  0  0  0  0  0  0  0
  196.1050  174.2350  136.3310 C   0  0  0  0  0  2  0  0  0  0  0  0
  193.2420  174.5460  136.4940 N   0  0  0  0  0  0  0  0  0  0  0  0
  195.1890  173.0320  136.5530 C   0  0  0  0  0  2  0  0  0  0  0  0
  193.8880  173.4520  137.2310 C   0  0  0  0  0  2  0  0  0  0  0  0
  193.9370  175.2010  135.3880 C   0  0  0  0  0  2  0  0  0  0  0  0
  191.8900  174.9150  136.8220 C   0  0  0  0  0  0  0  0  0  0  0  0
  195.3960  175.4640  135.7600 C   0  0  0  0  0  2  0  0  0  0  0  0
  1  6  1  0  0  0  0
  2  1  1  0  0  0  0
  2  4  1  0  0  0  0
  3  8  1  1  0  0  0
  4 27  1  6  0  0  0
  4  3  1  0  0  0  0
  5  2  2  0  0  0  0
  6  3  1  0  0  0  0
  6  7  1  1  0  0  0
  8  9  1  6  0  0  0
  8 11  1  0  0  0  0
 11 10  1  1  0  0  0
 11 12  1  0  0  0  0
 12 14  1  0  0  0  0
 14 13  1  1  0  0  0
 14 20  1  0  0  0  0
 16 20  2  0  0  0  0
 17 15  1  0  0  0  0
 18 17  1  0  0  0  0
 19 17  2  0  0  0  0
 20 18  1  0  0  0  0
 21 26  1  0  0  0  0
 22 15  1  1  0  0  0
 22 26  1  0  0  0  0
 23 22  1  0  0  0  0
 23 25  1  0  0  0  0
 25 24  1  6  0  0  0
 25 21  1  0  0  0  0
 27 31  1  0  0  0  0
 29 32  1  0  0  0  0
 30 28  1  0  0  0  0
 31 30  2  0  0  0  0
 32 34  1  0  0  0  0
 32 28  2  0  0  0  0
 33 29  2  0  0  0  0
 33 31  1  0  0  0  0
 35 34  1  0  0  0  0
 36 37  1  1  0  0  0
 36 27  1  0  0  0  0
 36 38  1  0  0  0  0
 38 45  1  0  0  0  0
 40 42  1  0  0  0  0
 41 45  1  0  0  0  0
 41 43  1  0  0  0  0
 42 43  1  0  0  0  0
 44 46  1  0  0  0  0
 44 41  1  0  0  0  0
 45 39  2  0  0  0  0
 46 40  1  0  0  0  0
M  END
>  <MODEL>
8

>  <REMARK>
 VINA RESULT:      -6.6      3.693      7.266
  Name = 
  12 active torsions:
  status: ('A' for Active; 'I' for Inactive)
    1  A    between atoms: N_4  and  C_6
    2  A    between atoms: N_4  and  C_25
    3  A    between atoms: N_4  and  C_30
    4  A    between atoms: C_6  and  C_13
    5  A    between atoms: C_7  and  C_17
    6  A    between atoms: C_7  and  C_40
    7  A    between atoms: N_10  and  C_11
    8  A    between atoms: O_12  and  C_35
    9  A    between atoms: C_13  and  C_31
   10  A    between atoms: C_32  and  C_37
   11  A    between atoms: C_32  and  C_40
   12  A    between atoms: C_37  and  C_46
                            x       y       z     vdW  Elec       q    Type
                         _______ _______ _______ _____ _____    ______ ____

>  <TORSDO>
F 12

$$$$
=
 OpenBabel10232408033D

 46 49  0  0  1  0  0  0  0  0999 V2000
  187.6450  178.8950  137.7230 N   0  0  0  0  0  2  0  0  0  0  0  0
  187.0960  177.9920  138.6580 C   0  0  0  0  0  0  0  0  0  0  0  0
  189.4290  177.9590  139.0560 C   0  0  2  0  0  3  0  0  0  0  0  0
  188.0970  177.3940  139.5700 C   0  0  1  0  0  3  0  0  0  0  0  0
  185.8710  177.7020  138.6760 O   0  0  0  0  0  0  0  0  0  0  0  0
  189.0790  178.9750  137.9330 C   0  0  1  0  0  3  0  0  0  0  0  0
  189.7430  178.7080  136.7330 O   0  0  0  0  0  1  0  0  0  0  0  0
  190.3920  176.8420  138.6170 C   0  0  2  0  0  3  0  0  0  0  0  0
  190.0980  175.6320  139.2660 O   0  0  0  0  0  1  0  0  0  0  0  0
  192.1170  177.4570  140.3700 C   0  0  0  0  0  1  0  0  0  0  0  0
  191.8480  177.2420  138.8780 C   0  0  1  0  0  3  0  0  0  0  0  0
  192.7890  176.1910  138.3080 C   0  0  0  0  0  2  0  0  0  0  0  0
  194.1700  176.8390  136.4060 N   0  0  0  0  0  1  0  0  0  0  0  0
  192.8800  176.2990  136.7950 C   0  0  1  0  0  3  0  0  0  0  0  0
  189.7060  172.5850  135.7830 N   0  0  0  0  0  2  0  0  0  0  0  0
  193.6360  174.3900  135.5740 O   0  0  0  0  0  0  0  0  0  0  0  0
  191.0460  173.0650  135.6980 C   0  0  0  0  0  0  0  0  0  0  0  0
  191.3900  174.3440  136.2500 N   0  0  0  0  0  2  0  0  0  0  0  0
  191.9180  172.3500  135.1380 O   0  0  0  0  0  0  0  0  0  0  0  0
  192.6780  174.9630  136.1640 C   0  0  0  0  0  0  0  0  0  0  0  0
  186.3620  173.1830  137.2110 C   0  0  0  0  0  2  0  0  0  0  0  0
  188.6360  173.3490  136.4080 C   0  0  1  0  0  3  0  0  0  0  0  0
  187.7420  174.3320  135.1610 S   0  0  0  0  0  0  0  0  0  0  0  0
  185.3690  175.2180  136.2030 C   0  0  0  0  0  1  0  0  0  0  0  0
  186.1280  173.9390  135.9170 C   0  0  2  0  0  3  0  0  0  0  0  0
  187.6460  172.4040  137.0500 C   0  0  0  0  0  2  0  0  0  0  0  0
  187.8870  177.7870  140.9700 N   0  0  0  0  0  0  0  0  0  0  0  0
  190.1760  175.8500  143.2490 C   0  0  0  0  0  3  0  0  0  0  0  0
  190.6240  178.2130  143.5070 C   0  0  0  0  0  3  0  0  0  0  0  0
  189.1970  176.1430  142.2970 C   0  0  0  0  0  3  0  0  0  0  0  0
  188.9170  177.4740  141.9370 C   0  0  0  0  0  0  0  0  0  0  0  0
  190.8950  176.8840  143.8610 C   0  0  0  0  0  0  0  0  0  0  0  0
  189.6430  178.5070  142.5570 C   0  0  0  0  0  3  0  0  0  0  0  0
  191.8790  176.6270  144.8250 O   0  0  0  0  0  0  0  0  0  0  0  0
  191.5810  176.5240  146.2160 C   0  0  0  0  0  1  0  0  0  0  0  0
  186.7340  178.6400  141.3020 C   0  0  2  0  0  3  0  0  0  0  0  0
  187.1660  179.8910  142.0530 C   0  0  0  0  0  1  0  0  0  0  0  0
  185.6860  177.8800  142.1040 C   0  0  0  0  0  2  0  0  0  0  0  0
  184.4340  179.6050  143.1420 O   0  0  0  0  0  0  0  0  0  0  0  0
  187.2520  178.2270  147.0850 C   0  0  0  0  0  2  0  0  0  0  0  0
  185.7730  178.3650  144.6110 N   0  0  0  0  0  0  0  0  0  0  0  0
  185.7510  178.5170  147.0740 C   0  0  0  0  0  2  0  0  0  0  0  0
  185.3270  179.1670  145.7590 C   0  0  0  0  0  2  0  0  0  0  0  0
  186.6640  177.2250  144.8100 C   0  0  0  0  0  2  0  0  0  0  0  0
  185.2630  178.6680  143.3000 C   0  0  0  0  0  0  0  0  0  0  0  0
  187.7730  177.5840  145.7990 C   0  0  0  0  0  2  0  0  0  0  0  0
  1  6  1  0  0  0  0
  1  2  1  0  0  0  0
  2  5  2  0  0  0  0
  2  4  1  0  0  0  0
  3  8  1  6  0  0  0
  3  4  1  0  0  0  0
  4 27  1  1  0  0  0
  6  7  1  6  0  0  0
  6  3  1  0  0  0  0
  8 11  1  0  0  0  0
  8  9  1  1  0  0  0
 11 10  1  1  0  0  0
 12 11  1  0  0  0  0
 14 13  1  1  0  0  0
 14 12  1  0  0  0  0
 16 20  2  0  0  0  0
 17 15  1  0  0  0  0
 17 18  1  0  0  0  0
 19 17  2  0  0  0  0
 20 18  1  0  0  0  0
 20 14  1  0  0  0  0
 22 15  1  6  0  0  0
 22 26  1  0  0  0  0
 23 25  1  0  0  0  0
 23 22  1  0  0  0  0
 25 24  1  1  0  0  0
 25 21  1  0  0  0  0
 26 21  1  0  0  0  0
 27 36  1  0  0  0  0
 27 31  1  0  0  0  0
 28 32  1  0  0  0  0
 29 32  2  0  0  0  0
 30 28  2  0  0  0  0
 31 30  1  0  0  0  0
 31 33  2  0  0  0  0
 32 34  1  0  0  0  0
 33 29  1  0  0  0  0
 34 35  1  0  0  0  0
 36 37  1  1  0  0  0
 36 38  1  0  0  0  0
 38 45  1  0  0  0  0
 39 45  2  0  0  0  0
 41 44  1  0  0  0  0
 41 43  1  0  0  0  0
 42 40  1  0  0  0  0
 43 42  1  0  0  0  0
 44 46  1  0  0  0  0
 45 41  1  0  0  0  0
 46 40  1  0  0  0  0
M  END
>  <MODEL>
9

>  <REMARK>
 VINA RESULT:      -6.6      3.920      9.728
  Name = 
  12 active torsions:
  status: ('A' for Active; 'I' for Inactive)
    1  A    between atoms: N_4  and  C_6
    2  A    between atoms: N_4  and  C_25
    3  A    between atoms: N_4  and  C_30
    4  A    between atoms: C_6  and  C_13
    5  A    between atoms: C_7  and  C_17
    6  A    between atoms: C_7  and  C_40
    7  A    between atoms: N_10  and  C_11
    8  A    between atoms: O_12  and  C_35
    9  A    between atoms: C_13  and  C_31
   10  A    between atoms: C_32  and  C_37
   11  A    between atoms: C_32  and  C_40
   12  A    between atoms: C_37  and  C_46
                            x       y       z     vdW  Elec       q    Type
                         _______ _______ _______ _____ _____    ______ ____

>  <TORSDO>
F 12

$$$$
