=
 OpenBabel10232412313D

 29 30  0  0  1  0  0  0  0  0999 V2000
  186.4240  178.1610  145.4670 C   0  0  1  0  0  3  0  0  0  0  0  0
  186.1510  178.7440  141.0150 C   0  0  0  0  0  3  0  0  0  0  0  0
  184.3310  179.5860  145.2010 N   0  0  0  0  0  0  0  0  0  0  0  0
  187.9190  177.3680  142.0790 C   0  0  0  0  0  0  0  0  0  0  0  0
  186.2230  176.9250  146.0840 O   0  0  0  0  0  1  0  0  0  0  0  0
  187.4380  177.2400  143.3310 C   0  0  0  0  0  3  0  0  0  0  0  0
  185.0690  178.1330  141.8360 C   0  0  0  0  0  2  0  0  0  0  0  0
  185.5540  179.5860  147.1780 O   0  0  0  0  0  0  0  0  0  0  0  0
  187.4360  178.3810  141.1080 C   0  0  0  0  0  0  0  0  0  0  0  0
  184.2330  179.2600  143.9480 C   0  0  0  0  0  3  0  0  0  0  0  0
  185.2670  178.4500  143.2800 C   0  0  0  0  0  0  0  0  0  0  0  0
  186.3380  178.0000  143.9670 C   0  0  0  0  0  0  0  0  0  0  0  0
  185.4330  179.1540  146.0020 C   0  0  0  0  0  0  0  0  0  0  0  0
  188.7190  178.5780  138.9080 C   0  0  0  0  0  0  0  0  0  0  0  0
  188.4110  178.9880  140.2480 N   0  0  0  0  0  2  0  0  0  0  0  0
  188.9450  179.4570  138.0380 O   0  0  0  0  0  0  0  0  0  0  0  0
  187.8530  176.5790  137.7420 C   0  0  0  0  0  1  0  0  0  0  0  0
  188.8200  177.2300  138.5520 O   0  0  0  0  0  0  0  0  0  0  0  0
  188.9690  176.5430  141.6540 O   0  0  0  0  0  0  0  0  0  0  0  0
  190.3160  176.7050  142.0810 C   0  0  0  0  0  2  0  0  0  0  0  0
  190.4170  177.9310  142.9730 C   0  0  0  0  0  2  0  0  0  0  0  0
  191.9610  179.2120  144.2900 O   0  0  0  0  0  1  0  0  0  0  0  0
  191.6830  177.9230  143.8260 C   0  0  1  0  0  3  0  0  0  0  0  0
  191.5700  176.9510  144.9940 C   0  0  0  0  0  2  0  0  0  0  0  0
  190.2980  176.9100  147.0500 N   0  0  0  0  0  0  0  0  0  0  0  0
  190.3470  177.2360  145.7970 C   0  0  0  0  0  3  0  0  0  0  0  0
  189.1480  177.1720  147.8590 C   0  0  0  0  0  0  0  0  0  0  0  0
  188.9070  178.5510  148.3610 C   0  0  0  0  0  1  0  0  0  0  0  0
  188.3340  176.2520  148.1460 O   0  0  0  0  0  0  0  0  0  0  0  0
  1 13  1  0  0  0  0
  1  5  1  1  0  0  0
  2  9  2  0  0  0  0
  2  7  1  0  0  0  0
  3 13  1  0  0  0  0
  4  6  2  0  0  0  0
  6 12  1  0  0  0  0
  7 11  1  0  0  0  0
  9  4  1  0  0  0  0
 10  3  2  0  0  0  0
 11 10  1  0  0  0  0
 11 12  2  0  0  0  0
 12  1  1  0  0  0  0
 13  8  2  0  0  0  0
 14 15  1  0  0  0  0
 15  9  1  0  0  0  0
 16 14  2  0  0  0  0
 17 18  1  0  0  0  0
 18 14  1  0  0  0  0
 19  4  1  0  0  0  0
 19 20  1  0  0  0  0
 20 21  1  0  0  0  0
 21 23  1  0  0  0  0
 23 22  1  1  0  0  0
 23 24  1  0  0  0  0
 24 26  1  0  0  0  0
 25 27  1  0  0  0  0
 26 25  2  0  0  0  0
 27 29  2  0  0  0  0
 27 28  1  0  0  0  0
M  END
>  <MODEL>
1

>  <REMARK>
 VINA RESULT:      -7.8      0.000      0.000
  Name = 
  9 active torsions:
  status: ('A' for Active; 'I' for Inactive)
    1  A    between atoms: N_3  and  C_4
    2  A    between atoms: C_6  and  O_16
    3  A    between atoms: C_7  and  O_21
    4  A    between atoms: N_11  and  C_15
    5  A    between atoms: O_16  and  C_26
    6  A    between atoms: C_18  and  C_19
    7  A    between atoms: C_18  and  C_22
    8  A    between atoms: C_19  and  C_29
    9  A    between atoms: C_26  and  C_29
                            x       y       z     vdW  Elec       q    Type
                         _______ _______ _______ _____ _____    ______ ____

>  <TORSDO>
F 9

$$$$
=
 OpenBabel10232412313D

 29 30  0  0  1  0  0  0  0  0999 V2000
  188.3220  178.5980  140.5280 C   0  0  1  0  0  3  0  0  0  0  0  0
  190.6090  176.3360  143.6730 C   0  0  0  0  0  3  0  0  0  0  0  0
  190.1790  177.4770  139.1950 N   0  0  0  0  0  0  0  0  0  0  0  0
  188.5640  177.6450  144.1850 C   0  0  0  0  0  0  0  0  0  0  0  0
  187.0260  178.2550  140.1390 O   0  0  0  0  0  1  0  0  0  0  0  0
  188.0820  177.8770  142.9490 C   0  0  0  0  0  3  0  0  0  0  0  0
  189.9960  175.6960  142.4760 C   0  0  0  0  0  2  0  0  0  0  0  0
  189.1430  179.4160  138.4370 O   0  0  0  0  0  0  0  0  0  0  0  0
  189.9530  177.1990  144.4600 C   0  0  0  0  0  0  0  0  0  0  0  0
  190.3890  176.6230  140.1490 C   0  0  0  0  0  3  0  0  0  0  0  0
  189.6820  176.7200  141.4390 C   0  0  0  0  0  0  0  0  0  0  0  0
  188.7710  177.6930  141.6520 C   0  0  0  0  0  0  0  0  0  0  0  0
  189.2340  178.5400  139.3360 C   0  0  0  0  0  0  0  0  0  0  0  0
  190.6100  177.1460  146.9270 C   0  0  0  0  0  0  0  0  0  0  0  0
  190.6010  177.7380  145.6200 N   0  0  0  0  0  2  0  0  0  0  0  0
  191.6650  177.1920  147.6110 O   0  0  0  0  0  0  0  0  0  0  0  0
  188.5660  177.2750  148.3090 C   0  0  0  0  0  1  0  0  0  0  0  0
  189.4690  176.5590  147.4810 O   0  0  0  0  0  0  0  0  0  0  0  0
  187.7470  177.8730  145.3010 O   0  0  0  0  0  0  0  0  0  0  0  0
  186.3900  177.4550  145.3780 C   0  0  0  0  0  2  0  0  0  0  0  0
  185.4980  178.6710  145.5580 C   0  0  0  0  0  2  0  0  0  0  0  0
  183.1940  179.2600  145.2370 O   0  0  0  0  0  1  0  0  0  0  0  0
  184.2910  178.6470  144.6240 C   0  0  1  0  0  3  0  0  0  0  0  0
  184.5960  179.3160  143.2900 C   0  0  0  0  0  2  0  0  0  0  0  0
  183.6870  178.7660  141.1180 N   0  0  0  0  0  0  0  0  0  0  0  0
  184.3470  178.3740  142.1610 C   0  0  0  0  0  3  0  0  0  0  0  0
  183.4330  177.8980  140.0100 C   0  0  0  0  0  0  0  0  0  0  0  0
  183.7900  178.3430  138.6370 C   0  0  0  0  0  1  0  0  0  0  0  0
  182.9160  176.7600  140.1820 O   0  0  0  0  0  0  0  0  0  0  0  0
  1  5  1  6  0  0  0
  1 12  1  0  0  0  0
  2  9  2  0  0  0  0
  3 13  1  0  0  0  0
  3 10  2  0  0  0  0
  4  9  1  0  0  0  0
  4 19  1  0  0  0  0
  6  4  2  0  0  0  0
  7  2  1  0  0  0  0
  8 13  2  0  0  0  0
  9 15  1  0  0  0  0
 10 11  1  0  0  0  0
 11 12  2  0  0  0  0
 11  7  1  0  0  0  0
 12  6  1  0  0  0  0
 13  1  1  0  0  0  0
 14 18  1  0  0  0  0
 14 16  2  0  0  0  0
 15 14  1  0  0  0  0
 18 17  1  0  0  0  0
 19 20  1  0  0  0  0
 20 21  1  0  0  0  0
 23 22  1  1  0  0  0
 23 21  1  0  0  0  0
 24 23  1  0  0  0  0
 25 26  2  0  0  0  0
 26 24  1  0  0  0  0
 27 29  2  0  0  0  0
 27 25  1  0  0  0  0
 28 27  1  0  0  0  0
M  END
>  <MODEL>
2

>  <REMARK>
 VINA RESULT:      -7.5      2.181      7.390
  Name = 
  9 active torsions:
  status: ('A' for Active; 'I' for Inactive)
    1  A    between atoms: N_3  and  C_4
    2  A    between atoms: C_6  and  O_16
    3  A    between atoms: C_7  and  O_21
    4  A    between atoms: N_11  and  C_15
    5  A    between atoms: O_16  and  C_26
    6  A    between atoms: C_18  and  C_19
    7  A    between atoms: C_18  and  C_22
    8  A    between atoms: C_19  and  C_29
    9  A    between atoms: C_26  and  C_29
                            x       y       z     vdW  Elec       q    Type
                         _______ _______ _______ _____ _____    ______ ____

>  <TORSDO>
F 9

$$$$
=
 OpenBabel10232412313D

 29 30  0  0  1  0  0  0  0  0999 V2000
  183.8220  178.0220  141.4060 C   0  0  1  0  0  3  0  0  0  0  0  0
  185.5100  178.7920  145.5050 C   0  0  0  0  0  3  0  0  0  0  0  0
  181.8510  179.0350  142.6590 N   0  0  0  0  0  0  0  0  0  0  0  0
  186.8710  177.8660  143.6490 C   0  0  0  0  0  0  0  0  0  0  0  0
  184.2290  178.7280  140.2740 O   0  0  0  0  0  1  0  0  0  0  0  0
  186.0640  178.0900  142.5930 C   0  0  0  0  0  3  0  0  0  0  0  0
  184.9110  179.8510  144.6450 C   0  0  0  0  0  2  0  0  0  0  0  0
  181.5350  177.6470  140.8200 O   0  0  0  0  0  0  0  0  0  0  0  0
  186.4130  177.9090  145.0600 C   0  0  0  0  0  0  0  0  0  0  0  0
  182.6410  179.5310  143.5610 C   0  0  0  0  0  3  0  0  0  0  0  0
  184.0860  179.2410  143.5620 C   0  0  0  0  0  0  0  0  0  0  0  0
  184.6330  178.4670  142.6010 C   0  0  0  0  0  0  0  0  0  0  0  0
  182.3450  178.2040  141.6060 C   0  0  0  0  0  0  0  0  0  0  0  0
  188.1190  177.1550  146.8050 C   0  0  0  0  0  0  0  0  0  0  0  0
  186.9740  176.9480  145.9650 N   0  0  0  0  0  2  0  0  0  0  0  0
  188.1120  176.6870  147.9720 O   0  0  0  0  0  0  0  0  0  0  0  0
  190.5420  177.2130  146.3250 C   0  0  0  0  0  1  0  0  0  0  0  0
  189.2600  177.8210  146.3490 O   0  0  0  0  0  0  0  0  0  0  0  0
  188.2120  177.5240  143.4350 O   0  0  0  0  0  0  0  0  0  0  0  0
  188.6450  176.2080  143.1110 C   0  0  0  0  0  2  0  0  0  0  0  0
  190.1380  176.2230  142.8320 C   0  0  0  0  0  2  0  0  0  0  0  0
  191.3890  178.2550  143.0820 O   0  0  0  0  0  1  0  0  0  0  0  0
  190.5930  177.5300  142.1900 C   0  0  1  0  0  3  0  0  0  0  0  0
  191.3440  177.2870  140.8860 C   0  0  0  0  0  2  0  0  0  0  0  0
  189.3760  178.2090  139.8250 N   0  0  0  0  0  0  0  0  0  0  0  0
  190.4370  177.4740  139.7170 C   0  0  0  0  0  3  0  0  0  0  0  0
  188.4840  178.4210  138.7280 C   0  0  0  0  0  0  0  0  0  0  0  0
  189.0400  178.6900  137.3750 C   0  0  0  0  0  1  0  0  0  0  0  0
  187.2330  178.3780  138.8900 O   0  0  0  0  0  0  0  0  0  0  0  0
  1  5  1  6  0  0  0
  1 13  1  0  0  0  0
  1 12  1  0  0  0  0
  3 10  2  0  0  0  0
  4  9  1  0  0  0  0
  6 12  1  0  0  0  0
  6  4  2  0  0  0  0
  7  2  1  0  0  0  0
  8 13  2  0  0  0  0
  9  2  2  0  0  0  0
  9 15  1  0  0  0  0
 10 11  1  0  0  0  0
 11  7  1  0  0  0  0
 12 11  2  0  0  0  0
 13  3  1  0  0  0  0
 14 16  2  0  0  0  0
 15 14  1  0  0  0  0
 17 18  1  0  0  0  0
 18 14  1  0  0  0  0
 19  4  1  0  0  0  0
 20 19  1  0  0  0  0
 21 20  1  0  0  0  0
 23 21  1  0  0  0  0
 23 22  1  1  0  0  0
 24 23  1  0  0  0  0
 26 25  2  0  0  0  0
 26 24  1  0  0  0  0
 27 29  2  0  0  0  0
 27 25  1  0  0  0  0
 28 27  1  0  0  0  0
M  END
>  <MODEL>
3

>  <REMARK>
 VINA RESULT:      -7.3      2.312      5.903
  Name = 
  9 active torsions:
  status: ('A' for Active; 'I' for Inactive)
    1  A    between atoms: N_3  and  C_4
    2  A    between atoms: C_6  and  O_16
    3  A    between atoms: C_7  and  O_21
    4  A    between atoms: N_11  and  C_15
    5  A    between atoms: O_16  and  C_26
    6  A    between atoms: C_18  and  C_19
    7  A    between atoms: C_18  and  C_22
    8  A    between atoms: C_19  and  C_29
    9  A    between atoms: C_26  and  C_29
                            x       y       z     vdW  Elec       q    Type
                         _______ _______ _______ _____ _____    ______ ____

>  <TORSDO>
F 9

$$$$
=
 OpenBabel10232412313D

 29 30  0  0  1  0  0  0  0  0999 V2000
  189.1620  177.0540  142.7350 C   0  0  1  0  0  3  0  0  0  0  0  0
  187.0390  178.2970  138.9690 C   0  0  0  0  0  3  0  0  0  0  0  0
  190.7050  176.2040  140.8970 N   0  0  0  0  0  0  0  0  0  0  0  0
  186.1830  178.8460  141.2310 C   0  0  0  0  0  0  0  0  0  0  0  0
  189.7400  177.9680  143.6170 O   0  0  0  0  0  1  0  0  0  0  0  0
  187.2530  178.5540  141.9970 C   0  0  0  0  0  3  0  0  0  0  0  0
  188.4300  178.7080  139.3070 C   0  0  0  0  0  2  0  0  0  0  0  0
  190.6920  175.2380  143.0130 O   0  0  0  0  0  0  0  0  0  0  0  0
  186.0190  178.3820  139.8310 C   0  0  0  0  0  0  0  0  0  0  0  0
  190.1610  177.0010  140.0300 C   0  0  0  0  0  3  0  0  0  0  0  0
  188.9900  177.8280  140.3740 C   0  0  0  0  0  0  0  0  0  0  0  0
  188.4670  177.7960  141.6170 C   0  0  0  0  0  0  0  0  0  0  0  0
  190.2150  176.1060  142.2360 C   0  0  0  0  0  0  0  0  0  0  0  0
  183.7930  178.8260  138.6590 C   0  0  0  0  0  0  0  0  0  0  0  0
  184.7000  178.0060  139.4120 N   0  0  0  0  0  2  0  0  0  0  0  0
  183.0920  178.2940  137.7610 O   0  0  0  0  0  0  0  0  0  0  0  0
  182.4010  180.8660  138.7370 C   0  0  0  0  0  1  0  0  0  0  0  0
  183.6350  180.1890  138.9240 O   0  0  0  0  0  0  0  0  0  0  0  0
  185.1260  179.5890  141.7740 O   0  0  0  0  0  0  0  0  0  0  0  0
  184.3040  179.1220  142.8360 C   0  0  0  0  0  2  0  0  0  0  0  0
  184.5440  179.9760  144.0700 C   0  0  0  0  0  2  0  0  0  0  0  0
  183.9430  178.9210  146.1390 O   0  0  0  0  0  1  0  0  0  0  0  0
  185.0090  179.1480  145.2650 C   0  0  1  0  0  3  0  0  0  0  0  0
  185.6290  177.8260  144.8280 C   0  0  0  0  0  2  0  0  0  0  0  0
  187.0070  178.1200  146.7930 N   0  0  0  0  0  0  0  0  0  0  0  0
  186.8100  177.4960  145.6750 C   0  0  0  0  0  3  0  0  0  0  0  0
  188.1220  177.8300  147.6400 C   0  0  0  0  0  0  0  0  0  0  0  0
  189.3420  177.2130  147.0550 C   0  0  0  0  0  1  0  0  0  0  0  0
  188.0870  178.0960  148.8730 O   0  0  0  0  0  0  0  0  0  0  0  0
  1  5  1  1  0  0  0
  2  7  1  0  0  0  0
  2  9  2  0  0  0  0
  3 13  1  0  0  0  0
  4 19  1  0  0  0  0
  4  6  2  0  0  0  0
  7 11  1  0  0  0  0
  9  4  1  0  0  0  0
 10 11  1  0  0  0  0
 10  3  2  0  0  0  0
 11 12  2  0  0  0  0
 12  6  1  0  0  0  0
 12  1  1  0  0  0  0
 13  1  1  0  0  0  0
 13  8  2  0  0  0  0
 14 18  1  0  0  0  0
 14 15  1  0  0  0  0
 15  9  1  0  0  0  0
 16 14  2  0  0  0  0
 17 18  1  0  0  0  0
 19 20  1  0  0  0  0
 20 21  1  0  0  0  0
 21 23  1  0  0  0  0
 23 22  1  1  0  0  0
 24 23  1  0  0  0  0
 24 26  1  0  0  0  0
 25 27  1  0  0  0  0
 26 25  2  0  0  0  0
 27 29  2  0  0  0  0
 28 27  1  0  0  0  0
M  END
>  <MODEL>
4

>  <REMARK>
 VINA RESULT:      -7.2      2.673      5.229
  Name = 
  9 active torsions:
  status: ('A' for Active; 'I' for Inactive)
    1  A    between atoms: N_3  and  C_4
    2  A    between atoms: C_6  and  O_16
    3  A    between atoms: C_7  and  O_21
    4  A    between atoms: N_11  and  C_15
    5  A    between atoms: O_16  and  C_26
    6  A    between atoms: C_18  and  C_19
    7  A    between atoms: C_18  and  C_22
    8  A    between atoms: C_19  and  C_29
    9  A    between atoms: C_26  and  C_29
                            x       y       z     vdW  Elec       q    Type
                         _______ _______ _______ _____ _____    ______ ____

>  <TORSDO>
F 9

$$$$
=
 OpenBabel10232412313D

 29 30  0  0  1  0  0  0  0  0999 V2000
  183.4390  178.2250  140.9730 C   0  0  1  0  0  3  0  0  0  0  0  0
  185.5810  178.6510  144.9070 C   0  0  0  0  0  3  0  0  0  0  0  0
  181.5440  178.6570  142.6160 N   0  0  0  0  0  0  0  0  0  0  0  0
  186.7760  178.2860  142.7640 C   0  0  0  0  0  0  0  0  0  0  0  0
  183.5530  179.1600  139.9430 O   0  0  0  0  0  1  0  0  0  0  0  0
  185.7950  178.5180  141.8700 C   0  0  0  0  0  3  0  0  0  0  0  0
  184.6980  179.7020  144.3280 C   0  0  0  0  0  2  0  0  0  0  0  0
  181.1800  177.5340  140.6120 O   0  0  0  0  0  0  0  0  0  0  0  0
  186.5360  178.0280  144.2060 C   0  0  0  0  0  0  0  0  0  0  0  0
  182.3710  179.1440  143.4890 C   0  0  0  0  0  3  0  0  0  0  0  0
  183.8280  179.1260  143.2620 C   0  0  0  0  0  0  0  0  0  0  0  0
  184.3400  178.6220  142.1200 C   0  0  0  0  0  0  0  0  0  0  0  0
  181.9990  178.1020  141.3810 C   0  0  0  0  0  0  0  0  0  0  0  0
  188.5300  177.3460  145.6490 C   0  0  0  0  0  0  0  0  0  0  0  0
  187.3720  177.0580  144.8500 N   0  0  0  0  0  2  0  0  0  0  0  0
  188.7390  176.6680  146.6870 O   0  0  0  0  0  0  0  0  0  0  0  0
  190.6930  178.0160  144.6600 C   0  0  0  0  0  1  0  0  0  0  0  0
  189.4550  178.3260  145.2820 O   0  0  0  0  0  0  0  0  0  0  0  0
  188.1080  178.2310  142.3310 O   0  0  0  0  0  0  0  0  0  0  0  0
  188.6400  177.1580  141.5640 C   0  0  0  0  0  2  0  0  0  0  0  0
  189.5070  177.7190  140.4490 C   0  0  0  0  0  2  0  0  0  0  0  0
  189.0870  179.1850  138.5970 O   0  0  0  0  0  1  0  0  0  0  0  0
  188.7150  177.9650  139.1680 C   0  0  1  0  0  3  0  0  0  0  0  0
  188.8970  176.8310  138.1650 C   0  0  0  0  0  2  0  0  0  0  0  0
  191.2570  176.7280  137.6530 N   0  0  0  0  0  0  0  0  0  0  0  0
  190.2530  176.2260  138.2980 C   0  0  0  0  0  3  0  0  0  0  0  0
  192.5760  176.1850  137.7570 C   0  0  0  0  0  0  0  0  0  0  0  0
  192.7800  174.7220  137.5800 C   0  0  0  0  0  1  0  0  0  0  0  0
  193.5680  176.9290  137.9910 O   0  0  0  0  0  0  0  0  0  0  0  0
  1  5  1  6  0  0  0
  1 13  1  0  0  0  0
  1 12  1  0  0  0  0
  3 10  2  0  0  0  0
  4  9  1  0  0  0  0
  6 12  1  0  0  0  0
  6  4  2  0  0  0  0
  7  2  1  0  0  0  0
  8 13  2  0  0  0  0
  9 15  1  0  0  0  0
  9  2  2  0  0  0  0
 11 10  1  0  0  0  0
 11  7  1  0  0  0  0
 12 11  2  0  0  0  0
 13  3  1  0  0  0  0
 14 16  2  0  0  0  0
 15 14  1  0  0  0  0
 17 18  1  0  0  0  0
 18 14  1  0  0  0  0
 19  4  1  0  0  0  0
 20 19  1  0  0  0  0
 21 20  1  0  0  0  0
 23 22  1  6  0  0  0
 23 21  1  0  0  0  0
 24 26  1  0  0  0  0
 24 23  1  0  0  0  0
 25 27  1  0  0  0  0
 25 26  2  0  0  0  0
 27 29  2  0  0  0  0
 28 27  1  0  0  0  0
M  END
>  <MODEL>
5

>  <REMARK>
 VINA RESULT:      -7.0      3.022      6.409
  Name = 
  9 active torsions:
  status: ('A' for Active; 'I' for Inactive)
    1  A    between atoms: N_3  and  C_4
    2  A    between atoms: C_6  and  O_16
    3  A    between atoms: C_7  and  O_21
    4  A    between atoms: N_11  and  C_15
    5  A    between atoms: O_16  and  C_26
    6  A    between atoms: C_18  and  C_19
    7  A    between atoms: C_18  and  C_22
    8  A    between atoms: C_19  and  C_29
    9  A    between atoms: C_26  and  C_29
                            x       y       z     vdW  Elec       q    Type
                         _______ _______ _______ _____ _____    ______ ____

>  <TORSDO>
F 9

$$$$
=
 OpenBabel10232412313D

 29 30  0  0  1  0  0  0  0  0999 V2000
  188.8460  177.1720  141.8450 C   0  0  1  0  0  3  0  0  0  0  0  0
  187.8280  178.1650  137.5770 C   0  0  0  0  0  3  0  0  0  0  0  0
  190.9830  176.5840  140.5920 N   0  0  0  0  0  0  0  0  0  0  0  0
  186.2510  178.5460  139.4520 C   0  0  0  0  0  0  0  0  0  0  0  0
  188.9910  178.1440  142.8360 O   0  0  0  0  0  1  0  0  0  0  0  0
  187.0640  178.3970  140.5170 C   0  0  0  0  0  3  0  0  0  0  0  0
  188.9760  178.7650  138.3140 C   0  0  0  0  0  2  0  0  0  0  0  0
  190.4580  175.5890  142.6270 O   0  0  0  0  0  0  0  0  0  0  0  0
  186.5910  178.0880  138.0830 C   0  0  0  0  0  0  0  0  0  0  0  0
  190.6240  177.3110  139.5780 C   0  0  0  0  0  3  0  0  0  0  0  0
  189.2990  177.9560  139.5240 C   0  0  0  0  0  0  0  0  0  0  0  0
  188.4300  177.8270  140.5480 C   0  0  0  0  0  0  0  0  0  0  0  0
  190.1240  176.3930  141.7180 C   0  0  0  0  0  0  0  0  0  0  0  0
  185.1740  176.1480  137.2170 C   0  0  0  0  0  0  0  0  0  0  0  0
  185.5320  177.5360  137.2900 N   0  0  0  0  0  2  0  0  0  0  0  0
  183.9570  175.8330  137.1690 O   0  0  0  0  0  0  0  0  0  0  0  0
  185.8110  173.7610  137.2610 C   0  0  0  0  0  1  0  0  0  0  0  0
  186.1380  175.1380  137.1540 O   0  0  0  0  0  0  0  0  0  0  0  0
  184.9850  179.1210  139.6250 O   0  0  0  0  0  0  0  0  0  0  0  0
  183.8880  178.4390  140.2210 C   0  0  0  0  0  2  0  0  0  0  0  0
  183.9180  178.6560  141.7250 C   0  0  0  0  0  2  0  0  0  0  0  0
  181.5410  178.3340  141.6660 O   0  0  0  0  0  1  0  0  0  0  0  0
  182.5580  179.0750  142.2760 C   0  0  1  0  0  3  0  0  0  0  0  0
  182.4900  178.9220  143.7910 C   0  0  0  0  0  2  0  0  0  0  0  0
  184.0450  178.9050  145.6420 N   0  0  0  0  0  0  0  0  0  0  0  0
  183.8600  178.7900  144.3650 C   0  0  0  0  0  3  0  0  0  0  0  0
  185.3390  178.7780  146.2370 C   0  0  0  0  0  0  0  0  0  0  0  0
  186.3120  177.8060  145.6690 C   0  0  0  0  0  1  0  0  0  0  0  0
  185.6700  179.4820  147.2300 O   0  0  0  0  0  0  0  0  0  0  0  0
  1  5  1  1  0  0  0
  2  9  2  0  0  0  0
  2  7  1  0  0  0  0
  3 13  1  0  0  0  0
  4 19  1  0  0  0  0
  4  6  2  0  0  0  0
  6 12  1  0  0  0  0
  7 11  1  0  0  0  0
  9  4  1  0  0  0  0
 10  3  2  0  0  0  0
 11 10  1  0  0  0  0
 11 12  2  0  0  0  0
 12  1  1  0  0  0  0
 13  1  1  0  0  0  0
 13  8  2  0  0  0  0
 14 15  1  0  0  0  0
 15  9  1  0  0  0  0
 16 14  2  0  0  0  0
 18 14  1  0  0  0  0
 18 17  1  0  0  0  0
 19 20  1  0  0  0  0
 20 21  1  0  0  0  0
 21 23  1  0  0  0  0
 23 22  1  6  0  0  0
 23 24  1  0  0  0  0
 24 26  1  0  0  0  0
 25 27  1  0  0  0  0
 26 25  2  0  0  0  0
 27 29  2  0  0  0  0
 28 27  1  0  0  0  0
M  END
>  <MODEL>
6

>  <REMARK>
 VINA RESULT:      -6.8      2.752      6.063
  Name = 
  9 active torsions:
  status: ('A' for Active; 'I' for Inactive)
    1  A    between atoms: N_3  and  C_4
    2  A    between atoms: C_6  and  O_16
    3  A    between atoms: C_7  and  O_21
    4  A    between atoms: N_11  and  C_15
    5  A    between atoms: O_16  and  C_26
    6  A    between atoms: C_18  and  C_19
    7  A    between atoms: C_18  and  C_22
    8  A    between atoms: C_19  and  C_29
    9  A    between atoms: C_26  and  C_29
                            x       y       z     vdW  Elec       q    Type
                         _______ _______ _______ _____ _____    ______ ____

>  <TORSDO>
F 9

$$$$
=
 OpenBabel10232412313D

 29 30  0  0  1  0  0  0  0  0999 V2000
  187.3800  178.4650  138.5450 C   0  0  1  0  0  3  0  0  0  0  0  0
  190.7220  177.3890  141.3580 C   0  0  0  0  0  3  0  0  0  0  0  0
  189.3420  178.0530  136.9760 N   0  0  0  0  0  0  0  0  0  0  0  0
  188.4150  177.8630  142.1380 C   0  0  0  0  0  0  0  0  0  0  0  0
  186.2720  177.6430  138.3340 O   0  0  0  0  0  1  0  0  0  0  0  0
  187.7320  177.8330  140.9770 C   0  0  0  0  0  3  0  0  0  0  0  0
  190.2530  176.5050  140.2550 C   0  0  0  0  0  2  0  0  0  0  0  0
  187.5650  179.4210  136.3620 O   0  0  0  0  0  0  0  0  0  0  0  0
  189.8910  177.9840  142.2240 C   0  0  0  0  0  0  0  0  0  0  0  0
  189.9750  177.3900  137.8950 C   0  0  0  0  0  3  0  0  0  0  0  0
  189.4490  177.2820  139.2670 C   0  0  0  0  0  0  0  0  0  0  0  0
  188.2730  177.8540  139.5990 C   0  0  0  0  0  0  0  0  0  0  0  0
  188.0910  178.6910  137.2410 C   0  0  0  0  0  0  0  0  0  0  0  0
  191.5170  178.4210  144.1450 C   0  0  0  0  0  0  0  0  0  0  0  0
  190.4270  178.7860  143.2860 N   0  0  0  0  0  2  0  0  0  0  0  0
  192.3550  179.2990  144.4740 O   0  0  0  0  0  0  0  0  0  0  0  0
  191.6040  176.8560  146.0550 C   0  0  0  0  0  1  0  0  0  0  0  0
  191.6500  177.1300  144.6630 O   0  0  0  0  0  0  0  0  0  0  0  0
  187.7170  177.8260  143.3530 O   0  0  0  0  0  0  0  0  0  0  0  0
  188.0200  176.9180  144.4050 C   0  0  0  0  0  2  0  0  0  0  0  0
  188.1010  177.6780  145.7180 C   0  0  0  0  0  2  0  0  0  0  0  0
  186.9130  177.6850  147.8020 O   0  0  0  0  0  1  0  0  0  0  0  0
  186.7480  177.7700  146.4170 C   0  0  1  0  0  3  0  0  0  0  0  0
  186.0070  179.0500  146.0480 C   0  0  0  0  0  2  0  0  0  0  0  0
  184.5720  179.0910  144.1020 N   0  0  0  0  0  0  0  0  0  0  0  0
  184.7360  178.7330  145.3360 C   0  0  0  0  0  3  0  0  0  0  0  0
  183.3730  178.8010  143.3800 C   0  0  0  0  0  0  0  0  0  0  0  0
  182.0710  178.7880  144.0990 C   0  0  0  0  0  1  0  0  0  0  0  0
  183.4030  178.5630  142.1410 O   0  0  0  0  0  0  0  0  0  0  0  0
  1  5  1  6  0  0  0
  1 12  1  0  0  0  0
  2  9  2  0  0  0  0
  3 13  1  0  0  0  0
  3 10  2  0  0  0  0
  4  9  1  0  0  0  0
  4 19  1  0  0  0  0
  6  4  2  0  0  0  0
  7  2  1  0  0  0  0
  8 13  2  0  0  0  0
  9 15  1  0  0  0  0
 10 11  1  0  0  0  0
 11 12  2  0  0  0  0
 11  7  1  0  0  0  0
 12  6  1  0  0  0  0
 13  1  1  0  0  0  0
 14 16  2  0  0  0  0
 14 18  1  0  0  0  0
 15 14  1  0  0  0  0
 18 17  1  0  0  0  0
 19 20  1  0  0  0  0
 20 21  1  0  0  0  0
 21 23  1  0  0  0  0
 23 22  1  1  0  0  0
 24 23  1  0  0  0  0
 25 26  2  0  0  0  0
 26 24  1  0  0  0  0
 27 28  1  0  0  0  0
 27 25  1  0  0  0  0
 29 27  2  0  0  0  0
M  END
>  <MODEL>
7

>  <REMARK>
 VINA RESULT:      -6.7      1.980      6.550
  Name = 
  9 active torsions:
  status: ('A' for Active; 'I' for Inactive)
    1  A    between atoms: N_3  and  C_4
    2  A    between atoms: C_6  and  O_16
    3  A    between atoms: C_7  and  O_21
    4  A    between atoms: N_11  and  C_15
    5  A    between atoms: O_16  and  C_26
    6  A    between atoms: C_18  and  C_19
    7  A    between atoms: C_18  and  C_22
    8  A    between atoms: C_19  and  C_29
    9  A    between atoms: C_26  and  C_29
                            x       y       z     vdW  Elec       q    Type
                         _______ _______ _______ _____ _____    ______ ____

>  <TORSDO>
F 9

$$$$
=
 OpenBabel10232412313D

 29 30  0  0  1  0  0  0  0  0999 V2000
  187.9460  177.3880  146.1700 C   0  0  1  0  0  3  0  0  0  0  0  0
  190.5780  177.6490  142.5310 C   0  0  0  0  0  3  0  0  0  0  0  0
  190.2880  177.1330  147.1340 N   0  0  0  0  0  0  0  0  0  0  0  0
  188.1120  177.8940  142.4200 C   0  0  0  0  0  0  0  0  0  0  0  0
  187.2200  178.4740  146.6600 O   0  0  0  0  0  1  0  0  0  0  0  0
  187.8020  178.0430  143.7220 C   0  0  0  0  0  3  0  0  0  0  0  0
  190.6970  178.5600  143.7030 C   0  0  0  0  0  2  0  0  0  0  0  0
  188.4240  176.2860  148.2360 O   0  0  0  0  0  0  0  0  0  0  0  0
  189.4130  177.3670  141.9360 C   0  0  0  0  0  0  0  0  0  0  0  0
  190.8160  177.6460  146.0650 C   0  0  0  0  0  3  0  0  0  0  0  0
  189.9970  177.9820  144.8870 C   0  0  0  0  0  0  0  0  0  0  0  0
  188.6620  177.7870  144.9000 C   0  0  0  0  0  0  0  0  0  0  0  0
  188.8830  176.8910  147.2330 C   0  0  0  0  0  0  0  0  0  0  0  0
  190.0710  176.7610  139.5430 C   0  0  0  0  0  0  0  0  0  0  0  0
  189.3910  176.5140  140.7830 N   0  0  0  0  0  2  0  0  0  0  0  0
  190.6130  175.7980  138.9430 O   0  0  0  0  0  0  0  0  0  0  0  0
  189.0080  178.5850  138.2600 C   0  0  0  0  0  1  0  0  0  0  0  0
  190.1110  178.0310  138.9620 O   0  0  0  0  0  0  0  0  0  0  0  0
  187.1570  178.2000  141.4410 O   0  0  0  0  0  0  0  0  0  0  0  0
  186.1230  179.1590  141.6280 C   0  0  0  0  0  2  0  0  0  0  0  0
  184.8150  178.4400  141.9120 C   0  0  0  0  0  2  0  0  0  0  0  0
  184.8430  179.9140  143.8040 O   0  0  0  0  0  1  0  0  0  0  0  0
  184.2900  178.7270  143.3160 C   0  0  1  0  0  3  0  0  0  0  0  0
  182.7680  178.7980  143.3460 C   0  0  0  0  0  2  0  0  0  0  0  0
  181.0890  179.2150  141.6570 N   0  0  0  0  0  0  0  0  0  0  0  0
  182.2080  178.6450  141.9730 C   0  0  0  0  0  3  0  0  0  0  0  0
  180.5200  179.1010  140.3500 C   0  0  0  0  0  0  0  0  0  0  0  0
  180.1550  177.7580  139.8270 C   0  0  0  0  0  1  0  0  0  0  0  0
  180.3180  180.1230  139.6390 O   0  0  0  0  0  0  0  0  0  0  0  0
  1  5  1  1  0  0  0
  1 13  1  0  0  0  0
  2  7  1  0  0  0  0
  3 13  1  0  0  0  0
  4  6  2  0  0  0  0
  6 12  1  0  0  0  0
  7 11  1  0  0  0  0
  9  4  1  0  0  0  0
  9  2  2  0  0  0  0
 10  3  2  0  0  0  0
 11 12  2  0  0  0  0
 11 10  1  0  0  0  0
 12  1  1  0  0  0  0
 13  8  2  0  0  0  0
 14 15  1  0  0  0  0
 15  9  1  0  0  0  0
 16 14  2  0  0  0  0
 17 18  1  0  0  0  0
 18 14  1  0  0  0  0
 19 20  1  0  0  0  0
 19  4  1  0  0  0  0
 20 21  1  0  0  0  0
 21 23  1  0  0  0  0
 23 24  1  0  0  0  0
 23 22  1  6  0  0  0
 25 26  2  0  0  0  0
 26 24  1  0  0  0  0
 27 25  1  0  0  0  0
 28 27  1  0  0  0  0
 29 27  2  0  0  0  0
M  END
>  <MODEL>
8

>  <REMARK>
 VINA RESULT:      -6.7      2.768      6.346
  Name = 
  9 active torsions:
  status: ('A' for Active; 'I' for Inactive)
    1  A    between atoms: N_3  and  C_4
    2  A    between atoms: C_6  and  O_16
    3  A    between atoms: C_7  and  O_21
    4  A    between atoms: N_11  and  C_15
    5  A    between atoms: O_16  and  C_26
    6  A    between atoms: C_18  and  C_19
    7  A    between atoms: C_18  and  C_22
    8  A    between atoms: C_19  and  C_29
    9  A    between atoms: C_26  and  C_29
                            x       y       z     vdW  Elec       q    Type
                         _______ _______ _______ _____ _____    ______ ____

>  <TORSDO>
F 9

$$$$
=
 OpenBabel10232412313D

 29 30  0  0  1  0  0  0  0  0999 V2000
  188.3950  177.1240  145.8840 C   0  0  1  0  0  3  0  0  0  0  0  0
  191.1970  177.5100  142.3860 C   0  0  0  0  0  3  0  0  0  0  0  0
  190.6880  177.1820  146.9880 N   0  0  0  0  0  0  0  0  0  0  0  0
  188.7300  177.4670  142.1270 C   0  0  0  0  0  0  0  0  0  0  0  0
  187.5250  178.1430  146.2750 O   0  0  0  0  0  1  0  0  0  0  0  0
  188.3270  177.6420  143.4010 C   0  0  0  0  0  3  0  0  0  0  0  0
  191.1430  178.4830  143.5130 C   0  0  0  0  0  2  0  0  0  0  0  0
  188.8660  176.1820  148.0300 O   0  0  0  0  0  0  0  0  0  0  0  0
  190.1080  177.0690  141.7440 C   0  0  0  0  0  0  0  0  0  0  0  0
  191.2200  177.7010  145.9240 C   0  0  0  0  0  3  0  0  0  0  0  0
  190.4410  177.8850  144.6860 C   0  0  0  0  0  0  0  0  0  0  0  0
  189.1370  177.5410  144.6360 C   0  0  0  0  0  0  0  0  0  0  0  0
  189.3150  176.7880  147.0220 C   0  0  0  0  0  0  0  0  0  0  0  0
  190.6320  176.5270  139.3040 C   0  0  0  0  0  0  0  0  0  0  0  0
  190.2500  176.1660  140.6400 N   0  0  0  0  0  2  0  0  0  0  0  0
  191.4050  175.7690  138.6640 O   0  0  0  0  0  0  0  0  0  0  0  0
  189.5700  177.6480  137.3750 C   0  0  0  0  0  1  0  0  0  0  0  0
  190.1340  177.6730  138.6770 O   0  0  0  0  0  0  0  0  0  0  0  0
  187.8080  177.6160  141.0830 O   0  0  0  0  0  0  0  0  0  0  0  0
  187.3660  178.8800  140.6010 C   0  0  0  0  0  2  0  0  0  0  0  0
  186.2590  178.6700  139.5810 C   0  0  0  0  0  2  0  0  0  0  0  0
  184.3570  180.0600  139.1270 O   0  0  0  0  0  1  0  0  0  0  0  0
  184.9130  179.1930  140.0730 C   0  0  1  0  0  3  0  0  0  0  0  0
  183.9460  178.0570  140.3840 C   0  0  0  0  0  2  0  0  0  0  0  0
  183.3390  178.9260  142.5580 N   0  0  0  0  0  0  0  0  0  0  0  0
  183.7560  177.9200  141.8570 C   0  0  0  0  0  3  0  0  0  0  0  0
  183.1360  178.8360  143.9700 C   0  0  0  0  0  0  0  0  0  0  0  0
  184.3140  178.7920  144.8770 C   0  0  0  0  0  1  0  0  0  0  0  0
  181.9720  178.8000  144.4580 O   0  0  0  0  0  0  0  0  0  0  0  0
  1  5  1  1  0  0  0
  1 13  1  0  0  0  0
  2  7  1  0  0  0  0
  3 13  1  0  0  0  0
  4  6  2  0  0  0  0
  6 12  1  0  0  0  0
  7 11  1  0  0  0  0
  9  4  1  0  0  0  0
  9  2  2  0  0  0  0
 10  3  2  0  0  0  0
 11 10  1  0  0  0  0
 12 11  2  0  0  0  0
 12  1  1  0  0  0  0
 13  8  2  0  0  0  0
 14 15  1  0  0  0  0
 15  9  1  0  0  0  0
 16 14  2  0  0  0  0
 17 18  1  0  0  0  0
 18 14  1  0  0  0  0
 19  4  1  0  0  0  0
 20 19  1  0  0  0  0
 21 23  1  0  0  0  0
 21 20  1  0  0  0  0
 23 22  1  6  0  0  0
 23 24  1  0  0  0  0
 24 26  1  0  0  0  0
 25 27  1  0  0  0  0
 26 25  2  0  0  0  0
 27 29  2  0  0  0  0
 27 28  1  0  0  0  0
M  END
>  <MODEL>
9

>  <REMARK>
 VINA RESULT:      -6.7      2.028      5.496
  Name = 
  9 active torsions:
  status: ('A' for Active; 'I' for Inactive)
    1  A    between atoms: N_3  and  C_4
    2  A    between atoms: C_6  and  O_16
    3  A    between atoms: C_7  and  O_21
    4  A    between atoms: N_11  and  C_15
    5  A    between atoms: O_16  and  C_26
    6  A    between atoms: C_18  and  C_19
    7  A    between atoms: C_18  and  C_22
    8  A    between atoms: C_19  and  C_29
    9  A    between atoms: C_26  and  C_29
                            x       y       z     vdW  Elec       q    Type
                         _______ _______ _______ _____ _____    ______ ____

>  <TORSDO>
F 9

$$$$
