=
 OpenBabel10232412473D

 40 45  0  0  1  0  0  0  0  0999 V2000
  189.3560  177.7900  140.6220 C   0  0  1  0  0  3  0  0  0  0  0  0
  185.0540  179.5300  142.0490 O   0  0  0  0  0  0  0  0  0  0  0  0
  185.2140  179.2660  139.7370 N   0  0  0  0  0  2  0  0  0  0  0  0
  190.2320  177.4970  139.0530 S   0  0  0  0  0  0  0  0  0  0  0  0
  188.7620  177.9740  138.0820 C   0  0  2  0  0  3  0  0  0  0  0  0
  187.7390  178.4190  139.0090 N   0  0  0  0  0  0  0  0  0  0  0  0
  187.0930  178.7290  141.2800 N   0  0  0  0  0  2  0  0  0  0  0  0
  185.7540  179.1880  141.0590 C   0  0  0  0  0  0  0  0  0  0  0  0
  188.0190  178.3280  140.2640 C   0  0  0  0  0  0  0  0  0  0  0  0
  188.0600  175.4690  135.6780 C   0  0  0  0  0  0  0  0  0  0  0  0
  188.1040  174.7450  134.5340 N   0  0  0  0  0  0  0  0  0  0  0  0
  188.2760  176.8120  137.2670 C   0  0  0  0  0  0  0  0  0  0  0  0
  187.1660  175.1480  136.6420 C   0  0  0  0  0  0  0  0  0  0  0  0
  186.8880  173.6240  134.8430 S   0  0  0  0  0  0  0  0  0  0  0  0
  187.2630  175.9830  137.6810 N   0  0  0  0  0  0  0  0  0  0  0  0
  186.3480  174.0730  136.3760 C   0  0  0  0  0  0  0  0  0  0  0  0
  188.7880  176.5340  136.0270 N   0  0  0  0  0  2  0  0  0  0  0  0
  185.2740  173.4700  137.2080 C   0  0  0  0  0  1  0  0  0  0  0  0
  183.8180  179.5910  139.4700 C   0  0  0  0  0  2  0  0  0  0  0  0
  182.9650  178.3250  139.3360 C   0  0  1  0  0  3  0  0  0  0  0  0
  183.7750  177.1730  138.7690 C   0  0  1  0  0  3  0  0  0  0  0  0
  182.9340  175.9860  138.6580 C   0  0  0  0  0  2  0  0  0  0  0  0
  183.2270  176.7870  137.4630 N   0  0  0  0  0  2  0  0  0  0  0  0
  182.3310  177.9240  140.6600 C   0  0  0  0  0  2  0  0  0  0  0  0
  180.9090  178.4410  140.7650 C   0  0  0  0  0  2  0  0  0  0  0  0
  181.4720  179.1070  143.0710 C   0  0  0  0  0  2  0  0  0  0  0  0
  180.4410  178.4120  142.2060 C   0  0  0  0  0  3  0  0  0  0  0  0
  180.2040  179.8350  142.6750 C   0  0  0  0  0  2  0  0  0  0  0  0
  189.2020  176.5350  141.3350 N   0  0  0  0  0  2  0  0  0  0  0  0
  190.0450  176.6090  142.5180 C   0  0  0  0  0  2  0  0  0  0  0  0
  187.6650  177.5710  145.9650 C   0  0  0  0  0  0  0  0  0  0  0  0
  189.2200  176.9500  143.7080 C   0  0  0  0  0  0  0  0  0  0  0  0
  187.8510  176.6650  143.7170 C   0  0  0  0  0  3  0  0  0  0  0  0
  187.0790  176.9760  144.8410 C   0  0  0  0  0  3  0  0  0  0  0  0
  189.8190  177.5350  144.8290 C   0  0  0  0  0  3  0  0  0  0  0  0
  189.0450  177.8460  145.9510 C   0  0  0  0  0  3  0  0  0  0  0  0
  186.8480  177.8630  147.0680 O   0  0  0  0  0  0  0  0  0  0  0  0
  185.7960  178.7900  147.0980 C   0  0  0  0  0  0  0  0  0  0  0  0
  184.6240  178.4730  146.7570 O   0  0  0  0  0  0  0  0  0  0  0  0
  186.0450  180.0540  147.5190 F   0  0  0  0  0  0  0  0  0  0  0  0
  1 29  1  6  0  0  0
  3  8  1  0  0  0  0
  4  1  1  0  0  0  0
  5 12  1  1  0  0  0
  5  6  1  0  0  0  0
  5  4  1  0  0  0  0
  6  9  2  0  0  0  0
  8  7  1  0  0  0  0
  8  2  2  0  0  0  0
  9  1  1  0  0  0  0
  9  7  1  0  0  0  0
 10 17  1  0  0  0  0
 10 13  1  0  0  0  0
 11 14  1  0  0  0  0
 11 10  2  0  0  0  0
 12 15  2  0  0  0  0
 13 15  1  0  0  0  0
 14 16  1  0  0  0  0
 16 13  2  0  0  0  0
 16 18  1  0  0  0  0
 17 12  1  0  0  0  0
 19  3  1  0  0  0  0
 20 19  1  1  0  0  0
 20 24  1  0  0  0  0
 21 20  1  1  0  0  0
 22 21  1  0  0  0  0
 23 22  1  0  0  0  0
 23 21  1  0  0  0  0
 24 25  1  0  0  0  0
 25 27  1  0  0  0  0
 27 28  1  0  0  0  0
 27 26  1  0  0  0  0
 28 26  1  0  0  0  0
 29 30  1  0  0  0  0
 30 32  1  0  0  0  0
 31 37  1  0  0  0  0
 32 33  2  0  0  0  0
 32 35  1  0  0  0  0
 33 34  1  0  0  0  0
 34 31  2  0  0  0  0
 35 36  2  0  0  0  0
 36 31  1  0  0  0  0
 37 38  1  0  0  0  0
 38 40  1  0  0  0  0
 39 38  2  0  0  0  0
M  END
>  <MODEL>
1

>  <REMARK>
 VINA RESULT:      -8.2      0.000      0.000
  Name = 
  12 active torsions:
  status: ('A' for Active; 'I' for Inactive)
    1  A    between atoms: C_1  and  O_27
    2  A    between atoms: C_2  and  N_30
    3  A    between atoms: C_3  and  C_18
    4  A    between atoms: C_5  and  C_25
    5  A    between atoms: N_6  and  C_20
    6  A    between atoms: C_8  and  C_21
    7  A    between atoms: C_8  and  C_33
    8  A    between atoms: C_10  and  O_27
    9  A    between atoms: C_11  and  C_22
   10  A    between atoms: C_18  and  C_20
   11  A    between atoms: C_18  and  C_33
   12  A    between atoms: C_25  and  N_30
                            x       y       z     vdW  Elec       q    Type
                         _______ _______ _______ _____ _____    ______ ____

>  <TORSDO>
F 12

$$$$
=
 OpenBabel10232412473D

 40 45  0  0  1  0  0  0  0  0999 V2000
  189.4290  177.7930  140.5780 C   0  0  1  0  0  3  0  0  0  0  0  0
  185.1450  179.4960  142.0990 O   0  0  0  0  0  0  0  0  0  0  0  0
  185.2490  179.2130  139.7860 N   0  0  0  0  0  2  0  0  0  0  0  0
  190.2680  177.4950  138.9900 S   0  0  0  0  0  0  0  0  0  0  0  0
  188.7690  177.9470  138.0530 C   0  0  2  0  0  3  0  0  0  0  0  0
  187.7640  178.3890  139.0020 N   0  0  0  0  0  0  0  0  0  0  0  0
  187.1730  178.7120  141.2860 N   0  0  0  0  0  2  0  0  0  0  0  0
  185.8230  179.1530  141.0940 C   0  0  0  0  0  0  0  0  0  0  0  0
  188.0780  178.3120  140.2500 C   0  0  0  0  0  0  0  0  0  0  0  0
  187.9230  175.4870  135.6480 C   0  0  0  0  0  0  0  0  0  0  0  0
  187.8360  174.8290  134.4670 N   0  0  0  0  0  0  0  0  0  0  0  0
  188.2760  176.7720  137.2600 C   0  0  0  0  0  0  0  0  0  0  0  0
  187.2670  175.0130  136.7320 C   0  0  0  0  0  0  0  0  0  0  0  0
  186.8350  173.5510  134.9120 S   0  0  0  0  0  0  0  0  0  0  0  0
  187.4600  175.8050  137.7910 N   0  0  0  0  0  0  0  0  0  0  0  0
  186.5420  173.8580  136.5440 C   0  0  0  0  0  0  0  0  0  0  0  0
  188.5770  176.6180  135.9320 N   0  0  0  0  0  2  0  0  0  0  0  0
  185.7190  173.0870  137.5110 C   0  0  0  0  0  1  0  0  0  0  0  0
  183.8430  179.5190  139.5530 C   0  0  0  0  0  2  0  0  0  0  0  0
  182.9290  178.4390  140.1410 C   0  0  1  0  0  3  0  0  0  0  0  0
  181.5570  179.0000  140.4720 C   0  0  1  0  0  3  0  0  0  0  0  0
  180.6130  177.9060  140.6730 C   0  0  0  0  0  2  0  0  0  0  0  0
  181.1840  178.6010  141.8340 N   0  0  0  0  0  2  0  0  0  0  0  0
  182.8000  177.2390  139.2150 C   0  0  0  0  0  2  0  0  0  0  0  0
  183.0540  177.6300  137.7720 C   0  0  0  0  0  2  0  0  0  0  0  0
  183.3570  175.8180  136.1260 C   0  0  0  0  0  2  0  0  0  0  0  0
  184.0640  176.6930  137.1400 C   0  0  0  0  0  3  0  0  0  0  0  0
  184.1690  177.0090  135.6600 C   0  0  0  0  0  2  0  0  0  0  0  0
  189.3080  176.5420  141.3060 N   0  0  0  0  0  2  0  0  0  0  0  0
  190.1370  176.6580  142.4950 C   0  0  0  0  0  2  0  0  0  0  0  0
  187.6820  177.5490  145.9070 C   0  0  0  0  0  0  0  0  0  0  0  0
  189.2890  176.9580  143.6780 C   0  0  0  0  0  0  0  0  0  0  0  0
  189.8470  177.5760  144.8030 C   0  0  0  0  0  3  0  0  0  0  0  0
  189.0450  177.8680  145.9110 C   0  0  0  0  0  3  0  0  0  0  0  0
  187.9250  176.6450  143.6590 C   0  0  0  0  0  3  0  0  0  0  0  0
  187.1260  176.9370  144.7690 C   0  0  0  0  0  3  0  0  0  0  0  0
  186.9190  177.8640  147.0430 O   0  0  0  0  0  0  0  0  0  0  0  0
  185.7490  178.6360  147.0680 C   0  0  0  0  0  0  0  0  0  0  0  0
  185.7620  179.8460  147.4230 O   0  0  0  0  0  0  0  0  0  0  0  0
  184.5790  178.0700  146.6860 F   0  0  0  0  0  0  0  0  0  0  0  0
  1 29  1  6  0  0  0
  3  8  1  0  0  0  0
  4  1  1  0  0  0  0
  5 12  1  1  0  0  0
  5  4  1  0  0  0  0
  5  6  1  0  0  0  0
  6  9  2  0  0  0  0
  8  7  1  0  0  0  0
  8  2  2  0  0  0  0
  9  1  1  0  0  0  0
  9  7  1  0  0  0  0
 10 17  1  0  0  0  0
 10 13  1  0  0  0  0
 11 14  1  0  0  0  0
 11 10  2  0  0  0  0
 12 15  2  0  0  0  0
 13 15  1  0  0  0  0
 14 16  1  0  0  0  0
 16 13  2  0  0  0  0
 16 18  1  0  0  0  0
 17 12  1  0  0  0  0
 19  3  1  0  0  0  0
 19 20  1  0  0  0  0
 20 24  1  6  0  0  0
 21 20  1  1  0  0  0
 21 22  1  0  0  0  0
 21 23  1  0  0  0  0
 22 23  1  0  0  0  0
 25 24  1  0  0  0  0
 26 27  1  0  0  0  0
 27 25  1  0  0  0  0
 28 26  1  0  0  0  0
 28 27  1  0  0  0  0
 29 30  1  0  0  0  0
 30 32  1  0  0  0  0
 31 34  1  0  0  0  0
 31 37  1  0  0  0  0
 32 33  1  0  0  0  0
 33 34  2  0  0  0  0
 35 32  2  0  0  0  0
 35 36  1  0  0  0  0
 36 31  2  0  0  0  0
 37 38  1  0  0  0  0
 38 39  2  0  0  0  0
 40 38  1  0  0  0  0
M  END
>  <MODEL>
2

>  <REMARK>
 VINA RESULT:      -8.0      1.190      2.649
  Name = 
  12 active torsions:
  status: ('A' for Active; 'I' for Inactive)
    1  A    between atoms: C_1  and  O_27
    2  A    between atoms: C_2  and  N_30
    3  A    between atoms: C_3  and  C_18
    4  A    between atoms: C_5  and  C_25
    5  A    between atoms: N_6  and  C_20
    6  A    between atoms: C_8  and  C_21
    7  A    between atoms: C_8  and  C_33
    8  A    between atoms: C_10  and  O_27
    9  A    between atoms: C_11  and  C_22
   10  A    between atoms: C_18  and  C_20
   11  A    between atoms: C_18  and  C_33
   12  A    between atoms: C_25  and  N_30
                            x       y       z     vdW  Elec       q    Type
                         _______ _______ _______ _____ _____    ______ ____

>  <TORSDO>
F 12

$$$$
=
 OpenBabel10232412473D

 40 45  0  0  1  0  0  0  0  0999 V2000
  189.2630  177.8520  140.5650 C   0  0  1  0  0  3  0  0  0  0  0  0
  185.0770  179.5060  142.3840 O   0  0  0  0  0  0  0  0  0  0  0  0
  185.0370  179.2670  140.0650 N   0  0  0  0  0  2  0  0  0  0  0  0
  190.0020  177.5890  138.9210 S   0  0  0  0  0  0  0  0  0  0  0  0
  188.4450  178.0510  138.0890 C   0  0  2  0  0  3  0  0  0  0  0  0
  187.5000  178.4700  139.1080 N   0  0  0  0  0  0  0  0  0  0  0  0
  187.0530  178.7460  141.4300 N   0  0  0  0  0  2  0  0  0  0  0  0
  185.6920  179.1850  141.3330 C   0  0  0  0  0  0  0  0  0  0  0  0
  187.8920  178.3710  140.3320 C   0  0  0  0  0  0  0  0  0  0  0  0
  186.7790  175.7920  135.9290 C   0  0  0  0  0  0  0  0  0  0  0  0
  185.9480  175.3130  134.9730 N   0  0  0  0  0  0  0  0  0  0  0  0
  187.9070  176.8910  137.3060 C   0  0  0  0  0  0  0  0  0  0  0  0
  187.5310  174.9340  136.6560 C   0  0  0  0  0  0  0  0  0  0  0  0
  186.2460  173.6630  135.1170 S   0  0  0  0  0  0  0  0  0  0  0  0
  188.2690  175.5910  137.5570 N   0  0  0  0  0  0  0  0  0  0  0  0
  187.3890  173.5980  136.3560 C   0  0  0  0  0  0  0  0  0  0  0  0
  186.9780  177.0560  136.3120 N   0  0  0  0  0  2  0  0  0  0  0  0
  188.0540  172.4140  136.9590 C   0  0  0  0  0  1  0  0  0  0  0  0
  183.6180  179.5720  139.9250 C   0  0  0  0  0  2  0  0  0  0  0  0
  183.0550  179.0260  138.6090 C   0  0  1  0  0  3  0  0  0  0  0  0
  183.9860  177.9950  137.9980 C   0  0  1  0  0  3  0  0  0  0  0  0
  183.3890  176.6680  138.1020 C   0  0  0  0  0  2  0  0  0  0  0  0
  183.3430  177.3910  136.8250 N   0  0  0  0  0  2  0  0  0  0  0  0
  181.6620  178.4400  138.7880 C   0  0  0  0  0  2  0  0  0  0  0  0
  180.5920  179.4320  138.3730 C   0  0  0  0  0  2  0  0  0  0  0  0
  180.0440  181.2330  136.7790 C   0  0  0  0  0  2  0  0  0  0  0  0
  181.1770  180.4850  137.4530 C   0  0  0  0  0  3  0  0  0  0  0  0
  180.7680  181.8580  137.9550 C   0  0  0  0  0  2  0  0  0  0  0  0
  189.1920  176.5860  141.2740 N   0  0  0  0  0  2  0  0  0  0  0  0
  190.0420  176.7070  142.4480 C   0  0  0  0  0  2  0  0  0  0  0  0
  187.6540  177.5690  145.9150 C   0  0  0  0  0  0  0  0  0  0  0  0
  189.2140  177.0130  143.6440 C   0  0  0  0  0  0  0  0  0  0  0  0
  187.8750  176.6100  143.6930 C   0  0  0  0  0  3  0  0  0  0  0  0
  187.1010  176.8880  144.8240 C   0  0  0  0  0  3  0  0  0  0  0  0
  189.7810  177.6840  144.7340 C   0  0  0  0  0  3  0  0  0  0  0  0
  189.0040  177.9620  145.8620 C   0  0  0  0  0  3  0  0  0  0  0  0
  186.8360  177.8240  147.0270 O   0  0  0  0  0  0  0  0  0  0  0  0
  185.8000  178.7660  147.0950 C   0  0  0  0  0  0  0  0  0  0  0  0
  184.6180  178.4760  146.7640 O   0  0  0  0  0  0  0  0  0  0  0  0
  186.0750  180.0160  147.5410 F   0  0  0  0  0  0  0  0  0  0  0  0
  1 29  1  6  0  0  0
  3  8  1  0  0  0  0
  4  1  1  0  0  0  0
  5 12  1  1  0  0  0
  5  4  1  0  0  0  0
  5  6  1  0  0  0  0
  6  9  2  0  0  0  0
  8  7  1  0  0  0  0
  8  2  2  0  0  0  0
  9  1  1  0  0  0  0
  9  7  1  0  0  0  0
 10 17  1  0  0  0  0
 10 13  1  0  0  0  0
 11 14  1  0  0  0  0
 11 10  2  0  0  0  0
 12 15  2  0  0  0  0
 13 15  1  0  0  0  0
 14 16  1  0  0  0  0
 16 13  2  0  0  0  0
 16 18  1  0  0  0  0
 17 12  1  0  0  0  0
 19  3  1  0  0  0  0
 20 24  1  1  0  0  0
 20 19  1  0  0  0  0
 21 22  1  0  0  0  0
 21 20  1  1  0  0  0
 23 21  1  0  0  0  0
 23 22  1  0  0  0  0
 25 24  1  0  0  0  0
 26 27  1  0  0  0  0
 26 28  1  0  0  0  0
 27 28  1  0  0  0  0
 27 25  1  0  0  0  0
 29 30  1  0  0  0  0
 30 32  1  0  0  0  0
 31 37  1  0  0  0  0
 32 33  2  0  0  0  0
 32 35  1  0  0  0  0
 33 34  1  0  0  0  0
 34 31  2  0  0  0  0
 35 36  2  0  0  0  0
 36 31  1  0  0  0  0
 37 38  1  0  0  0  0
 38 40  1  0  0  0  0
 39 38  2  0  0  0  0
M  END
>  <MODEL>
3

>  <REMARK>
 VINA RESULT:      -8.0      1.450      1.866
  Name = 
  12 active torsions:
  status: ('A' for Active; 'I' for Inactive)
    1  A    between atoms: C_1  and  O_27
    2  A    between atoms: C_2  and  N_30
    3  A    between atoms: C_3  and  C_18
    4  A    between atoms: C_5  and  C_25
    5  A    between atoms: N_6  and  C_20
    6  A    between atoms: C_8  and  C_21
    7  A    between atoms: C_8  and  C_33
    8  A    between atoms: C_10  and  O_27
    9  A    between atoms: C_11  and  C_22
   10  A    between atoms: C_18  and  C_20
   11  A    between atoms: C_18  and  C_33
   12  A    between atoms: C_25  and  N_30
                            x       y       z     vdW  Elec       q    Type
                         _______ _______ _______ _____ _____    ______ ____

>  <TORSDO>
F 12

$$$$
=
 OpenBabel10232412473D

 40 45  0  0  1  0  0  0  0  0999 V2000
  190.5140  176.7990  138.4810 C   0  0  1  0  0  3  0  0  0  0  0  0
  190.4650  175.5350  143.1680 O   0  0  0  0  0  0  0  0  0  0  0  0
  188.7200  176.9700  142.5880 N   0  0  0  0  0  2  0  0  0  0  0  0
  189.6240  177.9560  137.3930 S   0  0  0  0  0  0  0  0  0  0  0  0
  188.4850  178.4280  138.7390 C   0  0  2  0  0  3  0  0  0  0  0  0
  188.9180  177.7530  139.9480 N   0  0  0  0  0  0  0  0  0  0  0  0
  190.4330  176.2120  140.9470 N   0  0  0  0  0  2  0  0  0  0  0  0
  189.8910  176.2120  142.2740 C   0  0  0  0  0  0  0  0  0  0  0  0
  189.9140  176.9430  139.8310 C   0  0  0  0  0  0  0  0  0  0  0  0
  185.4600  177.1420  137.4190 C   0  0  0  0  0  0  0  0  0  0  0  0
  184.5980  176.4410  136.6440 N   0  0  0  0  0  0  0  0  0  0  0  0
  187.0770  178.0480  138.3890 C   0  0  0  0  0  0  0  0  0  0  0  0
  184.9820  177.9960  138.3530 C   0  0  0  0  0  0  0  0  0  0  0  0
  183.1310  176.9980  137.2530 S   0  0  0  0  0  0  0  0  0  0  0  0
  185.9810  178.6050  139.0000 N   0  0  0  0  0  0  0  0  0  0  0  0
  183.6120  178.0860  138.4480 C   0  0  0  0  0  0  0  0  0  0  0  0
  186.7960  177.1460  137.3960 N   0  0  0  0  0  2  0  0  0  0  0  0
  182.7760  178.9170  139.3530 C   0  0  0  0  0  1  0  0  0  0  0  0
  188.0510  176.8920  143.8810 C   0  0  0  0  0  2  0  0  0  0  0  0
  186.9410  177.9420  144.0000 C   0  0  1  0  0  3  0  0  0  0  0  0
  186.0140  177.9010  142.7990 C   0  0  1  0  0  3  0  0  0  0  0  0
  184.6850  178.3620  143.1860 C   0  0  0  0  0  2  0  0  0  0  0  0
  185.5890  179.2660  142.4640 N   0  0  0  0  0  2  0  0  0  0  0  0
  186.1460  177.7840  145.2880 C   0  0  0  0  0  2  0  0  0  0  0  0
  186.8270  178.4910  146.4440 C   0  0  0  0  0  2  0  0  0  0  0  0
  188.9740  177.7430  147.3990 C   0  0  0  0  0  2  0  0  0  0  0  0
  187.4820  177.4840  147.3670 C   0  0  0  0  0  3  0  0  0  0  0  0
  188.1000  178.2210  148.5410 C   0  0  0  0  0  2  0  0  0  0  0  0
  190.3240  175.4400  138.0050 N   0  0  0  0  0  2  0  0  0  0  0  0
  190.7240  175.4180  136.6070 C   0  0  0  0  0  2  0  0  0  0  0  0
  194.9260  174.5850  136.2790 C   0  0  0  0  0  0  0  0  0  0  0  0
  192.1790  175.1340  136.5000 C   0  0  0  0  0  0  0  0  0  0  0  0
  192.7080  173.9620  137.0520 C   0  0  0  0  0  3  0  0  0  0  0  0
  194.0750  173.6910  136.9400 C   0  0  0  0  0  3  0  0  0  0  0  0
  193.0180  176.0290  135.8260 C   0  0  0  0  0  3  0  0  0  0  0  0
  194.3860  175.7560  135.7190 C   0  0  0  0  0  3  0  0  0  0  0  0
  196.2910  174.2670  136.1930 O   0  0  0  0  0  0  0  0  0  0  0  0
  197.2390  174.4000  137.2180 C   0  0  0  0  0  0  0  0  0  0  0  0
  197.7760  175.5100  137.4830 O   0  0  0  0  0  0  0  0  0  0  0  0
  197.5730  173.3110  137.9510 F   0  0  0  0  0  0  0  0  0  0  0  0
  1 29  1  6  0  0  0
  1  9  1  0  0  0  0
  3 19  1  0  0  0  0
  4  1  1  0  0  0  0
  4  5  1  0  0  0  0
  5 12  1  6  0  0  0
  5  6  1  0  0  0  0
  7  8  1  0  0  0  0
  8  3  1  0  0  0  0
  8  2  2  0  0  0  0
  9  6  2  0  0  0  0
  9  7  1  0  0  0  0
 10 13  1  0  0  0  0
 11 14  1  0  0  0  0
 11 10  2  0  0  0  0
 12 15  2  0  0  0  0
 13 16  2  0  0  0  0
 13 15  1  0  0  0  0
 14 16  1  0  0  0  0
 16 18  1  0  0  0  0
 17 10  1  0  0  0  0
 17 12  1  0  0  0  0
 20 19  1  6  0  0  0
 20 24  1  0  0  0  0
 21 22  1  0  0  0  0
 21 20  1  1  0  0  0
 23 21  1  0  0  0  0
 23 22  1  0  0  0  0
 24 25  1  0  0  0  0
 25 27  1  0  0  0  0
 26 28  1  0  0  0  0
 27 26  1  0  0  0  0
 27 28  1  0  0  0  0
 30 29  1  0  0  0  0
 31 34  1  0  0  0  0
 32 30  1  0  0  0  0
 32 33  1  0  0  0  0
 34 33  2  0  0  0  0
 35 32  2  0  0  0  0
 36 35  1  0  0  0  0
 36 31  2  0  0  0  0
 37 31  1  0  0  0  0
 37 38  1  0  0  0  0
 38 39  2  0  0  0  0
 38 40  1  0  0  0  0
M  END
>  <MODEL>
4

>  <REMARK>
 VINA RESULT:      -7.9      5.210      7.962
  Name = 
  12 active torsions:
  status: ('A' for Active; 'I' for Inactive)
    1  A    between atoms: C_1  and  O_27
    2  A    between atoms: C_2  and  N_30
    3  A    between atoms: C_3  and  C_18
    4  A    between atoms: C_5  and  C_25
    5  A    between atoms: N_6  and  C_20
    6  A    between atoms: C_8  and  C_21
    7  A    between atoms: C_8  and  C_33
    8  A    between atoms: C_10  and  O_27
    9  A    between atoms: C_11  and  C_22
   10  A    between atoms: C_18  and  C_20
   11  A    between atoms: C_18  and  C_33
   12  A    between atoms: C_25  and  N_30
                            x       y       z     vdW  Elec       q    Type
                         _______ _______ _______ _____ _____    ______ ____

>  <TORSDO>
F 12

$$$$
=
 OpenBabel10232412473D

 40 45  0  0  1  0  0  0  0  0999 V2000
  189.4230  177.9340  140.4900 C   0  0  1  0  0  3  0  0  0  0  0  0
  185.2390  179.5200  142.3750 O   0  0  0  0  0  0  0  0  0  0  0  0
  185.0650  178.9300  140.1250 N   0  0  0  0  0  2  0  0  0  0  0  0
  190.0700  177.4820  138.8490 S   0  0  0  0  0  0  0  0  0  0  0  0
  188.4270  177.6930  138.0840 C   0  0  2  0  0  3  0  0  0  0  0  0
  187.5190  178.1880  139.1030 N   0  0  0  0  0  0  0  0  0  0  0  0
  187.2060  178.7780  141.3880 N   0  0  0  0  0  2  0  0  0  0  0  0
  185.8090  179.0920  141.3360 C   0  0  0  0  0  0  0  0  0  0  0  0
  187.9990  178.3050  140.2940 C   0  0  0  0  0  0  0  0  0  0  0  0
  187.9560  174.4540  136.7280 C   0  0  0  0  0  0  0  0  0  0  0  0
  188.2260  173.2210  136.2390 N   0  0  0  0  0  0  0  0  0  0  0  0
  187.9410  176.3890  137.5230 C   0  0  0  0  0  0  0  0  0  0  0  0
  186.6800  174.9020  136.7540 C   0  0  0  0  0  0  0  0  0  0  0  0
  186.6730  172.7170  135.8300 S   0  0  0  0  0  0  0  0  0  0  0  0
  186.6180  176.1420  137.2530 N   0  0  0  0  0  0  0  0  0  0  0  0
  185.7240  174.0400  136.2690 C   0  0  0  0  0  0  0  0  0  0  0  0
  188.8030  175.3740  137.2020 N   0  0  0  0  0  2  0  0  0  0  0  0
  184.2530  174.2190  136.1540 C   0  0  0  0  0  1  0  0  0  0  0  0
  183.6190  179.1010  140.0560 C   0  0  0  0  0  2  0  0  0  0  0  0
  182.8850  177.7980  140.3890 C   0  0  1  0  0  3  0  0  0  0  0  0
  181.4370  178.0620  140.7620 C   0  0  1  0  0  3  0  0  0  0  0  0
  181.3800  178.9640  141.9080 C   0  0  0  0  0  2  0  0  0  0  0  0
  181.1310  179.4820  140.5560 N   0  0  0  0  0  2  0  0  0  0  0  0
  182.9620  176.7960  139.2470 C   0  0  0  0  0  2  0  0  0  0  0  0
  183.0610  177.4980  137.9060 C   0  0  0  0  0  2  0  0  0  0  0  0
  181.3250  178.8840  136.8360 C   0  0  0  0  0  2  0  0  0  0  0  0
  181.7250  177.4670  137.1930 C   0  0  0  0  0  3  0  0  0  0  0  0
  181.9120  177.9760  135.7750 C   0  0  0  0  0  2  0  0  0  0  0  0
  189.5100  176.7900  141.3790 N   0  0  0  0  0  2  0  0  0  0  0  0
  190.7710  176.9010  142.0960 C   0  0  0  0  0  2  0  0  0  0  0  0
  190.0400  176.9840  146.3290 C   0  0  0  0  0  0  0  0  0  0  0  0
  190.5210  176.9380  143.5600 C   0  0  0  0  0  0  0  0  0  0  0  0
  189.2270  177.1610  144.0450 C   0  0  0  0  0  3  0  0  0  0  0  0
  188.9910  177.1830  145.4240 C   0  0  0  0  0  3  0  0  0  0  0  0
  191.5750  176.7260  144.4560 C   0  0  0  0  0  3  0  0  0  0  0  0
  191.3360  176.7510  145.8330 C   0  0  0  0  0  3  0  0  0  0  0  0
  189.7510  177.0160  147.7020 O   0  0  0  0  0  0  0  0  0  0  0  0
  188.8100  177.8420  148.3320 C   0  0  0  0  0  0  0  0  0  0  0  0
  187.7540  177.3760  148.8400 O   0  0  0  0  0  0  0  0  0  0  0  0
  189.0490  179.1730  148.4090 F   0  0  0  0  0  0  0  0  0  0  0  0
  1 29  1  1  0  0  0
  3  8  1  0  0  0  0
  4  1  1  0  0  0  0
  5 12  1  1  0  0  0
  5  4  1  0  0  0  0
  5  6  1  0  0  0  0
  6  9  2  0  0  0  0
  8  7  1  0  0  0  0
  8  2  2  0  0  0  0
  9  1  1  0  0  0  0
  9  7  1  0  0  0  0
 10 13  1  0  0  0  0
 10 17  1  0  0  0  0
 11 10  2  0  0  0  0
 13 15  1  0  0  0  0
 14 11  1  0  0  0  0
 14 16  1  0  0  0  0
 15 12  2  0  0  0  0
 16 13  2  0  0  0  0
 17 12  1  0  0  0  0
 18 16  1  0  0  0  0
 19  3  1  0  0  0  0
 19 20  1  0  0  0  0
 20 24  1  6  0  0  0
 21 20  1  6  0  0  0
 21 22  1  0  0  0  0
 23 21  1  0  0  0  0
 23 22  1  0  0  0  0
 25 24  1  0  0  0  0
 26 27  1  0  0  0  0
 27 25  1  0  0  0  0
 28 26  1  0  0  0  0
 28 27  1  0  0  0  0
 29 30  1  0  0  0  0
 30 32  1  0  0  0  0
 31 37  1  0  0  0  0
 32 33  2  0  0  0  0
 32 35  1  0  0  0  0
 33 34  1  0  0  0  0
 34 31  2  0  0  0  0
 35 36  2  0  0  0  0
 36 31  1  0  0  0  0
 37 38  1  0  0  0  0
 38 40  1  0  0  0  0
 38 39  2  0  0  0  0
M  END
>  <MODEL>
5

>  <REMARK>
 VINA RESULT:      -7.7      1.657      2.660
  Name = 
  12 active torsions:
  status: ('A' for Active; 'I' for Inactive)
    1  A    between atoms: C_1  and  O_27
    2  A    between atoms: C_2  and  N_30
    3  A    between atoms: C_3  and  C_18
    4  A    between atoms: C_5  and  C_25
    5  A    between atoms: N_6  and  C_20
    6  A    between atoms: C_8  and  C_21
    7  A    between atoms: C_8  and  C_33
    8  A    between atoms: C_10  and  O_27
    9  A    between atoms: C_11  and  C_22
   10  A    between atoms: C_18  and  C_20
   11  A    between atoms: C_18  and  C_33
   12  A    between atoms: C_25  and  N_30
                            x       y       z     vdW  Elec       q    Type
                         _______ _______ _______ _____ _____    ______ ____

>  <TORSDO>
F 12

$$$$
=
 OpenBabel10232412473D

 40 45  0  0  1  0  0  0  0  0999 V2000
  190.4440  176.5840  138.3030 C   0  0  1  0  0  3  0  0  0  0  0  0
  191.3760  176.2500  143.0560 O   0  0  0  0  0  0  0  0  0  0  0  0
  189.7560  177.8500  142.5500 N   0  0  0  0  0  2  0  0  0  0  0  0
  189.4810  177.6630  137.1960 S   0  0  0  0  0  0  0  0  0  0  0  0
  188.7850  178.5810  138.6100 C   0  0  2  0  0  3  0  0  0  0  0  0
  189.4050  178.0760  139.8210 N   0  0  0  0  0  0  0  0  0  0  0  0
  190.8920  176.4940  140.7980 N   0  0  0  0  0  2  0  0  0  0  0  0
  190.6980  176.8420  142.1740 C   0  0  0  0  0  0  0  0  0  0  0  0
  190.2200  177.0870  139.6810 C   0  0  0  0  0  0  0  0  0  0  0  0
  185.3310  178.4140  139.3810 C   0  0  0  0  0  0  0  0  0  0  0  0
  184.1680  178.5100  140.0670 N   0  0  0  0  0  0  0  0  0  0  0  0
  187.2950  178.4110  138.6610 C   0  0  0  0  0  0  0  0  0  0  0  0
  185.3350  177.8900  138.1340 C   0  0  0  0  0  0  0  0  0  0  0  0
  183.1010  177.8630  138.9370 S   0  0  0  0  0  0  0  0  0  0  0  0
  186.5730  177.8630  137.6300 N   0  0  0  0  0  0  0  0  0  0  0  0
  184.1140  177.4850  137.6430 C   0  0  0  0  0  0  0  0  0  0  0  0
  186.5650  178.7560  139.7680 N   0  0  0  0  0  2  0  0  0  0  0  0
  183.7740  176.8750  136.3320 C   0  0  0  0  0  1  0  0  0  0  0  0
  189.4220  178.1420  143.9390 C   0  0  0  0  0  2  0  0  0  0  0  0
  188.4110  177.1340  144.4950 C   0  0  1  0  0  3  0  0  0  0  0  0
  188.4300  177.1160  146.0130 C   0  0  1  0  0  3  0  0  0  0  0  0
  189.7940  176.9110  146.4870 C   0  0  0  0  0  2  0  0  0  0  0  0
  189.2090  178.2580  146.5040 N   0  0  0  0  0  2  0  0  0  0  0  0
  187.0020  177.4040  143.9870 C   0  0  0  0  0  2  0  0  0  0  0  0
  186.0810  177.8140  145.1200 C   0  0  0  0  0  2  0  0  0  0  0  0
  184.1910  178.5510  143.7170 C   0  0  0  0  0  2  0  0  0  0  0  0
  185.2390  179.0060  144.7120 C   0  0  0  0  0  3  0  0  0  0  0  0
  183.8090  178.7780  145.1650 C   0  0  0  0  0  2  0  0  0  0  0  0
  189.9570  175.2200  138.1970 N   0  0  0  0  0  2  0  0  0  0  0  0
  189.8240  174.9230  136.7790 C   0  0  0  0  0  2  0  0  0  0  0  0
  186.2440  172.6580  136.0600 C   0  0  0  0  0  0  0  0  0  0  0  0
  188.5830  174.1400  136.5390 C   0  0  0  0  0  0  0  0  0  0  0  0
  187.4320  174.7790  136.0650 C   0  0  0  0  0  3  0  0  0  0  0  0
  186.2690  174.0380  135.8280 C   0  0  0  0  0  3  0  0  0  0  0  0
  188.5740  172.7590  136.7630 C   0  0  0  0  0  3  0  0  0  0  0  0
  187.4090  172.0220  136.5280 C   0  0  0  0  0  3  0  0  0  0  0  0
  185.0530  171.9600  135.8070 O   0  0  0  0  0  0  0  0  0  0  0  0
  183.9930  171.7750  136.7060 C   0  0  0  0  0  0  0  0  0  0  0  0
  183.4120  172.7520  137.2540 O   0  0  0  0  0  0  0  0  0  0  0  0
  183.5750  170.5160  136.9810 F   0  0  0  0  0  0  0  0  0  0  0  0
  1 29  1  1  0  0  0
  1  9  1  0  0  0  0
  3 19  1  0  0  0  0
  4  1  1  0  0  0  0
  4  5  1  0  0  0  0
  5 12  1  1  0  0  0
  5  6  1  0  0  0  0
  7  8  1  0  0  0  0
  8  3  1  0  0  0  0
  8  2  2  0  0  0  0
  9  6  2  0  0  0  0
  9  7  1  0  0  0  0
 10 17  1  0  0  0  0
 10 11  2  0  0  0  0
 12 17  1  0  0  0  0
 13 10  1  0  0  0  0
 14 11  1  0  0  0  0
 15 13  1  0  0  0  0
 15 12  2  0  0  0  0
 16 13  2  0  0  0  0
 16 14  1  0  0  0  0
 18 16  1  0  0  0  0
 20 19  1  1  0  0  0
 21 20  1  6  0  0  0
 21 22  1  0  0  0  0
 21 23  1  0  0  0  0
 22 23  1  0  0  0  0
 24 20  1  0  0  0  0
 24 25  1  0  0  0  0
 26 27  1  0  0  0  0
 26 28  1  0  0  0  0
 27 25  1  0  0  0  0
 27 28  1  0  0  0  0
 30 29  1  0  0  0  0
 31 36  1  0  0  0  0
 32 35  1  0  0  0  0
 32 30  1  0  0  0  0
 33 32  2  0  0  0  0
 34 31  2  0  0  0  0
 34 33  1  0  0  0  0
 36 35  2  0  0  0  0
 37 31  1  0  0  0  0
 37 38  1  0  0  0  0
 38 40  1  0  0  0  0
 38 39  2  0  0  0  0
M  END
>  <MODEL>
6

>  <REMARK>
 VINA RESULT:      -7.5      3.891      7.389
  Name = 
  12 active torsions:
  status: ('A' for Active; 'I' for Inactive)
    1  A    between atoms: C_1  and  O_27
    2  A    between atoms: C_2  and  N_30
    3  A    between atoms: C_3  and  C_18
    4  A    between atoms: C_5  and  C_25
    5  A    between atoms: N_6  and  C_20
    6  A    between atoms: C_8  and  C_21
    7  A    between atoms: C_8  and  C_33
    8  A    between atoms: C_10  and  O_27
    9  A    between atoms: C_11  and  C_22
   10  A    between atoms: C_18  and  C_20
   11  A    between atoms: C_18  and  C_33
   12  A    between atoms: C_25  and  N_30
                            x       y       z     vdW  Elec       q    Type
                         _______ _______ _______ _____ _____    ______ ____

>  <TORSDO>
F 12

$$$$
=
 OpenBabel10232412473D

 40 45  0  0  1  0  0  0  0  0999 V2000
  190.2390  176.8570  137.3870 C   0  0  1  0  0  3  0  0  0  0  0  0
  191.1780  176.5620  142.1410 O   0  0  0  0  0  0  0  0  0  0  0  0
  189.2950  177.8500  141.6570 N   0  0  0  0  0  2  0  0  0  0  0  0
  189.1030  177.7720  136.2970 S   0  0  0  0  0  0  0  0  0  0  0  0
  188.2380  178.5050  137.7270 C   0  0  2  0  0  3  0  0  0  0  0  0
  188.9300  178.0870  138.9310 N   0  0  0  0  0  0  0  0  0  0  0  0
  190.6760  176.7780  139.8840 N   0  0  0  0  0  2  0  0  0  0  0  0
  190.4100  177.0450  141.2670 C   0  0  0  0  0  0  0  0  0  0  0  0
  189.9150  177.2700  138.7750 C   0  0  0  0  0  0  0  0  0  0  0  0
  184.7580  178.0230  138.1840 C   0  0  0  0  0  0  0  0  0  0  0  0
  183.4820  178.2200  138.5940 N   0  0  0  0  0  0  0  0  0  0  0  0
  186.8050  178.0620  137.7520 C   0  0  0  0  0  0  0  0  0  0  0  0
  185.0740  176.9120  137.4800 C   0  0  0  0  0  0  0  0  0  0  0  0
  182.7540  176.8350  137.9750 S   0  0  0  0  0  0  0  0  0  0  0  0
  186.3770  176.8890  137.1820 N   0  0  0  0  0  0  0  0  0  0  0  0
  184.0390  176.0410  137.2250 C   0  0  0  0  0  0  0  0  0  0  0  0
  185.8340  178.7880  138.3920 N   0  0  0  0  0  2  0  0  0  0  0  0
  184.0450  174.7480  136.4930 C   0  0  0  0  0  1  0  0  0  0  0  0
  188.9010  178.0350  143.0490 C   0  0  0  0  0  2  0  0  0  0  0  0
  187.3870  178.2240  143.1810 C   0  0  1  0  0  3  0  0  0  0  0  0
  186.7320  178.3930  141.8210 C   0  0  1  0  0  3  0  0  0  0  0  0
  185.2960  178.1650  141.9330 C   0  0  0  0  0  2  0  0  0  0  0  0
  185.8140  179.5370  141.8600 N   0  0  0  0  0  2  0  0  0  0  0  0
  186.7360  177.0790  143.9420 C   0  0  0  0  0  2  0  0  0  0  0  0
  186.6700  177.3760  145.4280 C   0  0  0  0  0  2  0  0  0  0  0  0
  184.6290  178.7510  145.5910 C   0  0  0  0  0  2  0  0  0  0  0  0
  186.1420  178.7770  145.6650 C   0  0  0  0  0  3  0  0  0  0  0  0
  185.3190  178.7840  146.9400 C   0  0  0  0  0  2  0  0  0  0  0  0
  190.0130  175.4310  137.2370 N   0  0  0  0  0  2  0  0  0  0  0  0
  189.6380  175.2010  135.8500 C   0  0  0  0  0  2  0  0  0  0  0  0
  186.6710  172.1000  135.6410 C   0  0  0  0  0  0  0  0  0  0  0  0
  188.6170  174.1240  135.7720 C   0  0  0  0  0  0  0  0  0  0  0  0
  188.5780  173.1230  136.7490 C   0  0  0  0  0  3  0  0  0  0  0  0
  187.6080  172.1170  136.6810 C   0  0  0  0  0  3  0  0  0  0  0  0
  187.6780  174.1240  134.7340 C   0  0  0  0  0  3  0  0  0  0  0  0
  186.7120  173.1150  134.6680 C   0  0  0  0  0  3  0  0  0  0  0  0
  185.7190  171.0690  135.6170 O   0  0  0  0  0  0  0  0  0  0  0  0
  184.3300  171.2210  135.7420 C   0  0  0  0  0  0  0  0  0  0  0  0
  183.6080  171.5350  134.7570 O   0  0  0  0  0  0  0  0  0  0  0  0
  183.7510  171.0110  136.9490 F   0  0  0  0  0  0  0  0  0  0  0  0
  1 29  1  1  0  0  0
  1  9  1  0  0  0  0
  3 19  1  0  0  0  0
  4  1  1  0  0  0  0
  4  5  1  0  0  0  0
  5 12  1  1  0  0  0
  5  6  1  0  0  0  0
  7  8  1  0  0  0  0
  8  3  1  0  0  0  0
  8  2  2  0  0  0  0
  9  6  2  0  0  0  0
  9  7  1  0  0  0  0
 10 17  1  0  0  0  0
 10 11  2  0  0  0  0
 12 17  1  0  0  0  0
 13 10  1  0  0  0  0
 14 11  1  0  0  0  0
 15 13  1  0  0  0  0
 15 12  2  0  0  0  0
 16 13  2  0  0  0  0
 16 14  1  0  0  0  0
 18 16  1  0  0  0  0
 20 19  1  6  0  0  0
 20 24  1  0  0  0  0
 21 23  1  0  0  0  0
 21 22  1  0  0  0  0
 21 20  1  1  0  0  0
 23 22  1  0  0  0  0
 24 25  1  0  0  0  0
 25 27  1  0  0  0  0
 26 27  1  0  0  0  0
 26 28  1  0  0  0  0
 27 28  1  0  0  0  0
 30 29  1  0  0  0  0
 31 34  1  0  0  0  0
 32 30  1  0  0  0  0
 32 33  1  0  0  0  0
 34 33  2  0  0  0  0
 35 32  2  0  0  0  0
 36 35  1  0  0  0  0
 36 31  2  0  0  0  0
 37 31  1  0  0  0  0
 37 38  1  0  0  0  0
 38 40  1  0  0  0  0
 39 38  2  0  0  0  0
M  END
>  <MODEL>
7

>  <REMARK>
 VINA RESULT:      -7.4      3.942      7.251
  Name = 
  12 active torsions:
  status: ('A' for Active; 'I' for Inactive)
    1  A    between atoms: C_1  and  O_27
    2  A    between atoms: C_2  and  N_30
    3  A    between atoms: C_3  and  C_18
    4  A    between atoms: C_5  and  C_25
    5  A    between atoms: N_6  and  C_20
    6  A    between atoms: C_8  and  C_21
    7  A    between atoms: C_8  and  C_33
    8  A    between atoms: C_10  and  O_27
    9  A    between atoms: C_11  and  C_22
   10  A    between atoms: C_18  and  C_20
   11  A    between atoms: C_18  and  C_33
   12  A    between atoms: C_25  and  N_30
                            x       y       z     vdW  Elec       q    Type
                         _______ _______ _______ _____ _____    ______ ____

>  <TORSDO>
F 12

$$$$
=
 OpenBabel10232412473D

 40 45  0  0  1  0  0  0  0  0999 V2000
  183.0980  178.5470  140.3020 C   0  0  1  0  0  3  0  0  0  0  0  0
  180.4760  174.5420  139.4930 O   0  0  0  0  0  0  0  0  0  0  0  0
  182.0080  174.9930  137.7940 N   0  0  0  0  0  2  0  0  0  0  0  0
  184.3010  179.5700  139.3960 S   0  0  0  0  0  0  0  0  0  0  0  0
  184.3210  178.3990  137.9970 C   0  0  2  0  0  3  0  0  0  0  0  0
  183.3410  177.3640  138.2650 N   0  0  0  0  0  0  0  0  0  0  0  0
  181.7510  176.4600  139.7890 N   0  0  0  0  0  2  0  0  0  0  0  0
  181.3770  175.2970  139.0400 C   0  0  0  0  0  0  0  0  0  0  0  0
  182.7360  177.4240  139.4020 C   0  0  0  0  0  0  0  0  0  0  0  0
  187.2540  176.6230  137.1060 C   0  0  0  0  0  0  0  0  0  0  0  0
  188.0850  175.7600  136.4740 N   0  0  0  0  0  0  0  0  0  0  0  0
  185.6910  177.8090  137.8300 C   0  0  0  0  0  0  0  0  0  0  0  0
  187.7120  177.3560  138.1460 C   0  0  0  0  0  0  0  0  0  0  0  0
  189.4970  176.0050  137.3570 S   0  0  0  0  0  0  0  0  0  0  0  0
  186.7450  178.1320  138.6470 N   0  0  0  0  0  0  0  0  0  0  0  0
  189.0320  177.1640  138.4900 C   0  0  0  0  0  0  0  0  0  0  0  0
  185.9620  176.8700  136.8700 N   0  0  0  0  0  2  0  0  0  0  0  0
  189.8340  177.7990  139.5670 C   0  0  0  0  0  1  0  0  0  0  0  0
  181.7640  173.7540  137.0650 C   0  0  0  0  0  2  0  0  0  0  0  0
  183.0770  173.0790  136.6540 C   0  0  1  0  0  3  0  0  0  0  0  0
  184.2780  173.8590  137.1590 C   0  0  1  0  0  3  0  0  0  0  0  0
  185.1780  172.9660  137.8800 C   0  0  0  0  0  2  0  0  0  0  0  0
  185.4930  173.3630  136.5020 N   0  0  0  0  0  2  0  0  0  0  0  0
  183.1470  171.6360  137.1300 C   0  0  0  0  0  2  0  0  0  0  0  0
  182.8100  170.6720  136.0080 C   0  0  0  0  0  2  0  0  0  0  0  0
  183.5110  168.3330  135.6590 C   0  0  0  0  0  2  0  0  0  0  0  0
  183.9910  169.7690  135.7150 C   0  0  0  0  0  3  0  0  0  0  0  0
  183.7740  169.0920  134.3740 C   0  0  0  0  0  2  0  0  0  0  0  0
  183.7140  178.0260  141.5090 N   0  0  0  0  0  2  0  0  0  0  0  0
  184.8080  178.9220  141.8510 C   0  0  0  0  0  2  0  0  0  0  0  0
  186.3830  177.8690  145.7080 C   0  0  0  0  0  0  0  0  0  0  0  0
  185.3590  178.5640  143.1840 C   0  0  0  0  0  0  0  0  0  0  0  0
  184.7850  179.0940  144.3450 C   0  0  0  0  0  3  0  0  0  0  0  0
  185.2970  178.7460  145.6000 C   0  0  0  0  0  3  0  0  0  0  0  0
  186.4370  177.6770  143.2810 C   0  0  0  0  0  3  0  0  0  0  0  0
  186.9480  177.3340  144.5360 C   0  0  0  0  0  3  0  0  0  0  0  0
  186.8590  177.5520  146.9900 O   0  0  0  0  0  0  0  0  0  0  0  0
  188.1210  177.8760  147.5090 C   0  0  0  0  0  0  0  0  0  0  0  0
  188.3470  177.8740  148.7500 O   0  0  0  0  0  0  0  0  0  0  0  0
  189.1250  178.1860  146.6530 F   0  0  0  0  0  0  0  0  0  0  0  0
  1 29  1  1  0  0  0
  3  8  1  0  0  0  0
  4  1  1  0  0  0  0
  5 12  1  1  0  0  0
  5  6  1  0  0  0  0
  5  4  1  0  0  0  0
  6  9  2  0  0  0  0
  8  2  2  0  0  0  0
  8  7  1  0  0  0  0
  9  7  1  0  0  0  0
  9  1  1  0  0  0  0
 10 13  1  0  0  0  0
 11 10  2  0  0  0  0
 11 14  1  0  0  0  0
 12 15  2  0  0  0  0
 13 16  2  0  0  0  0
 13 15  1  0  0  0  0
 14 16  1  0  0  0  0
 16 18  1  0  0  0  0
 17 10  1  0  0  0  0
 17 12  1  0  0  0  0
 19  3  1  0  0  0  0
 20 19  1  1  0  0  0
 20 24  1  0  0  0  0
 21 20  1  6  0  0  0
 21 22  1  0  0  0  0
 23 21  1  0  0  0  0
 23 22  1  0  0  0  0
 25 24  1  0  0  0  0
 26 27  1  0  0  0  0
 27 25  1  0  0  0  0
 28 26  1  0  0  0  0
 28 27  1  0  0  0  0
 29 30  1  0  0  0  0
 30 32  1  0  0  0  0
 31 37  1  0  0  0  0
 32 35  2  0  0  0  0
 32 33  1  0  0  0  0
 33 34  2  0  0  0  0
 34 31  1  0  0  0  0
 35 36  1  0  0  0  0
 36 31  2  0  0  0  0
 37 38  1  0  0  0  0
 38 39  2  0  0  0  0
 40 38  1  0  0  0  0
M  END
>  <MODEL>
8

>  <REMARK>
 VINA RESULT:      -7.4      2.806      5.843
  Name = 
  12 active torsions:
  status: ('A' for Active; 'I' for Inactive)
    1  A    between atoms: C_1  and  O_27
    2  A    between atoms: C_2  and  N_30
    3  A    between atoms: C_3  and  C_18
    4  A    between atoms: C_5  and  C_25
    5  A    between atoms: N_6  and  C_20
    6  A    between atoms: C_8  and  C_21
    7  A    between atoms: C_8  and  C_33
    8  A    between atoms: C_10  and  O_27
    9  A    between atoms: C_11  and  C_22
   10  A    between atoms: C_18  and  C_20
   11  A    between atoms: C_18  and  C_33
   12  A    between atoms: C_25  and  N_30
                            x       y       z     vdW  Elec       q    Type
                         _______ _______ _______ _____ _____    ______ ____

>  <TORSDO>
F 12

$$$$
=
 OpenBabel10232412473D

 40 45  0  0  1  0  0  0  0  0999 V2000
  188.5500  176.9290  136.7180 C   0  0  1  0  0  3  0  0  0  0  0  0
  190.9350  177.0760  140.9440 O   0  0  0  0  0  0  0  0  0  0  0  0
  188.8550  178.1280  141.0290 N   0  0  0  0  0  2  0  0  0  0  0  0
  187.0320  177.6420  136.0080 S   0  0  0  0  0  0  0  0  0  0  0  0
  186.5680  178.3840  137.6080 C   0  0  2  0  0  3  0  0  0  0  0  0
  187.6430  178.1270  138.5490 N   0  0  0  0  0  0  0  0  0  0  0  0
  189.7410  177.0760  138.9530 N   0  0  0  0  0  2  0  0  0  0  0  0
  189.8830  177.4140  140.3380 C   0  0  0  0  0  0  0  0  0  0  0  0
  188.6220  177.4060  138.1220 C   0  0  0  0  0  0  0  0  0  0  0  0
  183.6040  176.5530  138.2480 C   0  0  0  0  0  0  0  0  0  0  0  0
  182.6280  175.6200  138.1390 N   0  0  0  0  0  0  0  0  0  0  0  0
  185.2760  177.8000  138.1000 C   0  0  0  0  0  0  0  0  0  0  0  0
  183.4950  177.5360  139.1710 C   0  0  0  0  0  0  0  0  0  0  0  0
  181.5780  176.1470  139.3440 S   0  0  0  0  0  0  0  0  0  0  0  0
  184.5420  178.3650  139.1130 N   0  0  0  0  0  0  0  0  0  0  0  0
  182.3630  177.5080  139.9550 C   0  0  0  0  0  0  0  0  0  0  0  0
  184.7240  176.6830  137.5300 N   0  0  0  0  0  2  0  0  0  0  0  0
  181.9400  178.4280  141.0430 C   0  0  0  0  0  1  0  0  0  0  0  0
  188.8900  178.3710  142.4660 C   0  0  0  0  0  2  0  0  0  0  0  0
  188.1440  177.2780  143.2370 C   0  0  1  0  0  3  0  0  0  0  0  0
  188.8560  176.9350  144.5340 C   0  0  1  0  0  3  0  0  0  0  0  0
  190.2980  176.9090  144.3130 C   0  0  0  0  0  2  0  0  0  0  0  0
  189.6780  178.0760  144.9550 N   0  0  0  0  0  2  0  0  0  0  0  0
  186.6980  177.6640  143.5150 C   0  0  0  0  0  2  0  0  0  0  0  0
  186.3430  177.4470  144.9730 C   0  0  0  0  0  2  0  0  0  0  0  0
  184.8760  178.4090  146.7060 C   0  0  0  0  0  2  0  0  0  0  0  0
  185.8540  178.7380  145.5960 C   0  0  0  0  0  3  0  0  0  0  0  0
  186.3040  178.7880  147.0450 C   0  0  0  0  0  2  0  0  0  0  0  0
  188.4610  175.4800  136.7000 N   0  0  0  0  0  2  0  0  0  0  0  0
  189.3710  175.0090  135.6670 C   0  0  0  0  0  2  0  0  0  0  0  0
  193.4430  175.4250  136.9720 C   0  0  0  0  0  0  0  0  0  0  0  0
  190.7780  175.1600  136.1220 C   0  0  0  0  0  0  0  0  0  0  0  0
  191.2070  174.5270  137.2940 C   0  0  0  0  0  3  0  0  0  0  0  0
  192.5340  174.6610  137.7140 C   0  0  0  0  0  3  0  0  0  0  0  0
  191.6800  175.9170  135.3660 C   0  0  0  0  0  3  0  0  0  0  0  0
  193.0060  176.0500  135.7910 C   0  0  0  0  0  3  0  0  0  0  0  0
  194.7640  175.5270  137.4370 O   0  0  0  0  0  0  0  0  0  0  0  0
  195.7470  174.5300  137.3650 C   0  0  0  0  0  0  0  0  0  0  0  0
  196.8070  174.5950  138.0460 O   0  0  0  0  0  0  0  0  0  0  0  0
  195.5450  173.4640  136.5540 F   0  0  0  0  0  0  0  0  0  0  0  0
  1 29  1  1  0  0  0
  1  9  1  0  0  0  0
  3 19  1  0  0  0  0
  4  1  1  0  0  0  0
  4  5  1  0  0  0  0
  5 12  1  1  0  0  0
  5  6  1  0  0  0  0
  7  8  1  0  0  0  0
  8  2  2  0  0  0  0
  8  3  1  0  0  0  0
  9  6  2  0  0  0  0
  9  7  1  0  0  0  0
 10 13  1  0  0  0  0
 11 10  2  0  0  0  0
 11 14  1  0  0  0  0
 12 15  2  0  0  0  0
 13 16  2  0  0  0  0
 14 16  1  0  0  0  0
 15 13  1  0  0  0  0
 16 18  1  0  0  0  0
 17 12  1  0  0  0  0
 17 10  1  0  0  0  0
 20 19  1  1  0  0  0
 20 24  1  0  0  0  0
 21 20  1  6  0  0  0
 21 23  1  0  0  0  0
 22 21  1  0  0  0  0
 22 23  1  0  0  0  0
 24 25  1  0  0  0  0
 25 27  1  0  0  0  0
 26 28  1  0  0  0  0
 27 26  1  0  0  0  0
 27 28  1  0  0  0  0
 30 32  1  0  0  0  0
 30 29  1  0  0  0  0
 31 37  1  0  0  0  0
 31 34  1  0  0  0  0
 32 33  1  0  0  0  0
 33 34  2  0  0  0  0
 35 36  1  0  0  0  0
 35 32  2  0  0  0  0
 36 31  2  0  0  0  0
 38 37  1  0  0  0  0
 38 39  2  0  0  0  0
 40 38  1  0  0  0  0
M  END
>  <MODEL>
9

>  <REMARK>
 VINA RESULT:      -7.3      4.767      7.802
  Name = 
  12 active torsions:
  status: ('A' for Active; 'I' for Inactive)
    1  A    between atoms: C_1  and  O_27
    2  A    between atoms: C_2  and  N_30
    3  A    between atoms: C_3  and  C_18
    4  A    between atoms: C_5  and  C_25
    5  A    between atoms: N_6  and  C_20
    6  A    between atoms: C_8  and  C_21
    7  A    between atoms: C_8  and  C_33
    8  A    between atoms: C_10  and  O_27
    9  A    between atoms: C_11  and  C_22
   10  A    between atoms: C_18  and  C_20
   11  A    between atoms: C_18  and  C_33
   12  A    between atoms: C_25  and  N_30
                            x       y       z     vdW  Elec       q    Type
                         _______ _______ _______ _____ _____    ______ ____

>  <TORSDO>
F 12

$$$$
